=
 OpenBabel11062421093D

 27 29  0  0  1  0  0  0  0  0999 V2000
  189.3880  174.6580  146.2790 C   0  0  0  0  0  1  0  0  0  0  0  0
  189.7710  175.9640  146.9630 C   0  0  2  0  0  3  0  0  0  0  0  0
  184.9640  178.4090  147.5040 N   0  0  0  0  0  1  0  0  0  0  0  0
  187.8120  177.7050  144.5210 C   0  0  0  0  0  0  0  0  0  0  0  0
  186.5050  178.0610  144.1850 C   0  0  0  0  0  3  0  0  0  0  0  0
  188.8520  177.4700  143.5810 N   0  0  0  0  0  0  0  0  0  0  0  0
  190.8230  175.7650  144.0660 O   0  0  0  0  0  0  0  0  0  0  0  0
  189.6250  177.2330  146.0980 C   0  0  1  0  0  3  0  0  0  0  0  0
  190.2990  177.1230  144.4360 S   0  0  0  0  0  0  0  0  0  0  0  0
  187.2450  177.8160  146.8670 C   0  0  0  0  0  3  0  0  0  0  0  0
  185.6020  178.2780  145.1810 N   0  0  0  0  0  0  0  0  0  0  0  0
  185.9400  178.1660  146.4990 C   0  0  0  0  0  0  0  0  0  0  0  0
  191.3350  178.1870  144.2030 O   0  0  0  0  0  0  0  0  0  0  0  0
  188.8080  177.8250  142.1730 C   0  0  0  0  0  1  0  0  0  0  0  0
  188.1800  177.5760  145.8580 C   0  0  0  0  0  0  0  0  0  0  0  0
  191.0740  175.8670  147.7680 C   0  0  2  0  0  3  0  0  0  0  0  0
  191.4530  177.7320  149.3270 C   0  0  0  0  0  2  0  0  0  0  0  0
  191.5790  177.2360  148.0980 C   0  0  0  0  0  3  0  0  0  0  0  0
  192.1550  175.0560  147.0650 C   0  0  0  0  0  2  0  0  0  0  0  0
  193.1180  175.9170  146.5100 O   0  0  0  0  0  0  0  0  0  0  0  0
  193.9650  173.7310  145.6340 C   0  0  0  0  0  2  0  0  0  0  0  0
  195.5050  173.1050  144.9030 S   0  0  0  0  0  0  0  0  0  0  0  0
  194.2430  175.1640  146.0940 C   0  0  1  0  0  3  0  0  0  0  0  0
  195.9160  174.7790  144.4300 C   0  0  0  0  0  0  0  0  0  0  0  0
  195.1820  175.8750  145.1190 C   0  0  1  0  0  3  0  0  0  0  0  0
  194.4720  176.6180  144.1740 O   0  0  0  0  0  1  0  0  0  0  0  0
  196.7270  175.0070  143.5480 O   0  0  0  0  0  0  0  0  0  0  0  0
  2  1  1  6  0  0  0
  2 16  1  0  0  0  0
  4 15  1  0  0  0  0
  5  4  2  0  0  0  0
  5 11  1  0  0  0  0
  6  9  1  0  0  0  0
  6  4  1  0  0  0  0
  7  9  2  0  0  0  0
  8  2  1  6  0  0  0
  9  8  1  0  0  0  0
 11 12  2  0  0  0  0
 12 10  1  0  0  0  0
 12  3  1  0  0  0  0
 13  9  2  0  0  0  0
 14  6  1  0  0  0  0
 15  8  1  0  0  0  0
 15 10  2  0  0  0  0
 16 19  1  6  0  0  0
 16 18  1  0  0  0  0
 18 17  2  0  0  0  0
 20 19  1  0  0  0  0
 21 23  1  0  0  0  0
 22 21  1  0  0  0  0
 23 20  1  6  0  0  0
 24 22  1  0  0  0  0
 24 25  1  0  0  0  0
 25 26  1  6  0  0  0
 25 23  1  0  0  0  0
 27 24  2  0  0  0  0
M  END
>  <MODEL>
1

>  <REMARK>
 VINA RESULT:      -6.6      0.000      0.000
  Name = 
  6 active torsions:
  status: ('A' for Active; 'I' for Inactive)
    1  A    between atoms: C_6  and  O_25
    2  A    between atoms: C_7  and  C_12
    3  A    between atoms: C_11  and  C_12
    4  A    between atoms: C_11  and  C_15
    5  A    between atoms: C_12  and  C_14
    6  A    between atoms: C_14  and  O_25
                            x       y       z     vdW  Elec       q    Type
                         _______ _______ _______ _____ _____    ______ ____

>  <TORSDO>
F 6

$$$$
=
 OpenBabel11062421093D

 27 29  0  0  1  0  0  0  0  0999 V2000
  189.5580  177.8990  143.8390 C   0  0  0  0  0  1  0  0  0  0  0  0
  188.7050  176.6540  143.6340 C   0  0  2  0  0  3  0  0  0  0  0  0
  183.7610  178.0970  141.9440 N   0  0  0  0  0  1  0  0  0  0  0  0
  185.9950  178.0920  145.4820 C   0  0  0  0  0  0  0  0  0  0  0  0
  184.8620  178.8980  145.3590 C   0  0  0  0  0  3  0  0  0  0  0  0
  186.8000  178.0040  146.6500 N   0  0  0  0  0  0  0  0  0  0  0  0
  189.3960  177.4820  146.5280 O   0  0  0  0  0  0  0  0  0  0  0  0
  187.6030  176.4240  144.6880 C   0  0  1  0  0  3  0  0  0  0  0  0
  188.0410  176.8510  146.3780 S   0  0  0  0  0  0  0  0  0  0  0  0
  185.6570  177.2640  143.2370 C   0  0  0  0  0  3  0  0  0  0  0  0
  184.1610  178.8790  144.1910 N   0  0  0  0  0  0  0  0  0  0  0  0
  184.5290  178.0880  143.1410 C   0  0  0  0  0  0  0  0  0  0  0  0
  187.8900  175.6660  147.2900 O   0  0  0  0  0  0  0  0  0  0  0  0
  186.4330  178.5060  147.9630 C   0  0  0  0  0  1  0  0  0  0  0  0
  186.3960  177.2820  144.4230 C   0  0  0  0  0  0  0  0  0  0  0  0
  189.5270  175.4110  143.2650 C   0  0  2  0  0  3  0  0  0  0  0  0
  188.2470  175.2710  141.1680 C   0  0  0  0  0  2  0  0  0  0  0  0
  188.8400  174.6420  142.1810 C   0  0  0  0  0  3  0  0  0  0  0  0
  189.8160  174.5070  144.4570 C   0  0  0  0  0  2  0  0  0  0  0  0
  191.1650  174.1110  144.4440 O   0  0  0  0  0  0  0  0  0  0  0  0
  192.4100  175.1850  146.3310 C   0  0  0  0  0  2  0  0  0  0  0  0
  193.6510  176.4970  146.5210 S   0  0  0  0  0  0  0  0  0  0  0  0
  191.9790  175.1910  144.8620 C   0  0  1  0  0  3  0  0  0  0  0  0
  194.1280  176.2400  144.8170 C   0  0  0  0  0  0  0  0  0  0  0  0
  193.1660  175.5070  143.9500 C   0  0  1  0  0  3  0  0  0  0  0  0
  193.7710  174.3420  143.4740 O   0  0  0  0  0  1  0  0  0  0  0  0
  195.2150  176.6060  144.4010 O   0  0  0  0  0  0  0  0  0  0  0  0
  2  1  1  1  0  0  0
  3 12  1  0  0  0  0
  4  6  1  0  0  0  0
  5  4  1  0  0  0  0
  6 14  1  0  0  0  0
  8  2  1  6  0  0  0
  8  9  1  0  0  0  0
  9  7  2  0  0  0  0
  9  6  1  0  0  0  0
  9 13  2  0  0  0  0
 10 15  1  0  0  0  0
 11  5  2  0  0  0  0
 12 10  2  0  0  0  0
 12 11  1  0  0  0  0
 15  8  1  0  0  0  0
 15  4  2  0  0  0  0
 16 18  1  6  0  0  0
 16  2  1  0  0  0  0
 16 19  1  0  0  0  0
 17 18  2  0  0  0  0
 20 19  1  0  0  0  0
 21 22  1  0  0  0  0
 23 20  1  6  0  0  0
 23 21  1  0  0  0  0
 24 22  1  0  0  0  0
 25 26  1  1  0  0  0
 25 24  1  0  0  0  0
 25 23  1  0  0  0  0
 27 24  2  0  0  0  0
M  END
>  <MODEL>
2

>  <REMARK>
 VINA RESULT:      -6.5      2.352      4.072
  Name = 
  6 active torsions:
  status: ('A' for Active; 'I' for Inactive)
    1  A    between atoms: C_6  and  O_25
    2  A    between atoms: C_7  and  C_12
    3  A    between atoms: C_11  and  C_12
    4  A    between atoms: C_11  and  C_15
    5  A    between atoms: C_12  and  C_14
    6  A    between atoms: C_14  and  O_25
                            x       y       z     vdW  Elec       q    Type
                         _______ _______ _______ _____ _____    ______ ____

>  <TORSDO>
F 6

$$$$
=
 OpenBabel11062421093D

 27 29  0  0  1  0  0  0  0  0999 V2000
  188.9540  174.5920  147.2410 C   0  0  0  0  0  1  0  0  0  0  0  0
  189.4350  174.9780  145.8490 C   0  0  2  0  0  3  0  0  0  0  0  0
  194.3150  177.1400  146.7940 N   0  0  0  0  0  1  0  0  0  0  0  0
  192.3820  174.9300  143.8130 C   0  0  0  0  0  0  0  0  0  0  0  0
  193.5550  175.6320  143.5290 C   0  0  0  0  0  3  0  0  0  0  0  0
  191.6700  174.1350  142.8750 N   0  0  0  0  0  0  0  0  0  0  0  0
  189.0420  173.8160  143.0150 O   0  0  0  0  0  0  0  0  0  0  0  0
  190.6000  174.1340  145.2930 C   0  0  1  0  0  3  0  0  0  0  0  0
  190.3320  173.4110  143.6700 S   0  0  0  0  0  0  0  0  0  0  0  0
  192.4760  175.6880  146.1050 C   0  0  0  0  0  3  0  0  0  0  0  0
  194.1560  176.3450  144.5220 N   0  0  0  0  0  0  0  0  0  0  0  0
  193.6490  176.3870  145.7890 C   0  0  0  0  0  0  0  0  0  0  0  0
  190.4730  171.9150  143.7160 O   0  0  0  0  0  0  0  0  0  0  0  0
  192.1770  173.7020  141.5840 C   0  0  0  0  0  1  0  0  0  0  0  0
  191.8400  174.9640  145.0950 C   0  0  0  0  0  0  0  0  0  0  0  0
  189.5740  176.4940  145.6550 C   0  0  2  0  0  3  0  0  0  0  0  0
  189.9990  177.9410  147.6000 C   0  0  0  0  0  2  0  0  0  0  0  0
  189.1370  177.2140  146.8920 C   0  0  0  0  0  3  0  0  0  0  0  0
  188.8160  177.0160  144.4410 C   0  0  0  0  0  2  0  0  0  0  0  0
  187.5590  176.3930  144.3530 O   0  0  0  0  0  0  0  0  0  0  0  0
  185.5660  177.1000  143.0150 C   0  0  0  0  0  2  0  0  0  0  0  0
  184.2500  178.3440  143.1560 S   0  0  0  0  0  0  0  0  0  0  0  0
  186.5580  177.3720  144.1490 C   0  0  1  0  0  3  0  0  0  0  0  0
  184.5360  178.3910  144.9200 C   0  0  0  0  0  0  0  0  0  0  0  0
  185.8270  177.8350  145.4090 C   0  0  1  0  0  3  0  0  0  0  0  0
  185.5690  176.7680  146.2730 O   0  0  0  0  0  1  0  0  0  0  0  0
  183.6890  178.8160  145.6880 O   0  0  0  0  0  0  0  0  0  0  0  0
  2  1  1  1  0  0  0
  4 15  1  0  0  0  0
  5  4  2  0  0  0  0
  5 11  1  0  0  0  0
  6  9  1  0  0  0  0
  6  4  1  0  0  0  0
  7  9  2  0  0  0  0
  8  2  1  6  0  0  0
  9 13  2  0  0  0  0
  9  8  1  0  0  0  0
 11 12  2  0  0  0  0
 12 10  1  0  0  0  0
 12  3  1  0  0  0  0
 14  6  1  0  0  0  0
 15  8  1  0  0  0  0
 15 10  2  0  0  0  0
 16 19  1  6  0  0  0
 16  2  1  0  0  0  0
 16 18  1  0  0  0  0
 18 17  2  0  0  0  0
 20 19  1  0  0  0  0
 21 22  1  0  0  0  0
 21 23  1  0  0  0  0
 22 24  1  0  0  0  0
 23 20  1  1  0  0  0
 23 25  1  0  0  0  0
 24 25  1  0  0  0  0
 24 27  2  0  0  0  0
 25 26  1  1  0  0  0
M  END
>  <MODEL>
3

>  <REMARK>
 VINA RESULT:      -6.4      3.853      7.180
  Name = 
  6 active torsions:
  status: ('A' for Active; 'I' for Inactive)
    1  A    between atoms: C_6  and  O_25
    2  A    between atoms: C_7  and  C_12
    3  A    between atoms: C_11  and  C_12
    4  A    between atoms: C_11  and  C_15
    5  A    between atoms: C_12  and  C_14
    6  A    between atoms: C_14  and  O_25
                            x       y       z     vdW  Elec       q    Type
                         _______ _______ _______ _____ _____    ______ ____

>  <TORSDO>
F 6

$$$$
=
 OpenBabel11062421093D

 27 29  0  0  1  0  0  0  0  0999 V2000
  190.4680  178.2490  144.1250 C   0  0  0  0  0  1  0  0  0  0  0  0
  190.0670  176.7800  144.0990 C   0  0  2  0  0  3  0  0  0  0  0  0
  185.9710  178.2720  140.8770 N   0  0  0  0  0  1  0  0  0  0  0  0
  186.8310  178.0490  144.9660 C   0  0  0  0  0  0  0  0  0  0  0  0
  185.7840  178.8470  144.5030 C   0  0  0  0  0  3  0  0  0  0  0  0
  187.1820  177.8910  146.3340 N   0  0  0  0  0  0  0  0  0  0  0  0
  189.6760  177.4140  147.0960 O   0  0  0  0  0  0  0  0  0  0  0  0
  188.6760  176.4630  144.6850 C   0  0  1  0  0  3  0  0  0  0  0  0
  188.4830  176.7760  146.4440 S   0  0  0  0  0  0  0  0  0  0  0  0
  187.3270  177.3750  142.6990 C   0  0  0  0  0  3  0  0  0  0  0  0
  185.5340  178.9000  143.1650 N   0  0  0  0  0  0  0  0  0  0  0  0
  186.2730  178.1900  142.2640 C   0  0  0  0  0  0  0  0  0  0  0  0
  188.0670  175.5290  147.1720 O   0  0  0  0  0  0  0  0  0  0  0  0
  186.3630  178.2940  147.4640 C   0  0  0  0  0  1  0  0  0  0  0  0
  187.6060  177.3210  144.0670 C   0  0  0  0  0  0  0  0  0  0  0  0
  191.1940  175.8360  144.5400 C   0  0  2  0  0  3  0  0  0  0  0  0
  193.0150  176.2700  146.1370 C   0  0  0  0  0  2  0  0  0  0  0  0
  192.3650  176.6270  145.0310 C   0  0  0  0  0  3  0  0  0  0  0  0
  191.6270  174.8660  143.4480 C   0  0  0  0  0  2  0  0  0  0  0  0
  190.6670  173.8510  143.2970 O   0  0  0  0  0  0  0  0  0  0  0  0
  190.7380  172.0530  141.5580 C   0  0  0  0  0  2  0  0  0  0  0  0
  190.2400  171.8710  139.8210 S   0  0  0  0  0  0  0  0  0  0  0  0
  190.5340  173.5250  141.9260 C   0  0  1  0  0  3  0  0  0  0  0  0
  189.0810  173.2120  140.0520 C   0  0  0  0  0  0  0  0  0  0  0  0
  189.2910  174.0890  141.2360 C   0  0  1  0  0  3  0  0  0  0  0  0
  188.1690  174.0190  142.0650 O   0  0  0  0  0  1  0  0  0  0  0  0
  188.1330  173.3670  139.3000 O   0  0  0  0  0  0  0  0  0  0  0  0
  2  1  1  1  0  0  0
  2 16  1  0  0  0  0
  3 12  1  0  0  0  0
  4  6  1  0  0  0  0
  5  4  1  0  0  0  0
  6  9  1  0  0  0  0
  6 14  1  0  0  0  0
  8  2  1  6  0  0  0
  8  9  1  0  0  0  0
  9  7  2  0  0  0  0
  9 13  2  0  0  0  0
 10 15  1  0  0  0  0
 11  5  2  0  0  0  0
 12 10  2  0  0  0  0
 12 11  1  0  0  0  0
 15  8  1  0  0  0  0
 15  4  2  0  0  0  0
 16 19  1  6  0  0  0
 16 18  1  0  0  0  0
 18 17  2  0  0  0  0
 20 19  1  0  0  0  0
 21 23  1  0  0  0  0
 22 24  1  0  0  0  0
 22 21  1  0  0  0  0
 23 20  1  1  0  0  0
 24 25  1  0  0  0  0
 25 23  1  0  0  0  0
 25 26  1  1  0  0  0
 27 24  2  0  0  0  0
M  END
>  <MODEL>
4

>  <REMARK>
 VINA RESULT:      -6.4      3.369      4.979
  Name = 
  6 active torsions:
  status: ('A' for Active; 'I' for Inactive)
    1  A    between atoms: C_6  and  O_25
    2  A    between atoms: C_7  and  C_12
    3  A    between atoms: C_11  and  C_12
    4  A    between atoms: C_11  and  C_15
    5  A    between atoms: C_12  and  C_14
    6  A    between atoms: C_14  and  O_25
                            x       y       z     vdW  Elec       q    Type
                         _______ _______ _______ _____ _____    ______ ____

>  <TORSDO>
F 6

$$$$
=
 OpenBabel11062421093D

 27 29  0  0  1  0  0  0  0  0999 V2000
  190.3770  177.9160  144.7760 C   0  0  0  0  0  1  0  0  0  0  0  0
  189.7690  176.5230  144.6820 C   0  0  2  0  0  3  0  0  0  0  0  0
  186.8480  177.4890  140.2190 N   0  0  0  0  0  1  0  0  0  0  0  0
  186.6100  178.1760  144.3400 C   0  0  0  0  0  0  0  0  0  0  0  0
  185.8250  178.9120  143.4500 C   0  0  0  0  0  3  0  0  0  0  0  0
  186.5800  178.3210  145.7530 N   0  0  0  0  0  0  0  0  0  0  0  0
  188.7170  177.8690  147.2550 O   0  0  0  0  0  0  0  0  0  0  0  0
  188.2460  176.4470  144.9150 C   0  0  1  0  0  3  0  0  0  0  0  0
  187.6560  177.1780  146.4460 S   0  0  0  0  0  0  0  0  0  0  0  0
  187.5730  176.9560  142.4890 C   0  0  0  0  0  3  0  0  0  0  0  0
  185.9310  178.6660  142.1150 N   0  0  0  0  0  0  0  0  0  0  0  0
  186.7770  177.7150  141.6210 C   0  0  0  0  0  0  0  0  0  0  0  0
  186.9130  176.1670  147.2750 O   0  0  0  0  0  0  0  0  0  0  0  0
  185.5600  179.0330  146.5040 C   0  0  0  0  0  1  0  0  0  0  0  0
  187.4870  177.2060  143.8610 C   0  0  0  0  0  0  0  0  0  0  0  0
  190.5960  175.4510  145.4050 C   0  0  2  0  0  3  0  0  0  0  0  0
  191.1870  175.6750  147.7840 C   0  0  0  0  0  2  0  0  0  0  0  0
  191.3730  176.0680  146.5250 C   0  0  0  0  0  3  0  0  0  0  0  0
  191.5250  174.6810  144.4750 C   0  0  0  0  0  2  0  0  0  0  0  0
  192.8020  174.5720  145.0520 O   0  0  0  0  0  0  0  0  0  0  0  0
  193.3050  175.5590  142.8090 C   0  0  0  0  0  2  0  0  0  0  0  0
  194.7880  176.0320  141.8720 S   0  0  0  0  0  0  0  0  0  0  0  0
  193.7880  174.8460  144.0740 C   0  0  1  0  0  3  0  0  0  0  0  0
  195.6770  176.1570  143.4180 C   0  0  0  0  0  0  0  0  0  0  0  0
  195.0730  175.4860  144.6010 C   0  0  1  0  0  3  0  0  0  0  0  0
  194.8030  176.4420  145.5830 O   0  0  0  0  0  1  0  0  0  0  0  0
  196.7070  176.8060  143.5060 O   0  0  0  0  0  0  0  0  0  0  0  0
  2  1  1  1  0  0  0
  2 16  1  0  0  0  0
  3 12  1  0  0  0  0
  4  6  1  0  0  0  0
  5  4  2  0  0  0  0
  6  9  1  0  0  0  0
  6 14  1  0  0  0  0
  8  2  1  6  0  0  0
  8  9  1  0  0  0  0
  9  7  2  0  0  0  0
  9 13  2  0  0  0  0
 10 15  2  0  0  0  0
 11  5  1  0  0  0  0
 12 11  2  0  0  0  0
 12 10  1  0  0  0  0
 15  4  1  0  0  0  0
 15  8  1  0  0  0  0
 16 19  1  6  0  0  0
 16 18  1  0  0  0  0
 18 17  2  0  0  0  0
 19 20  1  0  0  0  0
 21 23  1  0  0  0  0
 22 21  1  0  0  0  0
 22 24  1  0  0  0  0
 23 25  1  0  0  0  0
 23 20  1  1  0  0  0
 24 27  2  0  0  0  0
 24 25  1  0  0  0  0
 25 26  1  1  0  0  0
M  END
>  <MODEL>
5

>  <REMARK>
 VINA RESULT:      -6.4      2.376      3.436
  Name = 
  6 active torsions:
  status: ('A' for Active; 'I' for Inactive)
    1  A    between atoms: C_6  and  O_25
    2  A    between atoms: C_7  and  C_12
    3  A    between atoms: C_11  and  C_12
    4  A    between atoms: C_11  and  C_15
    5  A    between atoms: C_12  and  C_14
    6  A    between atoms: C_14  and  O_25
                            x       y       z     vdW  Elec       q    Type
                         _______ _______ _______ _____ _____    ______ ____

>  <TORSDO>
F 6

$$$$
=
 OpenBabel11062421093D

 27 29  0  0  1  0  0  0  0  0999 V2000
  189.2910  174.7550  146.9010 C   0  0  0  0  0  1  0  0  0  0  0  0
  189.2380  175.5750  145.6190 C   0  0  2  0  0  3  0  0  0  0  0  0
  190.0240  171.1620  142.5710 N   0  0  0  0  0  1  0  0  0  0  0  0
  192.2900  173.8950  144.7860 C   0  0  0  0  0  0  0  0  0  0  0  0
  192.8210  172.6530  144.4330 C   0  0  0  0  0  3  0  0  0  0  0  0
  192.9900  174.8950  145.5130 N   0  0  0  0  0  0  0  0  0  0  0  0
  191.7400  176.6020  147.1110 O   0  0  0  0  0  0  0  0  0  0  0  0
  190.5470  175.6150  144.8040 C   0  0  1  0  0  3  0  0  0  0  0  0
  191.9800  176.2750  145.6640 S   0  0  0  0  0  0  0  0  0  0  0  0
  190.2260  173.3390  143.6590 C   0  0  0  0  0  3  0  0  0  0  0  0
  192.0540  171.7850  143.7160 N   0  0  0  0  0  0  0  0  0  0  0  0
  190.7840  172.0980  143.3250 C   0  0  0  0  0  0  0  0  0  0  0  0
  192.5560  177.4520  144.9290 O   0  0  0  0  0  0  0  0  0  0  0  0
  194.4220  174.9080  145.7590 C   0  0  0  0  0  1  0  0  0  0  0  0
  190.9940  174.2350  144.4060 C   0  0  0  0  0  0  0  0  0  0  0  0
  188.5340  176.9280  145.7930 C   0  0  2  0  0  3  0  0  0  0  0  0
  186.7350  177.8050  147.2250 C   0  0  0  0  0  2  0  0  0  0  0  0
  187.2960  176.7620  146.6160 C   0  0  0  0  0  3  0  0  0  0  0  0
  188.2060  177.6090  144.4700 C   0  0  0  0  0  2  0  0  0  0  0  0
  187.1360  176.9510  143.8420 O   0  0  0  0  0  0  0  0  0  0  0  0
  187.1790  176.6550  141.3570 C   0  0  0  0  0  2  0  0  0  0  0  0
  186.5310  177.5360  139.9070 S   0  0  0  0  0  0  0  0  0  0  0  0
  186.8970  177.5370  142.5760 C   0  0  1  0  0  3  0  0  0  0  0  0
  185.2980  178.2860  140.9620 C   0  0  0  0  0  0  0  0  0  0  0  0
  185.5530  178.2520  142.4280 C   0  0  1  0  0  3  0  0  0  0  0  0
  184.5260  177.5450  143.0560 O   0  0  0  0  0  1  0  0  0  0  0  0
  184.2740  178.7600  140.5010 O   0  0  0  0  0  0  0  0  0  0  0  0
  2 16  1  0  0  0  0
  2  1  1  1  0  0  0
  3 12  1  0  0  0  0
  4  6  1  0  0  0  0
  5  4  1  0  0  0  0
  6  9  1  0  0  0  0
  6 14  1  0  0  0  0
  8  2  1  1  0  0  0
  8  9  1  0  0  0  0
  9  7  2  0  0  0  0
 10 15  1  0  0  0  0
 11  5  2  0  0  0  0
 12 10  2  0  0  0  0
 12 11  1  0  0  0  0
 13  9  2  0  0  0  0
 15  4  2  0  0  0  0
 15  8  1  0  0  0  0
 16 19  1  6  0  0  0
 16 18  1  0  0  0  0
 18 17  2  0  0  0  0
 20 19  1  0  0  0  0
 21 23  1  0  0  0  0
 22 24  1  0  0  0  0
 22 21  1  0  0  0  0
 23 20  1  1  0  0  0
 24 25  1  0  0  0  0
 25 23  1  0  0  0  0
 25 26  1  1  0  0  0
 27 24  2  0  0  0  0
M  END
>  <MODEL>
6

>  <REMARK>
 VINA RESULT:      -6.3      3.615      7.337
  Name = 
  6 active torsions:
  status: ('A' for Active; 'I' for Inactive)
    1  A    between atoms: C_6  and  O_25
    2  A    between atoms: C_7  and  C_12
    3  A    between atoms: C_11  and  C_12
    4  A    between atoms: C_11  and  C_15
    5  A    between atoms: C_12  and  C_14
    6  A    between atoms: C_14  and  O_25
                            x       y       z     vdW  Elec       q    Type
                         _______ _______ _______ _____ _____    ______ ____

>  <TORSDO>
F 6

$$$$
=
 OpenBabel11062421093D

 27 29  0  0  1  0  0  0  0  0999 V2000
  188.7270  174.9340  143.3960 C   0  0  0  0  0  1  0  0  0  0  0  0
  188.5450  176.0810  144.3820 C   0  0  2  0  0  3  0  0  0  0  0  0
  184.9190  178.6610  147.4750 N   0  0  0  0  0  1  0  0  0  0  0  0
  185.7120  178.0450  143.4130 C   0  0  0  0  0  0  0  0  0  0  0  0
  184.4500  178.4700  143.8340 C   0  0  0  0  0  3  0  0  0  0  0  0
  186.0810  177.8340  142.0570 N   0  0  0  0  0  0  0  0  0  0  0  0
  187.8950  176.0290  141.3630 O   0  0  0  0  0  0  0  0  0  0  0  0
  188.0480  177.4070  143.7710 C   0  0  1  0  0  3  0  0  0  0  0  0
  187.7350  177.3800  142.0020 S   0  0  0  0  0  0  0  0  0  0  0  0
  186.4770  178.0270  145.7050 C   0  0  0  0  0  3  0  0  0  0  0  0
  184.2250  178.6560  145.1650 N   0  0  0  0  0  0  0  0  0  0  0  0
  185.1990  178.4470  146.0980 C   0  0  0  0  0  0  0  0  0  0  0  0
  188.5590  178.4170  141.2920 O   0  0  0  0  0  0  0  0  0  0  0  0
  185.3240  178.2790  140.9000 C   0  0  0  0  0  1  0  0  0  0  0  0
  186.7200  177.8180  144.3460 C   0  0  0  0  0  0  0  0  0  0  0  0
  189.7050  176.2130  145.3780 C   0  0  2  0  0  3  0  0  0  0  0  0
  188.9410  174.8290  147.2640 C   0  0  0  0  0  2  0  0  0  0  0  0
  189.2050  176.0400  146.7770 C   0  0  0  0  0  3  0  0  0  0  0  0
  190.4660  177.5260  145.2430 C   0  0  0  0  0  2  0  0  0  0  0  0
  191.5620  177.3610  144.3790 O   0  0  0  0  0  0  0  0  0  0  0  0
  192.7050  175.2910  143.5610 C   0  0  0  0  0  2  0  0  0  0  0  0
  193.8080  174.0250  144.2550 S   0  0  0  0  0  0  0  0  0  0  0  0
  192.2650  176.1820  144.7250 C   0  0  1  0  0  3  0  0  0  0  0  0
  194.2950  175.1950  145.5150 C   0  0  0  0  0  0  0  0  0  0  0  0
  193.4060  176.3700  145.7260 C   0  0  1  0  0  3  0  0  0  0  0  0
  194.1230  177.5410  145.4710 O   0  0  0  0  0  1  0  0  0  0  0  0
  195.3350  175.0590  146.1380 O   0  0  0  0  0  0  0  0  0  0  0  0
  2  1  1  6  0  0  0
  2 16  1  0  0  0  0
  4  5  2  0  0  0  0
  4 15  1  0  0  0  0
  5 11  1  0  0  0  0
  6  4  1  0  0  0  0
  7  9  2  0  0  0  0
  8 15  1  0  0  0  0
  8  2  1  1  0  0  0
  9  6  1  0  0  0  0
  9  8  1  0  0  0  0
 10 12  1  0  0  0  0
 11 12  2  0  0  0  0
 12  3  1  0  0  0  0
 13  9  2  0  0  0  0
 14  6  1  0  0  0  0
 15 10  2  0  0  0  0
 16 19  1  1  0  0  0
 16 18  1  0  0  0  0
 18 17  2  0  0  0  0
 20 19  1  0  0  0  0
 21 22  1  0  0  0  0
 21 23  1  0  0  0  0
 22 24  1  0  0  0  0
 23 20  1  6  0  0  0
 23 25  1  0  0  0  0
 24 25  1  0  0  0  0
 24 27  2  0  0  0  0
 25 26  1  6  0  0  0
M  END
>  <MODEL>
7

>  <REMARK>
 VINA RESULT:      -6.3      2.154      2.779
  Name = 
  6 active torsions:
  status: ('A' for Active; 'I' for Inactive)
    1  A    between atoms: C_6  and  O_25
    2  A    between atoms: C_7  and  C_12
    3  A    between atoms: C_11  and  C_12
    4  A    between atoms: C_11  and  C_15
    5  A    between atoms: C_12  and  C_14
    6  A    between atoms: C_14  and  O_25
                            x       y       z     vdW  Elec       q    Type
                         _______ _______ _______ _____ _____    ______ ____

>  <TORSDO>
F 6

$$$$
=
 OpenBabel11062421093D

 27 29  0  0  1  0  0  0  0  0999 V2000
  189.3360  177.9180  144.8690 C   0  0  0  0  0  1  0  0  0  0  0  0
  188.7640  176.5160  145.0330 C   0  0  2  0  0  3  0  0  0  0  0  0
  187.0660  176.8050  139.8940 N   0  0  0  0  0  1  0  0  0  0  0  0
  185.7780  177.9760  143.6990 C   0  0  0  0  0  0  0  0  0  0  0  0
  185.2370  178.5630  142.5540 C   0  0  0  0  0  3  0  0  0  0  0  0
  185.3870  178.2890  145.0280 N   0  0  0  0  0  0  0  0  0  0  0  0
  187.0770  178.1160  147.0640 O   0  0  0  0  0  0  0  0  0  0  0  0
  187.2330  176.4020  144.8830 C   0  0  1  0  0  3  0  0  0  0  0  0
  186.2640  177.2860  146.1110 S   0  0  0  0  0  0  0  0  0  0  0  0
  187.1940  176.5830  142.3220 C   0  0  0  0  0  3  0  0  0  0  0  0
  185.6830  178.1620  141.3310 N   0  0  0  0  0  0  0  0  0  0  0  0
  186.6370  177.1960  141.1920 C   0  0  0  0  0  0  0  0  0  0  0  0
  185.3460  176.3530  146.8490 O   0  0  0  0  0  0  0  0  0  0  0  0
  184.2020  179.0420  145.4010 C   0  0  0  0  0  1  0  0  0  0  0  0
  186.7590  176.9940  143.5840 C   0  0  0  0  0  0  0  0  0  0  0  0
  189.3640  175.7520  146.2210 C   0  0  2  0  0  3  0  0  0  0  0  0
  191.1420  176.1730  147.8700 C   0  0  0  0  0  2  0  0  0  0  0  0
  190.2280  176.6630  147.0360 C   0  0  0  0  0  3  0  0  0  0  0  0
  190.1440  174.5110  145.8060 C   0  0  0  0  0  2  0  0  0  0  0  0
  190.7240  174.7070  144.5410 O   0  0  0  0  0  0  0  0  0  0  0  0
  192.8100  173.5300  143.8170 C   0  0  0  0  0  2  0  0  0  0  0  0
  194.5990  173.8250  143.9180 S   0  0  0  0  0  0  0  0  0  0  0  0
  192.1330  174.6230  144.6480 C   0  0  1  0  0  3  0  0  0  0  0  0
  194.2630  175.5690  144.1120 C   0  0  0  0  0  0  0  0  0  0  0  0
  192.8810  175.9500  144.5120 C   0  0  1  0  0  3  0  0  0  0  0  0
  192.3190  176.7540  143.5170 O   0  0  0  0  0  1  0  0  0  0  0  0
  195.1160  176.4090  143.8790 O   0  0  0  0  0  0  0  0  0  0  0  0
  2  1  1  1  0  0  0
  2 16  1  0  0  0  0
  3 12  1  0  0  0  0
  4  6  1  0  0  0  0
  5  4  2  0  0  0  0
  6 14  1  0  0  0  0
  6  9  1  0  0  0  0
  8  2  1  1  0  0  0
  8  9  1  0  0  0  0
  9 13  2  0  0  0  0
  9  7  2  0  0  0  0
 10 15  2  0  0  0  0
 11  5  1  0  0  0  0
 12 11  2  0  0  0  0
 12 10  1  0  0  0  0
 15  4  1  0  0  0  0
 15  8  1  0  0  0  0
 16 19  1  6  0  0  0
 16 18  1  0  0  0  0
 18 17  2  0  0  0  0
 20 19  1  0  0  0  0
 21 22  1  0  0  0  0
 21 23  1  0  0  0  0
 22 24  1  0  0  0  0
 23 20  1  6  0  0  0
 24 25  1  0  0  0  0
 25 26  1  6  0  0  0
 25 23  1  0  0  0  0
 27 24  2  0  0  0  0
M  END
>  <MODEL>
8

>  <REMARK>
 VINA RESULT:      -6.3      2.516      3.746
  Name = 
  6 active torsions:
  status: ('A' for Active; 'I' for Inactive)
    1  A    between atoms: C_6  and  O_25
    2  A    between atoms: C_7  and  C_12
    3  A    between atoms: C_11  and  C_12
    4  A    between atoms: C_11  and  C_15
    5  A    between atoms: C_12  and  C_14
    6  A    between atoms: C_14  and  O_25
                            x       y       z     vdW  Elec       q    Type
                         _______ _______ _______ _____ _____    ______ ____

>  <TORSDO>
F 6

$$$$
=
 OpenBabel11062421093D

 27 29  0  0  1  0  0  0  0  0999 V2000
  190.2360  177.9210  144.6990 C   0  0  0  0  0  1  0  0  0  0  0  0
  189.6470  176.5210  144.5940 C   0  0  2  0  0  3  0  0  0  0  0  0
  186.5040  177.4850  140.2830 N   0  0  0  0  0  1  0  0  0  0  0  0
  186.4450  178.1160  144.4200 C   0  0  0  0  0  0  0  0  0  0  0  0
  185.6050  178.8480  143.5770 C   0  0  0  0  0  3  0  0  0  0  0  0
  186.4770  178.2430  145.8350 N   0  0  0  0  0  0  0  0  0  0  0  0
  188.6900  177.8140  147.2300 O   0  0  0  0  0  0  0  0  0  0  0  0
  188.1380  176.4130  144.8950 C   0  0  1  0  0  3  0  0  0  0  0  0
  187.6060  177.1120  146.4620 S   0  0  0  0  0  0  0  0  0  0  0  0
  187.3430  176.9380  142.5110 C   0  0  0  0  0  3  0  0  0  0  0  0
  185.6540  178.6200  142.2350 N   0  0  0  0  0  0  0  0  0  0  0  0
  186.4940  177.6920  141.6900 C   0  0  0  0  0  0  0  0  0  0  0  0
  186.9220  176.0780  147.3110 O   0  0  0  0  0  0  0  0  0  0  0  0
  185.4800  178.9260  146.6410 C   0  0  0  0  0  1  0  0  0  0  0  0
  187.3160  177.1690  143.8880 C   0  0  0  0  0  0  0  0  0  0  0  0
  190.5240  175.4440  145.2460 C   0  0  2  0  0  3  0  0  0  0  0  0
  189.8970  173.0780  144.9890 C   0  0  0  0  0  2  0  0  0  0  0  0
  189.6960  174.2470  145.5940 C   0  0  0  0  0  3  0  0  0  0  0  0
  191.2780  175.9440  146.4720 C   0  0  0  0  0  2  0  0  0  0  0  0
  192.4730  175.2220  146.6300 O   0  0  0  0  0  0  0  0  0  0  0  0
  194.4470  176.3870  145.6260 C   0  0  0  0  0  2  0  0  0  0  0  0
  195.4740  176.2090  144.1380 S   0  0  0  0  0  0  0  0  0  0  0  0
  193.2870  175.3980  145.4850 C   0  0  1  0  0  3  0  0  0  0  0  0
  194.9650  174.4990  144.0380 C   0  0  0  0  0  0  0  0  0  0  0  0
  193.7530  174.1090  144.8070 C   0  0  1  0  0  3  0  0  0  0  0  0
  194.0970  173.1330  145.7450 O   0  0  0  0  0  1  0  0  0  0  0  0
  195.6130  173.6810  143.4050 O   0  0  0  0  0  0  0  0  0  0  0  0
  2  1  1  1  0  0  0
  2 16  1  0  0  0  0
  3 12  1  0  0  0  0
  4  6  1  0  0  0  0
  5  4  2  0  0  0  0
  6  9  1  0  0  0  0
  6 14  1  0  0  0  0
  8  2  1  6  0  0  0
  8  9  1  0  0  0  0
  9  7  2  0  0  0  0
  9 13  2  0  0  0  0
 10 15  2  0  0  0  0
 11  5  1  0  0  0  0
 12 11  2  0  0  0  0
 12 10  1  0  0  0  0
 15  4  1  0  0  0  0
 15  8  1  0  0  0  0
 16 18  1  1  0  0  0
 16 19  1  0  0  0  0
 17 18  2  0  0  0  0
 19 20  1  0  0  0  0
 22 21  1  0  0  0  0
 23 21  1  0  0  0  0
 23 20  1  1  0  0  0
 24 22  1  0  0  0  0
 24 25  1  0  0  0  0
 25 23  1  0  0  0  0
 25 26  1  1  0  0  0
 27 24  2  0  0  0  0
M  END
>  <MODEL>
9

>  <REMARK>
 VINA RESULT:      -6.3      2.255      3.661
  Name = 
  6 active torsions:
  status: ('A' for Active; 'I' for Inactive)
    1  A    between atoms: C_6  and  O_25
    2  A    between atoms: C_7  and  C_12
    3  A    between atoms: C_11  and  C_12
    4  A    between atoms: C_11  and  C_15
    5  A    between atoms: C_12  and  C_14
    6  A    between atoms: C_14  and  O_25
                            x       y       z     vdW  Elec       q    Type
                         _______ _______ _______ _____ _____    ______ ____

>  <TORSDO>
F 6

$$$$
