=
 OpenBabel11062421073D

 27 29  0  0  1  0  0  0  0  0999 V2000
  189.3560  177.9150  147.2790 O   0  0  0  0  0  0  0  0  0  0  0  0
  188.9750  177.3380  146.2240 C   0  0  0  0  0  0  0  0  0  0  0  0
  189.9210  176.5900  145.4510 N   0  0  0  0  0  2  0  0  0  0  0  0
  191.3280  176.4840  145.8160 C   0  0  2  0  0  3  0  0  0  0  0  0
  194.3720  173.4410  143.7780 O   0  0  0  0  0  0  0  0  0  0  0  0
  194.2210  175.7570  144.0660 N   0  0  0  0  0  0  0  0  0  0  0  0
  193.6880  176.7600  144.9830 C   0  0  0  0  0  2  0  0  0  0  0  0
  195.5000  176.0400  143.4390 C   0  0  0  0  0  1  0  0  0  0  0  0
  192.2190  177.0490  144.7040 C   0  0  0  0  0  2  0  0  0  0  0  0
  191.6860  175.0480  146.2430 C   0  0  0  0  0  2  0  0  0  0  0  0
  190.0720  173.5620  145.0090 C   0  0  0  0  0  1  0  0  0  0  0  0
  192.1480  174.2770  143.8310 C   0  0  0  0  0  2  0  0  0  0  0  0
  193.6330  174.4530  143.9090 C   0  0  0  0  0  0  0  0  0  0  0  0
  191.5280  173.9460  145.1830 C   0  0  1  0  0  3  0  0  0  0  0  0
  184.4900  178.2090  146.5170 N   0  0  0  0  0  2  0  0  0  0  0  0
  186.7530  176.1580  147.6340 O   0  0  0  0  0  1  0  0  0  0  0  0
  187.2660  178.2730  144.5720 C   0  0  2  0  0  3  0  0  0  0  0  0
  187.5560  177.4610  145.8020 C   0  0  0  0  0  0  0  0  0  0  0  0
  185.1050  176.9850  145.9840 C   0  0  2  0  0  3  0  0  0  0  0  0
  185.9550  179.0400  144.7400 C   0  0  0  0  0  2  0  0  0  0  0  0
  186.5330  176.8820  146.4680 C   0  0  0  0  0  0  0  0  0  0  0  0
  184.7850  178.1130  145.0790 C   0  0  2  0  0  3  0  0  0  0  0  0
  187.2520  177.4070  143.3540 C   0  0  0  0  0  3  0  0  0  0  0  0
  187.1450  177.9330  142.1750 N   0  0  0  0  0  0  0  0  0  0  0  0
  186.3190  177.5410  139.8870 N   0  0  0  0  0  1  0  0  0  0  0  0
  187.8160  176.0870  140.9000 O   0  0  0  0  0  0  0  0  0  0  0  0
  187.1270  177.1400  140.9860 C   0  0  0  0  0  0  0  0  0  0  0  0
  2  1  2  0  0  0  0
  3  2  1  0  0  0  0
  4  3  1  6  0  0  0
  4 10  1  0  0  0  0
  5 13  2  0  0  0  0
  6  7  1  0  0  0  0
  8  6  1  0  0  0  0
  9  7  1  0  0  0  0
  9  4  1  0  0  0  0
 12 13  1  0  0  0  0
 12 14  1  0  0  0  0
 13  6  1  0  0  0  0
 14 11  1  6  0  0  0
 14 10  1  0  0  0  0
 17 23  1  6  0  0  0
 17 20  1  0  0  0  0
 17 18  1  0  0  0  0
 18  2  1  0  0  0  0
 18 21  2  0  0  0  0
 19 21  1  1  0  0  0
 19 15  1  0  0  0  0
 21 16  1  0  0  0  0
 22 20  1  1  0  0  0
 22 19  1  0  0  0  0
 22 15  1  0  0  0  0
 24 23  2  0  0  0  0
 25 27  1  0  0  0  0
 26 27  2  0  0  0  0
 27 24  1  0  0  0  0
M  END
>  <MODEL>
1

>  <REMARK>
 VINA RESULT:      -7.4      0.000      0.000
  Name = 
  4 active torsions:
  status: ('A' for Active; 'I' for Inactive)
    1  A    between atoms: C_2  and  N_24
    2  A    between atoms: C_4  and  C_13
    3  A    between atoms: N_8  and  C_26
    4  A    between atoms: C_17  and  C_18
                            x       y       z     vdW  Elec       q    Type
                         _______ _______ _______ _____ _____    ______ ____

>  <TORSDO>
F 4

$$$$
=
 OpenBabel11062421073D

 27 29  0  0  1  0  0  0  0  0999 V2000
  189.3860  178.2450  144.6700 O   0  0  0  0  0  0  0  0  0  0  0  0
  188.4780  177.3820  144.5230 C   0  0  0  0  0  0  0  0  0  0  0  0
  188.8110  176.0960  143.9890 N   0  0  0  0  0  2  0  0  0  0  0  0
  190.1630  175.7400  143.5750 C   0  0  2  0  0  3  0  0  0  0  0  0
  192.1280  171.4690  144.3320 O   0  0  0  0  0  0  0  0  0  0  0  0
  191.6560  172.8190  142.4820 N   0  0  0  0  0  0  0  0  0  0  0  0
  191.5220  174.2210  142.0970 C   0  0  0  0  0  2  0  0  0  0  0  0
  192.2660  171.9190  141.5180 C   0  0  0  0  0  1  0  0  0  0  0  0
  190.1280  174.7540  142.4030 C   0  0  0  0  0  2  0  0  0  0  0  0
  191.0050  175.2660  144.7750 C   0  0  0  0  0  2  0  0  0  0  0  0
  189.3540  174.2990  146.4100 C   0  0  0  0  0  1  0  0  0  0  0  0
  190.1950  172.8300  144.5810 C   0  0  0  0  0  2  0  0  0  0  0  0
  191.3870  172.3460  143.8140 C   0  0  0  0  0  0  0  0  0  0  0  0
  190.5300  173.9980  145.5020 C   0  0  1  0  0  3  0  0  0  0  0  0
  184.9420  178.6410  147.1450 N   0  0  0  0  0  2  0  0  0  0  0  0
  187.0440  176.1960  146.7260 O   0  0  0  0  0  1  0  0  0  0  0  0
  186.3870  178.7810  144.0810 C   0  0  2  0  0  3  0  0  0  0  0  0
  187.0830  177.7270  144.8960 C   0  0  0  0  0  0  0  0  0  0  0  0
  184.9860  177.4810  146.2420 C   0  0  2  0  0  3  0  0  0  0  0  0
  185.4870  179.6330  144.9730 C   0  0  0  0  0  2  0  0  0  0  0  0
  186.4230  177.1430  145.9210 C   0  0  0  0  0  0  0  0  0  0  0  0
  184.4800  178.7850  145.7550 C   0  0  2  0  0  3  0  0  0  0  0  0
  185.6270  178.1630  142.9510 C   0  0  0  0  0  3  0  0  0  0  0  0
  185.7530  178.6210  141.7460 N   0  0  0  0  0  0  0  0  0  0  0  0
  183.6340  178.2230  140.5550 N   0  0  0  0  0  1  0  0  0  0  0  0
  185.6510  177.4180  139.7400 O   0  0  0  0  0  0  0  0  0  0  0  0
  185.0440  178.0590  140.6400 C   0  0  0  0  0  0  0  0  0  0  0  0
  2  1  2  0  0  0  0
  2 18  1  0  0  0  0
  3  2  1  0  0  0  0
  4  3  1  1  0  0  0
  4 10  1  0  0  0  0
  6 13  1  0  0  0  0
  7  9  1  0  0  0  0
  7  6  1  0  0  0  0
  8  6  1  0  0  0  0
  9  4  1  0  0  0  0
 10 14  1  0  0  0  0
 12 14  1  0  0  0  0
 13  5  2  0  0  0  0
 13 12  1  0  0  0  0
 14 11  1  6  0  0  0
 17 23  1  6  0  0  0
 17 18  1  0  0  0  0
 17 20  1  0  0  0  0
 18 21  2  0  0  0  0
 19 21  1  6  0  0  0
 19 15  1  0  0  0  0
 21 16  1  0  0  0  0
 22 20  1  6  0  0  0
 22 19  1  0  0  0  0
 22 15  1  0  0  0  0
 24 23  2  0  0  0  0
 25 27  1  0  0  0  0
 26 27  2  0  0  0  0
 27 24  1  0  0  0  0
M  END
>  <MODEL>
2

>  <REMARK>
 VINA RESULT:      -7.1      2.130      2.505
  Name = 
  4 active torsions:
  status: ('A' for Active; 'I' for Inactive)
    1  A    between atoms: C_2  and  N_24
    2  A    between atoms: C_4  and  C_13
    3  A    between atoms: N_8  and  C_26
    4  A    between atoms: C_17  and  C_18
                            x       y       z     vdW  Elec       q    Type
                         _______ _______ _______ _____ _____    ______ ____

>  <TORSDO>
F 4

$$$$
=
 OpenBabel11062421073D

 27 29  0  0  1  0  0  0  0  0999 V2000
  187.0960  175.4920  142.6420 O   0  0  0  0  0  0  0  0  0  0  0  0
  187.4130  176.2770  143.5770 C   0  0  0  0  0  0  0  0  0  0  0  0
  188.7420  176.2370  144.1090 N   0  0  0  0  0  2  0  0  0  0  0  0
  189.7540  175.3020  143.6330 C   0  0  2  0  0  3  0  0  0  0  0  0
  194.4090  175.7470  144.5320 O   0  0  0  0  0  0  0  0  0  0  0  0
  192.7510  174.1410  144.9080 N   0  0  0  0  0  0  0  0  0  0  0  0
  191.5020  173.6360  144.3430 C   0  0  0  0  0  2  0  0  0  0  0  0
  193.6560  173.1700  145.4980 C   0  0  0  0  0  1  0  0  0  0  0  0
  190.3090  174.4680  144.7920 C   0  0  0  0  0  2  0  0  0  0  0  0
  190.8310  176.0230  142.8010 C   0  0  0  0  0  2  0  0  0  0  0  0
  190.8910  178.3790  143.6840 C   0  0  0  0  0  1  0  0  0  0  0  0
  192.2340  176.6460  144.8670 C   0  0  0  0  0  2  0  0  0  0  0  0
  193.1900  175.5000  144.7380 C   0  0  0  0  0  0  0  0  0  0  0  0
  191.6700  177.0890  143.5220 C   0  0  1  0  0  3  0  0  0  0  0  0
  185.4770  179.3400  146.3760 N   0  0  0  0  0  2  0  0  0  0  0  0
  186.4340  176.2330  146.2900 O   0  0  0  0  0  1  0  0  0  0  0  0
  185.8590  178.2660  143.1830 C   0  0  2  0  0  3  0  0  0  0  0  0
  186.3930  177.2140  144.1140 C   0  0  0  0  0  0  0  0  0  0  0  0
  184.8600  178.0990  145.8850 C   0  0  2  0  0  3  0  0  0  0  0  0
  185.6080  179.5680  143.9410 C   0  0  0  0  0  2  0  0  0  0  0  0
  185.9350  177.1620  145.3840 C   0  0  0  0  0  0  0  0  0  0  0  0
  184.6780  179.3670  145.1410 C   0  0  2  0  0  3  0  0  0  0  0  0
  184.6280  177.7820  142.4860 C   0  0  0  0  0  3  0  0  0  0  0  0
  184.0160  178.5390  141.6310 N   0  0  0  0  0  0  0  0  0  0  0  0
  181.5610  178.3660  141.5200 N   0  0  0  0  0  1  0  0  0  0  0  0
  182.9130  177.5170  139.8370 O   0  0  0  0  0  0  0  0  0  0  0  0
  182.8370  178.1140  140.9450 C   0  0  0  0  0  0  0  0  0  0  0  0
  1  2  2  0  0  0  0
  2  3  1  0  0  0  0
  2 18  1  0  0  0  0
  4  3  1  1  0  0  0
  4  9  1  0  0  0  0
  5 13  2  0  0  0  0
  6  8  1  0  0  0  0
  7  9  1  0  0  0  0
  7  6  1  0  0  0  0
 10 14  1  0  0  0  0
 10  4  1  0  0  0  0
 13 12  1  0  0  0  0
 13  6  1  0  0  0  0
 14 11  1  1  0  0  0
 14 12  1  0  0  0  0
 17 23  1  1  0  0  0
 17 20  1  0  0  0  0
 17 18  1  0  0  0  0
 18 21  2  0  0  0  0
 19 21  1  6  0  0  0
 19 15  1  0  0  0  0
 21 16  1  0  0  0  0
 22 20  1  6  0  0  0
 22 19  1  0  0  0  0
 22 15  1  0  0  0  0
 24 23  2  0  0  0  0
 26 27  2  0  0  0  0
 27 25  1  0  0  0  0
 27 24  1  0  0  0  0
M  END
>  <MODEL>
3

>  <REMARK>
 VINA RESULT:      -7.1      2.329      3.201
  Name = 
  4 active torsions:
  status: ('A' for Active; 'I' for Inactive)
    1  A    between atoms: C_2  and  N_24
    2  A    between atoms: C_4  and  C_13
    3  A    between atoms: N_8  and  C_26
    4  A    between atoms: C_17  and  C_18
                            x       y       z     vdW  Elec       q    Type
                         _______ _______ _______ _____ _____    ______ ____

>  <TORSDO>
F 4

$$$$
=
 OpenBabel11062421073D

 27 29  0  0  1  0  0  0  0  0999 V2000
  190.7530  178.7980  144.0450 O   0  0  0  0  0  0  0  0  0  0  0  0
  190.2910  177.6690  144.3670 C   0  0  0  0  0  0  0  0  0  0  0  0
  191.1850  176.5610  144.5200 N   0  0  0  0  0  2  0  0  0  0  0  0
  192.6210  176.6700  144.2930 C   0  0  2  0  0  3  0  0  0  0  0  0
  195.7910  173.4420  145.7790 O   0  0  0  0  0  0  0  0  0  0  0  0
  195.1510  174.3800  143.7340 N   0  0  0  0  0  0  0  0  0  0  0  0
  194.6040  175.6080  143.1640 C   0  0  0  0  0  2  0  0  0  0  0  0
  196.1560  173.6750  142.9590 C   0  0  0  0  0  1  0  0  0  0  0  0
  193.0850  175.6400  143.2580 C   0  0  0  0  0  2  0  0  0  0  0  0
  193.3990  176.6240  145.6220 C   0  0  0  0  0  2  0  0  0  0  0  0
  191.9640  175.2790  147.1910 C   0  0  0  0  0  1  0  0  0  0  0  0
  193.4970  174.0520  145.6580 C   0  0  0  0  0  2  0  0  0  0  0  0
  194.8760  173.9560  145.0810 C   0  0  0  0  0  0  0  0  0  0  0  0
  193.2850  175.3360  146.4520 C   0  0  1  0  0  3  0  0  0  0  0  0
  186.1010  178.4380  146.0440 N   0  0  0  0  0  2  0  0  0  0  0  0
  189.0260  177.3310  146.9360 O   0  0  0  0  0  1  0  0  0  0  0  0
  187.9530  177.5610  143.3430 C   0  0  2  0  0  3  0  0  0  0  0  0
  188.8270  177.5150  144.5640 C   0  0  0  0  0  0  0  0  0  0  0  0
  186.7700  177.1330  145.9390 C   0  0  2  0  0  3  0  0  0  0  0  0
  186.6350  178.2660  143.6600 C   0  0  0  0  0  2  0  0  0  0  0  0
  188.2580  177.3370  145.7770 C   0  0  0  0  0  0  0  0  0  0  0  0
  185.9040  177.6170  144.8390 C   0  0  2  0  0  3  0  0  0  0  0  0
  187.7320  176.1880  142.7950 C   0  0  0  0  0  3  0  0  0  0  0  0
  188.5070  175.7170  141.8710 N   0  0  0  0  0  0  0  0  0  0  0  0
  188.7320  174.1530  139.9810 N   0  0  0  0  0  1  0  0  0  0  0  0
  187.8170  173.4840  142.0050 O   0  0  0  0  0  0  0  0  0  0  0  0
  188.3290  174.4110  141.3200 C   0  0  0  0  0  0  0  0  0  0  0  0
  1  2  2  0  0  0  0
  2  3  1  0  0  0  0
  2 18  1  0  0  0  0
  4  3  1  1  0  0  0
  4 10  1  0  0  0  0
  6 13  1  0  0  0  0
  7  9  1  0  0  0  0
  7  6  1  0  0  0  0
  8  6  1  0  0  0  0
  9  4  1  0  0  0  0
 10 14  1  0  0  0  0
 12 14  1  0  0  0  0
 13 12  1  0  0  0  0
 13  5  2  0  0  0  0
 14 11  1  6  0  0  0
 17 23  1  1  0  0  0
 17 20  1  0  0  0  0
 17 18  1  0  0  0  0
 18 21  2  0  0  0  0
 19 21  1  6  0  0  0
 19 15  1  0  0  0  0
 21 16  1  0  0  0  0
 22 20  1  6  0  0  0
 22 19  1  0  0  0  0
 22 15  1  0  0  0  0
 24 23  2  0  0  0  0
 25 27  1  0  0  0  0
 27 24  1  0  0  0  0
 27 26  2  0  0  0  0
M  END
>  <MODEL>
4

>  <REMARK>
 VINA RESULT:      -7.0      1.953      2.369
  Name = 
  4 active torsions:
  status: ('A' for Active; 'I' for Inactive)
    1  A    between atoms: C_2  and  N_24
    2  A    between atoms: C_4  and  C_13
    3  A    between atoms: N_8  and  C_26
    4  A    between atoms: C_17  and  C_18
                            x       y       z     vdW  Elec       q    Type
                         _______ _______ _______ _____ _____    ______ ____

>  <TORSDO>
F 4

$$$$
=
 OpenBabel11062421073D

 27 29  0  0  1  0  0  0  0  0999 V2000
  186.8030  175.3880  142.7560 O   0  0  0  0  0  0  0  0  0  0  0  0
  187.4440  176.2230  143.4510 C   0  0  0  0  0  0  0  0  0  0  0  0
  188.8750  176.1680  143.4720 N   0  0  0  0  0  2  0  0  0  0  0  0
  189.6360  175.1630  142.7410 C   0  0  2  0  0  3  0  0  0  0  0  0
  193.8620  173.4870  144.1590 O   0  0  0  0  0  0  0  0  0  0  0  0
  191.7550  172.5950  143.6760 N   0  0  0  0  0  0  0  0  0  0  0  0
  190.5800  172.8310  142.8420 C   0  0  0  0  0  2  0  0  0  0  0  0
  192.1590  171.2150  143.8840 C   0  0  0  0  0  1  0  0  0  0  0  0
  189.6260  173.8250  143.4900 C   0  0  0  0  0  2  0  0  0  0  0  0
  191.0440  175.6780  142.3890 C   0  0  0  0  0  2  0  0  0  0  0  0
  191.6100  177.3540  144.1790 C   0  0  0  0  0  1  0  0  0  0  0  0
  192.0480  174.9450  144.6430 C   0  0  0  0  0  2  0  0  0  0  0  0
  192.6140  173.6560  144.1320 C   0  0  0  0  0  0  0  0  0  0  0  0
  191.9760  176.0180  143.5630 C   0  0  1  0  0  3  0  0  0  0  0  0
  184.0880  179.1140  144.6100 N   0  0  0  0  0  2  0  0  0  0  0  0
  186.4070  178.6870  142.3700 O   0  0  0  0  0  1  0  0  0  0  0  0
  186.4510  176.9370  145.6940 C   0  0  2  0  0  3  0  0  0  0  0  0
  186.6980  177.2350  144.2410 C   0  0  0  0  0  0  0  0  0  0  0  0
  185.5250  179.4240  144.5610 C   0  0  2  0  0  3  0  0  0  0  0  0
  185.0770  177.4540  146.1150 C   0  0  0  0  0  2  0  0  0  0  0  0
  186.2380  178.3920  143.7180 C   0  0  0  0  0  0  0  0  0  0  0  0
  184.9080  178.9480  145.8210 C   0  0  2  0  0  3  0  0  0  0  0  0
  187.5430  177.5000  146.5450 C   0  0  0  0  0  3  0  0  0  0  0  0
  188.6680  176.8720  146.6700 N   0  0  0  0  0  0  0  0  0  0  0  0
  190.8980  176.5820  147.6750 N   0  0  0  0  0  1  0  0  0  0  0  0
  189.6610  178.5150  148.0110 O   0  0  0  0  0  0  0  0  0  0  0  0
  189.7360  177.3760  147.4740 C   0  0  0  0  0  0  0  0  0  0  0  0
  1  2  2  0  0  0  0
  2  3  1  0  0  0  0
  2 18  1  0  0  0  0
  4  3  1  1  0  0  0
  4  9  1  0  0  0  0
  6  8  1  0  0  0  0
  6 13  1  0  0  0  0
  7  9  1  0  0  0  0
  7  6  1  0  0  0  0
 10  4  1  0  0  0  0
 10 14  1  0  0  0  0
 13  5  2  0  0  0  0
 13 12  1  0  0  0  0
 14 11  1  1  0  0  0
 14 12  1  0  0  0  0
 15 22  1  0  0  0  0
 16 21  1  0  0  0  0
 17 20  1  0  0  0  0
 17 23  1  1  0  0  0
 18 17  1  0  0  0  0
 19 21  1  6  0  0  0
 19 15  1  0  0  0  0
 19 22  1  0  0  0  0
 21 18  2  0  0  0  0
 22 20  1  6  0  0  0
 23 24  2  0  0  0  0
 24 27  1  0  0  0  0
 27 25  1  0  0  0  0
 27 26  2  0  0  0  0
M  END
>  <MODEL>
5

>  <REMARK>
 VINA RESULT:      -6.7      2.105      4.312
  Name = 
  4 active torsions:
  status: ('A' for Active; 'I' for Inactive)
    1  A    between atoms: C_2  and  N_24
    2  A    between atoms: C_4  and  C_13
    3  A    between atoms: N_8  and  C_26
    4  A    between atoms: C_17  and  C_18
                            x       y       z     vdW  Elec       q    Type
                         _______ _______ _______ _____ _____    ______ ____

>  <TORSDO>
F 4

$$$$
=
 OpenBabel11062421073D

 27 29  0  0  1  0  0  0  0  0999 V2000
  187.6610  178.2820  142.5190 O   0  0  0  0  0  0  0  0  0  0  0  0
  187.4590  177.4220  143.4190 C   0  0  0  0  0  0  0  0  0  0  0  0
  188.0330  176.1170  143.2860 N   0  0  0  0  0  2  0  0  0  0  0  0
  188.8280  175.7200  142.1320 C   0  0  2  0  0  3  0  0  0  0  0  0
  190.4790  171.3070  141.4410 O   0  0  0  0  0  0  0  0  0  0  0  0
  189.1090  172.8090  140.2860 N   0  0  0  0  0  0  0  0  0  0  0  0
  188.8910  174.2400  140.0960 C   0  0  0  0  0  2  0  0  0  0  0  0
  188.9370  171.9490  139.1280 C   0  0  0  0  0  1  0  0  0  0  0  0
  188.0120  174.8230  141.1940 C   0  0  0  0  0  2  0  0  0  0  0  0
  190.1780  175.1170  142.5660 C   0  0  0  0  0  2  0  0  0  0  0  0
  189.7640  174.1250  144.8420 C   0  0  0  0  0  1  0  0  0  0  0  0
  189.2090  172.7480  142.8410 C   0  0  0  0  0  2  0  0  0  0  0  0
  189.6540  172.2570  141.4980 C   0  0  0  0  0  0  0  0  0  0  0  0
  190.1280  173.8280  143.4010 C   0  0  1  0  0  3  0  0  0  0  0  0
  183.7740  178.7680  145.7810 N   0  0  0  0  0  2  0  0  0  0  0  0
  185.9700  179.8810  143.6560 O   0  0  0  0  0  1  0  0  0  0  0  0
  186.5220  176.7830  145.7090 C   0  0  2  0  0  3  0  0  0  0  0  0
  186.6170  177.7820  144.5890 C   0  0  0  0  0  0  0  0  0  0  0  0
  185.1370  179.3060  145.9130 C   0  0  2  0  0  3  0  0  0  0  0  0
  185.1160  176.7870  146.3050 C   0  0  0  0  0  2  0  0  0  0  0  0
  185.9440  178.9490  144.6870 C   0  0  0  0  0  0  0  0  0  0  0  0
  184.6920  178.1830  146.7720 C   0  0  2  0  0  3  0  0  0  0  0  0
  187.5680  177.0460  146.7450 C   0  0  0  0  0  3  0  0  0  0  0  0
  188.7890  177.2990  146.3960 N   0  0  0  0  0  0  0  0  0  0  0  0
  189.6910  178.6600  148.2410 N   0  0  0  0  0  1  0  0  0  0  0  0
  190.8350  176.8140  147.4250 O   0  0  0  0  0  0  0  0  0  0  0  0
  189.8170  177.5540  147.3550 C   0  0  0  0  0  0  0  0  0  0  0  0
  1  2  2  0  0  0  0
  2 18  1  0  0  0  0
  3  2  1  0  0  0  0
  4 10  1  0  0  0  0
  4  3  1  1  0  0  0
  5 13  2  0  0  0  0
  6 13  1  0  0  0  0
  7  6  1  0  0  0  0
  7  9  1  0  0  0  0
  8  6  1  0  0  0  0
  9  4  1  0  0  0  0
 10 14  1  0  0  0  0
 12 14  1  0  0  0  0
 13 12  1  0  0  0  0
 14 11  1  1  0  0  0
 15 19  1  0  0  0  0
 15 22  1  0  0  0  0
 16 21  1  0  0  0  0
 17 20  1  0  0  0  0
 17 23  1  1  0  0  0
 18 21  2  0  0  0  0
 18 17  1  0  0  0  0
 19 21  1  6  0  0  0
 19 22  1  0  0  0  0
 22 20  1  6  0  0  0
 24 23  2  0  0  0  0
 24 27  1  0  0  0  0
 27 26  2  0  0  0  0
 27 25  1  0  0  0  0
M  END
>  <MODEL>
6

>  <REMARK>
 VINA RESULT:      -6.7      2.893      4.881
  Name = 
  4 active torsions:
  status: ('A' for Active; 'I' for Inactive)
    1  A    between atoms: C_2  and  N_24
    2  A    between atoms: C_4  and  C_13
    3  A    between atoms: N_8  and  C_26
    4  A    between atoms: C_17  and  C_18
                            x       y       z     vdW  Elec       q    Type
                         _______ _______ _______ _____ _____    ______ ____

>  <TORSDO>
F 4

$$$$
=
 OpenBabel11062421073D

 27 29  0  0  1  0  0  0  0  0999 V2000
  189.7170  177.9130  146.7510 O   0  0  0  0  0  0  0  0  0  0  0  0
  189.3860  177.0760  145.8680 C   0  0  0  0  0  0  0  0  0  0  0  0
  190.3550  176.1320  145.3960 N   0  0  0  0  0  2  0  0  0  0  0  0
  191.7310  176.1090  145.8760 C   0  0  2  0  0  3  0  0  0  0  0  0
  195.2110  173.5880  143.8240 O   0  0  0  0  0  0  0  0  0  0  0  0
  194.8140  175.8360  144.3340 N   0  0  0  0  0  0  0  0  0  0  0  0
  194.1140  176.6800  145.2970 C   0  0  0  0  0  2  0  0  0  0  0  0
  196.1080  176.2960  143.8610 C   0  0  0  0  0  1  0  0  0  0  0  0
  192.6520  176.8700  144.9160 C   0  0  0  0  0  2  0  0  0  0  0  0
  192.1890  174.6710  146.1840 C   0  0  0  0  0  2  0  0  0  0  0  0
  190.8330  173.1970  144.6600 C   0  0  0  0  0  1  0  0  0  0  0  0
  192.9200  174.2160  143.7580 C   0  0  0  0  0  2  0  0  0  0  0  0
  194.3700  174.5110  143.9900 C   0  0  0  0  0  0  0  0  0  0  0  0
  192.2260  173.6840  145.0060 C   0  0  1  0  0  3  0  0  0  0  0  0
  184.9450  178.1390  145.5370 N   0  0  0  0  0  2  0  0  0  0  0  0
  187.0260  176.4950  147.4190 O   0  0  0  0  0  1  0  0  0  0  0  0
  187.8290  177.4740  143.8820 C   0  0  2  0  0  3  0  0  0  0  0  0
  188.0030  177.0990  145.3270 C   0  0  0  0  0  0  0  0  0  0  0  0
  185.5230  176.7880  145.4760 C   0  0  2  0  0  3  0  0  0  0  0  0
  186.5540  178.2940  143.6970 C   0  0  0  0  0  2  0  0  0  0  0  0
  186.9130  176.8040  146.0690 C   0  0  0  0  0  0  0  0  0  0  0  0
  185.3170  177.5680  144.2330 C   0  0  2  0  0  3  0  0  0  0  0  0
  187.8390  176.2570  143.0130 C   0  0  0  0  0  3  0  0  0  0  0  0
  188.7430  176.1100  142.0990 N   0  0  0  0  0  0  0  0  0  0  0  0
  189.5190  173.8150  141.6550 N   0  0  0  0  0  1  0  0  0  0  0  0
  188.1870  174.9580  140.1380 O   0  0  0  0  0  0  0  0  0  0  0  0
  188.7870  174.9640  141.2470 C   0  0  0  0  0  0  0  0  0  0  0  0
  2  1  2  0  0  0  0
  3  2  1  0  0  0  0
  4  3  1  6  0  0  0
  4 10  1  0  0  0  0
  5 13  2  0  0  0  0
  6  7  1  0  0  0  0
  8  6  1  0  0  0  0
  9  7  1  0  0  0  0
  9  4  1  0  0  0  0
 12 13  1  0  0  0  0
 12 14  1  0  0  0  0
 13  6  1  0  0  0  0
 14 11  1  6  0  0  0
 14 10  1  0  0  0  0
 17 23  1  6  0  0  0
 17 18  1  0  0  0  0
 18  2  1  0  0  0  0
 18 21  2  0  0  0  0
 19 15  1  1  0  0  0
 19 21  1  0  0  0  0
 20 17  1  0  0  0  0
 21 16  1  0  0  0  0
 22 20  1  1  0  0  0
 22 19  1  0  0  0  0
 22 15  1  0  0  0  0
 24 23  2  0  0  0  0
 26 27  2  0  0  0  0
 27 25  1  0  0  0  0
 27 24  1  0  0  0  0
M  END
>  <MODEL>
7

>  <REMARK>
 VINA RESULT:      -6.7      1.390      1.475
  Name = 
  4 active torsions:
  status: ('A' for Active; 'I' for Inactive)
    1  A    between atoms: C_2  and  N_24
    2  A    between atoms: C_4  and  C_13
    3  A    between atoms: N_8  and  C_26
    4  A    between atoms: C_17  and  C_18
                            x       y       z     vdW  Elec       q    Type
                         _______ _______ _______ _____ _____    ______ ____

>  <TORSDO>
F 4

$$$$
=
 OpenBabel11062421073D

 27 29  0  0  1  0  0  0  0  0999 V2000
  189.9750  177.9140  145.5170 O   0  0  0  0  0  0  0  0  0  0  0  0
  189.7570  177.0650  144.6100 C   0  0  0  0  0  0  0  0  0  0  0  0
  190.6850  175.9930  144.4130 N   0  0  0  0  0  2  0  0  0  0  0  0
  191.9020  175.8490  145.2020 C   0  0  2  0  0  3  0  0  0  0  0  0
  195.3520  172.7210  144.2080 O   0  0  0  0  0  0  0  0  0  0  0  0
  195.1790  175.0410  144.4510 N   0  0  0  0  0  0  0  0  0  0  0  0
  194.4100  176.0590  145.1600 C   0  0  0  0  0  2  0  0  0  0  0  0
  196.5980  175.2870  144.2620 C   0  0  0  0  0  1  0  0  0  0  0  0
  193.1130  176.3880  144.4340 C   0  0  0  0  0  2  0  0  0  0  0  0
  192.0690  174.4040  145.7100 C   0  0  0  0  0  2  0  0  0  0  0  0
  190.8880  172.9620  144.0190 C   0  0  0  0  0  1  0  0  0  0  0  0
  193.2480  173.6180  143.5620 C   0  0  0  0  0  2  0  0  0  0  0  0
  194.6370  173.7530  144.1070 C   0  0  0  0  0  0  0  0  0  0  0  0
  192.2240  173.3060  144.6470 C   0  0  1  0  0  3  0  0  0  0  0  0
  187.0830  176.7930  140.9030 N   0  0  0  0  0  2  0  0  0  0  0  0
  189.7350  178.3150  142.0110 O   0  0  0  0  0  1  0  0  0  0  0  0
  187.2590  176.6380  144.2860 C   0  0  2  0  0  3  0  0  0  0  0  0
  188.5470  177.2070  143.7600 C   0  0  0  0  0  0  0  0  0  0  0  0
  187.2980  177.9860  141.7350 C   0  0  2  0  0  3  0  0  0  0  0  0
  186.4350  176.0460  143.1440 C   0  0  0  0  0  2  0  0  0  0  0  0
  188.5570  177.8140  142.5530 C   0  0  0  0  0  0  0  0  0  0  0  0
  186.1770  177.0640  142.0300 C   0  0  2  0  0  3  0  0  0  0  0  0
  186.4930  177.6730  145.0450 C   0  0  0  0  0  3  0  0  0  0  0  0
  185.3220  177.4010  145.5280 N   0  0  0  0  0  0  0  0  0  0  0  0
  184.8120  178.5530  147.6450 N   0  0  0  0  0  1  0  0  0  0  0  0
  183.6590  179.0400  145.6920 O   0  0  0  0  0  0  0  0  0  0  0  0
  184.5580  178.3620  146.2590 C   0  0  0  0  0  0  0  0  0  0  0  0
  2  1  2  0  0  0  0
  3  2  1  0  0  0  0
  4  3  1  6  0  0  0
  4 10  1  0  0  0  0
  6  7  1  0  0  0  0
  8  6  1  0  0  0  0
  9  7  1  0  0  0  0
  9  4  1  0  0  0  0
 12 13  1  0  0  0  0
 12 14  1  0  0  0  0
 13  5  2  0  0  0  0
 13  6  1  0  0  0  0
 14 11  1  6  0  0  0
 14 10  1  0  0  0  0
 15 22  1  0  0  0  0
 16 21  1  0  0  0  0
 17 23  1  6  0  0  0
 18 17  1  0  0  0  0
 18  2  1  0  0  0  0
 19 15  1  6  0  0  0
 19 22  1  0  0  0  0
 19 21  1  0  0  0  0
 20 17  1  0  0  0  0
 21 18  2  0  0  0  0
 22 20  1  1  0  0  0
 23 24  2  0  0  0  0
 24 27  1  0  0  0  0
 26 27  2  0  0  0  0
 27 25  1  0  0  0  0
M  END
>  <MODEL>
8

>  <REMARK>
 VINA RESULT:      -6.6      1.676      3.619
  Name = 
  4 active torsions:
  status: ('A' for Active; 'I' for Inactive)
    1  A    between atoms: C_2  and  N_24
    2  A    between atoms: C_4  and  C_13
    3  A    between atoms: N_8  and  C_26
    4  A    between atoms: C_17  and  C_18
                            x       y       z     vdW  Elec       q    Type
                         _______ _______ _______ _____ _____    ______ ____

>  <TORSDO>
F 4

$$$$
=
 OpenBabel11062421073D

 27 29  0  0  1  0  0  0  0  0999 V2000
  191.2820  173.9760  143.1610 O   0  0  0  0  0  0  0  0  0  0  0  0
  191.8090  174.9340  143.7890 C   0  0  0  0  0  0  0  0  0  0  0  0
  190.9740  175.9630  144.3310 N   0  0  0  0  0  2  0  0  0  0  0  0
  189.5260  175.9710  144.1670 C   0  0  2  0  0  3  0  0  0  0  0  0
  186.4890  177.5130  147.4950 O   0  0  0  0  0  0  0  0  0  0  0  0
  186.9870  178.0430  145.2730 N   0  0  0  0  0  0  0  0  0  0  0  0
  187.4840  177.4390  144.0400 C   0  0  0  0  0  2  0  0  0  0  0  0
  185.9420  179.0430  145.1500 C   0  0  0  0  0  1  0  0  0  0  0  0
  189.0060  177.4040  144.0080 C   0  0  0  0  0  2  0  0  0  0  0  0
  188.8340  175.1700  145.2860 C   0  0  0  0  0  2  0  0  0  0  0  0
  190.3800  175.3170  147.2660 C   0  0  0  0  0  1  0  0  0  0  0  0
  188.7640  177.1770  146.8960 C   0  0  0  0  0  2  0  0  0  0  0  0
  187.3520  177.5620  146.5790 C   0  0  0  0  0  0  0  0  0  0  0  0
  189.0140  175.6830  146.7240 C   0  0  1  0  0  3  0  0  0  0  0  0
  196.0270  176.6960  144.0460 N   0  0  0  0  0  2  0  0  0  0  0  0
  193.5900  176.2480  141.9400 O   0  0  0  0  0  1  0  0  0  0  0  0
  193.8820  174.3120  145.1460 C   0  0  2  0  0  3  0  0  0  0  0  0
  193.2860  174.9780  143.9380 C   0  0  0  0  0  0  0  0  0  0  0  0
  195.6060  175.5670  143.2030 C   0  0  2  0  0  3  0  0  0  0  0  0
  195.0810  175.1090  145.6550 C   0  0  0  0  0  2  0  0  0  0  0  0
  194.1030  175.5830  143.0480 C   0  0  0  0  0  0  0  0  0  0  0  0
  196.1350  175.3230  144.5650 C   0  0  2  0  0  3  0  0  0  0  0  0
  194.2440  172.8930  144.8460 C   0  0  0  0  0  3  0  0  0  0  0  0
  194.2690  172.0070  145.7910 N   0  0  0  0  0  0  0  0  0  0  0  0
  194.8420  170.2050  144.2130 N   0  0  0  0  0  1  0  0  0  0  0  0
  194.7070  169.8180  146.4960 O   0  0  0  0  0  0  0  0  0  0  0  0
  194.6110  170.6420  145.5460 C   0  0  0  0  0  0  0  0  0  0  0  0
  1  2  2  0  0  0  0
  2 18  1  0  0  0  0
  2  3  1  0  0  0  0
  4  3  1  1  0  0  0
  4 10  1  0  0  0  0
  6 13  1  0  0  0  0
  7  6  1  0  0  0  0
  8  6  1  0  0  0  0
  9  7  1  0  0  0  0
  9  4  1  0  0  0  0
 10 14  1  0  0  0  0
 13 12  1  0  0  0  0
 13  5  2  0  0  0  0
 14 12  1  0  0  0  0
 14 11  1  6  0  0  0
 15 22  1  0  0  0  0
 16 21  1  0  0  0  0
 17 23  1  6  0  0  0
 17 20  1  0  0  0  0
 18 17  1  0  0  0  0
 19 21  1  1  0  0  0
 19 15  1  0  0  0  0
 19 22  1  0  0  0  0
 21 18  2  0  0  0  0
 22 20  1  1  0  0  0
 23 24  2  0  0  0  0
 25 27  1  0  0  0  0
 27 24  1  0  0  0  0
 27 26  2  0  0  0  0
M  END
>  <MODEL>
9

>  <REMARK>
 VINA RESULT:      -6.5      2.461      8.138
  Name = 
  4 active torsions:
  status: ('A' for Active; 'I' for Inactive)
    1  A    between atoms: C_2  and  N_24
    2  A    between atoms: C_4  and  C_13
    3  A    between atoms: N_8  and  C_26
    4  A    between atoms: C_17  and  C_18
                            x       y       z     vdW  Elec       q    Type
                         _______ _______ _______ _____ _____    ______ ____

>  <TORSDO>
F 4

$$$$
