=
 OpenBabel11062419563D

 28 30  0  0  0  0  0  0  0  0999 V2000
  185.5890  177.9530  146.8660 C   0  0  0  0  0  0  0  0  0  0  0  0
  184.1750  178.8210  145.0740 C   0  0  0  0  0  3  0  0  0  0  0  0
  187.4780  176.6360  146.1000 O   0  0  0  0  0  0  0  0  0  0  0  0
  187.1060  176.7720  143.9290 C   0  0  0  0  0  0  0  0  0  0  0  0
  184.9740  178.2100  144.0850 C   0  0  0  0  0  0  0  0  0  0  0  0
  186.3850  177.3540  145.8950 C   0  0  0  0  0  0  0  0  0  0  0  0
  187.9050  176.2910  144.9060 C   0  0  0  0  0  0  0  0  0  0  0  0
  186.0890  177.4750  144.5380 C   0  0  0  0  0  0  0  0  0  0  0  0
  184.4750  178.6950  146.4450 C   0  0  0  0  0  3  0  0  0  0  0  0
  189.0240  175.4880  143.0740 C   0  0  0  0  0  0  0  0  0  0  0  0
  189.0090  175.5510  144.4830 C   0  0  0  0  0  0  0  0  0  0  0  0
  185.8890  177.8280  148.2150 O   0  0  0  0  0  1  0  0  0  0  0  0
  190.0420  174.7950  142.2360 C   0  0  0  0  0  1  0  0  0  0  0  0
  187.6950  176.3370  142.4210 S   0  0  0  0  0  0  0  0  0  0  0  0
  189.9880  173.7020  145.6110 O   0  0  0  0  0  0  0  0  0  0  0  0
  190.9820  175.7660  146.0310 N   0  0  0  0  0  2  0  0  0  0  0  0
  190.0020  174.9430  145.3930 C   0  0  0  0  0  0  0  0  0  0  0  0
  191.9800  175.2180  146.9330 C   0  0  0  0  0  1  0  0  0  0  0  0
  183.2410  178.1480  142.2630 N   0  0  0  0  0  2  0  0  0  0  0  0
  185.4610  178.6640  141.7970 O   0  0  0  0  0  0  0  0  0  0  0  0
  184.5980  178.3650  142.6640 C   0  0  0  0  0  0  0  0  0  0  0  0
  182.7910  178.3050  140.8880 C   0  0  0  0  0  2  0  0  0  0  0  0
  181.2760  178.3270  140.8380 C   0  0  0  0  0  2  0  0  0  0  0  0
  180.7660  179.1150  141.9460 N   0  0  0  0  0  2  0  0  0  0  0  0
  178.7010  177.2440  141.5200 O   0  0  0  0  0  1  0  0  0  0  0  0
  178.5830  178.9720  143.4840 O   0  0  0  0  0  1  0  0  0  0  0  0
  179.0420  178.8130  142.0520 P   0  0  0  0  0  0  0  0  0  0  0  0
  178.2210  179.9230  141.0780 O   0  0  0  0  0  0  0  0  0  0  0  0
  1 12  1  0  0  0  0
  2  9  2  0  0  0  0
  4  8  1  0  0  0  0
  4  7  2  0  0  0  0
  5  8  2  0  0  0  0
  5  2  1  0  0  0  0
  6  3  1  0  0  0  0
  6  1  2  0  0  0  0
  7  3  1  0  0  0  0
  8  6  1  0  0  0  0
  9  1  1  0  0  0  0
 10 11  2  0  0  0  0
 11  7  1  0  0  0  0
 11 17  1  0  0  0  0
 13 10  1  0  0  0  0
 14 10  1  0  0  0  0
 14  4  1  0  0  0  0
 16 18  1  0  0  0  0
 17 15  2  0  0  0  0
 17 16  1  0  0  0  0
 19 21  1  0  0  0  0
 20 21  2  0  0  0  0
 21  5  1  0  0  0  0
 22 19  1  0  0  0  0
 23 22  1  0  0  0  0
 23 24  1  0  0  0  0
 24 27  1  0  0  0  0
 25 27  1  0  0  0  0
 27 26  1  0  0  0  0
 28 27  2  0  0  0  0
M  END
>  <MODEL>
1

>  <REMARK>
 VINA RESULT:      -7.5      0.000      0.000
  Name = 
  6 active torsions:
  status: ('A' for Active; 'I' for Inactive)
    1  A    between atoms: C_2  and  C_16
    2  A    between atoms: C_2  and  N_25
    3  A    between atoms: N_3  and  C_16
    4  A    between atoms: C_9  and  C_14
    5  A    between atoms: P_18  and  N_25
    6  A    between atoms: C_20  and  C_23
                            x       y       z     vdW  Elec       q    Type
                         _______ _______ _______ _____ _____    ______ ____

>  <TORSDO>
F 6

$$$$
=
 OpenBabel11062419563D

 28 30  0  0  0  0  0  0  0  0999 V2000
  185.2350  177.5510  146.4870 C   0  0  0  0  0  0  0  0  0  0  0  0
  187.3660  176.5260  147.0930 C   0  0  0  0  0  3  0  0  0  0  0  0
  184.9000  177.8290  144.1000 O   0  0  0  0  0  0  0  0  0  0  0  0
  186.8150  176.9770  143.4060 C   0  0  0  0  0  0  0  0  0  0  0  0
  187.7570  176.4310  145.7400 C   0  0  0  0  0  0  0  0  0  0  0  0
  185.6120  177.4540  145.1510 C   0  0  0  0  0  0  0  0  0  0  0  0
  185.6360  177.5340  143.0510 C   0  0  0  0  0  0  0  0  0  0  0  0
  186.8400  176.9100  144.7830 C   0  0  0  0  0  0  0  0  0  0  0  0
  186.1240  177.0780  147.4640 C   0  0  0  0  0  3  0  0  0  0  0  0
  186.5280  177.1810  140.9700 C   0  0  0  0  0  0  0  0  0  0  0  0
  185.4180  177.6800  141.6820 C   0  0  0  0  0  0  0  0  0  0  0  0
  184.0090  178.0960  146.8480 O   0  0  0  0  0  1  0  0  0  0  0  0
  186.6820  177.1500  139.4890 C   0  0  0  0  0  1  0  0  0  0  0  0
  187.7150  176.5900  142.0460 S   0  0  0  0  0  0  0  0  0  0  0  0
  184.2760  179.0440  140.1050 O   0  0  0  0  0  0  0  0  0  0  0  0
  182.9150  177.9430  141.6410 N   0  0  0  0  0  2  0  0  0  0  0  0
  184.1950  178.2630  141.0910 C   0  0  0  0  0  0  0  0  0  0  0  0
  181.6830  178.4890  141.0980 C   0  0  0  0  0  1  0  0  0  0  0  0
  190.2680  176.5270  145.8450 N   0  0  0  0  0  2  0  0  0  0  0  0
  189.1740  174.7930  144.7460 O   0  0  0  0  0  0  0  0  0  0  0  0
  189.0790  175.8550  145.4150 C   0  0  0  0  0  0  0  0  0  0  0  0
  191.6030  176.0110  145.5850 C   0  0  0  0  0  2  0  0  0  0  0  0
  192.3170  176.8990  144.5850 C   0  0  0  0  0  2  0  0  0  0  0  0
  193.3940  176.1540  143.9570 N   0  0  0  0  0  2  0  0  0  0  0  0
  195.0970  175.1470  145.9660 O   0  0  0  0  0  1  0  0  0  0  0  0
  196.0360  176.5710  143.9780 O   0  0  0  0  0  0  0  0  0  0  0  0
  194.8440  176.4370  144.9010 P   0  0  0  0  0  0  0  0  0  0  0  0
  194.6630  177.8650  145.7870 O   0  0  0  0  0  1  0  0  0  0  0  0
  1 12  1  0  0  0  0
  1  9  1  0  0  0  0
  2  9  2  0  0  0  0
  3  6  1  0  0  0  0
  4  8  1  0  0  0  0
  5  2  1  0  0  0  0
  6  1  2  0  0  0  0
  7  4  2  0  0  0  0
  7  3  1  0  0  0  0
  8  6  1  0  0  0  0
  8  5  2  0  0  0  0
 10 11  2  0  0  0  0
 10 14  1  0  0  0  0
 11  7  1  0  0  0  0
 13 10  1  0  0  0  0
 14  4  1  0  0  0  0
 15 17  2  0  0  0  0
 17 16  1  0  0  0  0
 17 11  1  0  0  0  0
 18 16  1  0  0  0  0
 20 21  2  0  0  0  0
 21  5  1  0  0  0  0
 21 19  1  0  0  0  0
 22 19  1  0  0  0  0
 23 22  1  0  0  0  0
 24 23  1  0  0  0  0
 24 27  1  0  0  0  0
 26 27  2  0  0  0  0
 27 28  1  0  0  0  0
 27 25  1  0  0  0  0
M  END
>  <MODEL>
2

>  <REMARK>
 VINA RESULT:      -7.2      4.049      8.951
  Name = 
  6 active torsions:
  status: ('A' for Active; 'I' for Inactive)
    1  A    between atoms: C_2  and  C_16
    2  A    between atoms: C_2  and  N_25
    3  A    between atoms: N_3  and  C_16
    4  A    between atoms: C_9  and  C_14
    5  A    between atoms: P_18  and  N_25
    6  A    between atoms: C_20  and  C_23
                            x       y       z     vdW  Elec       q    Type
                         _______ _______ _______ _____ _____    ______ ____

>  <TORSDO>
F 6

$$$$
=
 OpenBabel11062419563D

 28 30  0  0  0  0  0  0  0  0999 V2000
  185.4740  178.1770  146.5410 C   0  0  0  0  0  0  0  0  0  0  0  0
  187.7310  177.4340  147.1000 C   0  0  0  0  0  3  0  0  0  0  0  0
  184.9880  178.2000  144.1630 O   0  0  0  0  0  0  0  0  0  0  0  0
  186.9440  177.4880  143.4280 C   0  0  0  0  0  0  0  0  0  0  0  0
  188.0590  177.2560  145.7390 C   0  0  0  0  0  0  0  0  0  0  0  0
  185.7890  177.9980  145.1970 C   0  0  0  0  0  0  0  0  0  0  0  0
  185.6950  177.8880  143.1000 C   0  0  0  0  0  0  0  0  0  0  0  0
  187.0480  177.5500  144.8020 C   0  0  0  0  0  0  0  0  0  0  0  0
  186.4580  177.8880  147.4970 C   0  0  0  0  0  3  0  0  0  0  0  0
  186.5100  177.4390  141.0060 C   0  0  0  0  0  0  0  0  0  0  0  0
  185.3920  177.8850  141.7390 C   0  0  0  0  0  0  0  0  0  0  0  0
  184.2180  178.6250  146.9280 O   0  0  0  0  0  1  0  0  0  0  0  0
  186.5890  177.2890  139.5260 C   0  0  0  0  0  1  0  0  0  0  0  0
  187.8080  177.0720  142.0530 S   0  0  0  0  0  0  0  0  0  0  0  0
  184.0300  178.9610  140.1150 O   0  0  0  0  0  0  0  0  0  0  0  0
  182.8770  177.9050  141.8410 N   0  0  0  0  0  2  0  0  0  0  0  0
  184.0850  178.2850  141.1770 C   0  0  0  0  0  0  0  0  0  0  0  0
  181.5670  178.2730  141.3310 C   0  0  0  0  0  1  0  0  0  0  0  0
  189.7080  175.3890  145.3880 N   0  0  0  0  0  2  0  0  0  0  0  0
  190.3260  177.6130  145.0980 O   0  0  0  0  0  0  0  0  0  0  0  0
  189.4170  176.7910  145.3830 C   0  0  0  0  0  0  0  0  0  0  0  0
  191.0120  174.8540  145.0270 C   0  0  0  0  0  2  0  0  0  0  0  0
  190.8520  173.7270  144.0270 C   0  0  0  0  0  2  0  0  0  0  0  0
  189.4410  173.4290  143.8550 N   0  0  0  0  0  2  0  0  0  0  0  0
  187.5610  172.7590  141.8640 O   0  0  0  0  0  1  0  0  0  0  0  0
  189.8070  173.9620  141.2600 O   0  0  0  0  0  0  0  0  0  0  0  0
  189.2120  172.9280  142.1900 P   0  0  0  0  0  0  0  0  0  0  0  0
  189.9840  171.4450  141.9420 O   0  0  0  0  0  1  0  0  0  0  0  0
  1 12  1  0  0  0  0
  1  9  1  0  0  0  0
  2  9  2  0  0  0  0
  3  6  1  0  0  0  0
  4  8  1  0  0  0  0
  5  2  1  0  0  0  0
  6  1  2  0  0  0  0
  7  4  2  0  0  0  0
  7  3  1  0  0  0  0
  8  6  1  0  0  0  0
  8  5  2  0  0  0  0
 10 11  2  0  0  0  0
 10 14  1  0  0  0  0
 11  7  1  0  0  0  0
 13 10  1  0  0  0  0
 14  4  1  0  0  0  0
 15 17  2  0  0  0  0
 17 11  1  0  0  0  0
 17 16  1  0  0  0  0
 18 16  1  0  0  0  0
 20 21  2  0  0  0  0
 21 19  1  0  0  0  0
 21  5  1  0  0  0  0
 22 19  1  0  0  0  0
 23 22  1  0  0  0  0
 24 23  1  0  0  0  0
 25 27  1  0  0  0  0
 26 27  2  0  0  0  0
 27 24  1  0  0  0  0
 28 27  1  0  0  0  0
M  END
>  <MODEL>
3

>  <REMARK>
 VINA RESULT:      -6.9      3.423      7.542
  Name = 
  6 active torsions:
  status: ('A' for Active; 'I' for Inactive)
    1  A    between atoms: C_2  and  C_16
    2  A    between atoms: C_2  and  N_25
    3  A    between atoms: N_3  and  C_16
    4  A    between atoms: C_9  and  C_14
    5  A    between atoms: P_18  and  N_25
    6  A    between atoms: C_20  and  C_23
                            x       y       z     vdW  Elec       q    Type
                         _______ _______ _______ _____ _____    ______ ____

>  <TORSDO>
F 6

$$$$
=
 OpenBabel11062419563D

 28 30  0  0  0  0  0  0  0  0999 V2000
  186.2330  177.9000  141.5070 C   0  0  0  0  0  0  0  0  0  0  0  0
  186.4600  178.4420  143.8770 C   0  0  0  0  0  3  0  0  0  0  0  0
  187.4960  175.9510  140.8010 O   0  0  0  0  0  0  0  0  0  0  0  0
  188.4050  175.4350  142.7450 C   0  0  0  0  0  0  0  0  0  0  0  0
  187.3420  177.3600  144.0870 C   0  0  0  0  0  0  0  0  0  0  0  0
  187.0970  176.8280  141.7090 C   0  0  0  0  0  0  0  0  0  0  0  0
  188.2830  175.1140  141.4380 C   0  0  0  0  0  0  0  0  0  0  0  0
  187.6410  176.5620  142.9640 C   0  0  0  0  0  0  0  0  0  0  0  0
  185.9130  178.7100  142.6070 C   0  0  0  0  0  3  0  0  0  0  0  0
  189.6730  173.4220  142.1150 C   0  0  0  0  0  0  0  0  0  0  0  0
  188.9840  173.9830  141.0200 C   0  0  0  0  0  0  0  0  0  0  0  0
  185.6960  178.1600  140.2540 O   0  0  0  0  0  1  0  0  0  0  0  0
  190.5310  172.2050  142.0840 C   0  0  0  0  0  1  0  0  0  0  0  0
  189.3920  174.3320  143.5320 S   0  0  0  0  0  0  0  0  0  0  0  0
  188.0170  172.7670  139.2200 O   0  0  0  0  0  0  0  0  0  0  0  0
  190.0750  173.7590  138.7630 N   0  0  0  0  0  2  0  0  0  0  0  0
  188.9810  173.4660  139.6360 C   0  0  0  0  0  0  0  0  0  0  0  0
  190.1210  173.2750  137.3940 C   0  0  0  0  0  1  0  0  0  0  0  0
  189.2730  177.4350  145.6980 N   0  0  0  0  0  2  0  0  0  0  0  0
  187.1780  176.6730  146.3630 O   0  0  0  0  0  0  0  0  0  0  0  0
  187.8960  177.1390  145.4400 C   0  0  0  0  0  0  0  0  0  0  0  0
  189.8830  177.2670  147.0080 C   0  0  0  0  0  2  0  0  0  0  0  0
  190.7040  175.9940  147.0380 C   0  0  0  0  0  2  0  0  0  0  0  0
  192.0670  176.3040  147.4330 N   0  0  0  0  0  2  0  0  0  0  0  0
  192.9310  176.9130  144.8200 O   0  0  0  0  0  0  0  0  0  0  0  0
  194.5540  175.8360  146.5700 O   0  0  0  0  0  1  0  0  0  0  0  0
  193.1140  175.8320  146.1080 P   0  0  0  0  0  0  0  0  0  0  0  0
  192.6980  174.2770  145.5950 O   0  0  0  0  0  1  0  0  0  0  0  0
  1  6  2  0  0  0  0
  1  9  1  0  0  0  0
  2  5  1  0  0  0  0
  3  7  1  0  0  0  0
  3  6  1  0  0  0  0
  4  8  1  0  0  0  0
  4 14  1  0  0  0  0
  5 21  1  0  0  0  0
  6  8  1  0  0  0  0
  7  4  2  0  0  0  0
  8  5  2  0  0  0  0
  9  2  2  0  0  0  0
 10 14  1  0  0  0  0
 11  7  1  0  0  0  0
 11 10  2  0  0  0  0
 12  1  1  0  0  0  0
 13 10  1  0  0  0  0
 15 17  2  0  0  0  0
 16 17  1  0  0  0  0
 17 11  1  0  0  0  0
 18 16  1  0  0  0  0
 19 22  1  0  0  0  0
 21 19  1  0  0  0  0
 21 20  2  0  0  0  0
 22 23  1  0  0  0  0
 23 24  1  0  0  0  0
 25 27  2  0  0  0  0
 27 26  1  0  0  0  0
 27 24  1  0  0  0  0
 28 27  1  0  0  0  0
M  END
>  <MODEL>
4

>  <REMARK>
 VINA RESULT:      -6.9      4.808      8.289
  Name = 
  6 active torsions:
  status: ('A' for Active; 'I' for Inactive)
    1  A    between atoms: C_2  and  C_16
    2  A    between atoms: C_2  and  N_25
    3  A    between atoms: N_3  and  C_16
    4  A    between atoms: C_9  and  C_14
    5  A    between atoms: P_18  and  N_25
    6  A    between atoms: C_20  and  C_23
                            x       y       z     vdW  Elec       q    Type
                         _______ _______ _______ _____ _____    ______ ____

>  <TORSDO>
F 6

$$$$
=
 OpenBabel11062419563D

 28 30  0  0  0  0  0  0  0  0999 V2000
  186.9970  176.5080  146.8360 C   0  0  0  0  0  0  0  0  0  0  0  0
  189.2320  175.6600  146.3400 C   0  0  0  0  0  3  0  0  0  0  0  0
  185.7650  177.2760  144.8920 O   0  0  0  0  0  0  0  0  0  0  0  0
  187.2960  176.8630  143.3570 C   0  0  0  0  0  0  0  0  0  0  0  0
  189.0780  175.9270  144.9640 C   0  0  0  0  0  0  0  0  0  0  0  0
  186.8370  176.7680  145.4790 C   0  0  0  0  0  0  0  0  0  0  0  0
  186.0530  177.3270  143.6100 C   0  0  0  0  0  0  0  0  0  0  0  0
  187.8490  176.4880  144.5620 C   0  0  0  0  0  0  0  0  0  0  0  0
  188.2090  175.9450  147.2650 C   0  0  0  0  0  3  0  0  0  0  0  0
  186.0910  177.5780  141.3330 C   0  0  0  0  0  0  0  0  0  0  0  0
  185.3220  177.7510  142.5010 C   0  0  0  0  0  0  0  0  0  0  0  0
  185.9850  176.7910  147.7430 O   0  0  0  0  0  1  0  0  0  0  0  0
  185.6670  177.9050  139.9430 C   0  0  0  0  0  1  0  0  0  0  0  0
  187.6190  176.9170  141.7120 S   0  0  0  0  0  0  0  0  0  0  0  0
  183.6100  179.0590  143.5060 O   0  0  0  0  0  0  0  0  0  0  0  0
  182.9940  177.9340  141.5620 N   0  0  0  0  0  2  0  0  0  0  0  0
  183.9470  178.2890  142.5660 C   0  0  0  0  0  0  0  0  0  0  0  0
  181.6300  178.4350  141.5800 C   0  0  0  0  0  1  0  0  0  0  0  0
  191.1300  176.6460  143.6980 N   0  0  0  0  0  2  0  0  0  0  0  0
  190.3210  174.4700  143.5450 O   0  0  0  0  0  0  0  0  0  0  0  0
  190.1950  175.6190  144.0440 C   0  0  0  0  0  0  0  0  0  0  0  0
  192.2670  176.4140  142.8210 C   0  0  0  0  0  2  0  0  0  0  0  0
  193.5220  176.1970  143.6440 C   0  0  0  0  0  2  0  0  0  0  0  0
  193.7750  174.7730  143.7750 N   0  0  0  0  0  2  0  0  0  0  0  0
  193.8780  172.7770  145.7630 O   0  0  0  0  0  0  0  0  0  0  0  0
  195.3810  174.9160  145.9080 O   0  0  0  0  0  1  0  0  0  0  0  0
  194.0110  174.4400  145.4800 P   0  0  0  0  0  0  0  0  0  0  0  0
  192.8330  175.2540  146.3760 O   0  0  0  0  0  1  0  0  0  0  0  0
  1  9  1  0  0  0  0
  1 12  1  0  0  0  0
  2  9  2  0  0  0  0
  3  6  1  0  0  0  0
  4  7  2  0  0  0  0
  4  8  1  0  0  0  0
  5  2  1  0  0  0  0
  6  1  2  0  0  0  0
  7  3  1  0  0  0  0
  8  5  2  0  0  0  0
  8  6  1  0  0  0  0
 10 14  1  0  0  0  0
 10 11  2  0  0  0  0
 11 17  1  0  0  0  0
 11  7  1  0  0  0  0
 13 10  1  0  0  0  0
 14  4  1  0  0  0  0
 16 18  1  0  0  0  0
 16 17  1  0  0  0  0
 17 15  2  0  0  0  0
 19 21  1  0  0  0  0
 20 21  2  0  0  0  0
 21  5  1  0  0  0  0
 22 23  1  0  0  0  0
 22 19  1  0  0  0  0
 23 24  1  0  0  0  0
 24 27  1  0  0  0  0
 27 25  2  0  0  0  0
 27 26  1  0  0  0  0
 27 28  1  0  0  0  0
M  END
>  <MODEL>
5

>  <REMARK>
 VINA RESULT:      -6.7      3.891      8.934
  Name = 
  6 active torsions:
  status: ('A' for Active; 'I' for Inactive)
    1  A    between atoms: C_2  and  C_16
    2  A    between atoms: C_2  and  N_25
    3  A    between atoms: N_3  and  C_16
    4  A    between atoms: C_9  and  C_14
    5  A    between atoms: P_18  and  N_25
    6  A    between atoms: C_20  and  C_23
                            x       y       z     vdW  Elec       q    Type
                         _______ _______ _______ _____ _____    ______ ____

>  <TORSDO>
F 6

$$$$
=
 OpenBabel11062419563D

 28 30  0  0  0  0  0  0  0  0999 V2000
  188.8240  174.4140  140.8400 C   0  0  0  0  0  0  0  0  0  0  0  0
  190.3820  174.0370  142.6810 C   0  0  0  0  0  3  0  0  0  0  0  0
  187.0950  176.0500  141.3110 O   0  0  0  0  0  0  0  0  0  0  0  0
  187.6880  176.5590  143.3750 C   0  0  0  0  0  0  0  0  0  0  0  0
  189.7060  174.9630  143.5030 C   0  0  0  0  0  0  0  0  0  0  0  0
  188.1570  175.3330  141.6430 C   0  0  0  0  0  0  0  0  0  0  0  0
  186.8220  176.7880  142.3640 C   0  0  0  0  0  0  0  0  0  0  0  0
  188.5820  175.6040  142.9420 C   0  0  0  0  0  0  0  0  0  0  0  0
  189.9490  173.7640  141.3690 C   0  0  0  0  0  3  0  0  0  0  0  0
  185.9950  178.2640  143.9100 C   0  0  0  0  0  0  0  0  0  0  0  0
  185.8360  177.7430  142.6090 C   0  0  0  0  0  0  0  0  0  0  0  0
  188.3940  174.1490  139.5470 O   0  0  0  0  0  1  0  0  0  0  0  0
  185.1470  179.3090  144.5490 C   0  0  0  0  0  1  0  0  0  0  0  0
  187.3280  177.5360  144.6900 S   0  0  0  0  0  0  0  0  0  0  0  0
  185.1240  178.6640  140.5370 O   0  0  0  0  0  0  0  0  0  0  0  0
  183.4170  177.9220  141.9360 N   0  0  0  0  0  2  0  0  0  0  0  0
  184.7980  178.1370  141.6340 C   0  0  0  0  0  0  0  0  0  0  0  0
  182.3580  178.2910  141.0130 C   0  0  0  0  0  1  0  0  0  0  0  0
  191.3030  176.0820  145.0930 N   0  0  0  0  0  2  0  0  0  0  0  0
  189.6750  174.6070  145.8590 O   0  0  0  0  0  0  0  0  0  0  0  0
  190.1990  175.1960  144.8780 C   0  0  0  0  0  0  0  0  0  0  0  0
  191.8290  176.3790  146.4170 C   0  0  0  0  0  2  0  0  0  0  0  0
  193.3430  176.4240  146.3750 C   0  0  0  0  0  2  0  0  0  0  0  0
  193.7810  176.7910  145.0400 N   0  0  0  0  0  2  0  0  0  0  0  0
  196.3480  176.6190  143.8880 O   0  0  0  0  0  1  0  0  0  0  0  0
  195.6380  175.0490  145.8600 O   0  0  0  0  0  1  0  0  0  0  0  0
  195.1090  175.7270  144.6160 P   0  0  0  0  0  0  0  0  0  0  0  0
  194.5580  174.5520  143.5330 O   0  0  0  0  0  0  0  0  0  0  0  0
  1  9  2  0  0  0  0
  1  6  1  0  0  0  0
  2  5  2  0  0  0  0
  3  6  1  0  0  0  0
  3  7  1  0  0  0  0
  4 14  1  0  0  0  0
  5 21  1  0  0  0  0
  6  8  2  0  0  0  0
  7 11  1  0  0  0  0
  7  4  2  0  0  0  0
  8  4  1  0  0  0  0
  8  5  1  0  0  0  0
  9  2  1  0  0  0  0
 10 13  1  0  0  0  0
 10 14  1  0  0  0  0
 11 10  2  0  0  0  0
 12  1  1  0  0  0  0
 15 17  2  0  0  0  0
 17 16  1  0  0  0  0
 17 11  1  0  0  0  0
 18 16  1  0  0  0  0
 19 22  1  0  0  0  0
 21 19  1  0  0  0  0
 21 20  2  0  0  0  0
 23 22  1  0  0  0  0
 24 23  1  0  0  0  0
 25 27  1  0  0  0  0
 27 24  1  0  0  0  0
 27 26  1  0  0  0  0
 28 27  2  0  0  0  0
M  END
>  <MODEL>
6

>  <REMARK>
 VINA RESULT:      -6.7      4.263      9.816
  Name = 
  6 active torsions:
  status: ('A' for Active; 'I' for Inactive)
    1  A    between atoms: C_2  and  C_16
    2  A    between atoms: C_2  and  N_25
    3  A    between atoms: N_3  and  C_16
    4  A    between atoms: C_9  and  C_14
    5  A    between atoms: P_18  and  N_25
    6  A    between atoms: C_20  and  C_23
                            x       y       z     vdW  Elec       q    Type
                         _______ _______ _______ _____ _____    ______ ____

>  <TORSDO>
F 6

$$$$
=
 OpenBabel11062419563D

 28 30  0  0  0  0  0  0  0  0999 V2000
  188.4050  176.0970  146.2820 C   0  0  0  0  0  0  0  0  0  0  0  0
  186.8760  177.8320  145.4990 C   0  0  0  0  0  3  0  0  0  0  0  0
  189.3090  174.6920  144.5220 O   0  0  0  0  0  0  0  0  0  0  0  0
  188.2910  175.6330  142.8040 C   0  0  0  0  0  0  0  0  0  0  0  0
  187.0120  177.4110  144.1590 C   0  0  0  0  0  0  0  0  0  0  0  0
  188.5480  175.6810  144.9620 C   0  0  0  0  0  0  0  0  0  0  0  0
  189.1470  174.6730  143.2170 C   0  0  0  0  0  0  0  0  0  0  0  0
  187.8700  176.3180  143.9240 C   0  0  0  0  0  0  0  0  0  0  0  0
  187.5610  177.1850  146.5470 C   0  0  0  0  0  3  0  0  0  0  0  0
  189.2020  174.2810  140.9600 C   0  0  0  0  0  0  0  0  0  0  0  0
  189.6940  173.8710  142.2160 C   0  0  0  0  0  0  0  0  0  0  0  0
  189.0820  175.4570  147.3110 O   0  0  0  0  0  1  0  0  0  0  0  0
  189.5490  173.6830  139.6410 C   0  0  0  0  0  1  0  0  0  0  0  0
  188.1300  175.5980  141.1360 S   0  0  0  0  0  0  0  0  0  0  0  0
  190.2290  171.6210  142.7640 O   0  0  0  0  0  0  0  0  0  0  0  0
  192.0540  173.0080  142.3540 N   0  0  0  0  0  2  0  0  0  0  0  0
  190.6490  172.7700  142.4600 C   0  0  0  0  0  0  0  0  0  0  0  0
  193.0350  171.9610  142.5840 C   0  0  0  0  0  1  0  0  0  0  0  0
  185.2120  177.4370  142.4010 N   0  0  0  0  0  2  0  0  0  0  0  0
  186.5290  179.3110  142.8050 O   0  0  0  0  0  0  0  0  0  0  0  0
  186.2550  178.1200  143.1060 C   0  0  0  0  0  0  0  0  0  0  0  0
  184.4080  178.0740  141.3700 C   0  0  0  0  0  2  0  0  0  0  0  0
  182.9830  178.2450  141.8550 C   0  0  0  0  0  2  0  0  0  0  0  0
  182.0840  178.2850  140.7150 N   0  0  0  0  0  2  0  0  0  0  0  0
  179.3270  177.8680  141.1330 O   0  0  0  0  0  1  0  0  0  0  0  0
  180.7160  179.4380  142.7030 O   0  0  0  0  0  1  0  0  0  0  0  0
  180.5790  178.9990  141.2620 P   0  0  0  0  0  0  0  0  0  0  0  0
  180.2170  180.3420  140.3020 O   0  0  0  0  0  0  0  0  0  0  0  0
  1  9  1  0  0  0  0
  1 12  1  0  0  0  0
  2  9  2  0  0  0  0
  3  6  1  0  0  0  0
  4  7  2  0  0  0  0
  4  8  1  0  0  0  0
  5  2  1  0  0  0  0
  6  1  2  0  0  0  0
  7  3  1  0  0  0  0
  8  5  2  0  0  0  0
  8  6  1  0  0  0  0
 10 14  1  0  0  0  0
 10 11  2  0  0  0  0
 11 17  1  0  0  0  0
 11  7  1  0  0  0  0
 13 10  1  0  0  0  0
 14  4  1  0  0  0  0
 16 17  1  0  0  0  0
 16 18  1  0  0  0  0
 17 15  2  0  0  0  0
 19 21  1  0  0  0  0
 20 21  2  0  0  0  0
 21  5  1  0  0  0  0
 22 23  1  0  0  0  0
 22 19  1  0  0  0  0
 24 27  1  0  0  0  0
 24 23  1  0  0  0  0
 25 27  1  0  0  0  0
 27 26  1  0  0  0  0
 28 27  2  0  0  0  0
M  END
>  <MODEL>
7

>  <REMARK>
 VINA RESULT:      -6.6      2.106      2.843
  Name = 
  6 active torsions:
  status: ('A' for Active; 'I' for Inactive)
    1  A    between atoms: C_2  and  C_16
    2  A    between atoms: C_2  and  N_25
    3  A    between atoms: N_3  and  C_16
    4  A    between atoms: C_9  and  C_14
    5  A    between atoms: P_18  and  N_25
    6  A    between atoms: C_20  and  C_23
                            x       y       z     vdW  Elec       q    Type
                         _______ _______ _______ _____ _____    ______ ____

>  <TORSDO>
F 6

$$$$
=
 OpenBabel11062419563D

 28 30  0  0  0  0  0  0  0  0999 V2000
  191.2380  176.7750  147.0210 C   0  0  0  0  0  0  0  0  0  0  0  0
  192.8230  175.8450  145.4130 C   0  0  0  0  0  3  0  0  0  0  0  0
  189.1500  177.5310  146.0440 O   0  0  0  0  0  0  0  0  0  0  0  0
  189.5810  177.0320  143.9380 C   0  0  0  0  0  0  0  0  0  0  0  0
  191.9410  176.0820  144.3380 C   0  0  0  0  0  0  0  0  0  0  0  0
  190.3620  177.0050  145.9660 C   0  0  0  0  0  0  0  0  0  0  0  0
  188.6870  177.5410  144.8140 C   0  0  0  0  0  0  0  0  0  0  0  0
  190.7000  176.6700  144.6560 C   0  0  0  0  0  0  0  0  0  0  0  0
  192.4800  176.1860  146.7370 C   0  0  0  0  0  3  0  0  0  0  0  0
  187.4710  177.7320  142.8810 C   0  0  0  0  0  0  0  0  0  0  0  0
  187.4720  177.9590  144.2730 C   0  0  0  0  0  0  0  0  0  0  0  0
  190.8950  177.1110  148.3230 O   0  0  0  0  0  1  0  0  0  0  0  0
  186.3560  178.0370  141.9410 C   0  0  0  0  0  1  0  0  0  0  0  0
  188.9480  177.0340  142.3850 S   0  0  0  0  0  0  0  0  0  0  0  0
  185.9410  179.6990  144.8030 O   0  0  0  0  0  0  0  0  0  0  0  0
  185.7740  177.7880  146.1230 N   0  0  0  0  0  2  0  0  0  0  0  0
  186.3650  178.5410  145.0610 C   0  0  0  0  0  0  0  0  0  0  0  0
  184.6850  178.3130  146.9290 C   0  0  0  0  0  1  0  0  0  0  0  0
  191.8010  174.5620  142.3380 N   0  0  0  0  0  2  0  0  0  0  0  0
  193.2330  176.3960  142.3600 O   0  0  0  0  0  0  0  0  0  0  0  0
  192.3660  175.7170  142.9690 C   0  0  0  0  0  0  0  0  0  0  0  0
  192.1500  174.1530  140.9860 C   0  0  0  0  0  2  0  0  0  0  0  0
  191.1520  173.1310  140.4790 C   0  0  0  0  0  2  0  0  0  0  0  0
  189.8030  173.6000  140.7380 N   0  0  0  0  0  2  0  0  0  0  0  0
  190.0640  173.8050  137.9390 O   0  0  0  0  0  0  0  0  0  0  0  0
  188.1880  172.3340  139.0230 O   0  0  0  0  0  1  0  0  0  0  0  0
  188.9550  173.6250  139.2040 P   0  0  0  0  0  0  0  0  0  0  0  0
  187.8730  174.9230  139.1850 O   0  0  0  0  0  1  0  0  0  0  0  0
  1 12  1  0  0  0  0
  2  9  2  0  0  0  0
  4  8  1  0  0  0  0
  4  7  2  0  0  0  0
  5  8  2  0  0  0  0
  5  2  1  0  0  0  0
  6  3  1  0  0  0  0
  6  1  2  0  0  0  0
  7  3  1  0  0  0  0
  8  6  1  0  0  0  0
  9  1  1  0  0  0  0
 10 11  2  0  0  0  0
 11  7  1  0  0  0  0
 11 17  1  0  0  0  0
 13 10  1  0  0  0  0
 14 10  1  0  0  0  0
 14  4  1  0  0  0  0
 15 17  2  0  0  0  0
 16 18  1  0  0  0  0
 17 16  1  0  0  0  0
 19 21  1  0  0  0  0
 20 21  2  0  0  0  0
 21  5  1  0  0  0  0
 22 19  1  0  0  0  0
 23 24  1  0  0  0  0
 23 22  1  0  0  0  0
 25 27  2  0  0  0  0
 26 27  1  0  0  0  0
 27 24  1  0  0  0  0
 28 27  1  0  0  0  0
M  END
>  <MODEL>
8

>  <REMARK>
 VINA RESULT:      -6.5      4.388      7.697
  Name = 
  6 active torsions:
  status: ('A' for Active; 'I' for Inactive)
    1  A    between atoms: C_2  and  C_16
    2  A    between atoms: C_2  and  N_25
    3  A    between atoms: N_3  and  C_16
    4  A    between atoms: C_9  and  C_14
    5  A    between atoms: P_18  and  N_25
    6  A    between atoms: C_20  and  C_23
                            x       y       z     vdW  Elec       q    Type
                         _______ _______ _______ _____ _____    ______ ____

>  <TORSDO>
F 6

$$$$
=
 OpenBabel11062419563D

 28 30  0  0  0  0  0  0  0  0999 V2000
  190.8980  176.7310  147.1670 C   0  0  0  0  0  0  0  0  0  0  0  0
  189.1830  177.5770  145.6490 C   0  0  0  0  0  3  0  0  0  0  0  0
  192.7500  175.6170  146.0630 O   0  0  0  0  0  0  0  0  0  0  0  0
  192.0630  175.8410  143.9770 C   0  0  0  0  0  0  0  0  0  0  0  0
  189.8760  177.0890  144.5210 C   0  0  0  0  0  0  0  0  0  0  0  0
  191.5890  176.2530  146.0580 C   0  0  0  0  0  0  0  0  0  0  0  0
  193.0270  175.3750  144.8010 C   0  0  0  0  0  0  0  0  0  0  0  0
  191.0940  176.4240  144.7660 C   0  0  0  0  0  0  0  0  0  0  0  0
  189.6840  177.4010  146.9540 C   0  0  0  0  0  3  0  0  0  0  0  0
  193.9290  174.7680  142.7830 C   0  0  0  0  0  0  0  0  0  0  0  0
  194.1100  174.7530  144.1810 C   0  0  0  0  0  0  0  0  0  0  0  0
  191.3970  176.5560  148.4500 O   0  0  0  0  0  1  0  0  0  0  0  0
  194.8640  174.2090  141.7680 C   0  0  0  0  0  1  0  0  0  0  0  0
  192.4610  175.5400  142.3770 S   0  0  0  0  0  0  0  0  0  0  0  0
  196.2390  174.9090  145.2260 O   0  0  0  0  0  0  0  0  0  0  0  0
  195.2780  172.7880  145.2360 N   0  0  0  0  0  2  0  0  0  0  0  0
  195.2650  174.1790  144.9030 C   0  0  0  0  0  0  0  0  0  0  0  0
  196.3880  172.1740  145.9440 C   0  0  0  0  0  1  0  0  0  0  0  0
  188.1830  176.4850  142.7600 N   0  0  0  0  0  2  0  0  0  0  0  0
  189.7680  178.1470  142.3880 O   0  0  0  0  0  0  0  0  0  0  0  0
  189.2910  177.2910  143.1780 C   0  0  0  0  0  0  0  0  0  0  0  0
  187.5390  176.6420  141.4650 C   0  0  0  0  0  2  0  0  0  0  0  0
  186.2770  177.4690  141.6100 C   0  0  0  0  0  2  0  0  0  0  0  0
  185.4650  176.9320  142.6870 N   0  0  0  0  0  2  0  0  0  0  0  0
  185.8140  179.6360  143.4030 O   0  0  0  0  0  1  0  0  0  0  0  0
  183.4260  178.6280  143.0250 O   0  0  0  0  0  0  0  0  0  0  0  0
  184.7980  178.2930  143.5670 P   0  0  0  0  0  0  0  0  0  0  0  0
  184.6670  177.8890  145.2030 O   0  0  0  0  0  1  0  0  0  0  0  0
  1 12  1  0  0  0  0
  2  9  2  0  0  0  0
  4  8  1  0  0  0  0
  4  7  2  0  0  0  0
  5  8  2  0  0  0  0
  5  2  1  0  0  0  0
  6  3  1  0  0  0  0
  6  1  2  0  0  0  0
  7  3  1  0  0  0  0
  8  6  1  0  0  0  0
  9  1  1  0  0  0  0
 10 11  2  0  0  0  0
 11  7  1  0  0  0  0
 11 17  1  0  0  0  0
 13 10  1  0  0  0  0
 14 10  1  0  0  0  0
 14  4  1  0  0  0  0
 16 18  1  0  0  0  0
 17 15  2  0  0  0  0
 17 16  1  0  0  0  0
 19 21  1  0  0  0  0
 20 21  2  0  0  0  0
 21  5  1  0  0  0  0
 22 23  1  0  0  0  0
 22 19  1  0  0  0  0
 23 24  1  0  0  0  0
 24 27  1  0  0  0  0
 25 27  1  0  0  0  0
 26 27  2  0  0  0  0
 27 28  1  0  0  0  0
M  END
>  <MODEL>
9

>  <REMARK>
 VINA RESULT:      -6.5      3.715      5.464
  Name = 
  6 active torsions:
  status: ('A' for Active; 'I' for Inactive)
    1  A    between atoms: C_2  and  C_16
    2  A    between atoms: C_2  and  N_25
    3  A    between atoms: N_3  and  C_16
    4  A    between atoms: C_9  and  C_14
    5  A    between atoms: P_18  and  N_25
    6  A    between atoms: C_20  and  C_23
                            x       y       z     vdW  Elec       q    Type
                         _______ _______ _______ _____ _____    ______ ____

>  <TORSDO>
F 6

$$$$
