=
 OpenBabel11062419383D

 42 46  0  0  1  0  0  0  0  0999 V2000
  189.2270  178.2280  147.4220 F   0  0  0  0  0  0  0  0  0  0  0  0
  190.3160  178.0650  145.4930 F   0  0  0  0  0  0  0  0  0  0  0  0
  190.8650  176.5270  147.2140 C   0  0  1  0  0  3  0  0  0  0  0  0
  189.7470  177.3150  146.5130 C   0  0  0  0  0  0  0  0  0  0  0  0
  191.8320  175.8920  146.2420 C   0  0  2  0  0  3  0  0  0  0  0  0
  192.6140  174.4680  144.6010 N   0  0  0  0  0  0  0  0  0  0  0  0
  191.5020  175.0420  145.2660 C   0  0  0  0  0  0  0  0  0  0  0  0
  189.0340  174.8830  145.9290 C   0  0  0  0  0  2  0  0  0  0  0  0
  190.1030  174.6140  144.8710 C   0  0  1  0  0  3  0  0  0  0  0  0
  189.1630  176.5630  143.4930 C   0  0  0  0  0  2  0  0  0  0  0  0
  188.6040  176.3680  145.9810 C   0  0  2  0  0  0  0  0  0  0  0  0
  193.5990  176.1470  146.4040 S   0  0  0  0  0  0  0  0  0  0  0  0
  193.9090  174.9310  145.0720 C   0  0  1  0  0  3  0  0  0  0  0  0
  188.1180  176.8050  144.5840 C   0  0  0  0  0  2  0  0  0  0  0  0
  189.6140  175.1050  143.4950 C   0  0  1  0  0  3  0  0  0  0  0  0
  191.5440  177.3410  148.1070 F   0  0  0  0  0  0  0  0  0  0  0  0
  194.7420  173.7540  145.5900 C   0  0  1  0  0  3  0  0  0  0  0  0
  195.8270  172.9060  143.4760 C   0  0  0  0  0  0  0  0  0  0  0  0
  194.7950  172.6260  144.5430 C   0  0  1  0  0  3  0  0  0  0  0  0
  196.9030  173.5800  143.7640 N   0  0  0  0  0  0  0  0  0  0  0  0
  195.6600  172.3870  142.1570 N   0  0  0  0  0  2  0  0  0  0  0  0
  197.1230  174.1520  145.0620 C   0  0  0  0  0  3  0  0  0  0  0  0
  196.1320  174.2140  145.9550 C   0  0  0  0  0  3  0  0  0  0  0  0
  195.0850  171.2950  145.2150 C   0  0  0  0  0  1  0  0  0  0  0  0
  191.6560  171.6810  139.3950 C   0  0  0  0  0  0  0  0  0  0  0  0
  192.4730  171.3240  140.3940 C   0  0  0  0  0  3  0  0  0  0  0  0
  193.5070  174.6750  138.3330 O   0  0  0  0  0  0  0  0  0  0  0  0
  193.1720  173.6360  138.9560 C   0  0  0  0  0  0  0  0  0  0  0  0
  193.6780  172.1030  140.7190 C   0  0  0  0  0  0  0  0  0  0  0  0
  193.9810  173.1700  140.0420 N   0  0  0  0  0  0  0  0  0  0  0  0
  194.5080  171.6760  141.7970 N   0  0  0  0  0  2  0  0  0  0  0  0
  191.9280  172.8980  138.5490 C   0  0  0  0  0  2  0  0  0  0  0  0
  190.5190  170.9240  139.1110 O   0  0  0  0  0  0  0  0  0  0  0  0
  189.3620  171.5030  138.7590 O   0  0  0  0  0  1  0  0  0  0  0  0
  189.7180  174.1570  141.1330 C   0  0  0  0  0  1  0  0  0  0  0  0
  190.5020  174.7280  142.3060 C   0  0  0  0  0  2  0  0  0  0  0  0
  187.4000  176.4340  146.9310 C   0  0  0  0  0  2  0  0  0  0  0  0
  186.1980  176.5930  146.2310 O   0  0  0  0  0  0  0  0  0  0  0  0
  184.0950  177.9810  146.9240 O   0  0  0  0  0  1  0  0  0  0  0  0
  186.3080  178.5510  148.1900 O   0  0  0  0  0  1  0  0  0  0  0  0
  185.9090  179.2650  145.5500 O   0  0  0  0  0  0  0  0  0  0  0  0
  185.5890  178.0930  146.7280 P   0  0  0  0  0  0  0  0  0  0  0  0
  2  4  1  0  0  0  0
  3 16  1  1  0  0  0
  4  3  1  0  0  0  0
  4  1  1  0  0  0  0
  5  7  1  1  0  0  0
  5 12  1  0  0  0  0
  5  3  1  0  0  0  0
  6  7  2  0  0  0  0
  8 11  1  0  0  0  0
  9  7  1  0  0  0  0
  9  8  1  1  0  0  0
 10 15  1  0  0  0  0
 10 14  1  0  0  0  0
 11  4  1  0  0  0  0
 11 37  1  1  0  0  0
 13  6  1  1  0  0  0
 13 17  1  0  0  0  0
 13 12  1  0  0  0  0
 14 11  1  0  0  0  0
 15 36  1  6  0  0  0
 15  9  1  0  0  0  0
 17 23  1  6  0  0  0
 18 20  2  0  0  0  0
 18 19  1  0  0  0  0
 19 24  1  1  0  0  0
 19 17  1  0  0  0  0
 20 22  1  0  0  0  0
 21 18  1  0  0  0  0
 22 23  2  0  0  0  0
 25 26  2  0  0  0  0
 26 29  1  0  0  0  0
 27 28  2  0  0  0  0
 28 30  1  0  0  0  0
 29 31  1  0  0  0  0
 30 29  2  0  0  0  0
 31 21  1  0  0  0  0
 32 28  1  0  0  0  0
 32 25  1  0  0  0  0
 33 25  1  0  0  0  0
 34 33  1  0  0  0  0
 35 36  1  0  0  0  0
 38 42  1  0  0  0  0
 38 37  1  0  0  0  0
 41 42  2  0  0  0  0
 42 39  1  0  0  0  0
 42 40  1  0  0  0  0
M  END
>  <MODEL>
1

>  <REMARK>
 VINA RESULT:      -7.8      0.000      0.000
  Name = 
  7 active torsions:
  status: ('A' for Active; 'I' for Inactive)
    1  A    between atoms: O_2  and  C_10
    2  A    between atoms: C_4  and  C_37
    3  A    between atoms: C_9  and  C_30
    4  A    between atoms: C_9  and  O_34
    5  A    between atoms: N_26  and  N_32
    6  A    between atoms: O_34  and  P_42
    7  A    between atoms: C_35  and  C_40
                            x       y       z     vdW  Elec       q    Type
                         _______ _______ _______ _____ _____    ______ ____

>  <TORSDO>
F 7

$$$$
=
 OpenBabel11062419383D

 42 46  0  0  1  0  0  0  0  0999 V2000
  187.2980  175.5990  142.6820 F   0  0  0  0  0  0  0  0  0  0  0  0
  188.5410  174.5550  144.1970 F   0  0  0  0  0  0  0  0  0  0  0  0
  189.6300  176.0260  142.6870 C   0  0  1  0  0  3  0  0  0  0  0  0
  188.3780  175.7660  143.5400 C   0  0  0  0  0  0  0  0  0  0  0  0
  190.9140  175.7190  143.4240 C   0  0  0  0  0  0  0  0  0  0  0  0
  192.6070  175.9240  144.9790 N   0  0  0  0  0  2  0  0  0  0  0  0
  191.2880  176.2600  144.5860 C   0  0  0  0  0  0  0  0  0  0  0  0
  189.3130  177.8840  144.7250 C   0  0  0  0  0  2  0  0  0  0  0  0
  190.4770  177.2070  145.4470 C   0  0  1  0  0  3  0  0  0  0  0  0
  188.7860  175.7220  146.6790 C   0  0  0  0  0  2  0  0  0  0  0  0
  188.0950  176.9490  144.5440 C   0  0  2  0  0  0  0  0  0  0  0  0
  192.1530  174.6440  142.7010 S   0  0  0  0  0  0  0  0  0  0  0  0
  193.3030  175.0280  144.0720 C   0  0  1  0  0  3  0  0  0  0  0  0
  187.6530  176.4190  145.9240 C   0  0  0  0  0  2  0  0  0  0  0  0
  189.9980  176.6420  146.7990 C   0  0  1  0  0  3  0  0  0  0  0  0
  189.5680  175.3060  141.5050 F   0  0  0  0  0  0  0  0  0  0  0  0
  194.5810  175.6880  143.5440 C   0  0  1  0  0  3  0  0  0  0  0  0
  195.7030  173.7740  142.3430 C   0  0  0  0  0  0  0  0  0  0  0  0
  195.7490  174.6840  143.5470 C   0  0  1  0  0  3  0  0  0  0  0  0
  195.2140  174.2020  141.2150 N   0  0  0  0  0  0  0  0  0  0  0  0
  196.2470  172.4560  142.4130 N   0  0  0  0  0  2  0  0  0  0  0  0
  194.6280  175.5050  141.0800 C   0  0  0  0  0  3  0  0  0  0  0  0
  194.3530  176.2420  142.1590 C   0  0  0  0  0  3  0  0  0  0  0  0
  197.0770  175.4200  143.5970 C   0  0  0  0  0  1  0  0  0  0  0  0
  195.9320  169.7130  146.4790 C   0  0  0  0  0  0  0  0  0  0  0  0
  196.5960  170.5550  145.6770 C   0  0  0  0  0  3  0  0  0  0  0  0
  192.8780  169.4570  144.4490 O   0  0  0  0  0  0  0  0  0  0  0  0
  194.0260  169.7820  144.8450 C   0  0  0  0  0  0  0  0  0  0  0  0
  196.0090  171.0490  144.4220 C   0  0  0  0  0  0  0  0  0  0  0  0
  194.8180  170.6790  144.0570 N   0  0  0  0  0  0  0  0  0  0  0  0
  196.7630  171.9470  143.6120 N   0  0  0  0  0  2  0  0  0  0  0  0
  194.5490  169.2230  146.1370 C   0  0  0  0  0  2  0  0  0  0  0  0
  196.5140  169.2640  147.6650 O   0  0  0  0  0  0  0  0  0  0  0  0
  197.6340  168.5280  147.6610 O   0  0  0  0  0  1  0  0  0  0  0  0
  191.5480  177.1130  148.7640 C   0  0  0  0  0  1  0  0  0  0  0  0
  191.0990  176.1050  147.7170 C   0  0  0  0  0  2  0  0  0  0  0  0
  186.9580  177.8230  144.0000 C   0  0  0  0  0  2  0  0  0  0  0  0
  185.7070  177.3850  144.4510 O   0  0  0  0  0  0  0  0  0  0  0  0
  184.0060  178.8940  145.7410 O   0  0  0  0  0  1  0  0  0  0  0  0
  185.6530  180.1390  144.1400 O   0  0  0  0  0  1  0  0  0  0  0  0
  183.5640  178.6030  143.1820 O   0  0  0  0  0  0  0  0  0  0  0  0
  184.7150  178.7570  144.4130 P   0  0  0  0  0  0  0  0  0  0  0  0
  1  4  1  0  0  0  0
  3 16  1  6  0  0  0
  3  5  1  0  0  0  0
  3  4  1  0  0  0  0
  4  2  1  0  0  0  0
  4 11  1  0  0  0  0
  5  7  2  0  0  0  0
  7  6  1  0  0  0  0
  7  9  1  0  0  0  0
  9  8  1  6  0  0  0
  9 15  1  0  0  0  0
 10 15  1  0  0  0  0
 11 37  1  6  0  0  0
 11  8  1  0  0  0  0
 11 14  1  0  0  0  0
 12  5  1  0  0  0  0
 13 12  1  6  0  0  0
 13  6  1  0  0  0  0
 14 10  1  0  0  0  0
 15 36  1  6  0  0  0
 17 23  1  6  0  0  0
 17 19  1  0  0  0  0
 17 13  1  0  0  0  0
 18 21  1  0  0  0  0
 18 19  1  0  0  0  0
 19 24  1  6  0  0  0
 20 18  2  0  0  0  0
 21 31  1  0  0  0  0
 22 20  1  0  0  0  0
 22 23  2  0  0  0  0
 25 33  1  0  0  0  0
 26 25  2  0  0  0  0
 27 28  2  0  0  0  0
 28 32  1  0  0  0  0
 29 26  1  0  0  0  0
 30 29  2  0  0  0  0
 30 28  1  0  0  0  0
 31 29  1  0  0  0  0
 32 25  1  0  0  0  0
 34 33  1  0  0  0  0
 36 35  1  0  0  0  0
 37 38  1  0  0  0  0
 40 42  1  0  0  0  0
 41 42  2  0  0  0  0
 42 38  1  0  0  0  0
 42 39  1  0  0  0  0
M  END
>  <MODEL>
2

>  <REMARK>
 VINA RESULT:      -7.7      3.363      5.117
  Name = 
  7 active torsions:
  status: ('A' for Active; 'I' for Inactive)
    1  A    between atoms: O_2  and  C_10
    2  A    between atoms: C_4  and  C_37
    3  A    between atoms: C_9  and  C_30
    4  A    between atoms: C_9  and  O_34
    5  A    between atoms: N_26  and  N_32
    6  A    between atoms: O_34  and  P_42
    7  A    between atoms: C_35  and  C_40
                            x       y       z     vdW  Elec       q    Type
                         _______ _______ _______ _____ _____    ______ ____

>  <TORSDO>
F 7

$$$$
=
 OpenBabel11062419383D

 42 46  0  0  1  0  0  0  0  0999 V2000
  197.3630  172.2530  143.1610 F   0  0  0  0  0  0  0  0  0  0  0  0
  196.0510  174.0440  143.1820 F   0  0  0  0  0  0  0  0  0  0  0  0
  195.0480  171.9350  142.7610 C   0  0  1  0  0  3  0  0  0  0  0  0
  196.1120  172.7090  143.5560 C   0  0  0  0  0  0  0  0  0  0  0  0
  193.7210  172.6550  142.7040 C   0  0  0  0  0  0  0  0  0  0  0  0
  191.7250  173.5560  143.4350 N   0  0  0  0  0  2  0  0  0  0  0  0
  193.0060  173.0470  143.7620 C   0  0  0  0  0  0  0  0  0  0  0  0
  194.5470  171.9560  145.4920 C   0  0  0  0  0  2  0  0  0  0  0  0
  193.4100  172.9390  145.2180 C   0  0  1  0  0  3  0  0  0  0  0  0
  195.0510  174.8720  145.6110 C   0  0  0  0  0  2  0  0  0  0  0  0
  195.9340  172.5240  145.1120 C   0  0  2  0  0  0  0  0  0  0  0  0
  192.9020  172.9500  141.1360 S   0  0  0  0  0  0  0  0  0  0  0  0
  191.4310  173.5950  142.0130 C   0  0  1  0  0  3  0  0  0  0  0  0
  196.1620  173.8520  145.8640 C   0  0  0  0  0  2  0  0  0  0  0  0
  193.6860  174.2730  145.9390 C   0  0  1  0  0  3  0  0  0  0  0  0
  195.5040  171.6610  141.4820 F   0  0  0  0  0  0  0  0  0  0  0  0
  190.1930  172.7480  141.6990 C   0  0  1  0  0  3  0  0  0  0  0  0
  188.5780  174.4780  140.8260 C   0  0  0  0  0  0  0  0  0  0  0  0
  188.9060  173.5480  141.9700 C   0  0  1  0  0  3  0  0  0  0  0  0
  188.9030  174.1580  139.6070 N   0  0  0  0  0  0  0  0  0  0  0  0
  187.8600  175.6890  141.0630 N   0  0  0  0  0  2  0  0  0  0  0  0
  189.6470  172.9710  139.2990 C   0  0  0  0  0  3  0  0  0  0  0  0
  190.2350  172.2660  140.2690 C   0  0  0  0  0  3  0  0  0  0  0  0
  187.7430  172.6050  142.2280 C   0  0  0  0  0  1  0  0  0  0  0  0
  184.9980  178.0610  144.2790 C   0  0  0  0  0  0  0  0  0  0  0  0
  186.0560  177.2920  143.9900 C   0  0  0  0  0  3  0  0  0  0  0  0
  183.7780  178.4780  140.8360 O   0  0  0  0  0  0  0  0  0  0  0  0
  184.4680  178.1200  141.8240 C   0  0  0  0  0  0  0  0  0  0  0  0
  186.3680  176.8990  142.6070 C   0  0  0  0  0  0  0  0  0  0  0  0
  185.6210  177.2950  141.6210 N   0  0  0  0  0  0  0  0  0  0  0  0
  187.5110  176.0820  142.3620 N   0  0  0  0  0  2  0  0  0  0  0  0
  184.0690  178.5620  143.2040 C   0  0  0  0  0  2  0  0  0  0  0  0
  184.7290  178.4200  145.6000 O   0  0  0  0  0  0  0  0  0  0  0  0
  184.3880  177.5050  146.5190 O   0  0  0  0  0  1  0  0  0  0  0  0
  192.8720  176.5430  145.1190 C   0  0  0  0  0  1  0  0  0  0  0  0
  192.5390  175.2870  145.9120 C   0  0  0  0  0  2  0  0  0  0  0  0
  196.9690  171.5160  145.6310 C   0  0  0  0  0  2  0  0  0  0  0  0
  196.4060  170.6220  146.5480 O   0  0  0  0  0  0  0  0  0  0  0  0
  197.9410  169.2470  144.9410 O   0  0  0  0  0  0  0  0  0  0  0  0
  197.6880  168.3040  147.3650 O   0  0  0  0  0  1  0  0  0  0  0  0
  195.6340  168.1660  145.5210 O   0  0  0  0  0  1  0  0  0  0  0  0
  196.9430  169.0900  146.0640 P   0  0  0  0  0  0  0  0  0  0  0  0
  1  4  1  0  0  0  0
  2  4  1  0  0  0  0
  3 16  1  6  0  0  0
  3  4  1  0  0  0  0
  4 11  1  0  0  0  0
  5  3  1  0  0  0  0
  5  7  2  0  0  0  0
  6  7  1  0  0  0  0
  7  9  1  0  0  0  0
  9  8  1  6  0  0  0
  9 15  1  0  0  0  0
 10 14  1  0  0  0  0
 10 15  1  0  0  0  0
 11  8  1  0  0  0  0
 11 37  1  1  0  0  0
 11 14  1  0  0  0  0
 12  5  1  0  0  0  0
 13 12  1  6  0  0  0
 13  6  1  0  0  0  0
 15 36  1  6  0  0  0
 17 23  1  6  0  0  0
 17 19  1  0  0  0  0
 17 13  1  0  0  0  0
 18 21  1  0  0  0  0
 18 19  1  0  0  0  0
 19 24  1  6  0  0  0
 20 18  2  0  0  0  0
 21 31  1  0  0  0  0
 22 20  1  0  0  0  0
 22 23  2  0  0  0  0
 25 33  1  0  0  0  0
 26 25  2  0  0  0  0
 27 28  2  0  0  0  0
 28 32  1  0  0  0  0
 29 26  1  0  0  0  0
 30 28  1  0  0  0  0
 30 29  2  0  0  0  0
 31 29  1  0  0  0  0
 32 25  1  0  0  0  0
 33 34  1  0  0  0  0
 35 36  1  0  0  0  0
 37 38  1  0  0  0  0
 39 42  2  0  0  0  0
 41 42  1  0  0  0  0
 42 38  1  0  0  0  0
 42 40  1  0  0  0  0
M  END
>  <MODEL>
3

>  <REMARK>
 VINA RESULT:      -7.6      5.271      9.180
  Name = 
  7 active torsions:
  status: ('A' for Active; 'I' for Inactive)
    1  A    between atoms: O_2  and  C_10
    2  A    between atoms: C_4  and  C_37
    3  A    between atoms: C_9  and  C_30
    4  A    between atoms: C_9  and  O_34
    5  A    between atoms: N_26  and  N_32
    6  A    between atoms: O_34  and  P_42
    7  A    between atoms: C_35  and  C_40
                            x       y       z     vdW  Elec       q    Type
                         _______ _______ _______ _____ _____    ______ ____

>  <TORSDO>
F 7

$$$$
=
 OpenBabel11062419383D

 42 46  0  0  1  0  0  0  0  0999 V2000
  188.9790  178.3340  144.1530 F   0  0  0  0  0  0  0  0  0  0  0  0
  189.4500  177.7740  142.0560 F   0  0  0  0  0  0  0  0  0  0  0  0
  190.6660  176.7080  143.7930 C   0  0  1  0  0  3  0  0  0  0  0  0
  189.3050  177.2590  143.3370 C   0  0  0  0  0  0  0  0  0  0  0  0
  191.3640  175.9070  142.7180 C   0  0  2  0  0  3  0  0  0  0  0  0
  191.7780  174.1770  141.2470 N   0  0  0  0  0  0  0  0  0  0  0  0
  190.8580  174.8380  142.0980 C   0  0  0  0  0  0  0  0  0  0  0  0
  188.7390  174.7270  143.5300 C   0  0  0  0  0  2  0  0  0  0  0  0
  189.4650  174.2670  142.2680 C   0  0  1  0  0  3  0  0  0  0  0  0
  187.9340  175.7940  140.8880 C   0  0  0  0  0  2  0  0  0  0  0  0
  188.1740  176.1610  143.4070 C   0  0  2  0  0  0  0  0  0  0  0  0
  193.0560  176.2740  142.2510 S   0  0  0  0  0  0  0  0  0  0  0  0
  193.0910  174.7950  141.1740 C   0  0  1  0  0  3  0  0  0  0  0  0
  187.2430  176.2360  142.1790 C   0  0  0  0  0  2  0  0  0  0  0  0
  188.5320  174.3990  141.0490 C   0  0  1  0  0  3  0  0  0  0  0  0
  191.4820  177.7390  144.2330 F   0  0  0  0  0  0  0  0  0  0  0  0
  194.1730  173.8110  141.6320 C   0  0  1  0  0  3  0  0  0  0  0  0
  193.1380  172.8210  143.7090 C   0  0  0  0  0  0  0  0  0  0  0  0
  194.2160  173.7320  143.1690 C   0  0  1  0  0  3  0  0  0  0  0  0
  192.7350  171.7970  143.0140 N   0  0  0  0  0  0  0  0  0  0  0  0
  192.5920  173.0410  145.0090 N   0  0  0  0  0  2  0  0  0  0  0  0
  193.2220  171.5310  141.6900 C   0  0  0  0  0  3  0  0  0  0  0  0
  193.9330  172.4480  141.0300 C   0  0  0  0  0  3  0  0  0  0  0  0
  195.5830  173.2590  143.6350 C   0  0  0  0  0  1  0  0  0  0  0  0
  191.6400  176.8200  148.0050 C   0  0  0  0  0  0  0  0  0  0  0  0
  192.4910  176.0640  147.3010 C   0  0  0  0  0  3  0  0  0  0  0  0
  188.5710  174.9930  147.1340 O   0  0  0  0  0  0  0  0  0  0  0  0
  189.7780  175.3380  147.2000 C   0  0  0  0  0  0  0  0  0  0  0  0
  192.0280  174.9090  146.5160 C   0  0  0  0  0  0  0  0  0  0  0  0
  190.7680  174.5930  146.4820 N   0  0  0  0  0  0  0  0  0  0  0  0
  192.9810  174.1430  145.7820 N   0  0  0  0  0  2  0  0  0  0  0  0
  190.1620  176.5280  148.0340 C   0  0  0  0  0  2  0  0  0  0  0  0
  192.1090  177.9110  148.7380 O   0  0  0  0  0  0  0  0  0  0  0  0
  191.5270  178.2850  149.8870 O   0  0  0  0  0  1  0  0  0  0  0  0
  188.2160  174.1610  138.5330 C   0  0  0  0  0  1  0  0  0  0  0  0
  189.0590  173.7940  139.7450 C   0  0  0  0  0  2  0  0  0  0  0  0
  187.3120  176.3940  144.6550 C   0  0  0  0  0  2  0  0  0  0  0  0
  186.0500  176.9000  144.3240 O   0  0  0  0  0  0  0  0  0  0  0  0
  186.7690  178.0300  146.5690 O   0  0  0  0  0  1  0  0  0  0  0  0
  185.8780  179.6390  144.7130 O   0  0  0  0  0  0  0  0  0  0  0  0
  184.1980  177.9420  146.1060 O   0  0  0  0  0  1  0  0  0  0  0  0
  185.7510  178.1240  145.4560 P   0  0  0  0  0  0  0  0  0  0  0  0
  2  4  1  0  0  0  0
  3 16  1  6  0  0  0
  4 11  1  0  0  0  0
  4  3  1  0  0  0  0
  4  1  1  0  0  0  0
  5  7  1  1  0  0  0
  5  3  1  0  0  0  0
  6  7  2  0  0  0  0
  7  9  1  0  0  0  0
  9  8  1  1  0  0  0
 10 15  1  0  0  0  0
 10 14  1  0  0  0  0
 11  8  1  0  0  0  0
 11 37  1  1  0  0  0
 12  5  1  0  0  0  0
 13  6  1  1  0  0  0
 13 17  1  0  0  0  0
 13 12  1  0  0  0  0
 14 11  1  0  0  0  0
 15 36  1  6  0  0  0
 15  9  1  0  0  0  0
 17 23  1  6  0  0  0
 17 19  1  0  0  0  0
 18 21  1  0  0  0  0
 19 24  1  6  0  0  0
 19 18  1  0  0  0  0
 20 18  2  0  0  0  0
 21 31  1  0  0  0  0
 22 20  1  0  0  0  0
 23 22  2  0  0  0  0
 25 32  1  0  0  0  0
 25 33  1  0  0  0  0
 26 25  2  0  0  0  0
 27 28  2  0  0  0  0
 28 32  1  0  0  0  0
 29 26  1  0  0  0  0
 30 29  2  0  0  0  0
 30 28  1  0  0  0  0
 31 29  1  0  0  0  0
 33 34  1  0  0  0  0
 35 36  1  0  0  0  0
 38 37  1  0  0  0  0
 38 42  1  0  0  0  0
 40 42  2  0  0  0  0
 42 41  1  0  0  0  0
 42 39  1  0  0  0  0
M  END
>  <MODEL>
4

>  <REMARK>
 VINA RESULT:      -7.5      3.206      5.494
  Name = 
  7 active torsions:
  status: ('A' for Active; 'I' for Inactive)
    1  A    between atoms: O_2  and  C_10
    2  A    between atoms: C_4  and  C_37
    3  A    between atoms: C_9  and  C_30
    4  A    between atoms: C_9  and  O_34
    5  A    between atoms: N_26  and  N_32
    6  A    between atoms: O_34  and  P_42
    7  A    between atoms: C_35  and  C_40
                            x       y       z     vdW  Elec       q    Type
                         _______ _______ _______ _____ _____    ______ ____

>  <TORSDO>
F 7

$$$$
=
 OpenBabel11062419383D

 42 46  0  0  1  0  0  0  0  0999 V2000
  187.8270  175.1480  143.4520 F   0  0  0  0  0  0  0  0  0  0  0  0
  188.7020  174.5800  145.4120 F   0  0  0  0  0  0  0  0  0  0  0  0
  190.1860  174.9600  143.6000 C   0  0  1  0  0  3  0  0  0  0  0  0
  188.8930  175.3970  144.3070 C   0  0  0  0  0  0  0  0  0  0  0  0
  191.3190  174.6950  144.5640 C   0  0  0  0  0  0  0  0  0  0  0  0
  192.9700  175.1260  146.1180 N   0  0  0  0  0  2  0  0  0  0  0  0
  191.8030  175.5700  145.4480 C   0  0  0  0  0  0  0  0  0  0  0  0
  190.3510  177.5230  144.6530 C   0  0  0  0  0  2  0  0  0  0  0  0
  191.2670  176.9580  145.7370 C   0  0  1  0  0  3  0  0  0  0  0  0
  189.2080  176.5940  147.2220 C   0  0  0  0  0  2  0  0  0  0  0  0
  188.9260  176.9240  144.7020 C   0  0  2  0  0  0  0  0  0  0  0  0
  192.2290  173.1510  144.5110 S   0  0  0  0  0  0  0  0  0  0  0  0
  193.4110  173.7910  145.7520 C   0  0  1  0  0  3  0  0  0  0  0  0
  188.3260  177.1540  146.1040 C   0  0  0  0  0  2  0  0  0  0  0  0
  190.6240  177.1550  147.1230 C   0  0  1  0  0  3  0  0  0  0  0  0
  189.9520  173.8440  142.8120 F   0  0  0  0  0  0  0  0  0  0  0  0
  194.8320  173.8340  145.1810 C   0  0  1  0  0  3  0  0  0  0  0  0
  194.4160  174.4920  142.7820 C   0  0  0  0  0  0  0  0  0  0  0  0
  194.8380  173.3780  143.7110 C   0  0  1  0  0  3  0  0  0  0  0  0
  194.6770  175.7310  143.0820 N   0  0  0  0  0  0  0  0  0  0  0  0
  193.7770  174.1930  141.5410 N   0  0  0  0  0  2  0  0  0  0  0  0
  195.2920  176.1050  144.3230 C   0  0  0  0  0  3  0  0  0  0  0  0
  195.4120  175.2210  145.3160 C   0  0  0  0  0  3  0  0  0  0  0  0
  196.2150  172.8670  143.3230 C   0  0  0  0  0  1  0  0  0  0  0  0
  190.8060  170.8010  139.5840 C   0  0  0  0  0  0  0  0  0  0  0  0
  191.9430  171.1560  140.1970 C   0  0  0  0  0  3  0  0  0  0  0  0
  189.3470  174.1660  139.3360 O   0  0  0  0  0  0  0  0  0  0  0  0
  190.1370  173.2220  139.5910 C   0  0  0  0  0  0  0  0  0  0  0  0
  192.2320  172.5590  140.5320 C   0  0  0  0  0  0  0  0  0  0  0  0
  191.3810  173.4980  140.2440 N   0  0  0  0  0  0  0  0  0  0  0  0
  193.4580  172.8760  141.1880 N   0  0  0  0  0  2  0  0  0  0  0  0
  189.7630  171.8190  139.2040 C   0  0  0  0  0  2  0  0  0  0  0  0
  190.5590  169.4620  139.2810 O   0  0  0  0  0  0  0  0  0  0  0  0
  190.9270  168.4750  140.1110 O   0  0  0  0  0  1  0  0  0  0  0  0
  191.5660  177.9160  149.3630 C   0  0  0  0  0  1  0  0  0  0  0  0
  191.5140  176.8100  148.3190 C   0  0  0  0  0  2  0  0  0  0  0  0
  188.0860  177.7300  143.7020 C   0  0  0  0  0  2  0  0  0  0  0  0
  187.0920  178.4760  144.3460 O   0  0  0  0  0  0  0  0  0  0  0  0
  185.2500  176.8370  143.4780 O   0  0  0  0  0  1  0  0  0  0  0  0
  184.4650  179.2790  143.9730 O   0  0  0  0  0  1  0  0  0  0  0  0
  186.0420  178.6660  141.7870 O   0  0  0  0  0  0  0  0  0  0  0  0
  185.7020  178.2770  143.3990 P   0  0  0  0  0  0  0  0  0  0  0  0
  1  4  1  0  0  0  0
  3 16  1  1  0  0  0
  3  4  1  0  0  0  0
  3  5  1  0  0  0  0
  4 11  1  0  0  0  0
  4  2  1  0  0  0  0
  5  7  2  0  0  0  0
  7  9  1  0  0  0  0
  7  6  1  0  0  0  0
  8 11  1  0  0  0  0
  9  8  1  6  0  0  0
  9 15  1  0  0  0  0
 11 37  1  6  0  0  0
 11 14  1  0  0  0  0
 12  5  1  0  0  0  0
 13 12  1  6  0  0  0
 13  6  1  0  0  0  0
 14 10  1  0  0  0  0
 15 10  1  0  0  0  0
 15 36  1  1  0  0  0
 17 23  1  6  0  0  0
 17 13  1  0  0  0  0
 18 20  2  0  0  0  0
 18 19  1  0  0  0  0
 19 24  1  6  0  0  0
 19 17  1  0  0  0  0
 20 22  1  0  0  0  0
 21 18  1  0  0  0  0
 22 23  2  0  0  0  0
 25 26  2  0  0  0  0
 26 29  1  0  0  0  0
 27 28  2  0  0  0  0
 28 30  1  0  0  0  0
 29 31  1  0  0  0  0
 30 29  2  0  0  0  0
 31 21  1  0  0  0  0
 32 25  1  0  0  0  0
 32 28  1  0  0  0  0
 33 25  1  0  0  0  0
 33 34  1  0  0  0  0
 36 35  1  0  0  0  0
 37 38  1  0  0  0  0
 41 42  2  0  0  0  0
 42 39  1  0  0  0  0
 42 40  1  0  0  0  0
 42 38  1  0  0  0  0
M  END
>  <MODEL>
5

>  <REMARK>
 VINA RESULT:      -7.4      2.262      3.461
  Name = 
  7 active torsions:
  status: ('A' for Active; 'I' for Inactive)
    1  A    between atoms: O_2  and  C_10
    2  A    between atoms: C_4  and  C_37
    3  A    between atoms: C_9  and  C_30
    4  A    between atoms: C_9  and  O_34
    5  A    between atoms: N_26  and  N_32
    6  A    between atoms: O_34  and  P_42
    7  A    between atoms: C_35  and  C_40
                            x       y       z     vdW  Elec       q    Type
                         _______ _______ _______ _____ _____    ______ ____

>  <TORSDO>
F 7

$$$$
=
 OpenBabel11062419383D

 42 46  0  0  1  0  0  0  0  0999 V2000
  190.2960  170.8600  138.9570 F   0  0  0  0  0  0  0  0  0  0  0  0
  190.5210  170.6450  141.1560 F   0  0  0  0  0  0  0  0  0  0  0  0
  191.9440  172.1790  140.0370 C   0  0  1  0  0  3  0  0  0  0  0  0
  190.5340  171.5740  140.1250 C   0  0  0  0  0  0  0  0  0  0  0  0
  192.5170  172.5280  141.3920 C   0  0  0  0  0  0  0  0  0  0  0  0
  192.7710  173.6280  143.4050 N   0  0  0  0  0  2  0  0  0  0  0  0
  191.9520  173.3440  142.2850 C   0  0  0  0  0  0  0  0  0  0  0  0
  190.0180  174.0440  140.7590 C   0  0  0  0  0  2  0  0  0  0  0  0
  190.5940  174.0070  142.1740 C   0  0  1  0  0  3  0  0  0  0  0  0
  188.8960  172.1790  142.7670 C   0  0  0  0  0  2  0  0  0  0  0  0
  189.4290  172.6840  140.3170 C   0  0  2  0  0  0  0  0  0  0  0  0
  194.1390  171.9400  141.8820 S   0  0  0  0  0  0  0  0  0  0  0  0
  194.0600  172.9570  143.4020 C   0  0  1  0  0  3  0  0  0  0  0  0
  188.3590  172.2390  141.3360 C   0  0  0  0  0  2  0  0  0  0  0  0
  189.5220  173.5130  143.1630 C   0  0  1  0  0  3  0  0  0  0  0  0
  192.7960  171.3220  139.3590 F   0  0  0  0  0  0  0  0  0  0  0  0
  195.1970  173.9840  143.4310 C   0  0  1  0  0  3  0  0  0  0  0  0
  194.2600  175.7650  144.9520 C   0  0  0  0  0  0  0  0  0  0  0  0
  194.6340  175.4130  143.5320 C   0  0  1  0  0  3  0  0  0  0  0  0
  194.9190  175.2520  145.9510 N   0  0  0  0  0  0  0  0  0  0  0  0
  193.2190  176.7060  145.2130 N   0  0  0  0  0  2  0  0  0  0  0  0
  195.9590  174.2810  145.7630 C   0  0  0  0  0  3  0  0  0  0  0  0
  196.1370  173.6950  144.5770 C   0  0  0  0  0  3  0  0  0  0  0  0
  195.6400  176.4150  142.9910 C   0  0  0  0  0  1  0  0  0  0  0  0
  188.9730  177.9990  143.1000 C   0  0  0  0  0  0  0  0  0  0  0  0
  190.3100  177.9170  143.0990 C   0  0  0  0  0  3  0  0  0  0  0  0
  188.4180  176.4470  146.3860 O   0  0  0  0  0  0  0  0  0  0  0  0
  188.9840  176.9080  145.3630 C   0  0  0  0  0  0  0  0  0  0  0  0
  191.0460  177.3290  144.2290 C   0  0  0  0  0  0  0  0  0  0  0  0
  190.4130  176.8680  145.2650 N   0  0  0  0  0  0  0  0  0  0  0  0
  192.4700  177.2650  144.1700 N   0  0  0  0  0  2  0  0  0  0  0  0
  188.1520  177.4980  144.2590 C   0  0  0  0  0  2  0  0  0  0  0  0
  188.3020  178.5590  142.0120 O   0  0  0  0  0  0  0  0  0  0  0  0
  186.9680  178.4850  141.8990 O   0  0  0  0  0  1  0  0  0  0  0  0
  189.6920  172.3010  145.3970 C   0  0  0  0  0  1  0  0  0  0  0  0
  189.8970  173.6070  144.6450 C   0  0  0  0  0  2  0  0  0  0  0  0
  188.7180  172.9360  138.9810 C   0  0  0  0  0  2  0  0  0  0  0  0
  189.0860  174.1660  138.4230 O   0  0  0  0  0  0  0  0  0  0  0  0
  189.3160  172.3790  136.5290 O   0  0  0  0  0  1  0  0  0  0  0  0
  189.0870  174.8600  135.7390 O   0  0  0  0  0  0  0  0  0  0  0  0
  191.4000  173.9080  136.9180 O   0  0  0  0  0  1  0  0  0  0  0  0
  189.7110  173.7910  136.8940 P   0  0  0  0  0  0  0  0  0  0  0  0
  1  4  1  0  0  0  0
  3 16  1  1  0  0  0
  3  4  1  0  0  0  0
  3  5  1  0  0  0  0
  4 11  1  0  0  0  0
  4  2  1  0  0  0  0
  5 12  1  0  0  0  0
  5  7  2  0  0  0  0
  7  6  1  0  0  0  0
  9  8  1  6  0  0  0
  9  7  1  0  0  0  0
  9 15  1  0  0  0  0
 10 15  1  0  0  0  0
 11 37  1  6  0  0  0
 11  8  1  0  0  0  0
 11 14  1  0  0  0  0
 13 12  1  6  0  0  0
 13  6  1  0  0  0  0
 13 17  1  0  0  0  0
 14 10  1  0  0  0  0
 15 36  1  1  0  0  0
 17 19  1  0  0  0  0
 17 23  1  1  0  0  0
 18 21  1  0  0  0  0
 18 20  2  0  0  0  0
 19 24  1  1  0  0  0
 19 18  1  0  0  0  0
 22 20  1  0  0  0  0
 23 22  2  0  0  0  0
 25 32  1  0  0  0  0
 26 25  2  0  0  0  0
 26 29  1  0  0  0  0
 28 27  2  0  0  0  0
 29 30  2  0  0  0  0
 30 28  1  0  0  0  0
 31 29  1  0  0  0  0
 31 21  1  0  0  0  0
 32 28  1  0  0  0  0
 33 25  1  0  0  0  0
 34 33  1  0  0  0  0
 36 35  1  0  0  0  0
 38 37  1  0  0  0  0
 39 42  1  0  0  0  0
 40 42  2  0  0  0  0
 42 41  1  0  0  0  0
 42 38  1  0  0  0  0
M  END
>  <MODEL>
6

>  <REMARK>
 VINA RESULT:      -7.2      3.859      7.261
  Name = 
  7 active torsions:
  status: ('A' for Active; 'I' for Inactive)
    1  A    between atoms: O_2  and  C_10
    2  A    between atoms: C_4  and  C_37
    3  A    between atoms: C_9  and  C_30
    4  A    between atoms: C_9  and  O_34
    5  A    between atoms: N_26  and  N_32
    6  A    between atoms: O_34  and  P_42
    7  A    between atoms: C_35  and  C_40
                            x       y       z     vdW  Elec       q    Type
                         _______ _______ _______ _____ _____    ______ ____

>  <TORSDO>
F 7

$$$$
=
 OpenBabel11062419383D

 42 46  0  0  1  0  0  0  0  0999 V2000
  194.8360  174.9710  146.4160 F   0  0  0  0  0  0  0  0  0  0  0  0
  193.9130  172.9540  146.5200 F   0  0  0  0  0  0  0  0  0  0  0  0
  193.0740  174.4800  144.9080 C   0  0  1  0  0  3  0  0  0  0  0  0
  194.3170  173.9450  145.6370 C   0  0  0  0  0  0  0  0  0  0  0  0
  192.1440  173.3790  144.4520 C   0  0  0  0  0  0  0  0  0  0  0  0
  191.3840  171.5600  143.2520 N   0  0  0  0  0  2  0  0  0  0  0  0
  192.4800  172.3610  143.6570 C   0  0  0  0  0  0  0  0  0  0  0  0
  194.8550  173.2040  143.2020 C   0  0  0  0  0  2  0  0  0  0  0  0
  193.8640  172.0440  143.1270 C   0  0  1  0  0  3  0  0  0  0  0  0
  195.0970  170.9270  145.0800 C   0  0  0  0  0  2  0  0  0  0  0  0
  195.4120  173.4250  144.6270 C   0  0  2  0  0  0  0  0  0  0  0  0
  190.3990  173.4200  144.8660 S   0  0  0  0  0  0  0  0  0  0  0  0
  190.1010  171.9630  143.7990 C   0  0  1  0  0  3  0  0  0  0  0  0
  196.0590  172.1160  145.1280 C   0  0  0  0  0  2  0  0  0  0  0  0
  194.5170  170.7610  143.6780 C   0  0  1  0  0  3  0  0  0  0  0  0
  192.3960  175.3850  145.7080 F   0  0  0  0  0  0  0  0  0  0  0  0
  189.1210  172.3040  142.6720 C   0  0  1  0  0  3  0  0  0  0  0  0
  189.8550  174.6290  142.0210 C   0  0  0  0  0  0  0  0  0  0  0  0
  188.7790  173.8060  142.6880 C   0  0  1  0  0  3  0  0  0  0  0  0
  190.5510  174.1280  141.0410 N   0  0  0  0  0  0  0  0  0  0  0  0
  190.0820  175.9800  142.4200 N   0  0  0  0  0  2  0  0  0  0  0  0
  190.3940  172.7700  140.6060 C   0  0  0  0  0  3  0  0  0  0  0  0
  189.6940  171.8990  141.3360 C   0  0  0  0  0  3  0  0  0  0  0  0
  187.4400  174.0490  142.0120 C   0  0  0  0  0  1  0  0  0  0  0  0
  186.3410  178.5760  144.2710 C   0  0  0  0  0  0  0  0  0  0  0  0
  187.4720  177.8730  144.4190 C   0  0  0  0  0  3  0  0  0  0  0  0
  186.0960  178.2910  140.6140 O   0  0  0  0  0  0  0  0  0  0  0  0
  186.5030  178.1710  141.7970 C   0  0  0  0  0  0  0  0  0  0  0  0
  188.1690  177.2850  143.2650 C   0  0  0  0  0  0  0  0  0  0  0  0
  187.7040  177.4370  142.0610 N   0  0  0  0  0  0  0  0  0  0  0  0
  189.3720  176.5510  143.4840 N   0  0  0  0  0  2  0  0  0  0  0  0
  185.7210  178.7990  142.9160 C   0  0  0  0  0  2  0  0  0  0  0  0
  185.7030  179.1240  145.3840 O   0  0  0  0  0  0  0  0  0  0  0  0
  184.3740  179.3010  145.4130 O   0  0  0  0  0  1  0  0  0  0  0  0
  193.4300  168.7470  144.7960 C   0  0  0  0  0  1  0  0  0  0  0  0
  193.7070  169.4750  143.4890 C   0  0  0  0  0  2  0  0  0  0  0  0
  196.5270  174.4700  144.4970 C   0  0  0  0  0  2  0  0  0  0  0  0
  196.8140  174.7560  143.1580 O   0  0  0  0  0  0  0  0  0  0  0  0
  197.9410  177.1150  143.1380 O   0  0  0  0  0  1  0  0  0  0  0  0
  195.9420  176.7900  141.4880 O   0  0  0  0  0  0  0  0  0  0  0  0
  195.5650  176.9920  144.2190 O   0  0  0  0  0  1  0  0  0  0  0  0
  196.6010  176.4300  143.0040 P   0  0  0  0  0  0  0  0  0  0  0  0
  3  4  1  0  0  0  0
  3 16  1  1  0  0  0
  4  1  1  0  0  0  0
  4  2  1  0  0  0  0
  5 12  1  0  0  0  0
  5  3  1  0  0  0  0
  6  7  1  0  0  0  0
  7  5  2  0  0  0  0
  8 11  1  0  0  0  0
  9  8  1  1  0  0  0
  9  7  1  0  0  0  0
  9 15  1  0  0  0  0
 10 14  1  0  0  0  0
 11 37  1  6  0  0  0
 11 14  1  0  0  0  0
 11  4  1  0  0  0  0
 13  6  1  6  0  0  0
 13 12  1  0  0  0  0
 15 36  1  1  0  0  0
 15 10  1  0  0  0  0
 17 23  1  6  0  0  0
 17 19  1  0  0  0  0
 17 13  1  0  0  0  0
 18 21  1  0  0  0  0
 18 19  1  0  0  0  0
 19 24  1  6  0  0  0
 20 18  2  0  0  0  0
 21 31  1  0  0  0  0
 22 20  1  0  0  0  0
 22 23  2  0  0  0  0
 25 26  2  0  0  0  0
 25 33  1  0  0  0  0
 27 28  2  0  0  0  0
 28 30  1  0  0  0  0
 28 32  1  0  0  0  0
 29 31  1  0  0  0  0
 29 26  1  0  0  0  0
 30 29  2  0  0  0  0
 32 25  1  0  0  0  0
 33 34  1  0  0  0  0
 36 35  1  0  0  0  0
 38 37  1  0  0  0  0
 40 42  2  0  0  0  0
 42 39  1  0  0  0  0
 42 38  1  0  0  0  0
 42 41  1  0  0  0  0
M  END
>  <MODEL>
7

>  <REMARK>
 VINA RESULT:      -7.2      3.749      8.060
  Name = 
  7 active torsions:
  status: ('A' for Active; 'I' for Inactive)
    1  A    between atoms: O_2  and  C_10
    2  A    between atoms: C_4  and  C_37
    3  A    between atoms: C_9  and  C_30
    4  A    between atoms: C_9  and  O_34
    5  A    between atoms: N_26  and  N_32
    6  A    between atoms: O_34  and  P_42
    7  A    between atoms: C_35  and  C_40
                            x       y       z     vdW  Elec       q    Type
                         _______ _______ _______ _____ _____    ______ ____

>  <TORSDO>
F 7

$$$$
=
 OpenBabel11062419383D

 42 46  0  0  1  0  0  0  0  0999 V2000
  197.9410  175.6550  142.1690 F   0  0  0  0  0  0  0  0  0  0  0  0
  197.1230  174.3300  143.7530 F   0  0  0  0  0  0  0  0  0  0  0  0
  195.8330  176.2120  143.1010 C   0  0  1  0  0  3  0  0  0  0  0  0
  196.7680  175.0810  142.6410 C   0  0  0  0  0  0  0  0  0  0  0  0
  194.7810  175.7410  144.0770 C   0  0  0  0  0  0  0  0  0  0  0  0
  192.9180  174.6300  144.8680 N   0  0  0  0  0  2  0  0  0  0  0  0
  193.8980  174.7650  143.8540 C   0  0  0  0  0  0  0  0  0  0  0  0
  194.5780  174.4000  141.4120 C   0  0  0  0  0  2  0  0  0  0  0  0
  193.8260  173.8710  142.6320 C   0  0  1  0  0  3  0  0  0  0  0  0
  195.6760  172.1250  142.9590 C   0  0  0  0  0  2  0  0  0  0  0  0
  196.1070  174.1930  141.5170 C   0  0  2  0  0  0  0  0  0  0  0  0
  194.5430  176.5780  145.6460 S   0  0  0  0  0  0  0  0  0  0  0  0
  193.0670  175.5490  145.9830 C   0  0  1  0  0  3  0  0  0  0  0  0
  196.4030  172.6950  141.7390 C   0  0  0  0  0  2  0  0  0  0  0  0
  194.1760  172.3890  142.8620 C   0  0  1  0  0  3  0  0  0  0  0  0
  196.5670  177.2530  143.6460 F   0  0  0  0  0  0  0  0  0  0  0  0
  191.8160  176.4210  146.1300 C   0  0  1  0  0  3  0  0  0  0  0  0
  190.0020  174.8850  145.2830 C   0  0  0  0  0  0  0  0  0  0  0  0
  190.8150  176.1250  144.9970 C   0  0  1  0  0  3  0  0  0  0  0  0
  189.7150  174.5570  146.5100 N   0  0  0  0  0  0  0  0  0  0  0  0
  189.4940  174.0920  144.2110 N   0  0  0  0  0  2  0  0  0  0  0  0
  190.2150  175.2930  147.6360 C   0  0  0  0  0  3  0  0  0  0  0  0
  191.1780  176.2040  147.4800 C   0  0  0  0  0  3  0  0  0  0  0  0
  189.8960  177.3160  144.7820 C   0  0  0  0  0  1  0  0  0  0  0  0
  190.9040  172.8530  139.6680 C   0  0  0  0  0  0  0  0  0  0  0  0
  190.5170  173.7620  140.5730 C   0  0  0  0  0  3  0  0  0  0  0  0
  190.7700  169.9180  141.8790 O   0  0  0  0  0  0  0  0  0  0  0  0
  190.6960  171.1000  141.4550 C   0  0  0  0  0  0  0  0  0  0  0  0
  190.1990  173.3830  141.9580 C   0  0  0  0  0  0  0  0  0  0  0  0
  190.2900  172.1460  142.3450 N   0  0  0  0  0  0  0  0  0  0  0  0
  189.7970  174.3960  142.8770 N   0  0  0  0  0  2  0  0  0  0  0  0
  191.0320  171.3940  140.0210 C   0  0  0  0  0  2  0  0  0  0  0  0
  191.2010  173.2420  138.3620 O   0  0  0  0  0  0  0  0  0  0  0  0
  190.2800  173.8180  137.5760 O   0  0  0  0  0  1  0  0  0  0  0  0
  194.1860  171.1940  145.1120 C   0  0  0  0  0  1  0  0  0  0  0  0
  193.3490  171.6740  143.9340 C   0  0  0  0  0  2  0  0  0  0  0  0
  196.6890  174.5800  140.1510 C   0  0  0  0  0  2  0  0  0  0  0  0
  195.8130  175.4000  139.4290 O   0  0  0  0  0  0  0  0  0  0  0  0
  197.2040  175.6040  137.2250 O   0  0  0  0  0  1  0  0  0  0  0  0
  196.1930  173.2470  137.7250 O   0  0  0  0  0  1  0  0  0  0  0  0
  194.6180  175.3750  136.9280 O   0  0  0  0  0  0  0  0  0  0  0  0
  195.9890  174.9250  137.8130 P   0  0  0  0  0  0  0  0  0  0  0  0
  1  4  1  0  0  0  0
  3 16  1  1  0  0  0
  3  5  1  0  0  0  0
  4  3  1  0  0  0  0
  4  2  1  0  0  0  0
  5 12  1  0  0  0  0
  7  5  2  0  0  0  0
  7  6  1  0  0  0  0
  8 11  1  0  0  0  0
  9  8  1  6  0  0  0
  9 15  1  0  0  0  0
  9  7  1  0  0  0  0
 11 37  1  6  0  0  0
 11 14  1  0  0  0  0
 11  4  1  0  0  0  0
 12 13  1  0  0  0  0
 13  6  1  6  0  0  0
 13 17  1  0  0  0  0
 14 10  1  0  0  0  0
 15 10  1  0  0  0  0
 15 36  1  1  0  0  0
 17 23  1  1  0  0  0
 18 20  2  0  0  0  0
 19 24  1  1  0  0  0
 19 18  1  0  0  0  0
 19 17  1  0  0  0  0
 20 22  1  0  0  0  0
 21 18  1  0  0  0  0
 23 22  2  0  0  0  0
 25 32  1  0  0  0  0
 25 26  2  0  0  0  0
 26 29  1  0  0  0  0
 28 27  2  0  0  0  0
 28 30  1  0  0  0  0
 29 30  2  0  0  0  0
 29 31  1  0  0  0  0
 31 21  1  0  0  0  0
 32 28  1  0  0  0  0
 33 25  1  0  0  0  0
 34 33  1  0  0  0  0
 36 35  1  0  0  0  0
 38 37  1  0  0  0  0
 39 42  1  0  0  0  0
 40 42  1  0  0  0  0
 41 42  2  0  0  0  0
 42 38  1  0  0  0  0
M  END
>  <MODEL>
8

>  <REMARK>
 VINA RESULT:      -7.1      4.858      7.560
  Name = 
  7 active torsions:
  status: ('A' for Active; 'I' for Inactive)
    1  A    between atoms: O_2  and  C_10
    2  A    between atoms: C_4  and  C_37
    3  A    between atoms: C_9  and  C_30
    4  A    between atoms: C_9  and  O_34
    5  A    between atoms: N_26  and  N_32
    6  A    between atoms: O_34  and  P_42
    7  A    between atoms: C_35  and  C_40
                            x       y       z     vdW  Elec       q    Type
                         _______ _______ _______ _____ _____    ______ ____

>  <TORSDO>
F 7

$$$$
=
 OpenBabel11062419383D

 42 46  0  0  1  0  0  0  0  0999 V2000
  188.6480  172.8940  139.7220 F   0  0  0  0  0  0  0  0  0  0  0  0
  190.1970  171.6120  140.6650 F   0  0  0  0  0  0  0  0  0  0  0  0
  190.8090  173.8170  140.0360 C   0  0  1  0  0  3  0  0  0  0  0  0
  189.7110  172.9110  140.6160 C   0  0  0  0  0  0  0  0  0  0  0  0
  192.1730  173.5300  140.6190 C   0  0  0  0  0  0  0  0  0  0  0  0
  193.8670  173.4130  142.1830 N   0  0  0  0  0  2  0  0  0  0  0  0
  192.4830  173.5630  141.9170 C   0  0  0  0  0  0  0  0  0  0  0  0
  190.1950  174.4270  142.6740 C   0  0  0  0  0  2  0  0  0  0  0  0
  191.5290  173.7980  143.0700 C   0  0  1  0  0  3  0  0  0  0  0  0
  190.3200  171.5630  143.4160 C   0  0  0  0  0  2  0  0  0  0  0  0
  189.2230  173.4110  142.0300 C   0  0  2  0  0  0  0  0  0  0  0  0
  193.5820  173.2240  139.5520 S   0  0  0  0  0  0  0  0  0  0  0  0
  194.6940  173.2150  141.0060 C   0  0  1  0  0  3  0  0  0  0  0  0
  189.0080  172.2300  142.9990 C   0  0  0  0  0  2  0  0  0  0  0  0
  191.2850  172.5910  143.9970 C   0  0  1  0  0  3  0  0  0  0  0  0
  190.8420  173.7120  138.6540 F   0  0  0  0  0  0  0  0  0  0  0  0
  195.7440  174.3260  140.8960 C   0  0  1  0  0  3  0  0  0  0  0  0
  195.7510  175.2760  143.2330 C   0  0  0  0  0  0  0  0  0  0  0  0
  195.3650  175.5190  141.7930 C   0  0  1  0  0  3  0  0  0  0  0  0
  196.7920  174.5480  143.5200 N   0  0  0  0  0  0  0  0  0  0  0  0
  195.0130  175.8880  144.2910 N   0  0  0  0  0  2  0  0  0  0  0  0
  197.5630  173.8830  142.5090 C   0  0  0  0  0  3  0  0  0  0  0  0
  197.1110  173.7960  141.2560 C   0  0  0  0  0  3  0  0  0  0  0  0
  196.0210  176.7910  141.2830 C   0  0  0  0  0  1  0  0  0  0  0  0
  190.4390  177.3890  145.2830 C   0  0  0  0  0  0  0  0  0  0  0  0
  191.5500  177.4160  144.5350 C   0  0  0  0  0  3  0  0  0  0  0  0
  191.6070  174.9260  147.7490 O   0  0  0  0  0  0  0  0  0  0  0  0
  191.5700  175.7030  146.7620 C   0  0  0  0  0  0  0  0  0  0  0  0
  192.7220  176.5910  144.8650 C   0  0  0  0  0  0  0  0  0  0  0  0
  192.7090  175.8050  145.8990 N   0  0  0  0  0  0  0  0  0  0  0  0
  193.8740  176.6600  144.0280 N   0  0  0  0  0  2  0  0  0  0  0  0
  190.3320  176.5150  146.5050 C   0  0  0  0  0  2  0  0  0  0  0  0
  189.3420  178.1800  144.9430 O   0  0  0  0  0  0  0  0  0  0  0  0
  188.0920  177.6940  144.9690 O   0  0  0  0  0  1  0  0  0  0  0  0
  192.7360  170.5150  144.2660 C   0  0  0  0  0  1  0  0  0  0  0  0
  192.5390  171.9800  144.6290 C   0  0  0  0  0  2  0  0  0  0  0  0
  187.8780  174.1360  141.8810 C   0  0  0  0  0  2  0  0  0  0  0  0
  187.8340  175.3060  142.6470 O   0  0  0  0  0  0  0  0  0  0  0  0
  187.4470  175.9770  140.1500 O   0  0  0  0  0  0  0  0  0  0  0  0
  185.9180  177.1670  141.9040 O   0  0  0  0  0  1  0  0  0  0  0  0
  188.6020  177.7770  141.6520 O   0  0  0  0  0  1  0  0  0  0  0  0
  187.4510  176.5410  141.5530 P   0  0  0  0  0  0  0  0  0  0  0  0
  1  4  1  0  0  0  0
  3 16  1  6  0  0  0
  3  4  1  0  0  0  0
  3  5  1  0  0  0  0
  4  2  1  0  0  0  0
  4 11  1  0  0  0  0
  5  7  2  0  0  0  0
  7  6  1  0  0  0  0
  7  9  1  0  0  0  0
  9  8  1  6  0  0  0
  9 15  1  0  0  0  0
 10 15  1  0  0  0  0
 11 37  1  6  0  0  0
 11  8  1  0  0  0  0
 11 14  1  0  0  0  0
 12  5  1  0  0  0  0
 13 12  1  6  0  0  0
 13  6  1  0  0  0  0
 14 10  1  0  0  0  0
 15 36  1  6  0  0  0
 17 13  1  0  0  0  0
 17 23  1  1  0  0  0
 17 19  1  0  0  0  0
 18 20  2  0  0  0  0
 18 21  1  0  0  0  0
 19 24  1  6  0  0  0
 19 18  1  0  0  0  0
 22 20  1  0  0  0  0
 23 22  2  0  0  0  0
 25 32  1  0  0  0  0
 26 29  1  0  0  0  0
 26 25  2  0  0  0  0
 28 27  2  0  0  0  0
 29 30  2  0  0  0  0
 30 28  1  0  0  0  0
 31 21  1  0  0  0  0
 31 29  1  0  0  0  0
 32 28  1  0  0  0  0
 33 34  1  0  0  0  0
 33 25  1  0  0  0  0
 35 36  1  0  0  0  0
 37 38  1  0  0  0  0
 39 42  2  0  0  0  0
 42 41  1  0  0  0  0
 42 40  1  0  0  0  0
 42 38  1  0  0  0  0
M  END
>  <MODEL>
9

>  <REMARK>
 VINA RESULT:      -7.1      3.797      6.260
  Name = 
  7 active torsions:
  status: ('A' for Active; 'I' for Inactive)
    1  A    between atoms: O_2  and  C_10
    2  A    between atoms: C_4  and  C_37
    3  A    between atoms: C_9  and  C_30
    4  A    between atoms: C_9  and  O_34
    5  A    between atoms: N_26  and  N_32
    6  A    between atoms: O_34  and  P_42
    7  A    between atoms: C_35  and  C_40
                            x       y       z     vdW  Elec       q    Type
                         _______ _______ _______ _____ _____    ______ ____

>  <TORSDO>
F 7

$$$$
