=
 OpenBabel11062419233D

 38 41  0  0  1  0  0  0  0  0999 V2000
  192.0930  173.8720  144.5480 C   0  0  2  0  0  3  0  0  0  0  0  0
  191.5850  175.0740  141.8760 O   0  0  0  0  0  0  0  0  0  0  0  0
  190.0860  175.3610  145.8780 C   0  0  2  0  0  3  0  0  0  0  0  0
  189.7260  174.2960  145.0080 O   0  0  0  0  0  0  0  0  0  0  0  0
  191.4310  175.0990  146.5800 C   0  0  0  0  0  2  0  0  0  0  0  0
  192.5270  174.9430  145.5410 C   0  0  0  0  0  2  0  0  0  0  0  0
  193.7760  174.6620  142.7850 C   0  0  0  0  0  2  0  0  0  0  0  0
  193.1600  173.4610  143.5160 C   0  0  1  0  0  3  0  0  0  0  0  0
  190.4580  176.5150  143.3230 O   0  0  0  0  0  1  0  0  0  0  0  0
  192.7400  175.7010  142.3720 C   0  0  0  0  0  2  0  0  0  0  0  0
  190.5260  175.2040  142.8140 C   0  0  2  0  0  0  0  0  0  0  0  0
  190.6870  174.1630  143.9710 C   0  0  1  0  0  3  0  0  0  0  0  0
  195.6590  173.1110  143.7770 C   0  0  0  0  0  2  0  0  0  0  0  0
  196.6510  173.0830  144.9550 C   0  0  1  0  0  0  0  0  0  0  0  0
  194.1040  171.1240  143.8650 C   0  0  0  0  0  2  0  0  0  0  0  0
  195.1850  170.2280  144.4730 C   0  0  0  0  0  2  0  0  0  0  0  0
  196.0990  173.8840  146.1280 C   0  0  0  0  0  1  0  0  0  0  0  0
  195.7800  170.7930  145.7600 C   0  0  2  0  0  3  0  0  0  0  0  0
  196.9950  171.6580  145.4210 C   0  0  0  0  0  2  0  0  0  0  0  0
  194.2640  172.6200  144.1730 C   0  0  2  0  0  3  0  0  0  0  0  0
  197.3970  169.3780  146.7830 O   0  0  0  0  0  0  0  0  0  0  0  0
  195.1950  168.9600  147.4140 N   0  0  0  0  0  1  0  0  0  0  0  0
  196.1770  169.6850  146.6760 C   0  0  0  0  0  0  0  0  0  0  0  0
  197.9410  173.7680  144.5170 C   0  0  0  0  0  2  0  0  0  0  0  0
  197.6780  174.9850  143.8780 O   0  0  0  0  0  1  0  0  0  0  0  0
  189.2000  174.9070  142.0720 C   0  0  1  0  0  3  0  0  0  0  0  0
  188.5050  176.1480  141.7440 N   0  0  0  0  0  1  0  0  0  0  0  0
  188.5490  174.4900  139.7660 O   0  0  0  0  0  1  0  0  0  0  0  0
  189.1270  172.5980  141.0740 C   0  0  0  0  0  1  0  0  0  0  0  0
  189.4050  174.0660  140.7930 C   0  0  2  0  0  3  0  0  0  0  0  0
  188.9650  175.6090  146.8950 C   0  0  2  0  0  3  0  0  0  0  0  0
  188.8650  174.5390  147.7860 O   0  0  0  0  0  1  0  0  0  0  0  0
  187.6240  175.9760  146.2220 C   0  0  2  0  0  3  0  0  0  0  0  0
  187.9780  178.1250  144.6620 O   0  0  0  0  0  0  0  0  0  0  0  0
  187.6490  177.3640  145.5580 C   0  0  0  0  0  0  0  0  0  0  0  0
  186.9420  177.0530  146.8860 C   0  0  1  0  0  3  0  0  0  0  0  0
  185.4490  176.9550  146.6500 C   0  0  0  0  0  2  0  0  0  0  0  0
  184.8000  178.2970  146.9320 C   0  0  0  0  0  1  0  0  0  0  0  0
  1  6  1  6  0  0  0
  2 10  1  0  0  0  0
  2 11  1  0  0  0  0
  3  5  1  0  0  0  0
  3 31  1  1  0  0  0
  4  3  1  0  0  0  0
  6  5  1  0  0  0  0
  8  7  1  1  0  0  0
  8 20  1  0  0  0  0
  8  1  1  0  0  0  0
 10  7  1  0  0  0  0
 11  9  1  1  0  0  0
 11 12  1  0  0  0  0
 12  1  1  0  0  0  0
 12  4  1  1  0  0  0
 13 14  1  0  0  0  0
 14 19  1  0  0  0  0
 14 17  1  1  0  0  0
 15 20  1  0  0  0  0
 15 16  1  0  0  0  0
 16 18  1  0  0  0  0
 18 23  1  1  0  0  0
 19 18  1  0  0  0  0
 20 13  1  6  0  0  0
 23 21  2  0  0  0  0
 23 22  1  0  0  0  0
 24 14  1  0  0  0  0
 25 24  1  0  0  0  0
 26 27  1  6  0  0  0
 26 11  1  0  0  0  0
 28 30  1  0  0  0  0
 30 29  1  1  0  0  0
 30 26  1  0  0  0  0
 31 32  1  6  0  0  0
 33 36  1  0  0  0  0
 33 31  1  1  0  0  0
 34 35  2  0  0  0  0
 35 33  1  0  0  0  0
 35 36  1  0  0  0  0
 36 37  1  6  0  0  0
 37 38  1  0  0  0  0
M  END
>  <MODEL>
1

>  <REMARK>
 VINA RESULT:      -7.4      0.000      0.000
  Name = 
  8 active torsions:
  status: ('A' for Active; 'I' for Inactive)
    1  A    between atoms: C_3  and  C_14
    2  A    between atoms: C_6  and  C_27
    3  A    between atoms: C_7  and  C_19
    4  A    between atoms: C_8  and  C_19
    5  A    between atoms: C_11  and  C_33
    6  A    between atoms: C_11  and  C_37
    7  A    between atoms: C_25  and  C_38
    8  A    between atoms: C_31  and  C_35
                            x       y       z     vdW  Elec       q    Type
                         _______ _______ _______ _____ _____    ______ ____

>  <TORSDO>
F 8

$$$$
=
 OpenBabel11062419233D

 38 41  0  0  1  0  0  0  0  0999 V2000
  192.1120  174.0800  144.8230 C   0  0  2  0  0  3  0  0  0  0  0  0
  192.0930  175.6620  142.3050 O   0  0  0  0  0  0  0  0  0  0  0  0
  190.2470  175.7310  146.1700 C   0  0  2  0  0  3  0  0  0  0  0  0
  189.8110  174.8560  145.1370 O   0  0  0  0  0  0  0  0  0  0  0  0
  191.4480  175.1540  146.9400 C   0  0  0  0  0  2  0  0  0  0  0  0
  192.6080  174.9330  145.9860 C   0  0  0  0  0  2  0  0  0  0  0  0
  194.0780  174.7650  143.3310 C   0  0  0  0  0  2  0  0  0  0  0  0
  193.2000  173.6130  143.8400 C   0  0  1  0  0  3  0  0  0  0  0  0
  191.0710  177.0960  143.8330 O   0  0  0  0  0  1  0  0  0  0  0  0
  193.2770  176.0120  142.9770 C   0  0  0  0  0  2  0  0  0  0  0  0
  190.9770  175.8640  143.1600 C   0  0  2  0  0  0  0  0  0  0  0  0
  190.8420  174.6800  144.1750 C   0  0  1  0  0  3  0  0  0  0  0  0
  195.4940  172.5300  143.8900 C   0  0  0  0  0  2  0  0  0  0  0  0
  196.5690  172.2780  144.9640 C   0  0  1  0  0  0  0  0  0  0  0  0
  193.4410  171.1270  144.3280 C   0  0  0  0  0  2  0  0  0  0  0  0
  194.2720  169.9850  144.9160 C   0  0  0  0  0  2  0  0  0  0  0  0
  196.4300  173.2850  146.0970 C   0  0  0  0  0  1  0  0  0  0  0  0
  195.1620  170.4240  146.0750 C   0  0  2  0  0  3  0  0  0  0  0  0
  196.5280  170.8500  145.5340 C   0  0  0  0  0  2  0  0  0  0  0  0
  194.0760  172.5190  144.4670 C   0  0  2  0  0  3  0  0  0  0  0  0
  194.3270  168.5810  147.3290 O   0  0  0  0  0  0  0  0  0  0  0  0
  196.5710  169.0760  147.6980 N   0  0  0  0  0  1  0  0  0  0  0  0
  195.3210  169.3110  147.0550 C   0  0  0  0  0  0  0  0  0  0  0  0
  197.9410  172.5020  144.3360 C   0  0  0  0  0  2  0  0  0  0  0  0
  197.8350  173.1670  143.1080 O   0  0  0  0  0  1  0  0  0  0  0  0
  189.7060  175.8940  142.2750 C   0  0  1  0  0  3  0  0  0  0  0  0
  189.1950  174.5440  142.0650 N   0  0  0  0  0  1  0  0  0  0  0  0
  187.4310  176.0510  143.1190 O   0  0  0  0  0  1  0  0  0  0  0  0
  188.2430  177.9030  141.8800 C   0  0  0  0  0  1  0  0  0  0  0  0
  188.5920  176.7920  142.8580 C   0  0  2  0  0  3  0  0  0  0  0  0
  189.0800  176.0500  147.1130 C   0  0  2  0  0  3  0  0  0  0  0  0
  188.5180  174.8740  147.6140 O   0  0  0  0  0  1  0  0  0  0  0  0
  188.0450  177.0030  146.4740 C   0  0  2  0  0  3  0  0  0  0  0  0
  187.3680  178.8900  148.2510 O   0  0  0  0  0  0  0  0  0  0  0  0
  187.3680  177.9250  147.5030 C   0  0  0  0  0  0  0  0  0  0  0  0
  186.6940  176.7010  146.8640 C   0  0  1  0  0  3  0  0  0  0  0  0
  185.7240  177.1620  145.7960 C   0  0  0  0  0  2  0  0  0  0  0  0
  184.4620  177.6940  146.4500 C   0  0  0  0  0  1  0  0  0  0  0  0
  1  6  1  1  0  0  0
  2 10  1  0  0  0  0
  2 11  1  0  0  0  0
  3  5  1  0  0  0  0
  3 31  1  1  0  0  0
  4  3  1  0  0  0  0
  6  5  1  0  0  0  0
  8  7  1  1  0  0  0
  8 20  1  0  0  0  0
  8  1  1  0  0  0  0
 10  7  1  0  0  0  0
 11  9  1  1  0  0  0
 11 12  1  0  0  0  0
 12  1  1  0  0  0  0
 12  4  1  1  0  0  0
 13 14  1  0  0  0  0
 14 19  1  0  0  0  0
 14 17  1  1  0  0  0
 15 20  1  0  0  0  0
 15 16  1  0  0  0  0
 16 18  1  0  0  0  0
 18 23  1  1  0  0  0
 19 18  1  0  0  0  0
 20 13  1  6  0  0  0
 23 21  2  0  0  0  0
 23 22  1  0  0  0  0
 24 14  1  0  0  0  0
 25 24  1  0  0  0  0
 26 27  1  1  0  0  0
 26 30  1  0  0  0  0
 26 11  1  0  0  0  0
 30 29  1  6  0  0  0
 30 28  1  0  0  0  0
 31 32  1  6  0  0  0
 33 36  1  0  0  0  0
 33 31  1  1  0  0  0
 33 35  1  0  0  0  0
 35 34  2  0  0  0  0
 36 37  1  6  0  0  0
 36 35  1  0  0  0  0
 37 38  1  0  0  0  0
M  END
>  <MODEL>
2

>  <REMARK>
 VINA RESULT:      -7.4      1.434      1.716
  Name = 
  8 active torsions:
  status: ('A' for Active; 'I' for Inactive)
    1  A    between atoms: C_3  and  C_14
    2  A    between atoms: C_6  and  C_27
    3  A    between atoms: C_7  and  C_19
    4  A    between atoms: C_8  and  C_19
    5  A    between atoms: C_11  and  C_33
    6  A    between atoms: C_11  and  C_37
    7  A    between atoms: C_25  and  C_38
    8  A    between atoms: C_31  and  C_35
                            x       y       z     vdW  Elec       q    Type
                         _______ _______ _______ _____ _____    ______ ____

>  <TORSDO>
F 8

$$$$
=
 OpenBabel11062419233D

 38 41  0  0  1  0  0  0  0  0999 V2000
  190.5020  175.0100  142.5950 C   0  0  2  0  0  3  0  0  0  0  0  0
  189.9680  173.0640  140.4100 O   0  0  0  0  0  0  0  0  0  0  0  0
  193.1810  174.1930  143.0090 C   0  0  2  0  0  3  0  0  0  0  0  0
  192.8350  174.9510  141.8570 O   0  0  0  0  0  0  0  0  0  0  0  0
  192.2990  174.5550  144.2180 C   0  0  0  0  0  2  0  0  0  0  0  0
  190.8430  174.2800  143.8890 C   0  0  0  0  0  2  0  0  0  0  0  0
  188.4260  173.5640  142.1910 C   0  0  0  0  0  2  0  0  0  0  0  0
  189.0150  174.9820  142.1960 C   0  0  1  0  0  3  0  0  0  0  0  0
  191.9380  172.2580  141.3620 O   0  0  0  0  0  1  0  0  0  0  0  0
  189.3590  172.5360  141.5610 C   0  0  0  0  0  2  0  0  0  0  0  0
  191.3400  173.3270  140.6700 C   0  0  2  0  0  0  0  0  0  0  0  0
  191.5000  174.6670  141.4640 C   0  0  1  0  0  3  0  0  0  0  0  0
  188.4340  175.5940  144.5890 C   0  0  0  0  0  2  0  0  0  0  0  0
  188.5030  176.8710  145.4470 C   0  0  1  0  0  0  0  0  0  0  0  0
  186.6850  175.8200  142.7820 C   0  0  0  0  0  2  0  0  0  0  0  0
  185.7940  176.6920  143.6690 C   0  0  0  0  0  2  0  0  0  0  0  0
  189.5570  177.8220  144.8950 C   0  0  0  0  0  1  0  0  0  0  0  0
  186.5070  177.9300  144.2050 C   0  0  2  0  0  3  0  0  0  0  0  0
  187.1540  177.6020  145.5510 C   0  0  0  0  0  2  0  0  0  0  0  0
  188.1840  175.8950  143.1090 C   0  0  2  0  0  3  0  0  0  0  0  0
  185.8090  180.1760  143.8380 O   0  0  0  0  0  0  0  0  0  0  0  0
  184.3350  178.8890  145.0990 N   0  0  0  0  0  1  0  0  0  0  0  0
  185.5420  179.0570  144.3580 C   0  0  0  0  0  0  0  0  0  0  0  0
  188.9470  176.4840  146.8550 C   0  0  0  0  0  2  0  0  0  0  0  0
  188.5440  175.1820  147.1740 O   0  0  0  0  0  1  0  0  0  0  0  0
  192.0570  173.4800  139.3060 C   0  0  1  0  0  3  0  0  0  0  0  0
  193.3240  172.7560  139.3080 N   0  0  0  0  0  1  0  0  0  0  0  0
  191.7480  171.8920  137.4910 O   0  0  0  0  0  1  0  0  0  0  0  0
  191.0620  174.1260  137.0870 C   0  0  0  0  0  1  0  0  0  0  0  0
  191.1880  173.0150  138.1180 C   0  0  2  0  0  3  0  0  0  0  0  0
  194.6700  174.3750  143.3290 C   0  0  2  0  0  3  0  0  0  0  0  0
  195.4580  173.6910  142.4000 O   0  0  0  0  0  1  0  0  0  0  0  0
  195.0080  174.0290  144.7960 C   0  0  2  0  0  3  0  0  0  0  0  0
  194.8380  176.2470  146.2880 O   0  0  0  0  0  0  0  0  0  0  0  0
  195.2400  175.2770  145.6660 C   0  0  0  0  0  0  0  0  0  0  0  0
  196.3610  174.3620  145.1500 C   0  0  1  0  0  3  0  0  0  0  0  0
  196.8430  173.4730  146.2780 C   0  0  0  0  0  2  0  0  0  0  0  0
  196.8300  172.0240  145.8250 C   0  0  0  0  0  1  0  0  0  0  0  0
  1  6  1  1  0  0  0
  2 11  1  0  0  0  0
  2 10  1  0  0  0  0
  3 31  1  1  0  0  0
  3  5  1  0  0  0  0
  4  3  1  0  0  0  0
  6  5  1  0  0  0  0
  8  7  1  1  0  0  0
  8  1  1  0  0  0  0
  8 20  1  0  0  0  0
 10  7  1  0  0  0  0
 11  9  1  1  0  0  0
 11 12  1  0  0  0  0
 12  4  1  1  0  0  0
 12  1  1  0  0  0  0
 13 14  1  0  0  0  0
 14 17  1  6  0  0  0
 14 19  1  0  0  0  0
 14 24  1  0  0  0  0
 15 16  1  0  0  0  0
 16 18  1  0  0  0  0
 18 23  1  1  0  0  0
 18 19  1  0  0  0  0
 20 15  1  6  0  0  0
 20 13  1  0  0  0  0
 21 23  2  0  0  0  0
 23 22  1  0  0  0  0
 24 25  1  0  0  0  0
 26 27  1  1  0  0  0
 26 11  1  0  0  0  0
 28 30  1  0  0  0  0
 30 29  1  6  0  0  0
 30 26  1  0  0  0  0
 31 32  1  6  0  0  0
 33 31  1  6  0  0  0
 33 36  1  0  0  0  0
 33 35  1  0  0  0  0
 35 34  2  0  0  0  0
 36 35  1  0  0  0  0
 36 37  1  1  0  0  0
 38 37  1  0  0  0  0
M  END
>  <MODEL>
3

>  <REMARK>
 VINA RESULT:      -7.0      2.716      8.308
  Name = 
  8 active torsions:
  status: ('A' for Active; 'I' for Inactive)
    1  A    between atoms: C_3  and  C_14
    2  A    between atoms: C_6  and  C_27
    3  A    between atoms: C_7  and  C_19
    4  A    between atoms: C_8  and  C_19
    5  A    between atoms: C_11  and  C_33
    6  A    between atoms: C_11  and  C_37
    7  A    between atoms: C_25  and  C_38
    8  A    between atoms: C_31  and  C_35
                            x       y       z     vdW  Elec       q    Type
                         _______ _______ _______ _____ _____    ______ ____

>  <TORSDO>
F 8

$$$$
=
 OpenBabel11062419233D

 38 41  0  0  1  0  0  0  0  0999 V2000
  190.1100  176.6050  144.5040 C   0  0  2  0  0  3  0  0  0  0  0  0
  188.7450  175.5680  146.9350 O   0  0  0  0  0  0  0  0  0  0  0  0
  187.7340  177.4870  143.2410 C   0  0  2  0  0  3  0  0  0  0  0  0
  188.2630  178.2040  144.3480 O   0  0  0  0  0  0  0  0  0  0  0  0
  188.8450  176.8290  142.4010 C   0  0  0  0  0  2  0  0  0  0  0  0
  189.6310  175.8590  143.2640 C   0  0  0  0  0  2  0  0  0  0  0  0
  190.5320  174.4300  145.7900 C   0  0  0  0  0  2  0  0  0  0  0  0
  191.0700  175.8180  145.4150 C   0  0  1  0  0  3  0  0  0  0  0  0
  186.9880  175.8580  145.4290 O   0  0  0  0  0  1  0  0  0  0  0  0
  189.0510  174.4430  146.1500 C   0  0  0  0  0  2  0  0  0  0  0  0
  187.9980  176.5020  146.1680 C   0  0  2  0  0  0  0  0  0  0  0  0
  188.9440  177.3200  145.2270 C   0  0  1  0  0  3  0  0  0  0  0  0
  193.0350  174.2830  144.9470 C   0  0  0  0  0  2  0  0  0  0  0  0
  193.7660  173.7830  143.6860 C   0  0  1  0  0  0  0  0  0  0  0  0
  193.4340  176.7510  145.2980 C   0  0  0  0  0  2  0  0  0  0  0  0
  194.8450  176.6680  144.7100 C   0  0  0  0  0  2  0  0  0  0  0  0
  192.8410  173.8490  142.4780 C   0  0  0  0  0  1  0  0  0  0  0  0
  194.8760  176.0790  143.3030 C   0  0  2  0  0  3  0  0  0  0  0  0
  195.0590  174.5620  143.3900 C   0  0  0  0  0  2  0  0  0  0  0  0
  192.4580  175.6900  144.7700 C   0  0  2  0  0  3  0  0  0  0  0  0
  195.8560  176.8200  141.2640 O   0  0  0  0  0  0  0  0  0  0  0  0
  197.1950  177.0970  143.1480 N   0  0  0  0  0  1  0  0  0  0  0  0
  195.9860  176.6860  142.5130 C   0  0  0  0  0  0  0  0  0  0  0  0
  194.1290  172.3150  143.8890 C   0  0  0  0  0  2  0  0  0  0  0  0
  193.2960  171.7120  144.8390 O   0  0  0  0  0  1  0  0  0  0  0  0
  187.3210  177.4860  147.1540 C   0  0  1  0  0  3  0  0  0  0  0  0
  188.2990  178.4230  147.6960 N   0  0  0  0  0  1  0  0  0  0  0  0
  185.9460  179.4910  147.1580 O   0  0  0  0  0  1  0  0  0  0  0  0
  184.8650  177.4530  146.6090 C   0  0  0  0  0  1  0  0  0  0  0  0
  186.1490  178.2620  146.5150 C   0  0  2  0  0  3  0  0  0  0  0  0
  186.8600  178.4120  142.3850 C   0  0  2  0  0  3  0  0  0  0  0  0
  186.3480  179.4560  143.1590 O   0  0  0  0  0  1  0  0  0  0  0  0
  185.7790  177.6430  141.5950 C   0  0  2  0  0  3  0  0  0  0  0  0
  186.6930  177.1150  139.1330 O   0  0  0  0  0  0  0  0  0  0  0  0
  186.0820  177.5660  140.0880 C   0  0  0  0  0  0  0  0  0  0  0  0
  185.0250  178.4910  140.7110 C   0  0  1  0  0  3  0  0  0  0  0  0
  183.6460  177.9090  140.4750 C   0  0  0  0  0  2  0  0  0  0  0  0
  182.7310  178.2860  141.6250 C   0  0  0  0  0  1  0  0  0  0  0  0
  1  6  1  6  0  0  0
  1 12  1  0  0  0  0
  1  8  1  0  0  0  0
  3 31  1  6  0  0  0
  3  4  1  0  0  0  0
  5  3  1  0  0  0  0
  5  6  1  0  0  0  0
  7 10  1  0  0  0  0
  8  7  1  6  0  0  0
 10  2  1  0  0  0  0
 11  9  1  6  0  0  0
 11  2  1  0  0  0  0
 11 26  1  0  0  0  0
 12  4  1  6  0  0  0
 12 11  1  0  0  0  0
 14 17  1  6  0  0  0
 14 24  1  0  0  0  0
 14 13  1  0  0  0  0
 16 15  1  0  0  0  0
 18 23  1  6  0  0  0
 18 19  1  0  0  0  0
 18 16  1  0  0  0  0
 19 14  1  0  0  0  0
 20 13  1  1  0  0  0
 20 15  1  0  0  0  0
 20  8  1  0  0  0  0
 21 23  2  0  0  0  0
 23 22  1  0  0  0  0
 24 25  1  0  0  0  0
 26 27  1  6  0  0  0
 30 29  1  1  0  0  0
 30 26  1  0  0  0  0
 30 28  1  0  0  0  0
 31 32  1  1  0  0  0
 33 31  1  1  0  0  0
 34 35  2  0  0  0  0
 35 36  1  0  0  0  0
 35 33  1  0  0  0  0
 36 37  1  6  0  0  0
 36 33  1  0  0  0  0
 37 38  1  0  0  0  0
M  END
>  <MODEL>
4

>  <REMARK>
 VINA RESULT:      -6.9      3.261      5.855
  Name = 
  8 active torsions:
  status: ('A' for Active; 'I' for Inactive)
    1  A    between atoms: C_3  and  C_14
    2  A    between atoms: C_6  and  C_27
    3  A    between atoms: C_7  and  C_19
    4  A    between atoms: C_8  and  C_19
    5  A    between atoms: C_11  and  C_33
    6  A    between atoms: C_11  and  C_37
    7  A    between atoms: C_25  and  C_38
    8  A    between atoms: C_31  and  C_35
                            x       y       z     vdW  Elec       q    Type
                         _______ _______ _______ _____ _____    ______ ____

>  <TORSDO>
F 8

$$$$
=
 OpenBabel11062419233D

 38 41  0  0  1  0  0  0  0  0999 V2000
  190.9930  175.2640  143.6370 C   0  0  2  0  0  3  0  0  0  0  0  0
  191.0010  172.3170  143.2430 O   0  0  0  0  0  0  0  0  0  0  0  0
  193.7880  175.5690  143.3080 C   0  0  2  0  0  3  0  0  0  0  0  0
  192.9620  175.3010  142.1830 O   0  0  0  0  0  0  0  0  0  0  0  0
  193.0520  176.4000  144.3750 C   0  0  0  0  0  2  0  0  0  0  0  0
  191.8270  175.6430  144.8550 C   0  0  0  0  0  2  0  0  0  0  0  0
  189.7160  173.4580  144.9290 C   0  0  0  0  0  2  0  0  0  0  0  0
  189.6220  174.6360  143.9480 C   0  0  1  0  0  3  0  0  0  0  0  0
  193.2540  172.8060  143.5940 O   0  0  0  0  0  1  0  0  0  0  0  0
  190.8820  172.5250  144.6280 C   0  0  0  0  0  2  0  0  0  0  0  0
  192.1450  173.0000  142.7500 C   0  0  2  0  0  0  0  0  0  0  0  0
  191.8380  174.5250  142.5720 C   0  0  1  0  0  3  0  0  0  0  0  0
  188.5640  176.9080  143.5570 C   0  0  0  0  0  2  0  0  0  0  0  0
  187.1270  177.4430  143.4050 C   0  0  1  0  0  0  0  0  0  0  0  0
  188.9830  176.1150  145.9170 C   0  0  0  0  0  2  0  0  0  0  0  0
  188.0550  177.1810  146.5040 C   0  0  0  0  0  2  0  0  0  0  0  0
  186.1990  176.3330  142.9300 C   0  0  0  0  0  1  0  0  0  0  0  0
  186.6460  177.1390  145.9200 C   0  0  2  0  0  3  0  0  0  0  0  0
  186.5730  178.0590  144.7010 C   0  0  0  0  0  2  0  0  0  0  0  0
  188.6420  175.6900  144.4810 C   0  0  2  0  0  3  0  0  0  0  0  0
  185.9870  177.5940  148.1620 O   0  0  0  0  0  0  0  0  0  0  0  0
  184.3190  177.9140  146.5700 N   0  0  0  0  0  1  0  0  0  0  0  0
  185.6490  177.5630  146.9450 C   0  0  0  0  0  0  0  0  0  0  0  0
  187.1240  178.5190  142.3240 C   0  0  0  0  0  2  0  0  0  0  0  0
  185.9110  178.5330  141.6250 O   0  0  0  0  0  1  0  0  0  0  0  0
  192.4860  172.4070  141.3610 C   0  0  1  0  0  3  0  0  0  0  0  0
  192.7160  170.9690  141.4600 N   0  0  0  0  0  1  0  0  0  0  0  0
  190.7050  171.5240  139.9620 O   0  0  0  0  0  1  0  0  0  0  0  0
  192.0240  173.2670  139.0420 C   0  0  0  0  0  1  0  0  0  0  0  0
  191.3980  172.6940  140.3040 C   0  0  2  0  0  3  0  0  0  0  0  0
  195.0810  176.2600  142.8560 C   0  0  2  0  0  3  0  0  0  0  0  0
  195.0670  176.4730  141.4760 O   0  0  0  0  0  1  0  0  0  0  0  0
  196.3480  175.5300  143.3530 C   0  0  2  0  0  3  0  0  0  0  0  0
  196.7220  173.3170  141.8910 O   0  0  0  0  0  0  0  0  0  0  0  0
  196.4740  174.1030  142.7910 C   0  0  0  0  0  0  0  0  0  0  0  0
  196.0510  174.4320  144.2310 C   0  0  1  0  0  3  0  0  0  0  0  0
  197.2140  174.1770  145.1680 C   0  0  0  0  0  2  0  0  0  0  0  0
  196.8860  173.0120  146.0820 C   0  0  0  0  0  1  0  0  0  0  0  0
  1  8  1  0  0  0  0
  1  6  1  1  0  0  0
  2 10  1  0  0  0  0
  3 31  1  6  0  0  0
  3  5  1  0  0  0  0
  4  3  1  0  0  0  0
  5  6  1  0  0  0  0
  8 20  1  0  0  0  0
  8  7  1  1  0  0  0
 10  7  1  0  0  0  0
 11  2  1  0  0  0  0
 11  9  1  1  0  0  0
 12  4  1  1  0  0  0
 12 11  1  0  0  0  0
 12  1  1  0  0  0  0
 14 17  1  6  0  0  0
 14 13  1  0  0  0  0
 14 19  1  0  0  0  0
 15 16  1  0  0  0  0
 18 16  1  0  0  0  0
 18 23  1  1  0  0  0
 19 18  1  0  0  0  0
 20 13  1  6  0  0  0
 20 15  1  0  0  0  0
 22 23  1  0  0  0  0
 23 21  2  0  0  0  0
 24 14  1  0  0  0  0
 25 24  1  0  0  0  0
 26 27  1  1  0  0  0
 26 11  1  0  0  0  0
 28 30  1  0  0  0  0
 30 29  1  6  0  0  0
 30 26  1  0  0  0  0
 31 32  1  6  0  0  0
 33 31  1  6  0  0  0
 33 36  1  0  0  0  0
 34 35  2  0  0  0  0
 35 33  1  0  0  0  0
 35 36  1  0  0  0  0
 36 37  1  1  0  0  0
 37 38  1  0  0  0  0
M  END
>  <MODEL>
5

>  <REMARK>
 VINA RESULT:      -6.9      2.787      8.473
  Name = 
  8 active torsions:
  status: ('A' for Active; 'I' for Inactive)
    1  A    between atoms: C_3  and  C_14
    2  A    between atoms: C_6  and  C_27
    3  A    between atoms: C_7  and  C_19
    4  A    between atoms: C_8  and  C_19
    5  A    between atoms: C_11  and  C_33
    6  A    between atoms: C_11  and  C_37
    7  A    between atoms: C_25  and  C_38
    8  A    between atoms: C_31  and  C_35
                            x       y       z     vdW  Elec       q    Type
                         _______ _______ _______ _____ _____    ______ ____

>  <TORSDO>
F 8

$$$$
=
 OpenBabel11062419233D

 38 41  0  0  1  0  0  0  0  0999 V2000
  190.8880  175.1280  143.4080 C   0  0  2  0  0  3  0  0  0  0  0  0
  190.8270  172.1580  143.2720 O   0  0  0  0  0  0  0  0  0  0  0  0
  193.6560  175.3470  142.8560 C   0  0  2  0  0  3  0  0  0  0  0  0
  192.7470  175.0000  141.8200 O   0  0  0  0  0  0  0  0  0  0  0  0
  193.0110  176.2800  143.8970 C   0  0  0  0  0  2  0  0  0  0  0  0
  191.8140  175.5930  144.5270 C   0  0  0  0  0  2  0  0  0  0  0  0
  189.6830  173.4650  144.9390 C   0  0  0  0  0  2  0  0  0  0  0  0
  189.5350  174.5560  143.8690 C   0  0  1  0  0  3  0  0  0  0  0  0
  193.1060  172.6300  143.4190 O   0  0  0  0  0  1  0  0  0  0  0  0
  190.8120  172.4860  144.6390 C   0  0  0  0  0  2  0  0  0  0  0  0
  191.9410  172.7740  142.6420 C   0  0  2  0  0  0  0  0  0  0  0  0
  191.6430  174.2840  142.3550 C   0  0  1  0  0  3  0  0  0  0  0  0
  188.6220  176.8840  143.4420 C   0  0  0  0  0  2  0  0  0  0  0  0
  187.2220  177.5030  143.2620 C   0  0  1  0  0  0  0  0  0  0  0  0
  188.9530  176.0880  145.8160 C   0  0  0  0  0  2  0  0  0  0  0  0
  188.0810  177.2130  146.3790 C   0  0  0  0  0  2  0  0  0  0  0  0
  186.2370  176.4460  142.7790 C   0  0  0  0  0  1  0  0  0  0  0  0
  186.6820  177.2500  145.7710 C   0  0  2  0  0  3  0  0  0  0  0  0
  186.6850  178.1630  144.5430 C   0  0  0  0  0  2  0  0  0  0  0  0
  188.6110  175.6720  144.3770 C   0  0  2  0  0  3  0  0  0  0  0  0
  185.9210  177.5620  148.0050 O   0  0  0  0  0  0  0  0  0  0  0  0
  184.4960  178.3930  146.3630 N   0  0  0  0  0  1  0  0  0  0  0  0
  185.6950  177.7420  146.7750 C   0  0  0  0  0  0  0  0  0  0  0  0
  187.3010  178.5680  142.1730 C   0  0  0  0  0  2  0  0  0  0  0  0
  186.4380  178.2730  141.1100 O   0  0  0  0  0  1  0  0  0  0  0  0
  192.1720  172.0570  141.2890 C   0  0  1  0  0  3  0  0  0  0  0  0
  192.0820  170.6090  141.4530 N   0  0  0  0  0  1  0  0  0  0  0  0
  190.1940  171.5660  139.9640 O   0  0  0  0  0  1  0  0  0  0  0  0
  191.9370  172.7570  138.8830 C   0  0  0  0  0  1  0  0  0  0  0  0
  191.1930  172.5230  140.1890 C   0  0  2  0  0  3  0  0  0  0  0  0
  194.9230  175.9700  142.2550 C   0  0  2  0  0  3  0  0  0  0  0  0
  194.6040  176.7520  141.1430 O   0  0  0  0  0  1  0  0  0  0  0  0
  196.0240  174.9240  141.9760 C   0  0  2  0  0  3  0  0  0  0  0  0
  197.8380  175.0070  143.9450 O   0  0  0  0  0  0  0  0  0  0  0  0
  197.2600  175.1040  142.8750 C   0  0  0  0  0  0  0  0  0  0  0  0
  197.2040  175.5000  141.3910 C   0  0  1  0  0  3  0  0  0  0  0  0
  197.9410  174.4630  140.5670 C   0  0  0  0  0  2  0  0  0  0  0  0
  197.5450  174.5980  139.1080 C   0  0  0  0  0  1  0  0  0  0  0  0
  1  8  1  0  0  0  0
  1  6  1  1  0  0  0
  2 10  1  0  0  0  0
  3 31  1  6  0  0  0
  3  5  1  0  0  0  0
  4  3  1  0  0  0  0
  5  6  1  0  0  0  0
  8 20  1  0  0  0  0
  8  7  1  1  0  0  0
 10  7  1  0  0  0  0
 11  2  1  0  0  0  0
 11  9  1  1  0  0  0
 12  4  1  1  0  0  0
 12 11  1  0  0  0  0
 12  1  1  0  0  0  0
 14 17  1  6  0  0  0
 14 13  1  0  0  0  0
 14 19  1  0  0  0  0
 15 16  1  0  0  0  0
 18 16  1  0  0  0  0
 18 23  1  1  0  0  0
 19 18  1  0  0  0  0
 20 13  1  6  0  0  0
 20 15  1  0  0  0  0
 22 23  1  0  0  0  0
 23 21  2  0  0  0  0
 24 14  1  0  0  0  0
 25 24  1  0  0  0  0
 26 27  1  1  0  0  0
 26 11  1  0  0  0  0
 28 30  1  0  0  0  0
 30 29  1  6  0  0  0
 30 26  1  0  0  0  0
 31 32  1  6  0  0  0
 33 31  1  1  0  0  0
 33 35  1  0  0  0  0
 35 34  2  0  0  0  0
 36 37  1  6  0  0  0
 36 33  1  0  0  0  0
 36 35  1  0  0  0  0
 38 37  1  0  0  0  0
M  END
>  <MODEL>
6

>  <REMARK>
 VINA RESULT:      -6.8      3.213      8.730
  Name = 
  8 active torsions:
  status: ('A' for Active; 'I' for Inactive)
    1  A    between atoms: C_3  and  C_14
    2  A    between atoms: C_6  and  C_27
    3  A    between atoms: C_7  and  C_19
    4  A    between atoms: C_8  and  C_19
    5  A    between atoms: C_11  and  C_33
    6  A    between atoms: C_11  and  C_37
    7  A    between atoms: C_25  and  C_38
    8  A    between atoms: C_31  and  C_35
                            x       y       z     vdW  Elec       q    Type
                         _______ _______ _______ _____ _____    ______ ____

>  <TORSDO>
F 8

$$$$
=
 OpenBabel11062419233D

 38 41  0  0  1  0  0  0  0  0999 V2000
  189.9780  174.6830  143.5130 C   0  0  2  0  0  3  0  0  0  0  0  0
  192.8540  174.7670  144.2660 O   0  0  0  0  0  0  0  0  0  0  0  0
  190.3560  172.9970  141.2710 C   0  0  2  0  0  3  0  0  0  0  0  0
  190.4530  172.4670  142.5860 O   0  0  0  0  0  0  0  0  0  0  0  0
  189.3430  174.1540  141.1920 C   0  0  0  0  0  2  0  0  0  0  0  0
  189.7730  175.2730  142.1230 C   0  0  0  0  0  2  0  0  0  0  0  0
  191.3910  176.6790  144.2770 C   0  0  0  0  0  2  0  0  0  0  0  0
  190.2540  175.7080  144.6280 C   0  0  1  0  0  3  0  0  0  0  0  0
  192.9030  173.9040  142.1000 O   0  0  0  0  0  1  0  0  0  0  0  0
  192.5830  175.9880  143.6260 C   0  0  0  0  0  2  0  0  0  0  0  0
  192.4760  173.6870  143.4240 C   0  0  2  0  0  0  0  0  0  0  0  0
  190.9280  173.4620  143.4820 C   0  0  1  0  0  3  0  0  0  0  0  0
  188.6530  177.5440  143.9210 C   0  0  0  0  0  2  0  0  0  0  0  0
  187.1420  177.6380  143.6310 C   0  0  1  0  0  0  0  0  0  0  0  0
  189.0720  177.1300  146.3760 C   0  0  0  0  0  2  0  0  0  0  0  0
  187.8420  177.9440  146.7860 C   0  0  0  0  0  2  0  0  0  0  0  0
  186.5950  176.2720  143.2370 C   0  0  0  0  0  1  0  0  0  0  0  0
  186.5520  177.4520  146.1350 C   0  0  2  0  0  3  0  0  0  0  0  0
  186.3340  178.1950  144.8160 C   0  0  0  0  0  2  0  0  0  0  0  0
  188.9820  176.4910  144.9830 C   0  0  2  0  0  3  0  0  0  0  0  0
  185.5680  177.5940  148.2970 O   0  0  0  0  0  0  0  0  0  0  0  0
  184.0980  177.9600  146.5290 N   0  0  0  0  0  1  0  0  0  0  0  0
  185.3950  177.6760  147.0490 C   0  0  0  0  0  0  0  0  0  0  0  0
  186.9360  178.5610  142.4350 C   0  0  0  0  0  2  0  0  0  0  0  0
  187.2180  177.9040  141.2310 O   0  0  0  0  0  1  0  0  0  0  0  0
  193.1750  172.4100  143.9530 C   0  0  1  0  0  3  0  0  0  0  0  0
  193.6220  171.5730  142.8440 N   0  0  0  0  0  1  0  0  0  0  0  0
  195.5130  173.0460  144.1530 O   0  0  0  0  0  1  0  0  0  0  0  0
  194.6770  171.5190  145.7630 C   0  0  0  0  0  1  0  0  0  0  0  0
  194.3630  172.7220  144.8880 C   0  0  2  0  0  3  0  0  0  0  0  0
  190.0050  171.8790  140.2800 C   0  0  2  0  0  3  0  0  0  0  0  0
  190.6030  170.6770  140.6660 O   0  0  0  0  0  1  0  0  0  0  0  0
  190.3000  172.2700  138.8160 C   0  0  2  0  0  3  0  0  0  0  0  0
  188.1910  173.5810  137.8120 O   0  0  0  0  0  0  0  0  0  0  0  0
  189.0460  172.7470  138.0620 C   0  0  0  0  0  0  0  0  0  0  0  0
  189.7000  171.3710  137.8670 C   0  0  1  0  0  3  0  0  0  0  0  0
  190.4900  171.3680  136.5740 C   0  0  0  0  0  2  0  0  0  0  0  0
  189.5450  171.5430  135.4000 C   0  0  0  0  0  1  0  0  0  0  0  0
  1  6  1  6  0  0  0
  1  8  1  0  0  0  0
  3 31  1  6  0  0  0
  3  4  1  0  0  0  0
  5  3  1  0  0  0  0
  5  6  1  0  0  0  0
  8  7  1  6  0  0  0
  8 20  1  0  0  0  0
 10  2  1  0  0  0  0
 10  7  1  0  0  0  0
 11  9  1  6  0  0  0
 11 12  1  0  0  0  0
 11 26  1  0  0  0  0
 11  2  1  0  0  0  0
 12  4  1  6  0  0  0
 12  1  1  0  0  0  0
 14 17  1  6  0  0  0
 14 13  1  0  0  0  0
 14 19  1  0  0  0  0
 15 16  1  0  0  0  0
 18 16  1  0  0  0  0
 18 23  1  1  0  0  0
 19 18  1  0  0  0  0
 20 13  1  6  0  0  0
 20 15  1  0  0  0  0
 22 23  1  0  0  0  0
 23 21  2  0  0  0  0
 24 14  1  0  0  0  0
 25 24  1  0  0  0  0
 26 27  1  6  0  0  0
 26 30  1  0  0  0  0
 28 30  1  0  0  0  0
 30 29  1  6  0  0  0
 31 32  1  1  0  0  0
 33 31  1  1  0  0  0
 34 35  2  0  0  0  0
 35 33  1  0  0  0  0
 36 37  1  6  0  0  0
 36 35  1  0  0  0  0
 36 33  1  0  0  0  0
 38 37  1  0  0  0  0
M  END
>  <MODEL>
7

>  <REMARK>
 VINA RESULT:      -6.8      2.818      8.730
  Name = 
  8 active torsions:
  status: ('A' for Active; 'I' for Inactive)
    1  A    between atoms: C_3  and  C_14
    2  A    between atoms: C_6  and  C_27
    3  A    between atoms: C_7  and  C_19
    4  A    between atoms: C_8  and  C_19
    5  A    between atoms: C_11  and  C_33
    6  A    between atoms: C_11  and  C_37
    7  A    between atoms: C_25  and  C_38
    8  A    between atoms: C_31  and  C_35
                            x       y       z     vdW  Elec       q    Type
                         _______ _______ _______ _____ _____    ______ ____

>  <TORSDO>
F 8

$$$$
=
 OpenBabel11062419233D

 38 41  0  0  1  0  0  0  0  0999 V2000
  189.9390  174.2130  142.5090 C   0  0  2  0  0  3  0  0  0  0  0  0
  190.7710  174.1000  145.3610 O   0  0  0  0  0  0  0  0  0  0  0  0
  187.9570  176.1950  142.9040 C   0  0  2  0  0  3  0  0  0  0  0  0
  189.3340  176.5440  142.9460 O   0  0  0  0  0  0  0  0  0  0  0  0
  187.6890  175.0340  141.9290 C   0  0  0  0  0  2  0  0  0  0  0  0
  188.4750  173.8110  142.3630 C   0  0  0  0  0  2  0  0  0  0  0  0
  190.4760  172.1680  143.9550 C   0  0  0  0  0  2  0  0  0  0  0  0
  190.9150  173.0540  142.7800 C   0  0  1  0  0  3  0  0  0  0  0  0
  188.7440  175.2480  145.4510 O   0  0  0  0  0  1  0  0  0  0  0  0
  189.9640  172.9700  145.1460 C   0  0  0  0  0  2  0  0  0  0  0  0
  190.0690  175.2740  144.9780 C   0  0  2  0  0  0  0  0  0  0  0  0
  190.1040  175.4500  143.4230 C   0  0  1  0  0  3  0  0  0  0  0  0
  192.3250  171.2670  141.6590 C   0  0  0  0  0  2  0  0  0  0  0  0
  192.0630  169.8710  141.0630 C   0  0  1  0  0  0  0  0  0  0  0  0
  191.2350  173.0610  140.2560 C   0  0  0  0  0  2  0  0  0  0  0  0
  191.4580  172.2720  138.9640 C   0  0  0  0  0  2  0  0  0  0  0  0
  190.8190  169.2540  141.6900 C   0  0  0  0  0  1  0  0  0  0  0  0
  190.8640  170.8660  139.0080 C   0  0  2  0  0  3  0  0  0  0  0  0
  191.9160  169.8870  139.5320 C   0  0  0  0  0  2  0  0  0  0  0  0
  191.1180  172.1980  141.5210 C   0  0  2  0  0  3  0  0  0  0  0  0
  189.7370  169.3940  137.5160 O   0  0  0  0  0  0  0  0  0  0  0  0
  190.7400  171.2340  136.5010 N   0  0  0  0  0  1  0  0  0  0  0  0
  190.4090  170.4550  137.6490 C   0  0  0  0  0  0  0  0  0  0  0  0
  193.2370  168.9650  141.4210 C   0  0  0  0  0  2  0  0  0  0  0  0
  193.6460  168.2040  140.3190 O   0  0  0  0  0  1  0  0  0  0  0  0
  190.7880  176.4850  145.6220 C   0  0  1  0  0  3  0  0  0  0  0  0
  189.8180  177.4790  146.0680 N   0  0  0  0  0  1  0  0  0  0  0  0
  191.3310  176.7380  147.9780 O   0  0  0  0  0  1  0  0  0  0  0  0
  193.1500  176.4370  146.4870 C   0  0  0  0  0  1  0  0  0  0  0  0
  191.7050  176.0810  146.7970 C   0  0  2  0  0  3  0  0  0  0  0  0
  187.1130  177.4270  142.5510 C   0  0  2  0  0  3  0  0  0  0  0  0
  187.9370  178.5220  142.2790 O   0  0  0  0  0  1  0  0  0  0  0  0
  186.0250  177.7230  143.6060 C   0  0  2  0  0  3  0  0  0  0  0  0
  183.6690  178.0500  142.3750 O   0  0  0  0  0  0  0  0  0  0  0  0
  184.7110  178.2280  142.9830 C   0  0  0  0  0  0  0  0  0  0  0  0
  185.7210  179.1240  143.7170 C   0  0  1  0  0  3  0  0  0  0  0  0
  185.1980  179.4410  145.1030 C   0  0  0  0  0  2  0  0  0  0  0  0
  184.7350  178.1620  145.7770 C   0  0  0  0  0  1  0  0  0  0  0  0
  1  6  1  1  0  0  0
  1  8  1  0  0  0  0
  1 12  1  0  0  0  0
  3 31  1  6  0  0  0
  3  4  1  0  0  0  0
  5  6  1  0  0  0  0
  5  3  1  0  0  0  0
  7 10  1  0  0  0  0
  8  7  1  1  0  0  0
 10  2  1  0  0  0  0
 11  2  1  0  0  0  0
 11  9  1  1  0  0  0
 11 26  1  0  0  0  0
 12  4  1  6  0  0  0
 12 11  1  0  0  0  0
 14 24  1  0  0  0  0
 14 13  1  0  0  0  0
 14 17  1  1  0  0  0
 16 18  1  0  0  0  0
 16 15  1  0  0  0  0
 18 23  1  6  0  0  0
 18 19  1  0  0  0  0
 19 14  1  0  0  0  0
 20 15  1  6  0  0  0
 20 13  1  0  0  0  0
 20  8  1  0  0  0  0
 21 23  2  0  0  0  0
 22 23  1  0  0  0  0
 25 24  1  0  0  0  0
 26 27  1  1  0  0  0
 26 30  1  0  0  0  0
 30 29  1  6  0  0  0
 30 28  1  0  0  0  0
 31 32  1  1  0  0  0
 33 31  1  6  0  0  0
 33 36  1  0  0  0  0
 34 35  2  0  0  0  0
 35 33  1  0  0  0  0
 35 36  1  0  0  0  0
 36 37  1  1  0  0  0
 37 38  1  0  0  0  0
M  END
>  <MODEL>
8

>  <REMARK>
 VINA RESULT:      -6.8      3.903      6.159
  Name = 
  8 active torsions:
  status: ('A' for Active; 'I' for Inactive)
    1  A    between atoms: C_3  and  C_14
    2  A    between atoms: C_6  and  C_27
    3  A    between atoms: C_7  and  C_19
    4  A    between atoms: C_8  and  C_19
    5  A    between atoms: C_11  and  C_33
    6  A    between atoms: C_11  and  C_37
    7  A    between atoms: C_25  and  C_38
    8  A    between atoms: C_31  and  C_35
                            x       y       z     vdW  Elec       q    Type
                         _______ _______ _______ _____ _____    ______ ____

>  <TORSDO>
F 8

$$$$
=
 OpenBabel11062419233D

 38 41  0  0  1  0  0  0  0  0999 V2000
  191.1460  174.7840  142.0540 C   0  0  2  0  0  3  0  0  0  0  0  0
  193.1640  173.5450  143.8520 O   0  0  0  0  0  0  0  0  0  0  0  0
  189.7570  176.1260  144.1250 C   0  0  2  0  0  3  0  0  0  0  0  0
  191.0300  176.5930  143.7000 O   0  0  0  0  0  0  0  0  0  0  0  0
  188.9670  175.4830  142.9700 C   0  0  0  0  0  2  0  0  0  0  0  0
  189.7440  174.3040  142.4130 C   0  0  0  0  0  2  0  0  0  0  0  0
  192.0820  172.4000  142.0320 C   0  0  0  0  0  2  0  0  0  0  0  0
  192.0240  173.7570  141.3160 C   0  0  1  0  0  3  0  0  0  0  0  0
  191.5170  174.2710  145.3340 O   0  0  0  0  0  1  0  0  0  0  0  0
  192.2430  172.5300  143.5420 C   0  0  0  0  0  2  0  0  0  0  0  0
  192.4800  174.6690  144.3880 C   0  0  2  0  0  0  0  0  0  0  0  0
  191.8240  175.5090  143.2410 C   0  0  1  0  0  3  0  0  0  0  0  0
  191.2660  172.1000  139.5510 C   0  0  0  0  0  2  0  0  0  0  0  0
  190.0090  171.9180  138.6790 C   0  0  1  0  0  0  0  0  0  0  0  0
  192.5480  174.1620  138.8600 C   0  0  0  0  0  2  0  0  0  0  0  0
  192.1480  173.9920  137.3920 C   0  0  0  0  0  2  0  0  0  0  0  0
  188.8080  172.5810  139.3390 C   0  0  0  0  0  1  0  0  0  0  0  0
  190.6380  173.9240  137.1850 C   0  0  2  0  0  3  0  0  0  0  0  0
  190.1820  172.4650  137.2520 C   0  0  0  0  0  2  0  0  0  0  0  0
  191.5510  173.5700  139.8670 C   0  0  2  0  0  3  0  0  0  0  0  0
  189.1540  174.2320  135.3500 O   0  0  0  0  0  0  0  0  0  0  0  0
  191.1680  175.3870  135.1820 N   0  0  0  0  0  1  0  0  0  0  0  0
  190.2700  174.5180  135.8680 C   0  0  0  0  0  0  0  0  0  0  0  0
  189.6980  170.4270  138.5850 C   0  0  0  0  0  2  0  0  0  0  0  0
  190.4490  169.6930  139.5100 O   0  0  0  0  0  1  0  0  0  0  0  0
  193.5240  175.5570  145.1070 C   0  0  1  0  0  3  0  0  0  0  0  0
  193.2240  175.6510  146.5320 N   0  0  0  0  0  1  0  0  0  0  0  0
  195.6290  174.9070  146.1360 O   0  0  0  0  0  1  0  0  0  0  0  0
  195.7600  176.0510  144.0630 C   0  0  0  0  0  1  0  0  0  0  0  0
  194.9730  175.0610  144.9070 C   0  0  2  0  0  3  0  0  0  0  0  0
  188.9670  177.2710  144.7730 C   0  0  2  0  0  3  0  0  0  0  0  0
  189.4590  177.5430  146.0510 O   0  0  0  0  0  1  0  0  0  0  0  0
  187.4420  177.0330  144.7380 C   0  0  2  0  0  3  0  0  0  0  0  0
  186.2740  178.9930  143.3350 O   0  0  0  0  0  0  0  0  0  0  0  0
  186.6580  178.2550  144.2280 C   0  0  0  0  0  0  0  0  0  0  0  0
  186.7310  177.8290  145.7020 C   0  0  1  0  0  3  0  0  0  0  0  0
  185.4360  177.1480  146.0940 C   0  0  0  0  0  2  0  0  0  0  0  0
  184.4180  178.1930  146.5130 C   0  0  0  0  0  1  0  0  0  0  0  0
  1  6  1  1  0  0  0
  1 12  1  0  0  0  0
  2 11  1  0  0  0  0
  3 31  1  6  0  0  0
  4  3  1  0  0  0  0
  5  3  1  0  0  0  0
  6  5  1  0  0  0  0
  7 10  1  0  0  0  0
  8  7  1  1  0  0  0
  8  1  1  0  0  0  0
 10  2  1  0  0  0  0
 11 26  1  0  0  0  0
 11  9  1  1  0  0  0
 12  4  1  1  0  0  0
 12 11  1  0  0  0  0
 13 20  1  0  0  0  0
 14 17  1  1  0  0  0
 14 13  1  0  0  0  0
 16 15  1  0  0  0  0
 18 23  1  6  0  0  0
 18 19  1  0  0  0  0
 18 16  1  0  0  0  0
 19 14  1  0  0  0  0
 20 15  1  6  0  0  0
 20  8  1  0  0  0  0
 21 23  2  0  0  0  0
 22 23  1  0  0  0  0
 24 14  1  0  0  0  0
 24 25  1  0  0  0  0
 26 27  1  1  0  0  0
 30 29  1  6  0  0  0
 30 26  1  0  0  0  0
 30 28  1  0  0  0  0
 31 32  1  1  0  0  0
 33 31  1  1  0  0  0
 33 36  1  0  0  0  0
 34 35  2  0  0  0  0
 35 33  1  0  0  0  0
 35 36  1  0  0  0  0
 36 37  1  6  0  0  0
 37 38  1  0  0  0  0
M  END
>  <MODEL>
9

>  <REMARK>
 VINA RESULT:      -6.7      3.036      6.938
  Name = 
  8 active torsions:
  status: ('A' for Active; 'I' for Inactive)
    1  A    between atoms: C_3  and  C_14
    2  A    between atoms: C_6  and  C_27
    3  A    between atoms: C_7  and  C_19
    4  A    between atoms: C_8  and  C_19
    5  A    between atoms: C_11  and  C_33
    6  A    between atoms: C_11  and  C_37
    7  A    between atoms: C_25  and  C_38
    8  A    between atoms: C_31  and  C_35
                            x       y       z     vdW  Elec       q    Type
                         _______ _______ _______ _____ _____    ______ ____

>  <TORSDO>
F 8

$$$$
