=
 OpenBabel11062418293D

 48 53  0  0  1  0  0  0  0  0999 V2000
  195.2090  176.5520  145.1260 O   0  0  0  0  0  0  0  0  0  0  0  0
  194.7100  176.1170  144.0980 C   0  0  0  0  0  0  0  0  0  0  0  0
  195.8650  173.2620  144.6780 C   0  0  1  0  0  3  0  0  0  0  0  0
  196.9900  174.9270  138.8690 C   0  0  0  0  0  3  0  0  0  0  0  0
  194.8490  171.3070  143.4090 C   0  0  1  0  0  3  0  0  0  0  0  0
  195.1220  169.8790  142.9630 C   0  0  0  0  0  1  0  0  0  0  0  0
  195.5880  175.3510  143.1190 C   0  0  1  0  0  3  0  0  0  0  0  0
  196.5670  176.5300  142.1460 S   0  0  1  0  0  0  0  0  0  0  0  0
  197.4610  177.2080  143.1730 O   0  0  0  0  0  0  0  0  0  0  0  0
  197.7160  175.4570  141.2520 C   0  0  1  0  0  3  0  0  0  0  0  0
  196.5300  174.2740  143.7290 C   0  0  2  0  0  3  0  0  0  0  0  0
  196.0290  171.8110  144.2250 C   0  0  0  0  0  2  0  0  0  0  0  0
  195.5280  172.2060  141.0690 C   0  0  2  0  0  3  0  0  0  0  0  0
  194.4890  172.2170  142.2230 C   0  0  1  0  0  3  0  0  0  0  0  0
  196.0560  173.6170  140.7360 C   0  0  1  0  0  3  0  0  0  0  0  0
  196.4940  173.3880  146.0500 C   0  0  0  0  0  1  0  0  0  0  0  0
  197.4240  173.6050  142.8420 O   0  0  0  0  0  0  0  0  0  0  0  0
  197.3550  173.9880  141.4850 C   0  0  2  0  0  3  0  0  0  0  0  0
  197.6880  175.7550  139.8190 N   0  0  0  0  0  2  0  0  0  0  0  0
  196.2450  173.8920  139.2710 C   0  0  0  0  0  3  0  0  0  0  0  0
  195.1840  171.4010  139.9570 O   0  0  0  0  0  0  0  0  0  0  0  0
  196.1380  170.4980  139.8030 O   0  0  0  0  0  1  0  0  0  0  0  0
  193.2030  171.9110  141.7680 O   0  0  0  0  0  0  0  0  0  0  0  0
  192.5950  173.1440  141.5050 C   0  0  0  0  0  1  0  0  0  0  0  0
  193.2090  176.1950  143.9850 C   0  0  0  0  0  2  0  0  0  0  0  0
  192.2180  174.1190  144.9450 C   0  0  0  0  0  2  0  0  0  0  0  0
  190.8090  173.9410  144.6160 N   0  0  0  0  0  2  0  0  0  0  0  0
  192.5410  175.5870  145.2140 C   0  0  2  0  0  3  0  0  0  0  0  0
  190.0230  174.2010  145.8200 C   0  0  0  0  0  2  0  0  0  0  0  0
  191.3050  176.4070  145.5860 C   0  0  0  0  0  2  0  0  0  0  0  0
  190.2500  175.6240  146.3680 C   0  0  1  0  0  3  0  0  0  0  0  0
  188.9650  176.3860  146.3240 C   0  0  0  0  0  3  0  0  0  0  0  0
  188.6630  177.1770  145.2980 C   0  0  0  0  0  3  0  0  0  0  0  0
  187.3680  177.9530  145.2910 C   0  0  1  0  0  3  0  0  0  0  0  0
  187.0720  176.5060  141.9160 C   0  0  1  0  0  3  0  0  0  0  0  0
  185.4110  178.2930  141.1740 N   0  0  0  0  0  2  0  0  0  0  0  0
  186.6780  177.7080  143.9990 N   0  0  0  0  0  0  0  0  0  0  0  0
  186.8250  177.2670  139.6550 O   0  0  0  0  0  0  0  0  0  0  0  0
  186.0130  178.9090  143.4870 C   0  0  0  0  0  2  0  0  0  0  0  0
  184.8950  178.5200  142.5260 C   0  0  0  0  0  2  0  0  0  0  0  0
  187.6970  177.3530  143.0070 C   0  0  0  0  0  2  0  0  0  0  0  0
  186.4740  177.3900  140.8570 C   0  0  0  0  0  0  0  0  0  0  0  0
  188.0730  175.6090  141.3590 N   0  0  0  0  0  1  0  0  0  0  0  0
  185.9690  178.7710  147.2380 C   0  0  0  0  0  3  0  0  0  0  0  0
  186.5250  177.5630  146.5310 C   0  0  1  0  0  3  0  0  0  0  0  0
  184.2210  177.6400  146.5590 C   0  0  0  0  0  3  0  0  0  0  0  0
  185.2370  176.9020  146.1410 C   0  0  0  0  0  3  0  0  0  0  0  0
  184.6820  178.7970  147.2360 N   0  0  0  0  0  0  0  0  0  0  0  0
  2  1  2  0  0  0  0
  3 16  1  1  0  0  0
  4 20  2  0  0  0  0
  4 19  1  0  0  0  0
  5  6  1  6  0  0  0
  5 12  1  0  0  0  0
  7 11  1  0  0  0  0
  7  2  1  1  0  0  0
  8  7  1  0  0  0  0
  8  9  2  1  0  0  0
 10 19  1  6  0  0  0
 10 18  1  0  0  0  0
 10  8  1  0  0  0  0
 11 17  1  6  0  0  0
 11  3  1  0  0  0  0
 12  3  1  0  0  0  0
 13 21  1  6  0  0  0
 13 14  1  0  0  0  0
 14 23  1  6  0  0  0
 14  5  1  0  0  0  0
 15 20  1  6  0  0  0
 15 13  1  0  0  0  0
 15 18  1  0  0  0  0
 18 17  1  1  0  0  0
 22 21  1  0  0  0  0
 24 23  1  0  0  0  0
 25  2  1  0  0  0  0
 26 28  1  0  0  0  0
 27 26  1  0  0  0  0
 27 29  1  0  0  0  0
 28 25  1  6  0  0  0
 28 30  1  0  0  0  0
 29 31  1  0  0  0  0
 30 31  1  0  0  0  0
 31 32  1  6  0  0  0
 33 32  2  0  0  0  0
 34 33  1  6  0  0  0
 35 43  1  6  0  0  0
 35 41  1  0  0  0  0
 36 40  1  0  0  0  0
 37 34  1  0  0  0  0
 38 42  2  0  0  0  0
 39 37  1  0  0  0  0
 40 39  1  0  0  0  0
 41 37  1  0  0  0  0
 42 36  1  0  0  0  0
 42 35  1  0  0  0  0
 45 34  1  6  0  0  0
 45 44  1  0  0  0  0
 46 48  1  0  0  0  0
 47 45  1  0  0  0  0
 47 46  2  0  0  0  0
 48 44  2  0  0  0  0
M  END
>  <MODEL>
1

>  <REMARK>
 VINA RESULT:      -8.4      0.000      0.000
  Name = 
  9 active torsions:
  status: ('A' for Active; 'I' for Inactive)
    1  A    between atoms: C_5  and  C_44
    2  A    between atoms: O_8  and  C_35
    3  A    between atoms: C_9  and  C_38
    4  A    between atoms: O_10  and  C_39
    5  A    between atoms: C_13  and  C_29
    6  A    between atoms: N_14  and  C_38
    7  A    between atoms: C_20  and  C_38
    8  A    between atoms: C_27  and  C_45
    9  A    between atoms: C_29  and  C_45
                            x       y       z     vdW  Elec       q    Type
                         _______ _______ _______ _____ _____    ______ ____

>  <TORSDO>
F 9

$$$$
=
 OpenBabel11062418293D

 48 53  0  0  1  0  0  0  0  0999 V2000
  193.5440  173.9370  142.7600 O   0  0  0  0  0  0  0  0  0  0  0  0
  192.5720  173.2420  143.0140 C   0  0  0  0  0  0  0  0  0  0  0  0
  189.7850  172.8570  141.6310 C   0  0  1  0  0  3  0  0  0  0  0  0
  193.8420  168.7440  139.5320 C   0  0  0  0  0  3  0  0  0  0  0  0
  189.6510  173.2790  139.1270 C   0  0  1  0  0  3  0  0  0  0  0  0
  188.8250  172.9700  137.8890 C   0  0  0  0  0  1  0  0  0  0  0  0
  192.2430  172.0720  142.0960 C   0  0  1  0  0  3  0  0  0  0  0  0
  193.1870  170.6140  142.6240 S   0  0  1  0  0  0  0  0  0  0  0  0
  192.6500  170.3080  144.0130 O   0  0  0  0  0  0  0  0  0  0  0  0
  192.4800  169.2920  141.6140 C   0  0  1  0  0  3  0  0  0  0  0  0
  190.7390  171.6970  141.9630 C   0  0  2  0  0  3  0  0  0  0  0  0
  188.9950  172.6390  140.3410 C   0  0  0  0  0  2  0  0  0  0  0  0
  191.3420  171.4060  138.5120 C   0  0  2  0  0  3  0  0  0  0  0  0
  191.1260  172.8820  138.9450 C   0  0  1  0  0  3  0  0  0  0  0  0
  192.2640  170.6370  139.4800 C   0  0  1  0  0  3  0  0  0  0  0  0
  188.7870  173.0110  142.7590 C   0  0  0  0  0  1  0  0  0  0  0  0
  190.4150  170.5510  141.1780 O   0  0  0  0  0  0  0  0  0  0  0  0
  191.5050  169.8740  140.5890 C   0  0  2  0  0  3  0  0  0  0  0  0
  193.5390  168.5490  140.9270 N   0  0  0  0  0  2  0  0  0  0  0  0
  193.2300  169.6950  138.8180 C   0  0  0  0  0  3  0  0  0  0  0  0
  191.6010  171.2140  137.1340 O   0  0  0  0  0  0  0  0  0  0  0  0
  190.6910  170.3760  136.6660 O   0  0  0  0  0  1  0  0  0  0  0  0
  191.7500  173.7770  138.0710 O   0  0  0  0  0  0  0  0  0  0  0  0
  192.9410  174.1490  138.7040 C   0  0  0  0  0  1  0  0  0  0  0  0
  191.8970  173.4730  144.3410 C   0  0  0  0  0  2  0  0  0  0  0  0
  192.7930  174.7550  146.2810 C   0  0  0  0  0  2  0  0  0  0  0  0
  191.7880  175.0600  147.2920 N   0  0  0  0  0  2  0  0  0  0  0  0
  192.2120  174.8670  144.8740 C   0  0  2  0  0  3  0  0  0  0  0  0
  191.4770  176.4840  147.2120 C   0  0  0  0  0  2  0  0  0  0  0  0
  190.9540  175.7360  144.8190 C   0  0  0  0  0  2  0  0  0  0  0  0
  190.9510  176.8900  145.8220 C   0  0  1  0  0  3  0  0  0  0  0  0
  189.5530  177.4020  145.9480 C   0  0  0  0  0  3  0  0  0  0  0  0
  188.7570  177.5160  144.8870 C   0  0  0  0  0  3  0  0  0  0  0  0
  187.3570  178.0590  145.0420 C   0  0  1  0  0  3  0  0  0  0  0  0
  186.9750  176.7190  141.6310 C   0  0  1  0  0  3  0  0  0  0  0  0
  185.0400  178.2960  141.1080 N   0  0  0  0  0  2  0  0  0  0  0  0
  186.6010  177.7750  143.7960 N   0  0  0  0  0  0  0  0  0  0  0  0
  186.4450  177.5290  139.4370 O   0  0  0  0  0  0  0  0  0  0  0  0
  185.7450  178.8950  143.3970 C   0  0  0  0  0  2  0  0  0  0  0  0
  184.6120  178.3980  142.5050 C   0  0  0  0  0  2  0  0  0  0  0  0
  187.5720  177.5990  142.7120 C   0  0  0  0  0  2  0  0  0  0  0  0
  186.1820  177.5560  140.6660 C   0  0  0  0  0  0  0  0  0  0  0  0
  188.0350  175.9880  140.9550 N   0  0  0  0  0  1  0  0  0  0  0  0
  186.2320  178.5310  147.2620 C   0  0  0  0  0  3  0  0  0  0  0  0
  186.7070  177.4610  146.3150 C   0  0  1  0  0  3  0  0  0  0  0  0
  184.4290  177.4370  146.6700 C   0  0  0  0  0  3  0  0  0  0  0  0
  185.3910  176.8090  146.0130 C   0  0  0  0  0  3  0  0  0  0  0  0
  184.9570  178.5040  147.4400 N   0  0  0  0  0  0  0  0  0  0  0  0
  1  2  2  0  0  0  0
  2 25  1  0  0  0  0
  3 11  1  0  0  0  0
  3 16  1  1  0  0  0
  4 19  1  0  0  0  0
  5  6  1  6  0  0  0
  5 12  1  0  0  0  0
  7  8  1  0  0  0  0
  7  2  1  1  0  0  0
  8  9  2  1  0  0  0
 10 19  1  6  0  0  0
 10  8  1  0  0  0  0
 11 17  1  6  0  0  0
 11  7  1  0  0  0  0
 12  3  1  0  0  0  0
 13 21  1  6  0  0  0
 13 14  1  0  0  0  0
 13 15  1  0  0  0  0
 14 23  1  6  0  0  0
 14  5  1  0  0  0  0
 15 20  1  6  0  0  0
 15 18  1  0  0  0  0
 18 17  1  1  0  0  0
 18 10  1  0  0  0  0
 20  4  2  0  0  0  0
 22 21  1  0  0  0  0
 23 24  1  0  0  0  0
 26 27  1  0  0  0  0
 28 25  1  1  0  0  0
 28 26  1  0  0  0  0
 29 27  1  0  0  0  0
 30 28  1  0  0  0  0
 30 31  1  0  0  0  0
 31 32  1  1  0  0  0
 31 29  1  0  0  0  0
 33 32  2  0  0  0  0
 34 33  1  6  0  0  0
 35 43  1  6  0  0  0
 35 41  1  0  0  0  0
 36 40  1  0  0  0  0
 37 34  1  0  0  0  0
 38 42  2  0  0  0  0
 39 37  1  0  0  0  0
 40 39  1  0  0  0  0
 41 37  1  0  0  0  0
 42 36  1  0  0  0  0
 42 35  1  0  0  0  0
 44 48  2  0  0  0  0
 45 34  1  6  0  0  0
 45 44  1  0  0  0  0
 46 48  1  0  0  0  0
 47 45  1  0  0  0  0
 47 46  2  0  0  0  0
M  END
>  <MODEL>
2

>  <REMARK>
 VINA RESULT:      -8.1      3.123      4.663
  Name = 
  9 active torsions:
  status: ('A' for Active; 'I' for Inactive)
    1  A    between atoms: C_5  and  C_44
    2  A    between atoms: O_8  and  C_35
    3  A    between atoms: C_9  and  C_38
    4  A    between atoms: O_10  and  C_39
    5  A    between atoms: C_13  and  C_29
    6  A    between atoms: N_14  and  C_38
    7  A    between atoms: C_20  and  C_38
    8  A    between atoms: C_27  and  C_45
    9  A    between atoms: C_29  and  C_45
                            x       y       z     vdW  Elec       q    Type
                         _______ _______ _______ _____ _____    ______ ____

>  <TORSDO>
F 9

$$$$
=
 OpenBabel11062418293D

 48 53  0  0  1  0  0  0  0  0999 V2000
  194.9610  176.3760  143.5510 O   0  0  0  0  0  0  0  0  0  0  0  0
  194.2190  175.4710  143.1980 C   0  0  0  0  0  0  0  0  0  0  0  0
  195.6010  173.3170  145.0080 C   0  0  1  0  0  3  0  0  0  0  0  0
  195.0480  171.2790  139.2350 C   0  0  0  0  0  3  0  0  0  0  0  0
  194.3580  171.1310  145.3830 C   0  0  1  0  0  3  0  0  0  0  0  0
  194.5570  169.6790  145.7870 C   0  0  0  0  0  1  0  0  0  0  0  0
  194.8300  174.1860  142.6570 C   0  0  1  0  0  3  0  0  0  0  0  0
  195.4620  174.4830  140.9820 S   0  0  1  0  0  0  0  0  0  0  0  0
  196.5720  175.5030  141.1790 O   0  0  0  0  0  0  0  0  0  0  0  0
  196.3680  172.9610  140.6190 C   0  0  1  0  0  3  0  0  0  0  0  0
  195.9440  173.5300  143.5230 C   0  0  2  0  0  3  0  0  0  0  0  0
  195.6940  171.8560  145.4460 C   0  0  0  0  0  2  0  0  0  0  0  0
  194.3430  170.4690  142.8720 C   0  0  2  0  0  3  0  0  0  0  0  0
  193.6550  171.2550  144.0210 C   0  0  1  0  0  3  0  0  0  0  0  0
  194.7050  171.3710  141.6740 C   0  0  1  0  0  3  0  0  0  0  0  0
  196.5700  174.1130  145.8560 C   0  0  0  0  0  1  0  0  0  0  0  0
  196.5910  172.3740  142.9960 O   0  0  0  0  0  0  0  0  0  0  0  0
  196.1430  171.9340  141.7310 C   0  0  2  0  0  3  0  0  0  0  0  0
  195.9430  172.4040  139.3340 N   0  0  0  0  0  0  0  0  0  0  0  0
  194.4810  170.7500  140.3240 C   0  0  0  0  0  2  0  0  0  0  0  0
  193.7450  169.2280  142.5470 O   0  0  0  0  0  0  0  0  0  0  0  0
  194.6640  168.2880  142.6880 O   0  0  0  0  0  1  0  0  0  0  0  0
  192.3070  170.9080  144.1540 O   0  0  0  0  0  0  0  0  0  0  0  0
  191.5930  171.9400  143.5360 C   0  0  0  0  0  1  0  0  0  0  0  0
  192.7550  175.6230  143.5250 C   0  0  0  0  0  2  0  0  0  0  0  0
  192.4610  174.6650  145.8060 C   0  0  0  0  0  2  0  0  0  0  0  0
  191.0730  174.3540  146.1320 N   0  0  0  0  0  2  0  0  0  0  0  0
  192.5620  175.9570  145.0000 C   0  0  2  0  0  3  0  0  0  0  0  0
  190.6000  175.3430  147.0970 C   0  0  0  0  0  2  0  0  0  0  0  0
  191.3370  176.8580  145.1680 C   0  0  0  0  0  2  0  0  0  0  0  0
  190.6930  176.7810  146.5520 C   0  0  1  0  0  3  0  0  0  0  0  0
  189.3230  177.3730  146.4700 C   0  0  0  0  0  3  0  0  0  0  0  0
  188.6780  177.4700  145.3100 C   0  0  0  0  0  3  0  0  0  0  0  0
  187.3040  178.0930  145.2540 C   0  0  1  0  0  3  0  0  0  0  0  0
  187.1980  176.4160  141.9750 C   0  0  1  0  0  3  0  0  0  0  0  0
  185.5410  178.1130  141.0360 N   0  0  0  0  0  2  0  0  0  0  0  0
  186.6820  177.7470  143.9500 N   0  0  0  0  0  0  0  0  0  0  0  0
  187.0450  177.0170  139.6580 O   0  0  0  0  0  0  0  0  0  0  0  0
  186.0200  178.8950  143.3270 C   0  0  0  0  0  2  0  0  0  0  0  0
  184.9570  178.4180  142.3430 C   0  0  0  0  0  2  0  0  0  0  0  0
  187.7530  177.3480  143.0330 C   0  0  0  0  0  2  0  0  0  0  0  0
  186.6350  177.2130  140.8310 C   0  0  0  0  0  0  0  0  0  0  0  0
  188.2410  175.5060  141.5280 N   0  0  0  0  0  1  0  0  0  0  0  0
  185.9120  178.8000  147.2480 C   0  0  0  0  0  3  0  0  0  0  0  0
  186.4770  177.6350  146.4800 C   0  0  1  0  0  3  0  0  0  0  0  0
  184.1720  177.6800  146.5300 C   0  0  0  0  0  3  0  0  0  0  0  0
  185.1940  176.9760  146.0700 C   0  0  0  0  0  3  0  0  0  0  0  0
  184.6240  178.8110  147.2570 N   0  0  0  0  0  0  0  0  0  0  0  0
  2 25  1  0  0  0  0
  2  1  2  0  0  0  0
  3 12  1  0  0  0  0
  3 16  1  1  0  0  0
  4 19  2  0  0  0  0
  4 20  1  0  0  0  0
  5 12  1  0  0  0  0
  5  6  1  6  0  0  0
  7  2  1  1  0  0  0
  7 11  1  0  0  0  0
  8  9  2  1  0  0  0
  8  7  1  0  0  0  0
 10 19  1  6  0  0  0
 10  8  1  0  0  0  0
 10 18  1  0  0  0  0
 11 17  1  6  0  0  0
 11  3  1  0  0  0  0
 13 21  1  6  0  0  0
 13 14  1  0  0  0  0
 14 23  1  1  0  0  0
 14  5  1  0  0  0  0
 15 20  1  6  0  0  0
 15 18  1  0  0  0  0
 15 13  1  0  0  0  0
 18 17  1  1  0  0  0
 21 22  1  0  0  0  0
 24 23  1  0  0  0  0
 26 27  1  0  0  0  0
 27 29  1  0  0  0  0
 28 25  1  6  0  0  0
 28 30  1  0  0  0  0
 28 26  1  0  0  0  0
 30 31  1  0  0  0  0
 31 32  1  6  0  0  0
 31 29  1  0  0  0  0
 33 32  2  0  0  0  0
 34 33  1  1  0  0  0
 35 43  1  6  0  0  0
 35 41  1  0  0  0  0
 36 40  1  0  0  0  0
 37 34  1  0  0  0  0
 38 42  2  0  0  0  0
 39 37  1  0  0  0  0
 40 39  1  0  0  0  0
 41 37  1  0  0  0  0
 42 36  1  0  0  0  0
 42 35  1  0  0  0  0
 44 48  2  0  0  0  0
 45 34  1  6  0  0  0
 45 44  1  0  0  0  0
 46 48  1  0  0  0  0
 47 45  1  0  0  0  0
 47 46  2  0  0  0  0
M  END
>  <MODEL>
3

>  <REMARK>
 VINA RESULT:      -8.1      1.558      1.900
  Name = 
  9 active torsions:
  status: ('A' for Active; 'I' for Inactive)
    1  A    between atoms: C_5  and  C_44
    2  A    between atoms: O_8  and  C_35
    3  A    between atoms: C_9  and  C_38
    4  A    between atoms: O_10  and  C_39
    5  A    between atoms: C_13  and  C_29
    6  A    between atoms: N_14  and  C_38
    7  A    between atoms: C_20  and  C_38
    8  A    between atoms: C_27  and  C_45
    9  A    between atoms: C_29  and  C_45
                            x       y       z     vdW  Elec       q    Type
                         _______ _______ _______ _____ _____    ______ ____

>  <TORSDO>
F 9

$$$$
=
 OpenBabel11062418293D

 48 53  0  0  1  0  0  0  0  0999 V2000
  195.6080  175.0290  146.1570 O   0  0  0  0  0  0  0  0  0  0  0  0
  194.6540  174.7160  145.4600 C   0  0  0  0  0  0  0  0  0  0  0  0
  195.7340  171.8370  144.8520 C   0  0  1  0  0  3  0  0  0  0  0  0
  194.1090  174.6950  139.6580 C   0  0  0  0  0  3  0  0  0  0  0  0
  194.1010  170.1570  143.8650 C   0  0  1  0  0  3  0  0  0  0  0  0
  194.0260  168.8600  143.0750 C   0  0  0  0  0  1  0  0  0  0  0  0
  194.9090  174.1940  144.0530 C   0  0  1  0  0  3  0  0  0  0  0  0
  195.3970  175.5760  142.9820 S   0  0  1  0  0  0  0  0  0  0  0  0
  196.7160  176.0540  143.5700 O   0  0  0  0  0  0  0  0  0  0  0  0
  195.9080  174.7440  141.4600 C   0  0  1  0  0  3  0  0  0  0  0  0
  195.9460  173.0420  143.9180 C   0  0  2  0  0  3  0  0  0  0  0  0
  195.5590  170.5170  144.1030 C   0  0  0  0  0  2  0  0  0  0  0  0
  193.6610  171.5390  141.7100 C   0  0  2  0  0  3  0  0  0  0  0  0
  193.2920  171.2810  143.1970 C   0  0  1  0  0  3  0  0  0  0  0  0
  194.0710  173.0020  141.4490 C   0  0  1  0  0  3  0  0  0  0  0  0
  196.9420  171.6970  145.7540 C   0  0  0  0  0  1  0  0  0  0  0  0
  196.2650  172.5960  142.6010 O   0  0  0  0  0  0  0  0  0  0  0  0
  195.5930  173.2490  141.5450 C   0  0  2  0  0  3  0  0  0  0  0  0
  195.2310  175.3300  140.3020 N   0  0  0  0  0  2  0  0  0  0  0  0
  193.5680  173.5780  140.1550 C   0  0  0  0  0  3  0  0  0  0  0  0
  192.7760  170.9700  140.7630 O   0  0  0  0  0  0  0  0  0  0  0  0
  193.4780  170.1520  139.9960 O   0  0  0  0  0  1  0  0  0  0  0  0
  191.9250  171.0380  143.3590 O   0  0  0  0  0  0  0  0  0  0  0  0
  191.4760  172.0080  144.2620 C   0  0  0  0  0  1  0  0  0  0  0  0
  193.3050  174.6750  146.1310 C   0  0  0  0  0  2  0  0  0  0  0  0
  192.0550  176.3420  147.4970 C   0  0  0  0  0  2  0  0  0  0  0  0
  190.6120  176.1280  147.5000 N   0  0  0  0  0  2  0  0  0  0  0  0
  192.6530  176.0530  146.1230 C   0  0  2  0  0  3  0  0  0  0  0  0
  189.9950  177.1690  146.6840 C   0  0  0  0  0  2  0  0  0  0  0  0
  191.6180  176.1250  144.9990 C   0  0  0  0  0  2  0  0  0  0  0  0
  190.5160  177.1590  145.2330 C   0  0  1  0  0  3  0  0  0  0  0  0
  189.3860  176.8650  144.3000 C   0  0  0  0  0  3  0  0  0  0  0  0
  189.1360  175.6270  143.8810 C   0  0  0  0  0  3  0  0  0  0  0  0
  188.0010  175.3640  142.9190 C   0  0  1  0  0  3  0  0  0  0  0  0
  185.4740  177.7720  144.0980 C   0  0  1  0  0  3  0  0  0  0  0  0
  185.0110  178.6120  141.7340 N   0  0  0  0  0  2  0  0  0  0  0  0
  187.1790  176.5960  142.8130 N   0  0  0  0  0  0  0  0  0  0  0  0
  183.3700  178.6630  143.3670 O   0  0  0  0  0  0  0  0  0  0  0  0
  186.6820  176.8180  141.4530 C   0  0  0  0  0  2  0  0  0  0  0  0
  186.3550  178.2930  141.2490 C   0  0  0  0  0  2  0  0  0  0  0  0
  185.9930  176.4180  143.6550 C   0  0  0  0  0  2  0  0  0  0  0  0
  184.5430  178.3310  143.0570 C   0  0  0  0  0  0  0  0  0  0  0  0
  184.8150  177.6450  145.3890 N   0  0  0  0  0  1  0  0  0  0  0  0
  190.0390  174.5460  141.6570 C   0  0  0  0  0  3  0  0  0  0  0  0
  188.5730  174.8780  141.5650 C   0  0  1  0  0  3  0  0  0  0  0  0
  189.0520  172.6660  141.1240 C   0  0  0  0  0  3  0  0  0  0  0  0
  188.0460  173.5230  141.1940 C   0  0  0  0  0  3  0  0  0  0  0  0
  190.2830  173.3060  141.4150 N   0  0  0  0  0  0  0  0  0  0  0  0
  2 25  1  0  0  0  0
  2  1  2  0  0  0  0
  3 16  1  1  0  0  0
  4 20  2  0  0  0  0
  4 19  1  0  0  0  0
  5  6  1  6  0  0  0
  5 12  1  0  0  0  0
  7  2  1  1  0  0  0
  8  9  2  1  0  0  0
  8  7  1  0  0  0  0
 10 19  1  6  0  0  0
 10 18  1  0  0  0  0
 10  8  1  0  0  0  0
 11 17  1  6  0  0  0
 11  7  1  0  0  0  0
 11  3  1  0  0  0  0
 12  3  1  0  0  0  0
 13 21  1  6  0  0  0
 13 14  1  0  0  0  0
 14 23  1  6  0  0  0
 14  5  1  0  0  0  0
 15 20  1  6  0  0  0
 15 18  1  0  0  0  0
 15 13  1  0  0  0  0
 18 17  1  1  0  0  0
 22 21  1  0  0  0  0
 23 24  1  0  0  0  0
 26 27  1  0  0  0  0
 28 25  1  1  0  0  0
 28 26  1  0  0  0  0
 29 27  1  0  0  0  0
 30 31  1  0  0  0  0
 30 28  1  0  0  0  0
 31 32  1  6  0  0  0
 31 29  1  0  0  0  0
 33 32  2  0  0  0  0
 34 33  1  1  0  0  0
 35 43  1  1  0  0  0
 36 42  1  0  0  0  0
 37 34  1  0  0  0  0
 37 41  1  0  0  0  0
 39 37  1  0  0  0  0
 40 39  1  0  0  0  0
 40 36  1  0  0  0  0
 41 35  1  0  0  0  0
 42 38  2  0  0  0  0
 42 35  1  0  0  0  0
 45 44  1  0  0  0  0
 45 34  1  1  0  0  0
 46 47  2  0  0  0  0
 46 48  1  0  0  0  0
 47 45  1  0  0  0  0
 48 44  2  0  0  0  0
M  END
>  <MODEL>
4

>  <REMARK>
 VINA RESULT:      -7.9      1.998      3.498
  Name = 
  9 active torsions:
  status: ('A' for Active; 'I' for Inactive)
    1  A    between atoms: C_5  and  C_44
    2  A    between atoms: O_8  and  C_35
    3  A    between atoms: C_9  and  C_38
    4  A    between atoms: O_10  and  C_39
    5  A    between atoms: C_13  and  C_29
    6  A    between atoms: N_14  and  C_38
    7  A    between atoms: C_20  and  C_38
    8  A    between atoms: C_27  and  C_45
    9  A    between atoms: C_29  and  C_45
                            x       y       z     vdW  Elec       q    Type
                         _______ _______ _______ _____ _____    ______ ____

>  <TORSDO>
F 9

$$$$
=
 OpenBabel11062418293D

 48 53  0  0  1  0  0  0  0  0999 V2000
  194.9620  175.7050  146.4690 O   0  0  0  0  0  0  0  0  0  0  0  0
  194.1100  175.1590  145.7840 C   0  0  0  0  0  0  0  0  0  0  0  0
  195.5710  172.4300  145.2900 C   0  0  1  0  0  3  0  0  0  0  0  0
  193.8310  174.9630  139.9660 C   0  0  0  0  0  3  0  0  0  0  0  0
  194.2080  170.5380  144.2760 C   0  0  1  0  0  3  0  0  0  0  0  0
  194.3330  169.2280  143.5150 C   0  0  0  0  0  1  0  0  0  0  0  0
  194.4910  174.6480  144.4010 C   0  0  1  0  0  3  0  0  0  0  0  0
  194.8480  176.0610  143.3190 S   0  0  1  0  0  0  0  0  0  0  0  0
  196.0690  176.7130  143.9510 O   0  0  0  0  0  0  0  0  0  0  0  0
  195.5270  175.2730  141.8410 C   0  0  1  0  0  3  0  0  0  0  0  0
  195.6700  173.6350  144.3380 C   0  0  2  0  0  3  0  0  0  0  0  0
  195.5980  171.0840  144.5660 C   0  0  0  0  0  2  0  0  0  0  0  0
  193.6930  171.8130  142.0730 C   0  0  2  0  0  3  0  0  0  0  0  0
  193.2940  171.5380  143.5480 C   0  0  1  0  0  3  0  0  0  0  0  0
  193.9270  173.3120  141.7940 C   0  0  1  0  0  3  0  0  0  0  0  0
  196.7450  172.4610  146.2450 C   0  0  0  0  0  1  0  0  0  0  0  0
  196.1010  173.2090  143.0470 O   0  0  0  0  0  0  0  0  0  0  0  0
  195.4000  173.7520  141.9480 C   0  0  2  0  0  3  0  0  0  0  0  0
  194.8340  175.7470  140.6420 N   0  0  0  0  0  2  0  0  0  0  0  0
  193.4130  173.7950  140.4670 C   0  0  0  0  0  3  0  0  0  0  0  0
  192.9310  171.1190  141.1030 O   0  0  0  0  0  0  0  0  0  0  0  0
  193.7650  170.3890  140.3810 O   0  0  0  0  0  1  0  0  0  0  0  0
  191.9630  171.1260  143.6590 O   0  0  0  0  0  0  0  0  0  0  0  0
  191.3250  172.1190  144.4100 C   0  0  0  0  0  1  0  0  0  0  0  0
  192.7960  174.8470  146.4540 C   0  0  0  0  0  2  0  0  0  0  0  0
  190.8450  175.8400  147.6430 C   0  0  0  0  0  2  0  0  0  0  0  0
  189.5770  175.6370  146.9520 N   0  0  0  0  0  2  0  0  0  0  0  0
  191.9740  176.1150  146.6540 C   0  0  2  0  0  3  0  0  0  0  0  0
  189.1620  176.9130  146.3760 C   0  0  0  0  0  2  0  0  0  0  0  0
  191.4690  176.6190  145.3020 C   0  0  0  0  0  2  0  0  0  0  0  0
  190.2040  177.4740  145.3890 C   0  0  1  0  0  3  0  0  0  0  0  0
  189.6010  177.5670  144.0250 C   0  0  0  0  0  3  0  0  0  0  0  0
  189.0660  176.5040  143.4300 C   0  0  0  0  0  3  0  0  0  0  0  0
  188.4840  176.6230  142.0410 C   0  0  1  0  0  3  0  0  0  0  0  0
  188.4550  174.4380  139.0750 C   0  0  1  0  0  3  0  0  0  0  0  0
  189.2710  172.4250  140.4120 N   0  0  0  0  0  2  0  0  0  0  0  0
  188.9100  175.4410  141.2490 N   0  0  0  0  0  0  0  0  0  0  0  0
  187.9440  172.1570  138.5340 O   0  0  0  0  0  0  0  0  0  0  0  0
  189.0380  174.2360  142.0720 C   0  0  0  0  0  2  0  0  0  0  0  0
  189.9780  173.2400  141.4010 C   0  0  0  0  0  2  0  0  0  0  0  0
  187.8580  175.1540  140.2690 C   0  0  0  0  0  2  0  0  0  0  0  0
  188.4980  172.9560  139.3320 C   0  0  0  0  0  0  0  0  0  0  0  0
  187.6840  174.7490  137.8810 N   0  0  0  0  0  1  0  0  0  0  0  0
  186.4260  176.4380  143.5060 C   0  0  0  0  0  3  0  0  0  0  0  0
  186.9470  176.7870  142.1370 C   0  0  1  0  0  3  0  0  0  0  0  0
  185.9380  178.5540  143.2220 C   0  0  0  0  0  3  0  0  0  0  0  0
  186.5390  178.2300  142.0890 C   0  0  0  0  0  3  0  0  0  0  0  0
  185.8730  177.4400  144.0970 N   0  0  0  0  0  0  0  0  0  0  0  0
  2 25  1  0  0  0  0
  2  1  2  0  0  0  0
  3 16  1  1  0  0  0
  4 20  2  0  0  0  0
  4 19  1  0  0  0  0
  5  6  1  6  0  0  0
  5 12  1  0  0  0  0
  7  2  1  1  0  0  0
  8  9  2  1  0  0  0
  8  7  1  0  0  0  0
 10 19  1  6  0  0  0
 10 18  1  0  0  0  0
 10  8  1  0  0  0  0
 11 17  1  6  0  0  0
 11  7  1  0  0  0  0
 11  3  1  0  0  0  0
 12  3  1  0  0  0  0
 13 21  1  6  0  0  0
 13 14  1  0  0  0  0
 14 23  1  6  0  0  0
 14  5  1  0  0  0  0
 15 20  1  6  0  0  0
 15 18  1  0  0  0  0
 15 13  1  0  0  0  0
 18 17  1  1  0  0  0
 22 21  1  0  0  0  0
 23 24  1  0  0  0  0
 27 26  1  0  0  0  0
 28 25  1  6  0  0  0
 28 26  1  0  0  0  0
 29 27  1  0  0  0  0
 30 31  1  0  0  0  0
 30 28  1  0  0  0  0
 31 32  1  6  0  0  0
 31 29  1  0  0  0  0
 33 32  2  0  0  0  0
 34 33  1  1  0  0  0
 35 43  1  6  0  0  0
 35 42  1  0  0  0  0
 35 41  1  0  0  0  0
 36 40  1  0  0  0  0
 37 34  1  0  0  0  0
 37 39  1  0  0  0  0
 38 42  2  0  0  0  0
 40 39  1  0  0  0  0
 41 37  1  0  0  0  0
 42 36  1  0  0  0  0
 44 48  2  0  0  0  0
 45 34  1  1  0  0  0
 45 44  1  0  0  0  0
 46 48  1  0  0  0  0
 47 45  1  0  0  0  0
 47 46  2  0  0  0  0
M  END
>  <MODEL>
5

>  <REMARK>
 VINA RESULT:      -7.8      2.122      3.281
  Name = 
  9 active torsions:
  status: ('A' for Active; 'I' for Inactive)
    1  A    between atoms: C_5  and  C_44
    2  A    between atoms: O_8  and  C_35
    3  A    between atoms: C_9  and  C_38
    4  A    between atoms: O_10  and  C_39
    5  A    between atoms: C_13  and  C_29
    6  A    between atoms: N_14  and  C_38
    7  A    between atoms: C_20  and  C_38
    8  A    between atoms: C_27  and  C_45
    9  A    between atoms: C_29  and  C_45
                            x       y       z     vdW  Elec       q    Type
                         _______ _______ _______ _____ _____    ______ ____

>  <TORSDO>
F 9

$$$$
=
 OpenBabel11062418293D

 48 53  0  0  1  0  0  0  0  0999 V2000
  195.2440  176.1360  143.6440 O   0  0  0  0  0  0  0  0  0  0  0  0
  194.4080  175.8190  142.8110 C   0  0  0  0  0  0  0  0  0  0  0  0
  194.5900  172.6920  142.9380 C   0  0  1  0  0  3  0  0  0  0  0  0
  195.4250  174.6890  137.1850 C   0  0  0  0  0  3  0  0  0  0  0  0
  192.8090  171.3640  141.7010 C   0  0  1  0  0  3  0  0  0  0  0  0
  192.5180  170.0000  141.0950 C   0  0  0  0  0  1  0  0  0  0  0  0
  194.8340  174.9530  141.6330 C   0  0  1  0  0  3  0  0  0  0  0  0
  196.0160  175.8760  140.6090 S   0  0  1  0  0  0  0  0  0  0  0  0
  197.2150  176.0810  141.5210 O   0  0  0  0  0  0  0  0  0  0  0  0
  196.6000  174.6230  139.4430 C   0  0  1  0  0  3  0  0  0  0  0  0
  195.4260  173.5560  141.9780 C   0  0  2  0  0  3  0  0  0  0  0  0
  194.1890  171.3430  142.3420 C   0  0  0  0  0  2  0  0  0  0  0  0
  193.4330  172.3100  139.3640 C   0  0  2  0  0  3  0  0  0  0  0  0
  192.6250  172.4960  140.6770 C   0  0  1  0  0  3  0  0  0  0  0  0
  194.3600  173.5060  139.0660 C   0  0  1  0  0  3  0  0  0  0  0  0
  195.4020  172.4190  144.1860 C   0  0  0  0  0  1  0  0  0  0  0  0
  195.9120  172.7640  140.8960 O   0  0  0  0  0  0  0  0  0  0  0  0
  195.7960  173.3320  139.6090 C   0  0  2  0  0  3  0  0  0  0  0  0
  196.4840  175.1090  138.0670 N   0  0  0  0  0  2  0  0  0  0  0  0
  194.4330  173.9040  137.6190 C   0  0  0  0  0  3  0  0  0  0  0  0
  192.6900  171.8190  138.2630 O   0  0  0  0  0  0  0  0  0  0  0  0
  193.3450  170.7830  137.7650 O   0  0  0  0  0  1  0  0  0  0  0  0
  191.2630  172.6860  140.4260 O   0  0  0  0  0  0  0  0  0  0  0  0
  190.7050  173.0650  141.6520 C   0  0  0  0  0  1  0  0  0  0  0  0
  192.9710  176.1380  143.1320 C   0  0  0  0  0  2  0  0  0  0  0  0
  192.5950  174.7000  145.1320 C   0  0  0  0  0  2  0  0  0  0  0  0
  191.1940  174.3540  145.3440 N   0  0  0  0  0  2  0  0  0  0  0  0
  192.7390  176.1370  144.6390 C   0  0  2  0  0  3  0  0  0  0  0  0
  190.7070  175.1110  146.4940 C   0  0  0  0  0  2  0  0  0  0  0  0
  191.5230  177.0030  144.9730 C   0  0  0  0  0  2  0  0  0  0  0  0
  190.8370  176.6330  146.2880 C   0  0  1  0  0  3  0  0  0  0  0  0
  189.4800  177.2570  146.3060 C   0  0  0  0  0  3  0  0  0  0  0  0
  188.7990  177.4690  145.1820 C   0  0  0  0  0  3  0  0  0  0  0  0
  187.4380  178.1220  145.2290 C   0  0  1  0  0  3  0  0  0  0  0  0
  187.1570  176.6820  141.8500 C   0  0  1  0  0  3  0  0  0  0  0  0
  185.3040  178.3060  141.1910 N   0  0  0  0  0  2  0  0  0  0  0  0
  186.7280  177.8230  143.9610 N   0  0  0  0  0  0  0  0  0  0  0  0
  186.7520  177.4340  139.6090 O   0  0  0  0  0  0  0  0  0  0  0  0
  185.9310  178.9570  143.4880 C   0  0  0  0  0  2  0  0  0  0  0  0
  184.8200  178.4690  142.5640 C   0  0  0  0  0  2  0  0  0  0  0  0
  187.7380  177.5760  142.9270 C   0  0  0  0  0  2  0  0  0  0  0  0
  186.4370  177.5120  140.8240 C   0  0  0  0  0  0  0  0  0  0  0  0
  188.2180  175.8910  141.2460 N   0  0  0  0  0  1  0  0  0  0  0  0
  186.0050  178.7910  147.2080 C   0  0  0  0  0  3  0  0  0  0  0  0
  186.6810  177.6500  146.4950 C   0  0  1  0  0  3  0  0  0  0  0  0
  184.3850  177.4550  146.5860 C   0  0  0  0  0  3  0  0  0  0  0  0
  185.4700  176.8370  146.1460 C   0  0  0  0  0  3  0  0  0  0  0  0
  184.7240  178.6660  147.2410 N   0  0  0  0  0  0  0  0  0  0  0  0
  2 25  1  0  0  0  0
  2  1  2  0  0  0  0
  3 16  1  1  0  0  0
  4 20  2  0  0  0  0
  4 19  1  0  0  0  0
  5  6  1  6  0  0  0
  5 12  1  0  0  0  0
  7 11  1  0  0  0  0
  7  2  1  1  0  0  0
  8  9  2  1  0  0  0
  8  7  1  0  0  0  0
 10 19  1  6  0  0  0
 10 18  1  0  0  0  0
 10  8  1  0  0  0  0
 11 17  1  6  0  0  0
 11  3  1  0  0  0  0
 12  3  1  0  0  0  0
 13 21  1  6  0  0  0
 13 14  1  0  0  0  0
 14 23  1  6  0  0  0
 14  5  1  0  0  0  0
 15 20  1  6  0  0  0
 15 13  1  0  0  0  0
 15 18  1  0  0  0  0
 18 17  1  1  0  0  0
 22 21  1  0  0  0  0
 23 24  1  0  0  0  0
 26 27  1  0  0  0  0
 27 29  1  0  0  0  0
 28 25  1  6  0  0  0
 28 30  1  0  0  0  0
 28 26  1  0  0  0  0
 30 31  1  0  0  0  0
 31 32  1  6  0  0  0
 31 29  1  0  0  0  0
 33 32  2  0  0  0  0
 34 33  1  6  0  0  0
 35 43  1  6  0  0  0
 35 41  1  0  0  0  0
 36 40  1  0  0  0  0
 37 34  1  0  0  0  0
 38 42  2  0  0  0  0
 39 37  1  0  0  0  0
 40 39  1  0  0  0  0
 41 37  1  0  0  0  0
 42 36  1  0  0  0  0
 42 35  1  0  0  0  0
 44 48  2  0  0  0  0
 45 34  1  6  0  0  0
 45 44  1  0  0  0  0
 46 48  1  0  0  0  0
 47 45  1  0  0  0  0
 47 46  2  0  0  0  0
M  END
>  <MODEL>
6

>  <REMARK>
 VINA RESULT:      -7.7      1.425      1.752
  Name = 
  9 active torsions:
  status: ('A' for Active; 'I' for Inactive)
    1  A    between atoms: C_5  and  C_44
    2  A    between atoms: O_8  and  C_35
    3  A    between atoms: C_9  and  C_38
    4  A    between atoms: O_10  and  C_39
    5  A    between atoms: C_13  and  C_29
    6  A    between atoms: N_14  and  C_38
    7  A    between atoms: C_20  and  C_38
    8  A    between atoms: C_27  and  C_45
    9  A    between atoms: C_29  and  C_45
                            x       y       z     vdW  Elec       q    Type
                         _______ _______ _______ _____ _____    ______ ____

>  <TORSDO>
F 9

$$$$
=
 OpenBabel11062418293D

 48 53  0  0  1  0  0  0  0  0999 V2000
  193.5760  171.7160  144.9160 O   0  0  0  0  0  0  0  0  0  0  0  0
  193.0100  172.4950  144.1630 C   0  0  0  0  0  0  0  0  0  0  0  0
  192.6220  170.1280  142.1450 C   0  0  1  0  0  3  0  0  0  0  0  0
  194.6060  175.1660  139.2350 C   0  0  0  0  0  3  0  0  0  0  0  0
  190.8310  170.3930  140.3600 C   0  0  1  0  0  3  0  0  0  0  0  0
  190.3940  169.8810  138.9970 C   0  0  0  0  0  1  0  0  0  0  0  0
  193.4420  172.5550  142.7040 C   0  0  1  0  0  3  0  0  0  0  0  0
  194.9000  173.6250  142.5560 S   0  0  1  0  0  0  0  0  0  0  0  0
  195.9750  172.9010  143.3510 O   0  0  0  0  0  0  0  0  0  0  0  0
  195.4160  173.3640  140.8430 C   0  0  1  0  0  3  0  0  0  0  0  0
  193.7240  171.1930  142.0090 C   0  0  2  0  0  3  0  0  0  0  0  0
  192.0790  169.6450  140.8010 C   0  0  0  0  0  2  0  0  0  0  0  0
  191.9380  172.4720  139.2650 C   0  0  2  0  0  3  0  0  0  0  0  0
  190.9950  171.9220  140.3700 C   0  0  1  0  0  3  0  0  0  0  0  0
  193.0920  173.3170  139.8400 C   0  0  1  0  0  3  0  0  0  0  0  0
  193.1860  168.9260  142.8720 C   0  0  0  0  0  1  0  0  0  0  0  0
  194.2130  171.2280  140.6690 O   0  0  0  0  0  0  0  0  0  0  0  0
  194.3830  172.5110  140.1040 C   0  0  2  0  0  3  0  0  0  0  0  0
  195.5850  174.6470  140.1560 N   0  0  0  0  0  2  0  0  0  0  0  0
  193.4400  174.5410  139.0400 C   0  0  0  0  0  3  0  0  0  0  0  0
  191.2850  173.0140  138.1320 O   0  0  0  0  0  0  0  0  0  0  0  0
  191.7100  172.3520  137.0680 O   0  0  0  0  0  1  0  0  0  0  0  0
  189.7380  172.5310  140.3320 O   0  0  0  0  0  0  0  0  0  0  0  0
  189.4140  172.8070  141.6640 C   0  0  0  0  0  1  0  0  0  0  0  0
  191.7820  173.1870  144.6970 C   0  0  0  0  0  2  0  0  0  0  0  0
  192.7470  174.8450  146.2860 C   0  0  0  0  0  2  0  0  0  0  0  0
  191.8050  175.2890  147.3080 N   0  0  0  0  0  2  0  0  0  0  0  0
  192.0540  174.6670  144.9380 C   0  0  2  0  0  3  0  0  0  0  0  0
  191.4060  176.6590  146.9970 C   0  0  0  0  0  2  0  0  0  0  0  0
  190.7470  175.4550  144.8340 C   0  0  0  0  0  2  0  0  0  0  0  0
  190.7520  176.7740  145.6060 C   0  0  1  0  0  3  0  0  0  0  0  0
  189.3400  177.2400  145.7560 C   0  0  0  0  0  3  0  0  0  0  0  0
  188.6850  177.8050  144.7450 C   0  0  0  0  0  3  0  0  0  0  0  0
  187.2660  178.2870  144.9330 C   0  0  1  0  0  3  0  0  0  0  0  0
  186.8180  176.7710  141.6050 C   0  0  1  0  0  3  0  0  0  0  0  0
  184.8440  178.2910  141.0560 N   0  0  0  0  0  2  0  0  0  0  0  0
  186.4820  177.9290  143.7230 N   0  0  0  0  0  0  0  0  0  0  0  0
  186.2180  177.4610  139.3870 O   0  0  0  0  0  0  0  0  0  0  0  0
  185.5980  179.0140  143.2910 C   0  0  0  0  0  2  0  0  0  0  0  0
  184.4510  178.4560  142.4570 C   0  0  0  0  0  2  0  0  0  0  0  0
  187.4280  177.7130  142.6240 C   0  0  0  0  0  2  0  0  0  0  0  0
  185.9860  177.5460  140.6200 C   0  0  0  0  0  0  0  0  0  0  0  0
  187.8710  176.0220  140.9380 N   0  0  0  0  0  1  0  0  0  0  0  0
  185.9920  178.7450  147.0740 C   0  0  0  0  0  3  0  0  0  0  0  0
  186.6890  177.6990  146.2450 C   0  0  1  0  0  3  0  0  0  0  0  0
  184.4420  177.2870  146.5560 C   0  0  0  0  0  3  0  0  0  0  0  0
  185.5250  176.7900  145.9820 C   0  0  0  0  0  3  0  0  0  0  0  0
  184.7380  178.5000  147.2290 N   0  0  0  0  0  0  0  0  0  0  0  0
  2 25  1  0  0  0  0
  2  1  2  0  0  0  0
  3 16  1  6  0  0  0
  4 19  1  0  0  0  0
  5  6  1  6  0  0  0
  5 14  1  0  0  0  0
  5 12  1  0  0  0  0
  7  2  1  1  0  0  0
  8  7  1  0  0  0  0
  8  9  2  1  0  0  0
 10 19  1  6  0  0  0
 10  8  1  0  0  0  0
 11 17  1  6  0  0  0
 11  3  1  0  0  0  0
 11  7  1  0  0  0  0
 12  3  1  0  0  0  0
 13 21  1  6  0  0  0
 13 15  1  0  0  0  0
 13 14  1  0  0  0  0
 14 23  1  6  0  0  0
 15 20  1  6  0  0  0
 15 18  1  0  0  0  0
 18 17  1  1  0  0  0
 18 10  1  0  0  0  0
 20  4  2  0  0  0  0
 22 21  1  0  0  0  0
 23 24  1  0  0  0  0
 26 27  1  0  0  0  0
 28 25  1  1  0  0  0
 28 26  1  0  0  0  0
 29 27  1  0  0  0  0
 30 28  1  0  0  0  0
 30 31  1  0  0  0  0
 31 32  1  1  0  0  0
 31 29  1  0  0  0  0
 33 32  2  0  0  0  0
 34 33  1  6  0  0  0
 35 43  1  6  0  0  0
 35 41  1  0  0  0  0
 36 40  1  0  0  0  0
 37 34  1  0  0  0  0
 38 42  2  0  0  0  0
 39 37  1  0  0  0  0
 40 39  1  0  0  0  0
 41 37  1  0  0  0  0
 42 36  1  0  0  0  0
 42 35  1  0  0  0  0
 44 48  2  0  0  0  0
 45 34  1  6  0  0  0
 45 44  1  0  0  0  0
 46 48  1  0  0  0  0
 47 45  1  0  0  0  0
 47 46  2  0  0  0  0
M  END
>  <MODEL>
7

>  <REMARK>
 VINA RESULT:      -7.7      2.108      3.217
  Name = 
  9 active torsions:
  status: ('A' for Active; 'I' for Inactive)
    1  A    between atoms: C_5  and  C_44
    2  A    between atoms: O_8  and  C_35
    3  A    between atoms: C_9  and  C_38
    4  A    between atoms: O_10  and  C_39
    5  A    between atoms: C_13  and  C_29
    6  A    between atoms: N_14  and  C_38
    7  A    between atoms: C_20  and  C_38
    8  A    between atoms: C_27  and  C_45
    9  A    between atoms: C_29  and  C_45
                            x       y       z     vdW  Elec       q    Type
                         _______ _______ _______ _____ _____    ______ ____

>  <TORSDO>
F 9

$$$$
=
 OpenBabel11062418293D

 48 53  0  0  1  0  0  0  0  0999 V2000
  190.8460  171.6170  143.1100 O   0  0  0  0  0  0  0  0  0  0  0  0
  191.4730  172.1860  143.9920 C   0  0  0  0  0  0  0  0  0  0  0  0
  193.0240  173.1210  141.4340 C   0  0  1  0  0  3  0  0  0  0  0  0
  196.8880  172.2930  146.1420 C   0  0  0  0  0  3  0  0  0  0  0  0
  194.1710  175.3890  141.5240 C   0  0  1  0  0  3  0  0  0  0  0  0
  195.2710  176.2160  140.8770 C   0  0  0  0  0  1  0  0  0  0  0  0
  192.9920  172.2360  143.9020 C   0  0  1  0  0  3  0  0  0  0  0  0
  193.6960  170.9280  144.9450 S   0  0  1  0  0  0  0  0  0  0  0  0
  193.2130  169.6380  144.3010 O   0  0  0  0  0  0  0  0  0  0  0  0
  195.4500  170.9690  144.5100 C   0  0  1  0  0  3  0  0  0  0  0  0
  193.6040  172.1480  142.4750 C   0  0  2  0  0  3  0  0  0  0  0  0
  194.0750  174.0440  140.8190 C   0  0  0  0  0  2  0  0  0  0  0  0
  195.7570  174.7400  143.4760 C   0  0  2  0  0  3  0  0  0  0  0  0
  194.3630  175.2720  143.0450 C   0  0  1  0  0  3  0  0  0  0  0  0
  195.6600  173.4880  144.3710 C   0  0  1  0  0  3  0  0  0  0  0  0
  192.3990  172.3240  140.3100 C   0  0  0  0  0  1  0  0  0  0  0  0
  195.0260  172.1050  142.3720 O   0  0  0  0  0  0  0  0  0  0  0  0
  195.7390  172.1570  143.5900 C   0  0  2  0  0  3  0  0  0  0  0  0
  196.2770  171.0600  145.7150 N   0  0  0  0  0  2  0  0  0  0  0  0
  196.6450  173.4430  145.5050 C   0  0  0  0  0  3  0  0  0  0  0  0
  196.6740  175.7300  143.9020 O   0  0  0  0  0  0  0  0  0  0  0  0
  197.8710  175.3900  143.4540 O   0  0  0  0  0  1  0  0  0  0  0  0
  194.0630  176.4950  143.6520 O   0  0  0  0  0  0  0  0  0  0  0  0
  192.8330  176.8890  143.1140 C   0  0  0  0  0  1  0  0  0  0  0  0
  190.6720  172.9780  144.9940 C   0  0  0  0  0  2  0  0  0  0  0  0
  191.7720  174.6350  146.4950 C   0  0  0  0  0  2  0  0  0  0  0  0
  190.8350  175.3690  147.3380 N   0  0  0  0  0  2  0  0  0  0  0  0
  191.1970  174.4060  145.1000 C   0  0  2  0  0  3  0  0  0  0  0  0
  190.7380  176.7350  146.8290 C   0  0  0  0  0  2  0  0  0  0  0  0
  190.0810  175.3920  144.7500 C   0  0  0  0  0  2  0  0  0  0  0  0
  190.2610  176.7800  145.3650 C   0  0  1  0  0  3  0  0  0  0  0  0
  188.9560  177.5040  145.2870 C   0  0  0  0  0  3  0  0  0  0  0  0
  187.8590  176.9080  144.8270 C   0  0  0  0  0  3  0  0  0  0  0  0
  186.5590  177.6730  144.7390 C   0  0  1  0  0  3  0  0  0  0  0  0
  186.6950  176.5820  141.2220 C   0  0  1  0  0  3  0  0  0  0  0  0
  184.9400  178.2900  140.5090 N   0  0  0  0  0  2  0  0  0  0  0  0
  186.0100  177.5120  143.3680 N   0  0  0  0  0  0  0  0  0  0  0  0
  186.5710  177.5620  139.0360 O   0  0  0  0  0  0  0  0  0  0  0  0
  185.2790  178.6990  142.9190 C   0  0  0  0  0  2  0  0  0  0  0  0
  184.2910  178.3220  141.8210 C   0  0  0  0  0  2  0  0  0  0  0  0
  187.1390  177.3560  142.4470 C   0  0  0  0  0  2  0  0  0  0  0  0
  186.1080  177.5220  140.2050 C   0  0  0  0  0  0  0  0  0  0  0  0
  187.8210  175.8420  140.6750 N   0  0  0  0  0  1  0  0  0  0  0  0
  186.3260  176.9170  147.1450 C   0  0  0  0  0  3  0  0  0  0  0  0
  185.5990  177.1920  145.8550 C   0  0  1  0  0  3  0  0  0  0  0  0
  184.9280  178.5400  147.6010 C   0  0  0  0  0  3  0  0  0  0  0  0
  184.6950  178.2930  146.3220 C   0  0  0  0  0  3  0  0  0  0  0  0
  185.9420  177.6850  148.1040 N   0  0  0  0  0  0  0  0  0  0  0  0
  1  2  2  0  0  0  0
  2 25  1  0  0  0  0
  3 16  1  6  0  0  0
  3 11  1  0  0  0  0
  5  6  1  6  0  0  0
  5 14  1  0  0  0  0
  7  2  1  6  0  0  0
  7  8  1  0  0  0  0
  8  9  2  6  0  0  0
 10  8  1  0  0  0  0
 10 19  1  1  0  0  0
 11 17  1  1  0  0  0
 11  7  1  0  0  0  0
 12  3  1  0  0  0  0
 12  5  1  0  0  0  0
 13 21  1  1  0  0  0
 13 15  1  0  0  0  0
 14 13  1  0  0  0  0
 14 23  1  1  0  0  0
 15 20  1  1  0  0  0
 18 17  1  6  0  0  0
 18 15  1  0  0  0  0
 18 10  1  0  0  0  0
 19  4  1  0  0  0  0
 20  4  2  0  0  0  0
 22 21  1  0  0  0  0
 24 23  1  0  0  0  0
 26 27  1  0  0  0  0
 28 25  1  1  0  0  0
 28 26  1  0  0  0  0
 29 27  1  0  0  0  0
 30 28  1  0  0  0  0
 30 31  1  0  0  0  0
 31 32  1  1  0  0  0
 31 29  1  0  0  0  0
 33 32  2  0  0  0  0
 34 33  1  6  0  0  0
 35 43  1  6  0  0  0
 35 41  1  0  0  0  0
 36 40  1  0  0  0  0
 37 34  1  0  0  0  0
 38 42  2  0  0  0  0
 39 37  1  0  0  0  0
 40 39  1  0  0  0  0
 41 37  1  0  0  0  0
 42 36  1  0  0  0  0
 42 35  1  0  0  0  0
 44 48  2  0  0  0  0
 45 34  1  6  0  0  0
 45 47  1  0  0  0  0
 45 44  1  0  0  0  0
 46 48  1  0  0  0  0
 47 46  2  0  0  0  0
M  END
>  <MODEL>
8

>  <REMARK>
 VINA RESULT:      -7.6      2.157      4.138
  Name = 
  9 active torsions:
  status: ('A' for Active; 'I' for Inactive)
    1  A    between atoms: C_5  and  C_44
    2  A    between atoms: O_8  and  C_35
    3  A    between atoms: C_9  and  C_38
    4  A    between atoms: O_10  and  C_39
    5  A    between atoms: C_13  and  C_29
    6  A    between atoms: N_14  and  C_38
    7  A    between atoms: C_20  and  C_38
    8  A    between atoms: C_27  and  C_45
    9  A    between atoms: C_29  and  C_45
                            x       y       z     vdW  Elec       q    Type
                         _______ _______ _______ _____ _____    ______ ____

>  <TORSDO>
F 9

$$$$
=
 OpenBabel11062418293D

 48 53  0  0  1  0  0  0  0  0999 V2000
  191.4020  174.0480  145.5300 O   0  0  0  0  0  0  0  0  0  0  0  0
  190.2220  174.0040  145.2140 C   0  0  0  0  0  0  0  0  0  0  0  0
  190.6850  176.7690  143.8120 C   0  0  1  0  0  3  0  0  0  0  0  0
  185.4210  176.7920  146.9860 C   0  0  0  0  0  3  0  0  0  0  0  0
  189.0330  177.4580  142.0060 C   0  0  1  0  0  3  0  0  0  0  0  0
  188.4890  178.6650  141.2580 C   0  0  0  0  0  1  0  0  0  0  0  0
  189.3470  175.2260  145.4560 C   0  0  1  0  0  3  0  0  0  0  0  0
  188.7180  175.1820  147.1580 S   0  0  1  0  0  0  0  0  0  0  0  0
  189.9660  175.2990  148.0190 O   0  0  0  0  0  0  0  0  0  0  0  0
  187.9430  176.8060  147.3420 C   0  0  1  0  0  3  0  0  0  0  0  0
  190.0000  176.6110  145.1800 C   0  0  2  0  0  3  0  0  0  0  0  0
  190.1110  177.9140  142.9770 C   0  0  0  0  0  2  0  0  0  0  0  0
  186.9810  177.4720  143.5980 C   0  0  2  0  0  3  0  0  0  0  0  0
  187.9110  176.6430  142.6710 C   0  0  1  0  0  3  0  0  0  0  0  0
  186.9170  176.9040  145.0300 C   0  0  1  0  0  3  0  0  0  0  0  0
  192.1560  177.0520  144.0280 C   0  0  0  0  0  1  0  0  0  0  0  0
  189.2290  177.7720  145.4830 O   0  0  0  0  0  0  0  0  0  0  0  0
  187.9360  177.5420  146.0010 C   0  0  2  0  0  3  0  0  0  0  0  0
  186.5740  176.6680  147.8420 N   0  0  0  0  0  2  0  0  0  0  0  0
  185.5550  176.9410  145.6650 C   0  0  0  0  0  3  0  0  0  0  0  0
  185.7410  177.8470  143.0290 O   0  0  0  0  0  0  0  0  0  0  0  0
  185.6540  179.1650  143.0820 O   0  0  0  0  0  1  0  0  0  0  0  0
  187.1880  175.9520  141.6940 O   0  0  0  0  0  0  0  0  0  0  0  0
  188.1470  175.3070  140.9050 C   0  0  0  0  0  1  0  0  0  0  0  0
  189.7780  172.8090  144.4100 C   0  0  0  0  0  2  0  0  0  0  0  0
  189.5590  171.8100  142.1380 C   0  0  0  0  0  2  0  0  0  0  0  0
  190.6770  170.9480  141.7710 N   0  0  0  0  0  2  0  0  0  0  0  0
  190.0370  173.0280  142.9240 C   0  0  2  0  0  3  0  0  0  0  0  0
  191.4830  171.6460  140.7740 C   0  0  0  0  0  2  0  0  0  0  0  0
  191.5190  173.3350  142.6990 C   0  0  0  0  0  2  0  0  0  0  0  0
  192.0200  172.9930  141.2960 C   0  0  1  0  0  3  0  0  0  0  0  0
  193.5130  172.9590  141.3220 C   0  0  0  0  0  3  0  0  0  0  0  0
  194.1830  172.7790  142.4580 C   0  0  0  0  0  3  0  0  0  0  0  0
  195.6930  172.7720  142.4570 C   0  0  1  0  0  3  0  0  0  0  0  0
  195.6120  175.4090  145.0280 C   0  0  1  0  0  3  0  0  0  0  0  0
  196.7980  177.0810  143.5100 N   0  0  0  0  0  2  0  0  0  0  0  0
  196.1710  174.0190  143.1060 N   0  0  0  0  0  0  0  0  0  0  0  0
  195.3220  177.7880  145.1470 O   0  0  0  0  0  0  0  0  0  0  0  0
  196.5290  175.0520  142.1310 C   0  0  0  0  0  2  0  0  0  0  0  0
  197.5040  176.0450  142.7520 C   0  0  0  0  0  2  0  0  0  0  0  0
  195.0630  174.5690  143.8920 C   0  0  0  0  0  2  0  0  0  0  0  0
  195.8570  176.8160  144.5550 C   0  0  0  0  0  0  0  0  0  0  0  0
  194.6870  175.3790  146.1510 N   0  0  0  0  0  1  0  0  0  0  0  0
  197.3680  171.7480  144.0590 C   0  0  0  0  0  3  0  0  0  0  0  0
  196.2050  171.4790  143.1400 C   0  0  1  0  0  3  0  0  0  0  0  0
  195.7770  170.9700  145.3480 C   0  0  0  0  0  3  0  0  0  0  0  0
  195.2230  170.9560  144.1460 C   0  0  0  0  0  3  0  0  0  0  0  0
  197.1050  171.4640  145.2870 N   0  0  0  0  0  0  0  0  0  0  0  0
  2  1  2  0  0  0  0
  3 16  1  1  0  0  0
  3 11  1  0  0  0  0
  4 19  1  0  0  0  0
  5  6  1  1  0  0  0
  5 14  1  0  0  0  0
  5 12  1  0  0  0  0
  7  2  1  1  0  0  0
  7  8  1  0  0  0  0
  8 10  1  0  0  0  0
  8  9  2  1  0  0  0
 10 19  1  6  0  0  0
 11  7  1  0  0  0  0
 11 17  1  6  0  0  0
 12  3  1  0  0  0  0
 13 21  1  6  0  0  0
 13 15  1  0  0  0  0
 14 23  1  6  0  0  0
 14 13  1  0  0  0  0
 15 20  1  1  0  0  0
 15 18  1  0  0  0  0
 18 17  1  6  0  0  0
 18 10  1  0  0  0  0
 20  4  2  0  0  0  0
 21 22  1  0  0  0  0
 24 23  1  0  0  0  0
 25  2  1  0  0  0  0
 26 28  1  0  0  0  0
 27 26  1  0  0  0  0
 28 25  1  1  0  0  0
 29 31  1  0  0  0  0
 29 27  1  0  0  0  0
 30 28  1  0  0  0  0
 31 32  1  1  0  0  0
 31 30  1  0  0  0  0
 32 33  2  0  0  0  0
 34 33  1  1  0  0  0
 34 37  1  0  0  0  0
 35 43  1  1  0  0  0
 36 42  1  0  0  0  0
 37 41  1  0  0  0  0
 39 40  1  0  0  0  0
 39 37  1  0  0  0  0
 40 36  1  0  0  0  0
 41 35  1  0  0  0  0
 42 35  1  0  0  0  0
 42 38  2  0  0  0  0
 44 48  2  0  0  0  0
 45 34  1  1  0  0  0
 45 44  1  0  0  0  0
 45 47  1  0  0  0  0
 47 46  2  0  0  0  0
 48 46  1  0  0  0  0
M  END
>  <MODEL>
9

>  <REMARK>
 VINA RESULT:      -7.6      3.243      9.641
  Name = 
  9 active torsions:
  status: ('A' for Active; 'I' for Inactive)
    1  A    between atoms: C_5  and  C_44
    2  A    between atoms: O_8  and  C_35
    3  A    between atoms: C_9  and  C_38
    4  A    between atoms: O_10  and  C_39
    5  A    between atoms: C_13  and  C_29
    6  A    between atoms: N_14  and  C_38
    7  A    between atoms: C_20  and  C_38
    8  A    between atoms: C_27  and  C_45
    9  A    between atoms: C_29  and  C_45
                            x       y       z     vdW  Elec       q    Type
                         _______ _______ _______ _____ _____    ______ ____

>  <TORSDO>
F 9

$$$$
