=
 OpenBabel11062419053D

 32 36  0  0  1  0  0  0  0  0999 V2000
  187.9460  174.2000  138.8010 O   0  0  0  0  0  0  0  0  0  0  0  0
  188.9600  175.4230  141.9380 C   0  0  0  0  0  0  0  0  0  0  0  0
  189.7130  174.3310  141.9040 C   0  0  0  0  0  0  0  0  0  0  0  0
  188.4710  174.4290  139.9220 C   0  0  0  0  0  0  0  0  0  0  0  0
  188.6610  176.6960  143.1400 S   0  0  0  0  0  0  0  0  0  0  0  0
  188.1720  175.5440  140.7840 C   0  0  0  0  0  0  0  0  0  0  0  0
  187.4320  177.3140  141.9880 N   0  0  0  0  0  0  0  0  0  0  0  0
  189.5120  173.5820  140.6010 C   0  0  0  0  0  2  0  0  0  0  0  0
  187.3150  176.5400  140.7850 C   0  0  0  0  0  3  0  0  0  0  0  0
  184.3220  177.9200  143.4880 O   0  0  0  0  0  0  0  0  0  0  0  0
  186.5370  178.6680  143.8030 C   0  0  0  0  0  2  0  0  0  0  0  0
  185.3020  178.1090  144.4770 C   0  0  1  0  0  3  0  0  0  0  0  0
  186.3810  178.2470  142.3720 C   0  0  2  0  0  3  0  0  0  0  0  0
  185.0300  177.5690  142.3290 C   0  0  0  0  0  2  0  0  0  0  0  0
  184.7940  179.0550  145.5680 C   0  0  1  0  0  3  0  0  0  0  0  0
  183.3960  179.0300  145.6040 O   0  0  0  0  0  1  0  0  0  0  0  0
  186.1360  177.5600  146.8690 F   0  0  0  0  0  0  0  0  0  0  0  0
  186.0910  179.7360  147.4620 F   0  0  0  0  0  0  0  0  0  0  0  0
  185.3440  178.6910  146.9510 C   0  0  0  0  0  0  0  0  0  0  0  0
  184.2920  178.4430  147.8130 F   0  0  0  0  0  0  0  0  0  0  0  0
  190.6570  173.9090  142.9770 C   0  0  0  0  0  2  0  0  0  0  0  0
  189.8910  173.3720  144.1750 C   0  0  0  0  0  2  0  0  0  0  0  0
  192.3000  175.4810  146.3360 C   0  0  2  0  0  0  0  0  0  0  0  0
  189.4410  174.6730  146.2710 C   0  0  0  0  0  2  0  0  0  0  0  0
  190.4930  173.8930  145.4670 C   0  0  2  0  0  3  0  0  0  0  0  0
  190.0050  175.3950  147.5010 C   0  0  0  0  0  2  0  0  0  0  0  0
  191.6160  176.1930  145.1620 C   0  0  2  0  0  3  0  0  0  0  0  0
  191.5250  175.2910  147.6490 C   0  0  0  0  0  2  0  0  0  0  0  0
  193.8180  175.4810  146.4280 C   0  0  0  0  0  1  0  0  0  0  0  0
  191.7890  174.6710  145.1520 C   0  0  1  0  0  3  0  0  0  0  0  0
  191.8980  177.6360  143.2890 O   0  0  0  0  0  1  0  0  0  0  0  0
  192.5930  176.8160  144.1770 C   0  0  0  0  0  2  0  0  0  0  0  0
  1  4  2  0  0  0  0
  2  5  1  0  0  0  0
  3  2  2  0  0  0  0
  3 21  1  0  0  0  0
  4  8  1  0  0  0  0
  4  6  1  0  0  0  0
  6  9  2  0  0  0  0
  6  2  1  0  0  0  0
  7  5  1  0  0  0  0
  8  3  1  0  0  0  0
  9  7  1  0  0  0  0
 10 12  1  0  0  0  0
 11 12  1  0  0  0  0
 12 15  1  1  0  0  0
 13  7  1  1  0  0  0
 13 11  1  0  0  0  0
 14 13  1  0  0  0  0
 14 10  1  0  0  0  0
 15 16  1  1  0  0  0
 15 19  1  0  0  0  0
 17 19  1  0  0  0  0
 19 18  1  0  0  0  0
 19 20  1  0  0  0  0
 21 22  1  0  0  0  0
 23 29  1  1  0  0  0
 23 28  1  0  0  0  0
 24 26  1  0  0  0  0
 25 22  1  6  0  0  0
 25 24  1  0  0  0  0
 26 28  1  0  0  0  0
 27 32  1  6  0  0  0
 27 23  1  0  0  0  0
 30 27  1  0  0  0  0
 30 25  1  0  0  0  0
 30 23  1  0  0  0  0
 31 32  1  0  0  0  0
M  END
>  <MODEL>
1

>  <REMARK>
 VINA RESULT:      -8.0      0.000      0.000
  Name = 
  7 active torsions:
  status: ('A' for Active; 'I' for Inactive)
    1  A    between atoms: C_2  and  C_8
    2  A    between atoms: C_2  and  C_13
    3  A    between atoms: C_6  and  C_13
    4  A    between atoms: C_15  and  C_17
    5  A    between atoms: C_15  and  C_25
    6  A    between atoms: C_20  and  N_23
    7  A    between atoms: C_21  and  C_27
                            x       y       z     vdW  Elec       q    Type
                         _______ _______ _______ _____ _____    ______ ____

>  <TORSDO>
F 7

$$$$
=
 OpenBabel11062419053D

 32 36  0  0  1  0  0  0  0  0999 V2000
  189.4760  173.4650  139.9540 O   0  0  0  0  0  0  0  0  0  0  0  0
  189.5700  174.6010  143.2800 C   0  0  0  0  0  0  0  0  0  0  0  0
  190.2150  173.4530  143.4490 C   0  0  0  0  0  0  0  0  0  0  0  0
  189.6490  173.6510  141.1860 C   0  0  0  0  0  0  0  0  0  0  0  0
  189.0130  175.8920  144.3650 S   0  0  0  0  0  0  0  0  0  0  0  0
  189.1840  174.7840  141.9440 C   0  0  0  0  0  0  0  0  0  0  0  0
  188.2450  176.6060  142.9090 N   0  0  0  0  0  0  0  0  0  0  0  0
  190.3660  172.7240  142.1280 C   0  0  0  0  0  2  0  0  0  0  0  0
  188.4440  175.8450  141.7090 C   0  0  0  0  0  3  0  0  0  0  0  0
  184.9610  177.5130  143.7360 O   0  0  0  0  0  0  0  0  0  0  0  0
  187.1270  178.2180  144.3510 C   0  0  0  0  0  2  0  0  0  0  0  0
  185.7630  177.7970  144.8550 C   0  0  1  0  0  3  0  0  0  0  0  0
  187.1990  177.6170  142.9790 C   0  0  2  0  0  3  0  0  0  0  0  0
  185.8390  176.9870  142.7770 C   0  0  0  0  0  2  0  0  0  0  0  0
  185.1270  178.8970  145.7100 C   0  0  1  0  0  3  0  0  0  0  0  0
  183.7460  178.9270  145.4940 O   0  0  0  0  0  1  0  0  0  0  0  0
  184.2150  178.5250  147.8920 F   0  0  0  0  0  0  0  0  0  0  0  0
  186.2110  177.5940  147.4030 F   0  0  0  0  0  0  0  0  0  0  0  0
  185.4030  178.6990  147.2040 C   0  0  0  0  0  0  0  0  0  0  0  0
  186.0530  179.8120  147.7030 F   0  0  0  0  0  0  0  0  0  0  0  0
  190.7520  172.9570  144.7480 C   0  0  0  0  0  2  0  0  0  0  0  0
  192.2440  172.6860  144.6340 C   0  0  0  0  0  2  0  0  0  0  0  0
  194.2870  175.9640  144.6750 C   0  0  2  0  0  0  0  0  0  0  0  0
  192.1520  174.6120  146.2380 C   0  0  0  0  0  2  0  0  0  0  0  0
  193.0380  173.8120  145.2690 C   0  0  2  0  0  3  0  0  0  0  0  0
  192.8130  175.8820  146.7850 C   0  0  0  0  0  2  0  0  0  0  0  0
  192.9990  175.9590  143.8420 C   0  0  2  0  0  3  0  0  0  0  0  0
  194.1950  176.1760  146.1940 C   0  0  0  0  0  2  0  0  0  0  0  0
  195.6060  176.3260  144.0100 C   0  0  0  0  0  1  0  0  0  0  0  0
  193.7200  174.6460  144.1630 C   0  0  1  0  0  3  0  0  0  0  0  0
  192.8660  175.2220  141.5820 O   0  0  0  0  0  1  0  0  0  0  0  0
  193.2200  176.3090  142.3790 C   0  0  0  0  0  2  0  0  0  0  0  0
  1  4  2  0  0  0  0
  2  3  2  0  0  0  0
  2  5  1  0  0  0  0
  3 21  1  0  0  0  0
  4  6  1  0  0  0  0
  4  8  1  0  0  0  0
  6  2  1  0  0  0  0
  7 13  1  0  0  0  0
  7  5  1  0  0  0  0
  8  3  1  0  0  0  0
  9  6  2  0  0  0  0
  9  7  1  0  0  0  0
 10 12  1  0  0  0  0
 11 12  1  0  0  0  0
 12 15  1  6  0  0  0
 13 14  1  1  0  0  0
 13 11  1  0  0  0  0
 14 10  1  0  0  0  0
 15 16  1  1  0  0  0
 15 19  1  0  0  0  0
 19 18  1  0  0  0  0
 19 20  1  0  0  0  0
 19 17  1  0  0  0  0
 22 21  1  0  0  0  0
 23 29  1  6  0  0  0
 23 28  1  0  0  0  0
 24 26  1  0  0  0  0
 25 22  1  6  0  0  0
 25 24  1  0  0  0  0
 27 32  1  6  0  0  0
 27 30  1  0  0  0  0
 27 23  1  0  0  0  0
 28 26  1  0  0  0  0
 30 23  1  0  0  0  0
 30 25  1  0  0  0  0
 31 32  1  0  0  0  0
M  END
>  <MODEL>
2

>  <REMARK>
 VINA RESULT:      -7.8      1.391      2.011
  Name = 
  7 active torsions:
  status: ('A' for Active; 'I' for Inactive)
    1  A    between atoms: C_2  and  C_8
    2  A    between atoms: C_2  and  C_13
    3  A    between atoms: C_6  and  C_13
    4  A    between atoms: C_15  and  C_17
    5  A    between atoms: C_15  and  C_25
    6  A    between atoms: C_20  and  N_23
    7  A    between atoms: C_21  and  C_27
                            x       y       z     vdW  Elec       q    Type
                         _______ _______ _______ _____ _____    ______ ____

>  <TORSDO>
F 7

$$$$
=
 OpenBabel11062419053D

 32 36  0  0  1  0  0  0  0  0999 V2000
  187.5490  172.8560  141.7800 O   0  0  0  0  0  0  0  0  0  0  0  0
  189.4500  175.7760  142.2560 C   0  0  0  0  0  0  0  0  0  0  0  0
  190.4350  174.8890  142.3280 C   0  0  0  0  0  0  0  0  0  0  0  0
  188.4330  173.7340  141.9550 C   0  0  0  0  0  0  0  0  0  0  0  0
  189.3380  177.5360  142.4580 S   0  0  0  0  0  0  0  0  0  0  0  0
  188.2100  175.1540  142.0480 C   0  0  0  0  0  0  0  0  0  0  0  0
  187.5670  177.3140  142.2710 N   0  0  0  0  0  0  0  0  0  0  0  0
  189.9080  173.4830  142.1150 C   0  0  0  0  0  2  0  0  0  0  0  0
  187.1650  175.9510  142.0750 C   0  0  0  0  0  3  0  0  0  0  0  0
  184.3880  178.1330  143.5020 O   0  0  0  0  0  0  0  0  0  0  0  0
  186.6200  178.5290  144.1560 C   0  0  0  0  0  2  0  0  0  0  0  0
  185.2530  178.0590  144.6070 C   0  0  1  0  0  3  0  0  0  0  0  0
  186.5940  178.3210  142.6720 C   0  0  2  0  0  3  0  0  0  0  0  0
  185.1880  177.8420  142.3870 C   0  0  0  0  0  2  0  0  0  0  0  0
  184.7290  178.9160  145.7630 C   0  0  1  0  0  3  0  0  0  0  0  0
  183.3310  178.8800  145.7840 O   0  0  0  0  0  1  0  0  0  0  0  0
  185.7400  177.1530  147.0270 F   0  0  0  0  0  0  0  0  0  0  0  0
  186.2920  179.2790  147.5400 F   0  0  0  0  0  0  0  0  0  0  0  0
  185.2690  178.4510  147.1190 C   0  0  0  0  0  0  0  0  0  0  0  0
  184.2540  178.4950  148.0580 F   0  0  0  0  0  0  0  0  0  0  0  0
  191.8710  175.2220  142.5480 C   0  0  0  0  0  2  0  0  0  0  0  0
  192.6550  173.9700  142.9100 C   0  0  0  0  0  2  0  0  0  0  0  0
  194.3020  175.6180  145.9920 C   0  0  2  0  0  0  0  0  0  0  0  0
  194.3420  173.0400  144.5160 C   0  0  0  0  0  2  0  0  0  0  0  0
  193.7950  174.3130  143.8510 C   0  0  2  0  0  3  0  0  0  0  0  0
  195.3700  173.3040  145.6210 C   0  0  0  0  0  2  0  0  0  0  0  0
  192.9640  174.9040  146.2180 C   0  0  2  0  0  3  0  0  0  0  0  0
  195.5930  174.7880  145.9300 C   0  0  0  0  0  2  0  0  0  0  0  0
  194.4440  177.0810  146.3850 C   0  0  0  0  0  1  0  0  0  0  0  0
  193.3410  175.4200  144.8270 C   0  0  1  0  0  3  0  0  0  0  0  0
  191.3350  175.1800  147.9320 O   0  0  0  0  0  1  0  0  0  0  0  0
  191.8900  175.8000  146.8140 C   0  0  0  0  0  2  0  0  0  0  0  0
  1  4  2  0  0  0  0
  2  3  2  0  0  0  0
  2  5  1  0  0  0  0
  3 21  1  0  0  0  0
  4  6  1  0  0  0  0
  4  8  1  0  0  0  0
  6  9  2  0  0  0  0
  6  2  1  0  0  0  0
  7  5  1  0  0  0  0
  8  3  1  0  0  0  0
  9  7  1  0  0  0  0
 10 12  1  0  0  0  0
 11 12  1  0  0  0  0
 12 15  1  1  0  0  0
 13  7  1  1  0  0  0
 13 11  1  0  0  0  0
 14 13  1  0  0  0  0
 14 10  1  0  0  0  0
 15 16  1  1  0  0  0
 15 19  1  0  0  0  0
 17 19  1  0  0  0  0
 19 18  1  0  0  0  0
 19 20  1  0  0  0  0
 21 22  1  0  0  0  0
 23 27  1  0  0  0  0
 23 29  1  1  0  0  0
 24 26  1  0  0  0  0
 25 22  1  1  0  0  0
 25 24  1  0  0  0  0
 25 30  1  0  0  0  0
 26 28  1  0  0  0  0
 27 32  1  1  0  0  0
 28 23  1  0  0  0  0
 30 23  1  0  0  0  0
 30 27  1  0  0  0  0
 32 31  1  0  0  0  0
M  END
>  <MODEL>
3

>  <REMARK>
 VINA RESULT:      -7.8      1.684      2.439
  Name = 
  7 active torsions:
  status: ('A' for Active; 'I' for Inactive)
    1  A    between atoms: C_2  and  C_8
    2  A    between atoms: C_2  and  C_13
    3  A    between atoms: C_6  and  C_13
    4  A    between atoms: C_15  and  C_17
    5  A    between atoms: C_15  and  C_25
    6  A    between atoms: C_20  and  N_23
    7  A    between atoms: C_21  and  C_27
                            x       y       z     vdW  Elec       q    Type
                         _______ _______ _______ _____ _____    ______ ____

>  <TORSDO>
F 7

$$$$
=
 OpenBabel11062419053D

 32 36  0  0  1  0  0  0  0  0999 V2000
  189.4750  172.3680  142.3810 O   0  0  0  0  0  0  0  0  0  0  0  0
  190.0380  175.8240  142.6940 C   0  0  0  0  0  0  0  0  0  0  0  0
  188.7790  175.8700  142.2760 C   0  0  0  0  0  0  0  0  0  0  0  0
  189.4230  173.6240  142.4220 C   0  0  0  0  0  0  0  0  0  0  0  0
  191.2770  177.0420  143.0600 S   0  0  0  0  0  0  0  0  0  0  0  0
  190.5010  174.5040  142.7920 C   0  0  0  0  0  0  0  0  0  0  0  0
  192.3860  175.6530  143.3020 N   0  0  0  0  0  0  0  0  0  0  0  0
  188.2280  174.4710  142.0800 C   0  0  0  0  0  2  0  0  0  0  0  0
  191.7730  174.3720  143.0940 C   0  0  0  0  0  3  0  0  0  0  0  0
  195.4070  175.7610  145.0770 O   0  0  0  0  0  0  0  0  0  0  0  0
  194.4980  174.4420  143.3450 C   0  0  0  0  0  2  0  0  0  0  0  0
  195.2060  174.4270  144.6830 C   0  0  1  0  0  3  0  0  0  0  0  0
  193.8360  175.7870  143.3100 C   0  0  2  0  0  3  0  0  0  0  0  0
  194.2990  176.4630  144.5810 C   0  0  0  0  0  2  0  0  0  0  0  0
  196.5420  173.6830  144.5910 C   0  0  1  0  0  3  0  0  0  0  0  0
  197.5950  174.6020  144.5610 O   0  0  0  0  0  1  0  0  0  0  0  0
  197.1850  173.4010  146.8790 F   0  0  0  0  0  0  0  0  0  0  0  0
  195.5630  172.0640  146.0590 F   0  0  0  0  0  0  0  0  0  0  0  0
  196.7460  172.7150  145.7600 C   0  0  0  0  0  0  0  0  0  0  0  0
  197.6910  171.7670  145.4130 F   0  0  0  0  0  0  0  0  0  0  0  0
  187.9930  177.1180  142.0620 C   0  0  0  0  0  2  0  0  0  0  0  0
  186.5090  176.8010  141.9690 C   0  0  0  0  0  2  0  0  0  0  0  0
  185.4880  177.7350  145.5760 C   0  0  2  0  0  0  0  0  0  0  0  0
  186.0690  179.0550  142.9770 C   0  0  0  0  0  2  0  0  0  0  0  0
  185.7380  177.5550  143.0360 C   0  0  2  0  0  3  0  0  0  0  0  0
  185.4810  179.8700  144.1350 C   0  0  0  0  0  2  0  0  0  0  0  0
  186.9890  177.6120  145.2890 C   0  0  2  0  0  3  0  0  0  0  0  0
  184.7560  179.0300  145.1910 C   0  0  0  0  0  2  0  0  0  0  0  0
  184.8680  176.8990  146.6850 C   0  0  0  0  0  1  0  0  0  0  0  0
  185.9700  176.8850  144.4080 C   0  0  1  0  0  3  0  0  0  0  0  0
  189.0720  176.6720  145.9580 O   0  0  0  0  0  1  0  0  0  0  0  0
  187.6980  176.6020  146.1780 C   0  0  0  0  0  2  0  0  0  0  0  0
  1  4  2  0  0  0  0
  2  6  1  0  0  0  0
  2  5  1  0  0  0  0
  3  2  2  0  0  0  0
  4  6  1  0  0  0  0
  5  7  1  0  0  0  0
  6  9  2  0  0  0  0
  8  3  1  0  0  0  0
  8  4  1  0  0  0  0
  9  7  1  0  0  0  0
 11 12  1  0  0  0  0
 12 15  1  6  0  0  0
 12 10  1  0  0  0  0
 13  7  1  1  0  0  0
 13 11  1  0  0  0  0
 13 14  1  0  0  0  0
 14 10  1  0  0  0  0
 15 16  1  1  0  0  0
 15 19  1  0  0  0  0
 19 18  1  0  0  0  0
 19 17  1  0  0  0  0
 20 19  1  0  0  0  0
 21  3  1  0  0  0  0
 22 21  1  0  0  0  0
 23 29  1  1  0  0  0
 24 25  1  0  0  0  0
 24 26  1  0  0  0  0
 25 22  1  6  0  0  0
 25 30  1  0  0  0  0
 26 28  1  0  0  0  0
 27 23  1  0  0  0  0
 27 32  1  1  0  0  0
 28 23  1  0  0  0  0
 30 27  1  0  0  0  0
 30 23  1  0  0  0  0
 31 32  1  0  0  0  0
M  END
>  <MODEL>
4

>  <REMARK>
 VINA RESULT:      -7.7      4.590      8.208
  Name = 
  7 active torsions:
  status: ('A' for Active; 'I' for Inactive)
    1  A    between atoms: C_2  and  C_8
    2  A    between atoms: C_2  and  C_13
    3  A    between atoms: C_6  and  C_13
    4  A    between atoms: C_15  and  C_17
    5  A    between atoms: C_15  and  C_25
    6  A    between atoms: C_20  and  N_23
    7  A    between atoms: C_21  and  C_27
                            x       y       z     vdW  Elec       q    Type
                         _______ _______ _______ _____ _____    ______ ____

>  <TORSDO>
F 7

$$$$
=
 OpenBabel11062419053D

 32 36  0  0  1  0  0  0  0  0999 V2000
  189.3160  174.5410  147.6190 O   0  0  0  0  0  0  0  0  0  0  0  0
  191.2820  176.2410  145.2500 C   0  0  0  0  0  0  0  0  0  0  0  0
  192.1620  176.2050  146.2430 C   0  0  0  0  0  0  0  0  0  0  0  0
  190.2060  175.1370  146.9580 C   0  0  0  0  0  0  0  0  0  0  0  0
  191.2590  176.9610  143.6270 S   0  0  0  0  0  0  0  0  0  0  0  0
  190.0720  175.6300  145.6110 C   0  0  0  0  0  0  0  0  0  0  0  0
  189.5560  176.4010  143.5450 N   0  0  0  0  0  0  0  0  0  0  0  0
  191.5910  175.4710  147.4400 C   0  0  0  0  0  2  0  0  0  0  0  0
  189.1070  175.7180  144.7240 C   0  0  0  0  0  3  0  0  0  0  0  0
  186.3160  176.4150  142.2050 O   0  0  0  0  0  0  0  0  0  0  0  0
  187.7600  178.0050  143.1820 C   0  0  0  0  0  2  0  0  0  0  0  0
  186.3630  177.4210  143.1850 C   0  0  1  0  0  3  0  0  0  0  0  0
  188.5970  176.9170  142.5780 C   0  0  2  0  0  3  0  0  0  0  0  0
  187.5990  175.8460  142.1990 C   0  0  0  0  0  2  0  0  0  0  0  0
  185.3140  178.5010  142.9020 C   0  0  1  0  0  3  0  0  0  0  0  0
  184.1670  177.9160  142.3580 O   0  0  0  0  0  1  0  0  0  0  0  0
  183.5610  179.4170  144.2500 F   0  0  0  0  0  0  0  0  0  0  0  0
  185.4020  178.6340  145.2920 F   0  0  0  0  0  0  0  0  0  0  0  0
  184.9350  179.2830  144.1640 C   0  0  0  0  0  0  0  0  0  0  0  0
  185.5080  180.5410  144.1150 F   0  0  0  0  0  0  0  0  0  0  0  0
  193.5400  176.7710  146.1850 C   0  0  0  0  0  2  0  0  0  0  0  0
  194.5670  175.6990  146.5130 C   0  0  0  0  0  2  0  0  0  0  0  0
  195.1950  173.6080  143.3260 C   0  0  2  0  0  0  0  0  0  0  0  0
  195.3430  176.4300  144.2420 C   0  0  0  0  0  2  0  0  0  0  0  0
  195.3120  175.2780  145.2600 C   0  0  2  0  0  3  0  0  0  0  0  0
  195.9110  176.0400  142.8740 C   0  0  0  0  0  2  0  0  0  0  0  0
  193.7690  174.1270  143.5460 C   0  0  2  0  0  3  0  0  0  0  0  0
  196.2520  174.5530  142.7350 C   0  0  0  0  0  2  0  0  0  0  0  0
  195.4270  172.1160  143.1410 C   0  0  0  0  0  1  0  0  0  0  0  0
  194.7220  173.9530  144.7320 C   0  0  1  0  0  3  0  0  0  0  0  0
  192.2640  172.8560  144.8840 O   0  0  0  0  0  1  0  0  0  0  0  0
  192.7200  173.0260  143.5790 C   0  0  0  0  0  2  0  0  0  0  0  0
  2  6  1  0  0  0  0
  2  3  2  0  0  0  0
  3  8  1  0  0  0  0
  4  8  1  0  0  0  0
  4  1  2  0  0  0  0
  5  2  1  0  0  0  0
  6  4  1  0  0  0  0
  7  5  1  0  0  0  0
  7  9  1  0  0  0  0
  9  6  2  0  0  0  0
 10 12  1  0  0  0  0
 11 12  1  0  0  0  0
 12 15  1  6  0  0  0
 13 14  1  1  0  0  0
 13 11  1  0  0  0  0
 13  7  1  0  0  0  0
 14 10  1  0  0  0  0
 15 16  1  1  0  0  0
 15 19  1  0  0  0  0
 19 17  1  0  0  0  0
 19 18  1  0  0  0  0
 20 19  1  0  0  0  0
 21  3  1  0  0  0  0
 21 22  1  0  0  0  0
 23 29  1  6  0  0  0
 23 27  1  0  0  0  0
 23 30  1  0  0  0  0
 24 25  1  0  0  0  0
 25 22  1  1  0  0  0
 26 24  1  0  0  0  0
 27 32  1  1  0  0  0
 27 30  1  0  0  0  0
 28 26  1  0  0  0  0
 28 23  1  0  0  0  0
 30 25  1  0  0  0  0
 32 31  1  0  0  0  0
M  END
>  <MODEL>
5

>  <REMARK>
 VINA RESULT:      -7.6      2.725      4.783
  Name = 
  7 active torsions:
  status: ('A' for Active; 'I' for Inactive)
    1  A    between atoms: C_2  and  C_8
    2  A    between atoms: C_2  and  C_13
    3  A    between atoms: C_6  and  C_13
    4  A    between atoms: C_15  and  C_17
    5  A    between atoms: C_15  and  C_25
    6  A    between atoms: C_20  and  N_23
    7  A    between atoms: C_21  and  C_27
                            x       y       z     vdW  Elec       q    Type
                         _______ _______ _______ _____ _____    ______ ____

>  <TORSDO>
F 7

$$$$
=
 OpenBabel11062419053D

 32 36  0  0  1  0  0  0  0  0999 V2000
  191.3940  177.9230  142.7750 O   0  0  0  0  0  0  0  0  0  0  0  0
  191.3240  176.5020  145.9910 C   0  0  0  0  0  0  0  0  0  0  0  0
  192.5540  176.1410  145.6460 C   0  0  0  0  0  0  0  0  0  0  0  0
  191.6190  177.3470  143.8720 C   0  0  0  0  0  0  0  0  0  0  0  0
  190.2830  176.2020  147.3980 S   0  0  0  0  0  0  0  0  0  0  0  0
  190.6910  177.2200  144.9660 C   0  0  0  0  0  0  0  0  0  0  0  0
  189.0100  177.0670  146.4760 N   0  0  0  0  0  0  0  0  0  0  0  0
  192.8980  176.6620  144.2650 C   0  0  0  0  0  2  0  0  0  0  0  0
  189.4300  177.5220  145.1820 C   0  0  0  0  0  3  0  0  0  0  0  0
  185.9480  178.6450  147.1330 O   0  0  0  0  0  0  0  0  0  0  0  0
  186.7500  177.0720  145.5690 C   0  0  0  0  0  2  0  0  0  0  0  0
  185.9810  178.3630  145.7570 C   0  0  1  0  0  3  0  0  0  0  0  0
  187.5930  176.9780  146.8050 C   0  0  2  0  0  3  0  0  0  0  0  0
  187.1670  178.1670  147.6370 C   0  0  0  0  0  2  0  0  0  0  0  0
  184.5610  178.2460  145.1950 C   0  0  1  0  0  3  0  0  0  0  0  0
  183.6840  179.0200  145.9600 O   0  0  0  0  0  1  0  0  0  0  0  0
  185.3070  179.7740  143.5110 F   0  0  0  0  0  0  0  0  0  0  0  0
  184.8600  177.6510  142.8950 F   0  0  0  0  0  0  0  0  0  0  0  0
  184.4820  178.6860  143.7300 C   0  0  0  0  0  0  0  0  0  0  0  0
  183.1800  179.0400  143.4260 F   0  0  0  0  0  0  0  0  0  0  0  0
  193.4890  175.3630  146.5070 C   0  0  0  0  0  2  0  0  0  0  0  0
  194.9310  175.6560  146.1220 C   0  0  0  0  0  2  0  0  0  0  0  0
  195.4360  171.9360  145.2100 C   0  0  2  0  0  0  0  0  0  0  0  0
  196.8380  174.5410  144.9350 C   0  0  0  0  0  2  0  0  0  0  0  0
  195.7120  174.3650  145.9660 C   0  0  2  0  0  3  0  0  0  0  0  0
  197.5630  173.2400  144.5730 C   0  0  0  0  0  2  0  0  0  0  0  0
  194.6700  172.8010  144.2010 C   0  0  2  0  0  3  0  0  0  0  0  0
  196.9710  171.9880  145.2260 C   0  0  0  0  0  2  0  0  0  0  0  0
  194.7840  170.6770  145.7610 C   0  0  0  0  0  1  0  0  0  0  0  0
  194.7340  173.2050  145.6770 C   0  0  1  0  0  3  0  0  0  0  0  0
  192.4920  173.3140  143.3870 O   0  0  0  0  0  1  0  0  0  0  0  0
  193.2780  172.2760  143.8840 C   0  0  0  0  0  2  0  0  0  0  0  0
  1  4  2  0  0  0  0
  2  5  1  0  0  0  0
  3  2  2  0  0  0  0
  3 21  1  0  0  0  0
  4  8  1  0  0  0  0
  4  6  1  0  0  0  0
  6  9  2  0  0  0  0
  6  2  1  0  0  0  0
  7 13  1  0  0  0  0
  7  5  1  0  0  0  0
  8  3  1  0  0  0  0
  9  7  1  0  0  0  0
 10 14  1  0  0  0  0
 11 12  1  0  0  0  0
 12 15  1  1  0  0  0
 12 10  1  0  0  0  0
 13 11  1  6  0  0  0
 13 14  1  0  0  0  0
 15 16  1  1  0  0  0
 17 19  1  0  0  0  0
 18 19  1  0  0  0  0
 19 15  1  0  0  0  0
 20 19  1  0  0  0  0
 22 21  1  0  0  0  0
 23 28  1  0  0  0  0
 23 30  1  0  0  0  0
 23 29  1  1  0  0  0
 24 25  1  0  0  0  0
 25 22  1  6  0  0  0
 26 24  1  0  0  0  0
 26 28  1  0  0  0  0
 27 32  1  1  0  0  0
 27 23  1  0  0  0  0
 27 30  1  0  0  0  0
 30 25  1  0  0  0  0
 31 32  1  0  0  0  0
M  END
>  <MODEL>
6

>  <REMARK>
 VINA RESULT:      -7.6      3.332      4.967
  Name = 
  7 active torsions:
  status: ('A' for Active; 'I' for Inactive)
    1  A    between atoms: C_2  and  C_8
    2  A    between atoms: C_2  and  C_13
    3  A    between atoms: C_6  and  C_13
    4  A    between atoms: C_15  and  C_17
    5  A    between atoms: C_15  and  C_25
    6  A    between atoms: C_20  and  N_23
    7  A    between atoms: C_21  and  C_27
                            x       y       z     vdW  Elec       q    Type
                         _______ _______ _______ _____ _____    ______ ____

>  <TORSDO>
F 7

$$$$
=
 OpenBabel11062419053D

 32 36  0  0  1  0  0  0  0  0999 V2000
  189.7920  174.9430  147.6150 O   0  0  0  0  0  0  0  0  0  0  0  0
  191.5550  176.0530  144.7830 C   0  0  0  0  0  0  0  0  0  0  0  0
  192.5630  176.0370  145.6450 C   0  0  0  0  0  0  0  0  0  0  0  0
  190.6320  175.3300  146.7620 C   0  0  0  0  0  0  0  0  0  0  0  0
  191.3680  176.5500  143.0880 S   0  0  0  0  0  0  0  0  0  0  0  0
  190.3530  175.6530  145.3860 C   0  0  0  0  0  0  0  0  0  0  0  0
  189.6220  176.2040  143.3150 N   0  0  0  0  0  0  0  0  0  0  0  0
  192.1010  175.5470  147.0030 C   0  0  0  0  0  2  0  0  0  0  0  0
  189.2820  175.7450  144.6310 C   0  0  0  0  0  3  0  0  0  0  0  0
  186.2490  176.3820  142.3780 O   0  0  0  0  0  0  0  0  0  0  0  0
  187.9280  177.9220  142.9880 C   0  0  0  0  0  2  0  0  0  0  0  0
  186.5010  177.4750  143.2240 C   0  0  1  0  0  3  0  0  0  0  0  0
  188.5910  176.7050  142.4160 C   0  0  2  0  0  3  0  0  0  0  0  0
  187.4700  175.6980  142.2840 C   0  0  0  0  0  2  0  0  0  0  0  0
  185.5140  178.6130  142.9470 C   0  0  1  0  0  3  0  0  0  0  0  0
  184.3170  178.0910  142.4490 O   0  0  0  0  0  1  0  0  0  0  0  0
  183.8780  179.3780  144.5180 F   0  0  0  0  0  0  0  0  0  0  0  0
  185.9670  178.9790  145.2700 F   0  0  0  0  0  0  0  0  0  0  0  0
  185.2230  179.4430  144.2010 C   0  0  0  0  0  0  0  0  0  0  0  0
  185.5670  180.7630  143.9690 F   0  0  0  0  0  0  0  0  0  0  0  0
  193.9690  176.4130  145.3230 C   0  0  0  0  0  2  0  0  0  0  0  0
  194.9410  175.5780  146.1430 C   0  0  0  0  0  2  0  0  0  0  0  0
  196.6080  173.7530  143.1740 C   0  0  2  0  0  0  0  0  0  0  0  0
  196.4650  173.5860  146.1380 C   0  0  0  0  0  2  0  0  0  0  0  0
  195.4080  174.3740  145.3460 C   0  0  2  0  0  3  0  0  0  0  0  0
  197.1310  172.4600  145.3390 C   0  0  0  0  0  2  0  0  0  0  0  0
  197.3650  174.9470  143.7700 C   0  0  2  0  0  3  0  0  0  0  0  0
  196.6970  172.3870  143.8720 C   0  0  0  0  0  2  0  0  0  0  0  0
  196.2710  173.7460  141.6910 C   0  0  0  0  0  1  0  0  0  0  0  0
  195.8480  174.8290  143.9380 C   0  0  1  0  0  3  0  0  0  0  0  0
  196.9120  177.1670  143.0390 O   0  0  0  0  0  1  0  0  0  0  0  0
  197.6760  176.0360  142.7550 C   0  0  0  0  0  2  0  0  0  0  0  0
  2  6  1  0  0  0  0
  2  3  2  0  0  0  0
  3  8  1  0  0  0  0
  4  8  1  0  0  0  0
  4  1  2  0  0  0  0
  5  7  1  0  0  0  0
  5  2  1  0  0  0  0
  6  4  1  0  0  0  0
  7  9  1  0  0  0  0
  9  6  2  0  0  0  0
 10 12  1  0  0  0  0
 11 12  1  0  0  0  0
 12 15  1  6  0  0  0
 13 14  1  1  0  0  0
 13 11  1  0  0  0  0
 13  7  1  0  0  0  0
 14 10  1  0  0  0  0
 15 16  1  1  0  0  0
 15 19  1  0  0  0  0
 19 17  1  0  0  0  0
 19 18  1  0  0  0  0
 20 19  1  0  0  0  0
 21  3  1  0  0  0  0
 21 22  1  0  0  0  0
 23 29  1  6  0  0  0
 23 27  1  0  0  0  0
 23 28  1  0  0  0  0
 23 30  1  0  0  0  0
 25 24  1  0  0  0  0
 25 22  1  1  0  0  0
 26 24  1  0  0  0  0
 27 32  1  6  0  0  0
 27 30  1  0  0  0  0
 28 26  1  0  0  0  0
 30 25  1  0  0  0  0
 32 31  1  0  0  0  0
M  END
>  <MODEL>
7

>  <REMARK>
 VINA RESULT:      -7.6      3.081      5.006
  Name = 
  7 active torsions:
  status: ('A' for Active; 'I' for Inactive)
    1  A    between atoms: C_2  and  C_8
    2  A    between atoms: C_2  and  C_13
    3  A    between atoms: C_6  and  C_13
    4  A    between atoms: C_15  and  C_17
    5  A    between atoms: C_15  and  C_25
    6  A    between atoms: C_20  and  N_23
    7  A    between atoms: C_21  and  C_27
                            x       y       z     vdW  Elec       q    Type
                         _______ _______ _______ _____ _____    ______ ____

>  <TORSDO>
F 7

$$$$
=
 OpenBabel11062419053D

 32 36  0  0  1  0  0  0  0  0999 V2000
  189.6250  171.6320  141.9650 O   0  0  0  0  0  0  0  0  0  0  0  0
  189.7590  174.6840  143.7060 C   0  0  0  0  0  0  0  0  0  0  0  0
  188.7440  174.9660  142.8980 C   0  0  0  0  0  0  0  0  0  0  0  0
  189.4630  172.7860  142.4400 C   0  0  0  0  0  0  0  0  0  0  0  0
  190.6750  175.5940  144.9250 S   0  0  0  0  0  0  0  0  0  0  0  0
  190.2550  173.3920  143.4790 C   0  0  0  0  0  0  0  0  0  0  0  0
  191.7210  174.1410  145.0350 N   0  0  0  0  0  0  0  0  0  0  0  0
  188.4160  173.7790  142.0140 C   0  0  0  0  0  2  0  0  0  0  0  0
  191.3320  173.0710  144.1610 C   0  0  0  0  0  3  0  0  0  0  0  0
  195.1250  173.3180  144.8730 O   0  0  0  0  0  0  0  0  0  0  0  0
  193.8620  175.2990  145.0830 C   0  0  0  0  0  2  0  0  0  0  0  0
  194.9860  174.6100  144.3390 C   0  0  1  0  0  3  0  0  0  0  0  0
  193.0500  174.1630  145.6300 C   0  0  2  0  0  3  0  0  0  0  0  0
  193.8280  172.9270  145.2360 C   0  0  0  0  0  2  0  0  0  0  0  0
  196.2960  175.3930  144.4710 C   0  0  1  0  0  3  0  0  0  0  0  0
  197.3390  174.5210  144.7960 O   0  0  0  0  0  1  0  0  0  0  0  0
  197.4120  175.3500  142.3530 F   0  0  0  0  0  0  0  0  0  0  0  0
  195.4980  176.5330  142.5220 F   0  0  0  0  0  0  0  0  0  0  0  0
  196.6480  176.1490  143.1870 C   0  0  0  0  0  0  0  0  0  0  0  0
  197.3700  177.2860  143.5050 F   0  0  0  0  0  0  0  0  0  0  0  0
  187.9980  176.2560  142.8810 C   0  0  0  0  0  2  0  0  0  0  0  0
  186.5000  176.0010  142.8300 C   0  0  0  0  0  2  0  0  0  0  0  0
  185.2970  178.3660  145.6380 C   0  0  2  0  0  0  0  0  0  0  0  0
  186.2670  178.4990  142.8330 C   0  0  0  0  0  2  0  0  0  0  0  0
  185.7420  177.1770  143.4170 C   0  0  2  0  0  3  0  0  0  0  0  0
  185.6900  179.7510  143.5030 C   0  0  0  0  0  2  0  0  0  0  0  0
  186.7900  178.0130  145.6190 C   0  0  2  0  0  3  0  0  0  0  0  0
  184.7740  179.4600  144.6960 C   0  0  0  0  0  2  0  0  0  0  0  0
  184.4810  178.0910  146.8920 C   0  0  0  0  0  1  0  0  0  0  0  0
  185.7660  177.0860  144.9580 C   0  0  1  0  0  3  0  0  0  0  0  0
  187.5720  176.0360  146.6890 O   0  0  0  0  0  1  0  0  0  0  0  0
  187.2820  177.3810  146.9110 C   0  0  0  0  0  2  0  0  0  0  0  0
  1  4  2  0  0  0  0
  2  5  1  0  0  0  0
  3  2  2  0  0  0  0
  4  6  1  0  0  0  0
  5  7  1  0  0  0  0
  6  2  1  0  0  0  0
  6  9  2  0  0  0  0
  8  4  1  0  0  0  0
  8  3  1  0  0  0  0
  9  7  1  0  0  0  0
 10 14  1  0  0  0  0
 11 13  1  0  0  0  0
 12 15  1  1  0  0  0
 12 10  1  0  0  0  0
 12 11  1  0  0  0  0
 13  7  1  6  0  0  0
 14 13  1  0  0  0  0
 15 16  1  6  0  0  0
 17 19  1  0  0  0  0
 18 19  1  0  0  0  0
 19 20  1  0  0  0  0
 19 15  1  0  0  0  0
 21  3  1  0  0  0  0
 22 21  1  0  0  0  0
 23 29  1  1  0  0  0
 24 25  1  0  0  0  0
 24 26  1  0  0  0  0
 25 22  1  6  0  0  0
 25 30  1  0  0  0  0
 26 28  1  0  0  0  0
 27 23  1  0  0  0  0
 27 32  1  1  0  0  0
 28 23  1  0  0  0  0
 30 27  1  0  0  0  0
 30 23  1  0  0  0  0
 31 32  1  0  0  0  0
M  END
>  <MODEL>
8

>  <REMARK>
 VINA RESULT:      -7.5      4.478      8.163
  Name = 
  7 active torsions:
  status: ('A' for Active; 'I' for Inactive)
    1  A    between atoms: C_2  and  C_8
    2  A    between atoms: C_2  and  C_13
    3  A    between atoms: C_6  and  C_13
    4  A    between atoms: C_15  and  C_17
    5  A    between atoms: C_15  and  C_25
    6  A    between atoms: C_20  and  N_23
    7  A    between atoms: C_21  and  C_27
                            x       y       z     vdW  Elec       q    Type
                         _______ _______ _______ _____ _____    ______ ____

>  <TORSDO>
F 7

$$$$
=
 OpenBabel11062419053D

 32 36  0  0  1  0  0  0  0  0999 V2000
  191.5350  178.4680  143.4650 O   0  0  0  0  0  0  0  0  0  0  0  0
  191.0990  176.0290  145.9600 C   0  0  0  0  0  0  0  0  0  0  0  0
  192.2870  175.6410  145.5140 C   0  0  0  0  0  0  0  0  0  0  0  0
  191.6200  177.5170  144.2840 C   0  0  0  0  0  0  0  0  0  0  0  0
  189.9510  175.4050  147.1620 S   0  0  0  0  0  0  0  0  0  0  0  0
  190.6250  177.1460  145.2570 C   0  0  0  0  0  0  0  0  0  0  0  0
  188.8570  176.7130  146.6050 N   0  0  0  0  0  0  0  0  0  0  0  0
  192.7740  176.5610  144.4120 C   0  0  0  0  0  2  0  0  0  0  0  0
  189.4050  177.5300  145.5610 C   0  0  0  0  0  3  0  0  0  0  0  0
  185.8740  178.4900  147.0950 O   0  0  0  0  0  0  0  0  0  0  0  0
  186.6420  176.8330  145.6010 C   0  0  0  0  0  2  0  0  0  0  0  0
  185.9470  178.1720  145.7280 C   0  0  1  0  0  3  0  0  0  0  0  0
  187.4260  176.7180  146.8740 C   0  0  2  0  0  3  0  0  0  0  0  0
  187.0390  177.9510  147.6610 C   0  0  0  0  0  2  0  0  0  0  0  0
  184.5470  178.1270  145.1080 C   0  0  1  0  0  3  0  0  0  0  0  0
  183.6990  179.0060  145.7890 O   0  0  0  0  0  1  0  0  0  0  0  0
  184.9990  177.4110  142.8690 F   0  0  0  0  0  0  0  0  0  0  0  0
  183.2970  178.8550  143.1990 F   0  0  0  0  0  0  0  0  0  0  0  0
  184.5620  178.4890  143.6200 C   0  0  0  0  0  0  0  0  0  0  0  0
  185.4180  179.5560  143.4140 F   0  0  0  0  0  0  0  0  0  0  0  0
  193.0620  174.4830  146.0430 C   0  0  0  0  0  2  0  0  0  0  0  0
  193.3560  173.4890  144.9310 C   0  0  0  0  0  2  0  0  0  0  0  0
  196.8480  173.7040  143.2930 C   0  0  2  0  0  0  0  0  0  0  0  0
  195.5930  173.9320  145.9760 C   0  0  0  0  0  2  0  0  0  0  0  0
  194.8490  173.2430  144.8210 C   0  0  2  0  0  3  0  0  0  0  0  0
  197.1200  173.8950  145.8470 C   0  0  0  0  0  2  0  0  0  0  0  0
  196.0220  174.9950  143.3390 C   0  0  2  0  0  3  0  0  0  0  0  0
  197.6250  173.2680  144.5440 C   0  0  0  0  0  2  0  0  0  0  0  0
  197.3560  173.1890  141.9540 C   0  0  0  0  0  1  0  0  0  0  0  0
  195.3310  173.6310  143.4060 C   0  0  1  0  0  3  0  0  0  0  0  0
  196.4210  176.8500  141.9010 O   0  0  0  0  0  1  0  0  0  0  0  0
  195.7830  175.6130  141.9700 C   0  0  0  0  0  2  0  0  0  0  0  0
  1  4  2  0  0  0  0
  2  5  1  0  0  0  0
  3  2  2  0  0  0  0
  3 21  1  0  0  0  0
  4  8  1  0  0  0  0
  4  6  1  0  0  0  0
  6  9  2  0  0  0  0
  6  2  1  0  0  0  0
  7 13  1  0  0  0  0
  7  5  1  0  0  0  0
  8  3  1  0  0  0  0
  9  7  1  0  0  0  0
 10 14  1  0  0  0  0
 11 12  1  0  0  0  0
 12 15  1  1  0  0  0
 12 10  1  0  0  0  0
 13 11  1  6  0  0  0
 13 14  1  0  0  0  0
 15 16  1  1  0  0  0
 17 19  1  0  0  0  0
 18 19  1  0  0  0  0
 19 15  1  0  0  0  0
 20 19  1  0  0  0  0
 22 21  1  0  0  0  0
 23 29  1  6  0  0  0
 23 27  1  0  0  0  0
 23 30  1  0  0  0  0
 23 28  1  0  0  0  0
 25 22  1  6  0  0  0
 25 24  1  0  0  0  0
 26 24  1  0  0  0  0
 27 32  1  6  0  0  0
 27 30  1  0  0  0  0
 28 26  1  0  0  0  0
 30 25  1  0  0  0  0
 31 32  1  0  0  0  0
M  END
>  <MODEL>
9

>  <REMARK>
 VINA RESULT:      -7.4      3.423      4.910
  Name = 
  7 active torsions:
  status: ('A' for Active; 'I' for Inactive)
    1  A    between atoms: C_2  and  C_8
    2  A    between atoms: C_2  and  C_13
    3  A    between atoms: C_6  and  C_13
    4  A    between atoms: C_15  and  C_17
    5  A    between atoms: C_15  and  C_25
    6  A    between atoms: C_20  and  N_23
    7  A    between atoms: C_21  and  C_27
                            x       y       z     vdW  Elec       q    Type
                         _______ _______ _______ _____ _____    ______ ____

>  <TORSDO>
F 7

$$$$
