=
 OpenBabel11062422313D

 43 46  0  0  1  0  0  0  0  0999 V2000
  191.7170  176.7750  143.1440 C   0  0  0  0  0  2  0  0  0  0  0  0
  193.7360  175.3160  142.8510 C   0  0  1  0  0  3  0  0  0  0  0  0
  192.7780  174.1260  142.7750 C   0  0  0  0  0  2  0  0  0  0  0  0
  191.5820  174.3400  143.6090 N   0  0  1  0  0  0  0  0  0  0  0  0
  192.9960  176.5570  142.3500 C   0  0  0  0  0  2  0  0  0  0  0  0
  190.8350  175.5150  143.1150 C   0  0  1  0  0  3  0  0  0  0  0  0
  188.3000  175.5020  143.0980 C   0  0  0  0  0  2  0  0  0  0  0  0
  189.4380  177.1490  144.4910 C   0  0  0  0  0  2  0  0  0  0  0  0
  189.5470  175.7430  143.9280 C   0  0  2  0  0  3  0  0  0  0  0  0
  187.3090  176.5990  143.4570 C   0  0  2  0  0  3  0  0  0  0  0  0
  187.0590  177.3670  142.3360 F   0  0  0  0  0  0  0  0  0  0  0  0
  187.9560  177.4650  144.5280 C   0  0  1  0  0  3  0  0  0  0  0  0
  185.9110  176.7280  145.7520 C   0  0  0  0  0  2  0  0  0  0  0  0
  187.3810  177.1040  145.8960 C   0  0  2  0  0  3  0  0  0  0  0  0
  186.2870  178.0570  146.3640 C   0  0  1  0  0  0  0  0  0  0  0  0
  185.8630  179.2410  145.5050 C   0  0  0  0  0  1  0  0  0  0  0  0
  186.0290  178.1020  147.8590 C   0  0  0  0  0  2  0  0  0  0  0  0
  186.8090  179.1000  148.4470 O   0  0  0  0  0  1  0  0  0  0  0  0
  190.7250  173.1450  143.5310 C   0  0  2  0  0  3  0  0  0  0  0  0
  191.3730  171.9570  144.2170 C   0  0  0  0  0  2  0  0  0  0  0  0
  191.3140  170.8700  143.1900 C   0  0  0  0  0  2  0  0  0  0  0  0
  190.4040  172.8130  142.1980 O   0  0  0  0  0  0  0  0  0  0  0  0
  190.7580  170.9260  140.7780 C   0  0  0  0  0  1  0  0  0  0  0  0
  190.3590  171.4120  142.1560 C   0  0  1  0  0  3  0  0  0  0  0  0
  194.3270  175.5180  144.2640 C   0  0  1  0  0  3  0  0  0  0  0  0
  195.7740  176.0520  144.2250 C   0  0  2  0  0  3  0  0  0  0  0  0
  196.5680  175.3930  143.1930 C   0  0  1  0  0  3  0  0  0  0  0  0
  197.5550  176.2660  142.7390 O   0  0  0  0  0  1  0  0  0  0  0  0
  196.8290  175.0650  144.6040 N   0  0  0  0  0  0  0  0  0  0  0  0
  196.3370  173.6980  144.8240 C   0  0  2  0  0  3  0  0  0  0  0  0
  196.8350  173.1710  146.1610 C   0  0  0  0  0  1  0  0  0  0  0  0
  196.7540  172.7540  143.6870 C   0  0  0  0  0  2  0  0  0  0  0  0
  196.5150  171.2800  144.0020 C   0  0  0  0  0  2  0  0  0  0  0  0
  195.0450  170.9230  143.8250 C   0  0  1  0  0  3  0  0  0  0  0  0
  193.9730  168.2730  146.0240 N   0  0  0  0  0  1  0  0  0  0  0  0
  194.8770  169.9000  142.7170 C   0  0  0  0  0  2  0  0  0  0  0  0
  194.7560  168.2530  143.4640 S   0  0  0  0  0  0  0  0  0  0  0  0
  194.8690  168.9750  145.1230 C   0  0  1  0  0  3  0  0  0  0  0  0
  194.5000  170.3810  145.0620 N   0  0  0  0  0  2  0  0  0  0  0  0
  193.4520  176.4490  145.1130 C   0  0  0  0  0  1  0  0  0  0  0  0
  191.8820  175.5930  146.9820 C   0  0  0  0  0 15  0  0  0  0  0  0
  193.2490  175.9330  146.5030 C   0  0  0  0  0  3  0  0  0  0  0  0
  192.0300  175.6300  146.9280 C   0  0  0  0  0  3  0  0  0  0  0  0
  2 25  1  1  0  0  0
  3  2  1  0  0  0  0
  4  3  1  6  0  0  0
  5  2  1  0  0  0  0
  5  1  1  0  0  0  0
  6  1  1  1  0  0  0
  6  4  1  0  0  0  0
  6  9  1  0  0  0  0
  7 10  1  0  0  0  0
  9  7  1  6  0  0  0
  9  8  1  0  0  0  0
 10 11  1  6  0  0  0
 10 12  1  0  0  0  0
 12  8  1  1  0  0  0
 12 14  1  0  0  0  0
 13 15  1  0  0  0  0
 14 13  1  6  0  0  0
 14 15  1  0  0  0  0
 15 16  1  6  0  0  0
 15 17  1  0  0  0  0
 17 18  1  0  0  0  0
 19  4  1  0  0  0  0
 19 20  1  6  0  0  0
 21 20  1  0  0  0  0
 22 19  1  0  0  0  0
 24 23  1  6  0  0  0
 24 22  1  0  0  0  0
 24 21  1  0  0  0  0
 25 40  1  1  0  0  0
 26 25  1  6  0  0  0
 26 29  1  0  0  0  0
 27 28  1  1  0  0  0
 27 26  1  0  0  0  0
 27 29  1  0  0  0  0
 29 30  1  0  0  0  0
 30 31  1  1  0  0  0
 32 33  1  0  0  0  0
 32 30  1  0  0  0  0
 34 33  1  1  0  0  0
 34 39  1  0  0  0  0
 36 37  1  0  0  0  0
 36 34  1  0  0  0  0
 37 38  1  0  0  0  0
 38 35  1  1  0  0  0
 39 38  1  0  0  0  0
 42 43  3  0  0  0  0
M  END
>  <MODEL>
1

>  <REMARK>
 VINA RESULT:      -7.1      0.000      0.000
  Name = 
  12 active torsions:
  status: ('A' for Active; 'I' for Inactive)
    1  A    between atoms: C_3  and  C_7
    2  A    between atoms: C_5  and  N_20
    3  A    between atoms: C_5  and  C_32
    4  A    between atoms: C_7  and  CA_8
    5  A    between atoms: C_7  and  C_39
    6  A    between atoms: C_11  and  N_18
    7  A    between atoms: C_12  and  C_39
    8  A    between atoms: C_14  and  C_40
    9  A    between atoms: C_16  and  C_37
   10  A    between atoms: C_23  and  C_27
   11  A    between atoms: C_26  and  C_29
   12  A    between atoms: C_32  and  C_40
                            x       y       z     vdW  Elec       q    Type
                         _______ _______ _______ _____ _____    ______ ____

>  <TORSDO>
F 12

$$$$
=
 OpenBabel11062422313D

 43 46  0  0  1  0  0  0  0  0999 V2000
  194.8390  172.7530  144.1070 C   0  0  0  0  0  2  0  0  0  0  0  0
  192.8620  173.4110  145.5050 C   0  0  1  0  0  3  0  0  0  0  0  0
  191.9790  172.9670  144.3380 C   0  0  0  0  0  2  0  0  0  0  0  0
  192.6390  173.1930  143.0420 N   0  0  1  0  0  0  0  0  0  0  0  0
  194.1580  172.5990  145.4590 C   0  0  0  0  0  2  0  0  0  0  0  0
  193.8750  172.3860  142.9660 C   0  0  1  0  0  3  0  0  0  0  0  0
  195.7860  171.6520  141.4690 C   0  0  0  0  0  2  0  0  0  0  0  0
  195.0430  173.9720  141.3430 C   0  0  0  0  0  2  0  0  0  0  0  0
  194.5710  172.5530  141.6030 C   0  0  2  0  0  3  0  0  0  0  0  0
  196.8730  172.4720  140.7920 C   0  0  2  0  0  3  0  0  0  0  0  0
  197.9410  172.6100  141.6580 F   0  0  0  0  0  0  0  0  0  0  0  0
  196.2890  173.8430  140.4880 C   0  0  1  0  0  3  0  0  0  0  0  0
  197.0580  173.3810  138.1610 C   0  0  0  0  0  2  0  0  0  0  0  0
  195.9160  173.9260  139.0100 C   0  0  2  0  0  3  0  0  0  0  0  0
  196.8090  174.8700  138.2120 C   0  0  1  0  0  0  0  0  0  0  0  0
  197.9400  175.6320  138.8890 C   0  0  0  0  0  1  0  0  0  0  0  0
  196.2300  175.4060  136.9160 C   0  0  0  0  0  2  0  0  0  0  0  0
  197.2120  176.1040  136.2090 O   0  0  0  0  0  1  0  0  0  0  0  0
  191.7230  172.7910  141.9610 C   0  0  2  0  0  3  0  0  0  0  0  0
  191.3150  173.9810  141.1140 C   0  0  0  0  0  2  0  0  0  0  0  0
  189.8210  173.9100  141.0860 C   0  0  0  0  0  2  0  0  0  0  0  0
  190.5750  172.1400  142.4600 O   0  0  0  0  0  0  0  0  0  0  0  0
  188.2230  172.5460  142.3960 C   0  0  0  0  0  1  0  0  0  0  0  0
  189.5220  172.5300  141.6190 C   0  0  1  0  0  3  0  0  0  0  0  0
  193.1270  174.9340  145.5080 C   0  0  1  0  0  3  0  0  0  0  0  0
  192.3000  175.6720  146.5820 C   0  0  2  0  0  3  0  0  0  0  0  0
  190.9080  175.2320  146.5930 C   0  0  1  0  0  3  0  0  0  0  0  0
  190.3880  175.3690  147.8780 O   0  0  0  0  0  1  0  0  0  0  0  0
  191.2250  176.5660  146.0560 N   0  0  0  0  0  0  0  0  0  0  0  0
  191.0310  176.5000  144.6020 C   0  0  2  0  0  3  0  0  0  0  0  0
  191.5160  177.7860  143.9500 C   0  0  0  0  0  1  0  0  0  0  0  0
  189.5640  176.2340  144.2350 C   0  0  0  0  0  2  0  0  0  0  0  0
  188.6030  177.3000  144.7550 C   0  0  0  0  0  2  0  0  0  0  0  0
  187.3450  176.6590  145.3260 C   0  0  1  0  0  3  0  0  0  0  0  0
  184.5810  178.9640  145.5530 N   0  0  0  0  0  1  0  0  0  0  0  0
  187.3590  176.7230  146.8410 C   0  0  0  0  0  2  0  0  0  0  0  0
  186.3700  178.1470  147.3690 S   0  0  0  0  0  0  0  0  0  0  0  0
  185.9630  178.5300  145.6450 C   0  0  1  0  0  3  0  0  0  0  0  0
  186.1570  177.3410  144.8300 N   0  0  0  0  0  2  0  0  0  0  0  0
  194.6170  175.2460  145.6930 C   0  0  0  0  0  1  0  0  0  0  0  0
  195.9740  176.4520  143.8500 C   0  0  0  0  0 15  0  0  0  0  0  0
  195.0270  176.5060  144.9980 C   0  0  0  0  0  3  0  0  0  0  0  0
  195.8710  176.4560  143.9750 C   0  0  0  0  0  3  0  0  0  0  0  0
  1  5  1  0  0  0  0
  2 25  1  6  0  0  0
  3  2  1  0  0  0  0
  4  3  1  1  0  0  0
  5  2  1  0  0  0  0
  6  4  1  0  0  0  0
  6  1  1  1  0  0  0
  7  9  1  0  0  0  0
  9  8  1  1  0  0  0
  9  6  1  0  0  0  0
 10  7  1  0  0  0  0
 10 11  1  1  0  0  0
 12 10  1  0  0  0  0
 12  8  1  1  0  0  0
 13 15  1  0  0  0  0
 14 13  1  6  0  0  0
 14 12  1  0  0  0  0
 15 16  1  1  0  0  0
 15 14  1  0  0  0  0
 17 15  1  0  0  0  0
 18 17  1  0  0  0  0
 19 20  1  1  0  0  0
 19 22  1  0  0  0  0
 19  4  1  0  0  0  0
 21 20  1  0  0  0  0
 21 24  1  0  0  0  0
 24 23  1  1  0  0  0
 24 22  1  0  0  0  0
 25 40  1  1  0  0  0
 26 25  1  6  0  0  0
 26 27  1  0  0  0  0
 27 28  1  1  0  0  0
 29 26  1  0  0  0  0
 29 27  1  0  0  0  0
 30 31  1  6  0  0  0
 30 29  1  0  0  0  0
 32 30  1  0  0  0  0
 32 33  1  0  0  0  0
 34 33  1  6  0  0  0
 34 36  1  0  0  0  0
 36 37  1  0  0  0  0
 38 35  1  1  0  0  0
 38 37  1  0  0  0  0
 39 34  1  0  0  0  0
 39 38  1  0  0  0  0
 43 42  3  0  0  0  0
M  END
>  <MODEL>
2

>  <REMARK>
 VINA RESULT:      -6.9      4.190      8.701
  Name = 
  12 active torsions:
  status: ('A' for Active; 'I' for Inactive)
    1  A    between atoms: C_3  and  C_7
    2  A    between atoms: C_5  and  N_20
    3  A    between atoms: C_5  and  C_32
    4  A    between atoms: C_7  and  CA_8
    5  A    between atoms: C_7  and  C_39
    6  A    between atoms: C_11  and  N_18
    7  A    between atoms: C_12  and  C_39
    8  A    between atoms: C_14  and  C_40
    9  A    between atoms: C_16  and  C_37
   10  A    between atoms: C_23  and  C_27
   11  A    between atoms: C_26  and  C_29
   12  A    between atoms: C_32  and  C_40
                            x       y       z     vdW  Elec       q    Type
                         _______ _______ _______ _____ _____    ______ ____

>  <TORSDO>
F 12

$$$$
=
 OpenBabel11062422313D

 43 46  0  0  1  0  0  0  0  0999 V2000
  191.6890  176.8510  143.1070 C   0  0  0  0  0  2  0  0  0  0  0  0
  193.7270  175.4120  142.8480 C   0  0  1  0  0  3  0  0  0  0  0  0
  192.7830  174.2110  142.7690 C   0  0  0  0  0  2  0  0  0  0  0  0
  191.5760  174.4170  143.5860 N   0  0  1  0  0  0  0  0  0  0  0  0
  192.9800  176.6420  142.3300 C   0  0  0  0  0  2  0  0  0  0  0  0
  190.8210  175.5810  143.0750 C   0  0  1  0  0  3  0  0  0  0  0  0
  188.2930  175.3860  143.0800 C   0  0  0  0  0  2  0  0  0  0  0  0
  189.3120  177.2450  144.2860 C   0  0  0  0  0  2  0  0  0  0  0  0
  189.5210  175.8000  143.8710 C   0  0  2  0  0  3  0  0  0  0  0  0
  187.2270  176.4410  143.3310 C   0  0  2  0  0  3  0  0  0  0  0  0
  186.9220  177.0690  142.1390 F   0  0  0  0  0  0  0  0  0  0  0  0
  187.8110  177.4570  144.3020 C   0  0  1  0  0  3  0  0  0  0  0  0
  185.7910  176.8200  145.6190 C   0  0  0  0  0  2  0  0  0  0  0  0
  187.2640  177.2000  145.7040 C   0  0  2  0  0  3  0  0  0  0  0  0
  186.1830  178.1890  146.1240 C   0  0  1  0  0  0  0  0  0  0  0  0
  185.7440  179.3080  145.1890 C   0  0  0  0  0  1  0  0  0  0  0  0
  185.9560  178.3440  147.6160 C   0  0  0  0  0  2  0  0  0  0  0  0
  185.9940  179.6960  147.9650 O   0  0  0  0  0  1  0  0  0  0  0  0
  190.7320  173.2120  143.5060 C   0  0  2  0  0  3  0  0  0  0  0  0
  191.3760  172.0400  144.2230 C   0  0  0  0  0  2  0  0  0  0  0  0
  191.3520  170.9390  143.2100 C   0  0  0  0  0  2  0  0  0  0  0  0
  190.4450  172.8590  142.1710 O   0  0  0  0  0  0  0  0  0  0  0  0
  190.8520  170.9560  140.7860 C   0  0  0  0  0  1  0  0  0  0  0  0
  190.4160  171.4570  142.1470 C   0  0  1  0  0  3  0  0  0  0  0  0
  194.2980  175.6300  144.2680 C   0  0  1  0  0  3  0  0  0  0  0  0
  195.7630  176.1170  144.2440 C   0  0  2  0  0  3  0  0  0  0  0  0
  196.5250  175.4920  143.1680 C   0  0  1  0  0  3  0  0  0  0  0  0
  197.5370  176.3570  142.7530 O   0  0  0  0  0  1  0  0  0  0  0  0
  196.7870  175.0750  144.5560 N   0  0  0  0  0  0  0  0  0  0  0  0
  196.2510  173.7160  144.7030 C   0  0  2  0  0  3  0  0  0  0  0  0
  196.6320  173.1460  146.0610 C   0  0  0  0  0  1  0  0  0  0  0  0
  196.7360  172.7890  143.5780 C   0  0  0  0  0  2  0  0  0  0  0  0
  195.6080  172.0180  142.8970 C   0  0  0  0  0  2  0  0  0  0  0  0
  196.0320  171.5590  141.5080 C   0  0  1  0  0  3  0  0  0  0  0  0
  196.0280  174.2320  139.0870 N   0  0  0  0  0  1  0  0  0  0  0  0
  194.8380  171.0290  140.7380 C   0  0  0  0  0  2  0  0  0  0  0  0
  194.2170  172.3440  139.6570 S   0  0  0  0  0  0  0  0  0  0  0  0
  195.5400  173.4520  140.2100 C   0  0  1  0  0  3  0  0  0  0  0  0
  196.6280  172.6620  140.7660 N   0  0  0  0  0  2  0  0  0  0  0  0
  193.4380  176.6080  145.0770 C   0  0  0  0  0  1  0  0  0  0  0  0
  191.7560  175.9010  146.9110 C   0  0  0  0  0 15  0  0  0  0  0  0
  193.1590  176.1140  146.4620 C   0  0  0  0  0  3  0  0  0  0  0  0
  191.9090  175.9250  146.8610 C   0  0  0  0  0  3  0  0  0  0  0  0
  2 25  1  1  0  0  0
  3  2  1  0  0  0  0
  4  3  1  6  0  0  0
  5  2  1  0  0  0  0
  5  1  1  0  0  0  0
  6  1  1  1  0  0  0
  6  4  1  0  0  0  0
  6  9  1  0  0  0  0
  7 10  1  0  0  0  0
  9  7  1  6  0  0  0
  9  8  1  0  0  0  0
 10 11  1  6  0  0  0
 10 12  1  0  0  0  0
 12  8  1  1  0  0  0
 12 14  1  0  0  0  0
 13 15  1  0  0  0  0
 14 13  1  6  0  0  0
 14 15  1  0  0  0  0
 15 16  1  6  0  0  0
 15 17  1  0  0  0  0
 17 18  1  0  0  0  0
 19  4  1  0  0  0  0
 19 20  1  6  0  0  0
 21 20  1  0  0  0  0
 22 19  1  0  0  0  0
 24 23  1  6  0  0  0
 24 22  1  0  0  0  0
 24 21  1  0  0  0  0
 25 40  1  6  0  0  0
 26 25  1  6  0  0  0
 26 29  1  0  0  0  0
 27 28  1  1  0  0  0
 27 26  1  0  0  0  0
 27 29  1  0  0  0  0
 29 30  1  0  0  0  0
 30 31  1  1  0  0  0
 32 30  1  0  0  0  0
 33 32  1  0  0  0  0
 34 33  1  1  0  0  0
 36 34  1  0  0  0  0
 37 38  1  0  0  0  0
 37 36  1  0  0  0  0
 38 35  1  6  0  0  0
 38 39  1  0  0  0  0
 39 34  1  0  0  0  0
 42 43  3  0  0  0  0
M  END
>  <MODEL>
3

>  <REMARK>
 VINA RESULT:      -6.9      1.773      2.206
  Name = 
  12 active torsions:
  status: ('A' for Active; 'I' for Inactive)
    1  A    between atoms: C_3  and  C_7
    2  A    between atoms: C_5  and  N_20
    3  A    between atoms: C_5  and  C_32
    4  A    between atoms: C_7  and  CA_8
    5  A    between atoms: C_7  and  C_39
    6  A    between atoms: C_11  and  N_18
    7  A    between atoms: C_12  and  C_39
    8  A    between atoms: C_14  and  C_40
    9  A    between atoms: C_16  and  C_37
   10  A    between atoms: C_23  and  C_27
   11  A    between atoms: C_26  and  C_29
   12  A    between atoms: C_32  and  C_40
                            x       y       z     vdW  Elec       q    Type
                         _______ _______ _______ _____ _____    ______ ____

>  <TORSDO>
F 12

$$$$
=
 OpenBabel11062422313D

 43 46  0  0  1  0  0  0  0  0999 V2000
  195.5360  174.4810  146.1050 C   0  0  0  0  0  2  0  0  0  0  0  0
  196.9760  172.9520  144.7340 C   0  0  1  0  0  3  0  0  0  0  0  0
  196.7370  173.8970  143.5560 C   0  0  0  0  0  2  0  0  0  0  0  0
  195.4060  174.5230  143.6260 N   0  0  1  0  0  0  0  0  0  0  0  0
  196.8760  173.7630  146.0270 C   0  0  0  0  0  2  0  0  0  0  0  0
  195.3050  175.3420  144.8520 C   0  0  1  0  0  3  0  0  0  0  0  0
  193.6710  176.5970  146.3300 C   0  0  0  0  0  2  0  0  0  0  0  0
  192.7740  175.1610  144.5750 C   0  0  0  0  0  2  0  0  0  0  0  0
  193.9440  176.0580  144.9380 C   0  0  2  0  0  3  0  0  0  0  0  0
  192.2080  176.3170  146.6350 C   0  0  2  0  0  3  0  0  0  0  0  0
  192.1260  175.4560  147.7120 F   0  0  0  0  0  0  0  0  0  0  0  0
  191.6050  175.6490  145.4080 C   0  0  1  0  0  3  0  0  0  0  0  0
  190.1150  177.6420  145.5730 C   0  0  0  0  0  2  0  0  0  0  0  0
  190.7910  176.6690  144.6150 C   0  0  2  0  0  3  0  0  0  0  0  0
  189.2920  176.5830  144.8780 C   0  0  1  0  0  0  0  0  0  0  0  0
  188.7270  175.5500  145.8430 C   0  0  0  0  0  1  0  0  0  0  0  0
  188.3880  177.1630  143.8060 C   0  0  0  0  0  2  0  0  0  0  0  0
  187.5310  178.1120  144.3670 O   0  0  0  0  0  1  0  0  0  0  0  0
  195.2190  175.3830  142.4440 C   0  0  2  0  0  3  0  0  0  0  0  0
  194.4550  174.6590  141.3520 C   0  0  0  0  0  2  0  0  0  0  0  0
  195.3080  174.8340  140.1360 C   0  0  0  0  0  2  0  0  0  0  0  0
  196.4480  175.8550  141.9380 O   0  0  0  0  0  0  0  0  0  0  0  0
  197.6250  175.6650  139.8690 C   0  0  0  0  0  1  0  0  0  0  0  0
  196.2910  175.9030  140.5450 C   0  0  1  0  0  3  0  0  0  0  0  0
  196.0190  171.7380  144.7290 C   0  0  1  0  0  3  0  0  0  0  0  0
  196.3820  170.7080  143.6390 C   0  0  2  0  0  3  0  0  0  0  0  0
  195.7890  171.0500  142.3500 C   0  0  1  0  0  3  0  0  0  0  0  0
  196.5970  170.5650  141.3240 O   0  0  0  0  0  1  0  0  0  0  0  0
  195.2350  169.9140  143.1050 N   0  0  0  0  0  0  0  0  0  0  0  0
  193.9180  170.3320  143.6020 C   0  0  2  0  0  3  0  0  0  0  0  0
  193.2390  169.1770  144.3230 C   0  0  0  0  0  1  0  0  0  0  0  0
  193.0220  170.8560  142.4700 C   0  0  0  0  0  2  0  0  0  0  0  0
  192.1600  172.0470  142.8780 C   0  0  0  0  0  2  0  0  0  0  0  0
  190.6890  171.6580  142.9240 C   0  0  1  0  0  3  0  0  0  0  0  0
  188.9250  172.4910  139.8910 N   0  0  0  0  0  1  0  0  0  0  0  0
  189.8670  172.7640  143.5570 C   0  0  0  0  0  2  0  0  0  0  0  0
  189.1300  173.7640  142.2370 S   0  0  0  0  0  0  0  0  0  0  0  0
  189.8640  172.6840  140.9800 C   0  0  1  0  0  3  0  0  0  0  0  0
  190.1880  171.3990  141.5810 N   0  0  0  0  0  2  0  0  0  0  0  0
  195.9740  171.0510  146.1000 C   0  0  0  0  0  1  0  0  0  0  0  0
  196.8360  168.8900  147.2310 C   0  0  0  0  0 15  0  0  0  0  0  0
  197.0150  169.9850  146.2390 C   0  0  0  0  0  3  0  0  0  0  0  0
  196.8540  169.0100  147.1230 C   0  0  0  0  0  3  0  0  0  0  0  0
  2 25  1  1  0  0  0
  2  5  1  0  0  0  0
  3  2  1  0  0  0  0
  4  3  1  6  0  0  0
  4  6  1  0  0  0  0
  5  1  1  0  0  0  0
  6  9  1  0  0  0  0
  6  1  1  1  0  0  0
  7 10  1  0  0  0  0
  9  8  1  1  0  0  0
  9  7  1  0  0  0  0
 10 11  1  1  0  0  0
 12  8  1  6  0  0  0
 12 10  1  0  0  0  0
 14 15  1  0  0  0  0
 14 12  1  0  0  0  0
 14 13  1  1  0  0  0
 15 13  1  0  0  0  0
 15 16  1  1  0  0  0
 17 18  1  0  0  0  0
 17 15  1  0  0  0  0
 19 20  1  6  0  0  0
 19  4  1  0  0  0  0
 21 24  1  0  0  0  0
 21 20  1  0  0  0  0
 22 19  1  0  0  0  0
 24 23  1  6  0  0  0
 24 22  1  0  0  0  0
 25 40  1  1  0  0  0
 26 25  1  1  0  0  0
 27 28  1  6  0  0  0
 27 29  1  0  0  0  0
 27 26  1  0  0  0  0
 29 30  1  0  0  0  0
 29 26  1  0  0  0  0
 30 31  1  6  0  0  0
 32 33  1  0  0  0  0
 32 30  1  0  0  0  0
 34 33  1  6  0  0  0
 34 36  1  0  0  0  0
 37 36  1  0  0  0  0
 38 35  1  6  0  0  0
 38 39  1  0  0  0  0
 38 37  1  0  0  0  0
 39 34  1  0  0  0  0
 42 43  3  0  0  0  0
M  END
>  <MODEL>
4

>  <REMARK>
 VINA RESULT:      -6.7      2.767      5.773
  Name = 
  12 active torsions:
  status: ('A' for Active; 'I' for Inactive)
    1  A    between atoms: C_3  and  C_7
    2  A    between atoms: C_5  and  N_20
    3  A    between atoms: C_5  and  C_32
    4  A    between atoms: C_7  and  CA_8
    5  A    between atoms: C_7  and  C_39
    6  A    between atoms: C_11  and  N_18
    7  A    between atoms: C_12  and  C_39
    8  A    between atoms: C_14  and  C_40
    9  A    between atoms: C_16  and  C_37
   10  A    between atoms: C_23  and  C_27
   11  A    between atoms: C_26  and  C_29
   12  A    between atoms: C_32  and  C_40
                            x       y       z     vdW  Elec       q    Type
                         _______ _______ _______ _____ _____    ______ ____

>  <TORSDO>
F 12

$$$$
=
 OpenBabel11062422313D

 43 46  0  0  1  0  0  0  0  0999 V2000
  190.2110  172.7810  144.5190 C   0  0  0  0  0  2  0  0  0  0  0  0
  191.5890  172.0260  142.5630 C   0  0  1  0  0  3  0  0  0  0  0  0
  192.4750  173.2490  142.8050 C   0  0  0  0  0  2  0  0  0  0  0  0
  191.7000  174.3810  143.3400 N   0  0  1  0  0  0  0  0  0  0  0  0
  190.9670  171.6150  143.8990 C   0  0  0  0  0  2  0  0  0  0  0  0
  191.1220  174.0140  144.6500 C   0  0  1  0  0  3  0  0  0  0  0  0
  190.4170  175.1820  146.7860 C   0  0  0  0  0  2  0  0  0  0  0  0
  188.8750  175.1970  144.8970 C   0  0  0  0  0  2  0  0  0  0  0  0
  190.3460  175.1900  145.2700 C   0  0  2  0  0  3  0  0  0  0  0  0
  189.0310  175.5430  147.2970 C   0  0  2  0  0  3  0  0  0  0  0  0
  188.5200  174.4770  148.0130 F   0  0  0  0  0  0  0  0  0  0  0  0
  188.1500  175.8030  146.0840 C   0  0  1  0  0  3  0  0  0  0  0  0
  187.2950  177.9180  147.0930 C   0  0  0  0  0  2  0  0  0  0  0  0
  187.9880  177.3080  145.8810 C   0  0  2  0  0  3  0  0  0  0  0  0
  186.5330  177.7540  145.7990 C   0  0  1  0  0  0  0  0  0  0  0  0
  185.3990  176.7440  145.9070 C   0  0  0  0  0  1  0  0  0  0  0  0
  186.2750  179.0800  145.1060 C   0  0  0  0  0  2  0  0  0  0  0  0
  185.5980  178.8650  143.9040 O   0  0  0  0  0  1  0  0  0  0  0  0
  192.5960  175.5380  143.5060 C   0  0  2  0  0  3  0  0  0  0  0  0
  193.0710  176.0640  142.1650 C   0  0  0  0  0  2  0  0  0  0  0  0
  194.5590  176.1260  142.3060 C   0  0  0  0  0  2  0  0  0  0  0  0
  193.7060  175.2310  144.3210 O   0  0  0  0  0  0  0  0  0  0  0  0
  196.0770  175.2160  144.0370 C   0  0  0  0  0  1  0  0  0  0  0  0
  194.7810  175.9580  143.7890 C   0  0  1  0  0  3  0  0  0  0  0  0
  190.5220  172.2670  141.4710 C   0  0  1  0  0  3  0  0  0  0  0  0
  190.4900  171.1370  140.4210 C   0  0  2  0  0  3  0  0  0  0  0  0
  191.8290  170.7910  139.9530 C   0  0  1  0  0  3  0  0  0  0  0  0
  191.8570  169.4510  139.5750 O   0  0  0  0  0  1  0  0  0  0  0  0
  190.9300  171.5280  139.0480 N   0  0  0  0  0  0  0  0  0  0  0  0
  191.4560  172.8950  138.9410 C   0  0  2  0  0  3  0  0  0  0  0  0
  190.7820  173.6280  137.7920 C   0  0  0  0  0  1  0  0  0  0  0  0
  192.9820  172.9050  138.7610 C   0  0  0  0  0  2  0  0  0  0  0  0
  193.6230  174.2530  139.0770 C   0  0  0  0  0  2  0  0  0  0  0  0
  195.1110  174.0910  139.3550 C   0  0  1  0  0  3  0  0  0  0  0  0
  197.1820  175.6840  136.8700 N   0  0  0  0  0  1  0  0  0  0  0  0
  195.6210  172.7900  138.7640 C   0  0  0  0  0  2  0  0  0  0  0  0
  196.3860  173.1450  137.1600 S   0  0  0  0  0  0  0  0  0  0  0  0
  196.0580  174.9150  137.3710 C   0  0  1  0  0  3  0  0  0  0  0  0
  195.8600  175.2020  138.7840 N   0  0  0  0  0  2  0  0  0  0  0  0
  189.1260  172.4530  142.0780 C   0  0  0  0  0  1  0  0  0  0  0  0
  188.5830  174.8680  141.3280 C   0  0  0  0  0 15  0  0  0  0  0  0
  188.2850  173.4100  141.2950 C   0  0  0  0  0  3  0  0  0  0  0  0
  188.5520  174.7090  141.3250 C   0  0  0  0  0  3  0  0  0  0  0  0
  2 25  1  6  0  0  0
  2  3  1  0  0  0  0
  2  5  1  0  0  0  0
  4  3  1  1  0  0  0
  4 19  1  0  0  0  0
  4  6  1  0  0  0  0
  5  1  1  0  0  0  0
  6  1  1  6  0  0  0
  6  9  1  0  0  0  0
  7 10  1  0  0  0  0
  9  8  1  1  0  0  0
  9  7  1  0  0  0  0
 10 11  1  6  0  0  0
 12  8  1  6  0  0  0
 12 10  1  0  0  0  0
 14 12  1  0  0  0  0
 14 13  1  1  0  0  0
 15 14  1  0  0  0  0
 15 16  1  6  0  0  0
 15 13  1  0  0  0  0
 17 15  1  0  0  0  0
 18 17  1  0  0  0  0
 19 20  1  6  0  0  0
 19 22  1  0  0  0  0
 20 21  1  0  0  0  0
 21 24  1  0  0  0  0
 24 23  1  6  0  0  0
 24 22  1  0  0  0  0
 25 40  1  1  0  0  0
 26 25  1  1  0  0  0
 27 28  1  6  0  0  0
 27 26  1  0  0  0  0
 29 27  1  0  0  0  0
 29 26  1  0  0  0  0
 30 31  1  6  0  0  0
 30 29  1  0  0  0  0
 32 30  1  0  0  0  0
 32 33  1  0  0  0  0
 34 33  1  6  0  0  0
 36 34  1  0  0  0  0
 37 38  1  0  0  0  0
 37 36  1  0  0  0  0
 38 35  1  1  0  0  0
 38 39  1  0  0  0  0
 39 34  1  0  0  0  0
 42 43  3  0  0  0  0
M  END
>  <MODEL>
5

>  <REMARK>
 VINA RESULT:      -6.6      3.314      6.078
  Name = 
  12 active torsions:
  status: ('A' for Active; 'I' for Inactive)
    1  A    between atoms: C_3  and  C_7
    2  A    between atoms: C_5  and  N_20
    3  A    between atoms: C_5  and  C_32
    4  A    between atoms: C_7  and  CA_8
    5  A    between atoms: C_7  and  C_39
    6  A    between atoms: C_11  and  N_18
    7  A    between atoms: C_12  and  C_39
    8  A    between atoms: C_14  and  C_40
    9  A    between atoms: C_16  and  C_37
   10  A    between atoms: C_23  and  C_27
   11  A    between atoms: C_26  and  C_29
   12  A    between atoms: C_32  and  C_40
                            x       y       z     vdW  Elec       q    Type
                         _______ _______ _______ _____ _____    ______ ____

>  <TORSDO>
F 12

$$$$
=
 OpenBabel11062422313D

 43 46  0  0  1  0  0  0  0  0999 V2000
  190.7500  172.5980  144.8460 C   0  0  0  0  0  2  0  0  0  0  0  0
  192.1830  171.8710  142.9200 C   0  0  1  0  0  3  0  0  0  0  0  0
  192.9690  173.1700  143.1060 C   0  0  0  0  0  2  0  0  0  0  0  0
  192.1070  174.2590  143.5950 N   0  0  1  0  0  0  0  0  0  0  0  0
  191.5960  171.4700  144.2740 C   0  0  0  0  0  2  0  0  0  0  0  0
  191.5600  173.9030  144.9210 C   0  0  1  0  0  3  0  0  0  0  0  0
  190.6030  174.9800  147.0080 C   0  0  0  0  0  2  0  0  0  0  0  0
  189.2690  175.0270  144.9670 C   0  0  0  0  0  2  0  0  0  0  0  0
  190.6930  175.0390  145.4940 C   0  0  2  0  0  3  0  0  0  0  0  0
  189.1620  175.2920  147.3790 C   0  0  2  0  0  3  0  0  0  0  0  0
  188.6070  174.1900  148.0020 F   0  0  0  0  0  0  0  0  0  0  0  0
  188.4080  175.5750  146.0880 C   0  0  1  0  0  3  0  0  0  0  0  0
  187.7370  177.6910  147.2250 C   0  0  0  0  0  2  0  0  0  0  0  0
  188.2300  177.0820  145.9180 C   0  0  2  0  0  3  0  0  0  0  0  0
  186.7830  177.5400  146.0630 C   0  0  1  0  0  0  0  0  0  0  0  0
  185.6710  176.5380  146.3420 C   0  0  0  0  0  1  0  0  0  0  0  0
  186.4330  178.8710  145.4240 C   0  0  0  0  0  2  0  0  0  0  0  0
  185.1110  179.2090  145.7210 O   0  0  0  0  0  1  0  0  0  0  0  0
  192.9080  175.4900  143.7080 C   0  0  2  0  0  3  0  0  0  0  0  0
  193.2340  176.0620  142.3420 C   0  0  0  0  0  2  0  0  0  0  0  0
  194.7170  176.2540  142.3750 C   0  0  0  0  0  2  0  0  0  0  0  0
  194.0970  175.2780  144.4370 O   0  0  0  0  0  0  0  0  0  0  0  0
  196.4330  175.4740  143.9810 C   0  0  0  0  0  1  0  0  0  0  0  0
  195.0620  176.1000  143.8360 C   0  0  1  0  0  3  0  0  0  0  0  0
  191.1010  171.9800  141.8220 C   0  0  1  0  0  3  0  0  0  0  0  0
  191.6940  172.3500  140.4460 C   0  0  2  0  0  3  0  0  0  0  0  0
  191.6170  173.7850  140.1890 C   0  0  1  0  0  3  0  0  0  0  0  0
  192.6650  174.1640  139.3540 O   0  0  0  0  0  1  0  0  0  0  0  0
  190.7160  172.8830  139.4520 N   0  0  0  0  0  0  0  0  0  0  0  0
  189.3630  173.1010  139.9810 C   0  0  2  0  0  3  0  0  0  0  0  0
  188.3390  173.0020  138.8610 C   0  0  0  0  0  1  0  0  0  0  0  0
  189.2440  174.4550  140.6970 C   0  0  0  0  0  2  0  0  0  0  0  0
  187.8150  174.8050  141.1030 C   0  0  0  0  0  2  0  0  0  0  0  0
  187.8080  175.6960  142.3380 C   0  0  1  0  0  3  0  0  0  0  0  0
  184.9350  177.8700  142.4800 N   0  0  0  0  0  1  0  0  0  0  0  0
  188.5990  176.9640  142.0810 C   0  0  0  0  0  2  0  0  0  0  0  0
  187.4410  178.2860  141.6350 S   0  0  0  0  0  0  0  0  0  0  0  0
  186.0380  177.1610  141.8580 C   0  0  1  0  0  3  0  0  0  0  0  0
  186.4430  176.0480  142.7040 N   0  0  0  0  0  2  0  0  0  0  0  0
  190.2850  170.6860  141.7060 C   0  0  0  0  0  1  0  0  0  0  0  0
  191.2520  168.2880  141.6560 C   0  0  0  0  0 15  0  0  0  0  0  0
  191.0310  169.6020  140.9940 C   0  0  0  0  0  3  0  0  0  0  0  0
  191.2270  168.4310  141.5850 C   0  0  0  0  0  3  0  0  0  0  0  0
  2 25  1  6  0  0  0
  2  3  1  0  0  0  0
  2  5  1  0  0  0  0
  4  3  1  1  0  0  0
  4 19  1  0  0  0  0
  4  6  1  0  0  0  0
  5  1  1  0  0  0  0
  6  1  1  6  0  0  0
  6  9  1  0  0  0  0
  7 10  1  0  0  0  0
  9  8  1  6  0  0  0
  9  7  1  0  0  0  0
 10 11  1  6  0  0  0
 12  8  1  6  0  0  0
 12 10  1  0  0  0  0
 14 15  1  0  0  0  0
 14 12  1  0  0  0  0
 14 13  1  1  0  0  0
 15 16  1  1  0  0  0
 15 13  1  0  0  0  0
 17 18  1  0  0  0  0
 17 15  1  0  0  0  0
 19 20  1  6  0  0  0
 19 22  1  0  0  0  0
 20 21  1  0  0  0  0
 21 24  1  0  0  0  0
 24 23  1  6  0  0  0
 24 22  1  0  0  0  0
 25 40  1  6  0  0  0
 26 25  1  1  0  0  0
 27 28  1  6  0  0  0
 27 26  1  0  0  0  0
 29 30  1  0  0  0  0
 29 27  1  0  0  0  0
 29 26  1  0  0  0  0
 30 31  1  6  0  0  0
 30 32  1  0  0  0  0
 32 33  1  0  0  0  0
 34 33  1  6  0  0  0
 34 39  1  0  0  0  0
 36 34  1  0  0  0  0
 37 38  1  0  0  0  0
 37 36  1  0  0  0  0
 38 35  1  1  0  0  0
 38 39  1  0  0  0  0
 42 43  3  0  0  0  0
M  END
>  <MODEL>
6

>  <REMARK>
 VINA RESULT:      -6.6      3.283      6.925
  Name = 
  12 active torsions:
  status: ('A' for Active; 'I' for Inactive)
    1  A    between atoms: C_3  and  C_7
    2  A    between atoms: C_5  and  N_20
    3  A    between atoms: C_5  and  C_32
    4  A    between atoms: C_7  and  CA_8
    5  A    between atoms: C_7  and  C_39
    6  A    between atoms: C_11  and  N_18
    7  A    between atoms: C_12  and  C_39
    8  A    between atoms: C_14  and  C_40
    9  A    between atoms: C_16  and  C_37
   10  A    between atoms: C_23  and  C_27
   11  A    between atoms: C_26  and  C_29
   12  A    between atoms: C_32  and  C_40
                            x       y       z     vdW  Elec       q    Type
                         _______ _______ _______ _____ _____    ______ ____

>  <TORSDO>
F 12

$$$$
=
 OpenBabel11062422313D

 43 46  0  0  1  0  0  0  0  0999 V2000
  194.6650  176.2560  144.6340 C   0  0  0  0  0  2  0  0  0  0  0  0
  192.8140  175.4360  146.1160 C   0  0  1  0  0  3  0  0  0  0  0  0
  193.3100  174.0180  145.8310 C   0  0  0  0  0  2  0  0  0  0  0  0
  193.8810  173.9050  144.4780 N   0  0  1  0  0  0  0  0  0  0  0  0
  194.0040  176.3900  145.9980 C   0  0  0  0  0  2  0  0  0  0  0  0
  195.0550  174.7940  144.3590 C   0  0  1  0  0  3  0  0  0  0  0  0
  196.7220  175.7750  142.7190 C   0  0  0  0  0  2  0  0  0  0  0  0
  194.7180  174.7080  141.8300 C   0  0  0  0  0  2  0  0  0  0  0  0
  195.7160  174.6680  142.9740 C   0  0  2  0  0  3  0  0  0  0  0  0
  196.5350  176.2220  141.2780 C   0  0  2  0  0  3  0  0  0  0  0  0
  196.1290  177.5430  141.2620 F   0  0  0  0  0  0  0  0  0  0  0  0
  195.4470  175.3520  140.6670 C   0  0  1  0  0  3  0  0  0  0  0  0
  196.8660  174.9300  138.6600 C   0  0  0  0  0  2  0  0  0  0  0  0
  196.0820  174.2750  139.7910 C   0  0  2  0  0  3  0  0  0  0  0  0
  195.5440  174.2600  138.3640 C   0  0  1  0  0  0  0  0  0  0  0  0
  194.4710  175.2470  137.9250 C   0  0  0  0  0  1  0  0  0  0  0  0
  195.7110  172.9620  137.5970 C   0  0  0  0  0  2  0  0  0  0  0  0
  196.1220  173.2310  136.2900 O   0  0  0  0  0  1  0  0  0  0  0  0
  194.2960  172.5100  144.2480 C   0  0  2  0  0  3  0  0  0  0  0  0
  193.4160  171.5410  145.0130 C   0  0  0  0  0  2  0  0  0  0  0  0
  194.3870  170.6820  145.7600 C   0  0  0  0  0  2  0  0  0  0  0  0
  195.6490  172.3010  144.5870 O   0  0  0  0  0  0  0  0  0  0  0  0
  196.8230  170.9160  146.1390 C   0  0  0  0  0  1  0  0  0  0  0  0
  195.7120  171.0030  145.1130 C   0  0  1  0  0  3  0  0  0  0  0  0
  191.6380  175.8520  145.2040 C   0  0  1  0  0  3  0  0  0  0  0  0
  190.2800  175.8030  145.9360 C   0  0  2  0  0  3  0  0  0  0  0  0
  189.9670  174.4580  146.4090 C   0  0  1  0  0  3  0  0  0  0  0  0
  189.1710  174.5410  147.5500 O   0  0  0  0  0  1  0  0  0  0  0  0
  189.2200  174.9980  145.2600 N   0  0  0  0  0  0  0  0  0  0  0  0
  189.6730  174.2640  144.0710 C   0  0  2  0  0  3  0  0  0  0  0  0
  188.7570  174.5570  142.8930 C   0  0  0  0  0  1  0  0  0  0  0  0
  189.7460  172.7520  144.3290 C   0  0  0  0  0  2  0  0  0  0  0  0
  189.5990  171.9110  143.0640 C   0  0  0  0  0  2  0  0  0  0  0  0
  190.9590  171.4220  142.5820 C   0  0  1  0  0  3  0  0  0  0  0  0
  191.9950  172.9850  139.5010 N   0  0  0  0  0  1  0  0  0  0  0  0
  190.8040  170.1660  141.7460 C   0  0  0  0  0  2  0  0  0  0  0  0
  190.8160  170.6320  139.9940 S   0  0  0  0  0  0  0  0  0  0  0  0
  191.0710  172.3710  140.4370 C   0  0  1  0  0  3  0  0  0  0  0  0
  191.6150  172.4490  141.7840 N   0  0  0  0  0  2  0  0  0  0  0  0
  191.8550  177.2470  144.6050 C   0  0  0  0  0  1  0  0  0  0  0  0
  190.0550  177.9880  142.9020 C   0  0  0  0  0 15  0  0  0  0  0  0
  191.3660  177.3470  143.1950 C   0  0  0  0  0  3  0  0  0  0  0  0
  190.1980  177.9190  142.9360 C   0  0  0  0  0  3  0  0  0  0  0  0
  1  5  1  0  0  0  0
  2 25  1  6  0  0  0
  3  2  1  0  0  0  0
  4  3  1  1  0  0  0
  5  2  1  0  0  0  0
  6  4  1  0  0  0  0
  6  1  1  6  0  0  0
  7  9  1  0  0  0  0
  9  8  1  6  0  0  0
  9  6  1  0  0  0  0
 10 11  1  1  0  0  0
 10  7  1  0  0  0  0
 12 10  1  0  0  0  0
 12  8  1  1  0  0  0
 14 13  1  6  0  0  0
 14 12  1  0  0  0  0
 15 16  1  6  0  0  0
 15 13  1  0  0  0  0
 15 14  1  0  0  0  0
 17 15  1  0  0  0  0
 18 17  1  0  0  0  0
 19  4  1  0  0  0  0
 19 22  1  0  0  0  0
 19 20  1  1  0  0  0
 20 21  1  0  0  0  0
 22 24  1  0  0  0  0
 24 21  1  0  0  0  0
 24 23  1  1  0  0  0
 25 40  1  1  0  0  0
 26 25  1  6  0  0  0
 26 27  1  0  0  0  0
 27 28  1  1  0  0  0
 29 26  1  0  0  0  0
 29 27  1  0  0  0  0
 30 31  1  6  0  0  0
 30 32  1  0  0  0  0
 30 29  1  0  0  0  0
 33 32  1  0  0  0  0
 34 33  1  6  0  0  0
 36 34  1  0  0  0  0
 37 38  1  0  0  0  0
 37 36  1  0  0  0  0
 38 35  1  6  0  0  0
 38 39  1  0  0  0  0
 39 34  1  0  0  0  0
 43 42  3  0  0  0  0
M  END
>  <MODEL>
7

>  <REMARK>
 VINA RESULT:      -6.5      3.247      7.622
  Name = 
  12 active torsions:
  status: ('A' for Active; 'I' for Inactive)
    1  A    between atoms: C_3  and  C_7
    2  A    between atoms: C_5  and  N_20
    3  A    between atoms: C_5  and  C_32
    4  A    between atoms: C_7  and  CA_8
    5  A    between atoms: C_7  and  C_39
    6  A    between atoms: C_11  and  N_18
    7  A    between atoms: C_12  and  C_39
    8  A    between atoms: C_14  and  C_40
    9  A    between atoms: C_16  and  C_37
   10  A    between atoms: C_23  and  C_27
   11  A    between atoms: C_26  and  C_29
   12  A    between atoms: C_32  and  C_40
                            x       y       z     vdW  Elec       q    Type
                         _______ _______ _______ _____ _____    ______ ____

>  <TORSDO>
F 12

$$$$
=
 OpenBabel11062422313D

 43 46  0  0  1  0  0  0  0  0999 V2000
  191.4750  176.7240  143.2540 C   0  0  0  0  0  2  0  0  0  0  0  0
  193.3540  175.0710  143.0930 C   0  0  1  0  0  3  0  0  0  0  0  0
  192.3900  174.1550  142.3380 C   0  0  0  0  0  2  0  0  0  0  0  0
  191.0030  174.3290  142.8010 N   0  0  1  0  0  0  0  0  0  0  0  0
  192.9270  176.5190  142.8490 C   0  0  0  0  0  2  0  0  0  0  0  0
  190.5610  175.7140  142.5390 C   0  0  1  0  0  3  0  0  0  0  0  0
  188.2240  176.3600  141.7970 C   0  0  0  0  0  2  0  0  0  0  0  0
  188.9330  176.9700  144.0500 C   0  0  0  0  0  2  0  0  0  0  0  0
  189.0960  175.9250  142.9610 C   0  0  2  0  0  3  0  0  0  0  0  0
  187.2910  177.4410  142.3220 C   0  0  2  0  0  3  0  0  0  0  0  0
  187.5530  178.6250  141.6610 F   0  0  0  0  0  0  0  0  0  0  0  0
  187.5820  177.6150  143.8050 C   0  0  1  0  0  3  0  0  0  0  0  0
  185.1320  177.2260  144.0600 C   0  0  0  0  0  2  0  0  0  0  0  0
  186.5090  176.9040  144.6260 C   0  0  2  0  0  3  0  0  0  0  0  0
  185.5740  177.8590  145.3580 C   0  0  1  0  0  0  0  0  0  0  0  0
  185.7540  179.3670  145.2450 C   0  0  0  0  0  1  0  0  0  0  0  0
  184.8410  177.2930  146.5600 C   0  0  0  0  0  2  0  0  0  0  0  0
  184.2020  178.3210  147.2560 O   0  0  0  0  0  1  0  0  0  0  0  0
  190.1340  173.3900  142.0720 C   0  0  2  0  0  3  0  0  0  0  0  0
  190.1770  172.0050  142.6900 C   0  0  0  0  0  2  0  0  0  0  0  0
  190.4780  171.1020  141.5360 C   0  0  0  0  0  2  0  0  0  0  0  0
  190.4710  173.3150  140.7040 O   0  0  0  0  0  0  0  0  0  0  0  0
  191.2040  171.5930  139.2200 C   0  0  0  0  0  1  0  0  0  0  0  0
  190.2500  171.9810  140.3310 C   0  0  1  0  0  3  0  0  0  0  0  0
  193.4440  174.7330  144.5980 C   0  0  1  0  0  3  0  0  0  0  0  0
  194.9000  174.6960  145.1070 C   0  0  2  0  0  3  0  0  0  0  0  0
  195.8200  174.2020  144.0870 C   0  0  1  0  0  3  0  0  0  0  0  0
  197.0780  174.7670  144.2830 O   0  0  0  0  0  1  0  0  0  0  0  0
  195.4980  173.3330  145.2320 N   0  0  0  0  0  0  0  0  0  0  0  0
  194.6540  172.2460  144.7210 C   0  0  2  0  0  3  0  0  0  0  0  0
  194.5770  171.1190  145.7400 C   0  0  0  0  0  1  0  0  0  0  0  0
  195.1640  171.7140  143.3740 C   0  0  0  0  0  2  0  0  0  0  0  0
  194.1070  170.9500  142.5810 C   0  0  0  0  0  2  0  0  0  0  0  0
  194.5470  169.5120  142.3420 C   0  0  1  0  0  3  0  0  0  0  0  0
  194.9540  168.7380  138.8430 N   0  0  0  0  0  1  0  0  0  0  0  0
  193.3430  168.5930  142.2760 C   0  0  0  0  0  2  0  0  0  0  0  0
  192.9230  168.3140  140.5350 S   0  0  0  0  0  0  0  0  0  0  0  0
  194.3290  169.3310  140.0110 C   0  0  1  0  0  3  0  0  0  0  0  0
  195.2950  169.4100  141.0960 N   0  0  0  0  0  2  0  0  0  0  0  0
  192.6220  175.7120  145.4450 C   0  0  0  0  0  1  0  0  0  0  0  0
  191.4100  175.8850  147.7240 C   0  0  0  0  0 15  0  0  0  0  0  0
  192.4050  175.2180  146.8410 C   0  0  0  0  0  3  0  0  0  0  0  0
  191.5180  175.8130  147.6260 C   0  0  0  0  0  3  0  0  0  0  0  0
  2 25  1  1  0  0  0
  3  2  1  0  0  0  0
  4  3  1  6  0  0  0
  5  2  1  0  0  0  0
  5  1  1  0  0  0  0
  6  4  1  0  0  0  0
  6  9  1  0  0  0  0
  6  1  1  1  0  0  0
  7 10  1  0  0  0  0
  9  7  1  6  0  0  0
  9  8  1  0  0  0  0
 10 11  1  6  0  0  0
 10 12  1  0  0  0  0
 12  8  1  6  0  0  0
 12 14  1  0  0  0  0
 13 15  1  0  0  0  0
 14 13  1  6  0  0  0
 14 15  1  0  0  0  0
 15 16  1  6  0  0  0
 15 17  1  0  0  0  0
 17 18  1  0  0  0  0
 19 20  1  1  0  0  0
 19  4  1  0  0  0  0
 21 20  1  0  0  0  0
 22 19  1  0  0  0  0
 24 23  1  6  0  0  0
 24 22  1  0  0  0  0
 24 21  1  0  0  0  0
 25 40  1  1  0  0  0
 26 25  1  6  0  0  0
 26 29  1  0  0  0  0
 27 28  1  1  0  0  0
 27 26  1  0  0  0  0
 27 29  1  0  0  0  0
 30 29  1  0  0  0  0
 30 31  1  1  0  0  0
 32 30  1  0  0  0  0
 33 32  1  0  0  0  0
 34 33  1  6  0  0  0
 36 34  1  0  0  0  0
 37 36  1  0  0  0  0
 38 35  1  6  0  0  0
 38 37  1  0  0  0  0
 38 39  1  0  0  0  0
 39 34  1  0  0  0  0
 42 43  3  0  0  0  0
M  END
>  <MODEL>
8

>  <REMARK>
 VINA RESULT:      -6.4      1.867      2.242
  Name = 
  12 active torsions:
  status: ('A' for Active; 'I' for Inactive)
    1  A    between atoms: C_3  and  C_7
    2  A    between atoms: C_5  and  N_20
    3  A    between atoms: C_5  and  C_32
    4  A    between atoms: C_7  and  CA_8
    5  A    between atoms: C_7  and  C_39
    6  A    between atoms: C_11  and  N_18
    7  A    between atoms: C_12  and  C_39
    8  A    between atoms: C_14  and  C_40
    9  A    between atoms: C_16  and  C_37
   10  A    between atoms: C_23  and  C_27
   11  A    between atoms: C_26  and  C_29
   12  A    between atoms: C_32  and  C_40
                            x       y       z     vdW  Elec       q    Type
                         _______ _______ _______ _____ _____    ______ ____

>  <TORSDO>
F 12

$$$$
=
 OpenBabel11062422313D

 43 46  0  0  1  0  0  0  0  0999 V2000
  191.3580  176.8760  143.5940 C   0  0  0  0  0  2  0  0  0  0  0  0
  193.1930  175.1740  143.4200 C   0  0  1  0  0  3  0  0  0  0  0  0
  192.2320  174.3270  142.5860 C   0  0  0  0  0  2  0  0  0  0  0  0
  190.8340  174.5210  143.0050 N   0  0  1  0  0  0  0  0  0  0  0  0
  192.8180  176.6450  143.2340 C   0  0  0  0  0  2  0  0  0  0  0  0
  190.4430  175.9310  142.7960 C   0  0  1  0  0  3  0  0  0  0  0  0
  188.0420  175.9970  141.9850 C   0  0  0  0  0  2  0  0  0  0  0  0
  188.7130  177.5530  143.7390 C   0  0  0  0  0  2  0  0  0  0  0  0
  188.9700  176.1670  143.1740 C   0  0  2  0  0  3  0  0  0  0  0  0
  187.0080  177.1090  142.0660 C   0  0  2  0  0  3  0  0  0  0  0  0
  187.1360  177.9270  140.9600 F   0  0  0  0  0  0  0  0  0  0  0  0
  187.3000  177.9130  143.3240 C   0  0  1  0  0  3  0  0  0  0  0  0
  184.8890  177.6470  143.9100 C   0  0  0  0  0  2  0  0  0  0  0  0
  186.3180  177.5170  144.4250 C   0  0  2  0  0  3  0  0  0  0  0  0
  185.4280  178.6670  144.8850 C   0  0  1  0  0  0  0  0  0  0  0  0
  185.5650  180.0530  144.2710 C   0  0  0  0  0  1  0  0  0  0  0  0
  184.8140  178.5290  146.2660 C   0  0  0  0  0  2  0  0  0  0  0  0
  183.4250  178.6490  146.1830 O   0  0  0  0  0  1  0  0  0  0  0  0
  189.9650  173.6470  142.1990 C   0  0  2  0  0  3  0  0  0  0  0  0
  189.7140  172.3240  142.8980 C   0  0  0  0  0  2  0  0  0  0  0  0
  190.0620  171.2980  141.8660 C   0  0  0  0  0  2  0  0  0  0  0  0
  190.4990  173.4170  140.9130 O   0  0  0  0  0  0  0  0  0  0  0  0
  191.2050  171.4980  139.6790 C   0  0  0  0  0  1  0  0  0  0  0  0
  190.1530  172.0970  140.5900 C   0  0  1  0  0  3  0  0  0  0  0  0
  193.2140  174.7600  144.9090 C   0  0  1  0  0  3  0  0  0  0  0  0
  193.8450  175.8430  145.8110 C   0  0  2  0  0  3  0  0  0  0  0  0
  194.8750  176.6020  145.1090 C   0  0  1  0  0  3  0  0  0  0  0  0
  194.9420  177.8900  145.6360 O   0  0  0  0  0  1  0  0  0  0  0  0
  195.2870  175.6370  146.1420 N   0  0  0  0  0  0  0  0  0  0  0  0
  195.9190  174.5080  145.4460 C   0  0  2  0  0  3  0  0  0  0  0  0
  196.8040  173.7290  146.4060 C   0  0  0  0  0  1  0  0  0  0  0  0
  196.7300  174.9730  144.2280 C   0  0  0  0  0  2  0  0  0  0  0  0
  197.5110  173.8500  143.5520 C   0  0  0  0  0  2  0  0  0  0  0  0
  196.7610  173.3290  142.3330 C   0  0  1  0  0  3  0  0  0  0  0  0
  195.1300  170.1700  142.9380 N   0  0  0  0  0  1  0  0  0  0  0  0
  197.6910  172.5340  141.4380 C   0  0  0  0  0  2  0  0  0  0  0  0
  197.4780  170.7710  141.8020 S   0  0  0  0  0  0  0  0  0  0  0  0
  196.1910  171.1570  143.0190 C   0  0  1  0  0  3  0  0  0  0  0  0
  195.6510  172.4800  142.7430 N   0  0  0  0  0  2  0  0  0  0  0  0
  191.8090  174.4140  145.4180 C   0  0  0  0  0  1  0  0  0  0  0  0
  190.0350  175.3200  147.0680 C   0  0  0  0  0 15  0  0  0  0  0  0
  191.4600  175.1460  146.6750 C   0  0  0  0  0  3  0  0  0  0  0  0
  190.1900  175.3000  147.0240 C   0  0  0  0  0  3  0  0  0  0  0  0
  2 25  1  1  0  0  0
  3  2  1  0  0  0  0
  4  3  1  6  0  0  0
  5  2  1  0  0  0  0
  5  1  1  0  0  0  0
  6  4  1  0  0  0  0
  6  9  1  0  0  0  0
  6  1  1  1  0  0  0
  7 10  1  0  0  0  0
  9  7  1  6  0  0  0
  9  8  1  0  0  0  0
 10 11  1  6  0  0  0
 10 12  1  0  0  0  0
 12  8  1  1  0  0  0
 12 14  1  0  0  0  0
 13 15  1  0  0  0  0
 14 13  1  6  0  0  0
 14 15  1  0  0  0  0
 15 16  1  6  0  0  0
 15 17  1  0  0  0  0
 18 17  1  0  0  0  0
 19 20  1  1  0  0  0
 19  4  1  0  0  0  0
 21 20  1  0  0  0  0
 22 19  1  0  0  0  0
 24 23  1  6  0  0  0
 24 22  1  0  0  0  0
 24 21  1  0  0  0  0
 25 40  1  1  0  0  0
 26 25  1  6  0  0  0
 26 29  1  0  0  0  0
 27 28  1  1  0  0  0
 27 26  1  0  0  0  0
 27 29  1  0  0  0  0
 30 29  1  0  0  0  0
 30 31  1  1  0  0  0
 32 30  1  0  0  0  0
 33 32  1  0  0  0  0
 34 39  1  0  0  0  0
 34 33  1  1  0  0  0
 36 37  1  0  0  0  0
 36 34  1  0  0  0  0
 37 38  1  0  0  0  0
 38 35  1  6  0  0  0
 39 38  1  0  0  0  0
 42 43  3  0  0  0  0
M  END
>  <MODEL>
9

>  <REMARK>
 VINA RESULT:      -6.1      1.832      2.257
  Name = 
  12 active torsions:
  status: ('A' for Active; 'I' for Inactive)
    1  A    between atoms: C_3  and  C_7
    2  A    between atoms: C_5  and  N_20
    3  A    between atoms: C_5  and  C_32
    4  A    between atoms: C_7  and  CA_8
    5  A    between atoms: C_7  and  C_39
    6  A    between atoms: C_11  and  N_18
    7  A    between atoms: C_12  and  C_39
    8  A    between atoms: C_14  and  C_40
    9  A    between atoms: C_16  and  C_37
   10  A    between atoms: C_23  and  C_27
   11  A    between atoms: C_26  and  C_29
   12  A    between atoms: C_32  and  C_40
                            x       y       z     vdW  Elec       q    Type
                         _______ _______ _______ _____ _____    ______ ____

>  <TORSDO>
F 12

$$$$
