=
 OpenBabel11062420103D

 35 40  0  0  1  0  0  0  0  0999 V2000
  188.8380  176.3230  144.2750 N   0  0  0  0  0  0  0  0  0  0  0  0
  189.2980  177.4510  147.1100 O   0  0  0  0  0  1  0  0  0  0  0  0
  189.4460  176.0150  142.0350 O   0  0  0  0  0  0  0  0  0  0  0  0
  188.4290  176.4930  146.5860 C   0  0  2  0  0  3  0  0  0  0  0  0
  189.1940  175.2070  146.3240 C   0  0  0  0  0  2  0  0  0  0  0  0
  187.9310  176.9570  145.2260 C   0  0  2  0  0  3  0  0  0  0  0  0
  189.6780  175.2940  144.8820 C   0  0  2  0  0  3  0  0  0  0  0  0
  188.5880  178.0630  142.5700 O   0  0  0  0  0  1  0  0  0  0  0  0
  188.9770  176.7770  142.9200 C   0  0  0  0  0  0  0  0  0  0  0  0
  185.9410  176.5100  143.5890 C   0  0  0  0  0  2  0  0  0  0  0  0
  184.3060  177.8020  142.4980 O   0  0  0  0  0  0  0  0  0  0  0  0
  185.8350  177.8160  147.1590 C   0  0  0  0  0  2  0  0  0  0  0  0
  184.9480  178.3140  146.0360 C   0  0  2  0  0  3  0  0  0  0  0  0
  184.8200  180.0410  144.3000 C   0  0  0  0  0  2  0  0  0  0  0  0
  186.4780  176.4570  145.0250 C   0  0  2  0  0  3  0  0  0  0  0  0
  185.8580  179.1180  143.6990 C   0  0  2  0  0  3  0  0  0  0  0  0
  185.4050  176.8440  146.0740 C   0  0  1  0  0  3  0  0  0  0  0  0
  185.2780  177.8110  143.2360 C   0  0  0  0  0  0  0  0  0  0  0  0
  185.7800  179.3150  145.2200 C   0  0  2  0  0  3  0  0  0  0  0  0
  191.9920  175.1370  145.9700 C   0  0  1  0  0  3  0  0  0  0  0  0
  193.6940  173.4730  145.9650 O   0  0  0  0  0  1  0  0  0  0  0  0
  191.7260  175.2440  143.5920 O   0  0  0  0  0  0  0  0  0  0  0  0
  191.1670  175.6880  144.8120 C   0  0  1  0  0  3  0  0  0  0  0  0
  193.2270  174.6180  145.3110 C   0  0  1  0  0  3  0  0  0  0  0  0
  192.7610  174.3370  143.8950 C   0  0  1  0  0  3  0  0  0  0  0  0
  193.6200  176.7010  146.8250 O   0  0  0  0  0  1  0  0  0  0  0  0
  192.3190  176.2190  146.9950 C   0  0  0  0  0  2  0  0  0  0  0  0
  192.2710  172.8980  143.7080 C   0  0  0  0  0  2  0  0  0  0  0  0
  192.0660  172.6090  142.2960 N   0  0  0  0  0  2  0  0  0  0  0  0
  188.4100  172.6490  141.7180 N   0  0  0  0  0  0  0  0  0  0  0  0
  189.5380  173.2800  139.7210 C   0  0  0  0  0  2  0  0  0  0  0  0
  188.3530  173.0360  140.4170 C   0  0  0  0  0  3  0  0  0  0  0  0
  190.7920  172.7430  141.6600 C   0  0  0  0  0  0  0  0  0  0  0  0
  189.6010  172.4960  142.3540 C   0  0  0  0  0  2  0  0  0  0  0  0
  190.7300  173.1270  140.3580 N   0  0  0  0  0  0  0  0  0  0  0  0
  1  7  1  0  0  0  0
  3  9  2  0  0  0  0
  4  2  1  6  0  0  0
  5  4  1  0  0  0  0
  6  1  1  6  0  0  0
  6  4  1  0  0  0  0
  7  5  1  1  0  0  0
  8  9  1  0  0  0  0
  9  1  1  0  0  0  0
 11 18  2  0  0  0  0
 13 17  1  0  0  0  0
 13 12  1  1  0  0  0
 15 10  1  6  0  0  0
 15  6  1  0  0  0  0
 15 17  1  0  0  0  0
 16 14  1  6  0  0  0
 16 19  1  0  0  0  0
 17 12  1  1  0  0  0
 18 10  1  0  0  0  0
 18 16  1  0  0  0  0
 19 14  1  6  0  0  0
 19 13  1  0  0  0  0
 20 27  1  1  0  0  0
 22 25  1  0  0  0  0
 23 22  1  6  0  0  0
 23  7  1  0  0  0  0
 23 20  1  0  0  0  0
 24 21  1  1  0  0  0
 24 20  1  0  0  0  0
 25 28  1  1  0  0  0
 25 24  1  0  0  0  0
 26 27  1  0  0  0  0
 29 28  1  0  0  0  0
 30 34  1  0  0  0  0
 31 35  1  0  0  0  0
 31 32  1  0  0  0  0
 32 30  2  0  0  0  0
 33 29  1  0  0  0  0
 33 34  1  0  0  0  0
 35 33  2  0  0  0  0
M  END
>  <MODEL>
1

>  <REMARK>
 VINA RESULT:      -8.4      0.000      0.000
  Name = 
  6 active torsions:
  status: ('A' for Active; 'I' for Inactive)
    1  A    between atoms: C_3  and  C_31
    2  A    between atoms: N_16  and  C_22
    3  A    between atoms: N_16  and  C_23
    4  A    between atoms: C_17  and  C_25
    5  A    between atoms: C_19  and  C_27
    6  A    between atoms: C_23  and  C_26
                            x       y       z     vdW  Elec       q    Type
                         _______ _______ _______ _____ _____    ______ ____

>  <TORSDO>
F 6

$$$$
=
 OpenBabel11062420103D

 35 40  0  0  1  0  0  0  0  0999 V2000
  188.8600  176.2480  144.2140 N   0  0  0  0  0  0  0  0  0  0  0  0
  189.3520  177.4140  147.0290 O   0  0  0  0  0  1  0  0  0  0  0  0
  189.4470  175.9020  141.9750 O   0  0  0  0  0  0  0  0  0  0  0  0
  188.4700  176.4570  146.5260 C   0  0  2  0  0  3  0  0  0  0  0  0
  189.2220  175.1600  146.2770 C   0  0  0  0  0  2  0  0  0  0  0  0
  187.9650  176.9050  145.1630 C   0  0  2  0  0  3  0  0  0  0  0  0
  189.6950  175.2210  144.8300 C   0  0  2  0  0  3  0  0  0  0  0  0
  188.6120  177.9650  142.4860 O   0  0  0  0  0  1  0  0  0  0  0  0
  188.9920  176.6810  142.8510 C   0  0  0  0  0  0  0  0  0  0  0  0
  185.9460  176.4880  143.5540 C   0  0  0  0  0  2  0  0  0  0  0  0
  184.3000  177.8020  142.5080 O   0  0  0  0  0  0  0  0  0  0  0  0
  185.9080  177.7510  147.1410 C   0  0  0  0  0  2  0  0  0  0  0  0
  185.0050  178.2680  146.0400 C   0  0  2  0  0  3  0  0  0  0  0  0
  184.8560  180.0160  144.3270 C   0  0  0  0  0  2  0  0  0  0  0  0
  186.5070  176.4150  144.9810 C   0  0  2  0  0  3  0  0  0  0  0  0
  185.8790  179.0950  143.6970 C   0  0  2  0  0  3  0  0  0  0  0  0
  185.4540  176.7940  146.0530 C   0  0  1  0  0  3  0  0  0  0  0  0
  185.2840  177.7960  143.2290 C   0  0  0  0  0  0  0  0  0  0  0  0
  185.8280  179.2740  145.2220 C   0  0  2  0  0  3  0  0  0  0  0  0
  192.0100  175.0890  145.9200 C   0  0  1  0  0  3  0  0  0  0  0  0
  193.6990  173.4130  145.9780 O   0  0  0  0  0  1  0  0  0  0  0  0
  191.7400  175.1050  143.5400 O   0  0  0  0  0  0  0  0  0  0  0  0
  191.1870  175.6000  144.7430 C   0  0  1  0  0  3  0  0  0  0  0  0
  193.2400  174.5350  145.2800 C   0  0  1  0  0  3  0  0  0  0  0  0
  192.7690  174.2020  143.8770 C   0  0  1  0  0  3  0  0  0  0  0  0
  193.6880  176.5870  146.7950 O   0  0  0  0  0  1  0  0  0  0  0  0
  192.3470  176.2080  146.9010 C   0  0  0  0  0  2  0  0  0  0  0  0
  192.2680  172.7610  143.7470 C   0  0  0  0  0  2  0  0  0  0  0  0
  192.1000  172.4050  142.3460 N   0  0  0  0  0  2  0  0  0  0  0  0
  191.7860  168.7170  142.2860 N   0  0  0  0  0  0  0  0  0  0  0  0
  190.8750  169.6250  140.2860 C   0  0  0  0  0  2  0  0  0  0  0  0
  191.1780  168.5230  141.0880 C   0  0  0  0  0  3  0  0  0  0  0  0
  191.7970  171.0740  141.9200 C   0  0  0  0  0  0  0  0  0  0  0  0
  192.1040  169.9650  142.7200 C   0  0  0  0  0  2  0  0  0  0  0  0
  191.1920  170.8740  140.7200 N   0  0  0  0  0  0  0  0  0  0  0  0
  1  7  1  0  0  0  0
  3  9  2  0  0  0  0
  4  2  1  6  0  0  0
  5  4  1  0  0  0  0
  6  1  1  6  0  0  0
  6  4  1  0  0  0  0
  7  5  1  1  0  0  0
  8  9  1  0  0  0  0
  9  1  1  0  0  0  0
 11 18  2  0  0  0  0
 13 17  1  0  0  0  0
 13 12  1  1  0  0  0
 15 10  1  6  0  0  0
 15  6  1  0  0  0  0
 15 17  1  0  0  0  0
 16 14  1  6  0  0  0
 16 19  1  0  0  0  0
 17 12  1  1  0  0  0
 18 10  1  0  0  0  0
 18 16  1  0  0  0  0
 19 14  1  6  0  0  0
 19 13  1  0  0  0  0
 20 27  1  1  0  0  0
 22 25  1  0  0  0  0
 23 22  1  6  0  0  0
 23  7  1  0  0  0  0
 23 20  1  0  0  0  0
 24 20  1  0  0  0  0
 24 21  1  1  0  0  0
 25 28  1  1  0  0  0
 25 24  1  0  0  0  0
 26 27  1  0  0  0  0
 29 28  1  0  0  0  0
 30 34  1  0  0  0  0
 31 35  1  0  0  0  0
 31 32  1  0  0  0  0
 32 30  2  0  0  0  0
 33 29  1  0  0  0  0
 33 34  1  0  0  0  0
 35 33  2  0  0  0  0
M  END
>  <MODEL>
2

>  <REMARK>
 VINA RESULT:      -7.7      1.356      1.637
  Name = 
  6 active torsions:
  status: ('A' for Active; 'I' for Inactive)
    1  A    between atoms: C_3  and  C_31
    2  A    between atoms: N_16  and  C_22
    3  A    between atoms: N_16  and  C_23
    4  A    between atoms: C_17  and  C_25
    5  A    between atoms: C_19  and  C_27
    6  A    between atoms: C_23  and  C_26
                            x       y       z     vdW  Elec       q    Type
                         _______ _______ _______ _____ _____    ______ ____

>  <TORSDO>
F 6

$$$$
=
 OpenBabel11062420103D

 35 40  0  0  1  0  0  0  0  0999 V2000
  188.8430  176.1750  144.2270 N   0  0  0  0  0  0  0  0  0  0  0  0
  189.3970  177.4440  146.9850 O   0  0  0  0  0  1  0  0  0  0  0  0
  189.3950  175.7210  141.9980 O   0  0  0  0  0  0  0  0  0  0  0  0
  188.4860  176.4890  146.5320 C   0  0  2  0  0  3  0  0  0  0  0  0
  189.2020  175.1650  146.3290 C   0  0  0  0  0  2  0  0  0  0  0  0
  187.9760  176.8930  145.1570 C   0  0  2  0  0  3  0  0  0  0  0  0
  189.6600  175.1530  144.8760 C   0  0  2  0  0  3  0  0  0  0  0  0
  188.6180  177.8240  142.4310 O   0  0  0  0  0  1  0  0  0  0  0  0
  188.9700  176.5470  142.8460 C   0  0  0  0  0  0  0  0  0  0  0  0
  185.9230  176.4770  143.5910 C   0  0  0  0  0  2  0  0  0  0  0  0
  184.2930  177.7980  142.5290 O   0  0  0  0  0  0  0  0  0  0  0  0
  185.9700  177.8480  147.1380 C   0  0  0  0  0  2  0  0  0  0  0  0
  185.0630  178.3530  146.0340 C   0  0  2  0  0  3  0  0  0  0  0  0
  184.9290  180.0510  144.2710 C   0  0  0  0  0  2  0  0  0  0  0  0
  186.5040  176.4330  145.0110 C   0  0  2  0  0  3  0  0  0  0  0  0
  185.9210  179.0870  143.6550 C   0  0  2  0  0  3  0  0  0  0  0  0
  185.4770  176.8700  146.0860 C   0  0  1  0  0  3  0  0  0  0  0  0
  185.2880  177.7900  143.2360 C   0  0  0  0  0  0  0  0  0  0  0  0
  185.8970  179.3140  145.1740 C   0  0  2  0  0  3  0  0  0  0  0  0
  191.9790  175.0300  145.9570 C   0  0  1  0  0  3  0  0  0  0  0  0
  193.6280  173.3190  146.1030 O   0  0  0  0  0  1  0  0  0  0  0  0
  191.6910  174.9120  143.5830 O   0  0  0  0  0  0  0  0  0  0  0  0
  191.1590  175.4900  144.7570 C   0  0  1  0  0  3  0  0  0  0  0  0
  193.1910  174.4090  145.3440 C   0  0  1  0  0  3  0  0  0  0  0  0
  192.7010  174.0060  143.9660 C   0  0  1  0  0  3  0  0  0  0  0  0
  193.6390  176.6630  146.5940 O   0  0  0  0  0  1  0  0  0  0  0  0
  192.3500  176.1960  146.8690 C   0  0  0  0  0  2  0  0  0  0  0  0
  192.1640  172.5720  143.9240 C   0  0  0  0  0  2  0  0  0  0  0  0
  193.1120  171.6930  143.2560 N   0  0  0  0  0  2  0  0  0  0  0  0
  193.5940  168.3130  144.6850 N   0  0  0  0  0  0  0  0  0  0  0  0
  195.5860  169.5830  144.9570 C   0  0  0  0  0  3  0  0  0  0  0  0
  194.8760  168.3940  145.1270 C   0  0  0  0  0  3  0  0  0  0  0  0
  193.7030  170.5630  143.9020 C   0  0  0  0  0  0  0  0  0  0  0  0
  192.9920  169.3690  144.0790 C   0  0  0  0  0  3  0  0  0  0  0  0
  194.9840  170.6400  144.3500 N   0  0  0  0  0  0  0  0  0  0  0  0
  1  7  1  0  0  0  0
  3  9  2  0  0  0  0
  4  2  1  6  0  0  0
  5  4  1  0  0  0  0
  6  1  1  6  0  0  0
  6  4  1  0  0  0  0
  7  5  1  1  0  0  0
  8  9  1  0  0  0  0
  9  1  1  0  0  0  0
 11 18  2  0  0  0  0
 13 17  1  0  0  0  0
 13 12  1  1  0  0  0
 15 10  1  6  0  0  0
 15  6  1  0  0  0  0
 15 17  1  0  0  0  0
 16 14  1  6  0  0  0
 16 19  1  0  0  0  0
 17 12  1  1  0  0  0
 18 10  1  0  0  0  0
 18 16  1  0  0  0  0
 19 14  1  6  0  0  0
 19 13  1  0  0  0  0
 20 27  1  1  0  0  0
 22 25  1  0  0  0  0
 23 22  1  6  0  0  0
 23  7  1  0  0  0  0
 23 20  1  0  0  0  0
 24 20  1  0  0  0  0
 24 21  1  1  0  0  0
 25 28  1  1  0  0  0
 25 24  1  0  0  0  0
 26 27  1  0  0  0  0
 29 33  1  0  0  0  0
 29 28  1  0  0  0  0
 30 32  1  0  0  0  0
 31 32  2  0  0  0  0
 33 34  1  0  0  0  0
 33 35  2  0  0  0  0
 34 30  2  0  0  0  0
 35 31  1  0  0  0  0
M  END
>  <MODEL>
3

>  <REMARK>
 VINA RESULT:      -7.7      1.854      2.952
  Name = 
  6 active torsions:
  status: ('A' for Active; 'I' for Inactive)
    1  A    between atoms: C_3  and  C_31
    2  A    between atoms: N_16  and  C_22
    3  A    between atoms: N_16  and  C_23
    4  A    between atoms: C_17  and  C_25
    5  A    between atoms: C_19  and  C_27
    6  A    between atoms: C_23  and  C_26
                            x       y       z     vdW  Elec       q    Type
                         _______ _______ _______ _____ _____    ______ ____

>  <TORSDO>
F 6

$$$$
=
 OpenBabel11062420103D

 35 40  0  0  1  0  0  0  0  0999 V2000
  188.6830  176.3560  143.8660 N   0  0  0  0  0  0  0  0  0  0  0  0
  189.4240  174.9620  141.2140 O   0  0  0  0  0  1  0  0  0  0  0  0
  188.2940  178.2540  145.1800 O   0  0  0  0  0  1  0  0  0  0  0  0
  188.8700  174.5130  142.4130 C   0  0  2  0  0  3  0  0  0  0  0  0
  187.4100  174.9300  142.4820 C   0  0  0  0  0  2  0  0  0  0  0  0
  189.5510  175.2190  143.5760 C   0  0  2  0  0  3  0  0  0  0  0  0
  187.3910  176.2800  143.1880 C   0  0  2  0  0  3  0  0  0  0  0  0
  190.4830  177.7570  144.7570 O   0  0  0  0  0  0  0  0  0  0  0  0
  189.1270  177.4920  144.6240 C   0  0  0  0  0  0  0  0  0  0  0  0
  189.8400  174.8980  146.1560 C   0  0  0  0  0  2  0  0  0  0  0  0
  191.6240  174.9160  147.6870 O   0  0  0  0  0  0  0  0  0  0  0  0
  191.1490  172.7190  143.3280 C   0  0  0  0  0  2  0  0  0  0  0  0
  191.9200  173.0400  144.5920 C   0  0  2  0  0  3  0  0  0  0  0  0
  193.5460  174.6300  145.5090 C   0  0  0  0  0  2  0  0  0  0  0  0
  189.6160  174.2490  144.7840 C   0  0  2  0  0  3  0  0  0  0  0  0
  192.2970  175.4850  145.4950 C   0  0  2  0  0  3  0  0  0  0  0  0
  190.3860  172.9130  144.6260 C   0  0  1  0  0  3  0  0  0  0  0  0
  191.2870  175.0570  146.5230 C   0  0  0  0  0  0  0  0  0  0  0  0
  192.5330  174.4350  144.3990 C   0  0  2  0  0  3  0  0  0  0  0  0
  186.3340  177.0880  140.9990 C   0  0  1  0  0  3  0  0  0  0  0  0
  184.1750  177.9140  140.4320 O   0  0  0  0  0  1  0  0  0  0  0  0
  186.7060  178.5750  142.8390 O   0  0  0  0  0  0  0  0  0  0  0  0
  187.2290  177.4380  142.1830 C   0  0  1  0  0  3  0  0  0  0  0  0
  185.4560  178.2870  140.8500 C   0  0  1  0  0  3  0  0  0  0  0  0
  185.4680  178.8870  142.2430 C   0  0  1  0  0  3  0  0  0  0  0  0
  186.3430  176.9040  138.5920 O   0  0  0  0  0  1  0  0  0  0  0  0
  187.1470  176.8310  139.7340 C   0  0  0  0  0  2  0  0  0  0  0  0
  184.3190  178.3760  143.1180 C   0  0  0  0  0  2  0  0  0  0  0  0
  184.2930  179.0850  144.3890 N   0  0  0  0  0  2  0  0  0  0  0  0
  185.6670  176.7310  146.8940 N   0  0  0  0  0  0  0  0  0  0  0  0
  185.9310  178.9640  147.6710 C   0  0  0  0  0  2  0  0  0  0  0  0
  186.1020  177.5900  147.8520 C   0  0  0  0  0  3  0  0  0  0  0  0
  184.9010  178.5640  145.5730 C   0  0  0  0  0  0  0  0  0  0  0  0
  185.0710  177.1860  145.7610 C   0  0  0  0  0  2  0  0  0  0  0  0
  185.3340  179.4190  146.5370 N   0  0  0  0  0  0  0  0  0  0  0  0
  1  9  1  0  0  0  0
  4  2  1  6  0  0  0
  4  5  1  0  0  0  0
  4  6  1  0  0  0  0
  6  1  1  1  0  0  0
  6 15  1  0  0  0  0
  7  5  1  6  0  0  0
  7  1  1  0  0  0  0
  9  8  2  0  0  0  0
  9  3  1  0  0  0  0
 10 18  1  0  0  0  0
 13 12  1  6  0  0  0
 13 17  1  0  0  0  0
 15 10  1  1  0  0  0
 16 14  1  1  0  0  0
 16 18  1  0  0  0  0
 17 12  1  6  0  0  0
 17 15  1  0  0  0  0
 18 11  2  0  0  0  0
 19 13  1  0  0  0  0
 19 16  1  0  0  0  0
 19 14  1  1  0  0  0
 20 27  1  6  0  0  0
 20 23  1  0  0  0  0
 23 22  1  1  0  0  0
 23  7  1  0  0  0  0
 24 21  1  1  0  0  0
 24 20  1  0  0  0  0
 24 25  1  0  0  0  0
 25 22  1  0  0  0  0
 25 28  1  1  0  0  0
 26 27  1  0  0  0  0
 28 29  1  0  0  0  0
 29 33  1  0  0  0  0
 30 32  2  0  0  0  0
 31 32  1  0  0  0  0
 33 34  1  0  0  0  0
 33 35  2  0  0  0  0
 34 30  1  0  0  0  0
 35 31  1  0  0  0  0
M  END
>  <MODEL>
4

>  <REMARK>
 VINA RESULT:      -7.5      2.306      7.661
  Name = 
  6 active torsions:
  status: ('A' for Active; 'I' for Inactive)
    1  A    between atoms: C_3  and  C_31
    2  A    between atoms: N_16  and  C_22
    3  A    between atoms: N_16  and  C_23
    4  A    between atoms: C_17  and  C_25
    5  A    between atoms: C_19  and  C_27
    6  A    between atoms: C_23  and  C_26
                            x       y       z     vdW  Elec       q    Type
                         _______ _______ _______ _____ _____    ______ ____

>  <TORSDO>
F 6

$$$$
=
 OpenBabel11062420103D

 35 40  0  0  1  0  0  0  0  0999 V2000
  188.9050  176.2390  144.2670 N   0  0  0  0  0  0  0  0  0  0  0  0
  189.3990  177.4530  147.0610 O   0  0  0  0  0  1  0  0  0  0  0  0
  189.4900  175.8540  142.0330 O   0  0  0  0  0  0  0  0  0  0  0  0
  188.5170  176.4880  146.5750 C   0  0  2  0  0  3  0  0  0  0  0  0
  189.2680  175.1860  146.3470 C   0  0  0  0  0  2  0  0  0  0  0  0
  188.0120  176.9130  145.2040 C   0  0  2  0  0  3  0  0  0  0  0  0
  189.7410  175.2220  144.8990 C   0  0  2  0  0  3  0  0  0  0  0  0
  188.6570  177.9270  142.5090 O   0  0  0  0  0  1  0  0  0  0  0  0
  189.0360  176.6490  142.8960 C   0  0  0  0  0  0  0  0  0  0  0  0
  185.9970  176.4510  143.6020 C   0  0  0  0  0  2  0  0  0  0  0  0
  184.3580  177.7360  142.5090 O   0  0  0  0  0  0  0  0  0  0  0  0
  185.9480  177.8220  147.1480 C   0  0  0  0  0  2  0  0  0  0  0  0
  185.0500  178.3070  146.0280 C   0  0  2  0  0  3  0  0  0  0  0  0
  184.9120  180.0020  144.2630 C   0  0  0  0  0  2  0  0  0  0  0  0
  186.5530  176.4200  145.0320 C   0  0  2  0  0  3  0  0  0  0  0  0
  185.9360  179.0610  143.6650 C   0  0  2  0  0  3  0  0  0  0  0  0
  185.4960  176.8340  146.0880 C   0  0  1  0  0  3  0  0  0  0  0  0
  185.3400  177.7500  143.2340 C   0  0  0  0  0  0  0  0  0  0  0  0
  185.8790  179.2860  145.1840 C   0  0  2  0  0  3  0  0  0  0  0  0
  192.0840  174.9780  145.9060 C   0  0  1  0  0  3  0  0  0  0  0  0
  193.7600  173.2940  145.7630 O   0  0  0  0  0  1  0  0  0  0  0  0
  191.7480  175.2130  143.5470 O   0  0  0  0  0  0  0  0  0  0  0  0
  191.2320  175.6000  144.8050 C   0  0  1  0  0  3  0  0  0  0  0  0
  193.2910  174.4780  145.1840 C   0  0  1  0  0  3  0  0  0  0  0  0
  192.7780  174.2780  143.7700 C   0  0  1  0  0  3  0  0  0  0  0  0
  193.5780  176.7430  146.5960 O   0  0  0  0  0  1  0  0  0  0  0  0
  192.4570  176.0000  146.9760 C   0  0  0  0  0  2  0  0  0  0  0  0
  192.2610  172.8570  143.5240 C   0  0  0  0  0  2  0  0  0  0  0  0
  192.9560  172.2510  142.3960 N   0  0  0  0  0  2  0  0  0  0  0  0
  196.2610  173.1570  140.9990 N   0  0  0  0  0  0  0  0  0  0  0  0
  196.5590  171.8780  142.9820 C   0  0  0  0  0  2  0  0  0  0  0  0
  197.0960  172.5810  141.9020 C   0  0  0  0  0  3  0  0  0  0  0  0
  194.3690  172.3620  142.2140 C   0  0  0  0  0  0  0  0  0  0  0  0
  194.9120  173.0620  141.1290 C   0  0  0  0  0  2  0  0  0  0  0  0
  195.2090  171.7840  143.1130 N   0  0  0  0  0  0  0  0  0  0  0  0
  1  7  1  0  0  0  0
  3  9  2  0  0  0  0
  4  2  1  6  0  0  0
  5  4  1  0  0  0  0
  6  1  1  6  0  0  0
  6  4  1  0  0  0  0
  7  5  1  1  0  0  0
  8  9  1  0  0  0  0
  9  1  1  0  0  0  0
 11 18  2  0  0  0  0
 13 17  1  0  0  0  0
 13 12  1  1  0  0  0
 15 10  1  6  0  0  0
 15  6  1  0  0  0  0
 15 17  1  0  0  0  0
 16 14  1  6  0  0  0
 16 19  1  0  0  0  0
 17 12  1  1  0  0  0
 18 10  1  0  0  0  0
 18 16  1  0  0  0  0
 19 14  1  6  0  0  0
 19 13  1  0  0  0  0
 20 27  1  1  0  0  0
 22 25  1  0  0  0  0
 23 22  1  6  0  0  0
 23  7  1  0  0  0  0
 23 20  1  0  0  0  0
 24 21  1  1  0  0  0
 24 20  1  0  0  0  0
 25 28  1  1  0  0  0
 25 24  1  0  0  0  0
 26 27  1  0  0  0  0
 29 28  1  0  0  0  0
 30 34  1  0  0  0  0
 30 32  2  0  0  0  0
 31 35  1  0  0  0  0
 32 31  1  0  0  0  0
 33 29  1  0  0  0  0
 33 35  2  0  0  0  0
 34 33  1  0  0  0  0
M  END
>  <MODEL>
5

>  <REMARK>
 VINA RESULT:      -7.5      1.679      2.815
  Name = 
  6 active torsions:
  status: ('A' for Active; 'I' for Inactive)
    1  A    between atoms: C_3  and  C_31
    2  A    between atoms: N_16  and  C_22
    3  A    between atoms: N_16  and  C_23
    4  A    between atoms: C_17  and  C_25
    5  A    between atoms: C_19  and  C_27
    6  A    between atoms: C_23  and  C_26
                            x       y       z     vdW  Elec       q    Type
                         _______ _______ _______ _____ _____    ______ ____

>  <TORSDO>
F 6

$$$$
=
 OpenBabel11062420103D

 35 40  0  0  1  0  0  0  0  0999 V2000
  189.5230  175.4990  144.7110 N   0  0  0  0  0  0  0  0  0  0  0  0
  187.4510  174.7540  142.5500 O   0  0  0  0  0  1  0  0  0  0  0  0
  191.0800  174.9590  146.3740 O   0  0  0  0  0  0  0  0  0  0  0  0
  188.1170  175.9360  142.8750 C   0  0  2  0  0  3  0  0  0  0  0  0
  189.5510  175.8600  142.3790 C   0  0  0  0  0  2  0  0  0  0  0  0
  188.2140  176.0570  144.3890 C   0  0  2  0  0  3  0  0  0  0  0  0
  190.3660  175.2950  143.5360 C   0  0  2  0  0  3  0  0  0  0  0  0
  188.8800  174.7710  146.9600 O   0  0  0  0  0  1  0  0  0  0  0  0
  189.8730  175.0680  146.0360 C   0  0  0  0  0  0  0  0  0  0  0  0
  188.3850  177.8780  146.2580 C   0  0  0  0  0  2  0  0  0  0  0  0
  187.0250  178.6530  148.0130 O   0  0  0  0  0  0  0  0  0  0  0  0
  185.9830  177.7110  143.3140 C   0  0  0  0  0  2  0  0  0  0  0  0
  185.6040  178.1740  144.7060 C   0  0  2  0  0  3  0  0  0  0  0  0
  184.6930  177.3560  146.8300 C   0  0  0  0  0  2  0  0  0  0  0  0
  188.1380  177.5550  144.7780 C   0  0  2  0  0  3  0  0  0  0  0  0
  186.0960  176.7920  146.8930 C   0  0  2  0  0  3  0  0  0  0  0  0
  187.0200  178.4310  144.1580 C   0  0  1  0  0  3  0  0  0  0  0  0
  187.1420  177.8530  147.1000 C   0  0  0  0  0  0  0  0  0  0  0  0
  185.3660  176.9120  145.5470 C   0  0  2  0  0  3  0  0  0  0  0  0
  190.5140  173.3420  141.8840 C   0  0  1  0  0  3  0  0  0  0  0  0
  192.1710  172.6370  140.3270 O   0  0  0  0  0  1  0  0  0  0  0  0
  191.9810  173.5070  143.7690 O   0  0  0  0  0  0  0  0  0  0  0  0
  190.6700  173.7970  143.3310 C   0  0  1  0  0  3  0  0  0  0  0  0
  191.7220  172.4980  141.6440 C   0  0  1  0  0  3  0  0  0  0  0  0
  192.7120  173.0310  142.6620 C   0  0  1  0  0  3  0  0  0  0  0  0
  188.8270  171.9170  142.8580 O   0  0  0  0  0  1  0  0  0  0  0  0
  189.2270  172.5480  141.6770 C   0  0  0  0  0  2  0  0  0  0  0  0
  193.5990  174.1450  142.0980 C   0  0  0  0  0  2  0  0  0  0  0  0
  194.6930  174.4380  143.0130 N   0  0  0  0  0  2  0  0  0  0  0  0
  194.9000  175.6190  146.5150 N   0  0  0  0  0  0  0  0  0  0  0  0
  193.6330  177.1650  145.2270 C   0  0  0  0  0  2  0  0  0  0  0  0
  194.1920  176.7760  146.4450 C   0  0  0  0  0  3  0  0  0  0  0  0
  194.5190  175.2250  144.1940 C   0  0  0  0  0  0  0  0  0  0  0  0
  195.0750  174.8350  145.4190 C   0  0  0  0  0  2  0  0  0  0  0  0
  193.8080  176.3820  144.1300 N   0  0  0  0  0  0  0  0  0  0  0  0
  1  9  1  0  0  0  0
  4  2  1  1  0  0  0
  4  6  1  0  0  0  0
  5  4  1  0  0  0  0
  6  1  1  6  0  0  0
  6 15  1  0  0  0  0
  7  5  1  6  0  0  0
  7  1  1  0  0  0  0
  9  3  2  0  0  0  0
  9  8  1  0  0  0  0
 10 18  1  0  0  0  0
 13 12  1  6  0  0  0
 13 19  1  0  0  0  0
 15 10  1  1  0  0  0
 16 14  1  1  0  0  0
 16 18  1  0  0  0  0
 17 12  1  6  0  0  0
 17 13  1  0  0  0  0
 17 15  1  0  0  0  0
 18 11  2  0  0  0  0
 19 14  1  1  0  0  0
 19 16  1  0  0  0  0
 20 27  1  1  0  0  0
 20 23  1  0  0  0  0
 23  7  1  0  0  0  0
 23 22  1  6  0  0  0
 24 21  1  6  0  0  0
 24 20  1  0  0  0  0
 24 25  1  0  0  0  0
 25 28  1  6  0  0  0
 25 22  1  0  0  0  0
 27 26  1  0  0  0  0
 28 29  1  0  0  0  0
 29 33  1  0  0  0  0
 31 32  1  0  0  0  0
 32 30  2  0  0  0  0
 33 34  1  0  0  0  0
 34 30  1  0  0  0  0
 35 33  2  0  0  0  0
 35 31  1  0  0  0  0
M  END
>  <MODEL>
6

>  <REMARK>
 VINA RESULT:      -7.4      2.275      4.827
  Name = 
  6 active torsions:
  status: ('A' for Active; 'I' for Inactive)
    1  A    between atoms: C_3  and  C_31
    2  A    between atoms: N_16  and  C_22
    3  A    between atoms: N_16  and  C_23
    4  A    between atoms: C_17  and  C_25
    5  A    between atoms: C_19  and  C_27
    6  A    between atoms: C_23  and  C_26
                            x       y       z     vdW  Elec       q    Type
                         _______ _______ _______ _____ _____    ______ ____

>  <TORSDO>
F 6

$$$$
=
 OpenBabel11062420103D

 35 40  0  0  1  0  0  0  0  0999 V2000
  191.1220  175.0690  144.0270 N   0  0  0  0  0  0  0  0  0  0  0  0
  191.5580  175.9420  146.9550 O   0  0  0  0  0  1  0  0  0  0  0  0
  190.0460  173.8150  142.3690 O   0  0  0  0  0  0  0  0  0  0  0  0
  191.9860  176.4490  145.7270 C   0  0  2  0  0  3  0  0  0  0  0  0
  190.8340  177.1750  145.0520 C   0  0  0  0  0  2  0  0  0  0  0  0
  192.3390  175.2950  144.8020 C   0  0  2  0  0  3  0  0  0  0  0  0
  190.1390  176.1390  144.1780 C   0  0  2  0  0  3  0  0  0  0  0  0
  191.5640  172.6900  143.6510 O   0  0  0  0  0  1  0  0  0  0  0  0
  190.8780  173.8480  143.3120 C   0  0  0  0  0  0  0  0  0  0  0  0
  193.8950  174.7370  142.7750 C   0  0  0  0  0  2  0  0  0  0  0  0
  195.7620  173.3610  142.3870 O   0  0  0  0  0  0  0  0  0  0  0  0
  194.7730  176.4830  146.0380 C   0  0  0  0  0  2  0  0  0  0  0  0
  195.6670  175.4850  145.3310 C   0  0  2  0  0  3  0  0  0  0  0  0
  196.2110  173.0950  145.2590 C   0  0  0  0  0  2  0  0  0  0  0  0
  193.5090  175.7270  143.8830 C   0  0  2  0  0  3  0  0  0  0  0  0
  194.8690  173.0970  144.5580 C   0  0  2  0  0  3  0  0  0  0  0  0
  194.7430  176.4140  144.5210 C   0  0  1  0  0  3  0  0  0  0  0  0
  194.9250  173.7280  143.1950 C   0  0  0  0  0  0  0  0  0  0  0  0
  195.1520  174.0850  145.6990 C   0  0  2  0  0  3  0  0  0  0  0  0
  188.6780  176.0900  146.2820 C   0  0  1  0  0  3  0  0  0  0  0  0
  187.0770  177.5950  147.1980 O   0  0  0  0  0  1  0  0  0  0  0  0
  187.7240  176.0000  144.0870 O   0  0  0  0  0  0  0  0  0  0  0  0
  188.8520  175.6120  144.8440 C   0  0  1  0  0  3  0  0  0  0  0  0
  187.2420  176.4950  146.3510 C   0  0  1  0  0  3  0  0  0  0  0  0
  186.9120  176.8120  144.9050 C   0  0  1  0  0  3  0  0  0  0  0  0
  189.2850  173.7820  146.6390 O   0  0  0  0  0  1  0  0  0  0  0  0
  188.9960  174.9860  147.2860 C   0  0  0  0  0  2  0  0  0  0  0  0
  187.1270  178.2890  144.5590 C   0  0  0  0  0  2  0  0  0  0  0  0
  185.8670  178.9100  144.1770 N   0  0  0  0  0  2  0  0  0  0  0  0
  183.2470  178.2270  141.6540 N   0  0  0  0  0  0  0  0  0  0  0  0
  185.3760  178.2860  140.5950 C   0  0  0  0  0  3  0  0  0  0  0  0
  183.9910  178.1310  140.5210 C   0  0  0  0  0  3  0  0  0  0  0  0
  185.2180  178.6340  142.9340 C   0  0  0  0  0  0  0  0  0  0  0  0
  183.8280  178.4730  142.8570 C   0  0  0  0  0  3  0  0  0  0  0  0
  185.9580  178.5340  141.7980 N   0  0  0  0  0  0  0  0  0  0  0  0
  1  7  1  0  0  0  0
  3  9  2  0  0  0  0
  4  2  1  1  0  0  0
  5  4  1  0  0  0  0
  6  1  1  6  0  0  0
  6  4  1  0  0  0  0
  7 23  1  0  0  0  0
  7  5  1  1  0  0  0
  9  8  1  0  0  0  0
  9  1  1  0  0  0  0
 10 18  1  0  0  0  0
 11 18  2  0  0  0  0
 13 19  1  0  0  0  0
 13 12  1  1  0  0  0
 15 10  1  1  0  0  0
 15 17  1  0  0  0  0
 15  6  1  0  0  0  0
 16 14  1  6  0  0  0
 16 19  1  0  0  0  0
 17 13  1  0  0  0  0
 17 12  1  1  0  0  0
 18 16  1  0  0  0  0
 19 14  1  1  0  0  0
 20 24  1  0  0  0  0
 20 27  1  1  0  0  0
 22 25  1  0  0  0  0
 23 22  1  6  0  0  0
 23 20  1  0  0  0  0
 24 21  1  1  0  0  0
 25 28  1  6  0  0  0
 25 24  1  0  0  0  0
 26 27  1  0  0  0  0
 29 28  1  0  0  0  0
 30 34  2  0  0  0  0
 31 35  1  0  0  0  0
 32 31  2  0  0  0  0
 32 30  1  0  0  0  0
 33 29  1  0  0  0  0
 34 33  1  0  0  0  0
 35 33  2  0  0  0  0
M  END
>  <MODEL>
7

>  <REMARK>
 VINA RESULT:      -7.3      2.567      7.362
  Name = 
  6 active torsions:
  status: ('A' for Active; 'I' for Inactive)
    1  A    between atoms: C_3  and  C_31
    2  A    between atoms: N_16  and  C_22
    3  A    between atoms: N_16  and  C_23
    4  A    between atoms: C_17  and  C_25
    5  A    between atoms: C_19  and  C_27
    6  A    between atoms: C_23  and  C_26
                            x       y       z     vdW  Elec       q    Type
                         _______ _______ _______ _____ _____    ______ ____

>  <TORSDO>
F 6

$$$$
=
 OpenBabel11062420103D

 35 40  0  0  1  0  0  0  0  0999 V2000
  190.5230  175.7840  143.9300 N   0  0  0  0  0  0  0  0  0  0  0  0
  190.5620  176.1480  146.9940 O   0  0  0  0  0  1  0  0  0  0  0  0
  189.6660  174.8640  141.9550 O   0  0  0  0  0  0  0  0  0  0  0  0
  191.1660  176.8310  145.9380 C   0  0  2  0  0  3  0  0  0  0  0  0
  190.1330  177.7040  145.2460 C   0  0  0  0  0  2  0  0  0  0  0  0
  191.6240  175.8290  144.8880 C   0  0  2  0  0  3  0  0  0  0  0  0
  189.5490  176.8550  144.1240 C   0  0  2  0  0  3  0  0  0  0  0  0
  190.9690  173.4820  143.2240 O   0  0  0  0  0  1  0  0  0  0  0  0
  190.3590  174.7080  142.9940 C   0  0  0  0  0  0  0  0  0  0  0  0
  193.3950  175.5910  142.9790 C   0  0  0  0  0  2  0  0  0  0  0  0
  195.2300  174.1940  142.5200 O   0  0  0  0  0  0  0  0  0  0  0  0
  193.9350  176.5600  146.6170 C   0  0  0  0  0  2  0  0  0  0  0  0
  194.8640  175.6670  145.8190 C   0  0  2  0  0  3  0  0  0  0  0  0
  195.3020  173.3110  145.3010 C   0  0  0  0  0  2  0  0  0  0  0  0
  192.9190  176.3560  144.2210 C   0  0  2  0  0  3  0  0  0  0  0  0
  194.0610  173.5530  144.4700 C   0  0  2  0  0  3  0  0  0  0  0  0
  194.0930  176.8070  145.1270 C   0  0  1  0  0  3  0  0  0  0  0  0
  194.3160  174.4460  143.2880 C   0  0  0  0  0  0  0  0  0  0  0  0
  194.2430  174.2620  145.8200 C   0  0  2  0  0  3  0  0  0  0  0  0
  187.4420  177.1180  145.5580 C   0  0  1  0  0  3  0  0  0  0  0  0
  185.4690  178.4320  145.3430 O   0  0  0  0  0  1  0  0  0  0  0  0
  187.3580  176.1610  143.3650 O   0  0  0  0  0  0  0  0  0  0  0  0
  188.1720  176.2810  144.5130 C   0  0  1  0  0  3  0  0  0  0  0  0
  186.0440  177.1930  145.0400 C   0  0  1  0  0  3  0  0  0  0  0  0
  186.2250  176.9790  143.5500 C   0  0  1  0  0  3  0  0  0  0  0  0
  186.2540  176.5500  147.5810 O   0  0  0  0  0  1  0  0  0  0  0  0
  187.4920  176.4670  146.9380 C   0  0  0  0  0  2  0  0  0  0  0  0
  186.3920  178.2910  142.7790 C   0  0  0  0  0  2  0  0  0  0  0  0
  185.7000  178.2220  141.4990 N   0  0  0  0  0  2  0  0  0  0  0  0
  182.1140  178.6140  142.3260 N   0  0  0  0  0  0  0  0  0  0  0  0
  182.3360  177.8690  140.0780 C   0  0  0  0  0  2  0  0  0  0  0  0
  181.5320  178.2540  141.1530 C   0  0  0  0  0  3  0  0  0  0  0  0
  184.2750  178.2270  141.3940 C   0  0  0  0  0  0  0  0  0  0  0  0
  183.4650  178.6080  142.4710 C   0  0  0  0  0  2  0  0  0  0  0  0
  183.6870  177.8640  140.2230 N   0  0  0  0  0  0  0  0  0  0  0  0
  1  7  1  0  0  0  0
  3  9  2  0  0  0  0
  4  2  1  1  0  0  0
  5  4  1  0  0  0  0
  6  1  1  6  0  0  0
  6  4  1  0  0  0  0
  7 23  1  0  0  0  0
  7  5  1  1  0  0  0
  9  8  1  0  0  0  0
  9  1  1  0  0  0  0
 10 18  1  0  0  0  0
 11 18  2  0  0  0  0
 13 19  1  0  0  0  0
 13 12  1  1  0  0  0
 15 10  1  6  0  0  0
 15  6  1  0  0  0  0
 15 17  1  0  0  0  0
 16 14  1  1  0  0  0
 16 19  1  0  0  0  0
 17 13  1  0  0  0  0
 17 12  1  1  0  0  0
 18 16  1  0  0  0  0
 19 14  1  1  0  0  0
 20 27  1  1  0  0  0
 22 25  1  0  0  0  0
 23 22  1  6  0  0  0
 23 20  1  0  0  0  0
 24 21  1  6  0  0  0
 24 20  1  0  0  0  0
 25 28  1  6  0  0  0
 25 24  1  0  0  0  0
 27 26  1  0  0  0  0
 29 28  1  0  0  0  0
 30 34  1  0  0  0  0
 31 35  1  0  0  0  0
 31 32  1  0  0  0  0
 32 30  2  0  0  0  0
 33 29  1  0  0  0  0
 33 34  1  0  0  0  0
 35 33  2  0  0  0  0
M  END
>  <MODEL>
8

>  <REMARK>
 VINA RESULT:      -7.3      2.780      7.396
  Name = 
  6 active torsions:
  status: ('A' for Active; 'I' for Inactive)
    1  A    between atoms: C_3  and  C_31
    2  A    between atoms: N_16  and  C_22
    3  A    between atoms: N_16  and  C_23
    4  A    between atoms: C_17  and  C_25
    5  A    between atoms: C_19  and  C_27
    6  A    between atoms: C_23  and  C_26
                            x       y       z     vdW  Elec       q    Type
                         _______ _______ _______ _____ _____    ______ ____

>  <TORSDO>
F 6

$$$$
=
 OpenBabel11062420103D

 35 40  0  0  1  0  0  0  0  0999 V2000
  189.5530  175.5390  144.8840 N   0  0  0  0  0  0  0  0  0  0  0  0
  187.6290  174.7260  142.6120 O   0  0  0  0  0  1  0  0  0  0  0  0
  191.0260  175.0490  146.6360 O   0  0  0  0  0  0  0  0  0  0  0  0
  188.2420  175.9280  142.9680 C   0  0  2  0  0  3  0  0  0  0  0  0
  189.7040  175.8900  142.5550 C   0  0  0  0  0  2  0  0  0  0  0  0
  188.2490  176.0590  144.4840 C   0  0  2  0  0  3  0  0  0  0  0  0
  190.4670  175.3530  143.7600 C   0  0  2  0  0  3  0  0  0  0  0  0
  188.8030  174.8030  147.0960 O   0  0  0  0  0  1  0  0  0  0  0  0
  189.8380  175.1230  146.2290 C   0  0  0  0  0  0  0  0  0  0  0  0
  188.2470  177.8900  146.3510 C   0  0  0  0  0  2  0  0  0  0  0  0
  186.7530  178.6370  148.0060 O   0  0  0  0  0  0  0  0  0  0  0  0
  186.0560  177.6520  143.2510 C   0  0  0  0  0  2  0  0  0  0  0  0
  185.5720  178.1100  144.6120 C   0  0  2  0  0  3  0  0  0  0  0  0
  184.5400  177.2770  146.6740 C   0  0  0  0  0  2  0  0  0  0  0  0
  188.1100  177.5560  144.8590 C   0  0  2  0  0  3  0  0  0  0  0  0
  185.9490  176.7490  146.8350 C   0  0  2  0  0  3  0  0  0  0  0  0
  187.0150  178.4010  144.1600 C   0  0  1  0  0  3  0  0  0  0  0  0
  186.9510  177.8360  147.1060 C   0  0  0  0  0  0  0  0  0  0  0  0
  185.3090  176.8450  145.4420 C   0  0  2  0  0  3  0  0  0  0  0  0
  190.6370  173.3650  142.1520 C   0  0  1  0  0  3  0  0  0  0  0  0
  192.2680  172.6860  140.5570 O   0  0  0  0  0  1  0  0  0  0  0  0
  192.1590  173.6360  143.9810 O   0  0  0  0  0  0  0  0  0  0  0  0
  190.8230  173.8630  143.5810 C   0  0  1  0  0  3  0  0  0  0  0  0
  191.8690  172.5630  141.8920 C   0  0  1  0  0  3  0  0  0  0  0  0
  192.8710  173.1600  142.8620 C   0  0  1  0  0  3  0  0  0  0  0  0
  189.0450  171.8970  143.2170 O   0  0  0  0  0  1  0  0  0  0  0  0
  189.3770  172.5160  142.0090 C   0  0  0  0  0  2  0  0  0  0  0  0
  193.6930  174.2930  142.2400 C   0  0  0  0  0  2  0  0  0  0  0  0
  194.3100  175.1040  143.2800 N   0  0  0  0  0  2  0  0  0  0  0  0
  196.4140  174.1580  146.1750 N   0  0  0  0  0  0  0  0  0  0  0  0
  197.6020  173.7410  144.1580 C   0  0  0  0  0  2  0  0  0  0  0  0
  197.5370  173.7170  145.5520 C   0  0  0  0  0  3  0  0  0  0  0  0
  195.4110  174.6410  144.0660 C   0  0  0  0  0  0  0  0  0  0  0  0
  195.3510  174.6200  145.4650 C   0  0  0  0  0  2  0  0  0  0  0  0
  196.5390  174.2020  143.4470 N   0  0  0  0  0  0  0  0  0  0  0  0
  1  9  1  0  0  0  0
  4  2  1  1  0  0  0
  4  6  1  0  0  0  0
  5  4  1  0  0  0  0
  6 15  1  0  0  0  0
  6  1  1  6  0  0  0
  7  5  1  6  0  0  0
  7  1  1  0  0  0  0
  9  3  2  0  0  0  0
  9  8  1  0  0  0  0
 10 18  1  0  0  0  0
 13 12  1  6  0  0  0
 13 19  1  0  0  0  0
 15 10  1  1  0  0  0
 16 14  1  1  0  0  0
 16 18  1  0  0  0  0
 17 12  1  6  0  0  0
 17 13  1  0  0  0  0
 17 15  1  0  0  0  0
 18 11  2  0  0  0  0
 19 14  1  1  0  0  0
 19 16  1  0  0  0  0
 20 27  1  1  0  0  0
 20 23  1  0  0  0  0
 23  7  1  0  0  0  0
 23 22  1  6  0  0  0
 24 21  1  6  0  0  0
 24 20  1  0  0  0  0
 24 25  1  0  0  0  0
 25 28  1  6  0  0  0
 25 22  1  0  0  0  0
 27 26  1  0  0  0  0
 28 29  1  0  0  0  0
 29 33  1  0  0  0  0
 31 32  1  0  0  0  0
 32 30  2  0  0  0  0
 33 34  1  0  0  0  0
 34 30  1  0  0  0  0
 35 33  2  0  0  0  0
 35 31  1  0  0  0  0
M  END
>  <MODEL>
9

>  <REMARK>
 VINA RESULT:      -7.1      2.509      5.003
  Name = 
  6 active torsions:
  status: ('A' for Active; 'I' for Inactive)
    1  A    between atoms: C_3  and  C_31
    2  A    between atoms: N_16  and  C_22
    3  A    between atoms: N_16  and  C_23
    4  A    between atoms: C_17  and  C_25
    5  A    between atoms: C_19  and  C_27
    6  A    between atoms: C_23  and  C_26
                            x       y       z     vdW  Elec       q    Type
                         _______ _______ _______ _____ _____    ______ ____

>  <TORSDO>
F 6

$$$$
