=
 OpenBabel11062422353D

 59 62  0  0  1  0  0  0  0  0999 V2000
  190.3970  173.7430  142.0630 C   0  0  0  0  0  2  0  0  0  0  0  0
  190.9720  172.4600  141.6810 N   0  0  0  0  0  0  0  0  0  0  0  0
  191.7520  171.6980  142.6210 C   0  0  0  0  0  0  0  0  0  0  0  0
  191.7940  172.0420  143.8350 O   0  0  0  0  0  0  0  0  0  0  0  0
  190.8890  172.0820  140.2760 C   0  0  0  0  0  2  0  0  0  0  0  0
  191.6660  173.0730  139.4170 C   0  0  2  0  0  3  0  0  0  0  0  0
  191.1180  173.1280  138.0270 C   0  0  0  0  0  0  0  0  0  0  0  0
  188.5630  174.8820  136.0790 F   0  0  0  0  0  0  0  0  0  0  0  0
  191.1570  172.3220  135.7400 C   0  0  0  0  0  3  0  0  0  0  0  0
  189.5760  174.0400  136.3930 C   0  0  0  0  0  0  0  0  0  0  0  0
  191.6550  172.2850  137.0450 C   0  0  0  0  0  3  0  0  0  0  0  0
  190.1160  173.1970  135.4140 C   0  0  0  0  0  3  0  0  0  0  0  0
  190.0770  174.0070  137.6980 C   0  0  0  0  0  3  0  0  0  0  0  0
  193.0450  172.7150  139.3880 O   0  0  0  0  0  0  0  0  0  0  0  0
  196.2930  174.5820  139.2450 C   0  0  0  0  0  3  0  0  0  0  0  0
  193.9060  174.5770  140.8140 C   0  0  2  0  0  3  0  0  0  0  0  0
  196.0610  175.6280  140.0460 C   0  0  0  0  0  3  0  0  0  0  0  0
  194.3430  173.9680  141.9920 O   0  0  0  0  0  1  0  0  0  0  0  0
  195.2190  173.6170  138.9510 C   0  0  0  0  0  3  0  0  0  0  0  0
  194.0740  173.6230  139.6570 C   0  0  0  0  0  0  0  0  0  0  0  0
  194.6770  175.8850  140.5820 C   0  0  0  0  0  2  0  0  0  0  0  0
  192.5630  170.5200  142.1790 C   0  0  0  0  0  2  0  0  0  0  0  0
  193.5260  170.0760  143.2790 C   0  0  1  0  0  3  0  0  0  0  0  0
  193.9510  168.5470  145.2700 C   0  0  0  0  0  1  0  0  0  0  0  0
  193.0160  168.9010  144.1230 C   0  0  0  0  0  2  0  0  0  0  0  0
  194.9550  169.9010  142.7660 C   0  0  0  0  0  2  0  0  0  0  0  0
  195.1890  169.6930  140.3900 O   0  0  0  0  0  1  0  0  0  0  0  0
  195.2180  170.6110  141.4420 C   0  0  2  0  0  3  0  0  0  0  0  0
  196.5640  171.3200  141.4730 C   0  0  0  0  0  2  0  0  0  0  0  0
  197.5470  170.4960  142.0290 O   0  0  0  0  0  1  0  0  0  0  0  0
  188.8960  173.7390  141.8320 C   0  0  0  0  0  2  0  0  0  0  0  0
  188.5070  174.9440  140.9950 C   0  0  0  0  0  2  0  0  0  0  0  0
  187.2830  175.6260  141.5830 C   0  0  0  0  0  2  0  0  0  0  0  0
  187.5190  177.1250  141.7620 C   0  0  0  0  0  2  0  0  0  0  0  0
  186.8860  177.7310  143.0400 C   0  0  1  0  0  0  0  0  0  0  0  0
  185.7740  176.8100  143.5540 C   0  0  0  0  0  1  0  0  0  0  0  0
  187.9320  177.8550  144.1710 C   0  0  2  0  0  3  0  0  0  0  0  0
  189.2320  177.8840  143.6480 O   0  0  0  0  0  1  0  0  0  0  0  0
  187.8190  176.7960  145.2850 C   0  0  2  0  0  3  0  0  0  0  0  0
  188.0370  177.4160  146.6600 C   0  0  0  0  0  2  0  0  0  0  0  0
  186.7500  178.0250  147.1850 C   0  0  0  0  0  1  0  0  0  0  0  0
  188.7810  175.6310  145.0840 C   0  0  0  0  0  2  0  0  0  0  0  0
  191.9040  176.1330  147.0210 C   0  0  1  0  0  3  0  0  0  0  0  0
  191.0570  176.3530  145.9080 O   0  0  0  0  0  0  0  0  0  0  0  0
  189.8050  175.0570  147.2260 N   0  0  0  0  0  0  0  0  0  0  0  0
  189.8730  175.6740  146.1000 C   0  0  0  0  0  0  0  0  0  0  0  0
  191.0280  175.3140  147.9730 C   0  0  0  0  0  2  0  0  0  0  0  0
  194.3820  177.1580  145.9980 O   0  0  0  0  0  0  0  0  0  0  0  0
  193.0470  175.3340  146.6000 N   0  0  0  0  0  2  0  0  0  0  0  0
  194.2700  175.9100  146.1260 C   0  0  0  0  0  0  0  0  0  0  0  0
  196.1960  172.6890  145.4790 C   0  0  0  0  0  2  0  0  0  0  0  0
  196.1040  175.5080  144.5100 C   0  0  0  0  0  2  0  0  0  0  0  0
  197.1200  174.5230  144.0130 C   0  0  0  0  0  0  0  0  0  0  0  0
  194.9740  173.5820  145.6650 C   0  0  0  0  0  2  0  0  0  0  0  0
  195.4300  175.0320  145.7950 C   0  0  2  0  0  3  0  0  0  0  0  0
  197.9410  174.8830  143.0400 C   0  0  0  0  0  2  0  0  0  0  0  0
  196.9830  173.1330  144.3330 N   0  0  0  0  0  2  0  0  0  0  0  0
  185.6230  179.4990  143.8710 C   0  0  0  0  0  1  0  0  0  0  0  0
  186.3730  179.0290  142.7750 O   0  0  0  0  0  0  0  0  0  0  0  0
  2  1  1  0  0  0  0
  2  3  1  0  0  0  0
  3  4  2  0  0  0  0
  5  2  1  0  0  0  0
  6  5  1  1  0  0  0
  7  6  1  0  0  0  0
  8 10  1  0  0  0  0
  9 11  1  0  0  0  0
 10 13  2  0  0  0  0
 11  7  2  0  0  0  0
 12  9  2  0  0  0  0
 12 10  1  0  0  0  0
 13  7  1  0  0  0  0
 14  6  1  0  0  0  0
 14 20  1  0  0  0  0
 15 17  2  0  0  0  0
 16 18  1  1  0  0  0
 17 21  1  0  0  0  0
 19 15  1  0  0  0  0
 19 20  2  0  0  0  0
 20 16  1  0  0  0  0
 21 16  1  0  0  0  0
 22  3  1  0  0  0  0
 23 22  1  6  0  0  0
 23 25  1  0  0  0  0
 25 24  1  0  0  0  0
 26 23  1  0  0  0  0
 28 27  1  6  0  0  0
 28 29  1  0  0  0  0
 28 26  1  0  0  0  0
 29 30  1  0  0  0  0
 31  1  1  0  0  0  0
 32 33  1  0  0  0  0
 32 31  1  0  0  0  0
 33 34  1  0  0  0  0
 34 35  1  0  0  0  0
 35 36  1  1  0  0  0
 35 37  1  0  0  0  0
 37 38  1  6  0  0  0
 37 39  1  0  0  0  0
 39 42  1  6  0  0  0
 39 40  1  0  0  0  0
 40 41  1  0  0  0  0
 42 46  1  0  0  0  0
 43 49  1  6  0  0  0
 43 47  1  0  0  0  0
 44 46  1  0  0  0  0
 44 43  1  0  0  0  0
 45 47  1  0  0  0  0
 46 45  2  0  0  0  0
 48 50  2  0  0  0  0
 50 49  1  0  0  0  0
 51 54  1  0  0  0  0
 52 55  1  0  0  0  0
 53 57  1  0  0  0  0
 53 52  1  0  0  0  0
 54 55  1  0  0  0  0
 55 50  1  6  0  0  0
 56 53  2  0  0  0  0
 57 51  1  0  0  0  0
 59 35  1  0  0  0  0
 59 58  1  0  0  0  0
M  END
>  <MODEL>
1

>  <REMARK>
 VINA RESULT:      -5.5      0.000      0.000
  Name = 
  25 active torsions:
  status: ('A' for Active; 'I' for Inactive)
    1  A    between atoms: C_1  and  N_12
    2  A    between atoms: C_3  and  C_50
    3  A    between atoms: N_6  and  C_23
    4  A    between atoms: N_6  and  C_42
    5  A    between atoms: C_8  and  C_29
    6  A    between atoms: C_8  and  C_43
    7  A    between atoms: C_10  and  C_40
    8  A    between atoms: C_14  and  C_32
    9  A    between atoms: C_14  and  C_41
   10  A    between atoms: C_15  and  C_43
   11  A    between atoms: C_16  and  C_55
   12  A    between atoms: C_23  and  C_50
   13  A    between atoms: C_25  and  C_36
   14  A    between atoms: C_28  and  C_37
   15  A    between atoms: C_32  and  C_39
   16  A    between atoms: O_34  and  C_47
   17  A    between atoms: O_34  and  C_50
   18  A    between atoms: C_36  and  C_51
   19  A    between atoms: O_38  and  C_41
   20  A    between atoms: C_39  and  C_59
   21  A    between atoms: C_40  and  C_55
   22  A    between atoms: C_41  and  C_48
   23  A    between atoms: C_42  and  C_59
   24  A    between atoms: C_43  and  C_48
   25  A    between atoms: C_51  and  C_55
                            x       y       z     vdW  Elec       q    Type
                         _______ _______ _______ _____ _____    ______ ____

>  <TORSDO>
F 25

$$$$
=
 OpenBabel11062422353D

 59 62  0  0  1  0  0  0  0  0999 V2000
  190.4690  172.0570  142.4730 C   0  0  0  0  0  2  0  0  0  0  0  0
  190.2640  173.3950  141.9360 N   0  0  0  0  0  0  0  0  0  0  0  0
  188.9400  173.9530  141.8450 C   0  0  0  0  0  0  0  0  0  0  0  0
  187.9670  173.3660  142.3940 O   0  0  0  0  0  0  0  0  0  0  0  0
  191.4120  174.0550  141.3270 C   0  0  0  0  0  2  0  0  0  0  0  0
  191.8470  173.3060  140.0730 C   0  0  2  0  0  3  0  0  0  0  0  0
  193.3220  173.4160  139.8620 C   0  0  0  0  0  0  0  0  0  0  0  0
  195.7920  175.6880  138.4000 F   0  0  0  0  0  0  0  0  0  0  0  0
  195.5400  172.4690  140.1250 C   0  0  0  0  0  3  0  0  0  0  0  0
  195.2590  174.6130  139.0290 C   0  0  0  0  0  0  0  0  0  0  0  0
  194.1580  172.3850  140.3120 C   0  0  0  0  0  3  0  0  0  0  0  0
  196.0910  173.5820  139.4810 C   0  0  0  0  0  3  0  0  0  0  0  0
  193.8770  174.5320  139.2200 C   0  0  0  0  0  3  0  0  0  0  0  0
  191.1490  173.8110  138.9380 O   0  0  0  0  0  0  0  0  0  0  0  0
  189.9890  172.3610  135.6810 C   0  0  0  0  0  3  0  0  0  0  0  0
  189.7050  171.8270  138.4720 C   0  0  2  0  0  3  0  0  0  0  0  0
  189.5070  171.1690  136.0500 C   0  0  0  0  0  3  0  0  0  0  0  0
  188.3980  172.2570  138.7110 O   0  0  0  0  0  1  0  0  0  0  0  0
  190.6340  173.2420  136.6710 C   0  0  0  0  0  3  0  0  0  0  0  0
  190.5400  172.9860  137.9870 C   0  0  0  0  0  0  0  0  0  0  0  0
  189.7010  170.6720  137.4590 C   0  0  0  0  0  2  0  0  0  0  0  0
  188.6790  175.2030  141.0640 C   0  0  0  0  0  2  0  0  0  0  0  0
  188.2350  176.3390  141.9840 C   0  0  1  0  0  3  0  0  0  0  0  0
  190.2800  177.6610  142.7280 C   0  0  0  0  0  1  0  0  0  0  0  0
  189.0520  177.6280  141.8290 C   0  0  0  0  0  2  0  0  0  0  0  0
  186.7210  176.5530  141.9560 C   0  0  0  0  0  2  0  0  0  0  0  0
  187.2930  177.8050  139.9950 O   0  0  0  0  0  1  0  0  0  0  0  0
  186.2240  177.2210  140.6770 C   0  0  2  0  0  3  0  0  0  0  0  0
  185.1750  178.2750  140.9970 C   0  0  0  0  0  2  0  0  0  0  0  0
  184.3840  177.8770  142.0800 O   0  0  0  0  0  1  0  0  0  0  0  0
  191.8830  171.9150  143.0100 C   0  0  0  0  0  2  0  0  0  0  0  0
  191.9150  172.3170  144.4730 C   0  0  0  0  0  2  0  0  0  0  0  0
  193.3260  172.2010  145.0240 C   0  0  0  0  0  2  0  0  0  0  0  0
  194.3660  172.5280  143.9530 C   0  0  0  0  0  2  0  0  0  0  0  0
  195.7160  173.0520  144.5020 C   0  0  1  0  0  0  0  0  0  0  0  0
  196.8430  172.7070  143.5230 C   0  0  0  0  0  1  0  0  0  0  0  0
  195.6940  174.5920  144.6450 C   0  0  2  0  0  3  0  0  0  0  0  0
  195.8520  174.9710  145.9840 O   0  0  0  0  0  1  0  0  0  0  0  0
  194.4690  175.2890  144.0230 C   0  0  2  0  0  3  0  0  0  0  0  0
  194.7260  175.6620  142.5680 C   0  0  0  0  0  2  0  0  0  0  0  0
  196.0680  176.3540  142.4180 C   0  0  0  0  0  1  0  0  0  0  0  0
  194.0400  176.5250  144.8060 C   0  0  0  0  0  2  0  0  0  0  0  0
  190.7220  175.6140  146.1920 C   0  0  1  0  0  3  0  0  0  0  0  0
  191.6700  175.7230  145.1450 O   0  0  0  0  0  0  0  0  0  0  0  0
  192.8260  176.4180  146.9230 N   0  0  0  0  0  0  0  0  0  0  0  0
  192.8510  176.2180  145.6530 C   0  0  0  0  0  0  0  0  0  0  0  0
  191.5260  176.0090  147.4350 C   0  0  0  0  0  2  0  0  0  0  0  0
  188.1040  175.5180  147.3620 O   0  0  0  0  0  0  0  0  0  0  0  0
  189.6560  176.5820  145.9730 N   0  0  0  0  0  2  0  0  0  0  0  0
  188.3780  176.4930  146.6130 C   0  0  0  0  0  0  0  0  0  0  0  0
  186.3340  179.1230  144.7660 C   0  0  0  0  0  2  0  0  0  0  0  0
  186.0080  177.1280  146.9600 C   0  0  0  0  0  2  0  0  0  0  0  0
  184.9120  178.0720  146.5670 C   0  0  0  0  0  0  0  0  0  0  0  0
  187.2600  177.9220  144.9290 C   0  0  0  0  0  2  0  0  0  0  0  0
  187.3630  177.5680  146.4100 C   0  0  2  0  0  3  0  0  0  0  0  0
  183.7260  177.9540  147.1410 C   0  0  0  0  0  2  0  0  0  0  0  0
  185.0340  178.8490  145.3680 N   0  0  0  0  0  2  0  0  0  0  0  0
  196.8880  171.4250  145.6800 C   0  0  0  0  0  1  0  0  0  0  0  0
  195.9830  172.4990  145.7830 O   0  0  0  0  0  0  0  0  0  0  0  0
  1 31  1  0  0  0  0
  2  1  1  0  0  0  0
  3  2  1  0  0  0  0
  3  4  2  0  0  0  0
  5  2  1  0  0  0  0
  6  5  1  1  0  0  0
  7  6  1  0  0  0  0
  7 11  1  0  0  0  0
  8 10  1  0  0  0  0
  9 11  2  0  0  0  0
 10 13  1  0  0  0  0
 10 12  2  0  0  0  0
 12  9  1  0  0  0  0
 13  7  2  0  0  0  0
 14  6  1  0  0  0  0
 15 17  2  0  0  0  0
 15 19  1  0  0  0  0
 16 18  1  6  0  0  0
 17 21  1  0  0  0  0
 19 20  2  0  0  0  0
 20 16  1  0  0  0  0
 20 14  1  0  0  0  0
 21 16  1  0  0  0  0
 22  3  1  0  0  0  0
 23 22  1  6  0  0  0
 25 23  1  0  0  0  0
 25 24  1  0  0  0  0
 26 23  1  0  0  0  0
 28 27  1  1  0  0  0
 28 29  1  0  0  0  0
 28 26  1  0  0  0  0
 29 30  1  0  0  0  0
 31 32  1  0  0  0  0
 32 33  1  0  0  0  0
 34 35  1  0  0  0  0
 34 33  1  0  0  0  0
 35 36  1  6  0  0  0
 35 37  1  0  0  0  0
 35 59  1  0  0  0  0
 37 38  1  1  0  0  0
 39 40  1  6  0  0  0
 39 37  1  0  0  0  0
 39 42  1  0  0  0  0
 41 40  1  0  0  0  0
 42 46  1  0  0  0  0
 43 49  1  6  0  0  0
 43 47  1  0  0  0  0
 44 46  1  0  0  0  0
 44 43  1  0  0  0  0
 45 47  1  0  0  0  0
 46 45  2  0  0  0  0
 49 50  1  0  0  0  0
 50 48  2  0  0  0  0
 51 54  1  0  0  0  0
 51 57  1  0  0  0  0
 53 52  1  0  0  0  0
 53 56  2  0  0  0  0
 54 55  1  0  0  0  0
 55 50  1  6  0  0  0
 55 52  1  0  0  0  0
 57 53  1  0  0  0  0
 58 59  1  0  0  0  0
M  END
>  <MODEL>
2

>  <REMARK>
 VINA RESULT:      -5.4      2.387      8.140
  Name = 
  25 active torsions:
  status: ('A' for Active; 'I' for Inactive)
    1  A    between atoms: C_1  and  N_12
    2  A    between atoms: C_3  and  C_50
    3  A    between atoms: N_6  and  C_23
    4  A    between atoms: N_6  and  C_42
    5  A    between atoms: C_8  and  C_29
    6  A    between atoms: C_8  and  C_43
    7  A    between atoms: C_10  and  C_40
    8  A    between atoms: C_14  and  C_32
    9  A    between atoms: C_14  and  C_41
   10  A    between atoms: C_15  and  C_43
   11  A    between atoms: C_16  and  C_55
   12  A    between atoms: C_23  and  C_50
   13  A    between atoms: C_25  and  C_36
   14  A    between atoms: C_28  and  C_37
   15  A    between atoms: C_32  and  C_39
   16  A    between atoms: O_34  and  C_47
   17  A    between atoms: O_34  and  C_50
   18  A    between atoms: C_36  and  C_51
   19  A    between atoms: O_38  and  C_41
   20  A    between atoms: C_39  and  C_59
   21  A    between atoms: C_40  and  C_55
   22  A    between atoms: C_41  and  C_48
   23  A    between atoms: C_42  and  C_59
   24  A    between atoms: C_43  and  C_48
   25  A    between atoms: C_51  and  C_55
                            x       y       z     vdW  Elec       q    Type
                         _______ _______ _______ _____ _____    ______ ____

>  <TORSDO>
F 25

$$$$
=
 OpenBabel11062422353D

 59 62  0  0  1  0  0  0  0  0999 V2000
  189.6740  171.6530  142.7890 C   0  0  0  0  0  2  0  0  0  0  0  0
  189.3010  172.7820  141.9480 N   0  0  0  0  0  0  0  0  0  0  0  0
  188.7520  173.9790  142.5300 C   0  0  0  0  0  0  0  0  0  0  0  0
  188.7590  174.1340  143.7830 O   0  0  0  0  0  0  0  0  0  0  0  0
  189.3230  172.5780  140.5050 C   0  0  0  0  0  2  0  0  0  0  0  0
  190.7440  172.7240  139.9730 C   0  0  2  0  0  3  0  0  0  0  0  0
  190.7550  173.4060  138.6430 C   0  0  0  0  0  0  0  0  0  0  0  0
  188.4520  174.4280  135.9880 F   0  0  0  0  0  0  0  0  0  0  0  0
  192.0050  174.4840  136.8660 C   0  0  0  0  0  3  0  0  0  0  0  0
  189.6000  174.2430  136.6830 C   0  0  0  0  0  0  0  0  0  0  0  0
  191.9730  173.8450  138.1080 C   0  0  0  0  0  3  0  0  0  0  0  0
  190.8190  174.6810  136.1520 C   0  0  0  0  0  3  0  0  0  0  0  0
  189.5670  173.6080  137.9270 C   0  0  0  0  0  3  0  0  0  0  0  0
  191.3600  171.4430  139.8740 O   0  0  0  0  0  0  0  0  0  0  0  0
  190.3200  169.2530  137.0150 C   0  0  0  0  0  3  0  0  0  0  0  0
  192.6780  170.5740  137.9380 C   0  0  2  0  0  3  0  0  0  0  0  0
  191.3490  169.3730  136.1690 C   0  0  0  0  0  3  0  0  0  0  0  0
  193.4200  169.5060  138.4460 O   0  0  0  0  0  1  0  0  0  0  0  0
  190.2860  170.0360  138.2630 C   0  0  0  0  0  3  0  0  0  0  0  0
  191.3770  170.6930  138.6940 C   0  0  0  0  0  0  0  0  0  0  0  0
  192.4390  170.3780  136.4330 C   0  0  0  0  0  2  0  0  0  0  0  0
  188.1230  175.0370  141.6770 C   0  0  0  0  0  2  0  0  0  0  0  0
  188.4980  176.4330  142.1740 C   0  0  1  0  0  3  0  0  0  0  0  0
  190.3030  177.9670  143.1080 C   0  0  0  0  0  1  0  0  0  0  0  0
  189.9770  176.5900  142.5500 C   0  0  0  0  0  2  0  0  0  0  0  0
  187.9660  177.5380  141.2610 C   0  0  0  0  0  2  0  0  0  0  0  0
  186.8030  177.2090  139.1920 O   0  0  0  0  0  1  0  0  0  0  0  0
  186.6480  177.1830  140.5800 C   0  0  2  0  0  3  0  0  0  0  0  0
  185.5520  178.1520  140.9970 C   0  0  0  0  0  2  0  0  0  0  0  0
  184.4130  177.9860  140.2030 O   0  0  0  0  0  1  0  0  0  0  0  0
  190.7010  172.0820  143.8220 C   0  0  0  0  0  2  0  0  0  0  0  0
  191.9150  172.6650  143.1220 C   0  0  0  0  0  2  0  0  0  0  0  0
  193.1870  172.2780  143.8570 C   0  0  0  0  0  2  0  0  0  0  0  0
  194.4280  172.6610  143.0500 C   0  0  0  0  0  2  0  0  0  0  0  0
  195.4980  173.4510  143.8450 C   0  0  1  0  0  0  0  0  0  0  0  0
  196.8910  172.8920  143.5360 C   0  0  0  0  0  1  0  0  0  0  0  0
  195.5050  174.9410  143.4340 C   0  0  2  0  0  3  0  0  0  0  0  0
  196.3570  175.6830  144.2620 O   0  0  0  0  0  1  0  0  0  0  0  0
  194.1160  175.6030  143.3510 C   0  0  2  0  0  3  0  0  0  0  0  0
  193.8770  176.2150  141.9760 C   0  0  0  0  0  2  0  0  0  0  0  0
  193.7060  175.1320  140.9270 C   0  0  0  0  0  1  0  0  0  0  0  0
  193.9060  176.6580  144.4310 C   0  0  0  0  0  2  0  0  0  0  0  0
  191.0540  175.2250  146.3220 C   0  0  1  0  0  3  0  0  0  0  0  0
  191.7900  175.4730  145.1380 O   0  0  0  0  0  0  0  0  0  0  0  0
  193.0810  176.3850  146.7140 N   0  0  0  0  0  0  0  0  0  0  0  0
  192.9360  176.1690  145.4550 C   0  0  0  0  0  0  0  0  0  0  0  0
  191.9680  175.7710  147.4240 C   0  0  0  0  0  2  0  0  0  0  0  0
  188.5930  174.5060  147.6100 O   0  0  0  0  0  0  0  0  0  0  0  0
  189.8190  175.9950  146.2870 N   0  0  0  0  0  2  0  0  0  0  0  0
  188.6300  175.5950  146.9790 C   0  0  0  0  0  0  0  0  0  0  0  0
  186.4700  178.6370  147.7440 C   0  0  0  0  0  2  0  0  0  0  0  0
  186.9300  176.6810  145.5400 C   0  0  0  0  0  2  0  0  0  0  0  0
  185.8760  177.7440  145.4590 C   0  0  0  0  0  0  0  0  0  0  0  0
  187.7500  177.8160  147.6280 C   0  0  0  0  0  2  0  0  0  0  0  0
  187.4270  176.4780  146.9700 C   0  0  2  0  0  3  0  0  0  0  0  0
  185.1920  177.8860  144.3360 C   0  0  0  0  0  2  0  0  0  0  0  0
  185.8450  178.7940  146.4350 N   0  0  0  0  0  2  0  0  0  0  0  0
  196.2320  172.6410  145.8980 C   0  0  0  0  0  1  0  0  0  0  0  0
  195.2330  173.3840  145.2390 O   0  0  0  0  0  0  0  0  0  0  0  0
  1 31  1  0  0  0  0
  2  3  1  0  0  0  0
  2  1  1  0  0  0  0
  3  4  2  0  0  0  0
  5  2  1  0  0  0  0
  6  5  1  6  0  0  0
  7  6  1  0  0  0  0
  8 10  1  0  0  0  0
  9 11  2  0  0  0  0
 10 13  1  0  0  0  0
 11  7  1  0  0  0  0
 12 10  2  0  0  0  0
 12  9  1  0  0  0  0
 13  7  2  0  0  0  0
 14  6  1  0  0  0  0
 15 19  1  0  0  0  0
 16 18  1  1  0  0  0
 16 20  1  0  0  0  0
 17 21  1  0  0  0  0
 17 15  2  0  0  0  0
 19 20  2  0  0  0  0
 20 14  1  0  0  0  0
 21 16  1  0  0  0  0
 22 23  1  0  0  0  0
 22  3  1  0  0  0  0
 23 26  1  6  0  0  0
 23 25  1  0  0  0  0
 25 24  1  0  0  0  0
 28 27  1  6  0  0  0
 28 29  1  0  0  0  0
 28 26  1  0  0  0  0
 30 29  1  0  0  0  0
 32 31  1  0  0  0  0
 32 33  1  0  0  0  0
 34 35  1  0  0  0  0
 34 33  1  0  0  0  0
 35 36  1  6  0  0  0
 35 59  1  0  0  0  0
 37 35  1  0  0  0  0
 37 38  1  1  0  0  0
 39 40  1  6  0  0  0
 39 37  1  0  0  0  0
 39 42  1  0  0  0  0
 41 40  1  0  0  0  0
 42 46  1  0  0  0  0
 43 49  1  6  0  0  0
 43 47  1  0  0  0  0
 44 46  1  0  0  0  0
 44 43  1  0  0  0  0
 45 47  1  0  0  0  0
 46 45  2  0  0  0  0
 49 50  1  0  0  0  0
 50 48  2  0  0  0  0
 52 55  1  0  0  0  0
 53 52  1  0  0  0  0
 53 57  1  0  0  0  0
 54 51  1  0  0  0  0
 55 50  1  6  0  0  0
 55 54  1  0  0  0  0
 56 53  2  0  0  0  0
 57 51  1  0  0  0  0
 59 58  1  0  0  0  0
M  END
>  <MODEL>
3

>  <REMARK>
 VINA RESULT:      -5.4      2.233      7.563
  Name = 
  25 active torsions:
  status: ('A' for Active; 'I' for Inactive)
    1  A    between atoms: C_1  and  N_12
    2  A    between atoms: C_3  and  C_50
    3  A    between atoms: N_6  and  C_23
    4  A    between atoms: N_6  and  C_42
    5  A    between atoms: C_8  and  C_29
    6  A    between atoms: C_8  and  C_43
    7  A    between atoms: C_10  and  C_40
    8  A    between atoms: C_14  and  C_32
    9  A    between atoms: C_14  and  C_41
   10  A    between atoms: C_15  and  C_43
   11  A    between atoms: C_16  and  C_55
   12  A    between atoms: C_23  and  C_50
   13  A    between atoms: C_25  and  C_36
   14  A    between atoms: C_28  and  C_37
   15  A    between atoms: C_32  and  C_39
   16  A    between atoms: O_34  and  C_47
   17  A    between atoms: O_34  and  C_50
   18  A    between atoms: C_36  and  C_51
   19  A    between atoms: O_38  and  C_41
   20  A    between atoms: C_39  and  C_59
   21  A    between atoms: C_40  and  C_55
   22  A    between atoms: C_41  and  C_48
   23  A    between atoms: C_42  and  C_59
   24  A    between atoms: C_43  and  C_48
   25  A    between atoms: C_51  and  C_55
                            x       y       z     vdW  Elec       q    Type
                         _______ _______ _______ _____ _____    ______ ____

>  <TORSDO>
F 25

$$$$
=
 OpenBabel11062422353D

 59 62  0  0  1  0  0  0  0  0999 V2000
  191.4400  175.0730  143.0190 C   0  0  0  0  0  2  0  0  0  0  0  0
  190.7960  176.3040  143.4580 N   0  0  0  0  0  0  0  0  0  0  0  0
  190.6340  176.5860  144.8610 C   0  0  0  0  0  0  0  0  0  0  0  0
  191.2080  175.8630  145.7220 O   0  0  0  0  0  0  0  0  0  0  0  0
  190.1610  177.1280  142.4380 C   0  0  0  0  0  2  0  0  0  0  0  0
  188.6900  176.7530  142.2970 C   0  0  2  0  0  3  0  0  0  0  0  0
  188.5340  175.3660  141.7630 C   0  0  0  0  0  0  0  0  0  0  0  0
  188.0180  171.9400  142.9430 F   0  0  0  0  0  0  0  0  0  0  0  0
  188.4460  173.8650  139.8600 C   0  0  0  0  0  3  0  0  0  0  0  0
  188.1980  172.9900  142.1070 C   0  0  0  0  0  0  0  0  0  0  0  0
  188.5900  175.1540  140.3790 C   0  0  0  0  0  3  0  0  0  0  0  0
  188.2530  172.7820  140.7230 C   0  0  0  0  0  3  0  0  0  0  0  0
  188.3370  174.2800  142.6270 C   0  0  0  0  0  3  0  0  0  0  0  0
  188.0300  177.6850  141.4450 O   0  0  0  0  0  0  0  0  0  0  0  0
  184.4500  178.1940  140.4530 C   0  0  0  0  0  3  0  0  0  0  0  0
  186.0270  178.2300  142.8340 C   0  0  2  0  0  3  0  0  0  0  0  0
  183.8170  178.1640  141.6300 C   0  0  0  0  0  3  0  0  0  0  0  0
  186.1180  179.5990  143.0920 O   0  0  0  0  0  1  0  0  0  0  0  0
  185.9010  177.9450  140.3810 C   0  0  0  0  0  3  0  0  0  0  0  0
  186.6530  177.9230  141.4960 C   0  0  0  0  0  0  0  0  0  0  0  0
  184.5580  177.7830  142.8850 C   0  0  0  0  0  2  0  0  0  0  0  0
  189.7530  177.7010  145.3300 C   0  0  0  0  0  2  0  0  0  0  0  0
  188.6750  177.1830  146.2810 C   0  0  1  0  0  3  0  0  0  0  0  0
  190.2890  178.0350  148.0570 C   0  0  0  0  0  1  0  0  0  0  0  0
  188.8580  177.6250  147.7390 C   0  0  0  0  0  2  0  0  0  0  0  0
  187.2640  177.4010  145.7360 C   0  0  0  0  0  2  0  0  0  0  0  0
  185.1500  176.4450  146.3360 O   0  0  0  0  0  1  0  0  0  0  0  0
  186.1750  177.2730  146.7970 C   0  0  2  0  0  3  0  0  0  0  0  0
  185.6140  178.6420  147.1560 C   0  0  0  0  0  2  0  0  0  0  0  0
  184.9260  179.1960  146.0720 O   0  0  0  0  0  1  0  0  0  0  0  0
  192.5780  175.3850  142.0630 C   0  0  0  0  0  2  0  0  0  0  0  0
  192.4960  174.4660  140.8570 C   0  0  0  0  0  2  0  0  0  0  0  0
  193.7360  174.6140  139.9920 C   0  0  0  0  0  2  0  0  0  0  0  0
  193.8420  173.4740  138.9800 C   0  0  0  0  0  2  0  0  0  0  0  0
  193.4270  173.8520  137.5360 C   0  0  1  0  0  0  0  0  0  0  0  0
  194.4640  173.3170  136.5420 C   0  0  0  0  0  1  0  0  0  0  0  0
  192.0700  173.2100  137.1640 C   0  0  2  0  0  3  0  0  0  0  0  0
  191.0080  173.9210  137.7390 O   0  0  0  0  0  1  0  0  0  0  0  0
  191.9500  171.7060  137.4770 C   0  0  2  0  0  3  0  0  0  0  0  0
  191.5240  170.9180  136.2440 C   0  0  0  0  0  2  0  0  0  0  0  0
  190.0850  170.4540  136.3730 C   0  0  0  0  0  1  0  0  0  0  0  0
  190.9930  171.4240  138.6290 C   0  0  0  0  0  2  0  0  0  0  0  0
  192.4190  170.6170  141.9570 C   0  0  1  0  0  3  0  0  0  0  0  0
  191.5020  171.2700  141.0980 O   0  0  0  0  0  0  0  0  0  0  0  0
  192.6720  169.9980  139.6850 N   0  0  0  0  0  0  0  0  0  0  0  0
  191.7350  170.8710  139.8000 C   0  0  0  0  0  0  0  0  0  0  0  0
  193.1750  169.6760  141.0130 C   0  0  0  0  0  2  0  0  0  0  0  0
  193.1070  170.9050  144.7270 O   0  0  0  0  0  0  0  0  0  0  0  0
  193.3420  171.6000  142.5070 N   0  0  0  0  0  2  0  0  0  0  0  0
  193.6670  171.6720  143.9000 C   0  0  0  0  0  0  0  0  0  0  0  0
  196.5790  174.1190  143.7200 C   0  0  0  0  0  2  0  0  0  0  0  0
  194.0220  173.7460  145.2080 C   0  0  0  0  0  2  0  0  0  0  0  0
  194.9660  174.8710  145.5090 C   0  0  0  0  0  0  0  0  0  0  0  0
  195.4450  173.2450  143.1970 C   0  0  0  0  0  2  0  0  0  0  0  0
  194.6880  172.6490  144.3800 C   0  0  2  0  0  3  0  0  0  0  0  0
  194.6110  175.7880  146.3940 C   0  0  0  0  0  2  0  0  0  0  0  0
  196.0610  175.1410  144.6240 N   0  0  0  0  0  2  0  0  0  0  0  0
  194.1620  175.7510  136.4140 C   0  0  0  0  0  1  0  0  0  0  0  0
  193.2940  175.2600  137.4080 O   0  0  0  0  0  0  0  0  0  0  0  0
  1  2  1  0  0  0  0
  2  3  1  0  0  0  0
  3 22  1  0  0  0  0
  3  4  2  0  0  0  0
  5  2  1  0  0  0  0
  6  5  1  6  0  0  0
  7  6  1  0  0  0  0
  7 13  1  0  0  0  0
  9 11  1  0  0  0  0
  9 12  2  0  0  0  0
 10 13  2  0  0  0  0
 10  8  1  0  0  0  0
 11  7  2  0  0  0  0
 12 10  1  0  0  0  0
 14 20  1  0  0  0  0
 14  6  1  0  0  0  0
 15 17  2  0  0  0  0
 16 21  1  0  0  0  0
 16 18  1  6  0  0  0
 17 21  1  0  0  0  0
 19 15  1  0  0  0  0
 19 20  2  0  0  0  0
 20 16  1  0  0  0  0
 23 22  1  6  0  0  0
 23 25  1  0  0  0  0
 25 24  1  0  0  0  0
 26 23  1  0  0  0  0
 26 28  1  0  0  0  0
 28 27  1  6  0  0  0
 28 29  1  0  0  0  0
 30 29  1  0  0  0  0
 31  1  1  0  0  0  0
 32 31  1  0  0  0  0
 33 32  1  0  0  0  0
 34 33  1  0  0  0  0
 35 36  1  6  0  0  0
 35 34  1  0  0  0  0
 37 39  1  0  0  0  0
 37 35  1  0  0  0  0
 37 38  1  1  0  0  0
 39 40  1  6  0  0  0
 39 42  1  0  0  0  0
 40 41  1  0  0  0  0
 42 46  1  0  0  0  0
 43 49  1  6  0  0  0
 44 43  1  0  0  0  0
 45 46  2  0  0  0  0
 45 47  1  0  0  0  0
 46 44  1  0  0  0  0
 47 43  1  0  0  0  0
 49 50  1  0  0  0  0
 50 48  2  0  0  0  0
 51 57  1  0  0  0  0
 52 53  1  0  0  0  0
 53 56  2  0  0  0  0
 54 51  1  0  0  0  0
 54 55  1  0  0  0  0
 55 50  1  6  0  0  0
 55 52  1  0  0  0  0
 57 53  1  0  0  0  0
 58 59  1  0  0  0  0
 59 35  1  0  0  0  0
M  END
>  <MODEL>
4

>  <REMARK>
 VINA RESULT:      -5.4      2.382      8.494
  Name = 
  25 active torsions:
  status: ('A' for Active; 'I' for Inactive)
    1  A    between atoms: C_1  and  N_12
    2  A    between atoms: C_3  and  C_50
    3  A    between atoms: N_6  and  C_23
    4  A    between atoms: N_6  and  C_42
    5  A    between atoms: C_8  and  C_29
    6  A    between atoms: C_8  and  C_43
    7  A    between atoms: C_10  and  C_40
    8  A    between atoms: C_14  and  C_32
    9  A    between atoms: C_14  and  C_41
   10  A    between atoms: C_15  and  C_43
   11  A    between atoms: C_16  and  C_55
   12  A    between atoms: C_23  and  C_50
   13  A    between atoms: C_25  and  C_36
   14  A    between atoms: C_28  and  C_37
   15  A    between atoms: C_32  and  C_39
   16  A    between atoms: O_34  and  C_47
   17  A    between atoms: O_34  and  C_50
   18  A    between atoms: C_36  and  C_51
   19  A    between atoms: O_38  and  C_41
   20  A    between atoms: C_39  and  C_59
   21  A    between atoms: C_40  and  C_55
   22  A    between atoms: C_41  and  C_48
   23  A    between atoms: C_42  and  C_59
   24  A    between atoms: C_43  and  C_48
   25  A    between atoms: C_51  and  C_55
                            x       y       z     vdW  Elec       q    Type
                         _______ _______ _______ _____ _____    ______ ____

>  <TORSDO>
F 25

$$$$
=
 OpenBabel11062422353D

 59 62  0  0  1  0  0  0  0  0999 V2000
  193.1510  175.6550  144.2320 C   0  0  0  0  0  2  0  0  0  0  0  0
  194.2900  174.7980  143.9330 N   0  0  0  0  0  0  0  0  0  0  0  0
  195.6120  175.3550  143.8090 C   0  0  0  0  0  0  0  0  0  0  0  0
  195.8270  176.5550  144.1370 O   0  0  0  0  0  0  0  0  0  0  0  0
  194.0110  173.4130  143.5770 C   0  0  0  0  0  2  0  0  0  0  0  0
  193.7610  172.5860  144.8330 C   0  0  2  0  0  3  0  0  0  0  0  0
  194.8140  171.5410  145.0110 C   0  0  0  0  0  0  0  0  0  0  0  0
  197.9340  170.4030  143.4710 F   0  0  0  0  0  0  0  0  0  0  0  0
  195.6720  169.6370  146.2440 C   0  0  0  0  0  3  0  0  0  0  0  0
  196.8820  170.4790  144.3200 C   0  0  0  0  0  0  0  0  0  0  0  0
  194.6980  170.6220  146.0620 C   0  0  0  0  0  3  0  0  0  0  0  0
  196.7630  169.5630  145.3720 C   0  0  0  0  0  3  0  0  0  0  0  0
  195.9100  171.4670  144.1390 C   0  0  0  0  0  3  0  0  0  0  0  0
  192.4730  171.9800  144.7690 O   0  0  0  0  0  0  0  0  0  0  0  0
  189.4280  173.7040  143.4210 C   0  0  0  0  0  3  0  0  0  0  0  0
  191.4490  171.9120  142.4910 C   0  0  2  0  0  3  0  0  0  0  0  0
  189.5530  173.5220  142.1020 C   0  0  0  0  0  3  0  0  0  0  0  0
  190.7520  170.7040  142.4360 O   0  0  0  0  0  1  0  0  0  0  0  0
  190.4840  173.2410  144.3400 C   0  0  0  0  0  3  0  0  0  0  0  0
  191.4630  172.4260  143.9100 C   0  0  0  0  0  0  0  0  0  0  0  0
  190.8140  172.9290  141.5310 C   0  0  0  0  0  2  0  0  0  0  0  0
  196.7430  174.5490  143.2490 C   0  0  0  0  0  2  0  0  0  0  0  0
  196.7840  174.6500  141.7250 C   0  0  1  0  0  3  0  0  0  0  0  0
  197.9410  175.6180  139.6730 C   0  0  0  0  0  1  0  0  0  0  0  0
  197.8160  175.6510  141.1890 C   0  0  0  0  0  2  0  0  0  0  0  0
  196.8370  173.2790  141.0510 C   0  0  0  0  0  2  0  0  0  0  0  0
  194.6770  174.0030  140.3090 O   0  0  0  0  0  1  0  0  0  0  0  0
  195.6170  172.9790  140.1850 C   0  0  2  0  0  3  0  0  0  0  0  0
  194.9910  171.6500  140.5840 C   0  0  0  0  0  2  0  0  0  0  0  0
  194.6820  170.8880  139.4530 O   0  0  0  0  0  1  0  0  0  0  0  0
  192.7610  176.4610  143.0050 C   0  0  0  0  0  2  0  0  0  0  0  0
  191.3210  176.9240  143.1370 C   0  0  0  0  0  2  0  0  0  0  0  0
  190.9520  177.0990  144.6000 C   0  0  0  0  0  2  0  0  0  0  0  0
  189.4460  177.2930  144.7700 C   0  0  0  0  0  2  0  0  0  0  0  0
  188.8890  176.8550  146.1480 C   0  0  1  0  0  0  0  0  0  0  0  0
  189.8240  177.3370  147.2620 C   0  0  0  0  0  1  0  0  0  0  0  0
  187.5040  177.4900  146.4120 C   0  0  2  0  0  3  0  0  0  0  0  0
  186.6450  176.5740  147.0340 O   0  0  0  0  0  1  0  0  0  0  0  0
  186.8270  178.1190  145.1790 C   0  0  2  0  0  3  0  0  0  0  0  0
  185.7840  179.1520  145.5880 C   0  0  0  0  0  2  0  0  0  0  0  0
  185.4060  180.0300  144.4100 C   0  0  0  0  0  1  0  0  0  0  0  0
  186.1930  177.0760  144.2650 C   0  0  0  0  0  2  0  0  0  0  0  0
  186.9250  176.8490  140.6360 C   0  0  1  0  0  3  0  0  0  0  0  0
  186.2190  176.4880  141.8100 O   0  0  0  0  0  0  0  0  0  0  0  0
  187.5730  178.1080  142.5340 N   0  0  0  0  0  0  0  0  0  0  0  0
  186.6740  177.2500  142.8640 C   0  0  0  0  0  0  0  0  0  0  0  0
  187.8000  178.0190  141.0990 C   0  0  0  0  0  2  0  0  0  0  0  0
  186.9270  175.6010  138.0530 O   0  0  0  0  0  0  0  0  0  0  0  0
  187.7730  175.7370  140.2290 N   0  0  0  0  0  2  0  0  0  0  0  0
  187.7470  175.1780  138.9100 C   0  0  0  0  0  0  0  0  0  0  0  0
  189.1750  171.6580  138.6350 C   0  0  0  0  0  2  0  0  0  0  0  0
  189.0480  174.1830  137.0520 C   0  0  0  0  0  2  0  0  0  0  0  0
  189.8150  172.9830  136.5840 C   0  0  0  0  0  0  0  0  0  0  0  0
  188.1200  172.7310  138.8820 C   0  0  0  0  0  2  0  0  0  0  0  0
  188.7050  174.0970  138.5370 C   0  0  2  0  0  3  0  0  0  0  0  0
  190.3730  173.0040  135.3850 C   0  0  0  0  0  2  0  0  0  0  0  0
  189.6610  171.7280  137.2610 N   0  0  0  0  0  2  0  0  0  0  0  0
  189.3550  174.9220  147.3540 C   0  0  0  0  0  1  0  0  0  0  0  0
  188.7390  175.4430  146.2000 O   0  0  0  0  0  0  0  0  0  0  0  0
  2  1  1  0  0  0  0
  3  2  1  0  0  0  0
  3  4  2  0  0  0  0
  5  2  1  0  0  0  0
  6  5  1  6  0  0  0
  6  7  1  0  0  0  0
  7 11  1  0  0  0  0
  8 10  1  0  0  0  0
 10 12  2  0  0  0  0
 11  9  2  0  0  0  0
 12  9  1  0  0  0  0
 13 10  1  0  0  0  0
 13  7  2  0  0  0  0
 14  6  1  0  0  0  0
 15 19  1  0  0  0  0
 16 18  1  1  0  0  0
 16 20  1  0  0  0  0
 17 15  2  0  0  0  0
 20 19  2  0  0  0  0
 20 14  1  0  0  0  0
 21 17  1  0  0  0  0
 21 16  1  0  0  0  0
 22  3  1  0  0  0  0
 23 26  1  6  0  0  0
 23 22  1  0  0  0  0
 24 25  1  0  0  0  0
 25 23  1  0  0  0  0
 28 27  1  1  0  0  0
 28 29  1  0  0  0  0
 28 26  1  0  0  0  0
 30 29  1  0  0  0  0
 31 32  1  0  0  0  0
 31  1  1  0  0  0  0
 32 33  1  0  0  0  0
 33 34  1  0  0  0  0
 34 35  1  0  0  0  0
 35 59  1  0  0  0  0
 35 37  1  0  0  0  0
 35 36  1  1  0  0  0
 37 38  1  6  0  0  0
 39 42  1  1  0  0  0
 39 40  1  0  0  0  0
 39 37  1  0  0  0  0
 41 40  1  0  0  0  0
 43 49  1  1  0  0  0
 43 47  1  0  0  0  0
 43 44  1  0  0  0  0
 44 46  1  0  0  0  0
 45 46  2  0  0  0  0
 46 42  1  0  0  0  0
 47 45  1  0  0  0  0
 48 50  2  0  0  0  0
 50 49  1  0  0  0  0
 51 54  1  0  0  0  0
 52 55  1  0  0  0  0
 53 52  1  0  0  0  0
 53 57  1  0  0  0  0
 55 54  1  0  0  0  0
 55 50  1  6  0  0  0
 56 53  2  0  0  0  0
 57 51  1  0  0  0  0
 59 58  1  0  0  0  0
M  END
>  <MODEL>
5

>  <REMARK>
 VINA RESULT:      -5.3      2.873      7.235
  Name = 
  25 active torsions:
  status: ('A' for Active; 'I' for Inactive)
    1  A    between atoms: C_1  and  N_12
    2  A    between atoms: C_3  and  C_50
    3  A    between atoms: N_6  and  C_23
    4  A    between atoms: N_6  and  C_42
    5  A    between atoms: C_8  and  C_29
    6  A    between atoms: C_8  and  C_43
    7  A    between atoms: C_10  and  C_40
    8  A    between atoms: C_14  and  C_32
    9  A    between atoms: C_14  and  C_41
   10  A    between atoms: C_15  and  C_43
   11  A    between atoms: C_16  and  C_55
   12  A    between atoms: C_23  and  C_50
   13  A    between atoms: C_25  and  C_36
   14  A    between atoms: C_28  and  C_37
   15  A    between atoms: C_32  and  C_39
   16  A    between atoms: O_34  and  C_47
   17  A    between atoms: O_34  and  C_50
   18  A    between atoms: C_36  and  C_51
   19  A    between atoms: O_38  and  C_41
   20  A    between atoms: C_39  and  C_59
   21  A    between atoms: C_40  and  C_55
   22  A    between atoms: C_41  and  C_48
   23  A    between atoms: C_42  and  C_59
   24  A    between atoms: C_43  and  C_48
   25  A    between atoms: C_51  and  C_55
                            x       y       z     vdW  Elec       q    Type
                         _______ _______ _______ _____ _____    ______ ____

>  <TORSDO>
F 25

$$$$
=
 OpenBabel11062422353D

 59 62  0  0  1  0  0  0  0  0999 V2000
  188.1230  173.6690  142.1250 C   0  0  0  0  0  2  0  0  0  0  0  0
  189.3420  174.4030  142.4390 N   0  0  0  0  0  0  0  0  0  0  0  0
  190.4900  173.7200  142.9740 C   0  0  0  0  0  0  0  0  0  0  0  0
  190.5190  172.4580  143.0060 O   0  0  0  0  0  0  0  0  0  0  0  0
  189.2830  175.8570  142.3730 C   0  0  0  0  0  2  0  0  0  0  0  0
  188.0060  176.3640  143.0360 C   0  0  2  0  0  3  0  0  0  0  0  0
  187.0420  176.8860  142.0210 C   0  0  0  0  0  0  0  0  0  0  0  0
  186.8410  177.5930  138.4350 F   0  0  0  0  0  0  0  0  0  0  0  0
  184.8450  177.7710  141.4980 C   0  0  0  0  0  3  0  0  0  0  0  0
  186.4870  177.4850  139.7380 C   0  0  0  0  0  0  0  0  0  0  0  0
  185.7610  177.2800  142.4310 C   0  0  0  0  0  3  0  0  0  0  0  0
  185.2080  177.8760  140.1520 C   0  0  0  0  0  3  0  0  0  0  0  0
  187.4030  176.9890  140.6700 C   0  0  0  0  0  3  0  0  0  0  0  0
  188.3210  177.3800  143.9840 O   0  0  0  0  0  0  0  0  0  0  0  0
  185.8640  178.7310  146.4730 C   0  0  0  0  0  3  0  0  0  0  0  0
  187.9320  176.7630  146.3730 C   0  0  2  0  0  3  0  0  0  0  0  0
  185.9280  177.8310  147.4600 C   0  0  0  0  0  3  0  0  0  0  0  0
  188.9540  177.3910  147.0880 O   0  0  0  0  0  1  0  0  0  0  0  0
  186.6330  178.5300  145.2310 C   0  0  0  0  0  3  0  0  0  0  0  0
  187.5860  177.5850  145.1560 C   0  0  0  0  0  0  0  0  0  0  0  0
  186.7090  176.5560  147.2790 C   0  0  0  0  0  2  0  0  0  0  0  0
  191.6470  174.4800  143.5450 C   0  0  0  0  0  2  0  0  0  0  0  0
  191.8380  174.1530  145.0250 C   0  0  1  0  0  3  0  0  0  0  0  0
  193.5100  172.2320  145.0400 C   0  0  0  0  0  1  0  0  0  0  0  0
  193.2560  173.6910  145.3880 C   0  0  0  0  0  2  0  0  0  0  0  0
  191.2850  175.2460  145.9390 C   0  0  0  0  0  2  0  0  0  0  0  0
  191.2290  175.1740  148.3330 O   0  0  0  0  0  1  0  0  0  0  0  0
  192.0660  175.4050  147.2400 C   0  0  2  0  0  3  0  0  0  0  0  0
  192.6710  176.7980  147.3350 C   0  0  0  0  0  2  0  0  0  0  0  0
  193.9620  176.8170  146.7960 O   0  0  0  0  0  1  0  0  0  0  0  0
  187.9830  173.4960  140.6220 C   0  0  0  0  0  2  0  0  0  0  0  0
  189.3590  173.3680  139.9950 C   0  0  0  0  0  2  0  0  0  0  0  0
  189.2450  172.8830  138.5600 C   0  0  0  0  0  2  0  0  0  0  0  0
  189.8030  171.4680  138.4090 C   0  0  0  0  0  2  0  0  0  0  0  0
  190.8220  171.2940  137.2560 C   0  0  1  0  0  0  0  0  0  0  0  0
  190.1090  170.7620  136.0090 C   0  0  0  0  0  1  0  0  0  0  0  0
  191.4590  172.6500  136.8720 C   0  0  2  0  0  3  0  0  0  0  0  0
  191.4970  172.8070  135.4800 O   0  0  0  0  0  1  0  0  0  0  0  0
  192.8460  172.9190  137.4870 C   0  0  2  0  0  3  0  0  0  0  0  0
  192.8800  174.2630  138.2040 C   0  0  0  0  0  2  0  0  0  0  0  0
  192.9390  174.0690  139.7080 C   0  0  0  0  0  1  0  0  0  0  0  0
  193.9660  172.8530  136.4550 C   0  0  0  0  0  2  0  0  0  0  0  0
  196.8090  172.2710  138.7640 C   0  0  1  0  0  3  0  0  0  0  0  0
  195.4490  172.1720  138.3820 O   0  0  0  0  0  0  0  0  0  0  0  0
  196.3850  173.1500  136.6070 N   0  0  0  0  0  0  0  0  0  0  0  0
  195.2900  172.7260  137.1300 C   0  0  0  0  0  0  0  0  0  0  0  0
  197.4810  172.8640  137.5210 C   0  0  0  0  0  2  0  0  0  0  0  0
  195.9380  171.7950  141.4560 O   0  0  0  0  0  0  0  0  0  0  0  0
  196.9260  173.2060  139.8750 N   0  0  0  0  0  2  0  0  0  0  0  0
  196.4980  172.8950  141.2050 C   0  0  0  0  0  0  0  0  0  0  0  0
  195.9270  175.9560  143.3980 C   0  0  0  0  0  2  0  0  0  0  0  0
  196.8620  173.1350  143.6440 C   0  0  0  0  0  2  0  0  0  0  0  0
  196.8570  174.0800  144.8080 C   0  0  0  0  0  0  0  0  0  0  0  0
  195.5930  174.8870  142.3640 C   0  0  0  0  0  2  0  0  0  0  0  0
  196.7290  173.8690  142.3120 C   0  0  2  0  0  3  0  0  0  0  0  0
  197.1820  173.6260  146.0070 C   0  0  0  0  0  2  0  0  0  0  0  0
  196.1910  175.3460  144.6960 N   0  0  0  0  0  2  0  0  0  0  0  0
  191.3470  169.2830  138.2990 C   0  0  0  0  0  1  0  0  0  0  0  0
  191.8690  170.4150  137.6440 O   0  0  0  0  0  0  0  0  0  0  0  0
  1  2  1  0  0  0  0
  2  3  1  0  0  0  0
  3  4  2  0  0  0  0
  3 22  1  0  0  0  0
  5  2  1  0  0  0  0
  6  5  1  6  0  0  0
  6 14  1  0  0  0  0
  7 11  1  0  0  0  0
  7  6  1  0  0  0  0
  8 10  1  0  0  0  0
  9 11  2  0  0  0  0
 10 12  2  0  0  0  0
 10 13  1  0  0  0  0
 12  9  1  0  0  0  0
 13  7  2  0  0  0  0
 14 20  1  0  0  0  0
 15 17  2  0  0  0  0
 16 18  1  1  0  0  0
 16 21  1  0  0  0  0
 19 15  1  0  0  0  0
 20 19  2  0  0  0  0
 20 16  1  0  0  0  0
 21 17  1  0  0  0  0
 23 22  1  6  0  0  0
 23 25  1  0  0  0  0
 23 26  1  0  0  0  0
 24 25  1  0  0  0  0
 26 28  1  0  0  0  0
 28 29  1  0  0  0  0
 28 27  1  1  0  0  0
 30 29  1  0  0  0  0
 31  1  1  0  0  0  0
 32 31  1  0  0  0  0
 33 32  1  0  0  0  0
 34 33  1  0  0  0  0
 35 36  1  6  0  0  0
 35 59  1  0  0  0  0
 35 34  1  0  0  0  0
 37 38  1  6  0  0  0
 37 35  1  0  0  0  0
 37 39  1  0  0  0  0
 39 42  1  6  0  0  0
 39 40  1  0  0  0  0
 40 41  1  0  0  0  0
 42 46  1  0  0  0  0
 43 49  1  1  0  0  0
 44 43  1  0  0  0  0
 45 46  2  0  0  0  0
 45 47  1  0  0  0  0
 46 44  1  0  0  0  0
 47 43  1  0  0  0  0
 49 50  1  0  0  0  0
 50 48  2  0  0  0  0
 51 57  1  0  0  0  0
 52 53  1  0  0  0  0
 53 56  2  0  0  0  0
 54 51  1  0  0  0  0
 55 50  1  6  0  0  0
 55 54  1  0  0  0  0
 55 52  1  0  0  0  0
 57 53  1  0  0  0  0
 59 58  1  0  0  0  0
M  END
>  <MODEL>
6

>  <REMARK>
 VINA RESULT:      -5.2      2.256      8.078
  Name = 
  25 active torsions:
  status: ('A' for Active; 'I' for Inactive)
    1  A    between atoms: C_1  and  N_12
    2  A    between atoms: C_3  and  C_50
    3  A    between atoms: N_6  and  C_23
    4  A    between atoms: N_6  and  C_42
    5  A    between atoms: C_8  and  C_29
    6  A    between atoms: C_8  and  C_43
    7  A    between atoms: C_10  and  C_40
    8  A    between atoms: C_14  and  C_32
    9  A    between atoms: C_14  and  C_41
   10  A    between atoms: C_15  and  C_43
   11  A    between atoms: C_16  and  C_55
   12  A    between atoms: C_23  and  C_50
   13  A    between atoms: C_25  and  C_36
   14  A    between atoms: C_28  and  C_37
   15  A    between atoms: C_32  and  C_39
   16  A    between atoms: O_34  and  C_47
   17  A    between atoms: O_34  and  C_50
   18  A    between atoms: C_36  and  C_51
   19  A    between atoms: O_38  and  C_41
   20  A    between atoms: C_39  and  C_59
   21  A    between atoms: C_40  and  C_55
   22  A    between atoms: C_41  and  C_48
   23  A    between atoms: C_42  and  C_59
   24  A    between atoms: C_43  and  C_48
   25  A    between atoms: C_51  and  C_55
                            x       y       z     vdW  Elec       q    Type
                         _______ _______ _______ _____ _____    ______ ____

>  <TORSDO>
F 25

$$$$
=
 OpenBabel11062422353D

 59 62  0  0  1  0  0  0  0  0999 V2000
  190.2540  173.9600  141.6150 C   0  0  0  0  0  2  0  0  0  0  0  0
  189.8400  175.1240  142.3870 N   0  0  0  0  0  0  0  0  0  0  0  0
  188.4570  175.3140  142.7400 C   0  0  0  0  0  0  0  0  0  0  0  0
  187.6200  174.3890  142.5450 O   0  0  0  0  0  0  0  0  0  0  0  0
  190.8340  176.1650  142.6140 C   0  0  0  0  0  2  0  0  0  0  0  0
  191.7640  175.7670  143.7550 C   0  0  2  0  0  3  0  0  0  0  0  0
  191.1960  176.1650  145.0790 C   0  0  0  0  0  0  0  0  0  0  0  0
  190.9270  174.9190  148.5100 F   0  0  0  0  0  0  0  0  0  0  0  0
  189.9730  177.7710  146.4230 C   0  0  0  0  0  3  0  0  0  0  0  0
  190.7970  175.7250  147.4290 C   0  0  0  0  0  0  0  0  0  0  0  0
  190.5110  177.3810  145.1940 C   0  0  0  0  0  3  0  0  0  0  0  0
  190.1130  176.9420  147.5400 C   0  0  0  0  0  3  0  0  0  0  0  0
  191.3390  175.3370  146.2010 C   0  0  0  0  0  3  0  0  0  0  0  0
  193.0440  176.3650  143.5690 O   0  0  0  0  0  0  0  0  0  0  0  0
  196.3700  175.2000  142.2910 C   0  0  0  0  0  3  0  0  0  0  0  0
  194.3840  174.3400  144.1550 C   0  0  2  0  0  3  0  0  0  0  0  0
  196.6970  174.2430  143.1660 C   0  0  0  0  0  3  0  0  0  0  0  0
  193.7830  173.2870  143.4620 O   0  0  0  0  0  1  0  0  0  0  0  0
  195.1420  175.9930  142.4790 C   0  0  0  0  0  3  0  0  0  0  0  0
  194.2130  175.6220  143.3770 C   0  0  0  0  0  0  0  0  0  0  0  0
  195.8670  174.0260  144.4040 C   0  0  0  0  0  2  0  0  0  0  0  0
  187.9720  176.6160  143.2980 C   0  0  0  0  0  2  0  0  0  0  0  0
  186.6320  176.4400  144.0110 C   0  0  1  0  0  3  0  0  0  0  0  0
  185.2430  176.9780  146.0760 C   0  0  0  0  0  1  0  0  0  0  0  0
  186.6390  176.8820  145.4800 C   0  0  0  0  0  2  0  0  0  0  0  0
  185.4630  176.9960  143.1980 C   0  0  0  0  0  2  0  0  0  0  0  0
  185.6700  179.3810  143.1100 O   0  0  0  0  0  1  0  0  0  0  0  0
  185.8300  178.2160  142.3590 C   0  0  2  0  0  3  0  0  0  0  0  0
  184.9680  178.2840  141.1070 C   0  0  0  0  0  2  0  0  0  0  0  0
  183.6090  178.2900  141.4400 O   0  0  0  0  0  1  0  0  0  0  0  0
  190.5600  172.7950  142.5390 C   0  0  0  0  0  2  0  0  0  0  0  0
  190.2320  171.4890  141.8380 C   0  0  0  0  0  2  0  0  0  0  0  0
  191.3890  171.0570  140.9530 C   0  0  0  0  0  2  0  0  0  0  0  0
  190.8960  170.6310  139.5700 C   0  0  0  0  0  2  0  0  0  0  0  0
  191.2850  171.5930  138.4200 C   0  0  1  0  0  0  0  0  0  0  0  0
  192.1770  172.7150  138.9630 C   0  0  0  0  0  1  0  0  0  0  0  0
  192.0960  170.8540  137.3310 C   0  0  2  0  0  3  0  0  0  0  0  0
  192.3380  169.5260  137.7030 O   0  0  0  0  0  1  0  0  0  0  0  0
  193.4060  171.5470  136.9090 C   0  0  2  0  0  3  0  0  0  0  0  0
  193.3570  171.9800  135.4490 C   0  0  0  0  0  2  0  0  0  0  0  0
  192.6830  173.3330  135.3110 C   0  0  0  0  0  1  0  0  0  0  0  0
  194.6330  170.6730  137.1490 C   0  0  0  0  0  2  0  0  0  0  0  0
  196.7120  171.2670  140.1630 C   0  0  1  0  0  3  0  0  0  0  0  0
  196.0800  170.4370  139.2050 O   0  0  0  0  0  0  0  0  0  0  0  0
  195.6240  172.4870  138.4510 N   0  0  0  0  0  0  0  0  0  0  0  0
  195.4560  171.2260  138.2640 C   0  0  0  0  0  0  0  0  0  0  0  0
  196.4790  172.6780  139.6130 C   0  0  0  0  0  2  0  0  0  0  0  0
  197.6410  169.7200  142.3940 O   0  0  0  0  0  0  0  0  0  0  0  0
  196.0310  171.1230  141.4420 N   0  0  0  0  0  2  0  0  0  0  0  0
  196.5650  170.3590  142.5300 C   0  0  0  0  0  0  0  0  0  0  0  0
  193.8070  169.5830  145.0400 C   0  0  0  0  0  2  0  0  0  0  0  0
  196.7800  169.7970  144.9330 C   0  0  0  0  0  2  0  0  0  0  0  0
  196.0430  169.5250  146.2100 C   0  0  0  0  0  0  0  0  0  0  0  0
  194.5920  169.4740  143.7370 C   0  0  0  0  0  2  0  0  0  0  0  0
  195.8540  170.3270  143.8410 C   0  0  2  0  0  3  0  0  0  0  0  0
  196.7340  169.2720  147.3090 C   0  0  0  0  0  2  0  0  0  0  0  0
  194.6450  169.2060  146.1730 N   0  0  0  0  0  2  0  0  0  0  0  0
  190.0480  173.5230  138.0270 C   0  0  0  0  0  1  0  0  0  0  0  0
  190.1230  172.1340  137.8080 O   0  0  0  0  0  0  0  0  0  0  0  0
  1  2  1  0  0  0  0
  1 31  1  0  0  0  0
  2  5  1  0  0  0  0
  2  3  1  0  0  0  0
  3 22  1  0  0  0  0
  4  3  2  0  0  0  0
  6  5  1  6  0  0  0
  6  7  1  0  0  0  0
  7 11  2  0  0  0  0
  7 13  1  0  0  0  0
  9 12  2  0  0  0  0
 10 12  1  0  0  0  0
 10  8  1  0  0  0  0
 11  9  1  0  0  0  0
 13 10  2  0  0  0  0
 14  6  1  0  0  0  0
 15 19  1  0  0  0  0
 15 17  2  0  0  0  0
 16 18  1  6  0  0  0
 16 21  1  0  0  0  0
 17 21  1  0  0  0  0
 19 20  2  0  0  0  0
 20 14  1  0  0  0  0
 20 16  1  0  0  0  0
 22 23  1  0  0  0  0
 23 26  1  6  0  0  0
 23 25  1  0  0  0  0
 25 24  1  0  0  0  0
 28 27  1  1  0  0  0
 28 26  1  0  0  0  0
 29 30  1  0  0  0  0
 29 28  1  0  0  0  0
 32 31  1  0  0  0  0
 33 32  1  0  0  0  0
 34 33  1  0  0  0  0
 35 36  1  1  0  0  0
 35 34  1  0  0  0  0
 37 38  1  1  0  0  0
 37 35  1  0  0  0  0
 39 40  1  6  0  0  0
 39 42  1  0  0  0  0
 39 37  1  0  0  0  0
 41 40  1  0  0  0  0
 42 46  1  0  0  0  0
 43 49  1  1  0  0  0
 44 43  1  0  0  0  0
 45 47  1  0  0  0  0
 46 45  2  0  0  0  0
 46 44  1  0  0  0  0
 47 43  1  0  0  0  0
 48 50  2  0  0  0  0
 49 50  1  0  0  0  0
 51 57  1  0  0  0  0
 52 53  1  0  0  0  0
 53 56  2  0  0  0  0
 54 55  1  0  0  0  0
 54 51  1  0  0  0  0
 55 50  1  6  0  0  0
 55 52  1  0  0  0  0
 57 53  1  0  0  0  0
 59 58  1  0  0  0  0
 59 35  1  0  0  0  0
M  END
>  <MODEL>
7

>  <REMARK>
 VINA RESULT:      -4.9      2.791      8.827
  Name = 
  25 active torsions:
  status: ('A' for Active; 'I' for Inactive)
    1  A    between atoms: C_1  and  N_12
    2  A    between atoms: C_3  and  C_50
    3  A    between atoms: N_6  and  C_23
    4  A    between atoms: N_6  and  C_42
    5  A    between atoms: C_8  and  C_29
    6  A    between atoms: C_8  and  C_43
    7  A    between atoms: C_10  and  C_40
    8  A    between atoms: C_14  and  C_32
    9  A    between atoms: C_14  and  C_41
   10  A    between atoms: C_15  and  C_43
   11  A    between atoms: C_16  and  C_55
   12  A    between atoms: C_23  and  C_50
   13  A    between atoms: C_25  and  C_36
   14  A    between atoms: C_28  and  C_37
   15  A    between atoms: C_32  and  C_39
   16  A    between atoms: O_34  and  C_47
   17  A    between atoms: O_34  and  C_50
   18  A    between atoms: C_36  and  C_51
   19  A    between atoms: O_38  and  C_41
   20  A    between atoms: C_39  and  C_59
   21  A    between atoms: C_40  and  C_55
   22  A    between atoms: C_41  and  C_48
   23  A    between atoms: C_42  and  C_59
   24  A    between atoms: C_43  and  C_48
   25  A    between atoms: C_51  and  C_55
                            x       y       z     vdW  Elec       q    Type
                         _______ _______ _______ _____ _____    ______ ____

>  <TORSDO>
F 25

$$$$
=
 OpenBabel11062422353D

 59 62  0  0  1  0  0  0  0  0999 V2000
  190.4490  174.3850  141.2120 C   0  0  0  0  0  2  0  0  0  0  0  0
  190.0130  175.4010  142.1600 N   0  0  0  0  0  0  0  0  0  0  0  0
  188.6920  175.3530  142.7300 C   0  0  0  0  0  0  0  0  0  0  0  0
  187.9650  174.3350  142.5570 O   0  0  0  0  0  0  0  0  0  0  0  0
  190.8840  176.5540  142.3530 C   0  0  0  0  0  2  0  0  0  0  0  0
  191.7150  176.3820  143.6190 C   0  0  2  0  0  3  0  0  0  0  0  0
  193.1770  176.3720  143.3080 C   0  0  0  0  0  0  0  0  0  0  0  0
  195.4390  176.2900  140.4310 F   0  0  0  0  0  0  0  0  0  0  0  0
  195.4730  176.3820  144.0900 C   0  0  0  0  0  3  0  0  0  0  0  0
  195.0020  176.3300  141.7130 C   0  0  0  0  0  0  0  0  0  0  0  0
  194.1020  176.3910  144.3600 C   0  0  0  0  0  3  0  0  0  0  0  0
  195.9230  176.3490  142.7670 C   0  0  0  0  0  3  0  0  0  0  0  0
  193.6310  176.3420  141.9820 C   0  0  0  0  0  3  0  0  0  0  0  0
  191.3460  175.1770  144.2830 O   0  0  0  0  0  0  0  0  0  0  0  0
  189.2260  174.2970  147.2480 C   0  0  0  0  0  3  0  0  0  0  0  0
  191.2980  176.1470  146.5850 C   0  0  2  0  0  3  0  0  0  0  0  0
  189.8440  174.9370  148.2460 C   0  0  0  0  0  3  0  0  0  0  0  0
  190.5840  177.3420  146.4670 O   0  0  0  0  0  1  0  0  0  0  0  0
  189.7940  174.3130  145.8880 C   0  0  0  0  0  3  0  0  0  0  0  0
  190.7940  175.1530  145.5680 C   0  0  0  0  0  0  0  0  0  0  0  0
  191.1760  175.6010  148.0150 C   0  0  0  0  0  2  0  0  0  0  0  0
  188.1340  176.5150  143.4910 C   0  0  0  0  0  2  0  0  0  0  0  0
  186.6420  176.3250  143.7600 C   0  0  1  0  0  3  0  0  0  0  0  0
  187.3360  177.0080  146.1130 C   0  0  0  0  0  1  0  0  0  0  0  0
  186.1830  176.8250  145.1370 C   0  0  0  0  0  2  0  0  0  0  0  0
  185.7740  176.8130  142.6000 C   0  0  0  0  0  2  0  0  0  0  0  0
  185.6900  179.2020  142.7580 O   0  0  0  0  0  1  0  0  0  0  0  0
  186.2290  178.1480  142.0190 C   0  0  2  0  0  3  0  0  0  0  0  0
  185.8080  178.2690  140.5610 C   0  0  0  0  0  2  0  0  0  0  0  0
  186.4510  177.3060  139.7770 O   0  0  0  0  0  1  0  0  0  0  0  0
  191.1630  173.2570  141.9390 C   0  0  0  0  0  2  0  0  0  0  0  0
  191.2840  172.0560  141.0200 C   0  0  0  0  0  2  0  0  0  0  0  0
  192.4890  172.2050  140.1070 C   0  0  0  0  0  2  0  0  0  0  0  0
  192.0700  172.2230  138.6370 C   0  0  0  0  0  2  0  0  0  0  0  0
  192.3790  173.5470  137.8940 C   0  0  1  0  0  0  0  0  0  0  0  0
  193.1790  174.4810  138.8090 C   0  0  0  0  0  1  0  0  0  0  0  0
  193.2450  173.2880  136.6400 C   0  0  2  0  0  3  0  0  0  0  0  0
  193.5650  171.9290  136.5260 O   0  0  0  0  0  1  0  0  0  0  0  0
  194.5120  174.1570  136.5290 C   0  0  2  0  0  3  0  0  0  0  0  0
  194.4640  175.0500  135.2960 C   0  0  0  0  0  2  0  0  0  0  0  0
  193.5930  176.2680  135.5470 C   0  0  0  0  0  1  0  0  0  0  0  0
  195.7910  173.3260  136.5180 C   0  0  0  0  0  2  0  0  0  0  0  0
  197.7370  173.3820  139.6750 C   0  0  1  0  0  3  0  0  0  0  0  0
  197.0020  172.7340  138.6540 O   0  0  0  0  0  0  0  0  0  0  0  0
  197.0750  174.8460  137.9360 N   0  0  0  0  0  0  0  0  0  0  0  0
  196.6390  173.6590  137.7000 C   0  0  0  0  0  0  0  0  0  0  0  0
  197.8690  174.8180  139.1560 C   0  0  0  0  0  2  0  0  0  0  0  0
  197.9360  171.4480  141.7850 O   0  0  0  0  0  0  0  0  0  0  0  0
  196.9540  173.3790  140.9030 N   0  0  0  0  0  2  0  0  0  0  0  0
  197.1240  172.3980  141.9340 C   0  0  0  0  0  0  0  0  0  0  0  0
  194.1020  172.8800  144.2020 C   0  0  0  0  0  2  0  0  0  0  0  0
  196.6340  171.3070  144.1040 C   0  0  0  0  0  2  0  0  0  0  0  0
  195.7030  171.2520  145.2780 C   0  0  0  0  0  0  0  0  0  0  0  0
  194.8560  172.6170  142.9030 C   0  0  0  0  0  2  0  0  0  0  0  0
  196.3480  172.5070  143.2040 C   0  0  2  0  0  3  0  0  0  0  0  0
  195.9580  170.4050  146.2610 C   0  0  0  0  0  2  0  0  0  0  0  0
  194.4000  171.8420  145.1830 N   0  0  0  0  0  2  0  0  0  0  0  0
  190.3730  173.2710  136.7500 C   0  0  0  0  0  1  0  0  0  0  0  0
  191.1760  174.1740  137.4720 O   0  0  0  0  0  0  0  0  0  0  0  0
  1 31  1  0  0  0  0
  1  2  1  0  0  0  0
  2  5  1  0  0  0  0
  2  3  1  0  0  0  0
  3 22  1  0  0  0  0
  4  3  2  0  0  0  0
  6  5  1  6  0  0  0
  6 14  1  0  0  0  0
  7  6  1  0  0  0  0
  7 11  1  0  0  0  0
  8 10  1  0  0  0  0
  9 11  2  0  0  0  0
 10 13  1  0  0  0  0
 10 12  2  0  0  0  0
 12  9  1  0  0  0  0
 13  7  2  0  0  0  0
 14 20  1  0  0  0  0
 15 17  2  0  0  0  0
 16 18  1  1  0  0  0
 16 21  1  0  0  0  0
 19 15  1  0  0  0  0
 20 19  2  0  0  0  0
 20 16  1  0  0  0  0
 21 17  1  0  0  0  0
 22 23  1  0  0  0  0
 23 26  1  6  0  0  0
 23 25  1  0  0  0  0
 25 24  1  0  0  0  0
 28 26  1  0  0  0  0
 28 27  1  1  0  0  0
 29 28  1  0  0  0  0
 30 29  1  0  0  0  0
 32 31  1  0  0  0  0
 33 32  1  0  0  0  0
 34 33  1  0  0  0  0
 35 34  1  0  0  0  0
 35 36  1  1  0  0  0
 37 38  1  1  0  0  0
 37 35  1  0  0  0  0
 39 40  1  6  0  0  0
 39 37  1  0  0  0  0
 40 41  1  0  0  0  0
 42 39  1  0  0  0  0
 42 46  1  0  0  0  0
 43 49  1  1  0  0  0
 44 43  1  0  0  0  0
 45 47  1  0  0  0  0
 46 45  2  0  0  0  0
 46 44  1  0  0  0  0
 47 43  1  0  0  0  0
 48 50  2  0  0  0  0
 49 50  1  0  0  0  0
 51 57  1  0  0  0  0
 52 53  1  0  0  0  0
 53 56  2  0  0  0  0
 54 55  1  0  0  0  0
 54 51  1  0  0  0  0
 55 50  1  6  0  0  0
 55 52  1  0  0  0  0
 57 53  1  0  0  0  0
 58 59  1  0  0  0  0
 59 35  1  0  0  0  0
M  END
>  <MODEL>
8

>  <REMARK>
 VINA RESULT:      -4.9      2.548      8.661
  Name = 
  25 active torsions:
  status: ('A' for Active; 'I' for Inactive)
    1  A    between atoms: C_1  and  N_12
    2  A    between atoms: C_3  and  C_50
    3  A    between atoms: N_6  and  C_23
    4  A    between atoms: N_6  and  C_42
    5  A    between atoms: C_8  and  C_29
    6  A    between atoms: C_8  and  C_43
    7  A    between atoms: C_10  and  C_40
    8  A    between atoms: C_14  and  C_32
    9  A    between atoms: C_14  and  C_41
   10  A    between atoms: C_15  and  C_43
   11  A    between atoms: C_16  and  C_55
   12  A    between atoms: C_23  and  C_50
   13  A    between atoms: C_25  and  C_36
   14  A    between atoms: C_28  and  C_37
   15  A    between atoms: C_32  and  C_39
   16  A    between atoms: O_34  and  C_47
   17  A    between atoms: O_34  and  C_50
   18  A    between atoms: C_36  and  C_51
   19  A    between atoms: O_38  and  C_41
   20  A    between atoms: C_39  and  C_59
   21  A    between atoms: C_40  and  C_55
   22  A    between atoms: C_41  and  C_48
   23  A    between atoms: C_42  and  C_59
   24  A    between atoms: C_43  and  C_48
   25  A    between atoms: C_51  and  C_55
                            x       y       z     vdW  Elec       q    Type
                         _______ _______ _______ _____ _____    ______ ____

>  <TORSDO>
F 25

$$$$
=
 OpenBabel11062422353D

 59 62  0  0  1  0  0  0  0  0999 V2000
  188.5820  173.5430  142.0720 C   0  0  0  0  0  2  0  0  0  0  0  0
  189.6550  174.3340  142.6590 N   0  0  0  0  0  0  0  0  0  0  0  0
  190.7800  173.6900  143.2870 C   0  0  0  0  0  0  0  0  0  0  0  0
  190.9400  172.4430  143.1740 O   0  0  0  0  0  0  0  0  0  0  0  0
  189.4500  175.7730  142.7570 C   0  0  0  0  0  2  0  0  0  0  0  0
  188.1840  176.0730  143.5530 C   0  0  2  0  0  3  0  0  0  0  0  0
  187.1660  176.7670  142.7090 C   0  0  0  0  0  0  0  0  0  0  0  0
  186.7010  177.9670  139.2810 F   0  0  0  0  0  0  0  0  0  0  0  0
  184.9810  177.8000  142.5080 C   0  0  0  0  0  3  0  0  0  0  0  0
  186.4530  177.6940  140.5850 C   0  0  0  0  0  0  0  0  0  0  0  0
  185.9460  177.1500  143.2810 C   0  0  0  0  0  3  0  0  0  0  0  0
  185.2350  178.0750  141.1600 C   0  0  0  0  0  3  0  0  0  0  0  0
  187.4170  177.0400  141.3560 C   0  0  0  0  0  3  0  0  0  0  0  0
  188.5030  176.8670  144.6920 O   0  0  0  0  0  0  0  0  0  0  0  0
  189.6500  174.5830  147.4350 C   0  0  0  0  0  3  0  0  0  0  0  0
  190.0700  177.2800  146.5930 C   0  0  2  0  0  3  0  0  0  0  0  0
  190.6810  175.2550  147.9580 C   0  0  0  0  0  3  0  0  0  0  0  0
  189.3260  177.9900  147.5380 O   0  0  0  0  0  1  0  0  0  0  0  0
  188.9470  175.1040  146.2480 C   0  0  0  0  0  3  0  0  0  0  0  0
  189.1600  176.3600  145.8170 C   0  0  0  0  0  0  0  0  0  0  0  0
  191.1970  176.5020  147.2890 C   0  0  0  0  0  2  0  0  0  0  0  0
  191.7510  174.4670  144.1200 C   0  0  0  0  0  2  0  0  0  0  0  0
  192.6460  175.3420  143.2420 C   0  0  1  0  0  3  0  0  0  0  0  0
  193.8390  176.4120  145.2210 C   0  0  0  0  0  1  0  0  0  0  0  0
  193.1010  176.6450  143.9110 C   0  0  0  0  0  2  0  0  0  0  0  0
  193.7780  174.5470  142.5910 C   0  0  0  0  0  2  0  0  0  0  0  0
  194.5530  175.7520  140.6710 O   0  0  0  0  0  1  0  0  0  0  0  0
  194.8720  175.4250  141.9900 C   0  0  2  0  0  3  0  0  0  0  0  0
  196.2160  174.7140  142.0380 C   0  0  0  0  0  2  0  0  0  0  0  0
  196.0660  173.3500  141.7710 O   0  0  0  0  0  1  0  0  0  0  0  0
  188.5660  173.7150  140.5620 C   0  0  0  0  0  2  0  0  0  0  0  0
  189.9850  173.6470  140.0270 C   0  0  0  0  0  2  0  0  0  0  0  0
  189.9750  173.4810  138.5170 C   0  0  0  0  0  2  0  0  0  0  0  0
  189.7940  172.0150  138.1240 C   0  0  0  0  0  2  0  0  0  0  0  0
  190.8580  171.4750  137.1360 C   0  0  1  0  0  0  0  0  0  0  0  0
  190.3310  171.5770  135.7010 C   0  0  0  0  0  1  0  0  0  0  0  0
  192.1540  172.3140  137.2060 C   0  0  2  0  0  3  0  0  0  0  0  0
  192.5910  172.6650  135.9220 O   0  0  0  0  0  1  0  0  0  0  0  0
  193.3010  171.6810  138.0170 C   0  0  2  0  0  3  0  0  0  0  0  0
  193.4530  172.3520  139.3760 C   0  0  0  0  0  2  0  0  0  0  0  0
  192.7590  171.5440  140.4560 C   0  0  0  0  0  1  0  0  0  0  0  0
  194.6300  171.7120  137.2710 C   0  0  0  0  0  2  0  0  0  0  0  0
  196.5800  169.5350  139.5550 C   0  0  1  0  0  3  0  0  0  0  0  0
  195.3790  169.9880  138.9570 O   0  0  0  0  0  0  0  0  0  0  0  0
  196.9320  171.1990  137.9080 N   0  0  0  0  0  0  0  0  0  0  0  0
  195.6730  170.9660  138.0330 C   0  0  0  0  0  0  0  0  0  0  0  0
  197.6640  170.2970  138.7860 C   0  0  0  0  0  2  0  0  0  0  0  0
  194.7940  168.5980  141.5960 O   0  0  0  0  0  0  0  0  0  0  0  0
  196.5990  169.9390  140.9540 N   0  0  0  0  0  2  0  0  0  0  0  0
  195.6970  169.4090  141.9320 C   0  0  0  0  0  0  0  0  0  0  0  0
  197.3840  170.6320  145.1200 C   0  0  0  0  0  2  0  0  0  0  0  0
  194.7460  170.8110  143.7410 C   0  0  0  0  0  2  0  0  0  0  0  0
  194.9840  171.4120  145.0930 C   0  0  0  0  0  0  0  0  0  0  0  0
  197.2200  170.3800  143.6250 C   0  0  0  0  0  2  0  0  0  0  0  0
  195.8310  169.8040  143.3650 C   0  0  2  0  0  3  0  0  0  0  0  0
  194.0260  172.1320  145.6540 C   0  0  0  0  0  2  0  0  0  0  0  0
  196.3180  171.4990  145.6110 N   0  0  0  0  0  2  0  0  0  0  0  0
  191.3650  169.3760  136.2720 C   0  0  0  0  0  1  0  0  0  0  0  0
  191.1910  170.1300  137.4490 O   0  0  0  0  0  0  0  0  0  0  0  0
  1  2  1  0  0  0  0
  2  5  1  0  0  0  0
  2  3  1  0  0  0  0
  3 22  1  0  0  0  0
  4  3  2  0  0  0  0
  6  5  1  6  0  0  0
  6 14  1  0  0  0  0
  7 11  1  0  0  0  0
  7  6  1  0  0  0  0
  8 10  1  0  0  0  0
  9 11  2  0  0  0  0
 10 12  2  0  0  0  0
 10 13  1  0  0  0  0
 12  9  1  0  0  0  0
 13  7  2  0  0  0  0
 14 20  1  0  0  0  0
 15 17  2  0  0  0  0
 16 21  1  0  0  0  0
 16 18  1  1  0  0  0
 19 15  1  0  0  0  0
 20 19  2  0  0  0  0
 20 16  1  0  0  0  0
 21 17  1  0  0  0  0
 23 26  1  1  0  0  0
 23 25  1  0  0  0  0
 23 22  1  0  0  0  0
 25 24  1  0  0  0  0
 28 27  1  6  0  0  0
 28 29  1  0  0  0  0
 28 26  1  0  0  0  0
 30 29  1  0  0  0  0
 31  1  1  0  0  0  0
 32 31  1  0  0  0  0
 33 32  1  0  0  0  0
 34 33  1  0  0  0  0
 35 36  1  6  0  0  0
 35 37  1  0  0  0  0
 35 59  1  0  0  0  0
 35 34  1  0  0  0  0
 37 38  1  6  0  0  0
 37 39  1  0  0  0  0
 39 42  1  6  0  0  0
 39 40  1  0  0  0  0
 40 41  1  0  0  0  0
 42 46  1  0  0  0  0
 43 49  1  1  0  0  0
 44 43  1  0  0  0  0
 45 46  2  0  0  0  0
 45 47  1  0  0  0  0
 46 44  1  0  0  0  0
 47 43  1  0  0  0  0
 48 50  2  0  0  0  0
 49 50  1  0  0  0  0
 51 57  1  0  0  0  0
 52 53  1  0  0  0  0
 53 57  1  0  0  0  0
 53 56  2  0  0  0  0
 54 51  1  0  0  0  0
 55 50  1  6  0  0  0
 55 54  1  0  0  0  0
 55 52  1  0  0  0  0
 58 59  1  0  0  0  0
M  END
>  <MODEL>
9

>  <REMARK>
 VINA RESULT:      -4.8      2.270      7.881
  Name = 
  25 active torsions:
  status: ('A' for Active; 'I' for Inactive)
    1  A    between atoms: C_1  and  N_12
    2  A    between atoms: C_3  and  C_50
    3  A    between atoms: N_6  and  C_23
    4  A    between atoms: N_6  and  C_42
    5  A    between atoms: C_8  and  C_29
    6  A    between atoms: C_8  and  C_43
    7  A    between atoms: C_10  and  C_40
    8  A    between atoms: C_14  and  C_32
    9  A    between atoms: C_14  and  C_41
   10  A    between atoms: C_15  and  C_43
   11  A    between atoms: C_16  and  C_55
   12  A    between atoms: C_23  and  C_50
   13  A    between atoms: C_25  and  C_36
   14  A    between atoms: C_28  and  C_37
   15  A    between atoms: C_32  and  C_39
   16  A    between atoms: O_34  and  C_47
   17  A    between atoms: O_34  and  C_50
   18  A    between atoms: C_36  and  C_51
   19  A    between atoms: O_38  and  C_41
   20  A    between atoms: C_39  and  C_59
   21  A    between atoms: C_40  and  C_55
   22  A    between atoms: C_41  and  C_48
   23  A    between atoms: C_42  and  C_59
   24  A    between atoms: C_43  and  C_48
   25  A    between atoms: C_51  and  C_55
                            x       y       z     vdW  Elec       q    Type
                         _______ _______ _______ _____ _____    ______ ____

>  <TORSDO>
F 25

$$$$
