=
 OpenBabel11062419533D

 30 35  0  0  1  0  0  0  0  0999 V2000
  189.2630  176.8160  143.5230 N   0  0  0  0  0  0  0  0  0  0  0  0
  194.0290  174.2600  143.1390 C   0  0  1  0  0  3  0  0  0  0  0  0
  192.5260  175.9380  143.8610 C   0  0  1  0  0  3  0  0  0  0  0  0
  190.4430  175.0400  142.3440 C   0  0  0  0  0  3  0  0  0  0  0  0
  194.8330  173.8670  141.9970 N   0  0  0  0  0  1  0  0  0  0  0  0
  193.8920  176.3870  144.3470 C   0  0  2  0  0  3  0  0  0  0  0  0
  194.8170  175.2290  144.0170 C   0  0  1  0  0  3  0  0  0  0  0  0
  195.1590  174.5850  145.2770 N   0  0  0  0  0  2  0  0  0  0  0  0
  194.9860  175.5490  146.2860 N   0  0  0  0  0  2  0  0  0  0  0  0
  188.7250  177.9000  145.5920 N   0  0  0  0  0  2  0  0  0  0  0  0
  190.4270  176.5210  142.7130 C   0  0  2  0  0  3  0  0  0  0  0  0
  189.6320  177.4450  144.5780 C   0  0  0  0  0  0  0  0  0  0  0  0
  191.0900  177.6450  144.6610 C   0  0  0  0  0  2  0  0  0  0  0  0
  191.6330  177.0280  143.4470 N   0  0  1  0  0  0  0  0  0  0  0  0
  191.5900  174.3380  142.3150 C   0  0  0  0  0  0  0  0  0  0  0  0
  192.8440  175.0730  142.6770 C   0  0  2  0  0  3  0  0  0  0  0  0
  193.9110  176.4290  145.8500 C   0  0  0  0  0  2  0  0  0  0  0  0
  186.0280  177.2750  147.6170 C   0  0  0  0  0  2  0  0  0  0  0  0
  184.3380  178.0790  145.9020 C   0  0  0  0  0  2  0  0  0  0  0  0
  186.4980  178.5440  144.6910 C   0  0  0  0  0  3  0  0  0  0  0  0
  187.3230  177.7560  145.5720 N   0  0  0  0  0  0  0  0  0  0  0  0
  185.1730  178.6950  144.8190 C   0  0  0  0  0  3  0  0  0  0  0  0
  186.7500  176.7000  146.3970 C   0  0  0  0  0  2  0  0  0  0  0  0
  184.9680  178.3260  147.2680 C   0  0  0  0  0  2  0  0  0  0  0  0
  191.6060  172.8810  141.9470 C   0  0  1  0  0  3  0  0  0  0  0  0
  190.4080  170.7200  142.0120 C   0  0  0  0  0  2  0  0  0  0  0  0
  191.6130  171.2880  140.1940 C   0  0  0  0  0  2  0  0  0  0  0  0
  190.4080  172.1490  142.5500 C   0  0  0  0  0  2  0  0  0  0  0  0
  191.6350  172.7190  140.4920 N   0  0  0  0  0  2  0  0  0  0  0  0
  190.3880  170.7340  140.6050 O   0  0  0  0  0  0  0  0  0  0  0  0
  1 12  2  0  0  0  0
  2  5  1  6  0  0  0
  2  7  1  0  0  0  0
  3  6  1  0  0  0  0
  4 11  1  0  0  0  0
  6 17  1  0  0  0  0
  7  6  1  0  0  0  0
  7  8  1  0  0  0  0
  8  9  1  0  0  0  0
 11 14  1  0  0  0  0
 11  1  1  0  0  0  0
 12 13  1  0  0  0  0
 12 10  1  0  0  0  0
 14  3  1  0  0  0  0
 14 13  1  0  0  0  0
 15  4  2  0  0  0  0
 15 16  1  0  0  0  0
 16  2  1  0  0  0  0
 16  3  1  0  0  0  0
 17  9  1  0  0  0  0
 19 24  1  0  0  0  0
 20 22  2  0  0  0  0
 20 21  1  0  0  0  0
 21 10  1  0  0  0  0
 21 23  1  0  0  0  0
 22 19  1  0  0  0  0
 23 18  1  0  0  0  0
 24 18  1  0  0  0  0
 25 15  1  0  0  0  0
 25 28  1  0  0  0  0
 26 28  1  0  0  0  0
 27 29  1  0  0  0  0
 27 30  1  0  0  0  0
 29 25  1  0  0  0  0
 30 26  1  0  0  0  0
M  END
>  <MODEL>
1

>  <REMARK>
 VINA RESULT:      -7.5      0.000      0.000
  Name = 
  2 active torsions:
  status: ('A' for Active; 'I' for Inactive)
    1  A    between atoms: C_2  and  C_27
    2  A    between atoms: N_14  and  N_21
                            x       y       z     vdW  Elec       q    Type
                         _______ _______ _______ _____ _____    ______ ____

>  <TORSDO>
F 2

$$$$
=
 OpenBabel11062419533D

 30 35  0  0  1  0  0  0  0  0999 V2000
  188.4780  175.4310  143.8110 N   0  0  0  0  0  0  0  0  0  0  0  0
  193.2140  173.4390  142.0810 C   0  0  1  0  0  3  0  0  0  0  0  0
  190.8880  173.8630  142.0040 C   0  0  1  0  0  3  0  0  0  0  0  0
  190.8000  175.0650  144.4530 C   0  0  0  0  0  3  0  0  0  0  0  0
  194.1930  172.5710  142.7100 N   0  0  0  0  0  1  0  0  0  0  0  0
  191.1600  172.9130  140.8530 C   0  0  2  0  0  3  0  0  0  0  0  0
  192.6710  172.7760  140.8170 C   0  0  1  0  0  3  0  0  0  0  0  0
  193.1370  173.5000  139.6430 N   0  0  0  0  0  2  0  0  0  0  0  0
  192.0560  173.5550  138.7450 N   0  0  0  0  0  2  0  0  0  0  0  0
  186.8940  176.1690  142.1710 N   0  0  0  0  0  2  0  0  0  0  0  0
  189.5050  174.4220  143.9640 C   0  0  2  0  0  3  0  0  0  0  0  0
  187.9540  175.3270  142.6460 C   0  0  0  0  0  0  0  0  0  0  0  0
  188.5590  174.2630  141.8250 C   0  0  0  0  0  2  0  0  0  0  0  0
  189.5940  173.6650  142.6730 N   0  0  1  0  0  0  0  0  0  0  0  0
  191.9980  174.6650  143.9920 C   0  0  0  0  0  0  0  0  0  0  0  0
  192.0000  173.5710  142.9680 C   0  0  2  0  0  3  0  0  0  0  0  0
  190.8420  173.5870  139.5480 C   0  0  0  0  0  2  0  0  0  0  0  0
  185.8200  176.9950  145.3220 C   0  0  0  0  0  2  0  0  0  0  0  0
  185.5710  179.4610  144.7750 C   0  0  0  0  0  2  0  0  0  0  0  0
  186.4900  178.5850  142.5990 C   0  0  0  0  0  3  0  0  0  0  0  0
  186.2620  177.1940  142.9020 N   0  0  0  0  0  0  0  0  0  0  0  0
  186.1860  179.6030  143.4150 C   0  0  0  0  0  3  0  0  0  0  0  0
  185.2820  176.7930  143.9050 C   0  0  0  0  0  2  0  0  0  0  0  0
  186.3220  178.4180  145.5950 C   0  0  0  0  0  2  0  0  0  0  0  0
  193.2730  175.2950  144.4770 C   0  0  1  0  0  3  0  0  0  0  0  0
  194.3470  177.2940  145.4560 C   0  0  0  0  0  2  0  0  0  0  0  0
  195.0230  175.2340  146.0730 C   0  0  0  0  0  2  0  0  0  0  0  0
  193.0580  176.7660  144.8320 C   0  0  0  0  0  2  0  0  0  0  0  0
  193.8070  174.5570  145.6240 N   0  0  0  0  0  2  0  0  0  0  0  0
  194.7020  176.5100  146.5690 O   0  0  0  0  0  0  0  0  0  0  0  0
  1 11  1  0  0  0  0
  2  5  1  1  0  0  0
  2 16  1  0  0  0  0
  3 14  1  0  0  0  0
  3 16  1  0  0  0  0
  6  3  1  0  0  0  0
  7  6  1  0  0  0  0
  7  2  1  0  0  0  0
  8  7  1  0  0  0  0
  9 17  1  0  0  0  0
  9  8  1  0  0  0  0
 10 12  1  0  0  0  0
 10 21  1  0  0  0  0
 11  4  1  0  0  0  0
 12  1  2  0  0  0  0
 13 12  1  0  0  0  0
 13 14  1  0  0  0  0
 14 11  1  0  0  0  0
 15  4  2  0  0  0  0
 15 25  1  0  0  0  0
 16 15  1  0  0  0  0
 17  6  1  0  0  0  0
 18 24  1  0  0  0  0
 19 24  1  0  0  0  0
 20 21  1  0  0  0  0
 20 22  2  0  0  0  0
 21 23  1  0  0  0  0
 22 19  1  0  0  0  0
 23 18  1  0  0  0  0
 25 28  1  0  0  0  0
 25 29  1  0  0  0  0
 26 30  1  0  0  0  0
 27 30  1  0  0  0  0
 28 26  1  0  0  0  0
 29 27  1  0  0  0  0
M  END
>  <MODEL>
2

>  <REMARK>
 VINA RESULT:      -7.1      2.547      4.711
  Name = 
  2 active torsions:
  status: ('A' for Active; 'I' for Inactive)
    1  A    between atoms: C_2  and  C_27
    2  A    between atoms: N_14  and  N_21
                            x       y       z     vdW  Elec       q    Type
                         _______ _______ _______ _____ _____    ______ ____

>  <TORSDO>
F 2

$$$$
=
 OpenBabel11062419533D

 30 35  0  0  1  0  0  0  0  0999 V2000
  189.0520  172.8310  141.0140 N   0  0  0  0  0  0  0  0  0  0  0  0
  189.1750  176.9230  144.5680 C   0  0  1  0  0  3  0  0  0  0  0  0
  189.9900  175.0060  143.4470 C   0  0  1  0  0  3  0  0  0  0  0  0
  187.7030  174.5950  142.0160 C   0  0  0  0  0  3  0  0  0  0  0  0
  188.2630  177.3230  145.6240 N   0  0  0  0  0  1  0  0  0  0  0  0
  190.9900  175.2770  144.5560 C   0  0  2  0  0  3  0  0  0  0  0  0
  190.5430  176.5950  145.1630 C   0  0  1  0  0  3  0  0  0  0  0  0
  191.5110  177.6020  144.7560 N   0  0  0  0  0  2  0  0  0  0  0  0
  192.7070  176.9210  144.4640 N   0  0  0  0  0  2  0  0  0  0  0  0
  191.1160  172.1490  140.0030 N   0  0  0  0  0  2  0  0  0  0  0  0
  188.5760  173.3690  142.2710 C   0  0  2  0  0  3  0  0  0  0  0  0
  190.3240  172.6760  141.0770 C   0  0  0  0  0  0  0  0  0  0  0  0
  190.9040  173.1090  142.3610 C   0  0  0  0  0  2  0  0  0  0  0  0
  189.7670  173.5830  143.1550 N   0  0  1  0  0  0  0  0  0  0  0  0
  187.7570  175.6720  142.8200 C   0  0  0  0  0  0  0  0  0  0  0  0
  188.7210  175.6160  143.9650 C   0  0  2  0  0  3  0  0  0  0  0  0
  192.3330  175.6060  143.9640 C   0  0  0  0  0  2  0  0  0  0  0  0
  191.6640  172.3960  136.6250 C   0  0  0  0  0  2  0  0  0  0  0  0
  190.2190  170.3840  136.0720 C   0  0  0  0  0  2  0  0  0  0  0  0
  190.0930  170.3780  138.5880 C   0  0  0  0  0  3  0  0  0  0  0  0
  190.6290  171.7050  138.7570 N   0  0  0  0  0  0  0  0  0  0  0  0
  189.9000  169.7780  137.4060 C   0  0  0  0  0  3  0  0  0  0  0  0
  190.5850  172.6790  137.6720 C   0  0  0  0  0  2  0  0  0  0  0  0
  191.6280  170.9670  136.0720 C   0  0  0  0  0  2  0  0  0  0  0  0
  186.8950  176.8780  142.5710 C   0  0  1  0  0  3  0  0  0  0  0  0
  185.6720  178.2350  140.9070 C   0  0  0  0  0  2  0  0  0  0  0  0
  184.8080  177.9290  142.9660 C   0  0  0  0  0  2  0  0  0  0  0  0
  186.6730  177.0950  141.0750 C   0  0  0  0  0  2  0  0  0  0  0  0
  185.6160  176.7480  143.2720 N   0  0  0  0  0  2  0  0  0  0  0  0
  184.4830  177.9410  141.5990 O   0  0  0  0  0  0  0  0  0  0  0  0
  1 12  2  0  0  0  0
  1 11  1  0  0  0  0
  2  7  1  0  0  0  0
  2  5  1  1  0  0  0
  3 16  1  0  0  0  0
  3  6  1  0  0  0  0
  4 11  1  0  0  0  0
  4 15  2  0  0  0  0
  6  7  1  0  0  0  0
  8  7  1  0  0  0  0
  9  8  1  0  0  0  0
 10 12  1  0  0  0  0
 11 14  1  0  0  0  0
 12 13  1  0  0  0  0
 13 14  1  0  0  0  0
 14  3  1  0  0  0  0
 15 16  1  0  0  0  0
 16  2  1  0  0  0  0
 17  9  1  0  0  0  0
 17  6  1  0  0  0  0
 18 23  1  0  0  0  0
 19 22  1  0  0  0  0
 20 21  1  0  0  0  0
 21 10  1  0  0  0  0
 22 20  2  0  0  0  0
 23 21  1  0  0  0  0
 24 19  1  0  0  0  0
 24 18  1  0  0  0  0
 25 15  1  0  0  0  0
 25 29  1  0  0  0  0
 26 28  1  0  0  0  0
 26 30  1  0  0  0  0
 27 29  1  0  0  0  0
 28 25  1  0  0  0  0
 30 27  1  0  0  0  0
M  END
>  <MODEL>
3

>  <REMARK>
 VINA RESULT:      -7.1      3.064      7.908
  Name = 
  2 active torsions:
  status: ('A' for Active; 'I' for Inactive)
    1  A    between atoms: C_2  and  C_27
    2  A    between atoms: N_14  and  N_21
                            x       y       z     vdW  Elec       q    Type
                         _______ _______ _______ _____ _____    ______ ____

>  <TORSDO>
F 2

$$$$
=
 OpenBabel11062419533D

 30 35  0  0  1  0  0  0  0  0999 V2000
  190.6920  172.1240  143.1210 N   0  0  0  0  0  0  0  0  0  0  0  0
  192.0050  176.1830  146.4670 C   0  0  1  0  0  3  0  0  0  0  0  0
  192.4090  174.3710  145.0010 C   0  0  1  0  0  3  0  0  0  0  0  0
  189.7730  173.7300  144.7070 C   0  0  0  0  0  3  0  0  0  0  0  0
  191.6250  176.4780  147.8360 N   0  0  0  0  0  1  0  0  0  0  0  0
  193.7680  174.7390  145.5680 C   0  0  2  0  0  3  0  0  0  0  0  0
  193.5190  175.9980  146.3780 C   0  0  1  0  0  3  0  0  0  0  0  0
  194.1080  177.1050  145.6390 N   0  0  0  0  0  2  0  0  0  0  0  0
  195.1060  176.5560  144.8140 N   0  0  0  0  0  2  0  0  0  0  0  0
  192.1430  171.6710  141.2680 N   0  0  0  0  0  2  0  0  0  0  0  0
  190.7760  172.6010  144.4860 C   0  0  2  0  0  3  0  0  0  0  0  0
  191.8670  172.1040  142.6080 C   0  0  0  0  0  0  0  0  0  0  0  0
  192.9150  172.5880  143.5250 C   0  0  0  0  0  2  0  0  0  0  0  0
  192.2120  172.9340  144.7640 N   0  0  1  0  0  0  0  0  0  0  0  0
  190.0790  174.8010  145.4610 C   0  0  0  0  0  0  0  0  0  0  0  0
  191.4520  174.8400  146.0580 C   0  0  2  0  0  3  0  0  0  0  0  0
  194.6710  175.2120  144.4620 C   0  0  0  0  0  2  0  0  0  0  0  0
  190.7810  172.3080  138.1850 C   0  0  0  0  0  2  0  0  0  0  0  0
  189.7650  169.9930  137.9670 C   0  0  0  0  0  2  0  0  0  0  0  0
  190.9720  169.7740  140.1670 C   0  0  0  0  0  3  0  0  0  0  0  0
  191.1970  171.1870  140.3440 N   0  0  0  0  0  0  0  0  0  0  0  0
  190.3360  169.2270  139.1230 C   0  0  0  0  0  3  0  0  0  0  0  0
  190.3730  172.1720  139.6530 C   0  0  0  0  0  2  0  0  0  0  0  0
  190.7910  170.9800  137.4210 C   0  0  0  0  0  2  0  0  0  0  0  0
  189.0900  175.9100  145.6820 C   0  0  1  0  0  3  0  0  0  0  0  0
  187.1930  177.2010  144.7630 C   0  0  0  0  0  2  0  0  0  0  0  0
  187.2520  176.6910  146.9580 C   0  0  0  0  0  2  0  0  0  0  0  0
  188.2710  176.1760  144.4190 C   0  0  0  0  0  2  0  0  0  0  0  0
  188.2130  175.5980  146.8130 N   0  0  0  0  0  2  0  0  0  0  0  0
  186.4080  176.7350  145.8340 O   0  0  0  0  0  0  0  0  0  0  0  0
  1 11  1  0  0  0  0
  2  5  1  1  0  0  0
  3  6  1  0  0  0  0
  3 16  1  0  0  0  0
  4 15  2  0  0  0  0
  6  7  1  0  0  0  0
  7  2  1  0  0  0  0
  8  7  1  0  0  0  0
  9  8  1  0  0  0  0
 10 12  1  0  0  0  0
 11  4  1  0  0  0  0
 11 14  1  0  0  0  0
 12  1  2  0  0  0  0
 12 13  1  0  0  0  0
 13 14  1  0  0  0  0
 14  3  1  0  0  0  0
 15 25  1  0  0  0  0
 15 16  1  0  0  0  0
 16  2  1  0  0  0  0
 17  9  1  0  0  0  0
 17  6  1  0  0  0  0
 18 23  1  0  0  0  0
 19 22  1  0  0  0  0
 20 21  1  0  0  0  0
 21 10  1  0  0  0  0
 22 20  2  0  0  0  0
 23 21  1  0  0  0  0
 24 19  1  0  0  0  0
 24 18  1  0  0  0  0
 25 29  1  0  0  0  0
 26 30  1  0  0  0  0
 28 26  1  0  0  0  0
 28 25  1  0  0  0  0
 29 27  1  0  0  0  0
 30 27  1  0  0  0  0
M  END
>  <MODEL>
4

>  <REMARK>
 VINA RESULT:      -7.0      2.741      7.278
  Name = 
  2 active torsions:
  status: ('A' for Active; 'I' for Inactive)
    1  A    between atoms: C_2  and  C_27
    2  A    between atoms: N_14  and  N_21
                            x       y       z     vdW  Elec       q    Type
                         _______ _______ _______ _____ _____    ______ ____

>  <TORSDO>
F 2

$$$$
=
 OpenBabel11062419533D

 30 35  0  0  1  0  0  0  0  0999 V2000
  188.5160  175.2000  143.5430 N   0  0  0  0  0  0  0  0  0  0  0  0
  191.5000  173.3540  139.4090 C   0  0  1  0  0  3  0  0  0  0  0  0
  189.5100  173.8960  140.5690 C   0  0  1  0  0  3  0  0  0  0  0  0
  190.7830  174.6070  142.8760 C   0  0  0  0  0  3  0  0  0  0  0  0
  192.5310  172.3360  139.3310 N   0  0  0  0  0  1  0  0  0  0  0  0
  189.0580  173.1730  139.3130 C   0  0  2  0  0  3  0  0  0  0  0  0
  190.3280  172.9740  138.5060 C   0  0  1  0  0  3  0  0  0  0  0  0
  190.2620  173.8870  137.3750 N   0  0  0  0  0  2  0  0  0  0  0  0
  188.9000  174.1660  137.1580 N   0  0  0  0  0  2  0  0  0  0  0  0
  186.4550  176.3140  143.0410 N   0  0  0  0  0  2  0  0  0  0  0  0
  189.3390  174.1320  143.0140 C   0  0  2  0  0  3  0  0  0  0  0  0
  187.4850  175.3470  142.7950 C   0  0  0  0  0  0  0  0  0  0  0  0
  187.4650  174.4330  141.6380 C   0  0  0  0  0  2  0  0  0  0  0  0
  188.6880  173.6340  141.7580 N   0  0  1  0  0  0  0  0  0  0  0  0
  191.5410  174.2460  141.8250 C   0  0  0  0  0  0  0  0  0  0  0  0
  190.8980  173.3710  140.7930 C   0  0  2  0  0  3  0  0  0  0  0  0
  188.2440  174.1010  138.4550 C   0  0  0  0  0  2  0  0  0  0  0  0
  185.5660  179.5180  143.8870 C   0  0  0  0  0  2  0  0  0  0  0  0
  185.5660  179.0410  146.3800 C   0  0  0  0  0  2  0  0  0  0  0  0
  186.0920  176.7550  145.4610 C   0  0  0  0  0  3  0  0  0  0  0  0
  186.4020  177.2080  144.1280 N   0  0  0  0  0  0  0  0  0  0  0  0
  185.7240  177.5530  146.4720 C   0  0  0  0  0  3  0  0  0  0  0  0
  186.7840  178.5930  143.8740 C   0  0  0  0  0  2  0  0  0  0  0  0
  184.7250  179.4150  145.1640 C   0  0  0  0  0  2  0  0  0  0  0  0
  192.9650  174.7100  141.6910 C   0  0  1  0  0  3  0  0  0  0  0  0
  194.6610  176.3840  142.3420 C   0  0  0  0  0  2  0  0  0  0  0  0
  195.2470  174.2210  142.0980 C   0  0  0  0  0  2  0  0  0  0  0  0
  193.1720  176.0540  142.3880 C   0  0  0  0  0  2  0  0  0  0  0  0
  193.8850  173.7020  142.2220 N   0  0  0  0  0  2  0  0  0  0  0  0
  195.4060  175.3440  142.9290 O   0  0  0  0  0  0  0  0  0  0  0  0
  2  5  1  1  0  0  0
  2 16  1  0  0  0  0
  3 16  1  0  0  0  0
  3 14  1  0  0  0  0
  4 11  1  0  0  0  0
  6  3  1  0  0  0  0
  7  6  1  0  0  0  0
  7  2  1  0  0  0  0
  8  7  1  0  0  0  0
  9  8  1  0  0  0  0
  9 17  1  0  0  0  0
 10 21  1  0  0  0  0
 11  1  1  0  0  0  0
 12 10  1  0  0  0  0
 12  1  2  0  0  0  0
 13 14  1  0  0  0  0
 13 12  1  0  0  0  0
 14 11  1  0  0  0  0
 15  4  2  0  0  0  0
 16 15  1  0  0  0  0
 17  6  1  0  0  0  0
 18 24  1  0  0  0  0
 19 22  1  0  0  0  0
 20 22  2  0  0  0  0
 21 20  1  0  0  0  0
 23 18  1  0  0  0  0
 23 21  1  0  0  0  0
 24 19  1  0  0  0  0
 25 15  1  0  0  0  0
 25 29  1  0  0  0  0
 25 28  1  0  0  0  0
 26 28  1  0  0  0  0
 26 30  1  0  0  0  0
 27 29  1  0  0  0  0
 27 30  1  0  0  0  0
M  END
>  <MODEL>
5

>  <REMARK>
 VINA RESULT:      -7.0      2.613      5.141
  Name = 
  2 active torsions:
  status: ('A' for Active; 'I' for Inactive)
    1  A    between atoms: C_2  and  C_27
    2  A    between atoms: N_14  and  N_21
                            x       y       z     vdW  Elec       q    Type
                         _______ _______ _______ _____ _____    ______ ____

>  <TORSDO>
F 2

$$$$
=
 OpenBabel11062419533D

 30 35  0  0  1  0  0  0  0  0999 V2000
  188.6600  175.1860  144.0420 N   0  0  0  0  0  0  0  0  0  0  0  0
  192.4460  173.1700  140.7260 C   0  0  1  0  0  3  0  0  0  0  0  0
  190.2560  173.7340  141.4190 C   0  0  1  0  0  3  0  0  0  0  0  0
  191.0220  174.6060  143.8890 C   0  0  0  0  0  3  0  0  0  0  0  0
  193.4820  172.1730  140.9220 N   0  0  0  0  0  1  0  0  0  0  0  0
  190.0780  172.9290  140.1450 C   0  0  2  0  0  3  0  0  0  0  0  0
  191.4880  172.7110  139.6280 C   0  0  1  0  0  3  0  0  0  0  0  0
  191.6470  173.5560  138.4530 N   0  0  0  0  0  2  0  0  0  0  0  0
  190.3550  173.7910  137.9460 N   0  0  0  0  0  2  0  0  0  0  0  0
  186.7340  176.2220  143.0620 N   0  0  0  0  0  2  0  0  0  0  0  0
  189.5850  174.1080  143.7590 C   0  0  2  0  0  3  0  0  0  0  0  0
  187.8030  175.2660  143.0920 C   0  0  0  0  0  0  0  0  0  0  0  0
  188.0300  174.2860  142.0140 C   0  0  0  0  0  2  0  0  0  0  0  0
  189.2100  173.5230  142.4300 N   0  0  1  0  0  0  0  0  0  0  0  0
  191.9830  174.2020  143.0390 C   0  0  0  0  0  0  0  0  0  0  0  0
  191.5730  173.2540  141.9540 C   0  0  2  0  0  3  0  0  0  0  0  0
  189.4480  173.7860  139.0830 C   0  0  0  0  0  2  0  0  0  0  0  0
  185.5660  179.4160  143.5160 C   0  0  0  0  0  2  0  0  0  0  0  0
  185.1500  179.0930  145.9980 C   0  0  0  0  0  2  0  0  0  0  0  0
  185.9320  176.7880  145.3470 C   0  0  0  0  0  3  0  0  0  0  0  0
  186.4510  177.1770  144.0590 N   0  0  0  0  0  0  0  0  0  0  0  0
  185.3560  177.6240  146.2210 C   0  0  0  0  0  3  0  0  0  0  0  0
  186.8080  178.5620  143.7780 C   0  0  0  0  0  2  0  0  0  0  0  0
  184.5190  179.3430  144.6330 C   0  0  0  0  0  2  0  0  0  0  0  0
  193.3990  174.6890  143.1700 C   0  0  1  0  0  3  0  0  0  0  0  0
  194.9130  176.4160  144.0820 C   0  0  0  0  0  2  0  0  0  0  0  0
  195.5630  174.2580  144.0320 C   0  0  0  0  0  2  0  0  0  0  0  0
  193.4470  176.0580  143.8480 C   0  0  0  0  0  2  0  0  0  0  0  0
  194.2100  173.7170  143.9050 N   0  0  0  0  0  2  0  0  0  0  0  0
  195.5410  175.4090  144.8390 O   0  0  0  0  0  0  0  0  0  0  0  0
  2  5  1  1  0  0  0
  2 16  1  0  0  0  0
  3 16  1  0  0  0  0
  3 14  1  0  0  0  0
  6  3  1  0  0  0  0
  7  6  1  0  0  0  0
  7  2  1  0  0  0  0
  8  7  1  0  0  0  0
  9  8  1  0  0  0  0
  9 17  1  0  0  0  0
 10 12  1  0  0  0  0
 10 21  1  0  0  0  0
 11  4  1  0  0  0  0
 11  1  1  0  0  0  0
 12  1  2  0  0  0  0
 13 14  1  0  0  0  0
 13 12  1  0  0  0  0
 14 11  1  0  0  0  0
 15 25  1  0  0  0  0
 15  4  2  0  0  0  0
 16 15  1  0  0  0  0
 17  6  1  0  0  0  0
 18 23  1  0  0  0  0
 18 24  1  0  0  0  0
 19 22  1  0  0  0  0
 20 22  2  0  0  0  0
 21 20  1  0  0  0  0
 23 21  1  0  0  0  0
 24 19  1  0  0  0  0
 25 28  1  0  0  0  0
 25 29  1  0  0  0  0
 26 30  1  0  0  0  0
 27 30  1  0  0  0  0
 28 26  1  0  0  0  0
 29 27  1  0  0  0  0
M  END
>  <MODEL>
6

>  <REMARK>
 VINA RESULT:      -7.0      2.399      4.821
  Name = 
  2 active torsions:
  status: ('A' for Active; 'I' for Inactive)
    1  A    between atoms: C_2  and  C_27
    2  A    between atoms: N_14  and  N_21
                            x       y       z     vdW  Elec       q    Type
                         _______ _______ _______ _____ _____    ______ ____

>  <TORSDO>
F 2

$$$$
=
 OpenBabel11062419533D

 30 35  0  0  1  0  0  0  0  0999 V2000
  188.9240  175.0980  143.9860 N   0  0  0  0  0  0  0  0  0  0  0  0
  193.6640  172.4800  144.2560 C   0  0  1  0  0  3  0  0  0  0  0  0
  191.4250  172.8380  143.5780 C   0  0  1  0  0  3  0  0  0  0  0  0
  191.0780  175.0600  145.1240 C   0  0  0  0  0  3  0  0  0  0  0  0
  194.4520  172.0070  145.3790 N   0  0  0  0  0  1  0  0  0  0  0  0
  191.7810  171.4520  143.0720 C   0  0  2  0  0  3  0  0  0  0  0  0
  193.2610  171.3000  143.3730 C   0  0  1  0  0  3  0  0  0  0  0  0
  193.9640  171.3750  142.1010 N   0  0  0  0  0  2  0  0  0  0  0  0
  193.0410  171.0070  141.1050 N   0  0  0  0  0  2  0  0  0  0  0  0
  187.6820  174.9820  141.9390 N   0  0  0  0  0  2  0  0  0  0  0  0
  189.8180  174.2730  144.7710 C   0  0  2  0  0  3  0  0  0  0  0  0
  188.5760  174.4570  142.9310 C   0  0  0  0  0  0  0  0  0  0  0  0
  189.1980  173.1250  142.8240 C   0  0  0  0  0  2  0  0  0  0  0  0
  190.0330  172.9920  144.0210 N   0  0  1  0  0  0  0  0  0  0  0  0
  192.2900  174.4770  145.1240 C   0  0  0  0  0  0  0  0  0  0  0  0
  192.3470  173.0290  144.7470 C   0  0  2  0  0  3  0  0  0  0  0  0
  191.7270  171.4280  141.5700 C   0  0  0  0  0  2  0  0  0  0  0  0
  186.5990  177.5510  139.9420 C   0  0  0  0  0  2  0  0  0  0  0  0
  185.1290  178.5620  141.7480 C   0  0  0  0  0  2  0  0  0  0  0  0
  185.9980  176.5160  142.9340 C   0  0  0  0  0  3  0  0  0  0  0  0
  187.0440  176.2370  141.9830 N   0  0  0  0  0  0  0  0  0  0  0  0
  185.1430  177.5440  142.8490 C   0  0  0  0  0  3  0  0  0  0  0  0
  187.5580  177.2790  141.1020 C   0  0  0  0  0  2  0  0  0  0  0  0
  185.1680  177.8760  140.3860 C   0  0  0  0  0  2  0  0  0  0  0  0
  193.5300  175.2510  145.4760 C   0  0  1  0  0  3  0  0  0  0  0  0
  195.3240  176.7520  144.6800 C   0  0  0  0  0  2  0  0  0  0  0  0
  194.4540  177.0290  146.7410 C   0  0  0  0  0  2  0  0  0  0  0  0
  194.1690  175.8620  144.2300 C   0  0  0  0  0  2  0  0  0  0  0  0
  193.2240  176.2880  146.4640 N   0  0  0  0  0  2  0  0  0  0  0  0
  194.8620  177.7220  145.5880 O   0  0  0  0  0  0  0  0  0  0  0  0
  1 11  1  0  0  0  0
  2 16  1  0  0  0  0
  2  5  1  1  0  0  0
  3 14  1  0  0  0  0
  3 16  1  0  0  0  0
  6  7  1  0  0  0  0
  6  3  1  0  0  0  0
  7  2  1  0  0  0  0
  8  7  1  0  0  0  0
  9 17  1  0  0  0  0
  9  8  1  0  0  0  0
 10 21  1  0  0  0  0
 10 12  1  0  0  0  0
 11  4  1  0  0  0  0
 12  1  2  0  0  0  0
 13 12  1  0  0  0  0
 13 14  1  0  0  0  0
 14 11  1  0  0  0  0
 15  4  2  0  0  0  0
 15 25  1  0  0  0  0
 16 15  1  0  0  0  0
 17  6  1  0  0  0  0
 18 24  1  0  0  0  0
 18 23  1  0  0  0  0
 19 22  1  0  0  0  0
 21 20  1  0  0  0  0
 22 20  2  0  0  0  0
 23 21  1  0  0  0  0
 24 19  1  0  0  0  0
 25 29  1  0  0  0  0
 26 30  1  0  0  0  0
 28 26  1  0  0  0  0
 28 25  1  0  0  0  0
 29 27  1  0  0  0  0
 30 27  1  0  0  0  0
M  END
>  <MODEL>
7

>  <REMARK>
 VINA RESULT:      -6.9      3.082      5.328
  Name = 
  2 active torsions:
  status: ('A' for Active; 'I' for Inactive)
    1  A    between atoms: C_2  and  C_27
    2  A    between atoms: N_14  and  N_21
                            x       y       z     vdW  Elec       q    Type
                         _______ _______ _______ _____ _____    ______ ____

>  <TORSDO>
F 2

$$$$
=
 OpenBabel11062419533D

 30 35  0  0  1  0  0  0  0  0999 V2000
  188.4050  175.7650  143.8180 N   0  0  0  0  0  0  0  0  0  0  0  0
  192.9170  173.0780  142.4720 C   0  0  1  0  0  3  0  0  0  0  0  0
  190.6480  173.7220  142.2930 C   0  0  1  0  0  3  0  0  0  0  0  0
  190.6740  175.2600  144.5480 C   0  0  0  0  0  3  0  0  0  0  0  0
  193.7990  172.2130  143.2340 N   0  0  0  0  0  1  0  0  0  0  0  0
  190.8260  172.5960  141.2910 C   0  0  2  0  0  3  0  0  0  0  0  0
  192.3150  172.3020  141.3030 C   0  0  1  0  0  3  0  0  0  0  0  0
  192.8580  172.8020  140.0490 N   0  0  0  0  0  2  0  0  0  0  0  0
  191.7910  172.8400  139.1320 N   0  0  0  0  0  2  0  0  0  0  0  0
  186.9130  176.4220  142.0610 N   0  0  0  0  0  2  0  0  0  0  0  0
  189.3210  174.6880  144.1290 C   0  0  2  0  0  3  0  0  0  0  0  0
  187.8780  175.5510  142.6680 C   0  0  0  0  0  0  0  0  0  0  0  0
  188.3740  174.3260  142.0160 C   0  0  0  0  0  2  0  0  0  0  0  0
  189.3380  173.7520  142.9580 N   0  0  1  0  0  0  0  0  0  0  0  0
  191.8270  174.6780  144.1700 C   0  0  0  0  0  0  0  0  0  0  0  0
  191.7200  173.4570  143.3090 C   0  0  2  0  0  3  0  0  0  0  0  0
  190.5840  173.1080  139.8990 C   0  0  0  0  0  2  0  0  0  0  0  0
  184.0240  178.2500  142.3400 C   0  0  0  0  0  2  0  0  0  0  0  0
  184.8930  179.6460  144.2730 C   0  0  0  0  0  2  0  0  0  0  0  0
  186.8310  178.0770  143.9150 C   0  0  0  0  0  3  0  0  0  0  0  0
  186.3870  177.5980  142.6290 N   0  0  0  0  0  0  0  0  0  0  0  0
  186.1840  178.9870  144.6550 C   0  0  0  0  0  3  0  0  0  0  0  0
  185.4560  178.3740  141.8180 C   0  0  0  0  0  2  0  0  0  0  0  0
  183.8740  178.6050  143.8230 C   0  0  0  0  0  2  0  0  0  0  0  0
  193.1580  175.2380  144.5860 C   0  0  1  0  0  3  0  0  0  0  0  0
  194.4110  177.2160  145.3740 C   0  0  0  0  0  2  0  0  0  0  0  0
  194.9230  175.1680  146.1650 C   0  0  0  0  0  2  0  0  0  0  0  0
  193.0720  176.7470  144.8110 C   0  0  0  0  0  2  0  0  0  0  0  0
  193.6470  174.5600  145.7880 N   0  0  0  0  0  2  0  0  0  0  0  0
  194.7180  176.5050  146.5490 O   0  0  0  0  0  0  0  0  0  0  0  0
  1 11  1  0  0  0  0
  2  5  1  1  0  0  0
  2 16  1  0  0  0  0
  3 14  1  0  0  0  0
  3 16  1  0  0  0  0
  6  7  1  0  0  0  0
  6  3  1  0  0  0  0
  7  2  1  0  0  0  0
  8  7  1  0  0  0  0
  9 17  1  0  0  0  0
  9  8  1  0  0  0  0
 10 21  1  0  0  0  0
 10 12  1  0  0  0  0
 11  4  1  0  0  0  0
 12  1  2  0  0  0  0
 13 12  1  0  0  0  0
 13 14  1  0  0  0  0
 14 11  1  0  0  0  0
 15  4  2  0  0  0  0
 15 25  1  0  0  0  0
 16 15  1  0  0  0  0
 17  6  1  0  0  0  0
 18 24  1  0  0  0  0
 19 22  1  0  0  0  0
 20 22  2  0  0  0  0
 21 20  1  0  0  0  0
 23 18  1  0  0  0  0
 23 21  1  0  0  0  0
 24 19  1  0  0  0  0
 25 28  1  0  0  0  0
 25 29  1  0  0  0  0
 26 30  1  0  0  0  0
 27 30  1  0  0  0  0
 28 26  1  0  0  0  0
 29 27  1  0  0  0  0
M  END
>  <MODEL>
8

>  <REMARK>
 VINA RESULT:      -6.8      2.625      4.895
  Name = 
  2 active torsions:
  status: ('A' for Active; 'I' for Inactive)
    1  A    between atoms: C_2  and  C_27
    2  A    between atoms: N_14  and  N_21
                            x       y       z     vdW  Elec       q    Type
                         _______ _______ _______ _____ _____    ______ ____

>  <TORSDO>
F 2

$$$$
=
 OpenBabel11062419533D

 30 35  0  0  1  0  0  0  0  0999 V2000
  189.6780  172.4940  140.9920 N   0  0  0  0  0  0  0  0  0  0  0  0
  189.2610  176.3600  144.7700 C   0  0  1  0  0  3  0  0  0  0  0  0
  190.2180  174.4860  143.6890 C   0  0  1  0  0  3  0  0  0  0  0  0
  188.2140  174.2420  141.8520 C   0  0  0  0  0  3  0  0  0  0  0  0
  188.1850  176.7290  145.6710 N   0  0  0  0  0  1  0  0  0  0  0  0
  191.0090  174.6560  144.9720 C   0  0  2  0  0  3  0  0  0  0  0  0
  190.4920  175.9500  145.5750 C   0  0  1  0  0  3  0  0  0  0  0  0
  191.5410  176.9450  145.4110 N   0  0  0  0  0  2  0  0  0  0  0  0
  192.7530  176.2410  145.2920 N   0  0  0  0  0  2  0  0  0  0  0  0
  191.8720  171.8020  140.3200 N   0  0  0  0  0  2  0  0  0  0  0  0
  188.9970  172.9730  142.1770 C   0  0  2  0  0  3  0  0  0  0  0  0
  190.9140  172.2910  141.2690 C   0  0  0  0  0  0  0  0  0  0  0  0
  191.2650  172.6260  142.6600 C   0  0  0  0  0  2  0  0  0  0  0  0
  190.0160  173.0920  143.2710 N   0  0  1  0  0  0  0  0  0  0  0  0
  188.1490  175.2660  142.7210 C   0  0  0  0  0  0  0  0  0  0  0  0
  188.8910  175.1090  144.0120 C   0  0  2  0  0  3  0  0  0  0  0  0
  192.4430  174.9720  144.6500 C   0  0  0  0  0  2  0  0  0  0  0  0
  190.4360  169.3610  138.3840 C   0  0  0  0  0  2  0  0  0  0  0  0
  190.3390  170.8240  136.3120 C   0  0  0  0  0  2  0  0  0  0  0  0
  191.2790  172.4470  137.9930 C   0  0  0  0  0  3  0  0  0  0  0  0
  191.6060  171.4510  138.9810 N   0  0  0  0  0  0  0  0  0  0  0  0
  190.7220  172.1880  136.8030 C   0  0  0  0  0  3  0  0  0  0  0  0
  191.7820  170.0520  138.6100 C   0  0  0  0  0  2  0  0  0  0  0  0
  189.5350  170.0800  137.3730 C   0  0  0  0  0  2  0  0  0  0  0  0
  187.3740  176.5140  142.4020 C   0  0  1  0  0  3  0  0  0  0  0  0
  186.4040  177.9500  140.6400 C   0  0  0  0  0  2  0  0  0  0  0  0
  185.3050  177.6550  142.5860 C   0  0  0  0  0  2  0  0  0  0  0  0
  187.3280  176.7620  140.8950 C   0  0  0  0  0  2  0  0  0  0  0  0
  186.0210  176.4340  142.9570 N   0  0  0  0  0  2  0  0  0  0  0  0
  185.1330  177.7010  141.1920 O   0  0  0  0  0  0  0  0  0  0  0  0
  1 12  2  0  0  0  0
  1 11  1  0  0  0  0
  2  7  1  0  0  0  0
  2  5  1  1  0  0  0
  3 16  1  0  0  0  0
  3  6  1  0  0  0  0
  4 11  1  0  0  0  0
  4 15  2  0  0  0  0
  6  7  1  0  0  0  0
  8  7  1  0  0  0  0
  9  8  1  0  0  0  0
 10 12  1  0  0  0  0
 11 14  1  0  0  0  0
 12 13  1  0  0  0  0
 13 14  1  0  0  0  0
 14  3  1  0  0  0  0
 15 16  1  0  0  0  0
 16  2  1  0  0  0  0
 17  6  1  0  0  0  0
 17  9  1  0  0  0  0
 18 23  1  0  0  0  0
 19 22  1  0  0  0  0
 19 24  1  0  0  0  0
 20 21  1  0  0  0  0
 21 10  1  0  0  0  0
 22 20  2  0  0  0  0
 23 21  1  0  0  0  0
 24 18  1  0  0  0  0
 25 15  1  0  0  0  0
 25 29  1  0  0  0  0
 26 28  1  0  0  0  0
 26 30  1  0  0  0  0
 27 29  1  0  0  0  0
 28 25  1  0  0  0  0
 30 27  1  0  0  0  0
M  END
>  <MODEL>
9

>  <REMARK>
 VINA RESULT:      -6.8      2.946      7.665
  Name = 
  2 active torsions:
  status: ('A' for Active; 'I' for Inactive)
    1  A    between atoms: C_2  and  C_27
    2  A    between atoms: N_14  and  N_21
                            x       y       z     vdW  Elec       q    Type
                         _______ _______ _______ _____ _____    ______ ____

>  <TORSDO>
F 2

$$$$
