=
 OpenBabel11062421193D

 51 57  0  0  1  0  0  0  0  0999 V2000
  195.6270  174.6600  141.0410 C   0  0  2  0  0  0  0  0  0  0  0  0
  192.8570  174.5460  145.4350 C   0  0  0  0  0  2  0  0  0  0  0  0
  196.8130  174.3020  143.2620 C   0  0  0  0  0  2  0  0  0  0  0  0
  192.9420  174.8720  143.9370 C   0  0  1  0  0  3  0  0  0  0  0  0
  194.5580  177.3860  146.2270 O   0  0  0  0  0  0  0  0  0  0  0  0
  194.2500  174.4380  143.2220 C   0  0  1  0  0  3  0  0  0  0  0  0
  194.7040  176.2680  145.7590 C   0  0  0  0  0  0  0  0  0  0  0  0
  194.3860  175.1250  141.8530 C   0  0  0  0  0  2  0  0  0  0  0  0
  193.9430  175.1150  146.3530 C   0  0  0  0  0  2  0  0  0  0  0  0
  196.5200  173.7200  141.8800 C   0  0  0  0  0  2  0  0  0  0  0  0
  195.5410  174.6420  144.0440 C   0  0  2  0  0  3  0  0  0  0  0  0
  195.6470  176.0590  144.6040 C   0  0  0  0  0  2  0  0  0  0  0  0
  196.4630  175.8620  140.6500 C   0  0  0  0  0  0  0  0  0  0  0  0
  196.2400  177.1050  141.2320 O   0  0  0  0  0  1  0  0  0  0  0  0
  197.3490  175.7550  139.7600 O   0  0  0  0  0  0  0  0  0  0  0  0
  195.1780  173.8860  139.7690 C   0  0  2  0  0  3  0  0  0  0  0  0
  193.3820  174.6490  138.1130 C   0  0  0  0  0  0  0  0  0  0  0  0
  192.0990  174.3440  137.3960 C   0  0  0  0  0  2  0  0  0  0  0  0
  193.6730  174.0080  139.4510 C   0  0  1  0  0  3  0  0  0  0  0  0
  192.8780  172.7180  139.7430 C   0  0  0  0  0  2  0  0  0  0  0  0
  191.1380  173.7210  138.3080 N   0  0  0  0  0  0  0  0  0  0  0  0
  194.1510  175.4720  137.6390 O   0  0  0  0  0  0  0  0  0  0  0  0
  191.7160  172.4650  138.7740 C   0  0  0  0  0  2  0  0  0  0  0  0
  189.5620  171.8480  137.2950 O   0  0  0  0  0  0  0  0  0  0  0  0
  188.2750  174.0120  138.1960 C   0  0  0  0  0  1  0  0  0  0  0  0
  189.7160  173.3390  137.3900 S   0  0  0  0  0  0  0  0  0  0  0  0
  189.8230  173.9180  136.0050 O   0  0  0  0  0  0  0  0  0  0  0  0
  195.6710  172.4310  139.7340 C   0  0  2  0  0  3  0  0  0  0  0  0
  196.8180  172.3150  138.8670 N   0  0  0  0  0  2  0  0  0  0  0  0
  195.5470  171.9240  138.4800 O   0  0  0  0  0  0  0  0  0  0  0  0
  191.6600  174.3440  143.2750 C   0  0  0  0  0  2  0  0  0  0  0  0
  189.2880  175.0880  143.3590 C   0  0  1  0  0  3  0  0  0  0  0  0
  189.5240  174.9170  141.8670 C   0  0  1  0  0  3  0  0  0  0  0  0
  190.6590  175.3970  142.7780 C   0  0  2  0  0  3  0  0  0  0  0  0
  189.5230  173.4390  141.5360 C   0  0  0  0  0  2  0  0  0  0  0  0
  189.1400  171.6350  143.1900 C   0  0  0  0  0  1  0  0  0  0  0  0
  188.4810  172.7290  142.3780 C   0  0  0  0  0  2  0  0  0  0  0  0
  188.5530  176.3250  143.6210 N   0  0  0  0  0  0  0  0  0  0  0  0
  185.7520  176.6230  143.7590 C   0  0  0  0  0  1  0  0  0  0  0  0
  186.6430  178.3070  141.1920 C   0  0  0  0  0  2  0  0  0  0  0  0
  187.8780  178.1590  142.0520 C   0  0  0  0  0  2  0  0  0  0  0  0
  186.3760  176.3930  142.3850 C   0  0  1  0  0  3  0  0  0  0  0  0
  185.7480  177.2490  141.4590 O   0  0  0  0  0  0  0  0  0  0  0  0
  187.8720  176.6880  142.3610 C   0  0  2  0  0  3  0  0  0  0  0  0
  189.5670  177.3350  143.9390 C   0  0  0  0  0  2  0  0  0  0  0  0
  189.5770  177.6170  145.4380 C   0  0  1  0  0  3  0  0  0  0  0  0
  189.4860  174.5390  147.1200 C   0  0  0  0  0  1  0  0  0  0  0  0
  188.1590  177.7170  145.9580 C   0  0  0  0  0  2  0  0  0  0  0  0
  187.9510  176.4180  146.6620 C   0  0  0  0  0  2  0  0  0  0  0  0
  189.3560  176.0480  147.0570 C   0  0  2  0  0  3  0  0  0  0  0  0
  190.2480  176.5690  146.1040 O   0  0  0  0  0  0  0  0  0  0  0  0
  1 13  1  6  0  0  0
  1  8  1  0  0  0  0
  1 10  1  0  0  0  0
  2  9  1  0  0  0  0
  4 31  1  6  0  0  0
  4  2  1  0  0  0  0
  6  8  1  6  0  0  0
  6  4  1  0  0  0  0
  6 11  1  0  0  0  0
  7  5  2  0  0  0  0
  7  9  1  0  0  0  0
 10  3  1  0  0  0  0
 11  3  1  6  0  0  0
 11 12  1  0  0  0  0
 12  7  1  0  0  0  0
 13 14  1  0  0  0  0
 15 13  2  0  0  0  0
 16 19  1  1  0  0  0
 16  1  1  0  0  0  0
 17 19  1  0  0  0  0
 18 17  1  0  0  0  0
 18 21  1  0  0  0  0
 19 20  1  6  0  0  0
 21 23  1  0  0  0  0
 22 17  2  0  0  0  0
 23 20  1  0  0  0  0
 24 26  2  0  0  0  0
 26 25  1  0  0  0  0
 26 21  1  0  0  0  0
 27 26  2  0  0  0  0
 28 16  1  6  0  0  0
 29 28  1  0  0  0  0
 30 29  1  0  0  0  0
 30 28  1  0  0  0  0
 32 38  1  6  0  0  0
 33 35  1  1  0  0  0
 33 34  1  0  0  0  0
 33 32  1  0  0  0  0
 34 31  1  1  0  0  0
 34 32  1  0  0  0  0
 35 37  1  0  0  0  0
 37 36  1  0  0  0  0
 38 45  1  0  0  0  0
 40 43  1  0  0  0  0
 40 41  1  0  0  0  0
 41 44  1  0  0  0  0
 42 39  1  1  0  0  0
 43 42  1  0  0  0  0
 44 42  1  0  0  0  0
 44 38  1  1  0  0  0
 46 45  1  6  0  0  0
 46 48  1  0  0  0  0
 46 51  1  0  0  0  0
 48 49  1  0  0  0  0
 49 50  1  0  0  0  0
 50 47  1  6  0  0  0
 51 50  1  0  0  0  0
M  END
>  <MODEL>
1

>  <REMARK>
 VINA RESULT:      -7.0      0.000      0.000
  Name = 
  13 active torsions:
  status: ('A' for Active; 'I' for Inactive)
    1  A    between atoms: C_2  and  N_37
    2  A    between atoms: C_5  and  C_10
    3  A    between atoms: C_5  and  C_15
    4  A    between atoms: C_9  and  C_15
    5  A    between atoms: C_12  and  C_43
    6  A    between atoms: C_15  and  C_21
    7  A    between atoms: C_16  and  C_51
    8  A    between atoms: C_19  and  C_32
    9  A    between atoms: S_24  and  N_39
   10  A    between atoms: C_32  and  C_40
   11  A    between atoms: N_37  and  C_43
   12  A    between atoms: N_37  and  C_45
   13  A    between atoms: C_38  and  C_51
                            x       y       z     vdW  Elec       q    Type
                         _______ _______ _______ _____ _____    ______ ____

>  <TORSDO>
F 13

$$$$
=
 OpenBabel11062421193D

 51 57  0  0  1  0  0  0  0  0999 V2000
  192.6810  171.7500  142.4460 C   0  0  2  0  0  0  0  0  0  0  0  0
  193.9960  175.4800  145.8140 C   0  0  0  0  0  2  0  0  0  0  0  0
  193.7990  171.1200  144.6410 C   0  0  0  0  0  2  0  0  0  0  0  0
  193.5520  175.0750  144.4010 C   0  0  1  0  0  3  0  0  0  0  0  0
  197.1970  174.5210  145.1640 O   0  0  0  0  0  0  0  0  0  0  0  0
  193.1960  173.5770  144.2060 C   0  0  1  0  0  3  0  0  0  0  0  0
  196.0810  174.0810  145.3950 C   0  0  0  0  0  0  0  0  0  0  0  0
  193.1280  173.2140  142.7130 C   0  0  0  0  0  2  0  0  0  0  0  0
  195.2120  174.7690  146.4120 C   0  0  0  0  0  2  0  0  0  0  0  0
  192.5580  170.9560  143.7640 C   0  0  0  0  0  2  0  0  0  0  0  0
  194.1190  172.5860  144.9470 C   0  0  2  0  0  3  0  0  0  0  0  0
  195.5960  172.8570  144.6650 C   0  0  0  0  0  2  0  0  0  0  0  0
  193.7100  171.0500  141.5800 C   0  0  0  0  0  0  0  0  0  0  0  0
  194.7370  171.7650  140.9760 O   0  0  0  0  0  0  0  0  0  0  0  0
  193.6220  169.8110  141.3680 O   0  0  0  0  0  1  0  0  0  0  0  0
  191.2930  171.7310  141.7430 C   0  0  2  0  0  3  0  0  0  0  0  0
  190.6620  170.8990  139.4060 C   0  0  0  0  0  0  0  0  0  0  0  0
  190.1210  171.2190  138.0440 C   0  0  0  0  0  2  0  0  0  0  0  0
  191.3510  171.9710  140.2200 C   0  0  1  0  0  3  0  0  0  0  0  0
  191.0060  173.4200  139.8140 C   0  0  0  0  0  2  0  0  0  0  0  0
  190.6790  172.4820  137.5540 N   0  0  0  0  0  0  0  0  0  0  0  0
  190.6040  169.7490  139.8180 O   0  0  0  0  0  0  0  0  0  0  0  0
  190.2680  173.5370  138.4740 C   0  0  0  0  0  2  0  0  0  0  0  0
  189.0440  171.6800  135.6310 O   0  0  0  0  0  0  0  0  0  0  0  0
  188.9950  174.3120  136.1030 C   0  0  0  0  0  1  0  0  0  0  0  0
  189.9550  172.8120  136.0130 S   0  0  0  0  0  0  0  0  0  0  0  0
  191.0210  172.9690  134.9620 O   0  0  0  0  0  0  0  0  0  0  0  0
  190.2460  172.6140  142.4390 C   0  0  2  0  0  3  0  0  0  0  0  0
  189.5570  171.8600  143.4580 N   0  0  0  0  0  2  0  0  0  0  0  0
  188.9980  172.1230  142.2190 O   0  0  0  0  0  0  0  0  0  0  0  0
  192.4420  176.0450  143.9680 C   0  0  0  0  0  2  0  0  0  0  0  0
  190.1470  176.9270  144.3540 C   0  0  1  0  0  3  0  0  0  0  0  0
  190.4680  176.2580  145.6820 C   0  0  1  0  0  3  0  0  0  0  0  0
  191.0070  175.6730  144.3720 C   0  0  2  0  0  3  0  0  0  0  0  0
  191.4270  177.1380  146.4560 C   0  0  0  0  0  2  0  0  0  0  0  0
  190.9430  175.2780  148.0190 C   0  0  0  0  0  1  0  0  0  0  0  0
  191.4730  176.6910  147.9040 C   0  0  0  0  0  2  0  0  0  0  0  0
  188.7840  176.6060  143.9370 N   0  0  0  0  0  0  0  0  0  0  0  0
  187.2800  174.8640  142.3070 C   0  0  0  0  0  1  0  0  0  0  0  0
  187.2790  177.6620  140.7600 C   0  0  0  0  0  2  0  0  0  0  0  0
  187.6010  177.9750  142.2030 C   0  0  0  0  0  2  0  0  0  0  0  0
  188.2650  175.8070  141.6210 C   0  0  1  0  0  3  0  0  0  0  0  0
  187.6540  176.3330  140.4670 O   0  0  0  0  0  0  0  0  0  0  0  0
  188.6790  176.9740  142.5100 C   0  0  2  0  0  3  0  0  0  0  0  0
  187.9070  177.4700  144.7330 C   0  0  0  0  0  2  0  0  0  0  0  0
  186.8740  176.6310  145.4770 C   0  0  1  0  0  3  0  0  0  0  0  0
  184.0320  178.6200  145.9970 C   0  0  0  0  0  1  0  0  0  0  0  0
  187.0320  176.8170  146.9710 C   0  0  0  0  0  2  0  0  0  0  0  0
  185.8990  177.7150  147.3350 C   0  0  0  0  0  2  0  0  0  0  0  0
  184.8930  177.4010  146.2590 C   0  0  2  0  0  3  0  0  0  0  0  0
  185.5790  177.0340  145.0890 O   0  0  0  0  0  0  0  0  0  0  0  0
  1 13  1  6  0  0  0
  1  8  1  0  0  0  0
  1 10  1  0  0  0  0
  2  9  1  0  0  0  0
  4 31  1  1  0  0  0
  4  2  1  0  0  0  0
  5  7  2  0  0  0  0
  6  8  1  6  0  0  0
  6  4  1  0  0  0  0
  6 11  1  0  0  0  0
  7  9  1  0  0  0  0
 10  3  1  0  0  0  0
 11  3  1  6  0  0  0
 12 11  1  0  0  0  0
 12  7  1  0  0  0  0
 14 13  2  0  0  0  0
 15 13  1  0  0  0  0
 16 19  1  6  0  0  0
 16  1  1  0  0  0  0
 17 22  2  0  0  0  0
 17 19  1  0  0  0  0
 18 17  1  0  0  0  0
 19 20  1  1  0  0  0
 21 18  1  0  0  0  0
 21 23  1  0  0  0  0
 23 20  1  0  0  0  0
 24 26  2  0  0  0  0
 26 25  1  0  0  0  0
 26 21  1  0  0  0  0
 27 26  2  0  0  0  0
 28 16  1  6  0  0  0
 28 29  1  0  0  0  0
 30 28  1  0  0  0  0
 30 29  1  0  0  0  0
 32 38  1  6  0  0  0
 32 34  1  0  0  0  0
 32 33  1  0  0  0  0
 33 35  1  1  0  0  0
 34 31  1  1  0  0  0
 34 33  1  0  0  0  0
 35 37  1  0  0  0  0
 37 36  1  0  0  0  0
 38 45  1  0  0  0  0
 40 41  1  0  0  0  0
 41 44  1  0  0  0  0
 42 39  1  1  0  0  0
 42 44  1  0  0  0  0
 43 40  1  0  0  0  0
 43 42  1  0  0  0  0
 44 38  1  1  0  0  0
 46 45  1  6  0  0  0
 46 48  1  0  0  0  0
 48 49  1  0  0  0  0
 50 47  1  6  0  0  0
 50 49  1  0  0  0  0
 51 46  1  0  0  0  0
 51 50  1  0  0  0  0
M  END
>  <MODEL>
2

>  <REMARK>
 VINA RESULT:      -7.0      2.572      4.075
  Name = 
  13 active torsions:
  status: ('A' for Active; 'I' for Inactive)
    1  A    between atoms: C_2  and  N_37
    2  A    between atoms: C_5  and  C_10
    3  A    between atoms: C_5  and  C_15
    4  A    between atoms: C_9  and  C_15
    5  A    between atoms: C_12  and  C_43
    6  A    between atoms: C_15  and  C_21
    7  A    between atoms: C_16  and  C_51
    8  A    between atoms: C_19  and  C_32
    9  A    between atoms: S_24  and  N_39
   10  A    between atoms: C_32  and  C_40
   11  A    between atoms: N_37  and  C_43
   12  A    between atoms: N_37  and  C_45
   13  A    between atoms: C_38  and  C_51
                            x       y       z     vdW  Elec       q    Type
                         _______ _______ _______ _____ _____    ______ ____

>  <TORSDO>
F 13

$$$$
=
 OpenBabel11062421193D

 51 57  0  0  1  0  0  0  0  0999 V2000
  195.7650  174.6680  142.9580 C   0  0  2  0  0  0  0  0  0  0  0  0
  191.3910  174.3930  145.7490 C   0  0  0  0  0  2  0  0  0  0  0  0
  195.8930  174.1430  145.4430 C   0  0  0  0  0  2  0  0  0  0  0  0
  192.1060  174.8020  144.4530 C   0  0  1  0  0  3  0  0  0  0  0  0
  192.6110  177.1240  147.3730 O   0  0  0  0  0  0  0  0  0  0  0  0
  193.5900  174.3670  144.3310 C   0  0  1  0  0  3  0  0  0  0  0  0
  192.9350  176.0300  146.9380 C   0  0  0  0  0  0  0  0  0  0  0  0
  194.2990  175.1280  143.1970 C   0  0  0  0  0  2  0  0  0  0  0  0
  191.9880  174.8700  147.0750 C   0  0  0  0  0  2  0  0  0  0  0  0
  196.2120  173.6530  144.0310 C   0  0  0  0  0  2  0  0  0  0  0  0
  194.4120  174.4790  145.6340 C   0  0  2  0  0  3  0  0  0  0  0  0
  194.2780  175.8570  146.2790 C   0  0  0  0  0  2  0  0  0  0  0  0
  196.6950  175.8630  143.0380 C   0  0  0  0  0  0  0  0  0  0  0  0
  196.2780  177.0520  143.6260 O   0  0  0  0  0  1  0  0  0  0  0  0
  197.8490  175.8020  142.5370 O   0  0  0  0  0  0  0  0  0  0  0  0
  195.8940  173.9860  141.5670 C   0  0  2  0  0  3  0  0  0  0  0  0
  195.6500  174.9740  139.2190 C   0  0  0  0  0  0  0  0  0  0  0  0
  194.9020  174.9970  137.9170 C   0  0  0  0  0  2  0  0  0  0  0  0
  194.9470  174.5570  140.4910 C   0  0  1  0  0  3  0  0  0  0  0  0
  193.6730  173.7110  140.2830 C   0  0  0  0  0  2  0  0  0  0  0  0
  193.4580  174.9450  138.1560 N   0  0  0  0  0  0  0  0  0  0  0  0
  196.8080  175.3650  139.2490 O   0  0  0  0  0  0  0  0  0  0  0  0
  193.1640  173.6880  138.8360 C   0  0  0  0  0  2  0  0  0  0  0  0
  191.2400  174.4840  136.7810 O   0  0  0  0  0  0  0  0  0  0  0  0
  192.7080  176.5260  135.8690 C   0  0  0  0  0  1  0  0  0  0  0  0
  192.6730  174.9050  136.6090 S   0  0  0  0  0  0  0  0  0  0  0  0
  193.3720  173.9300  135.6990 O   0  0  0  0  0  0  0  0  0  0  0  0
  195.8510  172.4510  141.6340 C   0  0  2  0  0  3  0  0  0  0  0  0
  197.1840  171.9110  141.5250 N   0  0  0  0  0  2  0  0  0  0  0  0
  196.2930  171.9180  140.4650 O   0  0  0  0  0  0  0  0  0  0  0  0
  191.2230  174.3570  143.2770 C   0  0  0  0  0  2  0  0  0  0  0  0
  188.8790  175.1870  143.3490 C   0  0  1  0  0  3  0  0  0  0  0  0
  189.0740  174.8890  141.8700 C   0  0  1  0  0  3  0  0  0  0  0  0
  190.2450  175.4010  142.7160 C   0  0  2  0  0  3  0  0  0  0  0  0
  189.0180  173.3900  141.6600 C   0  0  0  0  0  2  0  0  0  0  0  0
  188.5520  174.2320  139.3770 C   0  0  0  0  0  1  0  0  0  0  0  0
  189.1170  173.0800  140.1790 C   0  0  0  0  0  2  0  0  0  0  0  0
  188.1910  176.4650  143.5250 N   0  0  0  0  0  0  0  0  0  0  0  0
  189.8300  177.8150  145.3810 C   0  0  0  0  0  1  0  0  0  0  0  0
  186.9140  177.8140  146.6910 C   0  0  0  0  0  2  0  0  0  0  0  0
  186.7140  177.5870  145.2100 C   0  0  0  0  0  2  0  0  0  0  0  0
  188.8080  176.8210  145.9260 C   0  0  1  0  0  3  0  0  0  0  0  0
  188.2040  177.3810  147.0680 O   0  0  0  0  0  0  0  0  0  0  0  0
  187.7080  176.4970  144.9210 C   0  0  2  0  0  3  0  0  0  0  0  0
  187.0460  176.4350  142.6100 C   0  0  0  0  0  2  0  0  0  0  0  0
  186.9560  177.7460  141.8360 C   0  0  1  0  0  3  0  0  0  0  0  0
  183.6240  178.1790  140.8250 C   0  0  0  0  0  1  0  0  0  0  0  0
  187.1620  177.4920  140.3580 C   0  0  0  0  0  2  0  0  0  0  0  0
  185.7860  177.5860  139.7900 C   0  0  0  0  0  2  0  0  0  0  0  0
  185.1050  178.5010  140.7720 C   0  0  2  0  0  3  0  0  0  0  0  0
  185.6830  178.3190  142.0400 O   0  0  0  0  0  0  0  0  0  0  0  0
  1 13  1  1  0  0  0
  1  8  1  0  0  0  0
  1 10  1  0  0  0  0
  2  9  1  0  0  0  0
  4 31  1  6  0  0  0
  4  2  1  0  0  0  0
  6  8  1  6  0  0  0
  6  4  1  0  0  0  0
  6 11  1  0  0  0  0
  7  9  1  0  0  0  0
  7  5  2  0  0  0  0
 10  3  1  0  0  0  0
 11  3  1  6  0  0  0
 11 12  1  0  0  0  0
 12  7  1  0  0  0  0
 13 14  1  0  0  0  0
 15 13  2  0  0  0  0
 16 19  1  6  0  0  0
 16  1  1  0  0  0  0
 17 22  2  0  0  0  0
 17 19  1  0  0  0  0
 18 21  1  0  0  0  0
 18 17  1  0  0  0  0
 19 20  1  6  0  0  0
 21 23  1  0  0  0  0
 23 20  1  0  0  0  0
 25 26  1  0  0  0  0
 26 24  2  0  0  0  0
 26 21  1  0  0  0  0
 27 26  2  0  0  0  0
 28 16  1  6  0  0  0
 29 28  1  0  0  0  0
 30 29  1  0  0  0  0
 30 28  1  0  0  0  0
 32 38  1  6  0  0  0
 33 35  1  1  0  0  0
 33 34  1  0  0  0  0
 33 32  1  0  0  0  0
 34 31  1  1  0  0  0
 34 32  1  0  0  0  0
 36 37  1  0  0  0  0
 37 35  1  0  0  0  0
 40 43  1  0  0  0  0
 41 40  1  0  0  0  0
 42 39  1  6  0  0  0
 42 43  1  0  0  0  0
 44 38  1  6  0  0  0
 44 41  1  0  0  0  0
 44 42  1  0  0  0  0
 45 38  1  0  0  0  0
 46 51  1  0  0  0  0
 46 45  1  1  0  0  0
 48 46  1  0  0  0  0
 49 48  1  0  0  0  0
 49 50  1  0  0  0  0
 50 47  1  1  0  0  0
 50 51  1  0  0  0  0
M  END
>  <MODEL>
3

>  <REMARK>
 VINA RESULT:      -6.8      1.614      3.564
  Name = 
  13 active torsions:
  status: ('A' for Active; 'I' for Inactive)
    1  A    between atoms: C_2  and  N_37
    2  A    between atoms: C_5  and  C_10
    3  A    between atoms: C_5  and  C_15
    4  A    between atoms: C_9  and  C_15
    5  A    between atoms: C_12  and  C_43
    6  A    between atoms: C_15  and  C_21
    7  A    between atoms: C_16  and  C_51
    8  A    between atoms: C_19  and  C_32
    9  A    between atoms: S_24  and  N_39
   10  A    between atoms: C_32  and  C_40
   11  A    between atoms: N_37  and  C_43
   12  A    between atoms: N_37  and  C_45
   13  A    between atoms: C_38  and  C_51
                            x       y       z     vdW  Elec       q    Type
                         _______ _______ _______ _____ _____    ______ ____

>  <TORSDO>
F 13

$$$$
=
 OpenBabel11062421193D

 51 57  0  0  1  0  0  0  0  0999 V2000
  190.5000  174.1180  142.9410 C   0  0  2  0  0  0  0  0  0  0  0  0
  193.5130  170.2880  144.7420 C   0  0  0  0  0  2  0  0  0  0  0  0
  189.5560  171.7650  143.1330 C   0  0  0  0  0  2  0  0  0  0  0  0
  193.3810  171.7170  144.1950 C   0  0  1  0  0  3  0  0  0  0  0  0
  193.2090  168.9840  141.6120 O   0  0  0  0  0  0  0  0  0  0  0  0
  191.9320  172.2320  143.9860 C   0  0  1  0  0  3  0  0  0  0  0  0
  192.5690  169.5110  142.5090 C   0  0  0  0  0  0  0  0  0  0  0  0
  191.9130  173.4950  143.1100 C   0  0  0  0  0  2  0  0  0  0  0  0
  192.8700  169.1550  143.9390 C   0  0  0  0  0  2  0  0  0  0  0  0
  189.4160  173.2210  143.5760 C   0  0  0  0  0  2  0  0  0  0  0  0
  190.9440  171.1870  143.4230 C   0  0  2  0  0  3  0  0  0  0  0  0
  191.4860  170.5010  142.1710 C   0  0  0  0  0  2  0  0  0  0  0  0
  190.1750  174.2600  141.4670 C   0  0  0  0  0  0  0  0  0  0  0  0
  188.8870  174.5740  141.0480 O   0  0  0  0  0  1  0  0  0  0  0  0
  191.0670  174.0570  140.6000 O   0  0  0  0  0  0  0  0  0  0  0  0
  190.4380  175.5090  143.6350 C   0  0  2  0  0  3  0  0  0  0  0  0
  189.1860  176.2010  145.7570 C   0  0  0  0  0  0  0  0  0  0  0  0
  188.1350  177.0640  146.3920 C   0  0  0  0  0  2  0  0  0  0  0  0
  189.0810  175.8270  144.2960 C   0  0  1  0  0  3  0  0  0  0  0  0
  188.1890  176.7590  143.4480 C   0  0  0  0  0  2  0  0  0  0  0  0
  186.9400  177.1210  145.5470 N   0  0  0  0  0  0  0  0  0  0  0  0
  190.0850  175.7460  146.4510 O   0  0  0  0  0  0  0  0  0  0  0  0
  187.3240  177.7210  144.2730 C   0  0  0  0  0  2  0  0  0  0  0  0
  184.4750  177.5040  146.4370 O   0  0  0  0  0  0  0  0  0  0  0  0
  186.3840  178.6140  147.9460 C   0  0  0  0  0  1  0  0  0  0  0  0
  185.8070  178.1880  146.3130 S   0  0  0  0  0  0  0  0  0  0  0  0
  185.6480  179.4450  145.5010 O   0  0  0  0  0  0  0  0  0  0  0  0
  190.9440  176.6560  142.7470 C   0  0  2  0  0  3  0  0  0  0  0  0
  192.3310  176.9330  143.0340 N   0  0  0  0  0  2  0  0  0  0  0  0
  191.2980  177.7210  143.5140 O   0  0  0  0  0  0  0  0  0  0  0  0
  194.2500  172.6310  145.0740 C   0  0  0  0  0  2  0  0  0  0  0  0
  196.2040  172.2960  143.5710 C   0  0  1  0  0  3  0  0  0  0  0  0
  196.8450  172.9040  144.8090 C   0  0  1  0  0  3  0  0  0  0  0  0
  195.4340  173.3250  144.3840 C   0  0  2  0  0  3  0  0  0  0  0  0
  196.9200  171.8470  145.8920 C   0  0  0  0  0  2  0  0  0  0  0  0
  196.8840  169.3730  146.0070 C   0  0  0  0  0  1  0  0  0  0  0  0
  197.5020  170.5700  145.3180 C   0  0  0  0  0  2  0  0  0  0  0  0
  196.7520  172.9070  142.3610 N   0  0  0  0  0  0  0  0  0  0  0  0
  194.8250  172.0450  140.4910 C   0  0  0  0  0  1  0  0  0  0  0  0
  197.6340  171.1160  139.2800 C   0  0  0  0  0  2  0  0  0  0  0  0
  197.9410  172.2230  140.2630 C   0  0  0  0  0  2  0  0  0  0  0  0
  195.9690  171.0910  140.8240 C   0  0  1  0  0  3  0  0  0  0  0  0
  196.4170  170.4940  139.6300 O   0  0  0  0  0  0  0  0  0  0  0  0
  197.1550  171.7980  141.4720 C   0  0  2  0  0  3  0  0  0  0  0  0
  197.9410  173.6490  142.7890 C   0  0  0  0  0  2  0  0  0  0  0  0
  197.8790  175.0840  142.2770 C   0  0  1  0  0  3  0  0  0  0  0  0
  195.7280  176.8910  144.3790 C   0  0  0  0  0  1  0  0  0  0  0  0
  196.7320  175.2390  141.3020 C   0  0  0  0  0  2  0  0  0  0  0  0
  195.6910  175.9550  142.0950 C   0  0  0  0  0  2  0  0  0  0  0  0
  196.5250  176.7010  143.1030 C   0  0  2  0  0  3  0  0  0  0  0  0
  197.6890  175.9590  143.3680 O   0  0  0  0  0  0  0  0  0  0  0  0
  1 13  1  6  0  0  0
  1  8  1  0  0  0  0
  1 10  1  0  0  0  0
  1 16  1  0  0  0  0
  3 11  1  0  0  0  0
  3 10  1  0  0  0  0
  4  2  1  0  0  0  0
  4 31  1  1  0  0  0
  5  7  2  0  0  0  0
  6  8  1  6  0  0  0
  6  4  1  0  0  0  0
  7  9  1  0  0  0  0
  9  2  1  0  0  0  0
 11 12  1  6  0  0  0
 11  6  1  0  0  0  0
 12  7  1  0  0  0  0
 14 13  1  0  0  0  0
 15 13  2  0  0  0  0
 16 28  1  6  0  0  0
 17 18  1  0  0  0  0
 17 22  2  0  0  0  0
 19 16  1  6  0  0  0
 19 17  1  0  0  0  0
 20 23  1  0  0  0  0
 20 19  1  0  0  0  0
 21 26  1  0  0  0  0
 21 18  1  0  0  0  0
 23 21  1  0  0  0  0
 26 24  2  0  0  0  0
 26 25  1  0  0  0  0
 27 26  2  0  0  0  0
 28 29  1  1  0  0  0
 28 30  1  0  0  0  0
 29 30  1  0  0  0  0
 32 38  1  6  0  0  0
 32 34  1  0  0  0  0
 32 33  1  0  0  0  0
 33 35  1  1  0  0  0
 34 33  1  0  0  0  0
 34 31  1  1  0  0  0
 37 35  1  0  0  0  0
 37 36  1  0  0  0  0
 38 45  1  0  0  0  0
 40 43  1  0  0  0  0
 40 41  1  0  0  0  0
 41 44  1  0  0  0  0
 42 39  1  6  0  0  0
 42 44  1  0  0  0  0
 43 42  1  0  0  0  0
 44 38  1  6  0  0  0
 46 45  1  1  0  0  0
 46 51  1  0  0  0  0
 48 49  1  0  0  0  0
 48 46  1  0  0  0  0
 49 50  1  0  0  0  0
 50 51  1  0  0  0  0
 50 47  1  1  0  0  0
M  END
>  <MODEL>
4

>  <REMARK>
 VINA RESULT:      -6.6      3.133      8.578
  Name = 
  13 active torsions:
  status: ('A' for Active; 'I' for Inactive)
    1  A    between atoms: C_2  and  N_37
    2  A    between atoms: C_5  and  C_10
    3  A    between atoms: C_5  and  C_15
    4  A    between atoms: C_9  and  C_15
    5  A    between atoms: C_12  and  C_43
    6  A    between atoms: C_15  and  C_21
    7  A    between atoms: C_16  and  C_51
    8  A    between atoms: C_19  and  C_32
    9  A    between atoms: S_24  and  N_39
   10  A    between atoms: C_32  and  C_40
   11  A    between atoms: N_37  and  C_43
   12  A    between atoms: N_37  and  C_45
   13  A    between atoms: C_38  and  C_51
                            x       y       z     vdW  Elec       q    Type
                         _______ _______ _______ _____ _____    ______ ____

>  <TORSDO>
F 13

$$$$
=
 OpenBabel11062421193D

 51 57  0  0  1  0  0  0  0  0999 V2000
  188.6660  175.0970  142.4830 C   0  0  2  0  0  0  0  0  0  0  0  0
  191.4650  172.1890  139.2130 C   0  0  0  0  0  2  0  0  0  0  0  0
  187.7380  172.8710  141.6760 C   0  0  0  0  0  2  0  0  0  0  0  0
  191.2280  173.5390  139.9050 C   0  0  1  0  0  3  0  0  0  0  0  0
  188.9550  172.8000  136.9960 O   0  0  0  0  0  0  0  0  0  0  0  0
  190.1120  173.5610  140.9830 C   0  0  1  0  0  3  0  0  0  0  0  0
  189.1680  172.4980  138.1600 C   0  0  0  0  0  0  0  0  0  0  0  0
  189.7120  175.0030  141.3380 C   0  0  0  0  0  2  0  0  0  0  0  0
  190.2850  171.5440  138.4830 C   0  0  0  0  0  2  0  0  0  0  0  0
  188.1590  173.6980  142.8910 C   0  0  0  0  0  2  0  0  0  0  0  0
  188.8540  172.7360  140.6360 C   0  0  2  0  0  3  0  0  0  0  0  0
  188.3080  173.0780  139.2510 C   0  0  0  0  0  2  0  0  0  0  0  0
  187.4690  175.9040  142.0180 C   0  0  0  0  0  0  0  0  0  0  0  0
  186.2980  175.9370  142.7660 O   0  0  0  0  0  1  0  0  0  0  0  0
  187.5110  176.5260  140.9230 O   0  0  0  0  0  0  0  0  0  0  0  0
  189.3000  175.7630  143.7380 C   0  0  2  0  0  3  0  0  0  0  0  0
  191.3520  177.2670  144.0190 C   0  0  0  0  0  0  0  0  0  0  0  0
  192.7390  177.4400  144.5660 C   0  0  0  0  0  2  0  0  0  0  0  0
  190.8370  175.8860  143.6800 C   0  0  1  0  0  3  0  0  0  0  0  0
  191.5730  174.7260  144.3830 C   0  0  0  0  0  2  0  0  0  0  0  0
  193.5310  176.2280  144.3470 N   0  0  0  0  0  0  0  0  0  0  0  0
  190.6740  178.2560  143.7840 O   0  0  0  0  0  0  0  0  0  0  0  0
  192.8840  175.1360  145.0660 C   0  0  0  0  0  2  0  0  0  0  0  0
  195.3030  175.4900  146.1730 O   0  0  0  0  0  0  0  0  0  0  0  0
  196.3660  176.2600  143.8420 C   0  0  0  0  0  1  0  0  0  0  0  0
  195.0890  176.4840  145.0660 S   0  0  0  0  0  0  0  0  0  0  0  0
  195.1790  177.8790  145.6240 O   0  0  0  0  0  0  0  0  0  0  0  0
  188.8070  175.1600  145.0620 C   0  0  2  0  0  3  0  0  0  0  0  0
  187.8560  176.0460  145.6890 N   0  0  0  0  0  2  0  0  0  0  0  0
  189.1750  175.9530  146.1030 O   0  0  0  0  0  0  0  0  0  0  0  0
  192.5890  174.0500  140.4010 C   0  0  0  0  0  2  0  0  0  0  0  0
  194.2810  173.4750  142.1330 C   0  0  1  0  0  3  0  0  0  0  0  0
  195.0810  173.3640  140.8450 C   0  0  1  0  0  3  0  0  0  0  0  0
  193.5960  172.9870  140.8660 C   0  0  2  0  0  3  0  0  0  0  0  0
  195.4020  174.7570  140.3430 C   0  0  0  0  0  2  0  0  0  0  0  0
  197.5930  173.6130  140.1830 C   0  0  0  0  0  1  0  0  0  0  0  0
  196.9050  174.9550  140.3140 C   0  0  0  0  0  2  0  0  0  0  0  0
  194.5800  172.3520  143.0190 N   0  0  0  0  0  0  0  0  0  0  0  0
  195.2430  171.8800  145.7190 C   0  0  0  0  0  1  0  0  0  0  0  0
  197.9400  171.3370  144.0910 C   0  0  0  0  0  2  0  0  0  0  0  0
  196.8110  171.2130  143.0940 C   0  0  0  0  0  2  0  0  0  0  0  0
  196.2500  172.6430  144.8620 C   0  0  1  0  0  3  0  0  0  0  0  0
  197.5420  172.1690  145.1600 O   0  0  0  0  0  0  0  0  0  0  0  0
  196.0110  172.4560  143.3680 C   0  0  2  0  0  3  0  0  0  0  0  0
  194.3560  171.1420  142.2220 C   0  0  0  0  0  2  0  0  0  0  0  0
  193.4350  170.1820  142.9690 C   0  0  1  0  0  3  0  0  0  0  0  0
  191.2870  168.6980  140.6250 C   0  0  0  0  0  1  0  0  0  0  0  0
  192.1660  170.8950  143.3830 C   0  0  0  0  0  2  0  0  0  0  0  0
  191.1500  170.3970  142.4100 C   0  0  0  0  0  2  0  0  0  0  0  0
  191.7090  169.0490  142.0380 C   0  0  2  0  0  3  0  0  0  0  0  0
  193.1100  169.0990  142.1250 O   0  0  0  0  0  0  0  0  0  0  0  0
  1 13  1  6  0  0  0
  1 10  1  0  0  0  0
  1 16  1  0  0  0  0
  2  4  1  0  0  0  0
  3 10  1  0  0  0  0
  4 31  1  1  0  0  0
  4  6  1  0  0  0  0
  5  7  2  0  0  0  0
  6  8  1  6  0  0  0
  7  9  1  0  0  0  0
  7 12  1  0  0  0  0
  8  1  1  0  0  0  0
  9  2  1  0  0  0  0
 11 12  1  6  0  0  0
 11  6  1  0  0  0  0
 11  3  1  0  0  0  0
 13 14  1  0  0  0  0
 15 13  2  0  0  0  0
 16 19  1  6  0  0  0
 17 18  1  0  0  0  0
 19 17  1  0  0  0  0
 19 20  1  1  0  0  0
 20 23  1  0  0  0  0
 21 18  1  0  0  0  0
 21 23  1  0  0  0  0
 21 26  1  0  0  0  0
 22 17  2  0  0  0  0
 25 26  1  0  0  0  0
 26 27  2  0  0  0  0
 26 24  2  0  0  0  0
 28 16  1  6  0  0  0
 28 29  1  0  0  0  0
 28 30  1  0  0  0  0
 29 30  1  0  0  0  0
 32 38  1  1  0  0  0
 33 35  1  6  0  0  0
 33 34  1  0  0  0  0
 33 32  1  0  0  0  0
 34 31  1  6  0  0  0
 34 32  1  0  0  0  0
 36 37  1  0  0  0  0
 37 35  1  0  0  0  0
 40 43  1  0  0  0  0
 41 44  1  0  0  0  0
 41 40  1  0  0  0  0
 42 43  1  0  0  0  0
 42 39  1  1  0  0  0
 44 38  1  1  0  0  0
 44 42  1  0  0  0  0
 45 38  1  0  0  0  0
 46 45  1  6  0  0  0
 46 48  1  0  0  0  0
 49 48  1  0  0  0  0
 50 47  1  6  0  0  0
 50 51  1  0  0  0  0
 50 49  1  0  0  0  0
 51 46  1  0  0  0  0
M  END
>  <MODEL>
5

>  <REMARK>
 VINA RESULT:      -6.5      2.837      8.776
  Name = 
  13 active torsions:
  status: ('A' for Active; 'I' for Inactive)
    1  A    between atoms: C_2  and  N_37
    2  A    between atoms: C_5  and  C_10
    3  A    between atoms: C_5  and  C_15
    4  A    between atoms: C_9  and  C_15
    5  A    between atoms: C_12  and  C_43
    6  A    between atoms: C_15  and  C_21
    7  A    between atoms: C_16  and  C_51
    8  A    between atoms: C_19  and  C_32
    9  A    between atoms: S_24  and  N_39
   10  A    between atoms: C_32  and  C_40
   11  A    between atoms: N_37  and  C_43
   12  A    between atoms: N_37  and  C_45
   13  A    between atoms: C_38  and  C_51
                            x       y       z     vdW  Elec       q    Type
                         _______ _______ _______ _____ _____    ______ ____

>  <TORSDO>
F 13

$$$$
=
 OpenBabel11062421193D

 51 57  0  0  1  0  0  0  0  0999 V2000
  194.5630  173.6300  138.3890 C   0  0  2  0  0  0  0  0  0  0  0  0
  189.3900  173.7950  138.8380 C   0  0  0  0  0  2  0  0  0  0  0  0
  193.1750  174.6560  136.5230 C   0  0  0  0  0  2  0  0  0  0  0  0
  190.7400  173.2470  139.3230 C   0  0  1  0  0  3  0  0  0  0  0  0
  189.3930  171.6620  136.1850 O   0  0  0  0  0  0  0  0  0  0  0  0
  192.0000  173.8680  138.6650 C   0  0  1  0  0  3  0  0  0  0  0  0
  189.9130  172.6820  136.6090 C   0  0  0  0  0  0  0  0  0  0  0  0
  193.2480  173.0120  138.9400 C   0  0  0  0  0  2  0  0  0  0  0  0
  189.0720  173.6890  137.3440 C   0  0  0  0  0  2  0  0  0  0  0  0
  194.2770  174.8960  137.5540 C   0  0  0  0  0  2  0  0  0  0  0  0
  191.8760  174.1450  137.1510 C   0  0  2  0  0  3  0  0  0  0  0  0
  191.3820  172.9200  136.3820 C   0  0  0  0  0  2  0  0  0  0  0  0
  195.2600  172.6300  137.4870 C   0  0  0  0  0  0  0  0  0  0  0  0
  196.0390  173.0580  136.4170 O   0  0  0  0  0  0  0  0  0  0  0  0
  195.1100  171.3940  137.6760 O   0  0  0  0  0  1  0  0  0  0  0  0
  195.5020  174.0310  139.5630 C   0  0  2  0  0  3  0  0  0  0  0  0
  195.5650  173.3450  142.0280 C   0  0  0  0  0  0  0  0  0  0  0  0
  195.3870  173.7390  143.4650 C   0  0  0  0  0  2  0  0  0  0  0  0
  194.8090  174.0740  140.9410 C   0  0  1  0  0  3  0  0  0  0  0  0
  194.3050  175.4810  141.3300 C   0  0  0  0  0  2  0  0  0  0  0  0
  194.1920  174.5730  143.6230 N   0  0  0  0  0  0  0  0  0  0  0  0
  196.2700  172.3840  141.7550 O   0  0  0  0  0  0  0  0  0  0  0  0
  194.3870  175.7830  142.8320 C   0  0  0  0  0  2  0  0  0  0  0  0
  195.2720  174.4800  146.0400 O   0  0  0  0  0  0  0  0  0  0  0  0
  194.1290  176.8190  145.4240 C   0  0  0  0  0  1  0  0  0  0  0  0
  194.0970  175.0410  145.2900 S   0  0  0  0  0  0  0  0  0  0  0  0
  192.8230  174.5220  145.9020 O   0  0  0  0  0  0  0  0  0  0  0  0
  196.3270  175.2950  139.2790 C   0  0  2  0  0  3  0  0  0  0  0  0
  197.6530  174.9350  138.8360 N   0  0  0  0  0  2  0  0  0  0  0  0
  197.3870  175.3640  140.1270 O   0  0  0  0  0  0  0  0  0  0  0  0
  190.7390  173.3080  140.8590 C   0  0  0  0  0  2  0  0  0  0  0  0
  190.0680  174.5490  142.9080 C   0  0  1  0  0  3  0  0  0  0  0  0
  188.9370  173.5450  142.7490 C   0  0  1  0  0  3  0  0  0  0  0  0
  189.6240  174.1370  141.5130 C   0  0  2  0  0  3  0  0  0  0  0  0
  189.4260  172.1800  143.1850 C   0  0  0  0  0  2  0  0  0  0  0  0
  191.6140  171.6110  144.1980 C   0  0  0  0  0  1  0  0  0  0  0  0
  190.2960  172.3210  144.4190 C   0  0  0  0  0  2  0  0  0  0  0  0
  189.5360  175.8680  143.2460 N   0  0  0  0  0  0  0  0  0  0  0  0
  190.5590  178.2330  144.3930 C   0  0  0  0  0  1  0  0  0  0  0  0
  188.6050  177.0090  146.6080 C   0  0  0  0  0  2  0  0  0  0  0  0
  188.1870  176.3990  145.2900 C   0  0  0  0  0  2  0  0  0  0  0  0
  190.4510  176.9990  145.2850 C   0  0  1  0  0  3  0  0  0  0  0  0
  189.9610  177.3970  146.5440 O   0  0  0  0  0  0  0  0  0  0  0  0
  189.5020  175.9460  144.7210 C   0  0  2  0  0  3  0  0  0  0  0  0
  188.1680  175.8960  142.7210 C   0  0  0  0  0  2  0  0  0  0  0  0
  187.9490  177.1540  141.8880 C   0  0  1  0  0  3  0  0  0  0  0  0
  185.5240  179.1110  143.5010 C   0  0  0  0  0  1  0  0  0  0  0  0
  186.8250  176.9330  140.8990 C   0  0  0  0  0  2  0  0  0  0  0  0
  185.6790  177.6760  141.4980 C   0  0  0  0  0  2  0  0  0  0  0  0
  186.3800  178.7330  142.3080 C   0  0  2  0  0  3  0  0  0  0  0  0
  187.6160  178.2260  142.7430 O   0  0  0  0  0  0  0  0  0  0  0  0
  1 13  1  6  0  0  0
  1  8  1  0  0  0  0
  1 16  1  0  0  0  0
  2  4  1  0  0  0  0
  3 11  1  0  0  0  0
  3 10  1  0  0  0  0
  4 31  1  1  0  0  0
  5  7  2  0  0  0  0
  6  8  1  6  0  0  0
  6  4  1  0  0  0  0
  7  9  1  0  0  0  0
  9  2  1  0  0  0  0
 10  1  1  0  0  0  0
 11 12  1  6  0  0  0
 11  6  1  0  0  0  0
 12  7  1  0  0  0  0
 13 15  1  0  0  0  0
 14 13  2  0  0  0  0
 16 28  1  6  0  0  0
 17 18  1  0  0  0  0
 18 21  1  0  0  0  0
 19 16  1  6  0  0  0
 19 20  1  0  0  0  0
 19 17  1  0  0  0  0
 20 23  1  0  0  0  0
 21 26  1  0  0  0  0
 22 17  2  0  0  0  0
 23 21  1  0  0  0  0
 26 25  1  0  0  0  0
 26 27  2  0  0  0  0
 26 24  2  0  0  0  0
 28 29  1  6  0  0  0
 28 30  1  0  0  0  0
 29 30  1  0  0  0  0
 32 38  1  6  0  0  0
 33 32  1  0  0  0  0
 33 35  1  1  0  0  0
 34 31  1  1  0  0  0
 34 33  1  0  0  0  0
 34 32  1  0  0  0  0
 35 37  1  0  0  0  0
 36 37  1  0  0  0  0
 41 40  1  0  0  0  0
 42 39  1  6  0  0  0
 42 43  1  0  0  0  0
 43 40  1  0  0  0  0
 44 38  1  6  0  0  0
 44 42  1  0  0  0  0
 44 41  1  0  0  0  0
 45 38  1  0  0  0  0
 46 45  1  1  0  0  0
 46 51  1  0  0  0  0
 48 49  1  0  0  0  0
 48 46  1  0  0  0  0
 49 50  1  0  0  0  0
 50 51  1  0  0  0  0
 50 47  1  1  0  0  0
M  END
>  <MODEL>
6

>  <REMARK>
 VINA RESULT:      -6.5      2.207      6.037
  Name = 
  13 active torsions:
  status: ('A' for Active; 'I' for Inactive)
    1  A    between atoms: C_2  and  N_37
    2  A    between atoms: C_5  and  C_10
    3  A    between atoms: C_5  and  C_15
    4  A    between atoms: C_9  and  C_15
    5  A    between atoms: C_12  and  C_43
    6  A    between atoms: C_15  and  C_21
    7  A    between atoms: C_16  and  C_51
    8  A    between atoms: C_19  and  C_32
    9  A    between atoms: S_24  and  N_39
   10  A    between atoms: C_32  and  C_40
   11  A    between atoms: N_37  and  C_43
   12  A    between atoms: N_37  and  C_45
   13  A    between atoms: C_38  and  C_51
                            x       y       z     vdW  Elec       q    Type
                         _______ _______ _______ _____ _____    ______ ____

>  <TORSDO>
F 13

$$$$
=
 OpenBabel11062421193D

 51 57  0  0  1  0  0  0  0  0999 V2000
  190.3770  175.9260  144.0780 C   0  0  2  0  0  0  0  0  0  0  0  0
  189.8930  172.1220  140.5730 C   0  0  0  0  0  2  0  0  0  0  0  0
  188.0590  175.1890  143.3400 C   0  0  0  0  0  2  0  0  0  0  0  0
  190.7800  173.1510  141.2900 C   0  0  1  0  0  3  0  0  0  0  0  0
  188.5720  174.5410  138.5750 O   0  0  0  0  0  0  0  0  0  0  0  0
  190.1110  173.9260  142.4570 C   0  0  1  0  0  3  0  0  0  0  0  0
  188.5470  174.1050  139.7160 C   0  0  0  0  0  0  0  0  0  0  0  0
  190.9410  175.1600  142.8500 C   0  0  0  0  0  2  0  0  0  0  0  0
  188.5910  172.6190  139.9400 C   0  0  0  0  0  2  0  0  0  0  0  0
  189.0170  175.3470  144.5200 C   0  0  0  0  0  2  0  0  0  0  0  0
  188.6430  174.3370  142.2100 C   0  0  2  0  0  3  0  0  0  0  0  0
  188.4660  175.0610  140.8770 C   0  0  0  0  0  2  0  0  0  0  0  0
  190.1630  177.3830  143.7180 C   0  0  0  0  0  0  0  0  0  0  0  0
  190.0870  177.7840  142.3890 O   0  0  0  0  0  0  0  0  0  0  0  0
  190.0870  178.2550  144.6240 O   0  0  0  0  0  1  0  0  0  0  0  0
  191.3590  175.8150  145.2800 C   0  0  2  0  0  3  0  0  0  0  0  0
  193.9120  175.9810  145.3490 C   0  0  0  0  0  0  0  0  0  0  0  0
  195.2260  175.3090  145.6260 C   0  0  0  0  0  2  0  0  0  0  0  0
  192.7130  175.1610  144.9320 C   0  0  1  0  0  3  0  0  0  0  0  0
  192.7850  173.6650  145.3060 C   0  0  0  0  0  2  0  0  0  0  0  0
  195.2280  173.9470  145.0860 N   0  0  0  0  0  0  0  0  0  0  0  0
  193.8440  177.2010  145.3950 O   0  0  0  0  0  0  0  0  0  0  0  0
  194.1740  173.1990  145.7620 C   0  0  0  0  0  2  0  0  0  0  0  0
  197.1920  173.7240  146.8490 O   0  0  0  0  0  0  0  0  0  0  0  0
  196.5660  171.4480  145.5920 C   0  0  0  0  0  1  0  0  0  0  0  0
  196.7460  173.2200  145.5060 S   0  0  0  0  0  0  0  0  0  0  0  0
  197.7870  173.5620  144.4740 O   0  0  0  0  0  0  0  0  0  0  0  0
  190.7180  175.2080  146.5370 C   0  0  2  0  0  3  0  0  0  0  0  0
  190.4130  176.2470  147.4910 N   0  0  0  0  0  2  0  0  0  0  0  0
  191.5150  175.4180  147.6180 O   0  0  0  0  0  0  0  0  0  0  0  0
  192.0900  172.4460  141.6740 C   0  0  0  0  0  2  0  0  0  0  0  0
  194.2870  172.7990  140.5610 C   0  0  1  0  0  3  0  0  0  0  0  0
  194.6840  172.6150  142.0170 C   0  0  1  0  0  3  0  0  0  0  0  0
  193.3630  173.3040  141.6590 C   0  0  2  0  0  3  0  0  0  0  0  0
  194.5860  171.1450  142.3710 C   0  0  0  0  0  2  0  0  0  0  0  0
  197.0320  171.0290  141.9980 C   0  0  0  0  0  1  0  0  0  0  0  0
  195.7020  170.3810  141.6850 C   0  0  0  0  0  2  0  0  0  0  0  0
  195.0290  173.9090  139.9660 N   0  0  0  0  0  0  0  0  0  0  0  0
  197.7410  174.6640  139.8000 C   0  0  0  0  0  1  0  0  0  0  0  0
  196.4030  176.7900  141.7770 C   0  0  0  0  0  2  0  0  0  0  0  0
  195.2730  176.1910  140.9710 C   0  0  0  0  0  2  0  0  0  0  0  0
  197.0740  174.7070  141.1720 C   0  0  1  0  0  3  0  0  0  0  0  0
  197.4820  175.8820  141.8330 O   0  0  0  0  0  0  0  0  0  0  0  0
  195.5510  174.7190  141.0860 C   0  0  2  0  0  3  0  0  0  0  0  0
  194.0460  174.6910  139.2110 C   0  0  0  0  0  2  0  0  0  0  0  0
  193.7570  174.0220  137.8710 C   0  0  1  0  0  3  0  0  0  0  0  0
  192.6620  176.4980  135.6390 C   0  0  0  0  0  1  0  0  0  0  0  0
  192.3060  173.6000  137.8020 C   0  0  0  0  0  2  0  0  0  0  0  0
  191.6840  174.6240  136.9130 C   0  0  0  0  0  2  0  0  0  0  0  0
  192.8530  175.0570  136.0710 C   0  0  2  0  0  3  0  0  0  0  0  0
  194.0300  174.9330  136.8290 O   0  0  0  0  0  0  0  0  0  0  0  0
  1 13  1  6  0  0  0
  1 10  1  0  0  0  0
  1 16  1  0  0  0  0
  2  4  1  0  0  0  0
  3 10  1  0  0  0  0
  4 31  1  1  0  0  0
  4  6  1  0  0  0  0
  5  7  2  0  0  0  0
  6  8  1  6  0  0  0
  7  9  1  0  0  0  0
  7 12  1  0  0  0  0
  8  1  1  0  0  0  0
  9  2  1  0  0  0  0
 11 12  1  6  0  0  0
 11  6  1  0  0  0  0
 11  3  1  0  0  0  0
 13 15  1  0  0  0  0
 14 13  2  0  0  0  0
 16 19  1  6  0  0  0
 17 22  2  0  0  0  0
 17 18  1  0  0  0  0
 19 20  1  1  0  0  0
 19 17  1  0  0  0  0
 20 23  1  0  0  0  0
 21 26  1  0  0  0  0
 21 18  1  0  0  0  0
 21 23  1  0  0  0  0
 26 25  1  0  0  0  0
 26 24  2  0  0  0  0
 27 26  2  0  0  0  0
 28 16  1  6  0  0  0
 28 29  1  0  0  0  0
 28 30  1  0  0  0  0
 29 30  1  0  0  0  0
 32 38  1  6  0  0  0
 32 34  1  0  0  0  0
 32 33  1  0  0  0  0
 33 35  1  1  0  0  0
 34 31  1  1  0  0  0
 34 33  1  0  0  0  0
 37 36  1  0  0  0  0
 37 35  1  0  0  0  0
 40 43  1  0  0  0  0
 41 44  1  0  0  0  0
 41 40  1  0  0  0  0
 42 39  1  6  0  0  0
 42 43  1  0  0  0  0
 44 38  1  6  0  0  0
 44 42  1  0  0  0  0
 45 38  1  0  0  0  0
 46 45  1  1  0  0  0
 48 46  1  0  0  0  0
 49 48  1  0  0  0  0
 50 47  1  1  0  0  0
 50 51  1  0  0  0  0
 50 49  1  0  0  0  0
 51 46  1  0  0  0  0
M  END
>  <MODEL>
7

>  <REMARK>
 VINA RESULT:      -6.5      2.740      8.606
  Name = 
  13 active torsions:
  status: ('A' for Active; 'I' for Inactive)
    1  A    between atoms: C_2  and  N_37
    2  A    between atoms: C_5  and  C_10
    3  A    between atoms: C_5  and  C_15
    4  A    between atoms: C_9  and  C_15
    5  A    between atoms: C_12  and  C_43
    6  A    between atoms: C_15  and  C_21
    7  A    between atoms: C_16  and  C_51
    8  A    between atoms: C_19  and  C_32
    9  A    between atoms: S_24  and  N_39
   10  A    between atoms: C_32  and  C_40
   11  A    between atoms: N_37  and  C_43
   12  A    between atoms: N_37  and  C_45
   13  A    between atoms: C_38  and  C_51
                            x       y       z     vdW  Elec       q    Type
                         _______ _______ _______ _____ _____    ______ ____

>  <TORSDO>
F 13

$$$$
=
 OpenBabel11062421193D

 51 57  0  0  1  0  0  0  0  0999 V2000
  195.0580  172.2630  143.1670 C   0  0  2  0  0  0  0  0  0  0  0  0
  191.8530  175.1940  146.0180 C   0  0  0  0  0  2  0  0  0  0  0  0
  195.6770  172.8290  145.5670 C   0  0  0  0  0  2  0  0  0  0  0  0
  192.2730  174.6510  144.6440 C   0  0  1  0  0  3  0  0  0  0  0  0
  194.3840  177.4710  145.9760 O   0  0  0  0  0  0  0  0  0  0  0  0
  193.4010  173.5850  144.6530 C   0  0  1  0  0  3  0  0  0  0  0  0
  194.1530  176.2810  146.1230 C   0  0  0  0  0  0  0  0  0  0  0  0
  193.9890  173.3880  143.2460 C   0  0  0  0  0  2  0  0  0  0  0  0
  192.9280  175.8540  146.8840 C   0  0  0  0  0  2  0  0  0  0  0  0
  195.3870  171.7080  144.5690 C   0  0  0  0  0  2  0  0  0  0  0  0
  194.5370  173.8450  145.6660 C   0  0  2  0  0  3  0  0  0  0  0  0
  195.0990  175.2610  145.5460 C   0  0  0  0  0  2  0  0  0  0  0  0
  196.3400  172.8150  142.5760 C   0  0  0  0  0  0  0  0  0  0  0  0
  196.5020  174.1810  142.3780 O   0  0  0  0  0  1  0  0  0  0  0  0
  197.2630  172.0330  142.2220 O   0  0  0  0  0  0  0  0  0  0  0  0
  194.5350  171.0850  142.2960 C   0  0  2  0  0  3  0  0  0  0  0  0
  194.0130  171.0490  139.7900 C   0  0  0  0  0  0  0  0  0  0  0  0
  192.9970  170.8550  138.7030 C   0  0  0  0  0  2  0  0  0  0  0  0
  193.5780  171.5110  141.1630 C   0  0  1  0  0  3  0  0  0  0  0  0
  192.0900  171.2660  141.4910 C   0  0  0  0  0  2  0  0  0  0  0  0
  191.7340  171.5070  139.0600 N   0  0  0  0  0  0  0  0  0  0  0  0
  195.1990  170.9010  139.5330 O   0  0  0  0  0  0  0  0  0  0  0  0
  191.2360  170.8760  140.2780 C   0  0  0  0  0  2  0  0  0  0  0  0
  190.3110  172.4420  137.0310 O   0  0  0  0  0  0  0  0  0  0  0  0
  191.2780  169.9750  136.6650 C   0  0  0  0  0  1  0  0  0  0  0  0
  190.5980  171.1780  137.7910 S   0  0  0  0  0  0  0  0  0  0  0  0
  189.3150  170.6440  138.3710 O   0  0  0  0  0  0  0  0  0  0  0  0
  193.9830  169.9130  143.1230 C   0  0  2  0  0  3  0  0  0  0  0  0
  194.8920  168.7950  143.0700 N   0  0  0  0  0  2  0  0  0  0  0  0
  193.7310  168.8480  142.3170 O   0  0  0  0  0  0  0  0  0  0  0  0
  190.9970  174.2090  143.9110 C   0  0  0  0  0  2  0  0  0  0  0  0
  188.7110  175.1550  143.6500 C   0  0  1  0  0  3  0  0  0  0  0  0
  189.1210  174.8900  142.2100 C   0  0  1  0  0  3  0  0  0  0  0  0
  190.1680  175.3170  143.2450 C   0  0  2  0  0  3  0  0  0  0  0  0
  189.0300  173.4030  141.9390 C   0  0  0  0  0  2  0  0  0  0  0  0
  188.5960  174.1470  139.6160 C   0  0  0  0  0  1  0  0  0  0  0  0
  188.1990  173.1620  140.6940 C   0  0  0  0  0  2  0  0  0  0  0  0
  188.0630  176.4600  143.7650 N   0  0  0  0  0  0  0  0  0  0  0  0
  189.6020  177.9190  145.6250 C   0  0  0  0  0  1  0  0  0  0  0  0
  186.6340  177.9240  146.8130 C   0  0  0  0  0  2  0  0  0  0  0  0
  186.4990  177.6290  145.3360 C   0  0  0  0  0  2  0  0  0  0  0  0
  188.5730  176.9330  146.1710 C   0  0  1  0  0  3  0  0  0  0  0  0
  187.9130  177.5310  147.2620 O   0  0  0  0  0  0  0  0  0  0  0  0
  187.5220  176.5450  145.1370 C   0  0  2  0  0  3  0  0  0  0  0  0
  186.9590  176.4460  142.8010 C   0  0  0  0  0  2  0  0  0  0  0  0
  186.9580  177.7330  141.9830 C   0  0  1  0  0  3  0  0  0  0  0  0
  183.7080  178.2380  140.7620 C   0  0  0  0  0  1  0  0  0  0  0  0
  187.2420  177.4240  140.5290 C   0  0  0  0  0  2  0  0  0  0  0  0
  185.9060  177.5430  139.8770 C   0  0  0  0  0  2  0  0  0  0  0  0
  185.1990  178.5110  140.7870 C   0  0  2  0  0  3  0  0  0  0  0  0
  185.6960  178.3530  142.0920 O   0  0  0  0  0  0  0  0  0  0  0  0
  1 13  1  6  0  0  0
  1  8  1  0  0  0  0
  1 10  1  0  0  0  0
  2  9  1  0  0  0  0
  3 11  1  0  0  0  0
  4 31  1  1  0  0  0
  4  6  1  0  0  0  0
  4  2  1  0  0  0  0
  5  7  2  0  0  0  0
  6  8  1  6  0  0  0
  6 11  1  0  0  0  0
  7  9  1  0  0  0  0
 10  3  1  0  0  0  0
 11 12  1  6  0  0  0
 12  7  1  0  0  0  0
 14 13  1  0  0  0  0
 15 13  2  0  0  0  0
 16 19  1  6  0  0  0
 16  1  1  0  0  0  0
 17 19  1  0  0  0  0
 18 21  1  0  0  0  0
 18 17  1  0  0  0  0
 19 20  1  1  0  0  0
 21 23  1  0  0  0  0
 22 17  2  0  0  0  0
 23 20  1  0  0  0  0
 24 26  2  0  0  0  0
 25 26  1  0  0  0  0
 26 27  2  0  0  0  0
 26 21  1  0  0  0  0
 28 16  1  6  0  0  0
 29 28  1  0  0  0  0
 30 29  1  0  0  0  0
 30 28  1  0  0  0  0
 32 38  1  6  0  0  0
 33 35  1  1  0  0  0
 33 34  1  0  0  0  0
 33 32  1  0  0  0  0
 34 32  1  0  0  0  0
 34 31  1  1  0  0  0
 36 37  1  0  0  0  0
 37 35  1  0  0  0  0
 40 43  1  0  0  0  0
 41 40  1  0  0  0  0
 42 39  1  6  0  0  0
 42 43  1  0  0  0  0
 44 38  1  6  0  0  0
 44 41  1  0  0  0  0
 44 42  1  0  0  0  0
 45 38  1  0  0  0  0
 46 51  1  0  0  0  0
 46 45  1  1  0  0  0
 48 46  1  0  0  0  0
 49 48  1  0  0  0  0
 49 50  1  0  0  0  0
 50 47  1  1  0  0  0
 50 51  1  0  0  0  0
M  END
>  <MODEL>
8

>  <REMARK>
 VINA RESULT:      -6.4      2.197      3.910
  Name = 
  13 active torsions:
  status: ('A' for Active; 'I' for Inactive)
    1  A    between atoms: C_2  and  N_37
    2  A    between atoms: C_5  and  C_10
    3  A    between atoms: C_5  and  C_15
    4  A    between atoms: C_9  and  C_15
    5  A    between atoms: C_12  and  C_43
    6  A    between atoms: C_15  and  C_21
    7  A    between atoms: C_16  and  C_51
    8  A    between atoms: C_19  and  C_32
    9  A    between atoms: S_24  and  N_39
   10  A    between atoms: C_32  and  C_40
   11  A    between atoms: N_37  and  C_43
   12  A    between atoms: N_37  and  C_45
   13  A    between atoms: C_38  and  C_51
                            x       y       z     vdW  Elec       q    Type
                         _______ _______ _______ _____ _____    ______ ____

>  <TORSDO>
F 13

$$$$
=
 OpenBabel11062421193D

 51 57  0  0  1  0  0  0  0  0999 V2000
  191.6340  175.6190  144.9670 C   0  0  2  0  0  0  0  0  0  0  0  0
  195.9640  173.1730  143.4610 C   0  0  0  0  0  2  0  0  0  0  0  0
  193.8500  176.8660  144.9840 C   0  0  0  0  0  2  0  0  0  0  0  0
  194.4900  173.1050  143.8870 C   0  0  1  0  0  3  0  0  0  0  0  0
  196.9560  173.5760  146.6920 O   0  0  0  0  0  0  0  0  0  0  0  0
  193.7730  174.4690  144.0680 C   0  0  1  0  0  3  0  0  0  0  0  0
  196.4240  174.1610  145.7610 C   0  0  0  0  0  0  0  0  0  0  0  0
  192.4500  174.3030  144.8350 C   0  0  0  0  0  2  0  0  0  0  0  0
  196.9330  173.9410  144.3630 C   0  0  0  0  0  2  0  0  0  0  0  0
  192.4300  176.8240  144.4210 C   0  0  0  0  0  2  0  0  0  0  0  0
  194.6280  175.5730  144.7270 C   0  0  2  0  0  3  0  0  0  0  0  0
  195.2750  175.0970  146.0270 C   0  0  0  0  0  2  0  0  0  0  0  0
  191.3310  175.8890  146.4270 C   0  0  0  0  0  0  0  0  0  0  0  0
  191.0160  177.1710  146.8640 O   0  0  0  0  0  0  0  0  0  0  0  0
  191.3980  174.9570  147.2710 O   0  0  0  0  0  1  0  0  0  0  0  0
  190.3090  175.5130  144.1590 C   0  0  2  0  0  3  0  0  0  0  0  0
  188.8510  177.4530  143.3450 C   0  0  0  0  0  0  0  0  0  0  0  0
  187.5060  178.1180  143.3360 C   0  0  0  0  0  2  0  0  0  0  0  0
  189.2620  176.5890  144.5160 C   0  0  1  0  0  3  0  0  0  0  0  0
  188.0940  176.0480  145.3690 C   0  0  0  0  0  2  0  0  0  0  0  0
  186.9200  178.1070  144.6790 N   0  0  0  0  0  0  0  0  0  0  0  0
  189.6350  177.6760  142.4340 O   0  0  0  0  0  0  0  0  0  0  0  0
  186.7440  176.7140  145.0760 C   0  0  0  0  0  2  0  0  0  0  0  0
  184.5430  178.1280  143.5090 O   0  0  0  0  0  0  0  0  0  0  0  0
  184.4950  178.6690  146.1280 C   0  0  0  0  0  1  0  0  0  0  0  0
  185.3460  178.8280  144.5690 S   0  0  0  0  0  0  0  0  0  0  0  0
  185.4680  180.2870  144.2190 O   0  0  0  0  0  0  0  0  0  0  0  0
  189.7160  174.0960  144.1440 C   0  0  2  0  0  3  0  0  0  0  0  0
  190.0530  173.4280  142.9100 N   0  0  0  0  0  2  0  0  0  0  0  0
  188.8040  173.9800  143.1430 O   0  0  0  0  0  0  0  0  0  0  0  0
  193.7740  172.1430  142.9250 C   0  0  0  0  0  2  0  0  0  0  0  0
  193.0630  172.1340  140.5410 C   0  0  1  0  0  3  0  0  0  0  0  0
  193.9420  170.8960  140.6240 C   0  0  1  0  0  3  0  0  0  0  0  0
  194.2670  172.1320  141.4700 C   0  0  2  0  0  3  0  0  0  0  0  0
  193.1760  169.7960  141.3290 C   0  0  0  0  0  2  0  0  0  0  0  0
  190.8350  169.0350  141.6050 C   0  0  0  0  0  1  0  0  0  0  0  0
  191.8580  169.5580  140.6190 C   0  0  0  0  0  2  0  0  0  0  0  0
  193.3580  172.8890  139.3240 N   0  0  0  0  0  0  0  0  0  0  0  0
  191.5740  174.0940  137.5020 C   0  0  0  0  0  1  0  0  0  0  0  0
  192.9520  171.7170  135.8690 C   0  0  0  0  0  2  0  0  0  0  0  0
  193.8720  172.0240  137.0290 C   0  0  0  0  0  2  0  0  0  0  0  0
  191.6490  172.5700  137.5210 C   0  0  1  0  0  3  0  0  0  0  0  0
  191.6340  172.1040  136.1920 O   0  0  0  0  0  0  0  0  0  0  0  0
  192.9170  172.0510  138.1890 C   0  0  2  0  0  3  0  0  0  0  0  0
  194.8150  173.0380  139.2870 C   0  0  0  0  0  2  0  0  0  0  0  0
  195.1890  174.4910  139.0150 C   0  0  1  0  0  3  0  0  0  0  0  0
  197.9300  175.3030  141.0490 C   0  0  0  0  0  1  0  0  0  0  0  0
  194.4590  175.4050  139.9760 C   0  0  0  0  0  2  0  0  0  0  0  0
  195.5120  175.7900  140.9610 C   0  0  0  0  0  2  0  0  0  0  0  0
  196.7680  175.6590  140.1420 C   0  0  2  0  0  3  0  0  0  0  0  0
  196.5810  174.6520  139.1810 O   0  0  0  0  0  0  0  0  0  0  0  0
  1 13  1  1  0  0  0
  2  4  1  0  0  0  0
  2  9  1  0  0  0  0
  4 31  1  6  0  0  0
  4  6  1  0  0  0  0
  6 11  1  0  0  0  0
  6  8  1  1  0  0  0
  7 12  1  0  0  0  0
  7  5  2  0  0  0  0
  8  1  1  0  0  0  0
  9  7  1  0  0  0  0
 10  1  1  0  0  0  0
 10  3  1  0  0  0  0
 11  3  1  1  0  0  0
 11 12  1  0  0  0  0
 13 14  2  0  0  0  0
 13 15  1  0  0  0  0
 16 28  1  1  0  0  0
 16  1  1  0  0  0  0
 17 19  1  0  0  0  0
 18 17  1  0  0  0  0
 18 21  1  0  0  0  0
 19 16  1  6  0  0  0
 19 20  1  0  0  0  0
 21 23  1  0  0  0  0
 22 17  2  0  0  0  0
 23 20  1  0  0  0  0
 24 26  2  0  0  0  0
 26 21  1  0  0  0  0
 26 25  1  0  0  0  0
 27 26  2  0  0  0  0
 28 29  1  6  0  0  0
 29 30  1  0  0  0  0
 30 28  1  0  0  0  0
 32 38  1  6  0  0  0
 32 33  1  0  0  0  0
 32 34  1  0  0  0  0
 33 35  1  1  0  0  0
 33 34  1  0  0  0  0
 34 31  1  1  0  0  0
 37 35  1  0  0  0  0
 37 36  1  0  0  0  0
 40 43  1  0  0  0  0
 40 41  1  0  0  0  0
 41 44  1  0  0  0  0
 42 39  1  6  0  0  0
 42 44  1  0  0  0  0
 43 42  1  0  0  0  0
 44 38  1  1  0  0  0
 45 38  1  0  0  0  0
 46 51  1  0  0  0  0
 46 45  1  1  0  0  0
 46 48  1  0  0  0  0
 48 49  1  0  0  0  0
 50 49  1  0  0  0  0
 50 47  1  1  0  0  0
 51 50  1  0  0  0  0
M  END
>  <MODEL>
9

>  <REMARK>
 VINA RESULT:      -6.3      2.618      7.476
  Name = 
  13 active torsions:
  status: ('A' for Active; 'I' for Inactive)
    1  A    between atoms: C_2  and  N_37
    2  A    between atoms: C_5  and  C_10
    3  A    between atoms: C_5  and  C_15
    4  A    between atoms: C_9  and  C_15
    5  A    between atoms: C_12  and  C_43
    6  A    between atoms: C_15  and  C_21
    7  A    between atoms: C_16  and  C_51
    8  A    between atoms: C_19  and  C_32
    9  A    between atoms: S_24  and  N_39
   10  A    between atoms: C_32  and  C_40
   11  A    between atoms: N_37  and  C_43
   12  A    between atoms: N_37  and  C_45
   13  A    between atoms: C_38  and  C_51
                            x       y       z     vdW  Elec       q    Type
                         _______ _______ _______ _____ _____    ______ ____

>  <TORSDO>
F 13

$$$$
