=
 OpenBabel11062421323D

 55 60  0  0  1  0  0  0  0  0999 V2000
  189.2940  175.0480  144.0250 C   0  0  2  0  0  3  0  0  0  0  0  0
  190.1130  174.2750  146.1360 F   0  0  0  0  0  0  0  0  0  0  0  0
  188.0030  175.6140  143.9480 O   0  0  0  0  0  0  0  0  0  0  0  0
  187.9980  175.9740  146.8270 C   0  0  0  0  0  1  0  0  0  0  0  0
  188.0950  177.0270  144.0310 C   0  0  2  0  0  3  0  0  0  0  0  0
  189.9750  175.4020  145.3440 C   0  0  2  0  0  3  0  0  0  0  0  0
  190.0750  177.0870  147.0080 O   0  0  0  0  0  1  0  0  0  0  0  0
  189.2130  176.5160  146.0720 C   0  0  2  0  0  0  0  0  0  0  0  0
  188.8150  177.5240  145.1590 O   0  0  0  0  0  0  0  0  0  0  0  0
  186.7200  177.6360  143.9430 C   0  0  0  0  0  0  0  0  0  0  0  0
  186.0890  178.1010  145.0340 C   0  0  0  0  0  3  0  0  0  0  0  0
  183.9910  178.8570  143.6530 C   0  0  0  0  0  2  0  0  0  0  0  0
  186.4840  177.3290  141.4810 O   0  0  0  0  0  0  0  0  0  0  0  0
  184.2010  179.1300  146.0210 O   0  0  0  0  0  0  0  0  0  0  0  0
  184.7980  178.3160  142.5140 C   0  0  0  0  0  0  0  0  0  0  0  0
  184.4880  178.2460  141.1760 C   0  0  0  0  0  0  0  0  0  0  0  0
  185.5680  177.6180  140.5850 C   0  0  0  0  0  0  0  0  0  0  0  0
  186.0380  177.7450  142.6460 C   0  0  0  0  0  0  0  0  0  0  0  0
  184.7380  178.7150  144.9610 C   0  0  0  0  0  0  0  0  0  0  0  0
  183.2430  178.7220  140.5020 C   0  0  0  0  0  2  0  0  0  0  0  0
  182.0700  177.8580  140.9240 C   0  0  0  0  0  2  0  0  0  0  0  0
  180.6380  178.9040  141.2990 P   0  0  2  0  0  0  0  0  0  0  0  0
  180.6590  180.1100  140.3880 O   0  0  0  0  0  0  0  0  0  0  0  0
  180.7110  179.4160  142.9140 O   0  0  0  0  0  1  0  0  0  0  0  0
  178.9480  177.6590  139.5560 C   0  0  0  0  0  1  0  0  0  0  0  0
  179.1110  177.9590  141.0270 C   0  0  0  0  0  2  0  0  0  0  0  0
  185.6850  177.3030  139.1990 N   0  0  0  0  0  2  0  0  0  0  0  0
  186.8980  177.0820  138.6360 O   0  0  0  0  0  0  0  0  0  0  0  0
  187.0110  176.5870  136.2920 C   0  0  0  0  0  2  0  0  0  0  0  0
  188.7000  175.8100  134.6650 O   0  0  0  0  0  1  0  0  0  0  0  0
  188.3660  174.7410  136.8290 C   0  0  0  0  0  3  0  0  0  0  0  0
  187.6360  174.9430  137.9080 C   0  0  0  0  0  3  0  0  0  0  0  0
  188.0100  175.6560  135.8170 N   0  0  0  0  0  0  0  0  0  0  0  0
  186.6760  176.0740  137.6900 C   0  0  1  0  0  3  0  0  0  0  0  0
  190.1540  175.4000  142.8110 C   0  0  0  0  0  2  0  0  0  0  0  0
  191.5460  174.7930  142.9400 C   0  0  1  0  0  3  0  0  0  0  0  0
  191.6840  173.6550  141.9790 C   0  0  0  0  0  0  0  0  0  0  0  0
  191.4880  173.8970  140.5820 N   0  0  0  0  0  2  0  0  0  0  0  0
  191.9390  172.4930  142.4030 O   0  0  0  0  0  0  0  0  0  0  0  0
  191.4180  172.8590  139.5610 C   0  0  2  0  0  3  0  0  0  0  0  0
  191.7610  173.5290  137.9030 S   0  0  0  0  0  0  0  0  0  0  0  0
  189.7360  169.9840  137.5910 C   0  0  0  0  0  1  0  0  0  0  0  0
  190.2030  171.3580  137.9330 C   0  0  0  0  0  0  0  0  0  0  0  0
  191.0950  172.0260  137.1980 C   0  0  0  0  0  0  0  0  0  0  0  0
  189.7780  172.0730  139.5160 S   0  0  0  0  0  0  0  0  0  0  0  0
  191.6950  171.4680  135.9570 C   0  0  0  0  0  1  0  0  0  0  0  0
  192.6470  175.8350  142.6990 C   0  0  1  0  0  3  0  0  0  0  0  0
  192.1360  177.1320  142.7570 O   0  0  0  0  0  1  0  0  0  0  0  0
  195.4700  174.7240  142.1070 C   0  0  0  0  0  1  0  0  0  0  0  0
  197.1090  174.6500  144.5910 O   0  0  0  0  0  1  0  0  0  0  0  0
  195.0080  175.1740  143.4560 C   0  0  0  0  0  0  0  0  0  0  0  0
  195.2040  175.5840  145.7720 C   0  0  0  0  0  3  0  0  0  0  0  0
  195.8090  175.1250  144.6050 C   0  0  0  0  0  0  0  0  0  0  0  0
  193.6490  176.0640  145.3410 S   0  0  0  0  0  0  0  0  0  0  0  0
  193.7500  175.7010  143.7010 C   0  0  0  0  0  0  0  0  0  0  0  0
  1 35  1  6  0  0  0
  1  6  1  0  0  0  0
  3  1  1  0  0  0  0
  3  5  1  0  0  0  0
  5 10  1  1  0  0  0
  5  9  1  0  0  0  0
  6  8  1  0  0  0  0
  6  2  1  1  0  0  0
  8  4  1  1  0  0  0
  8  7  1  0  0  0  0
  9  8  1  0  0  0  0
 10 11  2  0  0  0  0
 12 19  1  0  0  0  0
 13 18  1  0  0  0  0
 15 18  2  0  0  0  0
 15 12  1  0  0  0  0
 16 15  1  0  0  0  0
 17 16  2  0  0  0  0
 17 13  1  0  0  0  0
 18 10  1  0  0  0  0
 19 11  1  0  0  0  0
 19 14  2  0  0  0  0
 20 21  1  0  0  0  0
 20 16  1  0  0  0  0
 21 22  1  0  0  0  0
 22 23  2  6  0  0  0
 22 24  1  0  0  0  0
 25 26  1  0  0  0  0
 26 22  1  0  0  0  0
 27 17  1  0  0  0  0
 28 27  1  0  0  0  0
 29 34  1  0  0  0  0
 30 33  1  0  0  0  0
 31 32  2  0  0  0  0
 33 29  1  0  0  0  0
 33 31  1  0  0  0  0
 34 32  1  0  0  0  0
 34 28  1  1  0  0  0
 36 35  1  6  0  0  0
 37 39  2  0  0  0  0
 37 36  1  0  0  0  0
 38 37  1  0  0  0  0
 40 38  1  1  0  0  0
 41 40  1  0  0  0  0
 42 43  1  0  0  0  0
 43 45  1  0  0  0  0
 44 41  1  0  0  0  0
 44 43  2  0  0  0  0
 45 40  1  0  0  0  0
 46 44  1  0  0  0  0
 47 48  1  1  0  0  0
 47 36  1  0  0  0  0
 47 55  1  0  0  0  0
 49 51  1  0  0  0  0
 50 53  1  0  0  0  0
 51 55  2  0  0  0  0
 51 53  1  0  0  0  0
 53 52  2  0  0  0  0
 54 52  1  0  0  0  0
 55 54  1  0  0  0  0
M  END
>  <MODEL>
1

>  <REMARK>
 VINA RESULT:      -8.2      0.000      0.000
  Name = 
  14 active torsions:
  status: ('A' for Active; 'I' for Inactive)
    1  A    between atoms: P_1  and  C_26
    2  A    between atoms: P_1  and  C_53
    3  A    between atoms: C_2  and  C_23
    4  A    between atoms: C_3  and  C_17
    5  A    between atoms: C_3  and  C_55
    6  A    between atoms: C_5  and  C_33
    7  A    between atoms: C_9  and  C_17
    8  A    between atoms: C_17  and  C_33
    9  A    between atoms: C_19  and  N_28
   10  A    between atoms: O_25  and  N_43
   11  A    between atoms: O_25  and  C_54
   12  A    between atoms: C_26  and  C_40
   13  A    between atoms: C_31  and  C_40
   14  A    between atoms: C_39  and  N_43
                            x       y       z     vdW  Elec       q    Type
                         _______ _______ _______ _____ _____    ______ ____

>  <TORSDO>
F 14

$$$$
=
 OpenBabel11062421323D

 55 60  0  0  1  0  0  0  0  0999 V2000
  195.3780  173.3220  144.1510 C   0  0  2  0  0  3  0  0  0  0  0  0
  197.4870  174.4480  144.0530 F   0  0  0  0  0  0  0  0  0  0  0  0
  194.3860  173.7870  145.0410 O   0  0  0  0  0  0  0  0  0  0  0  0
  195.7990  176.3090  145.2860 C   0  0  0  0  0  1  0  0  0  0  0  0
  193.4940  174.6500  144.3540 C   0  0  2  0  0  3  0  0  0  0  0  0
  196.1880  174.4790  143.5730 C   0  0  2  0  0  3  0  0  0  0  0  0
  196.0250  176.7680  142.9790 O   0  0  0  0  0  1  0  0  0  0  0  0
  195.5090  175.8220  143.8650 C   0  0  2  0  0  0  0  0  0  0  0  0
  194.1120  175.7290  143.6520 O   0  0  0  0  0  0  0  0  0  0  0  0
  192.4290  175.1440  145.2980 C   0  0  0  0  0  0  0  0  0  0  0  0
  192.5080  174.9230  146.6200 C   0  0  0  0  0  3  0  0  0  0  0  0
  190.2660  176.1980  147.0950 C   0  0  0  0  0  2  0  0  0  0  0  0
  191.0160  176.1900  143.5310 O   0  0  0  0  0  0  0  0  0  0  0  0
  191.6050  175.1720  148.7920 O   0  0  0  0  0  0  0  0  0  0  0  0
  190.2950  176.3890  145.6110 C   0  0  0  0  0  0  0  0  0  0  0  0
  189.3960  177.0310  144.7920 C   0  0  0  0  0  0  0  0  0  0  0  0
  189.8920  176.8690  143.5110 C   0  0  0  0  0  0  0  0  0  0  0  0
  191.2750  175.8970  144.7860 C   0  0  0  0  0  0  0  0  0  0  0  0
  191.4730  175.4150  147.5650 C   0  0  0  0  0  0  0  0  0  0  0  0
  188.1400  177.7320  145.1900 C   0  0  0  0  0  2  0  0  0  0  0  0
  187.0230  176.7220  145.3700 C   0  0  0  0  0  2  0  0  0  0  0  0
  185.9910  177.1880  146.7850 P   0  0  2  0  0  0  0  0  0  0  0  0
  186.3690  176.3290  147.9700 O   0  0  0  0  0  1  0  0  0  0  0  0
  184.3570  176.9400  146.4060 O   0  0  0  0  0  0  0  0  0  0  0  0
  187.3400  179.0600  148.2410 C   0  0  0  0  0  1  0  0  0  0  0  0
  186.2670  178.9370  147.1850 C   0  0  0  0  0  2  0  0  0  0  0  0
  189.2740  177.3510  142.3190 N   0  0  0  0  0  2  0  0  0  0  0  0
  188.0640  176.8840  141.9270 O   0  0  0  0  0  0  0  0  0  0  0  0
  186.5650  177.5750  140.1860 C   0  0  0  0  0  2  0  0  0  0  0  0
  184.1260  177.7090  139.8180 O   0  0  0  0  0  1  0  0  0  0  0  0
  185.1980  178.5220  141.8490 C   0  0  0  0  0  3  0  0  0  0  0  0
  186.4100  178.5330  142.3680 C   0  0  0  0  0  3  0  0  0  0  0  0
  185.2310  178.0070  140.5370 N   0  0  0  0  0  0  0  0  0  0  0  0
  187.4090  177.9970  141.3870 C   0  0  1  0  0  3  0  0  0  0  0  0
  194.8020  172.4130  143.0650 C   0  0  0  0  0  2  0  0  0  0  0  0
  194.0090  171.2690  143.6850 C   0  0  1  0  0  3  0  0  0  0  0  0
  192.7270  171.0870  142.9350 C   0  0  0  0  0  0  0  0  0  0  0  0
  192.1140  172.2250  142.3190 N   0  0  0  0  0  2  0  0  0  0  0  0
  192.1800  169.9510  142.8770 O   0  0  0  0  0  0  0  0  0  0  0  0
  190.7880  172.2290  141.7150 C   0  0  2  0  0  3  0  0  0  0  0  0
  190.7430  173.2570  140.2110 S   0  0  0  0  0  0  0  0  0  0  0  0
  186.9530  172.7420  141.6740 C   0  0  0  0  0  1  0  0  0  0  0  0
  188.4030  173.0290  141.4830 C   0  0  0  0  0  0  0  0  0  0  0  0
  188.9550  173.2170  140.2830 C   0  0  0  0  0  0  0  0  0  0  0  0
  189.5300  172.8660  142.8630 S   0  0  0  0  0  0  0  0  0  0  0  0
  188.1710  173.1750  139.0200 C   0  0  0  0  0  1  0  0  0  0  0  0
  194.8120  169.9600  143.6970 C   0  0  1  0  0  3  0  0  0  0  0  0
  195.8820  170.0160  142.8040 O   0  0  0  0  0  1  0  0  0  0  0  0
  193.3550  168.2610  145.8290 C   0  0  0  0  0  1  0  0  0  0  0  0
  194.9330  168.1660  148.3510 O   0  0  0  0  0  1  0  0  0  0  0  0
  194.6770  168.9260  146.0410 C   0  0  0  0  0  0  0  0  0  0  0  0
  196.6040  169.5450  147.2550 C   0  0  0  0  0  3  0  0  0  0  0  0
  195.3930  168.8590  147.2440 C   0  0  0  0  0  0  0  0  0  0  0  0
  196.7720  170.2310  145.7270 S   0  0  0  0  0  0  0  0  0  0  0  0
  195.3350  169.6580  145.0660 C   0  0  0  0  0  0  0  0  0  0  0  0
  1 35  1  6  0  0  0
  1  3  1  0  0  0  0
  5  3  1  0  0  0  0
  5 10  1  1  0  0  0
  6  8  1  0  0  0  0
  6  2  1  1  0  0  0
  6  1  1  0  0  0  0
  7  8  1  0  0  0  0
  8  4  1  1  0  0  0
  9  8  1  0  0  0  0
  9  5  1  0  0  0  0
 10 11  2  0  0  0  0
 11 19  1  0  0  0  0
 12 19  1  0  0  0  0
 13 18  1  0  0  0  0
 15 12  1  0  0  0  0
 16 20  1  0  0  0  0
 16 15  1  0  0  0  0
 17 13  1  0  0  0  0
 17 16  2  0  0  0  0
 18 10  1  0  0  0  0
 18 15  2  0  0  0  0
 19 14  2  0  0  0  0
 20 21  1  0  0  0  0
 21 22  1  0  0  0  0
 22 24  2  6  0  0  0
 22 26  1  0  0  0  0
 22 23  1  0  0  0  0
 26 25  1  0  0  0  0
 27 17  1  0  0  0  0
 28 27  1  0  0  0  0
 29 33  1  0  0  0  0
 29 34  1  0  0  0  0
 30 33  1  0  0  0  0
 31 32  2  0  0  0  0
 33 31  1  0  0  0  0
 34 28  1  1  0  0  0
 34 32  1  0  0  0  0
 36 35  1  6  0  0  0
 36 47  1  0  0  0  0
 37 36  1  0  0  0  0
 38 37  1  0  0  0  0
 39 37  2  0  0  0  0
 40 38  1  1  0  0  0
 40 45  1  0  0  0  0
 41 44  1  0  0  0  0
 41 40  1  0  0  0  0
 43 42  1  0  0  0  0
 43 45  1  0  0  0  0
 44 43  2  0  0  0  0
 46 44  1  0  0  0  0
 47 48  1  6  0  0  0
 47 55  1  0  0  0  0
 49 51  1  0  0  0  0
 51 53  1  0  0  0  0
 53 52  2  0  0  0  0
 53 50  1  0  0  0  0
 54 52  1  0  0  0  0
 55 54  1  0  0  0  0
 55 51  2  0  0  0  0
M  END
>  <MODEL>
2

>  <REMARK>
 VINA RESULT:      -7.5      3.646      6.435
  Name = 
  14 active torsions:
  status: ('A' for Active; 'I' for Inactive)
    1  A    between atoms: P_1  and  C_26
    2  A    between atoms: P_1  and  C_53
    3  A    between atoms: C_2  and  C_23
    4  A    between atoms: C_3  and  C_17
    5  A    between atoms: C_3  and  C_55
    6  A    between atoms: C_5  and  C_33
    7  A    between atoms: C_9  and  C_17
    8  A    between atoms: C_17  and  C_33
    9  A    between atoms: C_19  and  N_28
   10  A    between atoms: O_25  and  N_43
   11  A    between atoms: O_25  and  C_54
   12  A    between atoms: C_26  and  C_40
   13  A    between atoms: C_31  and  C_40
   14  A    between atoms: C_39  and  N_43
                            x       y       z     vdW  Elec       q    Type
                         _______ _______ _______ _____ _____    ______ ____

>  <TORSDO>
F 14

$$$$
=
 OpenBabel11062421323D

 55 60  0  0  1  0  0  0  0  0999 V2000
  195.2490  173.3700  144.0840 C   0  0  2  0  0  3  0  0  0  0  0  0
  197.3410  174.4500  144.5100 F   0  0  0  0  0  0  0  0  0  0  0  0
  194.1220  173.7120  144.8620 O   0  0  0  0  0  0  0  0  0  0  0  0
  195.4660  176.1340  145.7280 C   0  0  0  0  0  1  0  0  0  0  0  0
  193.3520  174.6910  144.1820 C   0  0  2  0  0  3  0  0  0  0  0  0
  196.1390  174.5840  143.8360 C   0  0  2  0  0  3  0  0  0  0  0  0
  196.0680  176.9400  143.5900 O   0  0  0  0  0  1  0  0  0  0  0  0
  195.4160  175.8800  144.2200 C   0  0  2  0  0  0  0  0  0  0  0  0
  194.0730  175.8530  143.7700 O   0  0  0  0  0  0  0  0  0  0  0  0
  192.1450  175.0560  145.0060 C   0  0  0  0  0  0  0  0  0  0  0  0
  192.2120  175.1540  146.3430 C   0  0  0  0  0  3  0  0  0  0  0  0
  189.6830  175.8180  146.5490 C   0  0  0  0  0  2  0  0  0  0  0  0
  190.5920  175.2610  143.0670 O   0  0  0  0  0  0  0  0  0  0  0  0
  191.1630  175.5970  148.4170 O   0  0  0  0  0  0  0  0  0  0  0  0
  189.7360  175.6890  145.0590 C   0  0  0  0  0  0  0  0  0  0  0  0
  188.7390  175.8620  144.1280 C   0  0  0  0  0  0  0  0  0  0  0  0
  189.3260  175.5760  142.9100 C   0  0  0  0  0  0  0  0  0  0  0  0
  190.8560  175.3270  144.3530 C   0  0  0  0  0  0  0  0  0  0  0  0
  191.0330  175.5250  147.1670 C   0  0  0  0  0  0  0  0  0  0  0  0
  187.3190  176.2500  144.3750 C   0  0  0  0  0  2  0  0  0  0  0  0
  187.2540  177.6900  144.8450 C   0  0  0  0  0  2  0  0  0  0  0  0
  185.6920  177.9870  145.7120 P   0  0  2  0  0  0  0  0  0  0  0  0
  185.9220  179.0080  146.8030 O   0  0  0  0  0  1  0  0  0  0  0  0
  185.1370  176.5410  146.4020 O   0  0  0  0  0  0  0  0  0  0  0  0
  184.8840  179.9690  144.0200 C   0  0  0  0  0  1  0  0  0  0  0  0
  184.4580  178.6160  144.5380 C   0  0  0  0  0  2  0  0  0  0  0  0
  188.6630  175.5990  141.6470 N   0  0  0  0  0  2  0  0  0  0  0  0
  188.1790  174.4580  141.0960 O   0  0  0  0  0  0  0  0  0  0  0  0
  189.4940  172.6350  140.2610 C   0  0  0  0  0  2  0  0  0  0  0  0
  189.2200  170.7530  138.6840 O   0  0  0  0  0  1  0  0  0  0  0  0
  188.5540  173.0330  138.1420 C   0  0  0  0  0  3  0  0  0  0  0  0
  188.4980  174.1990  138.7550 C   0  0  0  0  0  3  0  0  0  0  0  0
  189.1760  172.0740  138.9660 N   0  0  0  0  0  0  0  0  0  0  0  0
  189.1170  174.1070  140.1180 C   0  0  1  0  0  3  0  0  0  0  0  0
  194.8630  172.6540  142.7890 C   0  0  0  0  0  2  0  0  0  0  0  0
  194.1800  171.3250  143.0910 C   0  0  1  0  0  3  0  0  0  0  0  0
  193.1880  171.0190  142.0130 C   0  0  0  0  0  0  0  0  0  0  0  0
  193.6340  170.3530  140.8270 N   0  0  0  0  0  2  0  0  0  0  0  0
  191.9830  171.3730  142.1390 O   0  0  0  0  0  0  0  0  0  0  0  0
  192.8230  170.1520  139.6320 C   0  0  2  0  0  3  0  0  0  0  0  0
  193.1970  168.5580  138.8330 S   0  0  0  0  0  0  0  0  0  0  0  0
  191.4080  171.0870  136.1540 C   0  0  0  0  0  1  0  0  0  0  0  0
  192.2790  170.4500  137.1840 C   0  0  0  0  0  0  0  0  0  0  0  0
  192.3340  169.1300  137.3740 C   0  0  0  0  0  0  0  0  0  0  0  0
  193.0970  171.4670  138.4070 S   0  0  0  0  0  0  0  0  0  0  0  0
  191.5440  168.1660  136.5620 C   0  0  0  0  0  1  0  0  0  0  0  0
  195.1940  170.1810  143.2270 C   0  0  1  0  0  3  0  0  0  0  0  0
  196.4240  170.5270  142.6670 O   0  0  0  0  0  1  0  0  0  0  0  0
  193.2360  168.5010  144.9300 C   0  0  0  0  0  1  0  0  0  0  0  0
  194.2370  168.2360  147.7210 O   0  0  0  0  0  1  0  0  0  0  0  0
  194.5140  169.0820  145.4440 C   0  0  0  0  0  0  0  0  0  0  0  0
  196.1690  169.5510  147.0610 C   0  0  0  0  0  3  0  0  0  0  0  0
  194.9540  168.9360  146.7660 C   0  0  0  0  0  0  0  0  0  0  0  0
  196.6900  170.2750  145.6330 S   0  0  0  0  0  0  0  0  0  0  0  0
  195.4000  169.8060  144.6610 C   0  0  0  0  0  0  0  0  0  0  0  0
  1 35  1  6  0  0  0
  1  3  1  0  0  0  0
  5  3  1  0  0  0  0
  5 10  1  1  0  0  0
  6  1  1  0  0  0  0
  6  8  1  0  0  0  0
  6  2  1  1  0  0  0
  7  8  1  0  0  0  0
  8  4  1  1  0  0  0
  9  5  1  0  0  0  0
  9  8  1  0  0  0  0
 10 11  2  0  0  0  0
 11 19  1  0  0  0  0
 12 19  1  0  0  0  0
 13 18  1  0  0  0  0
 15 12  1  0  0  0  0
 16 20  1  0  0  0  0
 16 15  1  0  0  0  0
 17 13  1  0  0  0  0
 17 16  2  0  0  0  0
 18 10  1  0  0  0  0
 18 15  2  0  0  0  0
 19 14  2  0  0  0  0
 20 21  1  0  0  0  0
 21 22  1  0  0  0  0
 22 24  2  1  0  0  0
 22 23  1  0  0  0  0
 25 26  1  0  0  0  0
 26 22  1  0  0  0  0
 27 17  1  0  0  0  0
 28 27  1  0  0  0  0
 30 33  1  0  0  0  0
 31 32  2  0  0  0  0
 31 33  1  0  0  0  0
 32 34  1  0  0  0  0
 33 29  1  0  0  0  0
 34 29  1  0  0  0  0
 34 28  1  1  0  0  0
 36 35  1  6  0  0  0
 36 47  1  0  0  0  0
 37 39  2  0  0  0  0
 37 36  1  0  0  0  0
 38 37  1  0  0  0  0
 40 38  1  1  0  0  0
 41 40  1  0  0  0  0
 42 43  1  0  0  0  0
 43 44  2  0  0  0  0
 43 45  1  0  0  0  0
 44 41  1  0  0  0  0
 45 40  1  0  0  0  0
 46 44  1  0  0  0  0
 47 48  1  1  0  0  0
 47 55  1  0  0  0  0
 49 51  1  0  0  0  0
 51 53  1  0  0  0  0
 53 52  2  0  0  0  0
 53 50  1  0  0  0  0
 54 52  1  0  0  0  0
 55 51  2  0  0  0  0
 55 54  1  0  0  0  0
M  END
>  <MODEL>
3

>  <REMARK>
 VINA RESULT:      -6.9      3.539      5.826
  Name = 
  14 active torsions:
  status: ('A' for Active; 'I' for Inactive)
    1  A    between atoms: P_1  and  C_26
    2  A    between atoms: P_1  and  C_53
    3  A    between atoms: C_2  and  C_23
    4  A    between atoms: C_3  and  C_17
    5  A    between atoms: C_3  and  C_55
    6  A    between atoms: C_5  and  C_33
    7  A    between atoms: C_9  and  C_17
    8  A    between atoms: C_17  and  C_33
    9  A    between atoms: C_19  and  N_28
   10  A    between atoms: O_25  and  N_43
   11  A    between atoms: O_25  and  C_54
   12  A    between atoms: C_26  and  C_40
   13  A    between atoms: C_31  and  C_40
   14  A    between atoms: C_39  and  N_43
                            x       y       z     vdW  Elec       q    Type
                         _______ _______ _______ _____ _____    ______ ____

>  <TORSDO>
F 14

$$$$
=
 OpenBabel11062421323D

 55 60  0  0  1  0  0  0  0  0999 V2000
  192.8780  176.5140  143.7430 C   0  0  2  0  0  3  0  0  0  0  0  0
  194.1410  177.2670  145.6290 F   0  0  0  0  0  0  0  0  0  0  0  0
  193.4990  176.4450  142.4760 O   0  0  0  0  0  0  0  0  0  0  0  0
  196.1000  176.5750  143.7550 C   0  0  0  0  0  1  0  0  0  0  0  0
  193.9660  175.1260  142.2450 C   0  0  2  0  0  3  0  0  0  0  0  0
  193.8550  176.1540  144.8580 C   0  0  2  0  0  3  0  0  0  0  0  0
  195.7690  174.8340  145.3190 O   0  0  0  0  0  1  0  0  0  0  0  0
  195.1290  175.5200  144.2870 C   0  0  2  0  0  0  0  0  0  0  0  0
  194.8070  174.5900  143.2670 O   0  0  0  0  0  0  0  0  0  0  0  0
  194.6250  175.0460  140.8920 C   0  0  0  0  0  0  0  0  0  0  0  0
  195.9060  175.4070  140.7150 C   0  0  0  0  0  3  0  0  0  0  0  0
  195.8500  174.8190  138.1590 C   0  0  0  0  0  2  0  0  0  0  0  0
  192.6140  174.1770  139.7030 O   0  0  0  0  0  0  0  0  0  0  0  0
  197.7750  175.6780  139.2900 O   0  0  0  0  0  0  0  0  0  0  0  0
  194.4390  174.4380  138.4840 C   0  0  0  0  0  0  0  0  0  0  0  0
  193.4530  173.9470  137.6620 C   0  0  0  0  0  0  0  0  0  0  0  0
  192.3400  173.8120  138.4710 C   0  0  0  0  0  0  0  0  0  0  0  0
  193.8740  174.5530  139.7290 C   0  0  0  0  0  0  0  0  0  0  0  0
  196.5730  175.3220  139.3900 C   0  0  0  0  0  0  0  0  0  0  0  0
  193.5470  173.6480  136.2030 C   0  0  0  0  0  2  0  0  0  0  0  0
  194.1950  172.2920  135.9980 C   0  0  0  0  0  2  0  0  0  0  0  0
  192.9520  171.0880  135.4630 P   0  0  2  0  0  0  0  0  0  0  0  0
  193.5970  170.1050  134.5130 O   0  0  0  0  0  0  0  0  0  0  0  0
  191.6830  171.8880  134.6710 O   0  0  0  0  0  1  0  0  0  0  0  0
  190.8200  169.9800  136.7570 C   0  0  0  0  0  1  0  0  0  0  0  0
  192.3050  170.2020  136.9110 C   0  0  0  0  0  2  0  0  0  0  0  0
  191.0580  173.3550  138.0440 N   0  0  0  0  0  2  0  0  0  0  0  0
  189.9230  173.8770  138.5720 O   0  0  0  0  0  0  0  0  0  0  0  0
  187.7770  174.6510  137.8300 C   0  0  0  0  0  2  0  0  0  0  0  0
  186.8710  176.4990  136.4630 O   0  0  0  0  0  1  0  0  0  0  0  0
  188.7610  175.1360  135.7500 C   0  0  0  0  0  3  0  0  0  0  0  0
  189.5030  174.1680  136.2510 C   0  0  0  0  0  3  0  0  0  0  0  0
  187.6940  175.4370  136.6200 N   0  0  0  0  0  0  0  0  0  0  0  0
  188.9570  173.7160  137.5720 C   0  0  1  0  0  3  0  0  0  0  0  0
  191.5930  175.6870  143.8020 C   0  0  0  0  0  2  0  0  0  0  0  0
  191.2480  175.3300  145.2430 C   0  0  1  0  0  3  0  0  0  0  0  0
  190.1470  176.2200  145.7270 C   0  0  0  0  0  0  0  0  0  0  0  0
  189.0160  176.4510  144.8800 N   0  0  0  0  0  2  0  0  0  0  0  0
  190.2340  176.7830  146.8530 O   0  0  0  0  0  0  0  0  0  0  0  0
  187.9640  177.4240  145.1450 C   0  0  2  0  0  3  0  0  0  0  0  0
  186.6770  176.7370  146.2360 S   0  0  0  0  0  0  0  0  0  0  0  0
  185.2010  179.9550  144.1790 C   0  0  0  0  0  1  0  0  0  0  0  0
  185.8390  178.6740  144.5960 C   0  0  0  0  0  0  0  0  0  0  0  0
  185.6150  178.1040  145.7830 C   0  0  0  0  0  0  0  0  0  0  0  0
  187.1580  177.9760  143.6110 S   0  0  0  0  0  0  0  0  0  0  0  0
  184.6940  178.6840  146.7940 C   0  0  0  0  0  1  0  0  0  0  0  0
  190.8450  173.8550  145.3840 C   0  0  1  0  0  3  0  0  0  0  0  0
  189.5870  173.7290  145.9730 O   0  0  0  0  0  1  0  0  0  0  0  0
  193.0630  171.9810  144.3250 C   0  0  0  0  0  1  0  0  0  0  0  0
  192.4250  171.0540  141.5690 O   0  0  0  0  0  1  0  0  0  0  0  0
  191.8360  172.3510  143.5560 C   0  0  0  0  0  0  0  0  0  0  0  0
  190.3750  172.3500  141.7020 C   0  0  0  0  0  3  0  0  0  0  0  0
  191.5680  171.8950  142.2590 C   0  0  0  0  0  0  0  0  0  0  0  0
  189.6540  173.3290  142.8660 S   0  0  0  0  0  0  0  0  0  0  0  0
  190.8330  173.1670  144.0550 C   0  0  0  0  0  0  0  0  0  0  0  0
  1 35  1  6  0  0  0
  1  6  1  0  0  0  0
  3  1  1  0  0  0  0
  5 10  1  6  0  0  0
  5  3  1  0  0  0  0
  5  9  1  0  0  0  0
  6  2  1  6  0  0  0
  8  4  1  6  0  0  0
  8  6  1  0  0  0  0
  8  7  1  0  0  0  0
  9  8  1  0  0  0  0
 11 10  2  0  0  0  0
 12 15  1  0  0  0  0
 12 19  1  0  0  0  0
 13 18  1  0  0  0  0
 14 19  2  0  0  0  0
 15 18  2  0  0  0  0
 16 17  2  0  0  0  0
 16 15  1  0  0  0  0
 17 13  1  0  0  0  0
 18 10  1  0  0  0  0
 19 11  1  0  0  0  0
 20 16  1  0  0  0  0
 21 20  1  0  0  0  0
 22 23  2  6  0  0  0
 22 21  1  0  0  0  0
 22 26  1  0  0  0  0
 24 22  1  0  0  0  0
 25 26  1  0  0  0  0
 27 17  1  0  0  0  0
 27 28  1  0  0  0  0
 30 33  1  0  0  0  0
 31 32  2  0  0  0  0
 31 33  1  0  0  0  0
 32 34  1  0  0  0  0
 33 29  1  0  0  0  0
 34 29  1  0  0  0  0
 34 28  1  1  0  0  0
 36 35  1  6  0  0  0
 36 47  1  0  0  0  0
 36 37  1  0  0  0  0
 37 39  2  0  0  0  0
 38 37  1  0  0  0  0
 40 38  1  6  0  0  0
 40 41  1  0  0  0  0
 42 43  1  0  0  0  0
 43 44  2  0  0  0  0
 44 41  1  0  0  0  0
 44 46  1  0  0  0  0
 45 43  1  0  0  0  0
 45 40  1  0  0  0  0
 47 48  1  6  0  0  0
 50 53  1  0  0  0  0
 51 55  2  0  0  0  0
 51 49  1  0  0  0  0
 52 53  2  0  0  0  0
 52 54  1  0  0  0  0
 53 51  1  0  0  0  0
 54 55  1  0  0  0  0
 55 47  1  0  0  0  0
M  END
>  <MODEL>
4

>  <REMARK>
 VINA RESULT:      -6.9      4.020      9.050
  Name = 
  14 active torsions:
  status: ('A' for Active; 'I' for Inactive)
    1  A    between atoms: P_1  and  C_26
    2  A    between atoms: P_1  and  C_53
    3  A    between atoms: C_2  and  C_23
    4  A    between atoms: C_3  and  C_17
    5  A    between atoms: C_3  and  C_55
    6  A    between atoms: C_5  and  C_33
    7  A    between atoms: C_9  and  C_17
    8  A    between atoms: C_17  and  C_33
    9  A    between atoms: C_19  and  N_28
   10  A    between atoms: O_25  and  N_43
   11  A    between atoms: O_25  and  C_54
   12  A    between atoms: C_26  and  C_40
   13  A    between atoms: C_31  and  C_40
   14  A    between atoms: C_39  and  N_43
                            x       y       z     vdW  Elec       q    Type
                         _______ _______ _______ _____ _____    ______ ____

>  <TORSDO>
F 14

$$$$
=
 OpenBabel11062421323D

 55 60  0  0  1  0  0  0  0  0999 V2000
  189.1300  174.3540  142.9770 C   0  0  2  0  0  3  0  0  0  0  0  0
  186.9900  174.8360  142.0220 F   0  0  0  0  0  0  0  0  0  0  0  0
  189.7270  173.0970  142.7370 O   0  0  0  0  0  0  0  0  0  0  0  0
  187.9150  172.6680  140.5120 C   0  0  0  0  0  1  0  0  0  0  0  0
  190.6290  173.1970  141.6470 C   0  0  2  0  0  3  0  0  0  0  0  0
  188.3490  174.8350  141.7580 C   0  0  2  0  0  3  0  0  0  0  0  0
  188.3050  174.7110  139.3910 O   0  0  0  0  0  1  0  0  0  0  0  0
  188.6840  173.9900  140.5230 C   0  0  2  0  0  0  0  0  0  0  0  0
  190.0780  173.7480  140.4510 O   0  0  0  0  0  0  0  0  0  0  0  0
  191.2740  171.8600  141.3910 C   0  0  0  0  0  0  0  0  0  0  0  0
  190.6260  170.7110  141.6410 C   0  0  0  0  0  3  0  0  0  0  0  0
  192.6420  169.2480  140.8180 C   0  0  0  0  0  2  0  0  0  0  0  0
  193.4310  172.7940  140.5610 O   0  0  0  0  0  0  0  0  0  0  0  0
  190.5840  168.3450  141.6390 O   0  0  0  0  0  0  0  0  0  0  0  0
  193.2550  170.5910  140.5720 C   0  0  0  0  0  0  0  0  0  0  0  0
  194.4980  170.9100  140.0780 C   0  0  0  0  0  0  0  0  0  0  0  0
  194.5540  172.2920  140.1010 C   0  0  0  0  0  0  0  0  0  0  0  0
  192.6370  171.7860  140.8460 C   0  0  0  0  0  0  0  0  0  0  0  0
  191.2440  169.3850  141.3820 C   0  0  0  0  0  0  0  0  0  0  0  0
  195.5710  169.9730  139.6350 C   0  0  0  0  0  2  0  0  0  0  0  0
  195.3030  169.5210  138.2120 C   0  0  0  0  0  2  0  0  0  0  0  0
  196.5180  170.2620  137.0900 P   0  0  2  0  0  0  0  0  0  0  0  0
  196.8410  169.2720  135.9950 O   0  0  0  0  0  0  0  0  0  0  0  0
  197.9330  170.6370  137.9460 O   0  0  0  0  0  1  0  0  0  0  0  0
  196.7560  172.3050  135.2980 C   0  0  0  0  0  1  0  0  0  0  0  0
  195.8250  171.7740  136.3620 C   0  0  0  0  0  2  0  0  0  0  0  0
  195.6720  173.0800  139.6990 N   0  0  0  0  0  2  0  0  0  0  0  0
  196.9060  172.8480  140.2110 O   0  0  0  0  0  0  0  0  0  0  0  0
  196.4580  175.1940  139.9900 C   0  0  0  0  0  2  0  0  0  0  0  0
  195.2900  176.9620  141.2600 O   0  0  0  0  0  1  0  0  0  0  0  0
  196.8500  175.4040  142.2990 C   0  0  0  0  0  3  0  0  0  0  0  0
  197.5510  174.3480  141.9380 C   0  0  0  0  0  3  0  0  0  0  0  0
  196.2140  175.9780  141.1790 N   0  0  0  0  0  0  0  0  0  0  0  0
  197.4360  174.1190  140.4610 C   0  0  1  0  0  3  0  0  0  0  0  0
  190.1400  175.3900  143.4710 C   0  0  0  0  0  2  0  0  0  0  0  0
  190.0440  175.5590  144.9820 C   0  0  1  0  0  3  0  0  0  0  0  0
  191.3490  175.1820  145.6100 C   0  0  0  0  0  0  0  0  0  0  0  0
  192.2550  174.3470  144.8800 N   0  0  0  0  0  2  0  0  0  0  0  0
  191.6270  175.5690  146.7780 O   0  0  0  0  0  0  0  0  0  0  0  0
  193.4710  173.7610  145.4320 C   0  0  2  0  0  3  0  0  0  0  0  0
  194.8680  174.9280  145.3560 S   0  0  0  0  0  0  0  0  0  0  0  0
  196.2590  171.0940  145.7250 C   0  0  0  0  0  1  0  0  0  0  0  0
  195.5600  172.3470  145.3180 C   0  0  0  0  0  0  0  0  0  0  0  0
  195.9770  173.5620  145.6800 C   0  0  0  0  0  0  0  0  0  0  0  0
  193.9540  172.2540  144.5360 S   0  0  0  0  0  0  0  0  0  0  0  0
  197.1900  173.7830  146.5110 C   0  0  0  0  0  1  0  0  0  0  0  0
  189.6560  176.9930  145.3720 C   0  0  1  0  0  3  0  0  0  0  0  0
  190.3330  177.9290  144.5890 O   0  0  0  0  0  1  0  0  0  0  0  0
  187.5190  176.1230  147.4280 C   0  0  0  0  0  1  0  0  0  0  0  0
  184.7890  176.7910  146.4480 O   0  0  0  0  0  1  0  0  0  0  0  0
  187.2130  176.7990  146.1300 C   0  0  0  0  0  0  0  0  0  0  0  0
  185.8260  177.7280  144.4620 C   0  0  0  0  0  3  0  0  0  0  0  0
  185.9130  177.0990  145.7010 C   0  0  0  0  0  0  0  0  0  0  0  0
  187.4070  177.9120  143.9130 S   0  0  0  0  0  0  0  0  0  0  0  0
  188.1830  177.2140  145.2320 C   0  0  0  0  0  0  0  0  0  0  0  0
  1 35  1  6  0  0  0
  3  1  1  0  0  0  0
  5 10  1  6  0  0  0
  5  3  1  0  0  0  0
  6  2  1  1  0  0  0
  6  1  1  0  0  0  0
  7  8  1  0  0  0  0
  8  4  1  1  0  0  0
  8  6  1  0  0  0  0
  9  8  1  0  0  0  0
  9  5  1  0  0  0  0
 10 11  2  0  0  0  0
 12 19  1  0  0  0  0
 13 18  1  0  0  0  0
 15 12  1  0  0  0  0
 15 18  2  0  0  0  0
 16 17  2  0  0  0  0
 16 15  1  0  0  0  0
 17 13  1  0  0  0  0
 18 10  1  0  0  0  0
 19 14  2  0  0  0  0
 19 11  1  0  0  0  0
 20 16  1  0  0  0  0
 21 20  1  0  0  0  0
 22 23  2  6  0  0  0
 22 24  1  0  0  0  0
 22 21  1  0  0  0  0
 25 26  1  0  0  0  0
 26 22  1  0  0  0  0
 27 17  1  0  0  0  0
 27 28  1  0  0  0  0
 29 34  1  0  0  0  0
 29 33  1  0  0  0  0
 32 31  2  0  0  0  0
 33 30  1  0  0  0  0
 33 31  1  0  0  0  0
 34 28  1  1  0  0  0
 34 32  1  0  0  0  0
 36 35  1  6  0  0  0
 36 47  1  0  0  0  0
 36 37  1  0  0  0  0
 37 39  2  0  0  0  0
 38 37  1  0  0  0  0
 40 38  1  6  0  0  0
 41 40  1  0  0  0  0
 41 44  1  0  0  0  0
 43 44  2  0  0  0  0
 43 42  1  0  0  0  0
 44 46  1  0  0  0  0
 45 43  1  0  0  0  0
 45 40  1  0  0  0  0
 47 48  1  6  0  0  0
 51 49  1  0  0  0  0
 52 53  2  0  0  0  0
 53 51  1  0  0  0  0
 53 50  1  0  0  0  0
 54 52  1  0  0  0  0
 54 55  1  0  0  0  0
 55 47  1  0  0  0  0
 55 51  2  0  0  0  0
M  END
>  <MODEL>
5

>  <REMARK>
 VINA RESULT:      -6.7      4.771     10.402
  Name = 
  14 active torsions:
  status: ('A' for Active; 'I' for Inactive)
    1  A    between atoms: P_1  and  C_26
    2  A    between atoms: P_1  and  C_53
    3  A    between atoms: C_2  and  C_23
    4  A    between atoms: C_3  and  C_17
    5  A    between atoms: C_3  and  C_55
    6  A    between atoms: C_5  and  C_33
    7  A    between atoms: C_9  and  C_17
    8  A    between atoms: C_17  and  C_33
    9  A    between atoms: C_19  and  N_28
   10  A    between atoms: O_25  and  N_43
   11  A    between atoms: O_25  and  C_54
   12  A    between atoms: C_26  and  C_40
   13  A    between atoms: C_31  and  C_40
   14  A    between atoms: C_39  and  N_43
                            x       y       z     vdW  Elec       q    Type
                         _______ _______ _______ _____ _____    ______ ____

>  <TORSDO>
F 14

$$$$
=
 OpenBabel11062421323D

 55 60  0  0  1  0  0  0  0  0999 V2000
  189.0880  175.2930  144.6500 C   0  0  2  0  0  3  0  0  0  0  0  0
  190.6500  176.6940  145.7990 F   0  0  0  0  0  0  0  0  0  0  0  0
  188.0680  175.8850  143.8740 O   0  0  0  0  0  0  0  0  0  0  0  0
  189.5350  178.3890  143.8710 C   0  0  0  0  0  1  0  0  0  0  0  0
  188.4750  175.9440  142.5160 C   0  0  2  0  0  3  0  0  0  0  0  0
  190.3790  176.1030  144.5770 C   0  0  2  0  0  3  0  0  0  0  0  0
  191.6150  177.5340  143.1470 O   0  0  0  0  0  1  0  0  0  0  0  0
  190.3110  177.1410  143.4500 C   0  0  2  0  0  0  0  0  0  0  0  0
  189.7360  176.5730  142.2860 O   0  0  0  0  0  0  0  0  0  0  0  0
  187.3880  176.5690  141.6820 C   0  0  0  0  0  0  0  0  0  0  0  0
  187.4450  176.5660  140.3400 C   0  0  0  0  0  3  0  0  0  0  0  0
  185.1520  177.8190  140.1130 C   0  0  0  0  0  2  0  0  0  0  0  0
  186.0040  177.3120  143.6180 O   0  0  0  0  0  0  0  0  0  0  0  0
  186.4890  177.1330  138.2510 O   0  0  0  0  0  0  0  0  0  0  0  0
  185.1970  177.7510  141.6080 C   0  0  0  0  0  0  0  0  0  0  0  0
  184.2970  178.2240  142.5340 C   0  0  0  0  0  0  0  0  0  0  0  0
  184.8550  177.9300  143.7650 C   0  0  0  0  0  0  0  0  0  0  0  0
  186.2240  177.1930  142.3270 C   0  0  0  0  0  0  0  0  0  0  0  0
  186.3740  177.1680  139.5040 C   0  0  0  0  0  0  0  0  0  0  0  0
  183.0070  178.9280  142.2750 C   0  0  0  0  0  2  0  0  0  0  0  0
  182.1530  178.1050  141.3300 C   0  0  0  0  0  2  0  0  0  0  0  0
  180.5040  178.8420  141.1870 P   0  0  2  0  0  0  0  0  0  0  0  0
  180.6260  180.1880  140.5100 O   0  0  0  0  0  0  0  0  0  0  0  0
  179.8330  179.0460  142.7310 O   0  0  0  0  0  1  0  0  0  0  0  0
  178.0200  177.8200  140.7090 C   0  0  0  0  0  1  0  0  0  0  0  0
  179.4390  177.7550  140.1970 C   0  0  0  0  0  2  0  0  0  0  0  0
  184.2840  178.2570  145.0300 N   0  0  0  0  0  2  0  0  0  0  0  0
  184.8100  179.2460  145.7940 O   0  0  0  0  0  0  0  0  0  0  0  0
  185.3890  177.1840  146.8750 C   0  0  0  0  0  2  0  0  0  0  0  0
  187.4420  175.9640  147.5070 O   0  0  0  0  0  1  0  0  0  0  0  0
  187.1270  178.3370  147.9630 C   0  0  0  0  0  3  0  0  0  0  0  0
  186.2250  179.2630  147.7040 C   0  0  0  0  0  3  0  0  0  0  0  0
  186.6700  177.0730  147.5360 N   0  0  0  0  0  0  0  0  0  0  0  0
  185.0220  178.6570  147.0460 C   0  0  1  0  0  3  0  0  0  0  0  0
  189.3020  173.8200  144.3000 C   0  0  0  0  0  2  0  0  0  0  0  0
  189.8480  173.6770  142.8840 C   0  0  1  0  0  3  0  0  0  0  0  0
  191.3380  173.5550  142.9350 C   0  0  0  0  0  0  0  0  0  0  0  0
  191.9330  172.7070  143.9240 N   0  0  0  0  0  2  0  0  0  0  0  0
  192.0570  174.2170  142.1370 O   0  0  0  0  0  0  0  0  0  0  0  0
  193.3620  172.6310  144.2010 C   0  0  2  0  0  3  0  0  0  0  0  0
  193.8240  171.0070  144.8860 S   0  0  0  0  0  0  0  0  0  0  0  0
  196.6910  173.7830  145.8050 C   0  0  0  0  0  1  0  0  0  0  0  0
  195.4230  173.0220  145.6080 C   0  0  0  0  0  0  0  0  0  0  0  0
  195.3920  171.7060  145.3880 C   0  0  0  0  0  0  0  0  0  0  0  0
  193.8830  173.9040  145.3910 S   0  0  0  0  0  0  0  0  0  0  0  0
  196.6200  170.8690  145.3360 C   0  0  0  0  0  1  0  0  0  0  0  0
  189.2360  172.4700  142.1570 C   0  0  1  0  0  3  0  0  0  0  0  0
  187.8440  172.5480  142.1340 O   0  0  0  0  0  1  0  0  0  0  0  0
  190.9660  170.1620  141.0450 C   0  0  0  0  0  1  0  0  0  0  0  0
  191.6920  170.6730  138.2030 O   0  0  0  0  0  1  0  0  0  0  0  0
  190.5450  171.3580  140.2520 C   0  0  0  0  0  0  0  0  0  0  0  0
  190.4230  172.7390  138.3410 C   0  0  0  0  0  3  0  0  0  0  0  0
  190.9070  171.5650  138.9140 C   0  0  0  0  0  0  0  0  0  0  0  0
  189.5260  173.5120  139.5370 S   0  0  0  0  0  0  0  0  0  0  0  0
  189.7420  172.3700  140.7530 C   0  0  0  0  0  0  0  0  0  0  0  0
  1 35  1  6  0  0  0
  3  1  1  0  0  0  0
  5 10  1  6  0  0  0
  5  3  1  0  0  0  0
  6  1  1  0  0  0  0
  6  2  1  1  0  0  0
  7  8  1  0  0  0  0
  8  4  1  1  0  0  0
  8  6  1  0  0  0  0
  9  5  1  0  0  0  0
  9  8  1  0  0  0  0
 10 18  1  0  0  0  0
 11 10  2  0  0  0  0
 12 15  1  0  0  0  0
 13 17  1  0  0  0  0
 14 19  2  0  0  0  0
 15 18  2  0  0  0  0
 15 16  1  0  0  0  0
 16 17  2  0  0  0  0
 17 27  1  0  0  0  0
 18 13  1  0  0  0  0
 19 12  1  0  0  0  0
 19 11  1  0  0  0  0
 20 16  1  0  0  0  0
 21 20  1  0  0  0  0
 22 23  2  6  0  0  0
 22 21  1  0  0  0  0
 22 24  1  0  0  0  0
 26 25  1  0  0  0  0
 26 22  1  0  0  0  0
 27 28  1  0  0  0  0
 29 34  1  0  0  0  0
 29 33  1  0  0  0  0
 30 33  1  0  0  0  0
 32 31  2  0  0  0  0
 33 31  1  0  0  0  0
 34 28  1  6  0  0  0
 34 32  1  0  0  0  0
 36 37  1  0  0  0  0
 36 35  1  1  0  0  0
 37 38  1  0  0  0  0
 39 37  2  0  0  0  0
 40 38  1  1  0  0  0
 40 41  1  0  0  0  0
 40 45  1  0  0  0  0
 41 44  1  0  0  0  0
 43 42  1  0  0  0  0
 44 43  2  0  0  0  0
 45 43  1  0  0  0  0
 46 44  1  0  0  0  0
 47 48  1  6  0  0  0
 47 36  1  0  0  0  0
 50 53  1  0  0  0  0
 51 55  2  0  0  0  0
 51 49  1  0  0  0  0
 52 53  2  0  0  0  0
 52 54  1  0  0  0  0
 53 51  1  0  0  0  0
 54 55  1  0  0  0  0
 55 47  1  0  0  0  0
M  END
>  <MODEL>
6

>  <REMARK>
 VINA RESULT:      -6.7      2.616      6.300
  Name = 
  14 active torsions:
  status: ('A' for Active; 'I' for Inactive)
    1  A    between atoms: P_1  and  C_26
    2  A    between atoms: P_1  and  C_53
    3  A    between atoms: C_2  and  C_23
    4  A    between atoms: C_3  and  C_17
    5  A    between atoms: C_3  and  C_55
    6  A    between atoms: C_5  and  C_33
    7  A    between atoms: C_9  and  C_17
    8  A    between atoms: C_17  and  C_33
    9  A    between atoms: C_19  and  N_28
   10  A    between atoms: O_25  and  N_43
   11  A    between atoms: O_25  and  C_54
   12  A    between atoms: C_26  and  C_40
   13  A    between atoms: C_31  and  C_40
   14  A    between atoms: C_39  and  N_43
                            x       y       z     vdW  Elec       q    Type
                         _______ _______ _______ _____ _____    ______ ____

>  <TORSDO>
F 14

$$$$
=
 OpenBabel11062421323D

 55 60  0  0  1  0  0  0  0  0999 V2000
  189.3200  175.0510  143.8280 C   0  0  2  0  0  3  0  0  0  0  0  0
  189.7910  176.0900  145.9310 F   0  0  0  0  0  0  0  0  0  0  0  0
  188.2060  175.4830  143.0760 O   0  0  0  0  0  0  0  0  0  0  0  0
  188.0940  177.9150  144.6560 C   0  0  0  0  0  1  0  0  0  0  0  0
  188.6220  176.4370  142.1120 C   0  0  2  0  0  3  0  0  0  0  0  0
  189.9750  176.2160  144.5640 C   0  0  2  0  0  3  0  0  0  0  0  0
  190.3570  178.5500  144.4160 O   0  0  0  0  0  1  0  0  0  0  0  0
  189.4500  177.5580  144.0440 C   0  0  2  0  0  0  0  0  0  0  0  0
  189.3620  177.5430  142.6300 O   0  0  0  0  0  0  0  0  0  0  0  0
  187.4380  176.8980  141.3030 C   0  0  0  0  0  0  0  0  0  0  0  0
  187.4420  176.8430  139.9610 C   0  0  0  0  0  3  0  0  0  0  0  0
  185.0120  177.8150  139.7870 C   0  0  0  0  0  2  0  0  0  0  0  0
  186.0540  177.5600  143.2670 O   0  0  0  0  0  0  0  0  0  0  0  0
  186.3460  177.2060  137.8960 O   0  0  0  0  0  0  0  0  0  0  0  0
  185.1230  177.8170  141.2800 C   0  0  0  0  0  0  0  0  0  0  0  0
  184.2120  178.2240  142.2250 C   0  0  0  0  0  0  0  0  0  0  0  0
  184.8470  178.0490  143.4410 C   0  0  0  0  0  0  0  0  0  0  0  0
  186.2350  177.4110  141.9740 C   0  0  0  0  0  0  0  0  0  0  0  0
  186.2770  177.2810  139.1500 C   0  0  0  0  0  0  0  0  0  0  0  0
  182.8400  178.7640  141.9960 C   0  0  0  0  0  2  0  0  0  0  0  0
  182.0680  177.8350  141.0790 C   0  0  0  0  0  2  0  0  0  0  0  0
  180.3870  178.4640  140.8350 P   0  0  2  0  0  0  0  0  0  0  0  0
  179.8460  177.9250  139.5300 O   0  0  0  0  0  0  0  0  0  0  0  0
  180.4130  180.1590  140.7780 O   0  0  0  0  0  1  0  0  0  0  0  0
  178.2770  178.9590  142.4930 C   0  0  0  0  0  1  0  0  0  0  0  0
  179.3300  177.9160  142.2060 C   0  0  0  0  0  2  0  0  0  0  0  0
  184.2920  178.3630  144.7170 N   0  0  0  0  0  2  0  0  0  0  0  0
  184.8420  179.3280  145.4950 O   0  0  0  0  0  0  0  0  0  0  0  0
  185.1560  177.3020  146.7400 C   0  0  0  0  0  2  0  0  0  0  0  0
  187.0310  176.0400  147.7390 O   0  0  0  0  0  1  0  0  0  0  0  0
  186.7530  178.4430  148.0370 C   0  0  0  0  0  3  0  0  0  0  0  0
  185.9440  179.3870  147.6000 C   0  0  0  0  0  3  0  0  0  0  0  0
  186.3130  177.1770  147.5990 N   0  0  0  0  0  0  0  0  0  0  0  0
  184.8320  178.7930  146.7880 C   0  0  1  0  0  3  0  0  0  0  0  0
  190.3180  174.2590  142.9810 C   0  0  0  0  0  2  0  0  0  0  0  0
  190.3500  172.7980  143.4120 C   0  0  1  0  0  3  0  0  0  0  0  0
  190.2850  171.9200  142.2020 C   0  0  0  0  0  0  0  0  0  0  0  0
  190.4580  172.5070  140.9080 N   0  0  0  0  0  2  0  0  0  0  0  0
  190.0500  170.6860  142.3250 O   0  0  0  0  0  0  0  0  0  0  0  0
  190.2450  171.8100  139.6450 C   0  0  2  0  0  3  0  0  0  0  0  0
  191.7260  170.8750  139.1420 S   0  0  0  0  0  0  0  0  0  0  0  0
  189.3170  171.5430  135.8980 C   0  0  0  0  0  1  0  0  0  0  0  0
  190.1550  171.6580  137.1260 C   0  0  0  0  0  0  0  0  0  0  0  0
  191.0230  170.7160  137.5040 C   0  0  0  0  0  0  0  0  0  0  0  0
  189.8330  172.9650  138.3030 S   0  0  0  0  0  0  0  0  0  0  0  0
  191.2480  169.4690  136.7270 C   0  0  0  0  0  1  0  0  0  0  0  0
  191.6010  172.4760  144.2420 C   0  0  1  0  0  3  0  0  0  0  0  0
  192.0400  171.1720  144.0090 O   0  0  0  0  0  1  0  0  0  0  0  0
  192.7350  174.5850  146.1980 C   0  0  0  0  0  1  0  0  0  0  0  0
  194.8640  176.1960  144.8820 O   0  0  0  0  0  1  0  0  0  0  0  0
  193.2090  174.3990  144.7920 C   0  0  0  0  0  0  0  0  0  0  0  0
  194.5210  174.8590  142.8850 C   0  0  0  0  0  3  0  0  0  0  0  0
  194.2160  175.1770  144.2050 C   0  0  0  0  0  0  0  0  0  0  0  0
  193.5140  173.5770  142.4630 S   0  0  0  0  0  0  0  0  0  0  0  0
  192.7150  173.4270  143.9360 C   0  0  0  0  0  0  0  0  0  0  0  0
  1 35  1  6  0  0  0
  1  6  1  0  0  0  0
  3  1  1  0  0  0  0
  5 10  1  1  0  0  0
  5  9  1  0  0  0  0
  5  3  1  0  0  0  0
  6  2  1  1  0  0  0
  8  7  1  0  0  0  0
  8  6  1  0  0  0  0
  8  4  1  1  0  0  0
  9  8  1  0  0  0  0
 10 18  1  0  0  0  0
 11 10  2  0  0  0  0
 12 15  1  0  0  0  0
 13 17  1  0  0  0  0
 14 19  2  0  0  0  0
 15 18  2  0  0  0  0
 15 16  1  0  0  0  0
 16 17  2  0  0  0  0
 17 27  1  0  0  0  0
 18 13  1  0  0  0  0
 19 12  1  0  0  0  0
 19 11  1  0  0  0  0
 20 16  1  0  0  0  0
 21 20  1  0  0  0  0
 22 23  2  6  0  0  0
 22 21  1  0  0  0  0
 22 26  1  0  0  0  0
 24 22  1  0  0  0  0
 26 25  1  0  0  0  0
 27 28  1  0  0  0  0
 29 34  1  0  0  0  0
 29 33  1  0  0  0  0
 32 31  2  0  0  0  0
 33 30  1  0  0  0  0
 33 31  1  0  0  0  0
 34 28  1  6  0  0  0
 34 32  1  0  0  0  0
 36 35  1  6  0  0  0
 36 47  1  0  0  0  0
 37 39  2  0  0  0  0
 37 36  1  0  0  0  0
 38 37  1  0  0  0  0
 40 38  1  1  0  0  0
 41 40  1  0  0  0  0
 42 43  1  0  0  0  0
 43 44  2  0  0  0  0
 43 45  1  0  0  0  0
 44 41  1  0  0  0  0
 45 40  1  0  0  0  0
 46 44  1  0  0  0  0
 47 48  1  6  0  0  0
 51 49  1  0  0  0  0
 52 53  2  0  0  0  0
 53 51  1  0  0  0  0
 53 50  1  0  0  0  0
 54 52  1  0  0  0  0
 54 55  1  0  0  0  0
 55 47  1  0  0  0  0
 55 51  2  0  0  0  0
M  END
>  <MODEL>
7

>  <REMARK>
 VINA RESULT:      -6.5      2.292      4.845
  Name = 
  14 active torsions:
  status: ('A' for Active; 'I' for Inactive)
    1  A    between atoms: P_1  and  C_26
    2  A    between atoms: P_1  and  C_53
    3  A    between atoms: C_2  and  C_23
    4  A    between atoms: C_3  and  C_17
    5  A    between atoms: C_3  and  C_55
    6  A    between atoms: C_5  and  C_33
    7  A    between atoms: C_9  and  C_17
    8  A    between atoms: C_17  and  C_33
    9  A    between atoms: C_19  and  N_28
   10  A    between atoms: O_25  and  N_43
   11  A    between atoms: O_25  and  C_54
   12  A    between atoms: C_26  and  C_40
   13  A    between atoms: C_31  and  C_40
   14  A    between atoms: C_39  and  N_43
                            x       y       z     vdW  Elec       q    Type
                         _______ _______ _______ _____ _____    ______ ____

>  <TORSDO>
F 14

$$$$
=
 OpenBabel11062421323D

 55 60  0  0  1  0  0  0  0  0999 V2000
  190.4670  175.9550  145.5030 C   0  0  2  0  0  3  0  0  0  0  0  0
  189.4290  175.7040  147.6430 F   0  0  0  0  0  0  0  0  0  0  0  0
  189.6950  175.7770  144.3340 O   0  0  0  0  0  0  0  0  0  0  0  0
  187.2700  176.0730  145.9010 C   0  0  0  0  0  1  0  0  0  0  0  0
  189.2380  177.0370  143.8670 C   0  0  2  0  0  3  0  0  0  0  0  0
  189.6460  176.6030  146.6130 C   0  0  2  0  0  3  0  0  0  0  0  0
  187.8410  178.0940  146.9840 O   0  0  0  0  0  1  0  0  0  0  0  0
  188.3290  177.1650  146.0650 C   0  0  2  0  0  0  0  0  0  0  0  0
  188.5470  177.8290  144.8330 O   0  0  0  0  0  0  0  0  0  0  0  0
  188.4190  176.8530  142.6160 C   0  0  0  0  0  0  0  0  0  0  0  0
  187.4030  177.6790  142.3170 C   0  0  0  0  0  3  0  0  0  0  0  0
  186.8670  176.4150  140.0820 C   0  0  0  0  0  2  0  0  0  0  0  0
  189.6600  174.8450  141.8150 O   0  0  0  0  0  0  0  0  0  0  0  0
  185.6540  178.3260  140.8610 O   0  0  0  0  0  0  0  0  0  0  0  0
  188.0240  175.5710  140.5180 C   0  0  0  0  0  0  0  0  0  0  0  0
  188.5870  174.4740  139.9090 C   0  0  0  0  0  0  0  0  0  0  0  0
  189.5930  174.0620  140.7630 C   0  0  0  0  0  0  0  0  0  0  0  0
  188.7250  175.7610  141.6820 C   0  0  0  0  0  0  0  0  0  0  0  0
  186.5940  177.5180  141.0810 C   0  0  0  0  0  0  0  0  0  0  0  0
  188.1870  173.8430  138.6170 C   0  0  0  0  0  2  0  0  0  0  0  0
  189.2540  174.0970  137.5700 C   0  0  0  0  0  2  0  0  0  0  0  0
  189.8390  172.5220  136.8910 P   0  0  2  0  0  0  0  0  0  0  0  0
  189.0370  172.1940  135.6520 O   0  0  0  0  0  0  0  0  0  0  0  0
  189.6320  171.2920  138.0390 O   0  0  0  0  0  1  0  0  0  0  0  0
  192.3040  171.3600  136.7420 C   0  0  0  0  0  1  0  0  0  0  0  0
  191.5970  172.6650  136.4600 C   0  0  0  0  0  2  0  0  0  0  0  0
  190.4420  172.9350  140.5560 N   0  0  0  0  0  2  0  0  0  0  0  0
  191.6090  172.8090  141.2350 O   0  0  0  0  0  0  0  0  0  0  0  0
  192.8790  174.0020  139.5870 C   0  0  0  0  0  2  0  0  0  0  0  0
  194.9720  175.3100  139.4840 O   0  0  0  0  0  1  0  0  0  0  0  0
  194.8280  173.1390  140.5810 C   0  0  0  0  0  3  0  0  0  0  0  0
  193.8910  172.2560  140.8660 C   0  0  0  0  0  3  0  0  0  0  0  0
  194.3000  174.1760  139.7850 N   0  0  0  0  0  0  0  0  0  0  0  0
  192.5850  172.6550  140.2450 C   0  0  1  0  0  3  0  0  0  0  0  0
  191.7710  176.7030  145.2260 C   0  0  0  0  0  2  0  0  0  0  0  0
  192.9740  175.8020  145.4790 C   0  0  1  0  0  3  0  0  0  0  0  0
  192.9270  174.6350  144.5450 C   0  0  0  0  0  0  0  0  0  0  0  0
  193.0580  173.3120  145.0780 N   0  0  0  0  0  2  0  0  0  0  0  0
  192.8060  174.8200  143.3020 O   0  0  0  0  0  0  0  0  0  0  0  0
  193.2070  172.1050  144.2750 C   0  0  2  0  0  3  0  0  0  0  0  0
  191.6070  171.2740  144.0160 S   0  0  0  0  0  0  0  0  0  0  0  0
  194.6750  168.6330  143.4010 C   0  0  0  0  0  1  0  0  0  0  0  0
  193.7340  169.6580  143.9360 C   0  0  0  0  0  0  0  0  0  0  0  0
  192.4930  169.8180  143.4710 C   0  0  0  0  0  0  0  0  0  0  0  0
  194.3330  170.9120  145.0610 S   0  0  0  0  0  0  0  0  0  0  0  0
  191.9250  168.9770  142.3850 C   0  0  0  0  0  1  0  0  0  0  0  0
  194.2990  176.5630  145.3210 C   0  0  1  0  0  3  0  0  0  0  0  0
  194.5850  177.3190  146.4580 O   0  0  0  0  0  1  0  0  0  0  0  0
  195.8970  176.3870  142.6810 C   0  0  0  0  0  1  0  0  0  0  0  0
  197.9410  174.2290  142.8350 O   0  0  0  0  0  1  0  0  0  0  0  0
  196.1370  175.5140  143.8700 C   0  0  0  0  0  0  0  0  0  0  0  0
  197.1840  173.7930  145.1010 C   0  0  0  0  0  3  0  0  0  0  0  0
  197.1100  174.5060  143.9070 C   0  0  0  0  0  0  0  0  0  0  0  0
  196.0140  174.4510  146.1170 S   0  0  0  0  0  0  0  0  0  0  0  0
  195.4350  175.6250  145.0600 C   0  0  0  0  0  0  0  0  0  0  0  0
  1 35  1  6  0  0  0
  1  6  1  0  0  0  0
  3  1  1  0  0  0  0
  5 10  1  6  0  0  0
  5  3  1  0  0  0  0
  5  9  1  0  0  0  0
  6  2  1  1  0  0  0
  8  4  1  6  0  0  0
  8  6  1  0  0  0  0
  8  7  1  0  0  0  0
  9  8  1  0  0  0  0
 11 10  2  0  0  0  0
 12 15  1  0  0  0  0
 12 19  1  0  0  0  0
 14 19  2  0  0  0  0
 15 18  2  0  0  0  0
 16 15  1  0  0  0  0
 16 17  2  0  0  0  0
 17 13  1  0  0  0  0
 18 13  1  0  0  0  0
 18 10  1  0  0  0  0
 19 11  1  0  0  0  0
 20 16  1  0  0  0  0
 21 20  1  0  0  0  0
 22 23  2  6  0  0  0
 22 21  1  0  0  0  0
 22 24  1  0  0  0  0
 26 25  1  0  0  0  0
 26 22  1  0  0  0  0
 27 17  1  0  0  0  0
 27 28  1  0  0  0  0
 29 33  1  0  0  0  0
 29 34  1  0  0  0  0
 30 33  1  0  0  0  0
 31 32  2  0  0  0  0
 33 31  1  0  0  0  0
 34 32  1  0  0  0  0
 34 28  1  1  0  0  0
 36 35  1  6  0  0  0
 37 38  1  0  0  0  0
 37 36  1  0  0  0  0
 39 37  2  0  0  0  0
 40 45  1  0  0  0  0
 40 38  1  1  0  0  0
 41 40  1  0  0  0  0
 42 43  1  0  0  0  0
 43 45  1  0  0  0  0
 44 43  2  0  0  0  0
 44 41  1  0  0  0  0
 46 44  1  0  0  0  0
 47 36  1  0  0  0  0
 47 48  1  1  0  0  0
 49 51  1  0  0  0  0
 50 53  1  0  0  0  0
 51 53  1  0  0  0  0
 51 55  2  0  0  0  0
 52 54  1  0  0  0  0
 53 52  2  0  0  0  0
 55 47  1  0  0  0  0
 55 54  1  0  0  0  0
M  END
>  <MODEL>
8

>  <REMARK>
 VINA RESULT:      -6.4      3.578      6.230
  Name = 
  14 active torsions:
  status: ('A' for Active; 'I' for Inactive)
    1  A    between atoms: P_1  and  C_26
    2  A    between atoms: P_1  and  C_53
    3  A    between atoms: C_2  and  C_23
    4  A    between atoms: C_3  and  C_17
    5  A    between atoms: C_3  and  C_55
    6  A    between atoms: C_5  and  C_33
    7  A    between atoms: C_9  and  C_17
    8  A    between atoms: C_17  and  C_33
    9  A    between atoms: C_19  and  N_28
   10  A    between atoms: O_25  and  N_43
   11  A    between atoms: O_25  and  C_54
   12  A    between atoms: C_26  and  C_40
   13  A    between atoms: C_31  and  C_40
   14  A    between atoms: C_39  and  N_43
                            x       y       z     vdW  Elec       q    Type
                         _______ _______ _______ _____ _____    ______ ____

>  <TORSDO>
F 14

$$$$
=
 OpenBabel11062421323D

 55 60  0  0  1  0  0  0  0  0999 V2000
  192.3020  174.4400  146.1100 C   0  0  2  0  0  3  0  0  0  0  0  0
  191.6340  174.8530  148.3690 F   0  0  0  0  0  0  0  0  0  0  0  0
  191.3140  174.2340  145.1220 O   0  0  0  0  0  0  0  0  0  0  0  0
  189.3220  175.3900  146.8870 C   0  0  0  0  0  1  0  0  0  0  0  0
  191.0500  175.4550  144.4490 C   0  0  2  0  0  3  0  0  0  0  0  0
  191.8440  175.4630  147.1450 C   0  0  2  0  0  3  0  0  0  0  0  0
  190.4800  177.3840  147.4050 O   0  0  0  0  0  1  0  0  0  0  0  0
  190.5940  176.2090  146.6620 C   0  0  2  0  0  0  0  0  0  0  0  0
  190.7200  176.5570  145.2950 O   0  0  0  0  0  0  0  0  0  0  0  0
  190.0010  175.2400  143.3900 C   0  0  0  0  0  0  0  0  0  0  0  0
  188.7300  175.6330  143.5730 C   0  0  0  0  0  3  0  0  0  0  0  0
  187.9940  174.7880  141.2010 C   0  0  0  0  0  2  0  0  0  0  0  0
  191.5310  174.1300  141.7650 O   0  0  0  0  0  0  0  0  0  0  0  0
  186.5140  175.8290  142.7680 O   0  0  0  0  0  0  0  0  0  0  0  0
  189.4380  174.4050  141.1120 C   0  0  0  0  0  0  0  0  0  0  0  0
  190.1200  173.7920  140.0880 C   0  0  0  0  0  0  0  0  0  0  0  0
  191.4130  173.6390  140.5520 C   0  0  0  0  0  0  0  0  0  0  0  0
  190.3540  174.5980  142.1150 C   0  0  0  0  0  0  0  0  0  0  0  0
  187.6870  175.4390  142.5330 C   0  0  0  0  0  0  0  0  0  0  0  0
  189.5800  173.3560  138.7660 C   0  0  0  0  0  2  0  0  0  0  0  0
  189.0900  171.9240  138.8580 C   0  0  0  0  0  2  0  0  0  0  0  0
  190.1320  170.8470  137.8400 P   0  0  2  0  0  0  0  0  0  0  0  0
  189.3140  169.6600  137.3860 O   0  0  0  0  0  0  0  0  0  0  0  0
  191.4560  170.3050  138.7500 O   0  0  0  0  0  1  0  0  0  0  0  0
  189.6530  171.7960  135.3270 C   0  0  0  0  0  1  0  0  0  0  0  0
  190.7230  171.7700  136.3920 C   0  0  0  0  0  2  0  0  0  0  0  0
  192.4810  173.0230  139.8360 N   0  0  0  0  0  2  0  0  0  0  0  0
  193.1150  173.6790  138.8320 O   0  0  0  0  0  0  0  0  0  0  0  0
  195.3900  172.9390  138.6670 C   0  0  0  0  0  2  0  0  0  0  0  0
  197.3550  173.3680  137.2320 O   0  0  0  0  0  1  0  0  0  0  0  0
  195.9910  175.1570  138.1690 C   0  0  0  0  0  3  0  0  0  0  0  0
  194.8860  175.2640  138.8800 C   0  0  0  0  0  3  0  0  0  0  0  0
  196.3680  173.8040  138.0470 N   0  0  0  0  0  0  0  0  0  0  0  0
  194.4080  173.9110  139.3160 C   0  0  1  0  0  3  0  0  0  0  0  0
  193.6620  174.7890  145.5040 C   0  0  0  0  0  2  0  0  0  0  0  0
  194.7500  173.8790  146.0610 C   0  0  1  0  0  3  0  0  0  0  0  0
  194.6690  172.5410  145.3960 C   0  0  0  0  0  0  0  0  0  0  0  0
  193.9000  172.4060  144.1970 N   0  0  0  0  0  2  0  0  0  0  0  0
  195.2470  171.5430  145.9080 O   0  0  0  0  0  0  0  0  0  0  0  0
  193.5910  171.1390  143.5470 C   0  0  2  0  0  3  0  0  0  0  0  0
  194.4970  170.9550  141.9770 S   0  0  0  0  0  0  0  0  0  0  0  0
  191.2560  168.4530  142.0260 C   0  0  0  0  0  1  0  0  0  0  0  0
  192.1890  169.6140  142.1010 C   0  0  0  0  0  0  0  0  0  0  0  0
  193.4030  169.6070  141.5460 C   0  0  0  0  0  0  0  0  0  0  0  0
  191.8150  170.9860  143.1850 S   0  0  0  0  0  0  0  0  0  0  0  0
  193.9340  168.4450  140.7840 C   0  0  0  0  0  1  0  0  0  0  0  0
  196.1490  174.4860  145.8770 C   0  0  1  0  0  3  0  0  0  0  0  0
  197.1310  173.6670  146.4360 O   0  0  0  0  0  1  0  0  0  0  0  0
  195.6880  177.1220  144.3290 C   0  0  0  0  0  1  0  0  0  0  0  0
  196.4370  176.8000  141.4660 O   0  0  0  0  0  1  0  0  0  0  0  0
  196.2280  175.8690  143.7180 C   0  0  0  0  0  0  0  0  0  0  0  0
  197.0540  174.5070  141.9750 C   0  0  0  0  0  3  0  0  0  0  0  0
  196.5700  175.7540  142.3640 C   0  0  0  0  0  0  0  0  0  0  0  0
  197.0540  173.5490  143.3600 S   0  0  0  0  0  0  0  0  0  0  0  0
  196.4600  174.7030  144.4300 C   0  0  0  0  0  0  0  0  0  0  0  0
  1 35  1  6  0  0  0
  1  6  1  0  0  0  0
  3  1  1  0  0  0  0
  5 10  1  6  0  0  0
  5  3  1  0  0  0  0
  5  9  1  0  0  0  0
  6  2  1  1  0  0  0
  8  4  1  1  0  0  0
  8  6  1  0  0  0  0
  8  7  1  0  0  0  0
  9  8  1  0  0  0  0
 10 11  2  0  0  0  0
 12 19  1  0  0  0  0
 13 18  1  0  0  0  0
 15 12  1  0  0  0  0
 15 18  2  0  0  0  0
 16 17  2  0  0  0  0
 16 15  1  0  0  0  0
 17 13  1  0  0  0  0
 18 10  1  0  0  0  0
 19 14  2  0  0  0  0
 19 11  1  0  0  0  0
 20 21  1  0  0  0  0
 20 16  1  0  0  0  0
 22 23  2  6  0  0  0
 22 24  1  0  0  0  0
 22 21  1  0  0  0  0
 25 26  1  0  0  0  0
 26 22  1  0  0  0  0
 27 17  1  0  0  0  0
 28 27  1  0  0  0  0
 29 34  1  0  0  0  0
 30 33  1  0  0  0  0
 31 32  2  0  0  0  0
 32 34  1  0  0  0  0
 33 31  1  0  0  0  0
 33 29  1  0  0  0  0
 34 28  1  6  0  0  0
 36 35  1  6  0  0  0
 37 39  2  0  0  0  0
 37 36  1  0  0  0  0
 38 37  1  0  0  0  0
 40 38  1  6  0  0  0
 41 40  1  0  0  0  0
 42 43  1  0  0  0  0
 43 45  1  0  0  0  0
 44 41  1  0  0  0  0
 44 43  2  0  0  0  0
 45 40  1  0  0  0  0
 46 44  1  0  0  0  0
 47 36  1  0  0  0  0
 47 48  1  6  0  0  0
 50 53  1  0  0  0  0
 51 49  1  0  0  0  0
 51 55  2  0  0  0  0
 52 53  2  0  0  0  0
 52 54  1  0  0  0  0
 53 51  1  0  0  0  0
 54 55  1  0  0  0  0
 55 47  1  0  0  0  0
M  END
>  <MODEL>
9

>  <REMARK>
 VINA RESULT:      -6.4      4.374      6.737
  Name = 
  14 active torsions:
  status: ('A' for Active; 'I' for Inactive)
    1  A    between atoms: P_1  and  C_26
    2  A    between atoms: P_1  and  C_53
    3  A    between atoms: C_2  and  C_23
    4  A    between atoms: C_3  and  C_17
    5  A    between atoms: C_3  and  C_55
    6  A    between atoms: C_5  and  C_33
    7  A    between atoms: C_9  and  C_17
    8  A    between atoms: C_17  and  C_33
    9  A    between atoms: C_19  and  N_28
   10  A    between atoms: O_25  and  N_43
   11  A    between atoms: O_25  and  C_54
   12  A    between atoms: C_26  and  C_40
   13  A    between atoms: C_31  and  C_40
   14  A    between atoms: C_39  and  N_43
                            x       y       z     vdW  Elec       q    Type
                         _______ _______ _______ _____ _____    ______ ____

>  <TORSDO>
F 14

$$$$
