=
 OpenBabel11062421363D

 52 57  0  0  1  0  0  0  0  0999 V2000
  193.5060  171.7500  141.0040 C   0  0  1  0  0  3  0  0  0  0  0  0
  195.6330  173.6240  140.4790 C   0  0  0  0  0  0  0  0  0  0  0  0
  192.1700  173.5880  142.0440 C   0  0  0  0  0  3  0  0  0  0  0  0
  191.2170  172.7240  142.4210 C   0  0  0  0  0  0  0  0  0  0  0  0
  193.1730  173.2550  140.9680 C   0  0  1  0  0  3  0  0  0  0  0  0
  195.8170  172.1410  140.2230 C   0  0  1  0  0  3  0  0  0  0  0  0
  192.2370  170.9040  140.8740 C   0  0  0  0  0  2  0  0  0  0  0  0
  193.9830  171.6530  138.5290 C   0  0  0  0  0  1  0  0  0  0  0  0
  194.5230  171.3780  139.9290 C   0  0  2  0  0  3  0  0  0  0  0  0
  190.2300  170.5740  142.1020 O   0  0  0  0  0  0  0  0  0  0  0  0
  194.3800  174.1110  141.0220 N   0  0  0  0  0  0  0  0  0  0  0  0
  191.1760  171.3600  141.8310 C   0  0  0  0  0  0  0  0  0  0  0  0
  196.6960  174.4210  140.4130 C   0  0  0  0  0  2  0  0  0  0  0  0
  190.7510  173.1860  144.8100 C   0  0  0  0  0  2  0  0  0  0  0  0
  189.5900  174.5580  142.9810 C   0  0  1  0  0  3  0  0  0  0  0  0
  189.7260  175.6490  144.0580 C   0  0  0  0  0  2  0  0  0  0  0  0
  190.1750  173.1920  143.3930 C   0  0  1  0  0  3  0  0  0  0  0  0
  189.2540  175.1640  145.4350 C   0  0  1  0  0  3  0  0  0  0  0  0
  189.7340  173.7460  145.8010 C   0  0  0  0  0  2  0  0  0  0  0  0
  189.6210  176.1830  146.5090 C   0  0  2  0  0  3  0  0  0  0  0  0
  190.1950  177.3060  145.9390 F   0  0  0  0  0  0  0  0  0  0  0  0
  190.5710  175.5850  147.5380 C   0  0  0  0  0  2  0  0  0  0  0  0
  191.5690  176.6290  148.0070 C   0  0  0  0  0  1  0  0  0  0  0  0
  188.1840  174.4380  142.3730 C   0  0  2  0  0  3  0  0  0  0  0  0
  188.1680  173.3780  141.2880 C   0  0  0  0  0  2  0  0  0  0  0  0
  188.3630  173.9800  140.0450 O   0  0  0  0  0  0  0  0  0  0  0  0
  188.3010  172.9380  139.1280 C   0  0  0  0  0  1  0  0  0  0  0  0
  187.6360  175.7500  141.8270 C   0  0  0  0  0  2  0  0  0  0  0  0
  186.7340  177.8510  142.9060 C   0  0  0  0  0  0  0  0  0  0  0  0
  187.2620  178.5660  142.0120 O   0  0  0  0  0  0  0  0  0  0  0  0
  186.8630  176.4260  142.8550 N   0  0  0  0  0  2  0  0  0  0  0  0
  185.9820  178.5250  144.0300 C   0  0  1  0  0  0  0  0  0  0  0  0
  184.1950  178.6550  145.7560 O   0  0  0  0  0  1  0  0  0  0  0  0
  184.7140  177.9250  144.6850 C   0  0  2  0  0  0  0  0  0  0  0  0
  186.0130  177.5900  145.0710 O   0  0  0  0  0  0  0  0  0  0  0  0
  184.5880  178.8580  143.5180 C   0  0  2  0  0  3  0  0  0  0  0  0
  182.7110  178.4480  142.0950 O   0  0  0  0  0  1  0  0  0  0  0  0
  184.0200  178.0480  142.3510 C   0  0  0  0  0  2  0  0  0  0  0  0
  196.9330  171.7520  139.4400 O   0  0  0  0  0  0  0  0  0  0  0  0
  197.5740  170.6600  140.0400 C   0  0  0  0  0  1  0  0  0  0  0  0
  194.2090  175.5620  141.1690 C   0  0  0  0  0  2  0  0  0  0  0  0
  194.8200  176.0930  142.4680 C   0  0  0  0  0  2  0  0  0  0  0  0
  195.4620  174.9140  145.9020 C   0  0  0  0  0  3  0  0  0  0  0  0
  195.5010  174.5730  144.4050 C   0  0  2  0  0  3  0  0  0  0  0  0
  193.0500  177.1700  144.6730 O   0  0  0  0  0  0  0  0  0  0  0  0
  193.9330  176.2850  144.8190 C   0  0  0  0  0  0  0  0  0  0  0  0
  194.3750  175.3730  143.7470 C   0  0  1  0  0  3  0  0  0  0  0  0
  194.5590  176.0400  146.0550 N   0  0  0  0  0  0  0  0  0  0  0  0
  195.2960  173.0750  144.2270 C   0  0  0  0  0  2  0  0  0  0  0  0
  195.3570  172.3440  145.5630 C   0  0  0  0  0  2  0  0  0  0  0  0
  194.3800  171.1800  145.5890 C   0  0  0  0  0  2  0  0  0  0  0  0
  195.0080  170.0200  145.1430 O   0  0  0  0  0  1  0  0  0  0  0  0
  1  7  1  6  0  0  0
  2 11  1  0  0  0  0
  3  4  2  0  0  0  0
  5  1  1  0  0  0  0
  5 11  1  0  0  0  0
  5  3  1  1  0  0  0
  6 39  1  6  0  0  0
  6  2  1  0  0  0  0
  7 12  1  0  0  0  0
  9  8  1  6  0  0  0
  9  6  1  0  0  0  0
  9  1  1  0  0  0  0
 11 41  1  0  0  0  0
 12 10  2  0  0  0  0
 12  4  1  0  0  0  0
 13  2  2  0  0  0  0
 14 19  1  0  0  0  0
 15 24  1  1  0  0  0
 15 17  1  0  0  0  0
 15 16  1  0  0  0  0
 16 18  1  0  0  0  0
 17  4  1  6  0  0  0
 17 14  1  0  0  0  0
 18 19  1  0  0  0  0
 18 20  1  1  0  0  0
 20 21  1  6  0  0  0
 20 22  1  0  0  0  0
 22 23  1  0  0  0  0
 24 25  1  6  0  0  0
 26 25  1  0  0  0  0
 27 26  1  0  0  0  0
 28 24  1  0  0  0  0
 28 31  1  0  0  0  0
 30 29  2  0  0  0  0
 31 29  1  0  0  0  0
 32 29  1  6  0  0  0
 32 34  1  0  0  0  0
 32 35  1  0  0  0  0
 34 35  1  0  0  0  0
 34 33  1  1  0  0  0
 36 38  1  6  0  0  0
 36 32  1  0  0  0  0
 36 34  1  0  0  0  0
 37 38  1  0  0  0  0
 39 40  1  0  0  0  0
 41 42  1  0  0  0  0
 43 48  2  0  0  0  0
 44 49  1  1  0  0  0
 44 43  1  0  0  0  0
 45 46  2  0  0  0  0
 46 48  1  0  0  0  0
 47 42  1  6  0  0  0
 47 44  1  0  0  0  0
 47 46  1  0  0  0  0
 49 50  1  0  0  0  0
 50 51  1  0  0  0  0
 52 51  1  0  0  0  0
M  END
>  <MODEL>
1

>  <REMARK>
 VINA RESULT:      -6.6      0.000      0.000
  Name = 
  17 active torsions:
  status: ('A' for Active; 'I' for Inactive)
    1  A    between atoms: C_2  and  C_24
    2  A    between atoms: C_3  and  O_23
    3  A    between atoms: C_3  and  C_46
    4  A    between atoms: C_5  and  C_18
    5  A    between atoms: C_7  and  C_17
    6  A    between atoms: C_7  and  C_42
    7  A    between atoms: C_10  and  C_27
    8  A    between atoms: C_11  and  C_46
    9  A    between atoms: C_14  and  C_44
   10  A    between atoms: C_16  and  C_43
   11  A    between atoms: C_19  and  O_25
   12  A    between atoms: C_24  and  C_44
   13  A    between atoms: C_28  and  C_31
   14  A    between atoms: C_28  and  C_39
   15  A    between atoms: C_31  and  N_41
   16  A    between atoms: C_34  and  C_46
   17  A    between atoms: C_34  and  N_52
                            x       y       z     vdW  Elec       q    Type
                         _______ _______ _______ _____ _____    ______ ____

>  <TORSDO>
F 17

$$$$
=
 OpenBabel11062421363D

 52 57  0  0  1  0  0  0  0  0999 V2000
  193.2690  176.2130  144.6870 C   0  0  1  0  0  3  0  0  0  0  0  0
  194.7930  174.2420  143.2370 C   0  0  0  0  0  0  0  0  0  0  0  0
  191.1740  174.9600  144.1480 C   0  0  0  0  0  3  0  0  0  0  0  0
  190.4210  175.9210  144.7000 C   0  0  0  0  0  0  0  0  0  0  0  0
  192.6460  174.8220  144.4520 C   0  0  1  0  0  3  0  0  0  0  0  0
  195.4500  175.4990  143.7710 C   0  0  1  0  0  3  0  0  0  0  0  0
  192.5320  176.9640  145.7980 C   0  0  0  0  0  2  0  0  0  0  0  0
  195.0160  175.3160  146.2710 C   0  0  0  0  0  1  0  0  0  0  0  0
  194.7600  176.1110  144.9930 C   0  0  2  0  0  3  0  0  0  0  0  0
  190.3370  177.7910  146.1820 O   0  0  0  0  0  0  0  0  0  0  0  0
  193.3720  174.0330  143.4310 N   0  0  0  0  0  0  0  0  0  0  0  0
  191.0480  176.9440  145.5800 C   0  0  0  0  0  0  0  0  0  0  0  0
  195.4840  173.4620  142.4090 C   0  0  0  0  0  2  0  0  0  0  0  0
  188.1960  176.1190  145.7730 C   0  0  0  0  0  2  0  0  0  0  0  0
  188.5320  176.8900  143.3510 C   0  0  1  0  0  3  0  0  0  0  0  0
  187.4840  177.9240  143.7950 C   0  0  0  0  0  2  0  0  0  0  0  0
  188.9420  175.8950  144.4560 C   0  0  1  0  0  3  0  0  0  0  0  0
  186.2930  177.2710  144.5100 C   0  0  1  0  0  3  0  0  0  0  0  0
  186.6910  176.1850  145.5290 C   0  0  0  0  0  2  0  0  0  0  0  0
  185.4010  178.3380  145.1360 C   0  0  2  0  0  3  0  0  0  0  0  0
  185.9690  179.5920  144.9910 F   0  0  0  0  0  0  0  0  0  0  0  0
  185.1490  178.0540  146.6100 C   0  0  0  0  0  2  0  0  0  0  0  0
  185.7370  179.1570  147.4710 C   0  0  0  0  0  1  0  0  0  0  0  0
  188.2120  176.1920  142.0190 C   0  0  2  0  0  3  0  0  0  0  0  0
  186.8000  176.5250  141.5760 C   0  0  0  0  0  2  0  0  0  0  0  0
  186.8210  176.9950  140.2630 O   0  0  0  0  0  0  0  0  0  0  0  0
  185.8420  177.9800  140.2190 C   0  0  0  0  0  1  0  0  0  0  0  0
  188.4040  174.6810  142.0550 C   0  0  0  0  0  2  0  0  0  0  0  0
  189.3870  173.8580  139.8760 C   0  0  0  0  0  0  0  0  0  0  0  0
  188.2430  173.8170  139.3480 O   0  0  0  0  0  0  0  0  0  0  0  0
  189.5380  174.3100  141.2260 N   0  0  0  0  0  2  0  0  0  0  0  0
  190.5820  173.4110  139.0660 C   0  0  1  0  0  0  0  0  0  0  0  0
  191.7780  171.8830  137.5100 O   0  0  0  0  0  1  0  0  0  0  0  0
  190.6140  172.0960  138.2510 C   0  0  2  0  0  0  0  0  0  0  0  0
  190.0880  173.2930  137.7630 O   0  0  0  0  0  0  0  0  0  0  0  0
  191.0890  172.1110  139.6720 C   0  0  2  0  0  3  0  0  0  0  0  0
  190.8330  170.4310  141.3540 O   0  0  0  0  0  1  0  0  0  0  0  0
  190.1190  171.2490  140.4830 C   0  0  0  0  0  2  0  0  0  0  0  0
  196.8670  175.5260  143.8070 O   0  0  0  0  0  0  0  0  0  0  0  0
  197.3380  176.6140  143.0590 C   0  0  0  0  0  1  0  0  0  0  0  0
  192.7930  172.7610  142.9800 C   0  0  0  0  0  2  0  0  0  0  0  0
  192.6460  171.7500  144.1200 C   0  0  0  0  0  2  0  0  0  0  0  0
  194.7280  169.6690  146.3410 C   0  0  0  0  0  3  0  0  0  0  0  0
  194.4900  171.0670  145.7510 C   0  0  2  0  0  3  0  0  0  0  0  0
  192.9740  168.8290  143.4020 O   0  0  0  0  0  0  0  0  0  0  0  0
  193.5610  169.4130  144.3500 C   0  0  0  0  0  0  0  0  0  0  0  0
  193.8670  170.8560  144.3690 C   0  0  1  0  0  3  0  0  0  0  0  0
  194.0380  168.7250  145.4810 N   0  0  0  0  0  0  0  0  0  0  0  0
  195.8190  171.8030  145.6550 C   0  0  0  0  0  2  0  0  0  0  0  0
  196.9950  170.8380  145.7500 C   0  0  0  0  0  2  0  0  0  0  0  0
  197.6800  170.6840  144.4020 C   0  0  0  0  0  2  0  0  0  0  0  0
  197.1980  169.5540  143.7470 O   0  0  0  0  0  1  0  0  0  0  0  0
  1  9  1  0  0  0  0
  1  7  1  1  0  0  0
  2 11  1  0  0  0  0
  2  6  1  0  0  0  0
  3  4  2  0  0  0  0
  4 12  1  0  0  0  0
  5  3  1  6  0  0  0
  5  1  1  0  0  0  0
  6 39  1  1  0  0  0
  6  9  1  0  0  0  0
  9  8  1  1  0  0  0
 11  5  1  0  0  0  0
 12  7  1  0  0  0  0
 12 10  2  0  0  0  0
 13  2  2  0  0  0  0
 15 24  1  6  0  0  0
 15 16  1  0  0  0  0
 15 17  1  0  0  0  0
 16 18  1  0  0  0  0
 17  4  1  1  0  0  0
 17 14  1  0  0  0  0
 18 20  1  1  0  0  0
 18 19  1  0  0  0  0
 19 14  1  0  0  0  0
 20 21  1  1  0  0  0
 20 22  1  0  0  0  0
 22 23  1  0  0  0  0
 24 25  1  1  0  0  0
 24 28  1  0  0  0  0
 26 25  1  0  0  0  0
 27 26  1  0  0  0  0
 29 31  1  0  0  0  0
 30 29  2  0  0  0  0
 31 28  1  0  0  0  0
 32 36  1  0  0  0  0
 32 29  1  1  0  0  0
 34 33  1  6  0  0  0
 34 32  1  0  0  0  0
 34 36  1  0  0  0  0
 35 34  1  0  0  0  0
 35 32  1  0  0  0  0
 36 38  1  1  0  0  0
 38 37  1  0  0  0  0
 40 39  1  0  0  0  0
 41 11  1  0  0  0  0
 41 42  1  0  0  0  0
 44 49  1  6  0  0  0
 44 43  1  0  0  0  0
 45 46  2  0  0  0  0
 46 47  1  0  0  0  0
 46 48  1  0  0  0  0
 47 42  1  1  0  0  0
 47 44  1  0  0  0  0
 48 43  2  0  0  0  0
 49 50  1  0  0  0  0
 51 50  1  0  0  0  0
 52 51  1  0  0  0  0
M  END
>  <MODEL>
2

>  <REMARK>
 VINA RESULT:      -6.6      2.534      6.039
  Name = 
  17 active torsions:
  status: ('A' for Active; 'I' for Inactive)
    1  A    between atoms: C_2  and  C_24
    2  A    between atoms: C_3  and  O_23
    3  A    between atoms: C_3  and  C_46
    4  A    between atoms: C_5  and  C_18
    5  A    between atoms: C_7  and  C_17
    6  A    between atoms: C_7  and  C_42
    7  A    between atoms: C_10  and  C_27
    8  A    between atoms: C_11  and  C_46
    9  A    between atoms: C_14  and  C_44
   10  A    between atoms: C_16  and  C_43
   11  A    between atoms: C_19  and  O_25
   12  A    between atoms: C_24  and  C_44
   13  A    between atoms: C_28  and  C_31
   14  A    between atoms: C_28  and  C_39
   15  A    between atoms: C_31  and  N_41
   16  A    between atoms: C_34  and  C_46
   17  A    between atoms: C_34  and  N_52
                            x       y       z     vdW  Elec       q    Type
                         _______ _______ _______ _____ _____    ______ ____

>  <TORSDO>
F 17

$$$$
=
 OpenBabel11062421363D

 52 57  0  0  1  0  0  0  0  0999 V2000
  189.8460  172.1670  139.0940 C   0  0  1  0  0  3  0  0  0  0  0  0
  192.3830  172.4240  137.7500 C   0  0  0  0  0  0  0  0  0  0  0  0
  190.6610  173.7090  140.8850 C   0  0  0  0  0  3  0  0  0  0  0  0
  189.5460  173.5130  141.6030 C   0  0  0  0  0  0  0  0  0  0  0  0
  190.7310  173.3900  139.4120 C   0  0  1  0  0  3  0  0  0  0  0  0
  191.3390  171.4380  137.2660 C   0  0  1  0  0  3  0  0  0  0  0  0
  188.4040  172.3990  139.5530 C   0  0  0  0  0  2  0  0  0  0  0  0
  189.3630  172.9530  136.7460 C   0  0  0  0  0  1  0  0  0  0  0  0
  189.8960  171.8130  137.6110 C   0  0  2  0  0  3  0  0  0  0  0  0
  187.2710  172.7890  141.6050 O   0  0  0  0  0  0  0  0  0  0  0  0
  192.1190  173.2360  138.9220 N   0  0  0  0  0  0  0  0  0  0  0  0
  188.3550  172.8880  140.9700 C   0  0  0  0  0  0  0  0  0  0  0  0
  193.6060  172.3690  137.2270 C   0  0  0  0  0  2  0  0  0  0  0  0
  190.2080  172.9670  143.9280 C   0  0  0  0  0  2  0  0  0  0  0  0
  190.1170  175.4090  143.1530 C   0  0  1  0  0  3  0  0  0  0  0  0
  191.2960  175.5070  144.1370 C   0  0  0  0  0  2  0  0  0  0  0  0
  189.5220  173.9930  143.0240 C   0  0  1  0  0  3  0  0  0  0  0  0
  190.9810  174.8440  145.4840 C   0  0  1  0  0  3  0  0  0  0  0  0
  190.2730  173.4800  145.3640 C   0  0  0  0  0  2  0  0  0  0  0  0
  192.2430  174.7550  146.3380 C   0  0  2  0  0  3  0  0  0  0  0  0
  192.0280  175.3210  147.5820 F   0  0  0  0  0  0  0  0  0  0  0  0
  193.4210  175.4380  145.6570 C   0  0  0  0  0  2  0  0  0  0  0  0
  194.0810  176.4240  146.6040 C   0  0  0  0  0  1  0  0  0  0  0  0
  189.0370  176.4860  143.3470 C   0  0  2  0  0  3  0  0  0  0  0  0
  188.7060  177.1440  142.0210 C   0  0  0  0  0  2  0  0  0  0  0  0
  187.6290  176.4830  141.4280 O   0  0  0  0  0  0  0  0  0  0  0  0
  187.1240  177.3830  140.4970 C   0  0  0  0  0  1  0  0  0  0  0  0
  189.4040  177.5480  144.3760 C   0  0  0  0  0  2  0  0  0  0  0  0
  187.4310  177.5850  145.9560 C   0  0  0  0  0  0  0  0  0  0  0  0
  187.8210  176.5210  146.5070 O   0  0  0  0  0  0  0  0  0  0  0  0
  188.1970  178.1670  144.8960 N   0  0  0  0  0  2  0  0  0  0  0  0
  186.1410  178.2190  146.4220 C   0  0  1  0  0  0  0  0  0  0  0  0
  183.7150  178.1980  146.9750 O   0  0  0  0  0  1  0  0  0  0  0  0
  184.7850  177.4740  146.4470 C   0  0  2  0  0  0  0  0  0  0  0  0
  185.7210  177.4040  147.4790 O   0  0  0  0  0  0  0  0  0  0  0  0
  185.1900  178.2580  145.2350 C   0  0  2  0  0  3  0  0  0  0  0  0
  184.6280  177.6350  142.9960 O   0  0  0  0  0  1  0  0  0  0  0  0
  185.3950  177.2580  144.0950 C   0  0  0  0  0  2  0  0  0  0  0  0
  191.5220  170.8820  135.9750 O   0  0  0  0  0  0  0  0  0  0  0  0
  191.4830  169.4830  136.0530 C   0  0  0  0  0  1  0  0  0  0  0  0
  193.1170  174.2440  139.3030 C   0  0  0  0  0  2  0  0  0  0  0  0
  194.2170  173.6670  140.1970 C   0  0  0  0  0  2  0  0  0  0  0  0
  195.8220  173.9900  143.5000 C   0  0  0  0  0  3  0  0  0  0  0  0
  194.8610  173.1790  142.6200 C   0  0  2  0  0  3  0  0  0  0  0  0
  194.8430  176.4580  141.1830 O   0  0  0  0  0  0  0  0  0  0  0  0
  195.0070  175.4010  141.8460 C   0  0  0  0  0  0  0  0  0  0  0  0
  194.2200  174.1690  141.6460 C   0  0  1  0  0  3  0  0  0  0  0  0
  195.9370  175.3060  142.8980 N   0  0  0  0  0  0  0  0  0  0  0  0
  193.8150  172.5120  143.5030 C   0  0  0  0  0  2  0  0  0  0  0  0
  193.1660  171.3280  142.7970 C   0  0  0  0  0  2  0  0  0  0  0  0
  192.7680  170.2530  143.7950 C   0  0  0  0  0  2  0  0  0  0  0  0
  193.8730  169.8690  144.5500 O   0  0  0  0  0  1  0  0  0  0  0  0
  1  5  1  0  0  0  0
  1  7  1  6  0  0  0
  2 11  1  0  0  0  0
  3  4  2  0  0  0  0
  5  3  1  1  0  0  0
  6 39  1  6  0  0  0
  6  9  1  0  0  0  0
  6  2  1  0  0  0  0
  7 12  1  0  0  0  0
  9  8  1  6  0  0  0
  9  1  1  0  0  0  0
 11 41  1  0  0  0  0
 11  5  1  0  0  0  0
 12  4  1  0  0  0  0
 12 10  2  0  0  0  0
 13  2  2  0  0  0  0
 14 19  1  0  0  0  0
 15 24  1  1  0  0  0
 15 16  1  0  0  0  0
 16 18  1  0  0  0  0
 17  4  1  6  0  0  0
 17 15  1  0  0  0  0
 17 14  1  0  0  0  0
 18 20  1  6  0  0  0
 19 18  1  0  0  0  0
 20 21  1  1  0  0  0
 22 20  1  0  0  0  0
 22 23  1  0  0  0  0
 24 25  1  6  0  0  0
 24 28  1  0  0  0  0
 26 25  1  0  0  0  0
 27 26  1  0  0  0  0
 28 31  1  0  0  0  0
 29 30  2  0  0  0  0
 31 29  1  0  0  0  0
 32 29  1  6  0  0  0
 32 34  1  0  0  0  0
 32 35  1  0  0  0  0
 34 33  1  1  0  0  0
 34 35  1  0  0  0  0
 36 38  1  6  0  0  0
 36 32  1  0  0  0  0
 36 34  1  0  0  0  0
 37 38  1  0  0  0  0
 39 40  1  0  0  0  0
 41 42  1  0  0  0  0
 44 43  1  0  0  0  0
 44 49  1  1  0  0  0
 45 46  2  0  0  0  0
 46 48  1  0  0  0  0
 47 42  1  6  0  0  0
 47 46  1  0  0  0  0
 47 44  1  0  0  0  0
 48 43  2  0  0  0  0
 50 49  1  0  0  0  0
 50 51  1  0  0  0  0
 51 52  1  0  0  0  0
M  END
>  <MODEL>
3

>  <REMARK>
 VINA RESULT:      -6.6      2.226      3.392
  Name = 
  17 active torsions:
  status: ('A' for Active; 'I' for Inactive)
    1  A    between atoms: C_2  and  C_24
    2  A    between atoms: C_3  and  O_23
    3  A    between atoms: C_3  and  C_46
    4  A    between atoms: C_5  and  C_18
    5  A    between atoms: C_7  and  C_17
    6  A    between atoms: C_7  and  C_42
    7  A    between atoms: C_10  and  C_27
    8  A    between atoms: C_11  and  C_46
    9  A    between atoms: C_14  and  C_44
   10  A    between atoms: C_16  and  C_43
   11  A    between atoms: C_19  and  O_25
   12  A    between atoms: C_24  and  C_44
   13  A    between atoms: C_28  and  C_31
   14  A    between atoms: C_28  and  C_39
   15  A    between atoms: C_31  and  N_41
   16  A    between atoms: C_34  and  C_46
   17  A    between atoms: C_34  and  N_52
                            x       y       z     vdW  Elec       q    Type
                         _______ _______ _______ _____ _____    ______ ____

>  <TORSDO>
F 17

$$$$
=
 OpenBabel11062421363D

 52 57  0  0  1  0  0  0  0  0999 V2000
  191.0200  172.3280  139.2840 C   0  0  1  0  0  3  0  0  0  0  0  0
  193.7960  172.8090  138.6720 C   0  0  0  0  0  0  0  0  0  0  0  0
  191.2070  173.8630  141.2480 C   0  0  0  0  0  3  0  0  0  0  0  0
  189.9600  173.5650  141.6380 C   0  0  0  0  0  0  0  0  0  0  0  0
  191.6910  173.5990  139.8430 C   0  0  1  0  0  3  0  0  0  0  0  0
  192.9970  171.7670  137.9140 C   0  0  1  0  0  3  0  0  0  0  0  0
  189.4950  172.4410  139.3440 C   0  0  0  0  0  2  0  0  0  0  0  0
  191.1200  173.1540  136.9020 C   0  0  0  0  0  1  0  0  0  0  0  0
  191.4900  172.0280  137.8640 C   0  0  2  0  0  3  0  0  0  0  0  0
  187.8300  172.6820  141.0220 O   0  0  0  0  0  0  0  0  0  0  0  0
  193.1670  173.5610  139.7410 N   0  0  0  0  0  0  0  0  0  0  0  0
  189.0320  172.8790  140.7020 C   0  0  0  0  0  0  0  0  0  0  0  0
  195.1140  172.8590  138.4950 C   0  0  0  0  0  2  0  0  0  0  0  0
  190.1240  173.0630  144.0590 C   0  0  0  0  0  2  0  0  0  0  0  0
  189.8380  175.4820  143.2620 C   0  0  1  0  0  3  0  0  0  0  0  0
  190.7170  175.7330  144.4990 C   0  0  0  0  0  2  0  0  0  0  0  0
  189.5210  173.9950  143.0070 C   0  0  1  0  0  3  0  0  0  0  0  0
  190.1980  174.9910  145.7380 C   0  0  1  0  0  3  0  0  0  0  0  0
  189.7620  173.5380  145.4630 C   0  0  0  0  0  2  0  0  0  0  0  0
  191.2160  175.0750  146.8700 C   0  0  2  0  0  3  0  0  0  0  0  0
  190.6180  174.7860  148.0840 F   0  0  0  0  0  0  0  0  0  0  0  0
  191.8660  176.4500  146.9310 C   0  0  0  0  0  2  0  0  0  0  0  0
  191.4220  177.1920  148.1790 C   0  0  0  0  0  1  0  0  0  0  0  0
  188.5880  176.3730  143.1790 C   0  0  2  0  0  3  0  0  0  0  0  0
  188.4480  176.9570  141.7860 C   0  0  0  0  0  2  0  0  0  0  0  0
  187.3230  176.4150  141.1630 O   0  0  0  0  0  0  0  0  0  0  0  0
  186.6690  177.5030  140.5950 C   0  0  0  0  0  1  0  0  0  0  0  0
  188.5580  177.4880  144.2160 C   0  0  0  0  0  2  0  0  0  0  0  0
  186.4880  177.1730  145.6330 C   0  0  0  0  0  0  0  0  0  0  0  0
  187.0850  176.3350  146.3610 O   0  0  0  0  0  0  0  0  0  0  0  0
  187.1810  177.8090  144.5540 N   0  0  0  0  0  2  0  0  0  0  0  0
  185.0340  177.4780  145.9110 C   0  0  1  0  0  0  0  0  0  0  0  0
  183.0400  178.9640  145.9840 O   0  0  0  0  0  1  0  0  0  0  0  0
  184.4140  178.8870  145.7490 C   0  0  2  0  0  0  0  0  0  0  0  0
  184.5520  177.9800  144.6970 O   0  0  0  0  0  0  0  0  0  0  0  0
  184.9830  178.4630  147.0700 C   0  0  2  0  0  3  0  0  0  0  0  0
  186.8080  178.9560  148.5330 O   0  0  0  0  0  1  0  0  0  0  0  0
  186.2040  179.3450  147.3400 C   0  0  0  0  0  2  0  0  0  0  0  0
  193.5600  171.2690  136.7120 O   0  0  0  0  0  0  0  0  0  0  0  0
  193.5410  169.8670  136.7270 C   0  0  0  0  0  1  0  0  0  0  0  0
  193.9460  174.6240  140.3880 C   0  0  0  0  0  2  0  0  0  0  0  0
  194.8490  174.0900  141.5020 C   0  0  0  0  0  2  0  0  0  0  0  0
  196.3520  174.9130  144.7670 C   0  0  0  0  0  3  0  0  0  0  0  0
  195.2260  174.1770  144.0270 C   0  0  2  0  0  3  0  0  0  0  0  0
  196.2430  176.7620  141.7690 O   0  0  0  0  0  0  0  0  0  0  0  0
  196.0580  175.9440  142.7070 C   0  0  0  0  0  0  0  0  0  0  0  0
  194.9480  174.9740  142.7520 C   0  0  1  0  0  3  0  0  0  0  0  0
  196.8770  175.9090  143.8510 N   0  0  0  0  0  0  0  0  0  0  0  0
  193.9960  174.1140  144.9230 C   0  0  0  0  0  2  0  0  0  0  0  0
  193.6260  172.6740  145.2560 C   0  0  0  0  0  2  0  0  0  0  0  0
  194.6580  171.7060  144.7000 C   0  0  0  0  0  2  0  0  0  0  0  0
  194.7840  170.6050  145.5430 O   0  0  0  0  0  1  0  0  0  0  0  0
  1  7  1  6  0  0  0
  1  5  1  0  0  0  0
  2 11  1  0  0  0  0
  3  4  2  0  0  0  0
  5  3  1  1  0  0  0
  6 39  1  6  0  0  0
  6  2  1  0  0  0  0
  7 12  1  0  0  0  0
  9  8  1  6  0  0  0
  9  6  1  0  0  0  0
  9  1  1  0  0  0  0
 11  5  1  0  0  0  0
 11 41  1  0  0  0  0
 12 10  2  0  0  0  0
 12  4  1  0  0  0  0
 13  2  2  0  0  0  0
 14 19  1  0  0  0  0
 15 24  1  1  0  0  0
 15 16  1  0  0  0  0
 16 18  1  0  0  0  0
 17  4  1  6  0  0  0
 17 15  1  0  0  0  0
 17 14  1  0  0  0  0
 18 20  1  1  0  0  0
 19 18  1  0  0  0  0
 20 22  1  0  0  0  0
 20 21  1  1  0  0  0
 22 23  1  0  0  0  0
 24 25  1  6  0  0  0
 24 28  1  0  0  0  0
 26 25  1  0  0  0  0
 27 26  1  0  0  0  0
 28 31  1  0  0  0  0
 29 30  2  0  0  0  0
 31 29  1  0  0  0  0
 32 29  1  6  0  0  0
 32 36  1  0  0  0  0
 34 32  1  0  0  0  0
 34 33  1  1  0  0  0
 34 36  1  0  0  0  0
 35 34  1  0  0  0  0
 35 32  1  0  0  0  0
 36 38  1  6  0  0  0
 38 37  1  0  0  0  0
 39 40  1  0  0  0  0
 41 42  1  0  0  0  0
 44 43  1  0  0  0  0
 44 49  1  1  0  0  0
 45 46  2  0  0  0  0
 46 47  1  0  0  0  0
 46 48  1  0  0  0  0
 47 42  1  6  0  0  0
 47 44  1  0  0  0  0
 48 43  2  0  0  0  0
 49 50  1  0  0  0  0
 51 50  1  0  0  0  0
 51 52  1  0  0  0  0
M  END
>  <MODEL>
4

>  <REMARK>
 VINA RESULT:      -6.5      2.034      2.938
  Name = 
  17 active torsions:
  status: ('A' for Active; 'I' for Inactive)
    1  A    between atoms: C_2  and  C_24
    2  A    between atoms: C_3  and  O_23
    3  A    between atoms: C_3  and  C_46
    4  A    between atoms: C_5  and  C_18
    5  A    between atoms: C_7  and  C_17
    6  A    between atoms: C_7  and  C_42
    7  A    between atoms: C_10  and  C_27
    8  A    between atoms: C_11  and  C_46
    9  A    between atoms: C_14  and  C_44
   10  A    between atoms: C_16  and  C_43
   11  A    between atoms: C_19  and  O_25
   12  A    between atoms: C_24  and  C_44
   13  A    between atoms: C_28  and  C_31
   14  A    between atoms: C_28  and  C_39
   15  A    between atoms: C_31  and  N_41
   16  A    between atoms: C_34  and  C_46
   17  A    between atoms: C_34  and  N_52
                            x       y       z     vdW  Elec       q    Type
                         _______ _______ _______ _____ _____    ______ ____

>  <TORSDO>
F 17

$$$$
=
 OpenBabel11062421363D

 52 57  0  0  1  0  0  0  0  0999 V2000
  190.2140  172.3620  140.1330 C   0  0  1  0  0  3  0  0  0  0  0  0
  192.4180  172.0120  138.3080 C   0  0  0  0  0  0  0  0  0  0  0  0
  191.5120  174.1310  141.3300 C   0  0  0  0  0  3  0  0  0  0  0  0
  190.5650  174.2310  142.2730 C   0  0  0  0  0  0  0  0  0  0  0  0
  191.2400  173.5040  139.9850 C   0  0  1  0  0  3  0  0  0  0  0  0
  191.2200  171.0840  138.2740 C   0  0  1  0  0  3  0  0  0  0  0  0
  188.9270  172.8620  140.7930 C   0  0  0  0  0  2  0  0  0  0  0  0
  189.3040  172.6900  137.8040 C   0  0  0  0  0  1  0  0  0  0  0  0
  189.9180  171.7000  138.7910 C   0  0  2  0  0  3  0  0  0  0  0  0
  188.2930  173.8130  142.8770 O   0  0  0  0  0  0  0  0  0  0  0  0
  192.4750  173.0790  139.2880 N   0  0  0  0  0  0  0  0  0  0  0  0
  189.2200  173.6410  142.0410 C   0  0  0  0  0  0  0  0  0  0  0  0
  193.4920  171.6970  137.5890 C   0  0  0  0  0  2  0  0  0  0  0  0
  191.8840  174.2120  144.3710 C   0  0  0  0  0  2  0  0  0  0  0  0
  191.3530  176.4310  143.2030 C   0  0  1  0  0  3  0  0  0  0  0  0
  192.7400  176.7780  143.7700 C   0  0  0  0  0  2  0  0  0  0  0  0
  190.8830  174.9980  143.5220 C   0  0  1  0  0  3  0  0  0  0  0  0
  192.8690  176.4020  145.2520 C   0  0  1  0  0  3  0  0  0  0  0  0
  192.2880  175.0180  145.6020 C   0  0  0  0  0  2  0  0  0  0  0  0
  194.3170  176.5410  145.7100 C   0  0  2  0  0  3  0  0  0  0  0  0
  194.7450  177.8510  145.5750 F   0  0  0  0  0  0  0  0  0  0  0  0
  195.2370  175.6160  144.9260 C   0  0  0  0  0  2  0  0  0  0  0  0
  195.8300  174.5580  145.8410 C   0  0  0  0  0  1  0  0  0  0  0  0
  190.2690  177.4840  143.4870 C   0  0  2  0  0  3  0  0  0  0  0  0
  189.4260  177.0650  144.6760 C   0  0  0  0  0  2  0  0  0  0  0  0
  189.7510  177.8530  145.7800 O   0  0  0  0  0  0  0  0  0  0  0  0
  189.3160  177.1250  146.8810 C   0  0  0  0  0  1  0  0  0  0  0  0
  189.3720  177.7800  142.2910 C   0  0  0  0  0  2  0  0  0  0  0  0
  186.8500  177.7450  142.4720 C   0  0  0  0  0  0  0  0  0  0  0  0
  186.7970  176.6490  141.8510 O   0  0  0  0  0  0  0  0  0  0  0  0
  188.1170  178.3520  142.7490 N   0  0  0  0  0  2  0  0  0  0  0  0
  185.5600  178.4050  142.9010 C   0  0  1  0  0  0  0  0  0  0  0  0
  184.1280  179.6910  144.4770 O   0  0  0  0  0  1  0  0  0  0  0  0
  185.3640  179.0720  144.2840 C   0  0  2  0  0  0  0  0  0  0  0  0
  185.9290  179.7230  143.1870 O   0  0  0  0  0  0  0  0  0  0  0  0
  185.0180  177.6260  144.0910 C   0  0  2  0  0  3  0  0  0  0  0  0
  185.3890  176.4690  146.1500 O   0  0  0  0  0  1  0  0  0  0  0  0
  185.9920  176.8090  144.9420 C   0  0  0  0  0  2  0  0  0  0  0  0
  191.0780  170.2510  137.1350 O   0  0  0  0  0  0  0  0  0  0  0  0
  190.5090  169.0270  137.5140 C   0  0  0  0  0  1  0  0  0  0  0  0
  193.6080  174.0120  139.2290 C   0  0  0  0  0  2  0  0  0  0  0  0
  194.8970  173.4000  139.7800 C   0  0  0  0  0  2  0  0  0  0  0  0
  196.9380  173.0050  142.8260 C   0  0  0  0  0  3  0  0  0  0  0  0
  195.6740  172.5730  142.0690 C   0  0  2  0  0  3  0  0  0  0  0  0
  196.4470  175.8110  140.7510 O   0  0  0  0  0  0  0  0  0  0  0  0
  196.3730  174.7070  141.3510 C   0  0  0  0  0  0  0  0  0  0  0  0
  195.2360  173.7740  141.2290 C   0  0  1  0  0  3  0  0  0  0  0  0
  197.3600  174.2700  142.2540 N   0  0  0  0  0  0  0  0  0  0  0  0
  194.6000  172.1760  143.0730 C   0  0  0  0  0  2  0  0  0  0  0  0
  193.5410  171.2880  142.4310 C   0  0  0  0  0  2  0  0  0  0  0  0
  192.6100  170.7080  143.4840 C   0  0  0  0  0  2  0  0  0  0  0  0
  191.2850  170.8420  143.0750 O   0  0  0  0  0  1  0  0  0  0  0  0
  1  7  1  6  0  0  0
  2 11  1  0  0  0  0
  3  4  2  0  0  0  0
  5  1  1  0  0  0  0
  5  3  1  1  0  0  0
  6 39  1  6  0  0  0
  6  2  1  0  0  0  0
  6  9  1  0  0  0  0
  7 12  1  0  0  0  0
  9  8  1  6  0  0  0
  9  1  1  0  0  0  0
 11  5  1  0  0  0  0
 12  4  1  0  0  0  0
 12 10  2  0  0  0  0
 13  2  2  0  0  0  0
 14 19  1  0  0  0  0
 15 24  1  1  0  0  0
 15 17  1  0  0  0  0
 15 16  1  0  0  0  0
 16 18  1  0  0  0  0
 17  4  1  6  0  0  0
 17 14  1  0  0  0  0
 18 19  1  0  0  0  0
 18 20  1  6  0  0  0
 20 21  1  6  0  0  0
 22 20  1  0  0  0  0
 22 23  1  0  0  0  0
 24 28  1  6  0  0  0
 24 25  1  0  0  0  0
 25 26  1  0  0  0  0
 26 27  1  0  0  0  0
 28 31  1  0  0  0  0
 29 31  1  0  0  0  0
 30 29  2  0  0  0  0
 32 29  1  1  0  0  0
 32 35  1  0  0  0  0
 32 36  1  0  0  0  0
 32 34  1  0  0  0  0
 34 33  1  6  0  0  0
 35 34  1  0  0  0  0
 36 34  1  0  0  0  0
 36 38  1  1  0  0  0
 38 37  1  0  0  0  0
 39 40  1  0  0  0  0
 41 11  1  0  0  0  0
 41 42  1  0  0  0  0
 44 43  1  0  0  0  0
 44 49  1  1  0  0  0
 45 46  2  0  0  0  0
 46 48  1  0  0  0  0
 47 42  1  6  0  0  0
 47 46  1  0  0  0  0
 47 44  1  0  0  0  0
 48 43  2  0  0  0  0
 50 49  1  0  0  0  0
 50 51  1  0  0  0  0
 52 51  1  0  0  0  0
M  END
>  <MODEL>
5

>  <REMARK>
 VINA RESULT:      -6.4      2.220      4.032
  Name = 
  17 active torsions:
  status: ('A' for Active; 'I' for Inactive)
    1  A    between atoms: C_2  and  C_24
    2  A    between atoms: C_3  and  O_23
    3  A    between atoms: C_3  and  C_46
    4  A    between atoms: C_5  and  C_18
    5  A    between atoms: C_7  and  C_17
    6  A    between atoms: C_7  and  C_42
    7  A    between atoms: C_10  and  C_27
    8  A    between atoms: C_11  and  C_46
    9  A    between atoms: C_14  and  C_44
   10  A    between atoms: C_16  and  C_43
   11  A    between atoms: C_19  and  O_25
   12  A    between atoms: C_24  and  C_44
   13  A    between atoms: C_28  and  C_31
   14  A    between atoms: C_28  and  C_39
   15  A    between atoms: C_31  and  N_41
   16  A    between atoms: C_34  and  C_46
   17  A    between atoms: C_34  and  N_52
                            x       y       z     vdW  Elec       q    Type
                         _______ _______ _______ _____ _____    ______ ____

>  <TORSDO>
F 17

$$$$
=
 OpenBabel11062421363D

 52 57  0  0  1  0  0  0  0  0999 V2000
  190.7380  172.2090  139.6820 C   0  0  1  0  0  3  0  0  0  0  0  0
  193.5370  172.3400  139.0070 C   0  0  0  0  0  0  0  0  0  0  0  0
  191.1250  173.8590  141.5200 C   0  0  0  0  0  3  0  0  0  0  0  0
  189.8610  173.7270  141.9450 C   0  0  0  0  0  0  0  0  0  0  0  0
  191.5510  173.4390  140.1350 C   0  0  1  0  0  3  0  0  0  0  0  0
  192.6180  171.3360  138.3390 C   0  0  1  0  0  3  0  0  0  0  0  0
  189.2350  172.4910  139.7490 C   0  0  0  0  0  2  0  0  0  0  0  0
  190.8810  172.8380  137.2430 C   0  0  0  0  0  1  0  0  0  0  0  0
  191.1470  171.7540  138.2850 C   0  0  2  0  0  3  0  0  0  0  0  0
  187.6370  173.0360  141.4210 O   0  0  0  0  0  0  0  0  0  0  0  0
  193.0130  173.2340  140.0210 N   0  0  0  0  0  0  0  0  0  0  0  0
  188.8470  173.0770  141.0740 C   0  0  0  0  0  0  0  0  0  0  0  0
  194.8490  172.2330  138.8130 C   0  0  0  0  0  2  0  0  0  0  0  0
  190.1480  173.4820  144.3940 C   0  0  0  0  0  2  0  0  0  0  0  0
  189.8320  175.8070  143.3600 C   0  0  1  0  0  3  0  0  0  0  0  0
  190.7760  176.1780  144.5170 C   0  0  0  0  0  2  0  0  0  0  0  0
  189.4960  174.3040  143.2810 C   0  0  1  0  0  3  0  0  0  0  0  0
  190.3180  175.5770  145.8530 C   0  0  1  0  0  3  0  0  0  0  0  0
  189.8620  174.1070  145.7570 C   0  0  0  0  0  2  0  0  0  0  0  0
  191.3950  175.7690  146.9160 C   0  0  2  0  0  3  0  0  0  0  0  0
  191.0560  176.8050  147.7690 F   0  0  0  0  0  0  0  0  0  0  0  0
  192.7530  176.0420  146.2860 C   0  0  0  0  0  2  0  0  0  0  0  0
  193.5460  174.7540  146.1560 C   0  0  0  0  0  1  0  0  0  0  0  0
  188.5840  176.6970  143.2480 C   0  0  2  0  0  3  0  0  0  0  0  0
  188.5080  177.3260  141.8700 C   0  0  0  0  0  2  0  0  0  0  0  0
  187.5840  176.6300  141.0890 O   0  0  0  0  0  0  0  0  0  0  0  0
  186.5820  177.5520  140.8120 C   0  0  0  0  0  1  0  0  0  0  0  0
  188.5010  177.7780  144.3180 C   0  0  0  0  0  2  0  0  0  0  0  0
  186.3910  177.3130  145.6330 C   0  0  0  0  0  0  0  0  0  0  0  0
  186.9780  176.4240  146.3060 O   0  0  0  0  0  0  0  0  0  0  0  0
  187.1090  178.0490  144.6360 N   0  0  0  0  0  2  0  0  0  0  0  0
  184.9250  177.5740  145.8860 C   0  0  1  0  0  0  0  0  0  0  0  0
  182.8940  179.0090  145.9670 O   0  0  0  0  0  1  0  0  0  0  0  0
  184.2750  178.9730  145.7630 C   0  0  2  0  0  0  0  0  0  0  0  0
  184.4590  178.1110  144.6810 O   0  0  0  0  0  0  0  0  0  0  0  0
  184.8230  178.5130  147.0800 C   0  0  2  0  0  3  0  0  0  0  0  0
  186.6900  178.9040  148.5210 O   0  0  0  0  0  1  0  0  0  0  0  0
  186.0160  179.4110  147.4130 C   0  0  0  0  0  2  0  0  0  0  0  0
  193.1010  170.6910  137.1730 O   0  0  0  0  0  0  0  0  0  0  0  0
  192.9280  169.3050  137.2940 C   0  0  0  0  0  1  0  0  0  0  0  0
  193.9130  174.2520  140.5770 C   0  0  0  0  0  2  0  0  0  0  0  0
  194.4550  173.8620  141.9540 C   0  0  0  0  0  2  0  0  0  0  0  0
  196.7580  176.3900  143.3340 C   0  0  0  0  0  3  0  0  0  0  0  0
  196.0280  175.8710  142.0870 C   0  0  2  0  0  3  0  0  0  0  0  0
  196.2370  173.0270  144.2530 O   0  0  0  0  0  0  0  0  0  0  0  0
  196.2780  174.1430  143.6710 C   0  0  0  0  0  0  0  0  0  0  0  0
  195.8710  174.3600  142.2700 C   0  0  1  0  0  3  0  0  0  0  0  0
  196.7770  175.3020  144.2950 N   0  0  0  0  0  0  0  0  0  0  0  0
  196.8530  176.1990  140.8510 C   0  0  0  0  0  2  0  0  0  0  0  0
  197.7030  175.0100  140.4200 C   0  0  0  0  0  2  0  0  0  0  0  0
  197.7540  174.9010  138.9050 C   0  0  0  0  0  2  0  0  0  0  0  0
  196.5460  175.3220  138.3540 O   0  0  0  0  0  1  0  0  0  0  0  0
  1  7  1  6  0  0  0
  1  5  1  0  0  0  0
  2 11  1  0  0  0  0
  3  4  2  0  0  0  0
  5  3  1  1  0  0  0
  6 39  1  6  0  0  0
  6  2  1  0  0  0  0
  7 12  1  0  0  0  0
  9  8  1  6  0  0  0
  9  6  1  0  0  0  0
  9  1  1  0  0  0  0
 11  5  1  0  0  0  0
 11 41  1  0  0  0  0
 12 10  2  0  0  0  0
 12  4  1  0  0  0  0
 13  2  2  0  0  0  0
 14 19  1  0  0  0  0
 15 24  1  1  0  0  0
 15 16  1  0  0  0  0
 16 18  1  0  0  0  0
 17  4  1  6  0  0  0
 17 15  1  0  0  0  0
 17 14  1  0  0  0  0
 18 20  1  1  0  0  0
 19 18  1  0  0  0  0
 20 21  1  1  0  0  0
 22 20  1  0  0  0  0
 23 22  1  0  0  0  0
 24 25  1  6  0  0  0
 24 28  1  0  0  0  0
 26 25  1  0  0  0  0
 27 26  1  0  0  0  0
 28 31  1  0  0  0  0
 29 30  2  0  0  0  0
 31 29  1  0  0  0  0
 32 29  1  6  0  0  0
 32 36  1  0  0  0  0
 34 32  1  0  0  0  0
 34 33  1  1  0  0  0
 34 36  1  0  0  0  0
 35 34  1  0  0  0  0
 35 32  1  0  0  0  0
 36 38  1  6  0  0  0
 38 37  1  0  0  0  0
 39 40  1  0  0  0  0
 41 42  1  0  0  0  0
 43 48  2  0  0  0  0
 44 49  1  6  0  0  0
 44 47  1  0  0  0  0
 44 43  1  0  0  0  0
 46 45  2  0  0  0  0
 46 48  1  0  0  0  0
 47 42  1  1  0  0  0
 47 46  1  0  0  0  0
 50 49  1  0  0  0  0
 51 50  1  0  0  0  0
 52 51  1  0  0  0  0
M  END
>  <MODEL>
6

>  <REMARK>
 VINA RESULT:      -6.3      2.129      3.691
  Name = 
  17 active torsions:
  status: ('A' for Active; 'I' for Inactive)
    1  A    between atoms: C_2  and  C_24
    2  A    between atoms: C_3  and  O_23
    3  A    between atoms: C_3  and  C_46
    4  A    between atoms: C_5  and  C_18
    5  A    between atoms: C_7  and  C_17
    6  A    between atoms: C_7  and  C_42
    7  A    between atoms: C_10  and  C_27
    8  A    between atoms: C_11  and  C_46
    9  A    between atoms: C_14  and  C_44
   10  A    between atoms: C_16  and  C_43
   11  A    between atoms: C_19  and  O_25
   12  A    between atoms: C_24  and  C_44
   13  A    between atoms: C_28  and  C_31
   14  A    between atoms: C_28  and  C_39
   15  A    between atoms: C_31  and  N_41
   16  A    between atoms: C_34  and  C_46
   17  A    between atoms: C_34  and  N_52
                            x       y       z     vdW  Elec       q    Type
                         _______ _______ _______ _____ _____    ______ ____

>  <TORSDO>
F 17

$$$$
=
 OpenBabel11062421363D

 52 57  0  0  1  0  0  0  0  0999 V2000
  191.0160  171.9900  139.9940 C   0  0  1  0  0  3  0  0  0  0  0  0
  192.9670  172.8120  138.0370 C   0  0  0  0  0  0  0  0  0  0  0  0
  191.9430  173.6720  141.5950 C   0  0  0  0  0  3  0  0  0  0  0  0
  191.1390  173.2300  142.5720 C   0  0  0  0  0  0  0  0  0  0  0  0
  191.6700  173.3790  140.1400 C   0  0  1  0  0  3  0  0  0  0  0  0
  192.0680  171.6170  137.7910 C   0  0  1  0  0  3  0  0  0  0  0  0
  189.7430  171.8910  140.8380 C   0  0  0  0  0  2  0  0  0  0  0  0
  189.7470  172.6510  137.9170 C   0  0  0  0  0  1  0  0  0  0  0  0
  190.7300  171.6590  138.5330 C   0  0  2  0  0  3  0  0  0  0  0  0
  189.1640  172.0150  143.1400 O   0  0  0  0  0  0  0  0  0  0  0  0
  192.8680  173.5420  139.2860 N   0  0  0  0  0  0  0  0  0  0  0  0
  189.9820  172.3550  142.2440 C   0  0  0  0  0  0  0  0  0  0  0  0
  193.9800  173.0330  137.2030 C   0  0  0  0  0  2  0  0  0  0  0  0
  192.8330  173.3200  144.3780 C   0  0  0  0  0  2  0  0  0  0  0  0
  191.0950  175.1900  144.1470 C   0  0  1  0  0  3  0  0  0  0  0  0
  192.2850  176.0220  144.6580 C   0  0  0  0  0  2  0  0  0  0  0  0
  191.4050  173.6900  143.9750 C   0  0  1  0  0  3  0  0  0  0  0  0
  192.9520  175.3840  145.8840 C   0  0  1  0  0  3  0  0  0  0  0  0
  193.1520  173.8600  145.7690 C   0  0  0  0  0  2  0  0  0  0  0  0
  194.2550  176.1050  146.2120 C   0  0  2  0  0  3  0  0  0  0  0  0
  194.0230  177.1590  147.0780 F   0  0  0  0  0  0  0  0  0  0  0  0
  194.9390  176.6140  144.9510 C   0  0  0  0  0  2  0  0  0  0  0  0
  196.0440  175.6640  144.5260 C   0  0  0  0  0  1  0  0  0  0  0  0
  189.7780  175.4380  144.8980 C   0  0  2  0  0  3  0  0  0  0  0  0
  189.5080  174.3090  145.8760 C   0  0  0  0  0  2  0  0  0  0  0  0
  188.9670  174.8290  147.0520 O   0  0  0  0  0  0  0  0  0  0  0  0
  189.9850  175.5960  147.6060 C   0  0  0  0  0  1  0  0  0  0  0  0
  188.5750  175.6320  143.9830 C   0  0  0  0  0  2  0  0  0  0  0  0
  187.2820  177.7880  144.2450 C   0  0  0  0  0  0  0  0  0  0  0  0
  187.8640  178.2870  143.2460 O   0  0  0  0  0  0  0  0  0  0  0  0
  187.5750  176.4470  144.6520 N   0  0  0  0  0  2  0  0  0  0  0  0
  186.2880  178.6330  145.0080 C   0  0  1  0  0  0  0  0  0  0  0  0
  184.1150  179.0360  146.1520 O   0  0  0  0  0  1  0  0  0  0  0  0
  184.8690  178.1440  145.3870 C   0  0  2  0  0  0  0  0  0  0  0  0
  186.0050  177.8780  146.1520 O   0  0  0  0  0  0  0  0  0  0  0  0
  185.0930  178.8750  144.0970 C   0  0  2  0  0  3  0  0  0  0  0  0
  184.9110  178.5400  141.7370 O   0  0  0  0  0  1  0  0  0  0  0  0
  184.8210  177.8850  142.9620 C   0  0  0  0  0  2  0  0  0  0  0  0
  192.0020  171.1180  136.4650 O   0  0  0  0  0  0  0  0  0  0  0  0
  191.8220  169.7280  136.4920 C   0  0  0  0  0  1  0  0  0  0  0  0
  193.6920  174.7470  139.4490 C   0  0  0  0  0  2  0  0  0  0  0  0
  194.1220  174.9680  140.9010 C   0  0  0  0  0  2  0  0  0  0  0  0
  197.5530  174.2350  139.7670 C   0  0  0  0  0  3  0  0  0  0  0  0
  196.2480  173.6670  140.3430 C   0  0  2  0  0  3  0  0  0  0  0  0
  196.2120  177.1240  141.2780 O   0  0  0  0  0  0  0  0  0  0  0  0
  196.4360  175.9630  140.8440 C   0  0  0  0  0  0  0  0  0  0  0  0
  195.6190  174.7820  141.1800 C   0  0  1  0  0  3  0  0  0  0  0  0
  197.5410  175.6640  140.0240 N   0  0  0  0  0  0  0  0  0  0  0  0
  196.5670  172.4460  141.1950 C   0  0  0  0  0  2  0  0  0  0  0  0
  195.5350  172.2550  142.2990 C   0  0  0  0  0  2  0  0  0  0  0  0
  196.0630  171.3260  143.3800 C   0  0  0  0  0  2  0  0  0  0  0  0
  196.4170  172.0590  144.5100 O   0  0  0  0  0  1  0  0  0  0  0  0
  1  5  1  0  0  0  0
  1  7  1  1  0  0  0
  2 11  1  0  0  0  0
  3  4  2  0  0  0  0
  5  3  1  1  0  0  0
  6 39  1  6  0  0  0
  6  2  1  0  0  0  0
  6  9  1  0  0  0  0
  7 12  1  0  0  0  0
  9  8  1  6  0  0  0
  9  1  1  0  0  0  0
 11 41  1  0  0  0  0
 11  5  1  0  0  0  0
 12  4  1  0  0  0  0
 12 10  2  0  0  0  0
 13  2  2  0  0  0  0
 14 19  1  0  0  0  0
 15 16  1  0  0  0  0
 15 24  1  1  0  0  0
 16 18  1  0  0  0  0
 17  4  1  6  0  0  0
 17 15  1  0  0  0  0
 17 14  1  0  0  0  0
 18 20  1  6  0  0  0
 19 18  1  0  0  0  0
 20 21  1  1  0  0  0
 22 20  1  0  0  0  0
 23 22  1  0  0  0  0
 24 28  1  6  0  0  0
 24 25  1  0  0  0  0
 25 26  1  0  0  0  0
 26 27  1  0  0  0  0
 28 31  1  0  0  0  0
 29 31  1  0  0  0  0
 30 29  2  0  0  0  0
 32 29  1  6  0  0  0
 32 34  1  0  0  0  0
 32 35  1  0  0  0  0
 34 35  1  0  0  0  0
 34 33  1  1  0  0  0
 36 38  1  6  0  0  0
 36 32  1  0  0  0  0
 36 34  1  0  0  0  0
 37 38  1  0  0  0  0
 39 40  1  0  0  0  0
 41 42  1  0  0  0  0
 43 48  2  0  0  0  0
 43 44  1  0  0  0  0
 44 47  1  0  0  0  0
 44 49  1  1  0  0  0
 46 47  1  0  0  0  0
 46 45  2  0  0  0  0
 47 42  1  6  0  0  0
 48 46  1  0  0  0  0
 49 50  1  0  0  0  0
 50 51  1  0  0  0  0
 51 52  1  0  0  0  0
M  END
>  <MODEL>
7

>  <REMARK>
 VINA RESULT:      -6.1      2.206      3.751
  Name = 
  17 active torsions:
  status: ('A' for Active; 'I' for Inactive)
    1  A    between atoms: C_2  and  C_24
    2  A    between atoms: C_3  and  O_23
    3  A    between atoms: C_3  and  C_46
    4  A    between atoms: C_5  and  C_18
    5  A    between atoms: C_7  and  C_17
    6  A    between atoms: C_7  and  C_42
    7  A    between atoms: C_10  and  C_27
    8  A    between atoms: C_11  and  C_46
    9  A    between atoms: C_14  and  C_44
   10  A    between atoms: C_16  and  C_43
   11  A    between atoms: C_19  and  O_25
   12  A    between atoms: C_24  and  C_44
   13  A    between atoms: C_28  and  C_31
   14  A    between atoms: C_28  and  C_39
   15  A    between atoms: C_31  and  N_41
   16  A    between atoms: C_34  and  C_46
   17  A    between atoms: C_34  and  N_52
                            x       y       z     vdW  Elec       q    Type
                         _______ _______ _______ _____ _____    ______ ____

>  <TORSDO>
F 17

$$$$
=
 OpenBabel11062421363D

 52 57  0  0  1  0  0  0  0  0999 V2000
  190.4780  171.9140  139.5660 C   0  0  1  0  0  3  0  0  0  0  0  0
  193.2440  171.5910  138.8190 C   0  0  0  0  0  0  0  0  0  0  0  0
  191.1830  173.3790  141.4650 C   0  0  0  0  0  3  0  0  0  0  0  0
  189.9240  173.4480  141.9190 C   0  0  0  0  0  0  0  0  0  0  0  0
  191.5020  172.9610  140.0500 C   0  0  1  0  0  3  0  0  0  0  0  0
  192.1510  170.7960  138.1330 C   0  0  1  0  0  3  0  0  0  0  0  0
  189.0490  172.4490  139.6870 C   0  0  0  0  0  2  0  0  0  0  0  0
  190.6820  172.6280  137.1550 C   0  0  0  0  0  1  0  0  0  0  0  0
  190.7740  171.4640  138.1380 C   0  0  2  0  0  3  0  0  0  0  0  0
  187.6030  173.1800  141.4250 O   0  0  0  0  0  0  0  0  0  0  0  0
  192.9030  172.5110  139.8870 N   0  0  0  0  0  0  0  0  0  0  0  0
  188.7950  173.0270  141.0470 C   0  0  0  0  0  0  0  0  0  0  0  0
  194.5130  171.2670  138.5850 C   0  0  0  0  0  2  0  0  0  0  0  0
  190.3700  173.1270  144.3350 C   0  0  0  0  0  2  0  0  0  0  0  0
  190.1230  175.4900  143.3730 C   0  0  1  0  0  3  0  0  0  0  0  0
  191.1670  175.7780  144.4650 C   0  0  0  0  0  2  0  0  0  0  0  0
  189.6910  174.0130  143.2890 C   0  0  1  0  0  3  0  0  0  0  0  0
  190.7710  175.1720  145.8180 C   0  0  1  0  0  3  0  0  0  0  0  0
  190.2210  173.7350  145.7270 C   0  0  0  0  0  2  0  0  0  0  0  0
  191.9310  175.2740  146.8040 C   0  0  2  0  0  3  0  0  0  0  0  0
  191.8010  176.4040  147.5920 F   0  0  0  0  0  0  0  0  0  0  0  0
  193.2710  175.3010  146.0820 C   0  0  0  0  0  2  0  0  0  0  0  0
  194.1410  176.4230  146.6210 C   0  0  0  0  0  1  0  0  0  0  0  0
  188.9260  176.4550  143.3690 C   0  0  2  0  0  3  0  0  0  0  0  0
  188.8880  177.2440  142.0740 C   0  0  0  0  0  2  0  0  0  0  0  0
  187.8140  176.8120  141.2960 O   0  0  0  0  0  0  0  0  0  0  0  0
  187.0240  177.9410  141.1180 C   0  0  0  0  0  1  0  0  0  0  0  0
  188.9000  177.4070  144.5590 C   0  0  0  0  0  2  0  0  0  0  0  0
  186.8990  177.0120  146.0530 C   0  0  0  0  0  0  0  0  0  0  0  0
  187.5570  176.2040  146.7610 O   0  0  0  0  0  0  0  0  0  0  0  0
  187.5250  177.6710  144.9470 N   0  0  0  0  0  2  0  0  0  0  0  0
  185.4450  177.2580  146.3840 C   0  0  1  0  0  0  0  0  0  0  0  0
  183.3640  178.6200  146.4200 O   0  0  0  0  0  1  0  0  0  0  0  0
  184.7250  178.6010  146.1130 C   0  0  2  0  0  0  0  0  0  0  0  0
  184.8670  177.5950  145.1560 O   0  0  0  0  0  0  0  0  0  0  0  0
  185.3910  178.3580  147.4340 C   0  0  2  0  0  3  0  0  0  0  0  0
  187.0520  179.3470  148.8400 O   0  0  0  0  0  1  0  0  0  0  0  0
  186.5630  179.3360  147.5370 C   0  0  0  0  0  2  0  0  0  0  0  0
  192.4910  170.1340  136.9260 O   0  0  0  0  0  0  0  0  0  0  0  0
  191.4410  169.2900  136.5380 C   0  0  0  0  0  1  0  0  0  0  0  0
  193.9780  173.3290  140.4630 C   0  0  0  0  0  2  0  0  0  0  0  0
  194.1170  174.6840  139.7650 C   0  0  0  0  0  2  0  0  0  0  0  0
  197.7450  174.0500  139.5900 C   0  0  0  0  0  3  0  0  0  0  0  0
  196.5650  174.4870  140.4700 C   0  0  2  0  0  3  0  0  0  0  0  0
  195.5030  175.1940  137.1240 O   0  0  0  0  0  0  0  0  0  0  0  0
  196.0790  174.8650  138.1940 C   0  0  0  0  0  0  0  0  0  0  0  0
  195.5570  175.1650  139.5400 C   0  0  1  0  0  3  0  0  0  0  0  0
  197.3270  174.2150  138.2100 N   0  0  0  0  0  0  0  0  0  0  0  0
  197.0660  175.4460  141.5400 C   0  0  0  0  0  2  0  0  0  0  0  0
  196.8580  174.8750  142.9380 C   0  0  0  0  0  2  0  0  0  0  0  0
  196.4180  175.9600  143.9060 C   0  0  0  0  0  2  0  0  0  0  0  0
  196.8630  177.2040  143.4660 O   0  0  0  0  0  1  0  0  0  0  0  0
  1  7  1  6  0  0  0
  1  5  1  0  0  0  0
  2 11  1  0  0  0  0
  3  4  2  0  0  0  0
  5  3  1  1  0  0  0
  6 39  1  6  0  0  0
  6  9  1  0  0  0  0
  6  2  1  0  0  0  0
  7 12  1  0  0  0  0
  9  8  1  6  0  0  0
  9  1  1  0  0  0  0
 11  5  1  0  0  0  0
 11 41  1  0  0  0  0
 12 10  2  0  0  0  0
 12  4  1  0  0  0  0
 13  2  2  0  0  0  0
 14 19  1  0  0  0  0
 15 24  1  1  0  0  0
 15 16  1  0  0  0  0
 16 18  1  0  0  0  0
 17  4  1  6  0  0  0
 17 15  1  0  0  0  0
 17 14  1  0  0  0  0
 18 20  1  1  0  0  0
 19 18  1  0  0  0  0
 20 21  1  6  0  0  0
 22 23  1  0  0  0  0
 22 20  1  0  0  0  0
 24 25  1  6  0  0  0
 24 28  1  0  0  0  0
 26 25  1  0  0  0  0
 27 26  1  0  0  0  0
 28 31  1  0  0  0  0
 29 30  2  0  0  0  0
 31 29  1  0  0  0  0
 32 29  1  6  0  0  0
 32 36  1  0  0  0  0
 34 32  1  0  0  0  0
 34 33  1  1  0  0  0
 34 36  1  0  0  0  0
 35 34  1  0  0  0  0
 35 32  1  0  0  0  0
 36 38  1  6  0  0  0
 38 37  1  0  0  0  0
 40 39  1  0  0  0  0
 42 41  1  0  0  0  0
 43 44  1  0  0  0  0
 44 49  1  1  0  0  0
 45 46  2  0  0  0  0
 46 48  1  0  0  0  0
 46 47  1  0  0  0  0
 47 42  1  6  0  0  0
 47 44  1  0  0  0  0
 48 43  2  0  0  0  0
 49 50  1  0  0  0  0
 50 51  1  0  0  0  0
 52 51  1  0  0  0  0
M  END
>  <MODEL>
8

>  <REMARK>
 VINA RESULT:      -6.1      2.607      4.197
  Name = 
  17 active torsions:
  status: ('A' for Active; 'I' for Inactive)
    1  A    between atoms: C_2  and  C_24
    2  A    between atoms: C_3  and  O_23
    3  A    between atoms: C_3  and  C_46
    4  A    between atoms: C_5  and  C_18
    5  A    between atoms: C_7  and  C_17
    6  A    between atoms: C_7  and  C_42
    7  A    between atoms: C_10  and  C_27
    8  A    between atoms: C_11  and  C_46
    9  A    between atoms: C_14  and  C_44
   10  A    between atoms: C_16  and  C_43
   11  A    between atoms: C_19  and  O_25
   12  A    between atoms: C_24  and  C_44
   13  A    between atoms: C_28  and  C_31
   14  A    between atoms: C_28  and  C_39
   15  A    between atoms: C_31  and  N_41
   16  A    between atoms: C_34  and  C_46
   17  A    between atoms: C_34  and  N_52
                            x       y       z     vdW  Elec       q    Type
                         _______ _______ _______ _____ _____    ______ ____

>  <TORSDO>
F 17

$$$$
=
 OpenBabel11062421363D

 52 57  0  0  1  0  0  0  0  0999 V2000
  190.3220  172.3430  141.7290 C   0  0  1  0  0  3  0  0  0  0  0  0
  193.1680  171.8940  141.6280 C   0  0  0  0  0  0  0  0  0  0  0  0
  190.7400  174.7590  142.2130 C   0  0  0  0  0  3  0  0  0  0  0  0
  189.4310  174.9800  142.3960 C   0  0  0  0  0  0  0  0  0  0  0  0
  191.2520  173.5470  141.4750 C   0  0  1  0  0  3  0  0  0  0  0  0
  192.1920  170.7370  141.5600 C   0  0  1  0  0  3  0  0  0  0  0  0
  188.8790  172.6720  141.3400 C   0  0  0  0  0  2  0  0  0  0  0  0
  190.8280  171.3010  139.4880 C   0  0  0  0  0  1  0  0  0  0  0  0
  190.8130  171.0960  141.0000 C   0  0  2  0  0  3  0  0  0  0  0  0
  187.2020  174.2160  142.0140 O   0  0  0  0  0  0  0  0  0  0  0  0
  192.6710  173.2480  141.7740 N   0  0  0  0  0  0  0  0  0  0  0  0
  188.4360  173.9750  141.9370 C   0  0  0  0  0  0  0  0  0  0  0  0
  194.4640  171.6300  141.7790 C   0  0  0  0  0  2  0  0  0  0  0  0
  188.5270  177.2380  141.9190 C   0  0  0  0  0  2  0  0  0  0  0  0
  187.9700  176.0670  144.1300 C   0  0  1  0  0  3  0  0  0  0  0  0
  186.6500  176.8280  143.9150 C   0  0  0  0  0  2  0  0  0  0  0  0
  189.0080  176.2810  143.0110 C   0  0  1  0  0  3  0  0  0  0  0  0
  186.8840  178.3030  143.5630 C   0  0  1  0  0  3  0  0  0  0  0  0
  188.0080  178.5340  142.5350 C   0  0  0  0  0  2  0  0  0  0  0  0
  185.5760  178.9580  143.1310 C   0  0  2  0  0  3  0  0  0  0  0  0
  185.0860  179.7760  144.1350 F   0  0  0  0  0  0  0  0  0  0  0  0
  184.5300  177.9160  142.7610 C   0  0  0  0  0  2  0  0  0  0  0  0
  183.8540  178.2850  141.4520 C   0  0  0  0  0  1  0  0  0  0  0  0
  188.5740  176.2280  145.5340 C   0  0  2  0  0  3  0  0  0  0  0  0
  187.4770  176.4480  146.5580 C   0  0  0  0  0  2  0  0  0  0  0  0
  187.5120  177.7690  147.0040 O   0  0  0  0  0  0  0  0  0  0  0  0
  186.3200  177.9460  147.6970 C   0  0  0  0  0  1  0  0  0  0  0  0
  189.6090  177.3410  145.6340 C   0  0  0  0  0  2  0  0  0  0  0  0
  192.0720  176.7800  145.5310 C   0  0  0  0  0  0  0  0  0  0  0  0
  192.1520  177.2370  144.3600 O   0  0  0  0  0  0  0  0  0  0  0  0
  190.8270  176.8280  146.2370 N   0  0  0  0  0  2  0  0  0  0  0  0
  193.3030  176.1730  146.1640 C   0  0  1  0  0  0  0  0  0  0  0  0
  195.3770  174.7990  146.1430 O   0  0  0  0  0  1  0  0  0  0  0  0
  194.2530  175.2050  145.4200 C   0  0  2  0  0  0  0  0  0  0  0  0
  194.3540  176.5940  145.3430 O   0  0  0  0  0  0  0  0  0  0  0  0
  193.1010  174.6650  146.2120 C   0  0  2  0  0  3  0  0  0  0  0  0
  192.4860  172.6910  145.0120 O   0  0  0  0  0  1  0  0  0  0  0  0
  192.1310  174.0210  145.2190 C   0  0  0  0  0  2  0  0  0  0  0  0
  192.7020  169.4830  141.1380 O   0  0  0  0  0  0  0  0  0  0  0  0
  191.7980  168.4670  141.4800 C   0  0  0  0  0  1  0  0  0  0  0  0
  193.6440  174.3480  141.7430 C   0  0  0  0  0  2  0  0  0  0  0  0
  193.7590  174.9870  140.3570 C   0  0  0  0  0  2  0  0  0  0  0  0
  195.1400  174.4770  136.9770 C   0  0  0  0  0  3  0  0  0  0  0  0
  194.1180  174.0120  138.0240 C   0  0  2  0  0  3  0  0  0  0  0  0
  196.6870  175.6210  139.9310 O   0  0  0  0  0  0  0  0  0  0  0  0
  195.9210  175.1150  139.0690 C   0  0  0  0  0  0  0  0  0  0  0  0
  194.7350  174.3000  139.3940 C   0  0  1  0  0  3  0  0  0  0  0  0
  196.1560  175.2330  137.6870 N   0  0  0  0  0  0  0  0  0  0  0  0
  193.8500  172.5250  137.8360 C   0  0  0  0  0  2  0  0  0  0  0  0
  195.1180  171.7040  138.0390 C   0  0  0  0  0  2  0  0  0  0  0  0
  194.7840  170.2350  138.2430 C   0  0  0  0  0  2  0  0  0  0  0  0
  195.6950  169.6560  139.1240 O   0  0  0  0  0  1  0  0  0  0  0  0
  1  7  1  6  0  0  0
  2 11  1  0  0  0  0
  2 13  2  0  0  0  0
  3  4  2  0  0  0  0
  5  1  1  0  0  0  0
  5 11  1  0  0  0  0
  5  3  1  1  0  0  0
  6 39  1  6  0  0  0
  6  2  1  0  0  0  0
  7 12  1  0  0  0  0
  9  8  1  6  0  0  0
  9  6  1  0  0  0  0
  9  1  1  0  0  0  0
 12 10  2  0  0  0  0
 12  4  1  0  0  0  0
 14 19  1  0  0  0  0
 14 17  1  0  0  0  0
 15 24  1  1  0  0  0
 16 15  1  0  0  0  0
 17  4  1  6  0  0  0
 17 15  1  0  0  0  0
 18 20  1  6  0  0  0
 18 16  1  0  0  0  0
 19 18  1  0  0  0  0
 20 21  1  1  0  0  0
 22 20  1  0  0  0  0
 23 22  1  0  0  0  0
 24 28  1  6  0  0  0
 24 25  1  0  0  0  0
 25 26  1  0  0  0  0
 26 27  1  0  0  0  0
 28 31  1  0  0  0  0
 29 31  1  0  0  0  0
 30 29  2  0  0  0  0
 32 29  1  6  0  0  0
 32 36  1  0  0  0  0
 34 33  1  1  0  0  0
 34 32  1  0  0  0  0
 34 36  1  0  0  0  0
 35 34  1  0  0  0  0
 35 32  1  0  0  0  0
 36 38  1  6  0  0  0
 37 38  1  0  0  0  0
 39 40  1  0  0  0  0
 41 11  1  0  0  0  0
 42 41  1  0  0  0  0
 43 48  2  0  0  0  0
 43 44  1  0  0  0  0
 44 49  1  1  0  0  0
 44 47  1  0  0  0  0
 46 47  1  0  0  0  0
 46 45  2  0  0  0  0
 47 42  1  1  0  0  0
 48 46  1  0  0  0  0
 49 50  1  0  0  0  0
 50 51  1  0  0  0  0
 51 52  1  0  0  0  0
M  END
>  <MODEL>
9

>  <REMARK>
 VINA RESULT:      -6.0      2.475      6.349
  Name = 
  17 active torsions:
  status: ('A' for Active; 'I' for Inactive)
    1  A    between atoms: C_2  and  C_24
    2  A    between atoms: C_3  and  O_23
    3  A    between atoms: C_3  and  C_46
    4  A    between atoms: C_5  and  C_18
    5  A    between atoms: C_7  and  C_17
    6  A    between atoms: C_7  and  C_42
    7  A    between atoms: C_10  and  C_27
    8  A    between atoms: C_11  and  C_46
    9  A    between atoms: C_14  and  C_44
   10  A    between atoms: C_16  and  C_43
   11  A    between atoms: C_19  and  O_25
   12  A    between atoms: C_24  and  C_44
   13  A    between atoms: C_28  and  C_31
   14  A    between atoms: C_28  and  C_39
   15  A    between atoms: C_31  and  N_41
   16  A    between atoms: C_34  and  C_46
   17  A    between atoms: C_34  and  N_52
                            x       y       z     vdW  Elec       q    Type
                         _______ _______ _______ _____ _____    ______ ____

>  <TORSDO>
F 17

$$$$
