=
 OpenBabel11062419513D

 30 32  0  0  1  0  0  0  0  0999 V2000
  190.8230  176.0640  147.9910 N   0  0  0  0  0  0  0  0  0  0  0  0
  194.9210  175.5790  145.0550 C   0  0  2  0  0  3  0  0  0  0  0  0
  192.9760  175.6460  143.4310 C   0  0  0  0  0  1  0  0  0  0  0  0
  192.5010  175.4250  145.8570 C   0  0  0  0  0  0  0  0  0  0  0  0
  193.4910  175.0510  144.7380 C   0  0  2  0  0  0  0  0  0  0  0  0
  192.8740  176.3900  146.8220 C   0  0  0  0  0  0  0  0  0  0  0  0
  191.1970  174.8550  145.9500 C   0  0  0  0  0  0  0  0  0  0  0  0
  189.0530  174.5390  147.2700 C   0  0  0  0  0  1  0  0  0  0  0  0
  192.0250  176.6780  147.8870 C   0  0  0  0  0  3  0  0  0  0  0  0
  190.3890  175.1720  147.0650 C   0  0  0  0  0  0  0  0  0  0  0  0
  194.9010  177.0060  145.5780 C   0  0  0  0  0  2  0  0  0  0  0  0
  194.0940  177.0650  146.7420 O   0  0  0  0  0  0  0  0  0  0  0  0
  193.5730  173.5190  144.6330 C   0  0  0  0  0  2  0  0  0  0  0  0
  194.2000  172.9480  145.7430 O   0  0  0  0  0  1  0  0  0  0  0  0
  196.4310  176.6370  143.4850 O   0  0  0  0  0  1  0  0  0  0  0  0
  195.9660  175.4040  143.9480 C   0  0  0  0  0  2  0  0  0  0  0  0
  190.6720  173.9230  144.8850 C   0  0  0  0  0  2  0  0  0  0  0  0
  189.1310  173.9300  142.9590 C   0  0  0  0  0  2  0  0  0  0  0  0
  189.7980  174.6200  143.8830 C   0  0  0  0  0  0  0  0  0  0  0  0
  189.6800  176.1130  143.9320 C   0  0  0  0  0  2  0  0  0  0  0  0
  188.7640  176.6320  142.8340 C   0  0  0  0  0  2  0  0  0  0  0  0
  188.0230  177.8760  143.3040 C   0  0  0  0  0  2  0  0  0  0  0  0
  186.3210  176.7820  144.8920 C   0  0  0  0  0  2  0  0  0  0  0  0
  186.5520  177.6070  143.6130 C   0  0  1  0  0  3  0  0  0  0  0  0
  185.6650  178.8470  143.4380 C   0  0  0  0  0  2  0  0  0  0  0  0
  184.2380  178.6050  143.9210 C   0  0  0  0  0  2  0  0  0  0  0  0
  185.7640  178.9040  146.2400 C   0  0  0  0  0  2  0  0  0  0  0  0
  186.4270  177.5300  146.2280 C   0  0  2  0  0  3  0  0  0  0  0  0
  187.7610  177.6400  146.6200 O   0  0  0  0  0  1  0  0  0  0  0  0
  184.0060  178.8240  145.7350 S   0  0  0  0  0  0  0  0  0  0  0  0
  2 16  1  6  0  0  0
  2 11  1  0  0  0  0
  4  7  2  0  0  0  0
  4  6  1  0  0  0  0
  5  3  1  6  0  0  0
  5  2  1  0  0  0  0
  5  4  1  0  0  0  0
  6  9  2  0  0  0  0
  7 10  1  0  0  0  0
  9  1  1  0  0  0  0
 10  8  1  0  0  0  0
 10  1  2  0  0  0  0
 11 12  1  0  0  0  0
 12  6  1  0  0  0  0
 13  5  1  0  0  0  0
 13 14  1  0  0  0  0
 15 16  1  0  0  0  0
 17  7  1  0  0  0  0
 18 19  2  0  0  0  0
 19 20  1  0  0  0  0
 19 17  1  0  0  0  0
 21 22  1  0  0  0  0
 21 20  1  0  0  0  0
 23 28  1  0  0  0  0
 24 22  1  1  0  0  0
 24 23  1  0  0  0  0
 25 24  1  0  0  0  0
 25 26  1  0  0  0  0
 26 30  1  0  0  0  0
 28 27  1  0  0  0  0
 28 29  1  6  0  0  0
 30 27  1  0  0  0  0
M  END
>  <MODEL>
1

>  <REMARK>
 VINA RESULT:      -6.9      0.000      0.000
  Name = 
  8 active torsions:
  status: ('A' for Active; 'I' for Inactive)
    1  A    between atoms: C_3  and  C_24
    2  A    between atoms: C_4  and  C_23
    3  A    between atoms: C_10  and  C_13
    4  A    between atoms: C_12  and  C_17
    5  A    between atoms: C_12  and  C_20
    6  A    between atoms: C_16  and  C_19
    7  A    between atoms: C_16  and  C_20
    8  A    between atoms: C_19  and  C_24
                            x       y       z     vdW  Elec       q    Type
                         _______ _______ _______ _____ _____    ______ ____

>  <TORSDO>
F 8

$$$$
=
 OpenBabel11062419513D

 30 32  0  0  1  0  0  0  0  0999 V2000
  189.4980  177.7430  142.3430 N   0  0  0  0  0  0  0  0  0  0  0  0
  189.9360  172.6980  142.3300 C   0  0  2  0  0  3  0  0  0  0  0  0
  190.0240  173.3400  144.7810 C   0  0  0  0  0  1  0  0  0  0  0  0
  190.1580  175.1320  143.0690 C   0  0  0  0  0  0  0  0  0  0  0  0
  190.5390  173.6730  143.3830 C   0  0  2  0  0  0  0  0  0  0  0  0
  189.1360  175.3970  142.1270 C   0  0  0  0  0  0  0  0  0  0  0  0
  190.7780  176.2430  143.7120 C   0  0  0  0  0  0  0  0  0  0  0  0
  191.1270  178.7520  143.8610 C   0  0  0  0  0  1  0  0  0  0  0  0
  188.8380  176.7090  141.7700 C   0  0  0  0  0  3  0  0  0  0  0  0
  190.4470  177.5510  143.2930 C   0  0  0  0  0  0  0  0  0  0  0  0
  188.4900  173.0300  142.0030 C   0  0  0  0  0  2  0  0  0  0  0  0
  188.4140  174.3630  141.5270 O   0  0  0  0  0  0  0  0  0  0  0  0
  192.0690  173.5320  143.3280 C   0  0  0  0  0  2  0  0  0  0  0  0
  192.5650  173.6850  142.0310 O   0  0  0  0  0  1  0  0  0  0  0  0
  190.5160  170.5100  141.4690 O   0  0  0  0  0  1  0  0  0  0  0  0
  190.1160  171.2020  142.6150 C   0  0  0  0  0  2  0  0  0  0  0  0
  191.7780  176.0450  144.8260 C   0  0  0  0  0  2  0  0  0  0  0  0
  191.6630  175.4070  147.2060 C   0  0  0  0  0  2  0  0  0  0  0  0
  191.1490  176.0960  146.1880 C   0  0  0  0  0  0  0  0  0  0  0  0
  189.9270  176.9370  146.3950 C   0  0  0  0  0  2  0  0  0  0  0  0
  188.7190  176.0820  146.7480 C   0  0  0  0  0  2  0  0  0  0  0  0
  187.4790  176.9510  146.9030 C   0  0  0  0  0  2  0  0  0  0  0  0
  184.9810  176.7750  146.3160 C   0  0  0  0  0  2  0  0  0  0  0  0
  186.4360  176.6910  145.8190 C   0  0  1  0  0  3  0  0  0  0  0  0
  186.7440  177.4180  144.5030 C   0  0  0  0  0  2  0  0  0  0  0  0
  185.6030  177.2910  143.4970 C   0  0  0  0  0  2  0  0  0  0  0  0
  184.7260  179.1590  145.3780 C   0  0  0  0  0  2  0  0  0  0  0  0
  184.3900  178.1790  146.4980 C   0  0  2  0  0  3  0  0  0  0  0  0
  184.7710  178.7120  147.7290 O   0  0  0  0  0  1  0  0  0  0  0  0
  184.2470  178.5140  143.7330 S   0  0  0  0  0  0  0  0  0  0  0  0
  1 10  1  0  0  0  0
  2 16  1  1  0  0  0
  2  5  1  0  0  0  0
  4  5  1  0  0  0  0
  4  7  1  0  0  0  0
  5  3  1  1  0  0  0
  6  4  2  0  0  0  0
  7 17  1  0  0  0  0
  9  6  1  0  0  0  0
  9  1  2  0  0  0  0
 10  7  2  0  0  0  0
 10  8  1  0  0  0  0
 11  2  1  0  0  0  0
 12 11  1  0  0  0  0
 12  6  1  0  0  0  0
 13  5  1  0  0  0  0
 14 13  1  0  0  0  0
 15 16  1  0  0  0  0
 17 19  1  0  0  0  0
 19 20  1  0  0  0  0
 19 18  2  0  0  0  0
 20 21  1  0  0  0  0
 21 22  1  0  0  0  0
 23 28  1  0  0  0  0
 24 23  1  0  0  0  0
 24 22  1  1  0  0  0
 25 24  1  0  0  0  0
 26 30  1  0  0  0  0
 26 25  1  0  0  0  0
 27 28  1  0  0  0  0
 28 29  1  1  0  0  0
 30 27  1  0  0  0  0
M  END
>  <MODEL>
2

>  <REMARK>
 VINA RESULT:      -6.9      2.672      4.724
  Name = 
  8 active torsions:
  status: ('A' for Active; 'I' for Inactive)
    1  A    between atoms: C_3  and  C_24
    2  A    between atoms: C_4  and  C_23
    3  A    between atoms: C_10  and  C_13
    4  A    between atoms: C_12  and  C_17
    5  A    between atoms: C_12  and  C_20
    6  A    between atoms: C_16  and  C_19
    7  A    between atoms: C_16  and  C_20
    8  A    between atoms: C_19  and  C_24
                            x       y       z     vdW  Elec       q    Type
                         _______ _______ _______ _____ _____    ______ ____

>  <TORSDO>
F 8

$$$$
=
 OpenBabel11062419513D

 30 32  0  0  1  0  0  0  0  0999 V2000
  188.7550  175.0980  141.7670 N   0  0  0  0  0  0  0  0  0  0  0  0
  184.7930  177.8690  143.2750 C   0  0  2  0  0  3  0  0  0  0  0  0
  186.7370  178.7280  144.6570 C   0  0  0  0  0  1  0  0  0  0  0  0
  187.0440  176.6610  143.3180 C   0  0  0  0  0  0  0  0  0  0  0  0
  186.0290  177.4790  144.1380 C   0  0  2  0  0  0  0  0  0  0  0  0
  186.9200  176.6120  141.9090 C   0  0  0  0  0  0  0  0  0  0  0  0
  188.1320  175.9630  143.9180 C   0  0  0  0  0  0  0  0  0  0  0  0
  190.0540  174.3220  143.6880 C   0  0  0  0  0  1  0  0  0  0  0  0
  187.7770  175.8100  141.1600 C   0  0  0  0  0  3  0  0  0  0  0  0
  188.9560  175.1500  143.1080 C   0  0  0  0  0  0  0  0  0  0  0  0
  185.1910  178.3580  141.8930 C   0  0  0  0  0  2  0  0  0  0  0  0
  185.9400  177.3480  141.2380 O   0  0  0  0  0  0  0  0  0  0  0  0
  185.5260  176.6220  145.3120 C   0  0  0  0  0  2  0  0  0  0  0  0
  185.4580  177.3490  146.5030 O   0  0  0  0  0  1  0  0  0  0  0  0
  182.7010  179.0730  143.0850 O   0  0  0  0  0  1  0  0  0  0  0  0
  183.7810  178.8130  143.9330 C   0  0  0  0  0  2  0  0  0  0  0  0
  188.4140  176.0760  145.3970 C   0  0  0  0  0  2  0  0  0  0  0  0
  190.0540  177.8150  144.7880 C   0  0  0  0  0  2  0  0  0  0  0  0
  189.5900  176.9580  145.6980 C   0  0  0  0  0  0  0  0  0  0  0  0
  190.2430  176.8700  147.0430 C   0  0  0  0  0  2  0  0  0  0  0  0
  190.7460  175.4610  147.3230 C   0  0  0  0  0  2  0  0  0  0  0  0
  192.2570  175.3910  147.1490 C   0  0  0  0  0  2  0  0  0  0  0  0
  193.2080  176.1070  144.8690 C   0  0  0  0  0  2  0  0  0  0  0  0
  192.6700  174.9600  145.7440 C   0  0  1  0  0  3  0  0  0  0  0  0
  193.4860  173.6590  145.7310 C   0  0  0  0  0  2  0  0  0  0  0  0
  194.0380  173.3430  144.3440 C   0  0  0  0  0  2  0  0  0  0  0  0
  195.6420  175.4060  145.3290 C   0  0  0  0  0  2  0  0  0  0  0  0
  194.6550  176.5510  145.1200 C   0  0  2  0  0  3  0  0  0  0  0  0
  194.7140  177.4340  146.1970 O   0  0  0  0  0  1  0  0  0  0  0  0
  195.6130  174.2100  143.9430 S   0  0  0  0  0  0  0  0  0  0  0  0
  1 10  1  0  0  0  0
  2 16  1  1  0  0  0
  2  5  1  0  0  0  0
  4  7  1  0  0  0  0
  4  5  1  0  0  0  0
  5  3  1  1  0  0  0
  5 13  1  0  0  0  0
  6  4  2  0  0  0  0
  7 17  1  0  0  0  0
  9  1  2  0  0  0  0
  9  6  1  0  0  0  0
 10  8  1  0  0  0  0
 10  7  2  0  0  0  0
 11  2  1  0  0  0  0
 12 11  1  0  0  0  0
 12  6  1  0  0  0  0
 13 14  1  0  0  0  0
 15 16  1  0  0  0  0
 17 19  1  0  0  0  0
 18 19  2  0  0  0  0
 19 20  1  0  0  0  0
 20 21  1  0  0  0  0
 22 21  1  0  0  0  0
 23 28  1  0  0  0  0
 23 24  1  0  0  0  0
 24 22  1  1  0  0  0
 25 24  1  0  0  0  0
 26 25  1  0  0  0  0
 28 27  1  0  0  0  0
 28 29  1  1  0  0  0
 30 26  1  0  0  0  0
 30 27  1  0  0  0  0
M  END
>  <MODEL>
3

>  <REMARK>
 VINA RESULT:      -6.9      3.285      8.211
  Name = 
  8 active torsions:
  status: ('A' for Active; 'I' for Inactive)
    1  A    between atoms: C_3  and  C_24
    2  A    between atoms: C_4  and  C_23
    3  A    between atoms: C_10  and  C_13
    4  A    between atoms: C_12  and  C_17
    5  A    between atoms: C_12  and  C_20
    6  A    between atoms: C_16  and  C_19
    7  A    between atoms: C_16  and  C_20
    8  A    between atoms: C_19  and  C_24
                            x       y       z     vdW  Elec       q    Type
                         _______ _______ _______ _____ _____    ______ ____

>  <TORSDO>
F 8

$$$$
=
 OpenBabel11062419513D

 30 32  0  0  1  0  0  0  0  0999 V2000
  190.8110  176.1400  147.8470 N   0  0  0  0  0  0  0  0  0  0  0  0
  194.7550  175.1700  144.8240 C   0  0  2  0  0  3  0  0  0  0  0  0
  192.7460  175.1470  143.2790 C   0  0  0  0  0  1  0  0  0  0  0  0
  192.3680  175.2060  145.7310 C   0  0  0  0  0  0  0  0  0  0  0  0
  193.2950  174.6730  144.6220 C   0  0  2  0  0  0  0  0  0  0  0  0
  192.8200  176.2520  146.5710 C   0  0  0  0  0  0  0  0  0  0  0  0
  191.0490  174.7060  145.9370 C   0  0  0  0  0  0  0  0  0  0  0  0
  188.9530  174.6250  147.3650 C   0  0  0  0  0  1  0  0  0  0  0  0
  192.0300  176.6880  147.6310 C   0  0  0  0  0  3  0  0  0  0  0  0
  190.3030  175.1750  147.0410 C   0  0  0  0  0  0  0  0  0  0  0  0
  194.8140  176.6440  145.1890 C   0  0  0  0  0  2  0  0  0  0  0  0
  194.0610  176.8610  146.3710 O   0  0  0  0  0  0  0  0  0  0  0  0
  193.3120  173.1360  144.6800 C   0  0  0  0  0  2  0  0  0  0  0  0
  193.9430  172.6610  145.8330 O   0  0  0  0  0  1  0  0  0  0  0  0
  197.0520  175.1710  144.0580 O   0  0  0  0  0  1  0  0  0  0  0  0
  195.7440  174.8320  143.7020 C   0  0  0  0  0  2  0  0  0  0  0  0
  190.4430  173.6890  145.0000 C   0  0  0  0  0  2  0  0  0  0  0  0
  189.3670  173.6370  142.7810 C   0  0  0  0  0  2  0  0  0  0  0  0
  189.6560  174.3200  143.8880 C   0  0  0  0  0  0  0  0  0  0  0  0
  189.1930  175.7370  144.0360 C   0  0  0  0  0  2  0  0  0  0  0  0
  188.1840  176.1050  142.9580 C   0  0  0  0  0  2  0  0  0  0  0  0
  186.8050  176.3150  143.5690 C   0  0  0  0  0  2  0  0  0  0  0  0
  186.7600  178.6180  144.7130 C   0  0  0  0  0  2  0  0  0  0  0  0
  186.8540  177.0910  144.8830 C   0  0  1  0  0  3  0  0  0  0  0  0
  185.9690  176.4760  145.9760 C   0  0  0  0  0  2  0  0  0  0  0  0
  185.8930  177.3610  147.2170 C   0  0  0  0  0  2  0  0  0  0  0  0
  184.2590  178.6000  145.3220 C   0  0  0  0  0  2  0  0  0  0  0  0
  185.3640  179.2030  144.4610 C   0  0  2  0  0  3  0  0  0  0  0  0
  185.0290  179.1000  143.1120 O   0  0  0  0  0  1  0  0  0  0  0  0
  184.6410  178.7070  147.1090 S   0  0  0  0  0  0  0  0  0  0  0  0
  2 16  1  6  0  0  0
  2 11  1  0  0  0  0
  4  7  2  0  0  0  0
  4  6  1  0  0  0  0
  5  3  1  6  0  0  0
  5 13  1  0  0  0  0
  5  2  1  0  0  0  0
  5  4  1  0  0  0  0
  6  9  2  0  0  0  0
  7 10  1  0  0  0  0
  9  1  1  0  0  0  0
 10  8  1  0  0  0  0
 10  1  2  0  0  0  0
 11 12  1  0  0  0  0
 12  6  1  0  0  0  0
 13 14  1  0  0  0  0
 16 15  1  0  0  0  0
 17  7  1  0  0  0  0
 18 19  2  0  0  0  0
 19 20  1  0  0  0  0
 19 17  1  0  0  0  0
 21 22  1  0  0  0  0
 21 20  1  0  0  0  0
 23 24  1  0  0  0  0
 24 22  1  6  0  0  0
 24 25  1  0  0  0  0
 25 26  1  0  0  0  0
 27 30  1  0  0  0  0
 28 29  1  6  0  0  0
 28 23  1  0  0  0  0
 28 27  1  0  0  0  0
 30 26  1  0  0  0  0
M  END
>  <MODEL>
4

>  <REMARK>
 VINA RESULT:      -6.8      1.210      1.612
  Name = 
  8 active torsions:
  status: ('A' for Active; 'I' for Inactive)
    1  A    between atoms: C_3  and  C_24
    2  A    between atoms: C_4  and  C_23
    3  A    between atoms: C_10  and  C_13
    4  A    between atoms: C_12  and  C_17
    5  A    between atoms: C_12  and  C_20
    6  A    between atoms: C_16  and  C_19
    7  A    between atoms: C_16  and  C_20
    8  A    between atoms: C_19  and  C_24
                            x       y       z     vdW  Elec       q    Type
                         _______ _______ _______ _____ _____    ______ ____

>  <TORSDO>
F 8

$$$$
=
 OpenBabel11062419513D

 30 32  0  0  1  0  0  0  0  0999 V2000
  190.4440  174.0650  141.2260 N   0  0  0  0  0  0  0  0  0  0  0  0
  194.7620  174.8520  143.7530 C   0  0  2  0  0  3  0  0  0  0  0  0
  193.0820  174.2150  145.5410 C   0  0  0  0  0  1  0  0  0  0  0  0
  192.2640  174.6850  143.2460 C   0  0  0  0  0  0  0  0  0  0  0  0
  193.3200  175.0690  144.2990 C   0  0  2  0  0  0  0  0  0  0  0  0
  192.6560  173.9470  142.1040 C   0  0  0  0  0  0  0  0  0  0  0  0
  190.8860  175.0230  143.3830 C   0  0  0  0  0  0  0  0  0  0  0  0
  188.5640  175.1350  142.3650 C   0  0  0  0  0  1  0  0  0  0  0  0
  191.7310  173.6640  141.1030 C   0  0  0  0  0  3  0  0  0  0  0  0
  189.9990  174.7270  142.3230 C   0  0  0  0  0  0  0  0  0  0  0  0
  194.9010  173.5320  143.0130 C   0  0  0  0  0  2  0  0  0  0  0  0
  193.9680  173.4950  141.9460 O   0  0  0  0  0  0  0  0  0  0  0  0
  193.1700  176.5610  144.6390 C   0  0  0  0  0  2  0  0  0  0  0  0
  193.2330  176.7960  146.0140 O   0  0  0  0  0  1  0  0  0  0  0  0
  197.1060  174.5400  144.2700 O   0  0  0  0  0  1  0  0  0  0  0  0
  195.9020  175.0540  144.7570 C   0  0  0  0  0  2  0  0  0  0  0  0
  190.3630  175.6890  144.6330 C   0  0  0  0  0  2  0  0  0  0  0  0
  189.7410  173.4120  145.3510 C   0  0  0  0  0  2  0  0  0  0  0  0
  189.6770  174.7270  145.5590 C   0  0  0  0  0  0  0  0  0  0  0  0
  188.9140  175.2620  146.7320 C   0  0  0  0  0  2  0  0  0  0  0  0
  189.1480  176.7550  146.9100 C   0  0  0  0  0  2  0  0  0  0  0  0
  187.8250  177.5080  146.8810 C   0  0  0  0  0  2  0  0  0  0  0  0
  185.4520  176.7920  146.1990 C   0  0  0  0  0  2  0  0  0  0  0  0
  186.9050  177.0410  145.7560 C   0  0  1  0  0  3  0  0  0  0  0  0
  187.0890  177.8400  144.4580 C   0  0  0  0  0  2  0  0  0  0  0  0
  186.0420  177.4790  143.4090 C   0  0  0  0  0  2  0  0  0  0  0  0
  184.7060  179.0750  145.2710 C   0  0  0  0  0  2  0  0  0  0  0  0
  184.5570  178.0270  146.3690 C   0  0  2  0  0  3  0  0  0  0  0  0
  184.7660  178.6110  147.6170 O   0  0  0  0  0  1  0  0  0  0  0  0
  184.4400  178.3660  143.6030 S   0  0  0  0  0  0  0  0  0  0  0  0
  1 10  1  0  0  0  0
  2  5  1  0  0  0  0
  2 16  1  1  0  0  0
  4  7  1  0  0  0  0
  4  5  1  0  0  0  0
  5 13  1  0  0  0  0
  5  3  1  1  0  0  0
  6  4  2  0  0  0  0
  7 17  1  0  0  0  0
  9  1  2  0  0  0  0
  9  6  1  0  0  0  0
 10  8  1  0  0  0  0
 10  7  2  0  0  0  0
 11  2  1  0  0  0  0
 12  6  1  0  0  0  0
 12 11  1  0  0  0  0
 13 14  1  0  0  0  0
 15 16  1  0  0  0  0
 17 19  1  0  0  0  0
 18 19  2  0  0  0  0
 19 20  1  0  0  0  0
 20 21  1  0  0  0  0
 22 21  1  0  0  0  0
 23 28  1  0  0  0  0
 24 23  1  0  0  0  0
 24 22  1  1  0  0  0
 25 24  1  0  0  0  0
 26 30  1  0  0  0  0
 26 25  1  0  0  0  0
 27 28  1  0  0  0  0
 28 29  1  1  0  0  0
 30 27  1  0  0  0  0
M  END
>  <MODEL>
5

>  <REMARK>
 VINA RESULT:      -6.6      2.161      3.556
  Name = 
  8 active torsions:
  status: ('A' for Active; 'I' for Inactive)
    1  A    between atoms: C_3  and  C_24
    2  A    between atoms: C_4  and  C_23
    3  A    between atoms: C_10  and  C_13
    4  A    between atoms: C_12  and  C_17
    5  A    between atoms: C_12  and  C_20
    6  A    between atoms: C_16  and  C_19
    7  A    between atoms: C_16  and  C_20
    8  A    between atoms: C_19  and  C_24
                            x       y       z     vdW  Elec       q    Type
                         _______ _______ _______ _____ _____    ______ ____

>  <TORSDO>
F 8

$$$$
=
 OpenBabel11062419513D

 30 32  0  0  1  0  0  0  0  0999 V2000
  194.4960  176.0390  143.9020 N   0  0  0  0  0  0  0  0  0  0  0  0
  190.8440  173.0230  142.1100 C   0  0  2  0  0  3  0  0  0  0  0  0
  189.6630  174.5480  143.7550 C   0  0  0  0  0  1  0  0  0  0  0  0
  192.1430  174.5570  143.6850 C   0  0  0  0  0  0  0  0  0  0  0  0
  190.8920  173.6740  143.5230 C   0  0  2  0  0  0  0  0  0  0  0  0
  192.8970  174.9120  142.5410 C   0  0  0  0  0  0  0  0  0  0  0  0
  192.5690  175.0610  144.9490 C   0  0  0  0  0  0  0  0  0  0  0  0
  194.3330  176.2510  146.3320 C   0  0  0  0  0  1  0  0  0  0  0  0
  194.0760  175.6380  142.6790 C   0  0  0  0  0  3  0  0  0  0  0  0
  193.7850  175.7760  145.0270 C   0  0  0  0  0  0  0  0  0  0  0  0
  191.1970  174.0120  141.0120 C   0  0  0  0  0  2  0  0  0  0  0  0
  192.4900  174.5390  141.2580 O   0  0  0  0  0  0  0  0  0  0  0  0
  190.9430  172.5380  144.5580 C   0  0  0  0  0  2  0  0  0  0  0  0
  191.9310  171.5960  144.2580 O   0  0  0  0  0  1  0  0  0  0  0  0
  188.8650  172.8460  140.7260 O   0  0  0  0  0  1  0  0  0  0  0  0
  189.5700  172.2410  141.7700 C   0  0  0  0  0  2  0  0  0  0  0  0
  191.7470  174.8430  146.1960 C   0  0  0  0  0  2  0  0  0  0  0  0
  191.1900  176.4190  148.0100 C   0  0  0  0  0  2  0  0  0  0  0  0
  191.1310  176.1100  146.7150 C   0  0  0  0  0  0  0  0  0  0  0  0
  190.4450  177.0330  145.7550 C   0  0  0  0  0  2  0  0  0  0  0  0
  189.1380  177.5570  146.3290 C   0  0  0  0  0  2  0  0  0  0  0  0
  188.0770  176.4640  146.3220 C   0  0  0  0  0  2  0  0  0  0  0  0
  185.5500  176.7870  145.9760 C   0  0  0  0  0  2  0  0  0  0  0  0
  186.9480  176.7440  145.3330 C   0  0  1  0  0  3  0  0  0  0  0  0
  187.2770  177.8760  144.3510 C   0  0  0  0  0  2  0  0  0  0  0  0
  186.0740  178.2590  143.4930 C   0  0  0  0  0  2  0  0  0  0  0  0
  185.5710  179.3620  146.0080 C   0  0  0  0  0  2  0  0  0  0  0  0
  185.1680  178.0740  146.7200 C   0  0  2  0  0  3  0  0  0  0  0  0
  185.6880  178.0610  148.0130 O   0  0  0  0  0  1  0  0  0  0  0  0
  184.9140  179.4390  144.3010 S   0  0  0  0  0  0  0  0  0  0  0  0
  1 10  1  0  0  0  0
  2 16  1  6  0  0  0
  2  5  1  0  0  0  0
  4  7  1  0  0  0  0
  5  4  1  0  0  0  0
  5  3  1  1  0  0  0
  5 13  1  0  0  0  0
  6  9  1  0  0  0  0
  6  4  2  0  0  0  0
  7 10  2  0  0  0  0
  7 17  1  0  0  0  0
  9  1  2  0  0  0  0
 10  8  1  0  0  0  0
 11 12  1  0  0  0  0
 11  2  1  0  0  0  0
 12  6  1  0  0  0  0
 14 13  1  0  0  0  0
 15 16  1  0  0  0  0
 17 19  1  0  0  0  0
 19 18  2  0  0  0  0
 20 21  1  0  0  0  0
 20 19  1  0  0  0  0
 22 21  1  0  0  0  0
 23 28  1  0  0  0  0
 24 23  1  0  0  0  0
 24 22  1  1  0  0  0
 25 24  1  0  0  0  0
 26 30  1  0  0  0  0
 26 25  1  0  0  0  0
 27 28  1  0  0  0  0
 28 29  1  1  0  0  0
 30 27  1  0  0  0  0
M  END
>  <MODEL>
6

>  <REMARK>
 VINA RESULT:      -6.6      2.454      4.222
  Name = 
  8 active torsions:
  status: ('A' for Active; 'I' for Inactive)
    1  A    between atoms: C_3  and  C_24
    2  A    between atoms: C_4  and  C_23
    3  A    between atoms: C_10  and  C_13
    4  A    between atoms: C_12  and  C_17
    5  A    between atoms: C_12  and  C_20
    6  A    between atoms: C_16  and  C_19
    7  A    between atoms: C_16  and  C_20
    8  A    between atoms: C_19  and  C_24
                            x       y       z     vdW  Elec       q    Type
                         _______ _______ _______ _____ _____    ______ ____

>  <TORSDO>
F 8

$$$$
=
 OpenBabel11062419513D

 30 32  0  0  1  0  0  0  0  0999 V2000
  190.4150  173.2890  143.0990 N   0  0  0  0  0  0  0  0  0  0  0  0
  195.0930  173.5370  145.0210 C   0  0  2  0  0  3  0  0  0  0  0  0
  193.9260  175.6030  145.9130 C   0  0  0  0  0  1  0  0  0  0  0  0
  192.8070  174.2670  144.1460 C   0  0  0  0  0  0  0  0  0  0  0  0
  194.1730  174.7440  144.6760 C   0  0  2  0  0  0  0  0  0  0  0  0
  192.4360  172.9100  144.3020 C   0  0  0  0  0  0  0  0  0  0  0  0
  191.8770  175.1470  143.5200 C   0  0  0  0  0  0  0  0  0  0  0  0
  189.7210  175.4620  142.2180 C   0  0  0  0  0  1  0  0  0  0  0  0
  191.2440  172.4440  143.7550 C   0  0  0  0  0  3  0  0  0  0  0  0
  190.6920  174.6110  142.9670 C   0  0  0  0  0  0  0  0  0  0  0  0
  194.3500  172.4460  145.7730 C   0  0  0  0  0  2  0  0  0  0  0  0
  193.2500  172.0080  144.9910 O   0  0  0  0  0  0  0  0  0  0  0  0
  194.8740  175.5680  143.5830 C   0  0  0  0  0  2  0  0  0  0  0  0
  195.5440  176.6750  144.1090 O   0  0  0  0  0  1  0  0  0  0  0  0
  196.8980  172.8020  146.4570 O   0  0  0  0  0  1  0  0  0  0  0  0
  196.4250  173.8770  145.7000 C   0  0  0  0  0  2  0  0  0  0  0  0
  192.1370  176.6310  143.4360 C   0  0  0  0  0  2  0  0  0  0  0  0
  190.8610  178.6860  143.9220 C   0  0  0  0  0  2  0  0  0  0  0  0
  191.1750  177.4360  144.2610 C   0  0  0  0  0  0  0  0  0  0  0  0
  190.5640  176.8170  145.4800 C   0  0  0  0  0  2  0  0  0  0  0  0
  189.2240  177.4560  145.8140 C   0  0  0  0  0  2  0  0  0  0  0  0
  188.1630  176.3860  146.0290 C   0  0  0  0  0  2  0  0  0  0  0  0
  185.6300  176.8260  146.0850 C   0  0  0  0  0  2  0  0  0  0  0  0
  186.8920  176.6440  145.2230 C   0  0  1  0  0  3  0  0  0  0  0  0
  187.0940  177.6640  144.0940 C   0  0  0  0  0  2  0  0  0  0  0  0
  185.7780  178.0400  143.4190 C   0  0  0  0  0  2  0  0  0  0  0  0
  185.7680  179.3880  145.8650 C   0  0  0  0  0  2  0  0  0  0  0  0
  185.4390  178.1940  146.7550 C   0  0  2  0  0  3  0  0  0  0  0  0
  186.1750  178.2630  147.9370 O   0  0  0  0  0  1  0  0  0  0  0  0
  184.8290  179.3540  144.2930 S   0  0  0  0  0  0  0  0  0  0  0  0
  1  9  1  0  0  0  0
  2 16  1  1  0  0  0
  2 11  1  0  0  0  0
  4  6  1  0  0  0  0
  4  5  1  0  0  0  0
  5  2  1  0  0  0  0
  5  3  1  1  0  0  0
  6 12  1  0  0  0  0
  7  4  2  0  0  0  0
  8 10  1  0  0  0  0
  9  6  2  0  0  0  0
 10  1  2  0  0  0  0
 10  7  1  0  0  0  0
 12 11  1  0  0  0  0
 13 14  1  0  0  0  0
 13  5  1  0  0  0  0
 16 15  1  0  0  0  0
 17  7  1  0  0  0  0
 17 19  1  0  0  0  0
 18 19  2  0  0  0  0
 19 20  1  0  0  0  0
 20 21  1  0  0  0  0
 21 22  1  0  0  0  0
 23 28  1  0  0  0  0
 24 22  1  1  0  0  0
 24 23  1  0  0  0  0
 25 24  1  0  0  0  0
 26 25  1  0  0  0  0
 26 30  1  0  0  0  0
 27 28  1  0  0  0  0
 28 29  1  1  0  0  0
 30 27  1  0  0  0  0
M  END
>  <MODEL>
7

>  <REMARK>
 VINA RESULT:      -6.5      1.927      3.422
  Name = 
  8 active torsions:
  status: ('A' for Active; 'I' for Inactive)
    1  A    between atoms: C_3  and  C_24
    2  A    between atoms: C_4  and  C_23
    3  A    between atoms: C_10  and  C_13
    4  A    between atoms: C_12  and  C_17
    5  A    between atoms: C_12  and  C_20
    6  A    between atoms: C_16  and  C_19
    7  A    between atoms: C_16  and  C_20
    8  A    between atoms: C_19  and  C_24
                            x       y       z     vdW  Elec       q    Type
                         _______ _______ _______ _____ _____    ______ ____

>  <TORSDO>
F 8

$$$$
=
 OpenBabel11062419513D

 30 32  0  0  1  0  0  0  0  0999 V2000
  186.1820  176.9080  144.6000 N   0  0  0  0  0  0  0  0  0  0  0  0
  189.9160  174.8370  141.8770 C   0  0  2  0  0  3  0  0  0  0  0  0
  190.4130  174.1530  144.2670 C   0  0  0  0  0  1  0  0  0  0  0  0
  188.6520  175.8510  143.8510 C   0  0  0  0  0  0  0  0  0  0  0  0
  190.0060  175.3090  143.3570 C   0  0  2  0  0  0  0  0  0  0  0  0
  187.4850  175.6040  143.0890 C   0  0  0  0  0  0  0  0  0  0  0  0
  188.5130  176.5790  145.0690 C   0  0  0  0  0  0  0  0  0  0  0  0
  187.0660  177.9810  146.6110 C   0  0  0  0  0  1  0  0  0  0  0  0
  186.2670  176.1570  143.4770 C   0  0  0  0  0  3  0  0  0  0  0  0
  187.2560  177.1320  145.3980 C   0  0  0  0  0  0  0  0  0  0  0  0
  188.6560  174.0310  141.6090 C   0  0  0  0  0  2  0  0  0  0  0  0
  187.5220  174.8170  141.9370 O   0  0  0  0  0  0  0  0  0  0  0  0
  191.0510  176.4360  143.4250 C   0  0  0  0  0  2  0  0  0  0  0  0
  190.6990  177.5280  142.6290 O   0  0  0  0  0  1  0  0  0  0  0  0
  190.8830  172.8110  140.9710 O   0  0  0  0  0  1  0  0  0  0  0  0
  191.1580  174.1370  141.3140 C   0  0  0  0  0  2  0  0  0  0  0  0
  189.6830  176.7670  146.0050 C   0  0  0  0  0  2  0  0  0  0  0  0
  188.7290  174.8950  147.2970 C   0  0  0  0  0  2  0  0  0  0  0  0
  189.7660  175.6960  147.0530 C   0  0  0  0  0  0  0  0  0  0  0  0
  191.0370  175.5310  147.8280 C   0  0  0  0  0  2  0  0  0  0  0  0
  192.2410  175.9970  147.0230 C   0  0  0  0  0  2  0  0  0  0  0  0
  193.0580  174.8020  146.5490 C   0  0  0  0  0  2  0  0  0  0  0  0
  195.1830  174.0430  145.3160 C   0  0  0  0  0  2  0  0  0  0  0  0
  194.4060  175.2070  145.9560 C   0  0  1  0  0  3  0  0  0  0  0  0
  194.3370  176.5040  145.1390 C   0  0  0  0  0  2  0  0  0  0  0  0
  195.6470  176.7930  144.4110 C   0  0  0  0  0  2  0  0  0  0  0  0
  194.4270  174.7450  142.9580 C   0  0  0  0  0  2  0  0  0  0  0  0
  194.7400  173.5990  143.9150 C   0  0  2  0  0  3  0  0  0  0  0  0
  193.6490  172.7360  144.0000 O   0  0  0  0  0  1  0  0  0  0  0  0
  195.8270  175.9150  142.8030 S   0  0  0  0  0  0  0  0  0  0  0  0
  1 10  1  0  0  0  0
  2 16  1  1  0  0  0
  2  5  1  0  0  0  0
  4  7  1  0  0  0  0
  5 13  1  0  0  0  0
  5  4  1  0  0  0  0
  5  3  1  1  0  0  0
  6  9  1  0  0  0  0
  6  4  2  0  0  0  0
  7 10  2  0  0  0  0
  7 17  1  0  0  0  0
  9  1  2  0  0  0  0
 10  8  1  0  0  0  0
 11  2  1  0  0  0  0
 11 12  1  0  0  0  0
 12  6  1  0  0  0  0
 14 13  1  0  0  0  0
 15 16  1  0  0  0  0
 17 19  1  0  0  0  0
 19 18  2  0  0  0  0
 19 20  1  0  0  0  0
 21 20  1  0  0  0  0
 22 21  1  0  0  0  0
 23 24  1  0  0  0  0
 24 22  1  6  0  0  0
 25 24  1  0  0  0  0
 26 25  1  0  0  0  0
 27 28  1  0  0  0  0
 28 29  1  1  0  0  0
 28 23  1  0  0  0  0
 30 27  1  0  0  0  0
 30 26  1  0  0  0  0
M  END
>  <MODEL>
8

>  <REMARK>
 VINA RESULT:      -6.5      3.305      6.966
  Name = 
  8 active torsions:
  status: ('A' for Active; 'I' for Inactive)
    1  A    between atoms: C_3  and  C_24
    2  A    between atoms: C_4  and  C_23
    3  A    between atoms: C_10  and  C_13
    4  A    between atoms: C_12  and  C_17
    5  A    between atoms: C_12  and  C_20
    6  A    between atoms: C_16  and  C_19
    7  A    between atoms: C_16  and  C_20
    8  A    between atoms: C_19  and  C_24
                            x       y       z     vdW  Elec       q    Type
                         _______ _______ _______ _____ _____    ______ ____

>  <TORSDO>
F 8

$$$$
=
 OpenBabel11062419513D

 30 32  0  0  1  0  0  0  0  0999 V2000
  184.8050  178.1930  146.4730 N   0  0  0  0  0  0  0  0  0  0  0  0
  186.4130  178.0070  141.6750 C   0  0  2  0  0  3  0  0  0  0  0  0
  186.6840  175.6370  142.5320 C   0  0  0  0  0  1  0  0  0  0  0  0
  186.1550  177.4400  144.1520 C   0  0  0  0  0  0  0  0  0  0  0  0
  186.9080  177.1130  142.8490 C   0  0  2  0  0  0  0  0  0  0  0  0
  184.9790  178.2270  144.0970 C   0  0  0  0  0  0  0  0  0  0  0  0
  186.5790  176.9600  145.4250 C   0  0  0  0  0  0  0  0  0  0  0  0
  186.3440  177.0000  147.9520 C   0  0  0  0  0  1  0  0  0  0  0  0
  184.3340  178.6020  145.2710 C   0  0  0  0  0  3  0  0  0  0  0  0
  185.8940  177.3920  146.5830 C   0  0  0  0  0  0  0  0  0  0  0  0
  184.8980  178.1240  141.6430 C   0  0  0  0  0  2  0  0  0  0  0  0
  184.4460  178.6530  142.8780 O   0  0  0  0  0  0  0  0  0  0  0  0
  188.4060  177.3950  143.0510 C   0  0  0  0  0  2  0  0  0  0  0  0
  189.2100  176.4580  142.4000 O   0  0  0  0  0  1  0  0  0  0  0  0
  185.9660  177.2870  139.4060 O   0  0  0  0  0  1  0  0  0  0  0  0
  186.9770  177.6750  140.2890 C   0  0  0  0  0  2  0  0  0  0  0  0
  187.7410  176.0050  145.5550 C   0  0  0  0  0  2  0  0  0  0  0  0
  189.2490  177.8790  146.1020 C   0  0  0  0  0  2  0  0  0  0  0  0
  188.9060  176.6050  146.2870 C   0  0  0  0  0  0  0  0  0  0  0  0
  189.6860  175.7520  147.2390 C   0  0  0  0  0  2  0  0  0  0  0  0
  190.7350  174.9250  146.5100 C   0  0  0  0  0  2  0  0  0  0  0  0
  192.1140  175.5480  146.6760 C   0  0  0  0  0  2  0  0  0  0  0  0
  194.0020  176.8550  145.5190 C   0  0  0  0  0  2  0  0  0  0  0  0
  192.5470  176.3570  145.4560 C   0  0  1  0  0  3  0  0  0  0  0  0
  192.1050  175.7260  144.1290 C   0  0  0  0  0  2  0  0  0  0  0  0
  192.6980  176.4490  142.9240 C   0  0  0  0  0  2  0  0  0  0  0  0
  194.7940  174.9430  143.9880 C   0  0  0  0  0  2  0  0  0  0  0  0
  195.1000  175.8350  145.1870 C   0  0  2  0  0  3  0  0  0  0  0  0
  195.3900  175.0520  146.3040 O   0  0  0  0  0  1  0  0  0  0  0  0
  194.4060  175.9170  142.4870 S   0  0  0  0  0  0  0  0  0  0  0  0
  1 10  1  0  0  0  0
  2 16  1  6  0  0  0
  2  5  1  0  0  0  0
  4  7  1  0  0  0  0
  5  3  1  6  0  0  0
  5 13  1  0  0  0  0
  5  4  1  0  0  0  0
  6  4  2  0  0  0  0
  6  9  1  0  0  0  0
  7 17  1  0  0  0  0
  7 10  2  0  0  0  0
  9  1  2  0  0  0  0
 10  8  1  0  0  0  0
 11  2  1  0  0  0  0
 11 12  1  0  0  0  0
 12  6  1  0  0  0  0
 14 13  1  0  0  0  0
 15 16  1  0  0  0  0
 17 19  1  0  0  0  0
 18 19  2  0  0  0  0
 19 20  1  0  0  0  0
 21 22  1  0  0  0  0
 21 20  1  0  0  0  0
 24 23  1  0  0  0  0
 24 22  1  1  0  0  0
 25 24  1  0  0  0  0
 26 25  1  0  0  0  0
 27 28  1  0  0  0  0
 28 23  1  0  0  0  0
 28 29  1  1  0  0  0
 30 26  1  0  0  0  0
 30 27  1  0  0  0  0
M  END
>  <MODEL>
9

>  <REMARK>
 VINA RESULT:      -6.4      3.341      7.622
  Name = 
  8 active torsions:
  status: ('A' for Active; 'I' for Inactive)
    1  A    between atoms: C_3  and  C_24
    2  A    between atoms: C_4  and  C_23
    3  A    between atoms: C_10  and  C_13
    4  A    between atoms: C_12  and  C_17
    5  A    between atoms: C_12  and  C_20
    6  A    between atoms: C_16  and  C_19
    7  A    between atoms: C_16  and  C_20
    8  A    between atoms: C_19  and  C_24
                            x       y       z     vdW  Elec       q    Type
                         _______ _______ _______ _____ _____    ______ ____

>  <TORSDO>
F 8

$$$$
