=
 OpenBabel11072408483D

 26 28  0  0  1  0  0  0  0  0999 V2000
  187.0870  177.6940  144.3740 C   0  0  1  0  0  3  0  0  0  0  0  0
  187.2440  177.9200  146.6420 C   0  0  0  0  0  2  0  0  0  0  0  0
  186.3180  178.2830  145.5300 C   0  0  2  0  0  3  0  0  0  0  0  0
  188.0380  176.7830  146.1760 N   0  0  1  0  0  0  0  0  0  0  0  0
  187.7500  176.5530  144.8550 O   0  0  0  0  0  0  0  0  0  0  0  0
  190.2750  176.0060  146.0000 O   0  0  0  0  0  0  0  0  0  0  0  0
  191.0810  177.0260  147.8790 C   0  0  0  0  0  0  0  0  0  0  0  0
  191.8550  177.2410  148.8490 O   0  0  0  0  0  0  0  0  0  0  0  0
  189.7780  177.6420  147.6990 C   0  0  0  0  0  2  0  0  0  0  0  0
  189.4570  177.1360  146.2850 C   0  0  2  0  0  3  0  0  0  0  0  0
  191.3590  176.1530  146.8060 N   0  0  0  0  0  0  0  0  0  0  0  0
  194.9690  176.2860  145.7770 C   0  0  0  0  0  3  0  0  0  0  0  0
  194.2140  173.9880  145.7310 C   0  0  0  0  0  3  0  0  0  0  0  0
  195.2270  174.9320  145.5470 C   0  0  0  0  0  3  0  0  0  0  0  0
  192.9430  174.3970  146.1440 C   0  0  0  0  0  3  0  0  0  0  0  0
  193.6980  176.6940  146.1900 C   0  0  0  0  0  3  0  0  0  0  0  0
  192.6720  175.7530  146.3750 C   0  0  0  0  0  0  0  0  0  0  0  0
  183.9100  178.5940  146.1200 C   0  0  0  0  0  1  0  0  0  0  0  0
  184.9790  177.5810  145.7530 C   0  0  0  0  0  2  0  0  0  0  0  0
  186.2480  177.3800  143.1270 C   0  0  2  0  0  3  0  0  0  0  0  0
  186.9710  176.4340  142.2170 C   0  0  0  0  0  0  0  0  0  0  0  0
  186.8180  175.1890  142.3310 O   0  0  0  0  0  1  0  0  0  0  0  0
  187.8220  176.9360  141.2430 O   0  0  0  0  0  0  0  0  0  0  0  0
  185.8950  178.6600  142.3790 C   0  0  0  0  0  2  0  0  0  0  0  0
  184.8290  178.4290  141.5090 O   0  0  0  0  0  0  0  0  0  0  0  0
  183.7300  178.2350  142.3470 C   0  0  0  0  0  1  0  0  0  0  0  0
  1 20  1  6  0  0  0
  1  5  1  0  0  0  0
  1  3  1  0  0  0  0
  3 19  1  1  0  0  0
  3  2  1  0  0  0  0
  4 10  1  0  0  0  0
  4  2  1  6  0  0  0
  5  4  1  0  0  0  0
  6 10  1  0  0  0  0
  6 11  1  0  0  0  0
  7  8  2  0  0  0  0
  9  7  1  0  0  0  0
 10  9  1  1  0  0  0
 11  7  1  0  0  0  0
 12 16  1  0  0  0  0
 13 15  2  0  0  0  0
 14 13  1  0  0  0  0
 14 12  2  0  0  0  0
 15 17  1  0  0  0  0
 16 17  2  0  0  0  0
 17 11  1  0  0  0  0
 19 18  1  0  0  0  0
 20 24  1  6  0  0  0
 21 22  1  0  0  0  0
 21 20  1  0  0  0  0
 23 21  2  0  0  0  0
 25 26  1  0  0  0  0
 25 24  1  0  0  0  0
M  END
>  <MODEL>
1

>  <REMARK>
 VINA RESULT:      -6.6      0.000      0.000
  Name = 
  7 active torsions:
  status: ('A' for Active; 'I' for Inactive)
    1  A    between atoms: O_3  and  C_9
    2  A    between atoms: C_4  and  C_26
    3  A    between atoms: C_9  and  C_26
    4  A    between atoms: C_12  and  C_25
    5  A    between atoms: N_13  and  C_20
    6  A    between atoms: C_15  and  C_26
    7  A    between atoms: N_22  and  C_24
                            x       y       z     vdW  Elec       q    Type
                         _______ _______ _______ _____ _____    ______ ____

>  <TORSDO>
F 7

$$$$
=
 OpenBabel11072408483D

 26 28  0  0  1  0  0  0  0  0999 V2000
  191.4450  175.5210  143.9730 C   0  0  1  0  0  3  0  0  0  0  0  0
  191.2790  177.7500  144.4420 C   0  0  0  0  0  2  0  0  0  0  0  0
  191.9870  176.5370  144.9450 C   0  0  2  0  0  3  0  0  0  0  0  0
  190.9260  177.4840  143.0460 N   0  0  1  0  0  0  0  0  0  0  0  0
  191.2420  176.1820  142.7510 O   0  0  0  0  0  0  0  0  0  0  0  0
  188.8540  177.7610  144.1710 O   0  0  0  0  0  0  0  0  0  0  0  0
  187.6370  176.3110  142.8910 C   0  0  0  0  0  0  0  0  0  0  0  0
  186.6940  175.5340  142.5840 O   0  0  0  0  0  0  0  0  0  0  0  0
  188.8720  176.4610  142.1410 C   0  0  0  0  0  2  0  0  0  0  0  0
  189.4780  177.6540  142.8970 C   0  0  2  0  0  3  0  0  0  0  0  0
  187.6420  177.1660  144.0130 N   0  0  0  0  0  0  0  0  0  0  0  0
  184.7150  179.3150  144.9750 C   0  0  0  0  0  3  0  0  0  0  0  0
  184.7890  177.3780  146.4240 C   0  0  0  0  0  3  0  0  0  0  0  0
  184.1820  178.5750  146.0340 C   0  0  0  0  0  3  0  0  0  0  0  0
  185.9280  176.9210  145.7550 C   0  0  0  0  0  3  0  0  0  0  0  0
  185.8550  178.8570  144.3080 C   0  0  0  0  0  3  0  0  0  0  0  0
  186.4730  177.6570  144.6930 C   0  0  0  0  0  0  0  0  0  0  0  0
  194.1650  176.7510  146.1500 C   0  0  0  0  0  1  0  0  0  0  0  0
  193.4920  176.7430  144.7900 C   0  0  0  0  0  2  0  0  0  0  0  0
  192.3070  174.2610  143.7990 C   0  0  2  0  0  3  0  0  0  0  0  0
  192.3960  173.8650  142.3580 C   0  0  0  0  0  0  0  0  0  0  0  0
  191.4760  173.1970  141.8160 O   0  0  0  0  0  1  0  0  0  0  0  0
  193.5090  174.2330  141.6140 O   0  0  0  0  0  0  0  0  0  0  0  0
  191.7480  173.1090  144.6270 C   0  0  0  0  0  2  0  0  0  0  0  0
  190.4410  173.3910  145.0210 O   0  0  0  0  0  0  0  0  0  0  0  0
  189.7330  172.2210  144.7450 C   0  0  0  0  0  1  0  0  0  0  0  0
  1 20  1  6  0  0  0
  1  3  1  0  0  0  0
  2  3  1  0  0  0  0
  3 19  1  6  0  0  0
  4  2  1  1  0  0  0
  5  4  1  0  0  0  0
  5  1  1  0  0  0  0
  7 11  1  0  0  0  0
  8  7  2  0  0  0  0
  9  7  1  0  0  0  0
 10  9  1  1  0  0  0
 10  4  1  0  0  0  0
 10  6  1  0  0  0  0
 11  6  1  0  0  0  0
 11 17  1  0  0  0  0
 12 14  1  0  0  0  0
 14 13  2  0  0  0  0
 15 13  1  0  0  0  0
 16 17  1  0  0  0  0
 16 12  2  0  0  0  0
 17 15  2  0  0  0  0
 19 18  1  0  0  0  0
 20 24  1  1  0  0  0
 21 20  1  0  0  0  0
 22 21  1  0  0  0  0
 23 21  2  0  0  0  0
 24 25  1  0  0  0  0
 26 25  1  0  0  0  0
M  END
>  <MODEL>
2

>  <REMARK>
 VINA RESULT:      -6.4      2.665      7.254
  Name = 
  7 active torsions:
  status: ('A' for Active; 'I' for Inactive)
    1  A    between atoms: O_3  and  C_9
    2  A    between atoms: C_4  and  C_26
    3  A    between atoms: C_9  and  C_26
    4  A    between atoms: C_12  and  C_25
    5  A    between atoms: N_13  and  C_20
    6  A    between atoms: C_15  and  C_26
    7  A    between atoms: N_22  and  C_24
                            x       y       z     vdW  Elec       q    Type
                         _______ _______ _______ _____ _____    ______ ____

>  <TORSDO>
F 7

$$$$
=
 OpenBabel11072408483D

 26 28  0  0  1  0  0  0  0  0999 V2000
  191.4190  175.3790  143.9120 C   0  0  1  0  0  3  0  0  0  0  0  0
  191.2660  177.5690  144.5430 C   0  0  0  0  0  2  0  0  0  0  0  0
  191.9520  176.3140  144.9670 C   0  0  2  0  0  3  0  0  0  0  0  0
  190.9370  177.4110  143.1250 N   0  0  1  0  0  0  0  0  0  0  0  0
  191.2460  176.1320  142.7390 O   0  0  0  0  0  0  0  0  0  0  0  0
  188.8580  177.7120  144.2310 O   0  0  0  0  0  0  0  0  0  0  0  0
  187.6300  176.2970  142.9220 C   0  0  0  0  0  0  0  0  0  0  0  0
  186.6770  175.5400  142.5960 O   0  0  0  0  0  0  0  0  0  0  0  0
  188.8750  176.4340  142.1870 C   0  0  0  0  0  2  0  0  0  0  0  0
  189.4940  177.6080  142.9620 C   0  0  2  0  0  3  0  0  0  0  0  0
  187.6380  177.1400  144.0530 N   0  0  0  0  0  0  0  0  0  0  0  0
  184.7220  179.3150  144.9890 C   0  0  0  0  0  3  0  0  0  0  0  0
  184.7790  177.3900  146.4540 C   0  0  0  0  0  3  0  0  0  0  0  0
  184.1810  178.5870  146.0530 C   0  0  0  0  0  3  0  0  0  0  0  0
  185.9170  176.9200  145.7920 C   0  0  0  0  0  3  0  0  0  0  0  0
  185.8600  178.8450  144.3280 C   0  0  0  0  0  3  0  0  0  0  0  0
  186.4700  177.6440  144.7250 C   0  0  0  0  0  0  0  0  0  0  0  0
  194.0960  176.5080  146.2340 C   0  0  0  0  0  1  0  0  0  0  0  0
  193.4620  176.5140  144.8560 C   0  0  0  0  0  2  0  0  0  0  0  0
  192.2710  174.1260  143.6610 C   0  0  2  0  0  3  0  0  0  0  0  0
  192.0280  173.5750  142.2900 C   0  0  0  0  0  0  0  0  0  0  0  0
  192.9260  173.6260  141.4080 O   0  0  0  0  0  0  0  0  0  0  0  0
  190.7980  173.0070  141.9880 O   0  0  0  0  0  1  0  0  0  0  0  0
  191.9860  173.0610  144.7140 C   0  0  0  0  0  2  0  0  0  0  0  0
  193.0350  172.1440  144.7650 O   0  0  0  0  0  0  0  0  0  0  0  0
  194.0380  172.8000  145.4790 C   0  0  0  0  0  1  0  0  0  0  0  0
  1 20  1  6  0  0  0
  1  3  1  0  0  0  0
  2  3  1  0  0  0  0
  3 19  1  6  0  0  0
  4  2  1  1  0  0  0
  5  4  1  0  0  0  0
  5  1  1  0  0  0  0
  7 11  1  0  0  0  0
  8  7  2  0  0  0  0
  9  7  1  0  0  0  0
 10  9  1  1  0  0  0
 10  4  1  0  0  0  0
 10  6  1  0  0  0  0
 11  6  1  0  0  0  0
 11 17  1  0  0  0  0
 12 14  1  0  0  0  0
 14 13  2  0  0  0  0
 15 13  1  0  0  0  0
 16 17  1  0  0  0  0
 16 12  2  0  0  0  0
 17 15  2  0  0  0  0
 19 18  1  0  0  0  0
 20 24  1  1  0  0  0
 21 20  1  0  0  0  0
 22 21  2  0  0  0  0
 23 21  1  0  0  0  0
 24 25  1  0  0  0  0
 25 26  1  0  0  0  0
M  END
>  <MODEL>
3

>  <REMARK>
 VINA RESULT:      -6.3      2.640      7.553
  Name = 
  7 active torsions:
  status: ('A' for Active; 'I' for Inactive)
    1  A    between atoms: O_3  and  C_9
    2  A    between atoms: C_4  and  C_26
    3  A    between atoms: C_9  and  C_26
    4  A    between atoms: C_12  and  C_25
    5  A    between atoms: N_13  and  C_20
    6  A    between atoms: C_15  and  C_26
    7  A    between atoms: N_22  and  C_24
                            x       y       z     vdW  Elec       q    Type
                         _______ _______ _______ _____ _____    ______ ____

>  <TORSDO>
F 7

$$$$
=
 OpenBabel11072408483D

 26 28  0  0  1  0  0  0  0  0999 V2000
  191.3780  176.1940  144.8060 C   0  0  1  0  0  3  0  0  0  0  0  0
  191.7730  177.7680  143.1980 C   0  0  0  0  0  2  0  0  0  0  0  0
  192.5140  177.0150  144.2500 C   0  0  2  0  0  3  0  0  0  0  0  0
  190.5820  176.9800  142.8740 N   0  0  1  0  0  0  0  0  0  0  0  0
  190.5040  175.9200  143.7410 O   0  0  0  0  0  0  0  0  0  0  0  0
  188.5190  177.2370  144.0200 O   0  0  0  0  0  0  0  0  0  0  0  0
  187.2860  177.9490  142.2330 C   0  0  0  0  0  0  0  0  0  0  0  0
  186.2580  178.1860  141.5440 O   0  0  0  0  0  0  0  0  0  0  0  0
  188.6520  178.0190  141.7440 C   0  0  0  0  0  2  0  0  0  0  0  0
  189.4020  177.8260  143.0700 C   0  0  2  0  0  3  0  0  0  0  0  0
  187.2750  177.5820  143.5950 N   0  0  0  0  0  0  0  0  0  0  0  0
  184.4940  179.3480  145.3990 C   0  0  0  0  0  3  0  0  0  0  0  0
  184.8360  177.1730  146.4020 C   0  0  0  0  0  3  0  0  0  0  0  0
  184.1510  178.3900  146.3570 C   0  0  0  0  0  3  0  0  0  0  0  0
  185.8640  176.9140  145.4910 C   0  0  0  0  0  3  0  0  0  0  0  0
  185.5230  179.0890  144.4890 C   0  0  0  0  0  3  0  0  0  0  0  0
  186.2190  177.8700  144.5270 C   0  0  0  0  0  0  0  0  0  0  0  0
  194.9220  176.3470  144.2610 C   0  0  0  0  0  1  0  0  0  0  0  0
  193.5800  176.1500  143.5800 C   0  0  0  0  0  2  0  0  0  0  0  0
  191.7980  174.9130  145.5400 C   0  0  2  0  0  3  0  0  0  0  0  0
  190.9020  173.7680  145.1790 C   0  0  0  0  0  0  0  0  0  0  0  0
  189.7490  173.6720  145.6760 O   0  0  0  0  0  1  0  0  0  0  0  0
  191.3510  172.8000  144.2910 O   0  0  0  0  0  0  0  0  0  0  0  0
  191.7900  175.1290  147.0490 C   0  0  0  0  0  2  0  0  0  0  0  0
  190.8530  176.1040  147.3890 O   0  0  0  0  0  0  0  0  0  0  0  0
  191.4780  176.8580  148.3820 C   0  0  0  0  0  1  0  0  0  0  0  0
  1 20  1  6  0  0  0
  2  3  1  0  0  0  0
  3 19  1  6  0  0  0
  3  1  1  0  0  0  0
  4 10  1  0  0  0  0
  4  2  1  1  0  0  0
  4  5  1  0  0  0  0
  5  1  1  0  0  0  0
  7 11  1  0  0  0  0
  8  7  2  0  0  0  0
  9  7  1  0  0  0  0
 10  9  1  6  0  0  0
 10  6  1  0  0  0  0
 11  6  1  0  0  0  0
 11 17  1  0  0  0  0
 12 14  1  0  0  0  0
 14 13  2  0  0  0  0
 15 13  1  0  0  0  0
 16 17  1  0  0  0  0
 16 12  2  0  0  0  0
 17 15  2  0  0  0  0
 19 18  1  0  0  0  0
 20 24  1  1  0  0  0
 21 20  1  0  0  0  0
 21 22  1  0  0  0  0
 23 21  2  0  0  0  0
 24 25  1  0  0  0  0
 25 26  1  0  0  0  0
M  END
>  <MODEL>
4

>  <REMARK>
 VINA RESULT:      -6.3      2.145      7.503
  Name = 
  7 active torsions:
  status: ('A' for Active; 'I' for Inactive)
    1  A    between atoms: O_3  and  C_9
    2  A    between atoms: C_4  and  C_26
    3  A    between atoms: C_9  and  C_26
    4  A    between atoms: C_12  and  C_25
    5  A    between atoms: N_13  and  C_20
    6  A    between atoms: C_15  and  C_26
    7  A    between atoms: N_22  and  C_24
                            x       y       z     vdW  Elec       q    Type
                         _______ _______ _______ _____ _____    ______ ____

>  <TORSDO>
F 7

$$$$
=
 OpenBabel11072408483D

 26 28  0  0  1  0  0  0  0  0999 V2000
  186.0600  177.2850  144.0530 C   0  0  1  0  0  3  0  0  0  0  0  0
  187.0010  176.6490  142.0710 C   0  0  0  0  0  2  0  0  0  0  0  0
  185.6510  176.8980  142.6550 C   0  0  2  0  0  3  0  0  0  0  0  0
  187.9570  177.4030  142.8830 N   0  0  1  0  0  0  0  0  0  0  0  0
  187.2970  177.9440  143.9560 O   0  0  0  0  0  0  0  0  0  0  0  0
  190.0770  177.1840  143.9280 O   0  0  0  0  0  0  0  0  0  0  0  0
  190.8800  175.5070  142.5990 C   0  0  0  0  0  0  0  0  0  0  0  0
  191.7320  174.7630  142.0460 O   0  0  0  0  0  0  0  0  0  0  0  0
  189.4690  175.5580  142.2560 C   0  0  0  0  0  2  0  0  0  0  0  0
  188.9710  176.4720  143.3860 C   0  0  2  0  0  3  0  0  0  0  0  0
  191.1580  176.4080  143.6480 N   0  0  0  0  0  0  0  0  0  0  0  0
  194.6430  176.4540  145.0480 C   0  0  0  0  0  3  0  0  0  0  0  0
  193.0870  175.8750  146.8090 C   0  0  0  0  0  3  0  0  0  0  0  0
  194.3960  176.1160  146.3820 C   0  0  0  0  0  3  0  0  0  0  0  0
  192.0270  175.9720  145.9040 C   0  0  0  0  0  3  0  0  0  0  0  0
  193.5820  176.5500  144.1440 C   0  0  0  0  0  3  0  0  0  0  0  0
  192.2640  176.3070  144.5620 C   0  0  0  0  0  0  0  0  0  0  0  0
  185.4000  178.0290  140.4410 C   0  0  0  0  0  1  0  0  0  0  0  0
  184.9920  178.0530  141.9030 C   0  0  0  0  0  2  0  0  0  0  0  0
  185.0300  178.1220  144.8250 C   0  0  2  0  0  3  0  0  0  0  0  0
  185.5450  179.5040  145.0840 C   0  0  0  0  0  0  0  0  0  0  0  0
  185.9850  179.8240  146.2200 O   0  0  0  0  0  1  0  0  0  0  0  0
  185.5300  180.4430  144.0620 O   0  0  0  0  0  0  0  0  0  0  0  0
  184.6630  177.4440  146.1410 C   0  0  0  0  0  2  0  0  0  0  0  0
  185.6030  176.4620  146.4530 O   0  0  0  0  0  0  0  0  0  0  0  0
  186.1370  176.8660  147.6760 C   0  0  0  0  0  1  0  0  0  0  0  0
  1 20  1  6  0  0  0
  2  3  1  0  0  0  0
  3 19  1  6  0  0  0
  3  1  1  0  0  0  0
  4  2  1  6  0  0  0
  4 10  1  0  0  0  0
  4  5  1  0  0  0  0
  5  1  1  0  0  0  0
  7 11  1  0  0  0  0
  8  7  2  0  0  0  0
  9  7  1  0  0  0  0
 10  9  1  6  0  0  0
 10  6  1  0  0  0  0
 11  6  1  0  0  0  0
 11 17  1  0  0  0  0
 12 14  1  0  0  0  0
 14 13  2  0  0  0  0
 15 13  1  0  0  0  0
 16 17  1  0  0  0  0
 16 12  2  0  0  0  0
 17 15  2  0  0  0  0
 18 19  1  0  0  0  0
 20 21  1  0  0  0  0
 20 24  1  1  0  0  0
 21 22  1  0  0  0  0
 23 21  2  0  0  0  0
 24 25  1  0  0  0  0
 25 26  1  0  0  0  0
M  END
>  <MODEL>
5

>  <REMARK>
 VINA RESULT:      -6.2      2.305      4.069
  Name = 
  7 active torsions:
  status: ('A' for Active; 'I' for Inactive)
    1  A    between atoms: O_3  and  C_9
    2  A    between atoms: C_4  and  C_26
    3  A    between atoms: C_9  and  C_26
    4  A    between atoms: C_12  and  C_25
    5  A    between atoms: N_13  and  C_20
    6  A    between atoms: C_15  and  C_26
    7  A    between atoms: N_22  and  C_24
                            x       y       z     vdW  Elec       q    Type
                         _______ _______ _______ _____ _____    ______ ____

>  <TORSDO>
F 7

$$$$
=
 OpenBabel11072408483D

 26 28  0  0  1  0  0  0  0  0999 V2000
  187.1770  177.0960  144.4440 C   0  0  1  0  0  3  0  0  0  0  0  0
  188.8190  176.5130  142.9670 C   0  0  0  0  0  2  0  0  0  0  0  0
  187.3690  176.2580  143.2050 C   0  0  2  0  0  3  0  0  0  0  0  0
  189.1400  177.7780  143.6300 N   0  0  1  0  0  0  0  0  0  0  0  0
  188.0430  178.1960  144.3390 O   0  0  0  0  0  0  0  0  0  0  0  0
  190.9660  176.3740  144.2050 O   0  0  0  0  0  0  0  0  0  0  0  0
  190.5750  176.3020  146.4550 C   0  0  0  0  0  0  0  0  0  0  0  0
  190.6320  175.8690  147.6360 O   0  0  0  0  0  0  0  0  0  0  0  0
  189.6930  177.3620  145.9970 C   0  0  0  0  0  2  0  0  0  0  0  0
  190.2370  177.5400  144.5720 C   0  0  2  0  0  3  0  0  0  0  0  0
  191.3630  175.8300  145.3850 N   0  0  0  0  0  0  0  0  0  0  0  0
  194.0200  173.1740  145.3880 C   0  0  0  0  0  3  0  0  0  0  0  0
  195.0110  175.2910  146.0130 C   0  0  0  0  0  3  0  0  0  0  0  0
  195.1390  173.9220  145.7630 C   0  0  0  0  0  3  0  0  0  0  0  0
  193.7660  175.9120  145.8870 C   0  0  0  0  0  3  0  0  0  0  0  0
  192.7740  173.7960  145.2630 C   0  0  0  0  0  3  0  0  0  0  0  0
  192.6350  175.1700  145.5140 C   0  0  0  0  0  0  0  0  0  0  0  0
  187.4140  176.7440  140.7550 C   0  0  0  0  0  1  0  0  0  0  0  0
  186.5720  176.7910  142.0160 C   0  0  0  0  0  2  0  0  0  0  0  0
  185.7310  177.5360  144.7160 C   0  0  2  0  0  3  0  0  0  0  0  0
  185.6190  179.0290  144.7420 C   0  0  0  0  0  0  0  0  0  0  0  0
  185.5660  179.6510  145.8360 O   0  0  0  0  0  1  0  0  0  0  0  0
  185.5660  179.7330  143.5470 O   0  0  0  0  0  0  0  0  0  0  0  0
  185.2270  176.9480  146.0290 C   0  0  0  0  0  2  0  0  0  0  0  0
  186.3010  176.4990  146.7970 O   0  0  0  0  0  0  0  0  0  0  0  0
  186.1660  177.1710  148.0130 C   0  0  0  0  0  1  0  0  0  0  0  0
  1 20  1  6  0  0  0
  2  3  1  0  0  0  0
  3 19  1  6  0  0  0
  3  1  1  0  0  0  0
  4  2  1  1  0  0  0
  4  5  1  0  0  0  0
  4 10  1  0  0  0  0
  5  1  1  0  0  0  0
  6 10  1  0  0  0  0
  6 11  1  0  0  0  0
  7  8  2  0  0  0  0
  9  7  1  0  0  0  0
 10  9  1  1  0  0  0
 11 17  1  0  0  0  0
 11  7  1  0  0  0  0
 12 14  1  0  0  0  0
 14 13  2  0  0  0  0
 15 13  1  0  0  0  0
 16 12  2  0  0  0  0
 16 17  1  0  0  0  0
 17 15  2  0  0  0  0
 18 19  1  0  0  0  0
 20 21  1  0  0  0  0
 20 24  1  1  0  0  0
 21 22  1  0  0  0  0
 23 21  2  0  0  0  0
 24 25  1  0  0  0  0
 25 26  1  0  0  0  0
M  END
>  <MODEL>
6

>  <REMARK>
 VINA RESULT:      -6.1      1.875      3.456
  Name = 
  7 active torsions:
  status: ('A' for Active; 'I' for Inactive)
    1  A    between atoms: O_3  and  C_9
    2  A    between atoms: C_4  and  C_26
    3  A    between atoms: C_9  and  C_26
    4  A    between atoms: C_12  and  C_25
    5  A    between atoms: N_13  and  C_20
    6  A    between atoms: C_15  and  C_26
    7  A    between atoms: N_22  and  C_24
                            x       y       z     vdW  Elec       q    Type
                         _______ _______ _______ _____ _____    ______ ____

>  <TORSDO>
F 7

$$$$
=
 OpenBabel11072408483D

 26 28  0  0  1  0  0  0  0  0999 V2000
  192.7680  175.1890  143.9680 C   0  0  1  0  0  3  0  0  0  0  0  0
  190.9100  173.8720  143.7890 C   0  0  0  0  0  2  0  0  0  0  0  0
  192.3670  173.8220  143.4730 C   0  0  2  0  0  3  0  0  0  0  0  0
  190.7410  174.8700  144.8460 N   0  0  1  0  0  0  0  0  0  0  0  0
  191.9440  175.4910  145.0640 O   0  0  0  0  0  0  0  0  0  0  0  0
  188.7330  176.0370  145.3350 O   0  0  0  0  0  0  0  0  0  0  0  0
  187.7980  175.8850  143.2560 C   0  0  0  0  0  0  0  0  0  0  0  0
  186.8930  175.8870  142.3800 O   0  0  0  0  0  0  0  0  0  0  0  0
  189.1680  175.4540  143.0380 C   0  0  0  0  0  2  0  0  0  0  0  0
  189.7790  175.8730  144.3840 C   0  0  2  0  0  3  0  0  0  0  0  0
  187.6280  176.3050  144.5910 N   0  0  0  0  0  0  0  0  0  0  0  0
  185.5400  179.3990  145.0180 C   0  0  0  0  0  3  0  0  0  0  0  0
  184.6900  177.6600  146.4710 C   0  0  0  0  0  3  0  0  0  0  0  0
  184.6180  178.9640  145.9750 C   0  0  0  0  0  3  0  0  0  0  0  0
  185.6840  176.7910  146.0120 C   0  0  0  0  0  3  0  0  0  0  0  0
  186.5340  178.5290  144.5610 C   0  0  0  0  0  3  0  0  0  0  0  0
  186.6170  177.2170  145.0550 C   0  0  0  0  0  0  0  0  0  0  0  0
  192.2580  171.3990  144.0730 C   0  0  0  0  0  1  0  0  0  0  0  0
  193.0110  172.7000  144.2850 C   0  0  0  0  0  2  0  0  0  0  0  0
  194.2550  175.3450  144.3160 C   0  0  2  0  0  3  0  0  0  0  0  0
  194.4350  176.1760  145.5490 C   0  0  0  0  0  0  0  0  0  0  0  0
  194.7380  175.6380  146.6470 O   0  0  0  0  0  1  0  0  0  0  0  0
  194.2600  177.5510  145.4810 O   0  0  0  0  0  0  0  0  0  0  0  0
  195.0190  175.9640  143.1500 C   0  0  0  0  0  2  0  0  0  0  0  0
  196.2730  175.3660  143.0270 O   0  0  0  0  0  0  0  0  0  0  0  0
  197.1360  176.4230  142.7350 C   0  0  0  0  0  1  0  0  0  0  0  0
  1 20  1  1  0  0  0
  1  5  1  0  0  0  0
  3  2  1  0  0  0  0
  3  1  1  0  0  0  0
  3 19  1  1  0  0  0
  4  2  1  6  0  0  0
  4  5  1  0  0  0  0
  7 11  1  0  0  0  0
  8  7  2  0  0  0  0
  9  7  1  0  0  0  0
 10  9  1  6  0  0  0
 10  4  1  0  0  0  0
 10  6  1  0  0  0  0
 11 17  1  0  0  0  0
 11  6  1  0  0  0  0
 12 14  1  0  0  0  0
 14 13  2  0  0  0  0
 15 13  1  0  0  0  0
 16 12  2  0  0  0  0
 16 17  1  0  0  0  0
 17 15  2  0  0  0  0
 18 19  1  0  0  0  0
 20 24  1  6  0  0  0
 20 21  1  0  0  0  0
 21 22  1  0  0  0  0
 23 21  2  0  0  0  0
 25 24  1  0  0  0  0
 26 25  1  0  0  0  0
M  END
>  <MODEL>
7

>  <REMARK>
 VINA RESULT:      -6.1      2.620      8.145
  Name = 
  7 active torsions:
  status: ('A' for Active; 'I' for Inactive)
    1  A    between atoms: O_3  and  C_9
    2  A    between atoms: C_4  and  C_26
    3  A    between atoms: C_9  and  C_26
    4  A    between atoms: C_12  and  C_25
    5  A    between atoms: N_13  and  C_20
    6  A    between atoms: C_15  and  C_26
    7  A    between atoms: N_22  and  C_24
                            x       y       z     vdW  Elec       q    Type
                         _______ _______ _______ _____ _____    ______ ____

>  <TORSDO>
F 7

$$$$
=
 OpenBabel11072408483D

 26 28  0  0  1  0  0  0  0  0999 V2000
  188.5650  177.4450  144.6720 C   0  0  1  0  0  3  0  0  0  0  0  0
  189.4600  176.7800  146.6660 C   0  0  0  0  0  2  0  0  0  0  0  0
  188.2080  177.3960  146.1360 C   0  0  2  0  0  3  0  0  0  0  0  0
  190.0830  176.0650  145.5510 N   0  0  1  0  0  0  0  0  0  0  0  0
  189.3780  176.3320  144.4050 O   0  0  0  0  0  0  0  0  0  0  0  0
  192.0480  176.0130  144.2200 O   0  0  0  0  0  0  0  0  0  0  0  0
  193.5530  175.8980  145.9350 C   0  0  0  0  0  0  0  0  0  0  0  0
  194.6480  175.6660  146.5130 O   0  0  0  0  0  0  0  0  0  0  0  0
  192.3070  176.2210  146.6070 C   0  0  0  0  0  2  0  0  0  0  0  0
  191.4480  176.5730  145.3830 C   0  0  2  0  0  3  0  0  0  0  0  0
  193.3630  175.8860  144.5370 N   0  0  0  0  0  0  0  0  0  0  0  0
  195.1370  176.1870  141.2390 C   0  0  0  0  0  3  0  0  0  0  0  0
  196.7060  176.6230  143.0290 C   0  0  0  0  0  3  0  0  0  0  0  0
  196.4290  176.5090  141.6640 C   0  0  0  0  0  3  0  0  0  0  0  0
  195.6930  176.4160  143.9690 C   0  0  0  0  0  3  0  0  0  0  0  0
  194.1240  175.9790  142.1800 C   0  0  0  0  0  3  0  0  0  0  0  0
  194.3930  176.0890  143.5540 C   0  0  0  0  0  0  0  0  0  0  0  0
  185.9770  177.1670  147.2350 C   0  0  0  0  0  1  0  0  0  0  0  0
  187.0380  176.4560  146.4170 C   0  0  0  0  0  2  0  0  0  0  0  0
  187.3680  177.5170  143.7120 C   0  0  2  0  0  3  0  0  0  0  0  0
  187.8070  177.3450  142.2910 C   0  0  0  0  0  0  0  0  0  0  0  0
  187.4270  176.3520  141.6160 O   0  0  0  0  0  0  0  0  0  0  0  0
  188.6470  178.2890  141.7140 O   0  0  0  0  0  1  0  0  0  0  0  0
  186.6240  178.8370  143.8770 C   0  0  0  0  0  2  0  0  0  0  0  0
  185.4550  178.8270  143.1160 O   0  0  0  0  0  0  0  0  0  0  0  0
  184.4520  178.4820  144.0220 C   0  0  0  0  0  1  0  0  0  0  0  0
  1 20  1  6  0  0  0
  1  3  1  0  0  0  0
  3 19  1  6  0  0  0
  3  2  1  0  0  0  0
  4  2  1  1  0  0  0
  5  1  1  0  0  0  0
  5  4  1  0  0  0  0
  6 11  1  0  0  0  0
  6 10  1  0  0  0  0
  7  8  2  0  0  0  0
  7  9  1  0  0  0  0
 10  4  1  0  0  0  0
 10  9  1  1  0  0  0
 11  7  1  0  0  0  0
 12 14  2  0  0  0  0
 12 16  1  0  0  0  0
 13 15  2  0  0  0  0
 14 13  1  0  0  0  0
 16 17  2  0  0  0  0
 17 15  1  0  0  0  0
 17 11  1  0  0  0  0
 19 18  1  0  0  0  0
 20 24  1  6  0  0  0
 21 20  1  0  0  0  0
 22 21  2  0  0  0  0
 23 21  1  0  0  0  0
 25 24  1  0  0  0  0
 25 26  1  0  0  0  0
M  END
>  <MODEL>
8

>  <REMARK>
 VINA RESULT:      -6.1      2.294      2.866
  Name = 
  7 active torsions:
  status: ('A' for Active; 'I' for Inactive)
    1  A    between atoms: O_3  and  C_9
    2  A    between atoms: C_4  and  C_26
    3  A    between atoms: C_9  and  C_26
    4  A    between atoms: C_12  and  C_25
    5  A    between atoms: N_13  and  C_20
    6  A    between atoms: C_15  and  C_26
    7  A    between atoms: N_22  and  C_24
                            x       y       z     vdW  Elec       q    Type
                         _______ _______ _______ _____ _____    ______ ____

>  <TORSDO>
F 7

$$$$
=
 OpenBabel11072408483D

 26 28  0  0  1  0  0  0  0  0999 V2000
  190.4700  174.8600  143.2730 C   0  0  1  0  0  3  0  0  0  0  0  0
  191.2050  176.5170  144.6640 C   0  0  0  0  0  2  0  0  0  0  0  0
  191.3020  175.0350  144.5180 C   0  0  2  0  0  3  0  0  0  0  0  0
  190.8900  177.0510  143.3380 N   0  0  1  0  0  0  0  0  0  0  0  0
  190.6620  176.0050  142.4820 O   0  0  0  0  0  0  0  0  0  0  0  0
  188.7800  177.2740  144.4020 O   0  0  0  0  0  0  0  0  0  0  0  0
  187.5700  177.7930  142.5340 C   0  0  0  0  0  0  0  0  0  0  0  0
  186.5550  177.9260  141.8010 O   0  0  0  0  0  0  0  0  0  0  0  0
  188.9460  177.9030  142.0810 C   0  0  0  0  0  2  0  0  0  0  0  0
  189.6610  177.8430  143.4400 C   0  0  2  0  0  3  0  0  0  0  0  0
  187.5340  177.5200  143.9180 N   0  0  0  0  0  0  0  0  0  0  0  0
  184.8370  177.1430  146.5040 C   0  0  0  0  0  3  0  0  0  0  0  0
  184.8190  179.4120  145.6630 C   0  0  0  0  0  3  0  0  0  0  0  0
  184.2950  178.4310  146.5090 C   0  0  0  0  0  3  0  0  0  0  0  0
  185.8840  179.1050  144.8120 C   0  0  0  0  0  3  0  0  0  0  0  0
  185.9010  176.8370  145.6520 C   0  0  0  0  0  3  0  0  0  0  0  0
  186.4340  177.8140  144.7960 C   0  0  0  0  0  0  0  0  0  0  0  0
  193.2350  173.7140  145.3910 C   0  0  0  0  0  1  0  0  0  0  0  0
  192.7650  174.6550  144.2970 C   0  0  0  0  0  2  0  0  0  0  0  0
  190.7430  173.5720  142.4830 C   0  0  2  0  0  3  0  0  0  0  0  0
  190.1800  173.6610  141.0980 C   0  0  0  0  0  0  0  0  0  0  0  0
  188.9340  173.6780  140.9100 O   0  0  0  0  0  1  0  0  0  0  0  0
  191.0410  173.7180  140.0110 O   0  0  0  0  0  0  0  0  0  0  0  0
  190.1650  172.3630  143.2090 C   0  0  0  0  0  2  0  0  0  0  0  0
  190.6120  171.1850  142.6100 O   0  0  0  0  0  0  0  0  0  0  0  0
  191.8900  170.9900  143.1340 C   0  0  0  0  0  1  0  0  0  0  0  0
  1 20  1  6  0  0  0
  1  3  1  0  0  0  0
  3 19  1  6  0  0  0
  3  2  1  0  0  0  0
  4 10  1  0  0  0  0
  4  2  1  1  0  0  0
  5  1  1  0  0  0  0
  5  4  1  0  0  0  0
  7 11  1  0  0  0  0
  8  7  2  0  0  0  0
  9  7  1  0  0  0  0
 10  9  1  6  0  0  0
 10  6  1  0  0  0  0
 11  6  1  0  0  0  0
 11 17  1  0  0  0  0
 12 14  1  0  0  0  0
 13 14  2  0  0  0  0
 15 13  1  0  0  0  0
 16 12  2  0  0  0  0
 17 15  2  0  0  0  0
 17 16  1  0  0  0  0
 19 18  1  0  0  0  0
 20 24  1  1  0  0  0
 21 20  1  0  0  0  0
 22 21  1  0  0  0  0
 23 21  2  0  0  0  0
 25 26  1  0  0  0  0
 25 24  1  0  0  0  0
M  END
>  <MODEL>
9

>  <REMARK>
 VINA RESULT:      -6.0      2.962      7.257
  Name = 
  7 active torsions:
  status: ('A' for Active; 'I' for Inactive)
    1  A    between atoms: O_3  and  C_9
    2  A    between atoms: C_4  and  C_26
    3  A    between atoms: C_9  and  C_26
    4  A    between atoms: C_12  and  C_25
    5  A    between atoms: N_13  and  C_20
    6  A    between atoms: C_15  and  C_26
    7  A    between atoms: N_22  and  C_24
                            x       y       z     vdW  Elec       q    Type
                         _______ _______ _______ _____ _____    ______ ____

>  <TORSDO>
F 7

$$$$
