=
 OpenBabel11062418513D

 37 41  0  0  1  0  0  0  0  0999 V2000
  193.0840  173.9390  142.8980 C   0  0  0  0  0  2  0  0  0  0  0  0
  192.5640  176.3330  144.3160 O   0  0  0  0  0  0  0  0  0  0  0  0
  193.8960  176.1810  143.8330 C   0  0  0  0  0  2  0  0  0  0  0  0
  190.5760  176.8320  147.4000 C   0  0  0  0  0  1  0  0  0  0  0  0
  189.6340  174.4920  141.9980 N   0  0  0  0  0  0  0  0  0  0  0  0
  191.7050  173.6220  140.8720 C   0  0  0  0  0  0  0  0  0  0  0  0
  190.2990  173.6160  141.0640 C   0  0  0  0  0  0  0  0  0  0  0  0
  192.1960  176.1250  145.6480 C   0  0  0  0  0  0  0  0  0  0  0  0
  190.7440  176.1740  146.0420 C   0  0  2  0  0  3  0  0  0  0  0  0
  188.2030  174.7260  141.9660 C   0  0  0  0  0  2  0  0  0  0  0  0
  191.4880  171.8670  139.2560 N   0  0  0  0  0  0  0  0  0  0  0  0
  190.1400  171.8490  139.4090 C   0  0  0  0  0  3  0  0  0  0  0  0
  189.2210  175.5730  143.9440 C   0  0  1  0  0  3  0  0  0  0  0  0
  190.2900  175.0690  143.0920 N   0  0  0  0  0  2  0  0  0  0  0  0
  189.5270  172.7190  140.3090 C   0  0  0  0  0  3  0  0  0  0  0  0
  192.2710  172.7260  139.9590 C   0  0  0  0  0  3  0  0  0  0  0  0
  194.2420  174.7190  143.5220 C   0  0  1  0  0  3  0  0  0  0  0  0
  189.7420  177.0880  144.8230 S   0  0  0  0  0  0  0  0  0  0  0  0
  193.0700  175.8400  146.5120 O   0  0  0  0  0  0  0  0  0  0  0  0
  187.9540  175.7030  143.0880 C   0  0  1  0  0  3  0  0  0  0  0  0
  192.6320  174.5540  141.5830 C   0  0  0  0  0  2  0  0  0  0  0  0
  194.7480  174.0210  144.7740 C   0  0  0  0  0  2  0  0  0  0  0  0
  196.4720  172.3710  145.5680 N   0  0  0  0  0  0  0  0  0  0  0  0
  197.1060  173.4610  146.3060 C   0  0  0  0  0  1  0  0  0  0  0  0
  197.8050  171.8820  143.5540 C   0  0  0  0  0  2  0  0  0  0  0  0
  197.2400  170.1510  145.1680 N   0  0  0  0  0  1  0  0  0  0  0  0
  197.5600  171.5600  145.0250 C   0  0  2  0  0  3  0  0  0  0  0  0
  195.7110  172.8850  144.4230 C   0  0  2  0  0  3  0  0  0  0  0  0
  196.8570  173.3570  143.1120 S   0  0  0  0  0  0  0  0  0  0  0  0
  187.7840  177.0870  142.4700 C   0  0  0  0  0  2  0  0  0  0  0  0
  184.7750  178.4110  143.8010 C   0  0  0  0  0  0  0  0  0  0  0  0
  184.3430  178.1350  142.5210 C   0  0  0  0  0  0  0  0  0  0  0  0
  185.4320  177.6080  141.8580 C   0  0  0  0  0  3  0  0  0  0  0  0
  183.9620  178.9870  144.9070 C   0  0  0  0  0  1  0  0  0  0  0  0
  186.4490  177.5950  142.7430 N   0  0  0  0  0  0  0  0  0  0  0  0
  186.0690  178.0700  143.9180 N   0  0  0  0  0  0  0  0  0  0  0  0
  182.9830  178.3490  141.9580 C   0  0  0  0  0  1  0  0  0  0  0  0
  1 17  1  0  0  0  0
  2  8  1  0  0  0  0
  3  2  1  0  0  0  0
  5 14  1  0  0  0  0
  6  7  1  0  0  0  0
  6 21  1  0  0  0  0
  7  5  1  0  0  0  0
  8  9  1  0  0  0  0
  8 19  2  0  0  0  0
  9  4  1  1  0  0  0
 10  5  1  0  0  0  0
 10 20  1  0  0  0  0
 11 12  2  0  0  0  0
 11 16  1  0  0  0  0
 12 15  1  0  0  0  0
 13 14  1  6  0  0  0
 13 18  1  0  0  0  0
 15  7  2  0  0  0  0
 16  6  2  0  0  0  0
 17  3  1  0  0  0  0
 17 22  1  1  0  0  0
 18  9  1  0  0  0  0
 20 30  1  6  0  0  0
 20 13  1  0  0  0  0
 21  1  1  0  0  0  0
 23 24  1  0  0  0  0
 25 27  1  0  0  0  0
 27 26  1  6  0  0  0
 27 23  1  0  0  0  0
 28 22  1  1  0  0  0
 28 23  1  0  0  0  0
 29 25  1  0  0  0  0
 29 28  1  0  0  0  0
 30 35  1  0  0  0  0
 31 36  2  0  0  0  0
 31 34  1  0  0  0  0
 32 31  1  0  0  0  0
 33 32  2  0  0  0  0
 33 35  1  0  0  0  0
 35 36  1  0  0  0  0
 37 32  1  0  0  0  0
M  END
>  <MODEL>
1

>  <REMARK>
 VINA RESULT:      -7.8      0.000      0.000
  Name = 
  4 active torsions:
  status: ('A' for Active; 'I' for Inactive)
    1  A    between atoms: N_25  and  C_37
    2  A    between atoms: C_27  and  C_29
    3  A    between atoms: C_28  and  C_29
    4  A    between atoms: C_34  and  C_37
                            x       y       z     vdW  Elec       q    Type
                         _______ _______ _______ _____ _____    ______ ____

>  <TORSDO>
F 4

$$$$
=
 OpenBabel11062418513D

 37 41  0  0  1  0  0  0  0  0999 V2000
  193.2430  173.0660  142.7820 C   0  0  0  0  0  2  0  0  0  0  0  0
  190.6030  172.4020  142.0080 O   0  0  0  0  0  0  0  0  0  0  0  0
  191.4840  171.2990  142.1990 C   0  0  0  0  0  2  0  0  0  0  0  0
  188.4230  174.0460  139.5070 C   0  0  0  0  0  1  0  0  0  0  0  0
  191.4070  175.7240  144.3880 N   0  0  0  0  0  0  0  0  0  0  0  0
  193.4110  174.3030  144.9150 C   0  0  0  0  0  0  0  0  0  0  0  0
  192.7070  175.5340  144.9840 C   0  0  0  0  0  0  0  0  0  0  0  0
  190.2480  172.8980  140.7510 C   0  0  0  0  0  0  0  0  0  0  0  0
  189.4210  174.1520  140.6460 C   0  0  2  0  0  3  0  0  0  0  0  0
  190.5490  176.8430  144.7270 C   0  0  0  0  0  2  0  0  0  0  0  0
  195.2220  175.2750  146.1460 N   0  0  0  0  0  0  0  0  0  0  0  0
  194.5650  176.4590  146.2400 C   0  0  0  0  0  3  0  0  0  0  0  0
  189.7800  175.6510  142.8150 C   0  0  1  0  0  3  0  0  0  0  0  0
  190.9330  174.9300  143.3360 N   0  0  0  0  0  2  0  0  0  0  0  0
  193.3040  176.6060  145.6650 C   0  0  0  0  0  3  0  0  0  0  0  0
  194.6760  174.2090  145.5050 C   0  0  0  0  0  3  0  0  0  0  0  0
  192.9600  171.7100  142.1340 C   0  0  1  0  0  3  0  0  0  0  0  0
  188.5110  174.4950  142.1890 S   0  0  0  0  0  0  0  0  0  0  0  0
  190.6630  172.3330  139.7030 O   0  0  0  0  0  0  0  0  0  0  0  0
  189.3070  176.6350  143.8960 C   0  0  1  0  0  3  0  0  0  0  0  0
  192.8690  173.0770  144.2560 C   0  0  0  0  0  2  0  0  0  0  0  0
  193.4480  171.6910  140.6930 C   0  0  0  0  0  2  0  0  0  0  0  0
  194.3840  173.7110  139.5220 N   0  0  0  0  0  0  0  0  0  0  0  0
  193.8640  173.1650  138.2700 C   0  0  0  0  0  1  0  0  0  0  0  0
  196.8230  173.3690  139.5960 C   0  0  0  0  0  2  0  0  0  0  0  0
  195.8270  175.5690  139.8940 N   0  0  0  0  0  1  0  0  0  0  0  0
  195.6810  174.3010  139.2010 C   0  0  2  0  0  3  0  0  0  0  0  0
  194.6310  172.6420  140.4970 C   0  0  2  0  0  3  0  0  0  0  0  0
  196.1350  171.7570  140.0400 S   0  0  0  0  0  0  0  0  0  0  0  0
  188.2290  176.0570  144.8060 C   0  0  0  0  0  2  0  0  0  0  0  0
  185.9240  178.7490  144.6670 C   0  0  0  0  0  0  0  0  0  0  0  0
  185.3310  178.0060  145.6660 C   0  0  0  0  0  0  0  0  0  0  0  0
  186.1260  176.8920  145.8350 C   0  0  0  0  0  3  0  0  0  0  0  0
  185.4470  180.0500  144.1250 C   0  0  0  0  0  1  0  0  0  0  0  0
  187.1360  177.0050  144.9490 N   0  0  0  0  0  0  0  0  0  0  0  0
  187.0320  178.1190  144.2420 N   0  0  0  0  0  0  0  0  0  0  0  0
  184.0910  178.3310  146.4210 C   0  0  0  0  0  1  0  0  0  0  0  0
  1 21  1  0  0  0  0
  2  3  1  0  0  0  0
  5 10  1  0  0  0  0
  5  7  1  0  0  0  0
  6  7  2  0  0  0  0
  6 16  1  0  0  0  0
  7 15  1  0  0  0  0
  8  2  1  0  0  0  0
  9  4  1  6  0  0  0
  9  8  1  0  0  0  0
  9 18  1  0  0  0  0
 11 12  1  0  0  0  0
 13 18  1  1  0  0  0
 13 14  1  0  0  0  0
 13 20  1  0  0  0  0
 14  5  1  0  0  0  0
 15 12  2  0  0  0  0
 16 11  2  0  0  0  0
 17 22  1  6  0  0  0
 17  3  1  0  0  0  0
 17  1  1  0  0  0  0
 19  8  2  0  0  0  0
 20 10  1  0  0  0  0
 20 30  1  1  0  0  0
 21  6  1  0  0  0  0
 23 28  1  0  0  0  0
 24 23  1  0  0  0  0
 25 29  1  0  0  0  0
 27 23  1  0  0  0  0
 27 25  1  0  0  0  0
 27 26  1  1  0  0  0
 28 22  1  6  0  0  0
 29 28  1  0  0  0  0
 30 35  1  0  0  0  0
 31 32  1  0  0  0  0
 32 33  2  0  0  0  0
 32 37  1  0  0  0  0
 34 31  1  0  0  0  0
 35 33  1  0  0  0  0
 36 31  2  0  0  0  0
 36 35  1  0  0  0  0
M  END
>  <MODEL>
2

>  <REMARK>
 VINA RESULT:      -7.7      2.737      5.211
  Name = 
  4 active torsions:
  status: ('A' for Active; 'I' for Inactive)
    1  A    between atoms: N_25  and  C_37
    2  A    between atoms: C_27  and  C_29
    3  A    between atoms: C_28  and  C_29
    4  A    between atoms: C_34  and  C_37
                            x       y       z     vdW  Elec       q    Type
                         _______ _______ _______ _____ _____    ______ ____

>  <TORSDO>
F 4

$$$$
=
 OpenBabel11062418513D

 37 41  0  0  1  0  0  0  0  0999 V2000
  194.4850  174.1710  142.1620 C   0  0  0  0  0  2  0  0  0  0  0  0
  194.0110  176.3900  143.8530 O   0  0  0  0  0  0  0  0  0  0  0  0
  195.2430  176.4130  143.1380 C   0  0  0  0  0  2  0  0  0  0  0  0
  192.5700  176.4580  147.2630 C   0  0  0  0  0  1  0  0  0  0  0  0
  190.8940  174.4200  141.9170 N   0  0  0  0  0  0  0  0  0  0  0  0
  192.8010  173.8540  140.3810 C   0  0  0  0  0  0  0  0  0  0  0  0
  191.4580  173.6860  140.8100 C   0  0  0  0  0  0  0  0  0  0  0  0
  193.9080  176.0510  145.2050 C   0  0  0  0  0  0  0  0  0  0  0  0
  192.5520  175.9190  145.8440 C   0  0  2  0  0  3  0  0  0  0  0  0
  189.4650  174.5040  142.1510 C   0  0  0  0  0  2  0  0  0  0  0  0
  192.4590  172.2050  138.6780 N   0  0  0  0  0  0  0  0  0  0  0  0
  191.1670  172.0340  139.0570 C   0  0  0  0  0  3  0  0  0  0  0  0
  190.7390  175.3110  143.9920 C   0  0  1  0  0  3  0  0  0  0  0  0
  191.6800  174.9840  142.9300 N   0  0  0  0  0  2  0  0  0  0  0  0
  190.6480  172.7690  140.1220 C   0  0  0  0  0  3  0  0  0  0  0  0
  193.2730  173.0890  139.3100 C   0  0  0  0  0  3  0  0  0  0  0  0
  195.6600  175.0220  142.6450 C   0  0  1  0  0  3  0  0  0  0  0  0
  191.2680  176.8070  144.9000 S   0  0  0  0  0  0  0  0  0  0  0  0
  194.9450  175.7990  145.8780 O   0  0  0  0  0  0  0  0  0  0  0  0
  189.3320  175.3680  143.3800 C   0  0  1  0  0  3  0  0  0  0  0  0
  193.7510  174.8260  141.0030 C   0  0  0  0  0  2  0  0  0  0  0  0
  196.4430  174.2940  143.7260 C   0  0  0  0  0  2  0  0  0  0  0  0
  195.6870  172.4600  145.2720 N   0  0  0  0  0  0  0  0  0  0  0  0
  196.8160  172.7900  146.1380 C   0  0  0  0  0  1  0  0  0  0  0  0
  196.1970  170.3890  144.0390 C   0  0  0  0  0  2  0  0  0  0  0  0
  194.1740  170.6220  145.3710 N   0  0  0  0  0  1  0  0  0  0  0  0
  195.5730  171.0040  145.2880 C   0  0  2  0  0  3  0  0  0  0  0  0
  195.9580  172.8510  143.8840 C   0  0  2  0  0  3  0  0  0  0  0  0
  197.1080  171.6720  143.1480 S   0  0  0  0  0  0  0  0  0  0  0  0
  188.9300  176.7660  142.9250 C   0  0  0  0  0  2  0  0  0  0  0  0
  186.1010  178.4160  144.2890 C   0  0  0  0  0  0  0  0  0  0  0  0
  186.2270  177.4000  145.2130 C   0  0  0  0  0  0  0  0  0  0  0  0
  187.3080  176.6470  144.8060 C   0  0  0  0  0  3  0  0  0  0  0  0
  185.0830  179.5010  144.2950 C   0  0  0  0  0  1  0  0  0  0  0  0
  187.7720  177.2220  143.6780 N   0  0  0  0  0  0  0  0  0  0  0  0
  187.0600  178.2910  143.3570 N   0  0  0  0  0  0  0  0  0  0  0  0
  185.3820  177.1590  146.4140 C   0  0  0  0  0  1  0  0  0  0  0  0
  1 17  1  0  0  0  0
  2  8  1  0  0  0  0
  3  2  1  0  0  0  0
  5 10  1  0  0  0  0
  5 14  1  0  0  0  0
  6  7  1  0  0  0  0
  6 21  1  0  0  0  0
  7  5  1  0  0  0  0
  8  9  1  0  0  0  0
  8 19  2  0  0  0  0
  9  4  1  1  0  0  0
 10 20  1  0  0  0  0
 11 12  2  0  0  0  0
 11 16  1  0  0  0  0
 12 15  1  0  0  0  0
 13 14  1  6  0  0  0
 13 18  1  0  0  0  0
 15  7  2  0  0  0  0
 16  6  2  0  0  0  0
 17  3  1  0  0  0  0
 17 22  1  1  0  0  0
 18  9  1  0  0  0  0
 20 30  1  6  0  0  0
 20 13  1  0  0  0  0
 21  1  1  0  0  0  0
 23 27  1  0  0  0  0
 23 24  1  0  0  0  0
 25 27  1  0  0  0  0
 27 26  1  6  0  0  0
 28 22  1  1  0  0  0
 28 23  1  0  0  0  0
 29 28  1  0  0  0  0
 29 25  1  0  0  0  0
 30 35  1  0  0  0  0
 31 34  1  0  0  0  0
 31 32  1  0  0  0  0
 32 37  1  0  0  0  0
 33 32  2  0  0  0  0
 35 33  1  0  0  0  0
 36 35  1  0  0  0  0
 36 31  2  0  0  0  0
M  END
>  <MODEL>
3

>  <REMARK>
 VINA RESULT:      -7.6      1.597      1.914
  Name = 
  4 active torsions:
  status: ('A' for Active; 'I' for Inactive)
    1  A    between atoms: N_25  and  C_37
    2  A    between atoms: C_27  and  C_29
    3  A    between atoms: C_28  and  C_29
    4  A    between atoms: C_34  and  C_37
                            x       y       z     vdW  Elec       q    Type
                         _______ _______ _______ _____ _____    ______ ____

>  <TORSDO>
F 4

$$$$
=
 OpenBabel11062418513D

 37 41  0  0  1  0  0  0  0  0999 V2000
  194.0460  173.8610  141.7600 C   0  0  0  0  0  2  0  0  0  0  0  0
  194.2700  176.2550  143.2520 O   0  0  0  0  0  0  0  0  0  0  0  0
  195.2610  176.0620  142.2480 C   0  0  0  0  0  2  0  0  0  0  0  0
  193.8110  176.7890  146.8880 C   0  0  0  0  0  1  0  0  0  0  0  0
  190.5650  174.5450  142.4190 N   0  0  0  0  0  0  0  0  0  0  0  0
  191.9220  173.6150  140.5200 C   0  0  0  0  0  0  0  0  0  0  0  0
  190.7340  173.6570  141.2950 C   0  0  0  0  0  0  0  0  0  0  0  0
  194.5000  176.0460  144.6150 C   0  0  0  0  0  0  0  0  0  0  0  0
  193.3590  176.1410  145.5920 C   0  0  2  0  0  3  0  0  0  0  0  0
  189.2680  174.8300  143.0010 C   0  0  0  0  0  2  0  0  0  0  0  0
  190.9710  171.8880  139.1600 N   0  0  0  0  0  0  0  0  0  0  0  0
  189.8180  171.9160  139.8750 C   0  0  0  0  0  3  0  0  0  0  0  0
  191.0640  175.6180  144.3490 C   0  0  1  0  0  3  0  0  0  0  0  0
  191.6470  175.0860  143.1250 N   0  0  0  0  0  2  0  0  0  0  0  0
  189.6810  172.7960  140.9470 C   0  0  0  0  0  3  0  0  0  0  0  0
  192.0100  172.7100  139.4570 C   0  0  0  0  0  3  0  0  0  0  0  0
  195.3870  174.5930  141.8250 C   0  0  1  0  0  3  0  0  0  0  0  0
  191.9650  177.1040  144.9140 S   0  0  0  0  0  0  0  0  0  0  0  0
  195.6480  175.7200  145.0240 O   0  0  0  0  0  0  0  0  0  0  0  0
  189.5580  175.8030  144.1170 C   0  0  1  0  0  3  0  0  0  0  0  0
  193.0980  174.5060  140.7610 C   0  0  0  0  0  2  0  0  0  0  0  0
  196.3540  173.8620  142.7440 C   0  0  0  0  0  2  0  0  0  0  0  0
  195.8300  172.3240  144.6640 N   0  0  0  0  0  0  0  0  0  0  0  0
  197.1760  172.5800  145.1720 C   0  0  0  0  0  1  0  0  0  0  0  0
  195.7700  170.0850  143.6380 C   0  0  0  0  0  2  0  0  0  0  0  0
  194.2030  170.7390  145.3820 N   0  0  0  0  0  1  0  0  0  0  0  0
  195.5650  170.9080  144.9070 C   0  0  2  0  0  3  0  0  0  0  0  0
  195.7710  172.5270  143.2120 C   0  0  2  0  0  3  0  0  0  0  0  0
  196.5520  171.1270  142.3840 S   0  0  0  0  0  0  0  0  0  0  0  0
  189.1910  177.1990  143.6240 C   0  0  0  0  0  2  0  0  0  0  0  0
  186.6300  178.0790  145.9140 C   0  0  0  0  0  0  0  0  0  0  0  0
  186.0590  178.5590  144.7540 C   0  0  0  0  0  0  0  0  0  0  0  0
  186.9620  178.2920  143.7470 C   0  0  0  0  0  3  0  0  0  0  0  0
  186.0390  178.1230  147.2790 C   0  0  0  0  0  1  0  0  0  0  0  0
  188.0150  177.6840  144.3290 N   0  0  0  0  0  0  0  0  0  0  0  0
  187.8290  177.5440  145.6320 N   0  0  0  0  0  0  0  0  0  0  0  0
  184.7360  179.2230  144.6040 C   0  0  0  0  0  1  0  0  0  0  0  0
  1 17  1  0  0  0  0
  2  8  1  0  0  0  0
  3  2  1  0  0  0  0
  5 10  1  0  0  0  0
  5 14  1  0  0  0  0
  6 21  1  0  0  0  0
  6  7  1  0  0  0  0
  7  5  1  0  0  0  0
  8 19  2  0  0  0  0
  8  9  1  0  0  0  0
  9  4  1  1  0  0  0
 10 20  1  0  0  0  0
 11 16  1  0  0  0  0
 11 12  2  0  0  0  0
 12 15  1  0  0  0  0
 13 14  1  6  0  0  0
 13 18  1  0  0  0  0
 15  7  2  0  0  0  0
 16  6  2  0  0  0  0
 17  3  1  0  0  0  0
 17 22  1  1  0  0  0
 18  9  1  0  0  0  0
 20 30  1  6  0  0  0
 20 13  1  0  0  0  0
 21  1  1  0  0  0  0
 23 27  1  0  0  0  0
 23 24  1  0  0  0  0
 25 27  1  0  0  0  0
 27 26  1  6  0  0  0
 28 22  1  1  0  0  0
 28 23  1  0  0  0  0
 29 28  1  0  0  0  0
 29 25  1  0  0  0  0
 30 35  1  0  0  0  0
 31 34  1  0  0  0  0
 32 31  1  0  0  0  0
 33 35  1  0  0  0  0
 33 32  2  0  0  0  0
 35 36  1  0  0  0  0
 36 31  2  0  0  0  0
 37 32  1  0  0  0  0
M  END
>  <MODEL>
4

>  <REMARK>
 VINA RESULT:      -7.6      1.785      2.112
  Name = 
  4 active torsions:
  status: ('A' for Active; 'I' for Inactive)
    1  A    between atoms: N_25  and  C_37
    2  A    between atoms: C_27  and  C_29
    3  A    between atoms: C_28  and  C_29
    4  A    between atoms: C_34  and  C_37
                            x       y       z     vdW  Elec       q    Type
                         _______ _______ _______ _____ _____    ______ ____

>  <TORSDO>
F 4

$$$$
=
 OpenBabel11062418513D

 37 41  0  0  1  0  0  0  0  0999 V2000
  192.1990  173.6670  144.9980 C   0  0  0  0  0  2  0  0  0  0  0  0
  190.8960  172.4630  142.7920 O   0  0  0  0  0  0  0  0  0  0  0  0
  191.4310  171.5620  143.7580 C   0  0  0  0  0  2  0  0  0  0  0  0
  191.0450  173.3850  139.2090 C   0  0  0  0  0  1  0  0  0  0  0  0
  189.6610  176.1380  144.3130 N   0  0  0  0  0  0  0  0  0  0  0  0
  190.7690  175.1640  146.3470 C   0  0  0  0  0  0  0  0  0  0  0  0
  190.1720  176.2520  145.6570 C   0  0  0  0  0  0  0  0  0  0  0  0
  191.5090  172.7330  141.5650 C   0  0  0  0  0  0  0  0  0  0  0  0
  190.9470  173.8010  140.6660 C   0  0  2  0  0  3  0  0  0  0  0  0
  188.7700  177.1230  143.7300 C   0  0  0  0  0  2  0  0  0  0  0  0
  191.1490  176.5790  148.2420 N   0  0  0  0  0  0  0  0  0  0  0  0
  190.5710  177.6330  147.6120 C   0  0  0  0  0  3  0  0  0  0  0  0
  189.6170  175.5920  142.1160 C   0  0  1  0  0  3  0  0  0  0  0  0
  190.0970  175.1520  143.4190 N   0  0  0  0  0  2  0  0  0  0  0  0
  190.0740  177.4860  146.3170 C   0  0  0  0  0  3  0  0  0  0  0  0
  191.2550  175.3650  147.6430 C   0  0  0  0  0  3  0  0  0  0  0  0
  192.5080  172.2140  144.6340 C   0  0  1  0  0  3  0  0  0  0  0  0
  189.2020  174.1650  141.0530 S   0  0  0  0  0  0  0  0  0  0  0  0
  192.5640  172.1260  141.2340 O   0  0  0  0  0  0  0  0  0  0  0  0
  188.4820  176.6010  142.3440 C   0  0  1  0  0  3  0  0  0  0  0  0
  190.8960  173.7910  145.7710 C   0  0  0  0  0  2  0  0  0  0  0  0
  193.8680  172.1060  143.9620 C   0  0  0  0  0  2  0  0  0  0  0  0
  195.2690  174.0070  143.0970 N   0  0  0  0  0  0  0  0  0  0  0  0
  195.9060  173.0590  142.1850 C   0  0  0  0  0  1  0  0  0  0  0  0
  196.8160  174.5030  144.9490 C   0  0  0  0  0  2  0  0  0  0  0  0
  195.8380  176.2670  143.5890 N   0  0  0  0  0  1  0  0  0  0  0  0
  196.3280  174.9010  143.5590 C   0  0  2  0  0  3  0  0  0  0  0  0
  194.7420  173.3210  144.2820 C   0  0  2  0  0  3  0  0  0  0  0  0
  196.1090  172.8950  145.3790 S   0  0  0  0  0  0  0  0  0  0  0  0
  187.1000  175.9590  142.3660 C   0  0  0  0  0  2  0  0  0  0  0  0
  185.2200  177.2550  145.0800 C   0  0  0  0  0  0  0  0  0  0  0  0
  184.7270  178.0560  144.0720 C   0  0  0  0  0  0  0  0  0  0  0  0
  185.3840  177.6690  142.9230 C   0  0  0  0  0  3  0  0  0  0  0  0
  184.8160  177.2810  146.5130 C   0  0  0  0  0  1  0  0  0  0  0  0
  186.2280  176.6810  143.2800 N   0  0  0  0  0  0  0  0  0  0  0  0
  186.1380  176.4160  144.5730 N   0  0  0  0  0  0  0  0  0  0  0  0
  183.6910  179.1190  144.1850 C   0  0  0  0  0  1  0  0  0  0  0  0
  1 21  1  0  0  0  0
  2  3  1  0  0  0  0
  3 17  1  0  0  0  0
  5  7  1  0  0  0  0
  6 16  1  0  0  0  0
  7 15  1  0  0  0  0
  7  6  2  0  0  0  0
  8  2  1  0  0  0  0
  9  4  1  6  0  0  0
  9 18  1  0  0  0  0
  9  8  1  0  0  0  0
 10  5  1  0  0  0  0
 12 11  1  0  0  0  0
 13 18  1  6  0  0  0
 13 20  1  0  0  0  0
 13 14  1  0  0  0  0
 14  5  1  0  0  0  0
 15 12  2  0  0  0  0
 16 11  2  0  0  0  0
 17 22  1  6  0  0  0
 17  1  1  0  0  0  0
 19  8  2  0  0  0  0
 20 30  1  1  0  0  0
 20 10  1  0  0  0  0
 21  6  1  0  0  0  0
 23 27  1  0  0  0  0
 23 28  1  0  0  0  0
 24 23  1  0  0  0  0
 25 29  1  0  0  0  0
 27 26  1  1  0  0  0
 27 25  1  0  0  0  0
 28 22  1  6  0  0  0
 28 29  1  0  0  0  0
 30 35  1  0  0  0  0
 31 34  1  0  0  0  0
 32 37  1  0  0  0  0
 32 31  1  0  0  0  0
 33 35  1  0  0  0  0
 33 32  2  0  0  0  0
 35 36  1  0  0  0  0
 36 31  2  0  0  0  0
M  END
>  <MODEL>
5

>  <REMARK>
 VINA RESULT:      -7.3      2.445      4.760
  Name = 
  4 active torsions:
  status: ('A' for Active; 'I' for Inactive)
    1  A    between atoms: N_25  and  C_37
    2  A    between atoms: C_27  and  C_29
    3  A    between atoms: C_28  and  C_29
    4  A    between atoms: C_34  and  C_37
                            x       y       z     vdW  Elec       q    Type
                         _______ _______ _______ _____ _____    ______ ____

>  <TORSDO>
F 4

$$$$
=
 OpenBabel11062418513D

 37 41  0  0  1  0  0  0  0  0999 V2000
  188.8050  177.1550  144.5050 C   0  0  0  0  0  2  0  0  0  0  0  0
  189.3220  176.5330  141.7930 O   0  0  0  0  0  0  0  0  0  0  0  0
  188.9320  177.8790  142.0520 C   0  0  0  0  0  2  0  0  0  0  0  0
  188.3920  173.5040  139.8760 C   0  0  0  0  0  1  0  0  0  0  0  0
  191.4000  174.6770  144.8880 N   0  0  0  0  0  0  0  0  0  0  0  0
  190.7250  176.8150  146.0230 C   0  0  0  0  0  0  0  0  0  0  0  0
  191.2700  175.5050  146.0620 C   0  0  0  0  0  0  0  0  0  0  0  0
  188.4590  175.5670  141.2660 C   0  0  0  0  0  0  0  0  0  0  0  0
  188.9150  174.1370  141.1530 C   0  0  2  0  0  3  0  0  0  0  0  0
  192.2400  173.4960  144.8540 C   0  0  0  0  0  2  0  0  0  0  0  0
  191.0400  177.0130  148.3900 N   0  0  0  0  0  0  0  0  0  0  0  0
  191.5790  175.7690  148.4550 C   0  0  0  0  0  3  0  0  0  0  0  0
  190.8060  173.6490  142.9610 C   0  0  1  0  0  3  0  0  0  0  0  0
  190.6180  174.8640  143.7410 N   0  0  0  0  0  2  0  0  0  0  0  0
  191.7030  175.0000  147.2990 C   0  0  0  0  0  3  0  0  0  0  0  0
  190.6190  177.5440  147.2130 C   0  0  0  0  0  3  0  0  0  0  0  0
  188.2160  178.0310  143.4000 C   0  0  1  0  0  3  0  0  0  0  0  0
  190.7340  174.0020  141.1690 S   0  0  0  0  0  0  0  0  0  0  0  0
  187.2810  175.8770  140.9380 O   0  0  0  0  0  0  0  0  0  0  0  0
  192.0890  172.9630  143.4510 C   0  0  1  0  0  3  0  0  0  0  0  0
  190.2670  177.4820  144.7670 C   0  0  0  0  0  2  0  0  0  0  0  0
  186.7270  177.7630  143.2370 C   0  0  0  0  0  2  0  0  0  0  0  0
  185.9800  177.7700  145.6380 N   0  0  0  0  0  0  0  0  0  0  0  0
  185.6810  176.3460  145.4980 C   0  0  0  0  0  1  0  0  0  0  0  0
  183.8700  179.0420  145.6060 C   0  0  0  0  0  2  0  0  0  0  0  0
  185.4760  179.2680  147.4210 N   0  0  0  0  0  1  0  0  0  0  0  0
  184.9140  178.3320  146.4630 C   0  0  2  0  0  3  0  0  0  0  0  0
  185.9170  178.4490  144.3390 C   0  0  2  0  0  3  0  0  0  0  0  0
  184.1900  178.6670  143.8660 S   0  0  0  0  0  0  0  0  0  0  0  0
  193.3290  173.3710  142.6630 C   0  0  0  0  0  2  0  0  0  0  0  0
  196.3660  173.4480  144.4940 C   0  0  0  0  0  0  0  0  0  0  0  0
  196.1210  172.0910  144.5360 C   0  0  0  0  0  0  0  0  0  0  0  0
  194.9370  171.8970  143.8550 C   0  0  0  0  0  3  0  0  0  0  0  0
  197.5330  174.1580  145.0840 C   0  0  0  0  0  1  0  0  0  0  0  0
  194.5260  173.1150  143.4480 N   0  0  0  0  0  0  0  0  0  0  0  0
  195.3770  174.0580  143.8200 N   0  0  0  0  0  0  0  0  0  0  0  0
  196.9580  171.0390  145.1740 C   0  0  0  0  0  1  0  0  0  0  0  0
  1 21  1  0  0  0  0
  2  3  1  0  0  0  0
  3 17  1  0  0  0  0
  5  7  1  0  0  0  0
  6  7  2  0  0  0  0
  6 16  1  0  0  0  0
  7 15  1  0  0  0  0
  8  2  1  0  0  0  0
  9  4  1  6  0  0  0
  9 18  1  0  0  0  0
  9  8  1  0  0  0  0
 10  5  1  0  0  0  0
 11 12  1  0  0  0  0
 13 18  1  6  0  0  0
 13 20  1  0  0  0  0
 13 14  1  0  0  0  0
 14  5  1  0  0  0  0
 15 12  2  0  0  0  0
 16 11  2  0  0  0  0
 17 22  1  6  0  0  0
 17  1  1  0  0  0  0
 19  8  2  0  0  0  0
 20 30  1  6  0  0  0
 20 10  1  0  0  0  0
 21  6  1  0  0  0  0
 23 27  1  0  0  0  0
 24 23  1  0  0  0  0
 25 27  1  0  0  0  0
 27 26  1  1  0  0  0
 28 22  1  6  0  0  0
 28 23  1  0  0  0  0
 29 28  1  0  0  0  0
 29 25  1  0  0  0  0
 30 35  1  0  0  0  0
 31 32  1  0  0  0  0
 31 34  1  0  0  0  0
 32 37  1  0  0  0  0
 33 32  2  0  0  0  0
 35 36  1  0  0  0  0
 35 33  1  0  0  0  0
 36 31  2  0  0  0  0
M  END
>  <MODEL>
6

>  <REMARK>
 VINA RESULT:      -7.0      2.748      9.565
  Name = 
  4 active torsions:
  status: ('A' for Active; 'I' for Inactive)
    1  A    between atoms: N_25  and  C_37
    2  A    between atoms: C_27  and  C_29
    3  A    between atoms: C_28  and  C_29
    4  A    between atoms: C_34  and  C_37
                            x       y       z     vdW  Elec       q    Type
                         _______ _______ _______ _____ _____    ______ ____

>  <TORSDO>
F 4

$$$$
=
 OpenBabel11062418513D

 37 41  0  0  1  0  0  0  0  0999 V2000
  193.0520  172.7770  142.7850 C   0  0  0  0  0  2  0  0  0  0  0  0
  190.3280  172.3500  142.1470 O   0  0  0  0  0  0  0  0  0  0  0  0
  191.1270  171.1750  142.2540 C   0  0  0  0  0  2  0  0  0  0  0  0
  188.1530  174.2440  139.8250 C   0  0  0  0  0  1  0  0  0  0  0  0
  191.5280  175.5170  144.5710 N   0  0  0  0  0  0  0  0  0  0  0  0
  193.4370  173.9250  144.9400 C   0  0  0  0  0  0  0  0  0  0  0  0
  192.8390  175.2040  145.0850 C   0  0  0  0  0  0  0  0  0  0  0  0
  189.9450  172.9150  140.9270 C   0  0  0  0  0  0  0  0  0  0  0  0
  189.2180  174.2330  140.9070 C   0  0  2  0  0  3  0  0  0  0  0  0
  190.7830  176.6880  144.9910 C   0  0  0  0  0  2  0  0  0  0  0  0
  195.3860  174.7090  146.0910 N   0  0  0  0  0  0  0  0  0  0  0  0
  194.8330  175.9370  146.2570 C   0  0  0  0  0  3  0  0  0  0  0  0
  189.8160  175.6250  143.0940 C   0  0  1  0  0  3  0  0  0  0  0  0
  190.9340  174.7980  143.5260 N   0  0  0  0  0  2  0  0  0  0  0  0
  193.5580  176.2030  145.7610 C   0  0  0  0  0  3  0  0  0  0  0  0
  194.7210  173.7120  145.4520 C   0  0  0  0  0  3  0  0  0  0  0  0
  192.6250  171.4710  142.1150 C   0  0  1  0  0  3  0  0  0  0  0  0
  188.4250  174.5940  142.5090 S   0  0  0  0  0  0  0  0  0  0  0  0
  190.2550  172.3540  139.8410 O   0  0  0  0  0  0  0  0  0  0  0  0
  189.4850  176.6060  144.2280 C   0  0  1  0  0  3  0  0  0  0  0  0
  192.7620  172.7680  144.2780 C   0  0  0  0  0  2  0  0  0  0  0  0
  193.0290  171.4610  140.6490 C   0  0  0  0  0  2  0  0  0  0  0  0
  194.2400  169.7740  139.2310 N   0  0  0  0  0  0  0  0  0  0  0  0
  193.0070  168.9900  139.1970 C   0  0  0  0  0  1  0  0  0  0  0  0
  195.8260  168.7100  140.7890 C   0  0  0  0  0  2  0  0  0  0  0  0
  196.4300  169.2070  138.4840 N   0  0  0  0  0  1  0  0  0  0  0  0
  195.3320  168.8100  139.3480 C   0  0  2  0  0  3  0  0  0  0  0  0
  194.2890  170.6220  140.4270 C   0  0  2  0  0  3  0  0  0  0  0  0
  194.6770  169.6010  141.8640 S   0  0  0  0  0  0  0  0  0  0  0  0
  188.4160  176.0850  145.1820 C   0  0  0  0  0  2  0  0  0  0  0  0
  185.9850  178.6200  144.6850 C   0  0  0  0  0  0  0  0  0  0  0  0
  185.4070  177.9700  145.7550 C   0  0  0  0  0  0  0  0  0  0  0  0
  186.2520  176.9260  146.0690 C   0  0  0  0  0  3  0  0  0  0  0  0
  185.4570  179.8220  143.9840 C   0  0  0  0  0  1  0  0  0  0  0  0
  187.2740  176.9850  145.1930 N   0  0  0  0  0  0  0  0  0  0  0  0
  187.1320  178.0020  144.3570 N   0  0  0  0  0  0  0  0  0  0  0  0
  184.1350  178.3190  146.4460 C   0  0  0  0  0  1  0  0  0  0  0  0
  1 21  1  0  0  0  0
  2  3  1  0  0  0  0
  5 10  1  0  0  0  0
  5  7  1  0  0  0  0
  6  7  2  0  0  0  0
  6 16  1  0  0  0  0
  7 15  1  0  0  0  0
  8  2  1  0  0  0  0
  9  4  1  6  0  0  0
  9  8  1  0  0  0  0
  9 18  1  0  0  0  0
 11 12  1  0  0  0  0
 13 18  1  1  0  0  0
 13 14  1  0  0  0  0
 13 20  1  0  0  0  0
 14  5  1  0  0  0  0
 15 12  2  0  0  0  0
 16 11  2  0  0  0  0
 17 22  1  6  0  0  0
 17  3  1  0  0  0  0
 17  1  1  0  0  0  0
 19  8  2  0  0  0  0
 20 10  1  0  0  0  0
 20 30  1  1  0  0  0
 21  6  1  0  0  0  0
 23 27  1  0  0  0  0
 23 28  1  0  0  0  0
 24 23  1  0  0  0  0
 25 29  1  0  0  0  0
 27 26  1  6  0  0  0
 27 25  1  0  0  0  0
 28 22  1  1  0  0  0
 28 29  1  0  0  0  0
 30 35  1  0  0  0  0
 31 32  1  0  0  0  0
 32 33  2  0  0  0  0
 32 37  1  0  0  0  0
 34 31  1  0  0  0  0
 35 33  1  0  0  0  0
 36 31  2  0  0  0  0
 36 35  1  0  0  0  0
M  END
>  <MODEL>
7

>  <REMARK>
 VINA RESULT:      -7.0      2.844      5.290
  Name = 
  4 active torsions:
  status: ('A' for Active; 'I' for Inactive)
    1  A    between atoms: N_25  and  C_37
    2  A    between atoms: C_27  and  C_29
    3  A    between atoms: C_28  and  C_29
    4  A    between atoms: C_34  and  C_37
                            x       y       z     vdW  Elec       q    Type
                         _______ _______ _______ _____ _____    ______ ____

>  <TORSDO>
F 4

$$$$
=
 OpenBabel11062418513D

 37 41  0  0  1  0  0  0  0  0999 V2000
  189.1180  175.4560  142.1300 C   0  0  0  0  0  2  0  0  0  0  0  0
  190.0030  174.7490  144.7240 O   0  0  0  0  0  0  0  0  0  0  0  0
  188.6160  175.0540  144.6090 C   0  0  0  0  0  2  0  0  0  0  0  0
  193.1100  175.7400  146.4780 C   0  0  0  0  0  1  0  0  0  0  0  0
  191.7310  173.1070  141.3090 N   0  0  0  0  0  0  0  0  0  0  0  0
  189.4620  173.7100  140.4140 C   0  0  0  0  0  0  0  0  0  0  0  0
  190.7990  173.2750  140.2210 C   0  0  0  0  0  0  0  0  0  0  0  0
  190.9460  175.6350  145.2530 C   0  0  0  0  0  0  0  0  0  0  0  0
  192.4100  175.2850  145.2100 C   0  0  2  0  0  3  0  0  0  0  0  0
  192.9680  172.3630  141.1710 C   0  0  0  0  0  2  0  0  0  0  0  0
  189.0860  173.5920  138.0520 N   0  0  0  0  0  0  0  0  0  0  0  0
  190.3550  173.1610  137.8390 C   0  0  0  0  0  3  0  0  0  0  0  0
  192.8750  173.6060  143.1980 C   0  0  1  0  0  3  0  0  0  0  0  0
  191.5880  173.7660  142.5370 N   0  0  0  0  0  2  0  0  0  0  0  0
  191.2270  172.9950  138.9140 C   0  0  0  0  0  3  0  0  0  0  0  0
  188.6290  173.8650  139.3010 C   0  0  0  0  0  3  0  0  0  0  0  0
  188.2990  175.8730  143.3520 C   0  0  1  0  0  3  0  0  0  0  0  0
  192.6720  173.4910  145.0110 S   0  0  0  0  0  0  0  0  0  0  0  0
  190.5830  176.7510  145.7150 O   0  0  0  0  0  0  0  0  0  0  0  0
  193.6060  172.4290  142.5360 C   0  0  1  0  0  3  0  0  0  0  0  0
  188.8740  174.0020  141.7570 C   0  0  0  0  0  2  0  0  0  0  0  0
  188.4740  177.3580  143.6340 C   0  0  0  0  0  2  0  0  0  0  0  0
  186.6860  178.7500  144.7270 N   0  0  0  0  0  0  0  0  0  0  0  0
  186.7000  177.8050  145.8420 C   0  0  0  0  0  1  0  0  0  0  0  0
  184.6830  178.3400  143.3510 C   0  0  0  0  0  2  0  0  0  0  0  0
  185.1850  180.5400  144.2630 N   0  0  0  0  0  1  0  0  0  0  0  0
  185.2870  179.1150  144.5200 C   0  0  2  0  0  3  0  0  0  0  0  0
  187.1480  178.1080  143.4910 C   0  0  2  0  0  3  0  0  0  0  0  0
  185.8400  177.0440  142.8500 S   0  0  0  0  0  0  0  0  0  0  0  0
  193.3560  171.0960  143.2320 C   0  0  0  0  0  2  0  0  0  0  0  0
  196.4680  170.6430  144.8710 C   0  0  0  0  0  0  0  0  0  0  0  0
  195.6610  169.9390  145.7400 C   0  0  0  0  0  0  0  0  0  0  0  0
  194.3820  170.0320  145.2300 C   0  0  0  0  0  3  0  0  0  0  0  0
  197.9410  170.8300  144.9820 C   0  0  0  0  0  1  0  0  0  0  0  0
  194.4710  170.7730  144.1080 N   0  0  0  0  0  0  0  0  0  0  0  0
  195.7200  171.1440  143.8750 N   0  0  0  0  0  0  0  0  0  0  0  0
  196.0720  169.2160  146.9740 C   0  0  0  0  0  1  0  0  0  0  0  0
  1 17  1  0  0  0  0
  2  8  1  0  0  0  0
  3  2  1  0  0  0  0
  5 14  1  0  0  0  0
  6 21  1  0  0  0  0
  7  6  1  0  0  0  0
  7  5  1  0  0  0  0
  8 19  2  0  0  0  0
  9  8  1  0  0  0  0
  9  4  1  1  0  0  0
 10  5  1  0  0  0  0
 10 20  1  0  0  0  0
 11 16  1  0  0  0  0
 12 11  2  0  0  0  0
 12 15  1  0  0  0  0
 13 14  1  6  0  0  0
 13 18  1  0  0  0  0
 15  7  2  0  0  0  0
 16  6  2  0  0  0  0
 17 22  1  1  0  0  0
 17  3  1  0  0  0  0
 18  9  1  0  0  0  0
 20 13  1  0  0  0  0
 20 30  1  1  0  0  0
 21  1  1  0  0  0  0
 23 24  1  0  0  0  0
 25 27  1  0  0  0  0
 27 26  1  6  0  0  0
 27 23  1  0  0  0  0
 28 22  1  1  0  0  0
 28 23  1  0  0  0  0
 29 25  1  0  0  0  0
 29 28  1  0  0  0  0
 30 35  1  0  0  0  0
 31 34  1  0  0  0  0
 31 32  1  0  0  0  0
 32 37  1  0  0  0  0
 33 32  2  0  0  0  0
 35 33  1  0  0  0  0
 36 35  1  0  0  0  0
 36 31  2  0  0  0  0
M  END
>  <MODEL>
8

>  <REMARK>
 VINA RESULT:      -6.9      2.177      8.911
  Name = 
  4 active torsions:
  status: ('A' for Active; 'I' for Inactive)
    1  A    between atoms: N_25  and  C_37
    2  A    between atoms: C_27  and  C_29
    3  A    between atoms: C_28  and  C_29
    4  A    between atoms: C_34  and  C_37
                            x       y       z     vdW  Elec       q    Type
                         _______ _______ _______ _____ _____    ______ ____

>  <TORSDO>
F 4

$$$$
=
 OpenBabel11062418513D

 37 41  0  0  1  0  0  0  0  0999 V2000
  191.6360  173.5220  144.7800 C   0  0  0  0  0  2  0  0  0  0  0  0
  190.2800  172.4660  142.5310 O   0  0  0  0  0  0  0  0  0  0  0  0
  190.6920  171.5110  143.5050 C   0  0  0  0  0  2  0  0  0  0  0  0
  190.6240  173.3810  138.9590 C   0  0  0  0  0  1  0  0  0  0  0  0
  189.3840  176.2420  144.0410 N   0  0  0  0  0  0  0  0  0  0  0  0
  190.3270  175.1520  146.0990 C   0  0  0  0  0  0  0  0  0  0  0  0
  189.8650  176.2970  145.3990 C   0  0  0  0  0  0  0  0  0  0  0  0
  190.9520  172.6760  141.3230 C   0  0  0  0  0  0  0  0  0  0  0  0
  190.5280  173.8000  140.4150 C   0  0  2  0  0  3  0  0  0  0  0  0
  188.6150  177.3150  143.4400 C   0  0  0  0  0  2  0  0  0  0  0  0
  190.7960  176.5140  148.0120 N   0  0  0  0  0  0  0  0  0  0  0  0
  190.3460  177.6230  147.3740 C   0  0  0  0  0  3  0  0  0  0  0  0
  189.3460  175.7120  141.8400 C   0  0  1  0  0  3  0  0  0  0  0  0
  189.7420  175.2200  143.1520 N   0  0  0  0  0  2  0  0  0  0  0  0
  189.8750  177.5330  146.0650 C   0  0  0  0  0  3  0  0  0  0  0  0
  190.7940  175.2970  147.4090 C   0  0  0  0  0  3  0  0  0  0  0  0
  191.8050  172.0460  144.4150 C   0  0  1  0  0  3  0  0  0  0  0  0
  188.8190  174.3380  140.7560 S   0  0  0  0  0  0  0  0  0  0  0  0
  191.9490  171.9660  141.0170 O   0  0  0  0  0  0  0  0  0  0  0  0
  188.3150  176.8310  142.0430 C   0  0  1  0  0  3  0  0  0  0  0  0
  190.3300  173.7750  145.5180 C   0  0  0  0  0  2  0  0  0  0  0  0
  193.1650  171.8020  143.7810 C   0  0  0  0  0  2  0  0  0  0  0  0
  194.6550  171.0930  145.6790 N   0  0  0  0  0  0  0  0  0  0  0  0
  195.5020  172.2460  145.3810 C   0  0  0  0  0  1  0  0  0  0  0  0
  195.7550  169.0510  144.8470 C   0  0  0  0  0  2  0  0  0  0  0  0
  195.0320  169.2660  147.1600 N   0  0  0  0  0  1  0  0  0  0  0  0
  195.5610  170.0010  146.0260 C   0  0  2  0  0  3  0  0  0  0  0  0
  193.9100  170.6680  144.4890 C   0  0  2  0  0  3  0  0  0  0  0  0
  195.0250  169.7960  143.3700 S   0  0  0  0  0  0  0  0  0  0  0  0
  186.8740  176.3330  142.0220 C   0  0  0  0  0  2  0  0  0  0  0  0
  184.9030  178.2530  144.2600 C   0  0  0  0  0  0  0  0  0  0  0  0
  185.3230  177.2690  145.1300 C   0  0  0  0  0  0  0  0  0  0  0  0
  186.1150  176.4170  144.3870 C   0  0  0  0  0  3  0  0  0  0  0  0
  184.0300  179.4130  144.5870 C   0  0  0  0  0  1  0  0  0  0  0  0
  186.1310  176.9080  143.1320 N   0  0  0  0  0  0  0  0  0  0  0  0
  185.4110  178.0150  143.0400 N   0  0  0  0  0  0  0  0  0  0  0  0
  185.0050  177.1440  146.5780 C   0  0  0  0  0  1  0  0  0  0  0  0
  1 21  1  0  0  0  0
  2  3  1  0  0  0  0
  3 17  1  0  0  0  0
  5  7  1  0  0  0  0
  6 16  1  0  0  0  0
  7 15  1  0  0  0  0
  7  6  2  0  0  0  0
  8  2  1  0  0  0  0
  9  4  1  6  0  0  0
  9 18  1  0  0  0  0
  9  8  1  0  0  0  0
 10  5  1  0  0  0  0
 12 11  1  0  0  0  0
 13 18  1  6  0  0  0
 13 20  1  0  0  0  0
 13 14  1  0  0  0  0
 14  5  1  0  0  0  0
 15 12  2  0  0  0  0
 16 11  2  0  0  0  0
 17 22  1  6  0  0  0
 17  1  1  0  0  0  0
 19  8  2  0  0  0  0
 20 30  1  1  0  0  0
 20 10  1  0  0  0  0
 21  6  1  0  0  0  0
 23 27  1  0  0  0  0
 24 23  1  0  0  0  0
 25 27  1  0  0  0  0
 27 26  1  1  0  0  0
 28 22  1  6  0  0  0
 28 23  1  0  0  0  0
 29 28  1  0  0  0  0
 29 25  1  0  0  0  0
 30 35  1  0  0  0  0
 31 34  1  0  0  0  0
 31 32  1  0  0  0  0
 32 37  1  0  0  0  0
 33 32  2  0  0  0  0
 35 33  1  0  0  0  0
 36 35  1  0  0  0  0
 36 31  2  0  0  0  0
M  END
>  <MODEL>
9

>  <REMARK>
 VINA RESULT:      -6.8      2.581      4.763
  Name = 
  4 active torsions:
  status: ('A' for Active; 'I' for Inactive)
    1  A    between atoms: N_25  and  C_37
    2  A    between atoms: C_27  and  C_29
    3  A    between atoms: C_28  and  C_29
    4  A    between atoms: C_34  and  C_37
                            x       y       z     vdW  Elec       q    Type
                         _______ _______ _______ _____ _____    ______ ____

>  <TORSDO>
F 4

$$$$
