=
 OpenBabel11062419513D

 30 31  0  0  1  0  0  0  0  0999 V2000
  190.3850  174.0180  143.0360 C   0  0  0  0  0  0  0  0  0  0  0  0
  192.3110  174.8130  145.3360 C   0  0  0  0  0  2  0  0  0  0  0  0
  190.3180  174.1650  141.6320 C   0  0  0  0  0  0  0  0  0  0  0  0
  189.8290  174.8080  147.2630 O   0  0  0  0  0  0  0  0  0  0  0  0
  190.6950  175.6410  147.0370 C   0  0  0  0  0  0  0  0  0  0  0  0
  185.8540  179.4410  146.2950 O   0  0  0  0  0  0  0  0  0  0  0  0
  191.4480  173.3330  143.6410 O   0  0  0  0  0  0  0  0  0  0  0  0
  189.3870  174.5930  143.8340 C   0  0  0  0  0  3  0  0  0  0  0  0
  186.5680  177.1640  146.2110 C   0  0  0  0  0  2  0  0  0  0  0  0
  190.3680  177.1110  147.0570 C   0  0  1  0  0  3  0  0  0  0  0  0
  189.1810  177.7900  145.1070 O   0  0  0  0  0  0  0  0  0  0  0  0
  189.1040  177.4300  146.3110 C   0  0  0  0  0  0  0  0  0  0  0  0
  192.1040  175.1980  146.7930 C   0  0  0  0  0  2  0  0  0  0  0  0
  188.3350  175.5800  141.8850 C   0  0  0  0  0  0  0  0  0  0  0  0
  188.3770  175.3590  143.2640 C   0  0  0  0  0  3  0  0  0  0  0  0
  187.1200  176.4460  140.0430 O   0  0  0  0  0  0  0  0  0  0  0  0
  187.3320  176.4980  141.2840 C   0  0  0  0  0  0  0  0  0  0  0  0
  186.6440  177.4980  142.0530 N   0  0  0  0  0  0  0  0  0  0  0  0
  189.2960  174.9580  141.0770 C   0  0  0  0  0  3  0  0  0  0  0  0
  191.7290  173.4380  145.0350 C   0  0  0  0  0  2  0  0  0  0  0  0
  185.5700  179.5550  143.5580 O   0  0  0  0  0  0  0  0  0  0  0  0
  187.8270  177.2650  146.9400 N   0  0  0  0  0  2  0  0  0  0  0  0
  186.7470  177.5520  143.3190 N   0  0  0  0  0  0  0  0  0  0  0  0
  186.1790  178.4610  145.5740 C   0  0  0  0  0  0  0  0  0  0  0  0
  186.1300  178.5680  144.1080 C   0  0  0  0  0  0  0  0  0  0  0  0
  191.3110  173.5470  140.7250 C   0  0  0  0  0  0  0  0  0  0  0  0
  192.3690  174.1650  140.4310 O   0  0  0  0  0  1  0  0  0  0  0  0
  191.0980  172.2880  140.1770 O   0  0  0  0  0  0  0  0  0  0  0  0
  191.5310  177.7330  149.1710 C   0  0  0  0  0  2  0  0  0  0  0  0
  190.4140  177.6990  148.4410 C   0  0  0  0  0  3  0  0  0  0  0  0
  1  7  1  0  0  0  0
  1  8  1  0  0  0  0
  2 13  1  0  0  0  0
  3  1  2  0  0  0  0
  5 10  1  0  0  0  0
  5  4  2  0  0  0  0
  7 20  1  0  0  0  0
  9 22  1  0  0  0  0
 10 30  1  1  0  0  0
 11 12  2  0  0  0  0
 12 22  1  0  0  0  0
 12 10  1  0  0  0  0
 13  5  1  0  0  0  0
 14 15  1  0  0  0  0
 15  8  2  0  0  0  0
 16 17  2  0  0  0  0
 17 14  1  0  0  0  0
 17 18  1  0  0  0  0
 18 23  2  0  0  0  0
 19  3  1  0  0  0  0
 19 14  2  0  0  0  0
 20  2  1  0  0  0  0
 21 25  2  0  0  0  0
 23 25  1  0  0  0  0
 24  9  1  0  0  0  0
 24  6  2  0  0  0  0
 25 24  1  0  0  0  0
 26  3  1  0  0  0  0
 27 26  1  0  0  0  0
 28 26  2  0  0  0  0
 30 29  2  0  0  0  0
M  END
>  <MODEL>
1

>  <REMARK>
 VINA RESULT:      -7.5      0.000      0.000
  Name = 
  2 active torsions:
  status: ('A' for Active; 'I' for Inactive)
    1  A    between atoms: C_3  and  C_19
    2  A    between atoms: C_8  and  C_12
                            x       y       z     vdW  Elec       q    Type
                         _______ _______ _______ _____ _____    ______ ____

>  <TORSDO>
F 2

$$$$
=
 OpenBabel11062419513D

 30 31  0  0  1  0  0  0  0  0999 V2000
  188.7950  177.4070  146.3110 C   0  0  0  0  0  0  0  0  0  0  0  0
  190.8270  175.6390  147.8520 C   0  0  0  0  0  2  0  0  0  0  0  0
  187.3920  177.5660  146.2400 C   0  0  0  0  0  0  0  0  0  0  0  0
  192.8030  176.0030  145.4360 O   0  0  0  0  0  0  0  0  0  0  0  0
  192.3890  175.0120  146.0200 C   0  0  0  0  0  0  0  0  0  0  0  0
  191.0870  173.0480  140.2860 O   0  0  0  0  0  0  0  0  0  0  0  0
  189.4840  177.6120  147.5140 O   0  0  0  0  0  0  0  0  0  0  0  0
  189.4990  177.0100  145.1670 C   0  0  0  0  0  3  0  0  0  0  0  0
  191.4250  174.9790  141.6490 C   0  0  0  0  0  2  0  0  0  0  0  0
  192.1320  173.7320  145.2690 C   0  0  1  0  0  3  0  0  0  0  0  0
  190.1300  173.8340  143.9840 O   0  0  0  0  0  0  0  0  0  0  0  0
  191.3830  173.9570  143.9870 C   0  0  0  0  0  0  0  0  0  0  0  0
  192.1870  175.0550  147.5030 C   0  0  0  0  0  2  0  0  0  0  0  0
  187.4330  176.7840  143.9190 C   0  0  0  0  0  0  0  0  0  0  0  0
  188.8260  176.7070  143.9890 C   0  0  0  0  0  3  0  0  0  0  0  0
  185.5000  176.6990  142.5480 O   0  0  0  0  0  0  0  0  0  0  0  0
  186.6990  176.3430  142.7030 C   0  0  0  0  0  0  0  0  0  0  0  0
  187.2810  175.4620  141.7280 N   0  0  0  0  0  0  0  0  0  0  0  0
  186.7280  177.2380  145.0420 C   0  0  0  0  0  3  0  0  0  0  0  0
  190.8200  177.1560  147.7150 C   0  0  0  0  0  2  0  0  0  0  0  0
  188.3920  173.5640  140.0520 O   0  0  0  0  0  0  0  0  0  0  0  0
  192.0760  174.3670  142.8010 N   0  0  0  0  0  2  0  0  0  0  0  0
  188.5080  175.1320  141.7790 N   0  0  0  0  0  0  0  0  0  0  0  0
  190.5600  174.0080  140.9070 C   0  0  0  0  0  0  0  0  0  0  0  0
  189.1050  174.2110  140.8670 C   0  0  0  0  0  0  0  0  0  0  0  0
  186.5890  178.0260  147.3950 C   0  0  0  0  0  0  0  0  0  0  0  0
  186.0350  177.1870  148.1530 O   0  0  0  0  0  1  0  0  0  0  0  0
  186.4240  179.3800  147.6610 O   0  0  0  0  0  0  0  0  0  0  0  0
  193.3300  171.6050  144.7710 C   0  0  0  0  0  2  0  0  0  0  0  0
  193.3730  172.8970  145.1020 C   0  0  0  0  0  3  0  0  0  0  0  0
  1  7  1  0  0  0  0
  3  1  1  0  0  0  0
  3 26  1  0  0  0  0
  4  5  2  0  0  0  0
  5 13  1  0  0  0  0
  6 24  2  0  0  0  0
  7 20  1  0  0  0  0
  8  1  2  0  0  0  0
  9 22  1  0  0  0  0
 10 30  1  6  0  0  0
 10  5  1  0  0  0  0
 11 12  2  0  0  0  0
 12 10  1  0  0  0  0
 13  2  1  0  0  0  0
 14 15  2  0  0  0  0
 14 19  1  0  0  0  0
 15  8  1  0  0  0  0
 16 17  2  0  0  0  0
 17 14  1  0  0  0  0
 18 23  2  0  0  0  0
 18 17  1  0  0  0  0
 19  3  2  0  0  0  0
 20  2  1  0  0  0  0
 21 25  2  0  0  0  0
 22 12  1  0  0  0  0
 24  9  1  0  0  0  0
 25 24  1  0  0  0  0
 25 23  1  0  0  0  0
 26 28  2  0  0  0  0
 26 27  1  0  0  0  0
 29 30  2  0  0  0  0
M  END
>  <MODEL>
2

>  <REMARK>
 VINA RESULT:      -7.5      2.104      5.949
  Name = 
  2 active torsions:
  status: ('A' for Active; 'I' for Inactive)
    1  A    between atoms: C_3  and  C_19
    2  A    between atoms: C_8  and  C_12
                            x       y       z     vdW  Elec       q    Type
                         _______ _______ _______ _____ _____    ______ ____

>  <TORSDO>
F 2

$$$$
=
 OpenBabel11062419513D

 30 31  0  0  1  0  0  0  0  0999 V2000
  189.2930  174.0210  142.2000 C   0  0  0  0  0  0  0  0  0  0  0  0
  191.5440  174.2410  144.3260 C   0  0  0  0  0  2  0  0  0  0  0  0
  189.1070  174.3490  140.8380 C   0  0  0  0  0  0  0  0  0  0  0  0
  189.3010  174.3470  146.5240 O   0  0  0  0  0  0  0  0  0  0  0  0
  190.2580  175.0700  146.2880 C   0  0  0  0  0  0  0  0  0  0  0  0
  186.0120  179.5800  146.5450 O   0  0  0  0  0  0  0  0  0  0  0  0
  190.2940  173.1220  142.5960 O   0  0  0  0  0  0  0  0  0  0  0  0
  188.4830  174.6270  143.1690 C   0  0  0  0  0  3  0  0  0  0  0  0
  186.3530  177.2530  146.1310 C   0  0  0  0  0  2  0  0  0  0  0  0
  190.1650  176.5570  146.5050 C   0  0  1  0  0  3  0  0  0  0  0  0
  188.9050  177.6360  144.7970 O   0  0  0  0  0  0  0  0  0  0  0  0
  188.8960  177.1430  145.9550 C   0  0  0  0  0  0  0  0  0  0  0  0
  191.5480  174.4660  145.8310 C   0  0  0  0  0  2  0  0  0  0  0  0
  187.4030  175.9880  141.4780 C   0  0  0  0  0  0  0  0  0  0  0  0
  187.5510  175.5920  142.8100 C   0  0  0  0  0  3  0  0  0  0  0  0
  186.1550  177.2410  139.8990 O   0  0  0  0  0  0  0  0  0  0  0  0
  186.4980  177.1070  141.1040 C   0  0  0  0  0  0  0  0  0  0  0  0
  186.0550  178.0900  142.0540 N   0  0  0  0  0  0  0  0  0  0  0  0
  188.1690  175.3420  140.4980 C   0  0  0  0  0  3  0  0  0  0  0  0
  190.7290  173.0110  143.9490 C   0  0  0  0  0  2  0  0  0  0  0  0
  185.4720  180.0740  143.8910 O   0  0  0  0  0  0  0  0  0  0  0  0
  187.6800  177.0830  146.7100 N   0  0  0  0  0  2  0  0  0  0  0  0
  186.2940  177.9700  143.2970 N   0  0  0  0  0  0  0  0  0  0  0  0
  186.1060  178.6620  145.6880 C   0  0  0  0  0  0  0  0  0  0  0  0
  185.9260  178.9570  144.2590 C   0  0  0  0  0  0  0  0  0  0  0  0
  189.8950  173.7160  139.7570 C   0  0  0  0  0  0  0  0  0  0  0  0
  189.3120  173.0870  138.8350 O   0  0  0  0  0  0  0  0  0  0  0  0
  191.2830  173.7930  139.7410 O   0  0  0  0  0  1  0  0  0  0  0  0
  191.6780  177.0220  148.4290 C   0  0  0  0  0  2  0  0  0  0  0  0
  190.4430  176.9550  147.9300 C   0  0  0  0  0  3  0  0  0  0  0  0
  1  7  1  0  0  0  0
  1  8  1  0  0  0  0
  2 13  1  0  0  0  0
  3  1  2  0  0  0  0
  5 10  1  0  0  0  0
  5  4  2  0  0  0  0
  7 20  1  0  0  0  0
  9 22  1  0  0  0  0
 10 30  1  1  0  0  0
 11 12  2  0  0  0  0
 12 10  1  0  0  0  0
 12 22  1  0  0  0  0
 13  5  1  0  0  0  0
 14 15  1  0  0  0  0
 15  8  2  0  0  0  0
 16 17  2  0  0  0  0
 17 14  1  0  0  0  0
 17 18  1  0  0  0  0
 18 23  2  0  0  0  0
 19  3  1  0  0  0  0
 19 14  2  0  0  0  0
 20  2  1  0  0  0  0
 21 25  2  0  0  0  0
 23 25  1  0  0  0  0
 24  9  1  0  0  0  0
 24  6  2  0  0  0  0
 25 24  1  0  0  0  0
 26  3  1  0  0  0  0
 27 26  2  0  0  0  0
 28 26  1  0  0  0  0
 30 29  2  0  0  0  0
M  END
>  <MODEL>
3

>  <REMARK>
 VINA RESULT:      -7.5      1.035      1.239
  Name = 
  2 active torsions:
  status: ('A' for Active; 'I' for Inactive)
    1  A    between atoms: C_3  and  C_19
    2  A    between atoms: C_8  and  C_12
                            x       y       z     vdW  Elec       q    Type
                         _______ _______ _______ _____ _____    ______ ____

>  <TORSDO>
F 2

$$$$
=
 OpenBabel11062419513D

 30 31  0  0  1  0  0  0  0  0999 V2000
  187.8500  177.7960  144.2970 C   0  0  0  0  0  0  0  0  0  0  0  0
  188.5790  175.6490  146.4150 C   0  0  0  0  0  2  0  0  0  0  0  0
  186.6800  178.3970  143.7780 C   0  0  0  0  0  0  0  0  0  0  0  0
  191.1880  175.0680  144.7620 O   0  0  0  0  0  0  0  0  0  0  0  0
  190.3010  174.3410  145.1840 C   0  0  0  0  0  0  0  0  0  0  0  0
  190.1880  172.2700  139.3420 O   0  0  0  0  0  0  0  0  0  0  0  0
  188.1720  177.9000  145.6570 O   0  0  0  0  0  0  0  0  0  0  0  0
  188.6820  177.0630  143.4410 C   0  0  0  0  0  3  0  0  0  0  0  0
  190.7480  174.1270  140.7350 C   0  0  0  0  0  2  0  0  0  0  0  0
  189.8550  173.1380  144.3940 C   0  0  1  0  0  3  0  0  0  0  0  0
  188.4980  173.7430  142.5330 O   0  0  0  0  0  0  0  0  0  0  0  0
  189.6530  173.4480  142.9380 C   0  0  0  0  0  0  0  0  0  0  0  0
  189.6910  174.6160  146.5230 C   0  0  0  0  0  2  0  0  0  0  0  0
  187.1430  177.3850  141.5950 C   0  0  0  0  0  0  0  0  0  0  0  0
  188.3330  176.8650  142.1110 C   0  0  0  0  0  3  0  0  0  0  0  0
  185.8080  177.7810  139.6770 O   0  0  0  0  0  0  0  0  0  0  0  0
  186.7040  177.0730  140.2100 C   0  0  0  0  0  0  0  0  0  0  0  0
  187.2090  175.9450  139.4770 N   0  0  0  0  0  0  0  0  0  0  0  0
  186.3360  178.1690  142.4320 C   0  0  0  0  0  3  0  0  0  0  0  0
  189.1400  177.0580  146.2790 C   0  0  0  0  0  2  0  0  0  0  0  0
  188.0430  173.6100  138.2520 O   0  0  0  0  0  0  0  0  0  0  0  0
  190.7670  173.4710  142.0370 N   0  0  0  0  0  2  0  0  0  0  0  0
  188.1700  175.2390  139.9200 N   0  0  0  0  0  0  0  0  0  0  0  0
  189.8660  173.4150  139.7580 C   0  0  0  0  0  0  0  0  0  0  0  0
  188.6550  174.0770  139.2510 C   0  0  0  0  0  0  0  0  0  0  0  0
  185.7780  179.2220  144.6120 C   0  0  0  0  0  0  0  0  0  0  0  0
  185.2450  178.7310  145.6430 O   0  0  0  0  0  1  0  0  0  0  0  0
  185.4970  180.5410  144.2760 O   0  0  0  0  0  0  0  0  0  0  0  0
  192.0520  171.9880  144.6370 C   0  0  0  0  0  2  0  0  0  0  0  0
  190.7190  171.9300  144.6370 C   0  0  0  0  0  3  0  0  0  0  0  0
  1  7  1  0  0  0  0
  2 13  1  0  0  0  0
  3  1  1  0  0  0  0
  3 26  1  0  0  0  0
  4  5  2  0  0  0  0
  5 13  1  0  0  0  0
  6 24  2  0  0  0  0
  7 20  1  0  0  0  0
  8  1  2  0  0  0  0
  9 22  1  0  0  0  0
 10 30  1  6  0  0  0
 10  5  1  0  0  0  0
 11 12  2  0  0  0  0
 12 10  1  0  0  0  0
 14 15  2  0  0  0  0
 14 19  1  0  0  0  0
 15  8  1  0  0  0  0
 16 17  2  0  0  0  0
 17 14  1  0  0  0  0
 18 23  2  0  0  0  0
 18 17  1  0  0  0  0
 19  3  2  0  0  0  0
 20  2  1  0  0  0  0
 21 25  2  0  0  0  0
 22 12  1  0  0  0  0
 24  9  1  0  0  0  0
 25 24  1  0  0  0  0
 25 23  1  0  0  0  0
 26 27  1  0  0  0  0
 28 26  2  0  0  0  0
 30 29  2  0  0  0  0
M  END
>  <MODEL>
4

>  <REMARK>
 VINA RESULT:      -7.0      2.346      6.067
  Name = 
  2 active torsions:
  status: ('A' for Active; 'I' for Inactive)
    1  A    between atoms: C_3  and  C_19
    2  A    between atoms: C_8  and  C_12
                            x       y       z     vdW  Elec       q    Type
                         _______ _______ _______ _____ _____    ______ ____

>  <TORSDO>
F 2

$$$$
=
 OpenBabel11062419513D

 30 31  0  0  1  0  0  0  0  0999 V2000
  188.2860  175.6750  141.2600 C   0  0  0  0  0  0  0  0  0  0  0  0
  185.7110  176.4150  142.8260 C   0  0  0  0  0  2  0  0  0  0  0  0
  188.8310  174.5360  140.6240 C   0  0  0  0  0  0  0  0  0  0  0  0
  187.3870  178.6180  144.3150 O   0  0  0  0  0  0  0  0  0  0  0  0
  186.6700  177.7140  144.7200 C   0  0  0  0  0  0  0  0  0  0  0  0
  191.5650  176.3790  148.2820 O   0  0  0  0  0  0  0  0  0  0  0  0
  187.0640  176.2210  140.8410 O   0  0  0  0  0  0  0  0  0  0  0  0
  188.9660  176.2470  142.3430 C   0  0  0  0  0  3  0  0  0  0  0  0
  190.8670  177.4130  146.2460 C   0  0  0  0  0  2  0  0  0  0  0  0
  187.0060  176.9800  145.9910 C   0  0  1  0  0  3  0  0  0  0  0  0
  188.8030  175.4460  145.6920 O   0  0  0  0  0  0  0  0  0  0  0  0
  188.4560  176.5960  146.0690 C   0  0  0  0  0  0  0  0  0  0  0  0
  185.4180  177.3700  143.9740 C   0  0  0  0  0  2  0  0  0  0  0  0
  190.6430  174.4970  142.2720 C   0  0  0  0  0  0  0  0  0  0  0  0
  190.1280  175.6670  142.8370 C   0  0  0  0  0  3  0  0  0  0  0  0
  192.4330  172.9460  142.1890 O   0  0  0  0  0  0  0  0  0  0  0  0
  191.8130  173.8030  142.8720 C   0  0  0  0  0  0  0  0  0  0  0  0
  192.2210  174.0180  144.2330 N   0  0  0  0  0  0  0  0  0  0  0  0
  190.0000  173.9550  141.1510 C   0  0  0  0  0  3  0  0  0  0  0  0
  186.3280  177.1440  141.6390 C   0  0  0  0  0  2  0  0  0  0  0  0
  192.7670  174.3030  146.9290 O   0  0  0  0  0  0  0  0  0  0  0  0
  189.4380  177.5450  146.5040 N   0  0  0  0  0  2  0  0  0  0  0  0
  191.6940  174.9260  144.9510 N   0  0  0  0  0  0  0  0  0  0  0  0
  191.4810  176.2940  147.0280 C   0  0  0  0  0  0  0  0  0  0  0  0
  192.0290  175.1260  146.3230 C   0  0  0  0  0  0  0  0  0  0  0  0
  188.1920  173.9070  139.4470 C   0  0  0  0  0  0  0  0  0  0  0  0
  187.8270  172.7020  139.4940 O   0  0  0  0  0  1  0  0  0  0  0  0
  187.9880  174.6220  138.2720 O   0  0  0  0  0  0  0  0  0  0  0  0
  185.3140  178.2870  147.2700 C   0  0  0  0  0  2  0  0  0  0  0  0
  186.5050  177.6880  147.2210 C   0  0  0  0  0  3  0  0  0  0  0  0
  1  8  1  0  0  0  0
  2 13  1  0  0  0  0
  3 19  1  0  0  0  0
  3  1  2  0  0  0  0
  4  5  2  0  0  0  0
  5 10  1  0  0  0  0
  7  1  1  0  0  0  0
  7 20  1  0  0  0  0
  8 15  2  0  0  0  0
  9 22  1  0  0  0  0
  9 24  1  0  0  0  0
 10 12  1  0  0  0  0
 10 30  1  1  0  0  0
 11 12  2  0  0  0  0
 12 22  1  0  0  0  0
 13  5  1  0  0  0  0
 14 15  1  0  0  0  0
 14 17  1  0  0  0  0
 16 17  2  0  0  0  0
 17 18  1  0  0  0  0
 18 23  2  0  0  0  0
 19 14  2  0  0  0  0
 20  2  1  0  0  0  0
 23 25  1  0  0  0  0
 24  6  2  0  0  0  0
 25 21  2  0  0  0  0
 25 24  1  0  0  0  0
 26 27  1  0  0  0  0
 26  3  1  0  0  0  0
 28 26  2  0  0  0  0
 30 29  2  0  0  0  0
M  END
>  <MODEL>
5

>  <REMARK>
 VINA RESULT:      -7.0      2.178      5.226
  Name = 
  2 active torsions:
  status: ('A' for Active; 'I' for Inactive)
    1  A    between atoms: C_3  and  C_19
    2  A    between atoms: C_8  and  C_12
                            x       y       z     vdW  Elec       q    Type
                         _______ _______ _______ _____ _____    ______ ____

>  <TORSDO>
F 2

$$$$
=
 OpenBabel11062419513D

 30 31  0  0  1  0  0  0  0  0999 V2000
  186.7090  177.8430  142.6680 C   0  0  0  0  0  0  0  0  0  0  0  0
  186.4070  177.4690  145.7330 C   0  0  0  0  0  2  0  0  0  0  0  0
  185.9870  177.5110  141.4980 C   0  0  0  0  0  0  0  0  0  0  0  0
  189.5410  177.5800  145.9410 O   0  0  0  0  0  0  0  0  0  0  0  0
  188.7160  176.7780  146.3520 C   0  0  0  0  0  0  0  0  0  0  0  0
  192.4170  172.6370  143.5980 O   0  0  0  0  0  0  0  0  0  0  0  0
  186.1460  178.6620  143.6560 O   0  0  0  0  0  0  0  0  0  0  0  0
  187.9960  177.3200  142.8510 C   0  0  0  0  0  3  0  0  0  0  0  0
  191.7220  174.9210  143.6040 C   0  0  0  0  0  2  0  0  0  0  0  0
  189.0340  175.3060  146.3940 C   0  0  1  0  0  3  0  0  0  0  0  0
  188.9530  174.3100  144.2320 O   0  0  0  0  0  0  0  0  0  0  0  0
  189.6780  174.8190  145.1270 C   0  0  0  0  0  0  0  0  0  0  0  0
  187.3990  177.2670  146.8690 C   0  0  0  0  0  2  0  0  0  0  0  0
  187.8100  176.0280  140.8080 C   0  0  0  0  0  0  0  0  0  0  0  0
  188.5370  176.4290  141.9320 C   0  0  0  0  0  3  0  0  0  0  0  0
  187.8160  174.8600  138.7450 O   0  0  0  0  0  0  0  0  0  0  0  0
  188.3310  174.9820  139.8880 C   0  0  0  0  0  0  0  0  0  0  0  0
  189.3550  174.0520  140.2800 N   0  0  0  0  0  0  0  0  0  0  0  0
  186.5460  176.5940  140.5890 C   0  0  0  0  0  3  0  0  0  0  0  0
  186.6900  178.7560  144.9710 C   0  0  0  0  0  2  0  0  0  0  0  0
  191.1340  172.1510  141.2100 O   0  0  0  0  0  0  0  0  0  0  0  0
  191.0840  174.9900  144.9130 N   0  0  0  0  0  2  0  0  0  0  0  0
  189.9740  174.1700  141.3840 N   0  0  0  0  0  0  0  0  0  0  0  0
  191.7220  173.5310  143.0480 C   0  0  0  0  0  0  0  0  0  0  0  0
  190.9500  173.2320  141.8330 C   0  0  0  0  0  0  0  0  0  0  0  0
  184.6430  178.0620  141.2170 C   0  0  0  0  0  0  0  0  0  0  0  0
  184.4230  178.6740  140.1380 O   0  0  0  0  0  0  0  0  0  0  0  0
  183.6050  177.9250  142.1320 O   0  0  0  0  0  1  0  0  0  0  0  0
  190.9320  175.4770  147.9990 C   0  0  0  0  0  2  0  0  0  0  0  0
  189.7800  174.9070  147.6390 C   0  0  0  0  0  3  0  0  0  0  0  0
  1  8  1  0  0  0  0
  1  7  1  0  0  0  0
  2 13  1  0  0  0  0
  3  1  2  0  0  0  0
  4  5  2  0  0  0  0
  5 10  1  0  0  0  0
  5 13  1  0  0  0  0
  7 20  1  0  0  0  0
  9 22  1  0  0  0  0
 10 30  1  1  0  0  0
 11 12  2  0  0  0  0
 12 10  1  0  0  0  0
 14 15  1  0  0  0  0
 15  8  2  0  0  0  0
 16 17  2  0  0  0  0
 17 18  1  0  0  0  0
 17 14  1  0  0  0  0
 18 23  2  0  0  0  0
 19 14  2  0  0  0  0
 19  3  1  0  0  0  0
 20  2  1  0  0  0  0
 21 25  2  0  0  0  0
 22 12  1  0  0  0  0
 23 25  1  0  0  0  0
 24  6  2  0  0  0  0
 24  9  1  0  0  0  0
 25 24  1  0  0  0  0
 26  3  1  0  0  0  0
 26 28  1  0  0  0  0
 27 26  2  0  0  0  0
 30 29  2  0  0  0  0
M  END
>  <MODEL>
6

>  <REMARK>
 VINA RESULT:      -6.8      2.185      5.724
  Name = 
  2 active torsions:
  status: ('A' for Active; 'I' for Inactive)
    1  A    between atoms: C_3  and  C_19
    2  A    between atoms: C_8  and  C_12
                            x       y       z     vdW  Elec       q    Type
                         _______ _______ _______ _____ _____    ______ ____

>  <TORSDO>
F 2

$$$$
=
 OpenBabel11062419513D

 30 31  0  0  1  0  0  0  0  0999 V2000
  187.8080  176.2550  144.8460 C   0  0  0  0  0  0  0  0  0  0  0  0
  187.9760  175.9460  141.7630 C   0  0  0  0  0  2  0  0  0  0  0  0
  187.7710  177.3080  145.7900 C   0  0  0  0  0  0  0  0  0  0  0  0
  189.3420  173.1550  142.2320 O   0  0  0  0  0  0  0  0  0  0  0  0
  189.6630  174.1280  141.5640 C   0  0  0  0  0  0  0  0  0  0  0  0
  195.0730  173.4860  144.5220 O   0  0  0  0  0  0  0  0  0  0  0  0
  186.8130  176.1310  143.8650 O   0  0  0  0  0  0  0  0  0  0  0  0
  188.8710  175.3430  144.8760 C   0  0  0  0  0  3  0  0  0  0  0  0
  192.7280  173.0480  144.6420 C   0  0  0  0  0  2  0  0  0  0  0  0
  191.1120  174.5100  141.4160 C   0  0  1  0  0  3  0  0  0  0  0  0
  191.9690  175.5510  143.3790 O   0  0  0  0  0  0  0  0  0  0  0  0
  191.8520  174.4830  142.7230 C   0  0  0  0  0  0  0  0  0  0  0  0
  188.6110  174.9120  140.8440 C   0  0  0  0  0  2  0  0  0  0  0  0
  189.9400  176.5800  146.6660 C   0  0  0  0  0  0  0  0  0  0  0  0
  189.9170  175.5040  145.7750 C   0  0  0  0  0  3  0  0  0  0  0  0
  190.9890  177.6000  148.5310 O   0  0  0  0  0  0  0  0  0  0  0  0
  191.1140  176.8270  147.5440 C   0  0  0  0  0  0  0  0  0  0  0  0
  192.4120  176.2750  147.2690 N   0  0  0  0  0  0  0  0  0  0  0  0
  188.8500  177.4610  146.6810 C   0  0  0  0  0  3  0  0  0  0  0  0
  186.9760  175.3040  142.7150 C   0  0  0  0  0  2  0  0  0  0  0  0
  194.9190  175.3840  146.5130 O   0  0  0  0  0  0  0  0  0  0  0  0
  192.3600  173.2500  143.2460 N   0  0  0  0  0  2  0  0  0  0  0  0
  192.5900  175.4240  146.3410 N   0  0  0  0  0  0  0  0  0  0  0  0
  193.9610  173.8110  145.0170 C   0  0  0  0  0  0  0  0  0  0  0  0
  193.8730  174.9020  145.9980 C   0  0  0  0  0  0  0  0  0  0  0  0
  186.6580  178.2800  145.8460 C   0  0  0  0  0  0  0  0  0  0  0  0
  185.9950  178.4230  146.9080 O   0  0  0  0  0  1  0  0  0  0  0  0
  186.3160  179.0450  144.7370 O   0  0  0  0  0  0  0  0  0  0  0  0
  192.9460  174.1660  139.7660 C   0  0  0  0  0  2  0  0  0  0  0  0
  191.8040  173.7500  140.3170 C   0  0  0  0  0  3  0  0  0  0  0  0
  1  8  2  0  0  0  0
  1  3  1  0  0  0  0
  2 20  1  0  0  0  0
  3 26  1  0  0  0  0
  3 19  2  0  0  0  0
  5  4  2  0  0  0  0
  6 24  2  0  0  0  0
  7  1  1  0  0  0  0
  8 15  1  0  0  0  0
  9 24  1  0  0  0  0
 10 30  1  6  0  0  0
 10  5  1  0  0  0  0
 10 12  1  0  0  0  0
 12 22  1  0  0  0  0
 12 11  2  0  0  0  0
 13  5  1  0  0  0  0
 13  2  1  0  0  0  0
 14 19  1  0  0  0  0
 14 17  1  0  0  0  0
 15 14  2  0  0  0  0
 17 16  2  0  0  0  0
 18 17  1  0  0  0  0
 20  7  1  0  0  0  0
 22  9  1  0  0  0  0
 23 18  2  0  0  0  0
 24 25  1  0  0  0  0
 25 23  1  0  0  0  0
 25 21  2  0  0  0  0
 26 27  1  0  0  0  0
 28 26  2  0  0  0  0
 29 30  2  0  0  0  0
M  END
>  <MODEL>
7

>  <REMARK>
 VINA RESULT:      -6.8      2.682      7.334
  Name = 
  2 active torsions:
  status: ('A' for Active; 'I' for Inactive)
    1  A    between atoms: C_3  and  C_19
    2  A    between atoms: C_8  and  C_12
                            x       y       z     vdW  Elec       q    Type
                         _______ _______ _______ _____ _____    ______ ____

>  <TORSDO>
F 2

$$$$
=
 OpenBabel11062419513D

 30 31  0  0  1  0  0  0  0  0999 V2000
  189.0540  176.6710  146.4020 C   0  0  0  0  0  0  0  0  0  0  0  0
  187.0430  178.5540  144.9720 C   0  0  0  0  0  2  0  0  0  0  0  0
  190.3310  176.7680  147.0000 C   0  0  0  0  0  0  0  0  0  0  0  0
  185.9690  176.0410  143.4210 O   0  0  0  0  0  0  0  0  0  0  0  0
  186.3610  177.1360  143.0450 C   0  0  0  0  0  0  0  0  0  0  0  0
  189.9050  173.7680  139.2320 O   0  0  0  0  0  0  0  0  0  0  0  0
  187.9720  177.4210  146.8850 O   0  0  0  0  0  0  0  0  0  0  0  0
  188.8780  175.8360  145.2910 C   0  0  0  0  0  3  0  0  0  0  0  0
  188.7270  173.7550  141.3100 C   0  0  0  0  0  2  0  0  0  0  0  0
  187.1210  177.2740  141.7510 C   0  0  1  0  0  3  0  0  0  0  0  0
  189.3690  176.5150  141.9480 O   0  0  0  0  0  0  0  0  0  0  0  0
  188.1930  176.2330  141.5980 C   0  0  0  0  0  0  0  0  0  0  0  0
  186.0360  178.3560  143.8480 C   0  0  0  0  0  2  0  0  0  0  0  0
  191.2420  175.3000  145.2640 C   0  0  0  0  0  0  0  0  0  0  0  0
  189.9560  175.1590  144.7350 C   0  0  0  0  0  3  0  0  0  0  0  0
  193.4950  174.5630  145.2440 O   0  0  0  0  0  0  0  0  0  0  0  0
  192.4190  174.6790  144.6000 C   0  0  0  0  0  0  0  0  0  0  0  0
  192.3990  174.2690  143.2220 N   0  0  0  0  0  0  0  0  0  0  0  0
  191.4130  176.0870  146.4110 C   0  0  0  0  0  3  0  0  0  0  0  0
  186.7750  177.6050  146.1330 C   0  0  0  0  0  2  0  0  0  0  0  0
  192.3470  173.7580  140.5050 O   0  0  0  0  0  0  0  0  0  0  0  0
  187.8710  174.9200  141.1240 N   0  0  0  0  0  2  0  0  0  0  0  0
  191.3270  174.2810  142.5400 N   0  0  0  0  0  0  0  0  0  0  0  0
  189.9760  173.8360  140.4880 C   0  0  0  0  0  0  0  0  0  0  0  0
  191.2820  173.9420  141.1550 C   0  0  0  0  0  0  0  0  0  0  0  0
  190.5800  177.5950  148.2010 C   0  0  0  0  0  0  0  0  0  0  0  0
  191.4750  177.2620  149.0240 O   0  0  0  0  0  1  0  0  0  0  0  0
  189.8360  178.7420  148.4500 O   0  0  0  0  0  0  0  0  0  0  0  0
  185.1290  178.1590  140.5440 C   0  0  0  0  0  2  0  0  0  0  0  0
  186.2150  177.3840  140.5540 C   0  0  0  0  0  3  0  0  0  0  0  0
  1  7  1  0  0  0  0
  1  3  1  0  0  0  0
  2 20  1  0  0  0  0
  3 26  1  0  0  0  0
  5  4  2  0  0  0  0
  5 13  1  0  0  0  0
  6 24  2  0  0  0  0
  8  1  2  0  0  0  0
 10 30  1  6  0  0  0
 10  5  1  0  0  0  0
 12 10  1  0  0  0  0
 12 11  2  0  0  0  0
 13  2  1  0  0  0  0
 14 19  1  0  0  0  0
 15 14  2  0  0  0  0
 15  8  1  0  0  0  0
 17 16  2  0  0  0  0
 17 14  1  0  0  0  0
 18 17  1  0  0  0  0
 19  3  2  0  0  0  0
 20  7  1  0  0  0  0
 21 25  2  0  0  0  0
 22  9  1  0  0  0  0
 22 12  1  0  0  0  0
 23 18  2  0  0  0  0
 24 25  1  0  0  0  0
 24  9  1  0  0  0  0
 25 23  1  0  0  0  0
 26 28  2  0  0  0  0
 26 27  1  0  0  0  0
 29 30  2  0  0  0  0
M  END
>  <MODEL>
8

>  <REMARK>
 VINA RESULT:      -6.8      2.428      7.023
  Name = 
  2 active torsions:
  status: ('A' for Active; 'I' for Inactive)
    1  A    between atoms: C_3  and  C_19
    2  A    between atoms: C_8  and  C_12
                            x       y       z     vdW  Elec       q    Type
                         _______ _______ _______ _____ _____    ______ ____

>  <TORSDO>
F 2

$$$$
=
 OpenBabel11062419513D

 30 31  0  0  1  0  0  0  0  0999 V2000
  189.8520  173.5610  142.2450 C   0  0  0  0  0  0  0  0  0  0  0  0
  192.9350  173.4830  141.9030 C   0  0  0  0  0  2  0  0  0  0  0  0
  188.7490  174.2050  141.6380 C   0  0  0  0  0  0  0  0  0  0  0  0
  193.1410  172.7630  144.9550 O   0  0  0  0  0  0  0  0  0  0  0  0
  193.6750  173.6270  144.2740 C   0  0  0  0  0  0  0  0  0  0  0  0
  191.6700  177.4030  148.7630 O   0  0  0  0  0  0  0  0  0  0  0  0
  190.6870  172.7110  141.5060 O   0  0  0  0  0  0  0  0  0  0  0  0
  190.1270  173.8010  143.5970 C   0  0  0  0  0  3  0  0  0  0  0  0
  191.2920  175.3160  147.6660 C   0  0  0  0  0  2  0  0  0  0  0  0
  193.9620  174.9880  144.8510 C   0  0  1  0  0  3  0  0  0  0  0  0
  191.9950  176.3180  145.0310 O   0  0  0  0  0  0  0  0  0  0  0  0
  192.7980  175.5460  145.6190 C   0  0  0  0  0  0  0  0  0  0  0  0
  194.0950  173.3120  142.8720 C   0  0  0  0  0  2  0  0  0  0  0  0
  188.3260  175.4180  143.7240 C   0  0  0  0  0  0  0  0  0  0  0  0
  189.3730  174.7130  144.3240 C   0  0  0  0  0  3  0  0  0  0  0  0
  186.4860  176.8840  144.0170 O   0  0  0  0  0  0  0  0  0  0  0  0
  187.5960  176.4850  144.4590 C   0  0  0  0  0  0  0  0  0  0  0  0
  188.1430  177.1340  145.6190 N   0  0  0  0  0  0  0  0  0  0  0  0
  188.0080  175.1380  142.3870 C   0  0  0  0  0  3  0  0  0  0  0  0
  191.9710  172.3060  141.9760 C   0  0  0  0  0  2  0  0  0  0  0  0
  189.3880  178.4980  147.6770 O   0  0  0  0  0  0  0  0  0  0  0  0
  192.5670  175.1560  146.9780 N   0  0  0  0  0  2  0  0  0  0  0  0
  189.2160  176.7260  146.1660 N   0  0  0  0  0  0  0  0  0  0  0  0
  190.9740  176.7540  147.9380 C   0  0  0  0  0  0  0  0  0  0  0  0
  189.8210  177.3830  147.2780 C   0  0  0  0  0  0  0  0  0  0  0  0
  188.3710  173.9650  140.2280 C   0  0  0  0  0  0  0  0  0  0  0  0
  188.2520  174.9340  139.4310 O   0  0  0  0  0  0  0  0  0  0  0  0
  188.1350  172.6790  139.7570 O   0  0  0  0  0  1  0  0  0  0  0  0
  196.2640  174.1890  145.3710 C   0  0  0  0  0  2  0  0  0  0  0  0
  195.2600  175.0350  145.6110 C   0  0  0  0  0  3  0  0  0  0  0  0
  1  8  1  0  0  0  0
  2 20  1  0  0  0  0
  2 13  1  0  0  0  0
  3  1  2  0  0  0  0
  3 19  1  0  0  0  0
  5 10  1  0  0  0  0
  5  4  2  0  0  0  0
  7 20  1  0  0  0  0
  7  1  1  0  0  0  0
  8 15  2  0  0  0  0
  9 24  1  0  0  0  0
 10 30  1  1  0  0  0
 10 12  1  0  0  0  0
 11 12  2  0  0  0  0
 12 22  1  0  0  0  0
 13  5  1  0  0  0  0
 14 15  1  0  0  0  0
 14 17  1  0  0  0  0
 16 17  2  0  0  0  0
 17 18  1  0  0  0  0
 18 23  2  0  0  0  0
 19 14  2  0  0  0  0
 22  9  1  0  0  0  0
 23 25  1  0  0  0  0
 24  6  2  0  0  0  0
 25 21  2  0  0  0  0
 25 24  1  0  0  0  0
 26  3  1  0  0  0  0
 27 26  2  0  0  0  0
 28 26  1  0  0  0  0
 29 30  2  0  0  0  0
M  END
>  <MODEL>
9

>  <REMARK>
 VINA RESULT:      -6.7      2.254      4.194
  Name = 
  2 active torsions:
  status: ('A' for Active; 'I' for Inactive)
    1  A    between atoms: C_3  and  C_19
    2  A    between atoms: C_8  and  C_12
                            x       y       z     vdW  Elec       q    Type
                         _______ _______ _______ _____ _____    ______ ____

>  <TORSDO>
F 2

$$$$
