=
 OpenBabel11062422593D

 61 67  0  0  1  0  0  0  0  0999 V2000
  188.6230  177.0350  142.6900 N   0  0  0  0  0  0  0  0  0  0  0  0
  188.4070  176.1670  145.6780 C   0  0  0  0  0  3  0  0  0  0  0  0
  191.0980  175.7010  146.3990 C   0  0  0  0  0  3  0  0  0  0  0  0
  190.7900  177.8100  143.3770 O   0  0  0  0  0  0  0  0  0  0  0  0
  189.4660  176.7290  144.9650 C   0  0  0  0  0  0  0  0  0  0  0  0
  189.4380  177.6070  143.7770 C   0  0  2  0  0  3  0  0  0  0  0  0
  190.0590  175.1060  147.1310 C   0  0  0  0  0  3  0  0  0  0  0  0
  190.7550  176.5060  145.3080 C   0  0  0  0  0  0  0  0  0  0  0  0
  188.7170  175.3380  146.7730 C   0  0  0  0  0  3  0  0  0  0  0  0
  191.6210  177.2960  144.4090 C   0  0  1  0  0  3  0  0  0  0  0  0
  193.9530  176.3740  144.3100 C   0  0  0  0  0  0  0  0  0  0  0  0
  192.7130  176.4630  143.8130 C   0  0  0  0  0  3  0  0  0  0  0  0
  194.6740  176.5850  146.6000 O   0  0  0  0  0  0  0  0  0  0  0  0
  194.4310  177.1290  145.4910 C   0  0  0  0  0  3  0  0  0  0  0  0
  194.9370  175.5400  143.5610 C   0  0  0  0  0  2  0  0  0  0  0  0
  195.9330  176.4090  142.7980 C   0  0  1  0  0  3  0  0  0  0  0  0
  197.3500  176.0540  143.2050 C   0  0  0  0  0  1  0  0  0  0  0  0
  195.7660  176.2810  141.2790 C   0  0  1  0  0  3  0  0  0  0  0  0
  196.9950  176.0830  140.6360 O   0  0  0  0  0  1  0  0  0  0  0  0
  194.7890  175.2030  140.9020 C   0  0  0  0  0  3  0  0  0  0  0  0
  194.5880  174.8370  139.6330 C   0  0  0  0  0  3  0  0  0  0  0  0
  193.6130  173.7600  139.2840 C   0  0  0  0  0  2  0  0  0  0  0  0
  193.1000  175.0430  137.3820 O   0  0  0  0  0  0  0  0  0  0  0  0
  192.7090  174.1960  138.1700 C   0  0  0  0  0  0  0  0  0  0  0  0
  191.3230  173.6320  138.0240 C   0  0  0  0  0  0  0  0  0  0  0  0
  190.6810  174.2590  136.9720 F   0  0  0  0  0  0  0  0  0  0  0  0
  190.6110  173.8560  139.1890 F   0  0  0  0  0  0  0  0  0  0  0  0
  191.3670  172.2680  137.7780 F   0  0  0  0  0  0  0  0  0  0  0  0
  188.3280  175.6300  142.9790 C   0  0  2  0  0  3  0  0  0  0  0  0
  189.3150  174.6970  142.2870 C   0  0  2  0  0  3  0  0  0  0  0  0
  187.9430  174.9240  141.6890 C   0  0  0  0  0  2  0  0  0  0  0  0
  189.3190  173.3710  143.0300 C   0  0  0  0  0  2  0  0  0  0  0  0
  192.6980  172.1460  144.3810 C   0  0  1  0  0  3  0  0  0  0  0  0
  197.4180  170.8490  143.3550 C   0  0  0  0  0  3  0  0  0  0  0  0
  196.6890  171.1070  144.5190 C   0  0  0  0  0  0  0  0  0  0  0  0
  191.3890  172.3900  141.9320 N   0  0  0  0  0  2  0  0  0  0  0  0
  194.5330  171.8320  145.6650 C   0  0  0  0  0  2  0  0  0  0  0  0
  191.3240  172.7330  144.3080 C   0  0  0  0  0  3  0  0  0  0  0  0
  195.5430  171.5210  142.0330 N   0  0  0  0  0  0  0  0  0  0  0  0
  196.8300  171.0790  142.1080 C   0  0  0  0  0  0  0  0  0  0  0  0
  193.4260  172.3530  143.0470 C   0  0  2  0  0  3  0  0  0  0  0  0
  192.6380  171.7320  141.9830 N   0  0  0  0  0  2  0  0  0  0  0  0
  193.4570  172.7170  145.4170 O   0  0  0  0  0  0  0  0  0  0  0  0
  197.2680  170.8690  145.7590 O   0  0  0  0  0  1  0  0  0  0  0  0
  190.6980  172.8040  143.1270 C   0  0  0  0  0  0  0  0  0  0  0  0
  194.8050  171.7680  143.1510 C   0  0  0  0  0  0  0  0  0  0  0  0
  195.3800  171.5980  144.4260 C   0  0  0  0  0  0  0  0  0  0  0  0
  197.6060  170.7690  140.8710 C   0  0  0  0  0  2  0  0  0  0  0  0
  197.3860  171.7890  139.8540 N   0  0  0  0  0  2  0  0  0  0  0  0
  196.7210  172.4680  137.6100 O   0  0  0  0  0  0  0  0  0  0  0  0
  196.8890  170.2520  138.1670 O   0  0  0  0  0  1  0  0  0  0  0  0
  196.9970  171.4560  138.5220 C   0  0  0  0  0  0  0  0  0  0  0  0
  187.3340  177.7270  142.6100 C   0  0  0  0  0  2  0  0  0  0  0  0
  186.2490  176.9020  143.2850 C   0  0  0  0  0  2  0  0  0  0  0  0
  185.0420  178.8050  142.5090 O   0  0  0  0  0  1  0  0  0  0  0  0
  184.9360  177.6690  143.3170 C   0  0  2  0  0  3  0  0  0  0  0  0
  185.1390  177.0880  145.6900 N   0  0  0  0  0  2  0  0  0  0  0  0
  185.8000  179.1220  146.7750 C   0  0  0  0  0  2  0  0  0  0  0  0
  184.5940  178.0600  144.7500 C   0  0  1  0  0  3  0  0  0  0  0  0
  185.1770  177.7600  146.9760 C   0  0  0  0  0  2  0  0  0  0  0  0
  185.2950  179.6980  145.1340 S   0  0  0  0  0  0  0  0  0  0  0  0
  2  9  1  0  0  0  0
  3  7  1  0  0  0  0
  4  6  1  0  0  0  0
  4 10  1  0  0  0  0
  5  8  1  0  0  0  0
  5  2  2  0  0  0  0
  6  1  1  6  0  0  0
  6  5  1  0  0  0  0
  8  3  2  0  0  0  0
  9  7  2  0  0  0  0
 10 12  1  6  0  0  0
 10  8  1  0  0  0  0
 11 14  1  0  0  0  0
 12 11  2  0  0  0  0
 14 13  2  0  0  0  0
 15 11  1  0  0  0  0
 16 17  1  6  0  0  0
 16 15  1  0  0  0  0
 18 19  1  6  0  0  0
 18 16  1  0  0  0  0
 20 18  1  0  0  0  0
 21 20  2  0  0  0  0
 22 21  1  0  0  0  0
 23 24  2  0  0  0  0
 24 22  1  0  0  0  0
 25 24  1  0  0  0  0
 25 27  1  0  0  0  0
 26 25  1  0  0  0  0
 28 25  1  0  0  0  0
 29  1  1  6  0  0  0
 30 29  1  0  0  0  0
 30 32  1  1  0  0  0
 31 30  1  0  0  0  0
 31 29  1  0  0  0  0
 32 45  1  0  0  0  0
 33 38  1  6  0  0  0
 33 43  1  0  0  0  0
 34 35  1  0  0  0  0
 35 44  1  0  0  0  0
 36 42  1  0  0  0  0
 36 45  1  0  0  0  0
 39 40  1  0  0  0  0
 39 46  2  0  0  0  0
 40 34  2  0  0  0  0
 41 42  1  6  0  0  0
 41 46  1  0  0  0  0
 41 33  1  0  0  0  0
 43 37  1  0  0  0  0
 45 38  2  0  0  0  0
 46 47  1  0  0  0  0
 47 35  2  0  0  0  0
 47 37  1  0  0  0  0
 48 40  1  0  0  0  0
 49 48  1  0  0  0  0
 50 52  2  0  0  0  0
 51 52  1  0  0  0  0
 52 49  1  0  0  0  0
 53  1  1  0  0  0  0
 53 54  1  0  0  0  0
 54 56  1  0  0  0  0
 56 55  1  6  0  0  0
 57 60  1  0  0  0  0
 58 60  1  0  0  0  0
 59 56  1  6  0  0  0
 59 61  1  0  0  0  0
 59 57  1  0  0  0  0
 61 58  1  0  0  0  0
M  END
>  <MODEL>
1

>  <REMARK>
 VINA RESULT:      -7.0      0.000      0.000
  Name = 
  19 active torsions:
  status: ('A' for Active; 'I' for Inactive)
    1  A    between atoms: C_1  and  C_14
    2  A    between atoms: C_12  and  N_37
    3  A    between atoms: C_13  and  C_39
    4  A    between atoms: C_13  and  C_42
    5  A    between atoms: C_14  and  C_19
    6  A    between atoms: N_15  and  C_18
    7  A    between atoms: C_16  and  C_33
    8  A    between atoms: C_16  and  C_54
    9  A    between atoms: C_18  and  C_32
   10  A    between atoms: C_19  and  C_42
   11  A    between atoms: C_20  and  C_53
   12  A    between atoms: C_27  and  C_54
   13  A    between atoms: C_29  and  C_59
   14  A    between atoms: C_31  and  N_37
   15  A    between atoms: C_33  and  N_37
   16  A    between atoms: C_44  and  C_51
   17  A    between atoms: C_50  and  C_53
   18  A    between atoms: C_50  and  C_58
   19  A    between atoms: C_51  and  C_52
                            x       y       z     vdW  Elec       q    Type
                         _______ _______ _______ _____ _____    ______ ____

>  <TORSDO>
F 19

$$$$
=
 OpenBabel11062422593D

 61 67  0  0  1  0  0  0  0  0999 V2000
  195.6790  174.5130  141.8960 N   0  0  0  0  0  0  0  0  0  0  0  0
  195.8300  172.6600  144.4000 C   0  0  0  0  0  3  0  0  0  0  0  0
  193.8040  170.7550  143.9020 C   0  0  0  0  0  3  0  0  0  0  0  0
  194.8720  172.5170  140.8310 O   0  0  0  0  0  0  0  0  0  0  0  0
  195.3500  172.4170  143.1120 C   0  0  0  0  0  0  0  0  0  0  0  0
  195.7400  173.0410  141.8310 C   0  0  2  0  0  3  0  0  0  0  0  0
  194.2510  170.9830  145.2140 C   0  0  0  0  0  3  0  0  0  0  0  0
  194.3790  171.5070  142.8740 C   0  0  0  0  0  0  0  0  0  0  0  0
  195.2620  171.9310  145.4630 C   0  0  0  0  0  3  0  0  0  0  0  0
  194.1530  171.4390  141.4140 C   0  0  1  0  0  3  0  0  0  0  0  0
  191.9350  170.5280  140.6740 C   0  0  0  0  0  0  0  0  0  0  0  0
  192.7010  171.5530  141.0710 C   0  0  0  0  0  3  0  0  0  0  0  0
  192.8320  168.7200  139.3580 O   0  0  0  0  0  0  0  0  0  0  0  0
  192.4320  169.1480  140.4720 C   0  0  0  0  0  3  0  0  0  0  0  0
  190.5170  170.8260  140.3170 C   0  0  0  0  0  2  0  0  0  0  0  0
  190.4320  171.6830  139.0560 C   0  0  1  0  0  3  0  0  0  0  0  0
  189.9080  170.8540  137.9000 C   0  0  0  0  0  1  0  0  0  0  0  0
  189.5580  172.9270  139.2610 C   0  0  1  0  0  3  0  0  0  0  0  0
  188.1980  172.6390  139.0950 O   0  0  0  0  0  1  0  0  0  0  0  0
  189.8050  173.5830  140.5900 C   0  0  0  0  0  3  0  0  0  0  0  0
  188.8870  173.5910  141.5610 C   0  0  0  0  0  3  0  0  0  0  0  0
  189.1580  174.2480  142.8750 C   0  0  0  0  0  2  0  0  0  0  0  0
  191.3600  173.8420  143.5910 O   0  0  0  0  0  0  0  0  0  0  0  0
  190.1930  173.4880  143.6510 C   0  0  0  0  0  0  0  0  0  0  0  0
  189.8240  172.2850  144.4730 C   0  0  0  0  0  0  0  0  0  0  0  0
  190.9190  171.4460  144.5750 F   0  0  0  0  0  0  0  0  0  0  0  0
  188.7880  171.6070  143.8550 F   0  0  0  0  0  0  0  0  0  0  0  0
  189.4220  172.6590  145.7450 F   0  0  0  0  0  0  0  0  0  0  0  0
  195.6420  174.9460  143.2940 C   0  0  2  0  0  3  0  0  0  0  0  0
  194.5850  176.0200  143.5190 C   0  0  2  0  0  3  0  0  0  0  0  0
  196.0400  176.4110  143.3740 C   0  0  0  0  0  2  0  0  0  0  0  0
  194.2160  176.0240  144.9940 C   0  0  0  0  0  2  0  0  0  0  0  0
  190.6450  176.3460  146.3680 C   0  0  1  0  0  3  0  0  0  0  0  0
  185.9610  177.9170  145.5850 C   0  0  0  0  0  3  0  0  0  0  0  0
  186.5930  177.1140  146.5380 C   0  0  0  0  0  0  0  0  0  0  0  0
  192.1930  177.3960  144.3020 N   0  0  0  0  0  2  0  0  0  0  0  0
  188.6780  175.9400  147.4100 C   0  0  0  0  0  2  0  0  0  0  0  0
  192.0580  175.8970  146.1730 C   0  0  0  0  0  3  0  0  0  0  0  0
  187.9960  178.0350  144.3350 N   0  0  0  0  0  0  0  0  0  0  0  0
  186.6790  178.3600  144.4710 C   0  0  0  0  0  0  0  0  0  0  0  0
  190.0630  176.8340  145.0360 C   0  0  2  0  0  3  0  0  0  0  0  0
  190.9000  177.9200  144.5290 N   0  0  0  0  0  2  0  0  0  0  0  0
  189.8340  175.3180  146.8790 O   0  0  0  0  0  0  0  0  0  0  0  0
  185.8840  176.6820  147.6510 O   0  0  0  0  0  1  0  0  0  0  0  0
  192.7950  176.4440  145.1990 C   0  0  0  0  0  0  0  0  0  0  0  0
  188.6410  177.2660  145.2570 C   0  0  0  0  0  0  0  0  0  0  0  0
  187.9380  176.7580  146.3660 C   0  0  0  0  0  0  0  0  0  0  0  0
  186.0030  179.2430  143.4750 C   0  0  0  0  0  2  0  0  0  0  0  0
  186.3770  178.8720  142.1160 N   0  0  0  0  0  2  0  0  0  0  0  0
  185.9160  177.7680  139.9940 O   0  0  0  0  0  0  0  0  0  0  0  0
  184.5000  177.5230  141.7780 O   0  0  0  0  0  1  0  0  0  0  0  0
  185.5560  178.0270  141.3110 C   0  0  0  0  0  0  0  0  0  0  0  0
  196.8890  175.0920  141.3080 C   0  0  0  0  0  2  0  0  0  0  0  0
  197.5990  174.0650  140.4400 C   0  0  0  0  0  2  0  0  0  0  0  0
  197.0640  175.7130  138.8020 O   0  0  0  0  0  1  0  0  0  0  0  0
  197.9380  174.6570  139.0800 C   0  0  2  0  0  3  0  0  0  0  0  0
  196.5740  172.8660  138.1080 N   0  0  0  0  0  2  0  0  0  0  0  0
  196.6280  173.2550  135.7430 C   0  0  0  0  0  2  0  0  0  0  0  0
  197.8390  173.5820  138.0030 C   0  0  1  0  0  3  0  0  0  0  0  0
  196.3710  172.2280  136.8220 C   0  0  0  0  0  2  0  0  0  0  0  0
  197.9410  174.3430  136.3500 S   0  0  0  0  0  0  0  0  0  0  0  0
  2  9  1  0  0  0  0
  3  7  1  0  0  0  0
  4 10  1  0  0  0  0
  4  6  1  0  0  0  0
  5  2  2  0  0  0  0
  6  1  1  1  0  0  0
  6  5  1  0  0  0  0
  7  9  2  0  0  0  0
  8  5  1  0  0  0  0
  8  3  2  0  0  0  0
 10 12  1  1  0  0  0
 10  8  1  0  0  0  0
 11 12  2  0  0  0  0
 13 14  2  0  0  0  0
 14 11  1  0  0  0  0
 15 11  1  0  0  0  0
 16 17  1  6  0  0  0
 16 18  1  0  0  0  0
 16 15  1  0  0  0  0
 18 19  1  1  0  0  0
 18 20  1  0  0  0  0
 20 21  2  0  0  0  0
 21 22  1  0  0  0  0
 22 24  1  0  0  0  0
 23 24  2  0  0  0  0
 24 25  1  0  0  0  0
 25 26  1  0  0  0  0
 25 28  1  0  0  0  0
 27 25  1  0  0  0  0
 29  1  1  6  0  0  0
 29 31  1  0  0  0  0
 29 30  1  0  0  0  0
 30 32  1  1  0  0  0
 31 30  1  0  0  0  0
 32 45  1  0  0  0  0
 33 38  1  6  0  0  0
 33 43  1  0  0  0  0
 34 35  1  0  0  0  0
 35 44  1  0  0  0  0
 36 42  1  0  0  0  0
 36 45  1  0  0  0  0
 39 40  1  0  0  0  0
 39 46  2  0  0  0  0
 40 34  2  0  0  0  0
 41 42  1  1  0  0  0
 41 46  1  0  0  0  0
 41 33  1  0  0  0  0
 43 37  1  0  0  0  0
 45 38  2  0  0  0  0
 46 47  1  0  0  0  0
 47 35  2  0  0  0  0
 47 37  1  0  0  0  0
 48 40  1  0  0  0  0
 49 48  1  0  0  0  0
 50 52  2  0  0  0  0
 52 51  1  0  0  0  0
 52 49  1  0  0  0  0
 53  1  1  0  0  0  0
 54 53  1  0  0  0  0
 56 55  1  6  0  0  0
 56 54  1  0  0  0  0
 58 61  1  0  0  0  0
 58 60  1  0  0  0  0
 59 57  1  0  0  0  0
 59 56  1  1  0  0  0
 60 57  1  0  0  0  0
 61 59  1  0  0  0  0
M  END
>  <MODEL>
2

>  <REMARK>
 VINA RESULT:      -6.6      3.460      9.699
  Name = 
  19 active torsions:
  status: ('A' for Active; 'I' for Inactive)
    1  A    between atoms: C_1  and  C_14
    2  A    between atoms: C_12  and  N_37
    3  A    between atoms: C_13  and  C_39
    4  A    between atoms: C_13  and  C_42
    5  A    between atoms: C_14  and  C_19
    6  A    between atoms: N_15  and  C_18
    7  A    between atoms: C_16  and  C_33
    8  A    between atoms: C_16  and  C_54
    9  A    between atoms: C_18  and  C_32
   10  A    between atoms: C_19  and  C_42
   11  A    between atoms: C_20  and  C_53
   12  A    between atoms: C_27  and  C_54
   13  A    between atoms: C_29  and  C_59
   14  A    between atoms: C_31  and  N_37
   15  A    between atoms: C_33  and  N_37
   16  A    between atoms: C_44  and  C_51
   17  A    between atoms: C_50  and  C_53
   18  A    between atoms: C_50  and  C_58
   19  A    between atoms: C_51  and  C_52
                            x       y       z     vdW  Elec       q    Type
                         _______ _______ _______ _____ _____    ______ ____

>  <TORSDO>
F 19

$$$$
=
 OpenBabel11062422593D

 61 67  0  0  1  0  0  0  0  0999 V2000
  191.0800  172.5460  138.4920 N   0  0  0  0  0  0  0  0  0  0  0  0
  192.0680  170.1860  140.2770 C   0  0  0  0  0  3  0  0  0  0  0  0
  193.9730  171.4180  141.9600 C   0  0  0  0  0  3  0  0  0  0  0  0
  191.6620  173.8590  140.4170 O   0  0  0  0  0  0  0  0  0  0  0  0
  192.0670  171.5630  140.5020 C   0  0  0  0  0  0  0  0  0  0  0  0
  191.1670  172.6030  139.9630 C   0  0  2  0  0  3  0  0  0  0  0  0
  194.0140  170.0320  141.7440 C   0  0  0  0  0  3  0  0  0  0  0  0
  192.9790  172.1540  141.3060 C   0  0  0  0  0  0  0  0  0  0  0  0
  193.0640  169.4160  140.9060 C   0  0  0  0  0  3  0  0  0  0  0  0
  192.6620  173.5950  141.3920 C   0  0  1  0  0  3  0  0  0  0  0  0
  194.1100  175.6150  141.7330 C   0  0  0  0  0  0  0  0  0  0  0  0
  193.8640  174.4460  141.1280 C   0  0  0  0  0  3  0  0  0  0  0  0
  193.5110  176.4390  143.9170 O   0  0  0  0  0  0  0  0  0  0  0  0
  193.1990  176.2530  142.7110 C   0  0  0  0  0  3  0  0  0  0  0  0
  195.3300  176.3650  141.3130 C   0  0  0  0  0  2  0  0  0  0  0  0
  196.5870  175.5150  141.4770 C   0  0  1  0  0  3  0  0  0  0  0  0
  197.4880  175.6830  140.2700 C   0  0  0  0  0  1  0  0  0  0  0  0
  197.3490  175.8530  142.7640 C   0  0  1  0  0  3  0  0  0  0  0  0
  196.9200  177.0650  143.3190 O   0  0  0  0  0  1  0  0  0  0  0  0
  197.2720  174.7470  143.7790 C   0  0  0  0  0  3  0  0  0  0  0  0
  196.4300  174.7900  144.8160 C   0  0  0  0  0  3  0  0  0  0  0  0
  196.3700  173.6760  145.8090 C   0  0  0  0  0  2  0  0  0  0  0  0
  194.1320  173.1400  145.3310 O   0  0  0  0  0  0  0  0  0  0  0  0
  195.2680  172.7160  145.4720 C   0  0  0  0  0  0  0  0  0  0  0  0
  195.5320  171.2420  145.3370 C   0  0  0  0  0  0  0  0  0  0  0  0
  196.3330  171.0190  144.2300 F   0  0  0  0  0  0  0  0  0  0  0  0
  194.3320  170.5740  145.1700 F   0  0  0  0  0  0  0  0  0  0  0  0
  196.1720  170.7480  146.4620 F   0  0  0  0  0  0  0  0  0  0  0  0
  190.2240  173.6290  138.0040 C   0  0  2  0  0  3  0  0  0  0  0  0
  188.7620  173.3900  138.3600 C   0  0  2  0  0  3  0  0  0  0  0  0
  189.2610  173.0760  136.9660 C   0  0  0  0  0  2  0  0  0  0  0  0
  188.0410  174.7290  138.3390 C   0  0  0  0  0  2  0  0  0  0  0  0
  186.8520  176.8470  141.3120 C   0  0  1  0  0  3  0  0  0  0  0  0
  187.0830  177.6880  146.2370 C   0  0  0  0  0  3  0  0  0  0  0  0
  186.5610  178.3730  145.1350 C   0  0  0  0  0  0  0  0  0  0  0  0
  188.1430  174.4200  140.8570 N   0  0  0  0  0  2  0  0  0  0  0  0
  186.2060  178.5740  142.6220 C   0  0  0  0  0  2  0  0  0  0  0  0
  187.1560  176.3970  139.9190 C   0  0  0  0  0  3  0  0  0  0  0  0
  188.0400  176.0600  144.7720 N   0  0  0  0  0  0  0  0  0  0  0  0
  187.8400  176.5320  146.0350 C   0  0  0  0  0  0  0  0  0  0  0  0
  187.8500  176.2210  142.2930 C   0  0  2  0  0  3  0  0  0  0  0  0
  187.7710  174.7660  142.1760 N   0  0  0  0  0  2  0  0  0  0  0  0
  186.9000  178.2470  141.4320 O   0  0  0  0  0  0  0  0  0  0  0  0
  185.7990  179.5170  145.3350 O   0  0  0  0  0  1  0  0  0  0  0  0
  187.7410  175.2090  139.7220 C   0  0  0  0  0  0  0  0  0  0  0  0
  187.5310  176.6990  143.6810 C   0  0  0  0  0  0  0  0  0  0  0  0
  186.8060  177.8960  143.8410 C   0  0  0  0  0  0  0  0  0  0  0  0
  188.3660  175.7910  147.2200 C   0  0  0  0  0  2  0  0  0  0  0  0
  189.6520  175.1780  146.9180 N   0  0  0  0  0  2  0  0  0  0  0  0
  192.0840  175.1170  147.0660 O   0  0  0  0  0  0  0  0  0  0  0  0
  190.9010  176.9050  147.8750 O   0  0  0  0  0  1  0  0  0  0  0  0
  190.8860  175.7810  147.3060 C   0  0  0  0  0  0  0  0  0  0  0  0
  192.4040  172.7580  137.9020 C   0  0  0  0  0  2  0  0  0  0  0  0
  192.5990  171.8470  136.7010 C   0  0  0  0  0  2  0  0  0  0  0  0
  194.8430  171.0770  136.4650 O   0  0  0  0  0  1  0  0  0  0  0  0
  193.9600  172.0850  136.0640 C   0  0  2  0  0  3  0  0  0  0  0  0
  195.9120  173.3790  136.7920 N   0  0  0  0  0  2  0  0  0  0  0  0
  195.9160  175.3340  135.4040 C   0  0  0  0  0  2  0  0  0  0  0  0
  194.4930  173.4560  136.4670 C   0  0  1  0  0  3  0  0  0  0  0  0
  196.4140  174.7370  136.7000 C   0  0  0  0  0  2  0  0  0  0  0  0
  194.2740  174.6370  135.0960 S   0  0  0  0  0  0  0  0  0  0  0  0
  2  5  2  0  0  0  0
  2  9  1  0  0  0  0
  4 10  1  0  0  0  0
  5  8  1  0  0  0  0
  6  1  1  6  0  0  0
  6  4  1  0  0  0  0
  6  5  1  0  0  0  0
  7  3  1  0  0  0  0
  8 10  1  0  0  0  0
  8  3  2  0  0  0  0
  9  7  2  0  0  0  0
 10 12  1  6  0  0  0
 11 14  1  0  0  0  0
 12 11  2  0  0  0  0
 14 13  2  0  0  0  0
 15 16  1  0  0  0  0
 15 11  1  0  0  0  0
 16 17  1  6  0  0  0
 16 18  1  0  0  0  0
 18 19  1  1  0  0  0
 18 20  1  0  0  0  0
 20 21  2  0  0  0  0
 21 22  1  0  0  0  0
 23 24  2  0  0  0  0
 24 22  1  0  0  0  0
 25 24  1  0  0  0  0
 25 28  1  0  0  0  0
 26 25  1  0  0  0  0
 27 25  1  0  0  0  0
 29 30  1  0  0  0  0
 29  1  1  1  0  0  0
 30 32  1  6  0  0  0
 31 29  1  0  0  0  0
 31 30  1  0  0  0  0
 32 45  1  0  0  0  0
 33 38  1  6  0  0  0
 33 43  1  0  0  0  0
 33 41  1  0  0  0  0
 35 44  1  0  0  0  0
 35 34  2  0  0  0  0
 36 42  1  0  0  0  0
 37 47  1  0  0  0  0
 39 40  2  0  0  0  0
 40 34  1  0  0  0  0
 40 48  1  0  0  0  0
 41 42  1  1  0  0  0
 41 46  1  0  0  0  0
 43 37  1  0  0  0  0
 45 38  2  0  0  0  0
 45 36  1  0  0  0  0
 46 47  2  0  0  0  0
 46 39  1  0  0  0  0
 47 35  1  0  0  0  0
 49 48  1  0  0  0  0
 49 52  1  0  0  0  0
 50 52  2  0  0  0  0
 52 51  1  0  0  0  0
 53  1  1  0  0  0  0
 54 53  1  0  0  0  0
 56 55  1  1  0  0  0
 56 54  1  0  0  0  0
 58 60  1  0  0  0  0
 59 56  1  6  0  0  0
 59 57  1  0  0  0  0
 60 57  1  0  0  0  0
 61 58  1  0  0  0  0
 61 59  1  0  0  0  0
M  END
>  <MODEL>
3

>  <REMARK>
 VINA RESULT:      -6.2      3.546      9.005
  Name = 
  19 active torsions:
  status: ('A' for Active; 'I' for Inactive)
    1  A    between atoms: C_1  and  C_14
    2  A    between atoms: C_12  and  N_37
    3  A    between atoms: C_13  and  C_39
    4  A    between atoms: C_13  and  C_42
    5  A    between atoms: C_14  and  C_19
    6  A    between atoms: N_15  and  C_18
    7  A    between atoms: C_16  and  C_33
    8  A    between atoms: C_16  and  C_54
    9  A    between atoms: C_18  and  C_32
   10  A    between atoms: C_19  and  C_42
   11  A    between atoms: C_20  and  C_53
   12  A    between atoms: C_27  and  C_54
   13  A    between atoms: C_29  and  C_59
   14  A    between atoms: C_31  and  N_37
   15  A    between atoms: C_33  and  N_37
   16  A    between atoms: C_44  and  C_51
   17  A    between atoms: C_50  and  C_53
   18  A    between atoms: C_50  and  C_58
   19  A    between atoms: C_51  and  C_52
                            x       y       z     vdW  Elec       q    Type
                         _______ _______ _______ _____ _____    ______ ____

>  <TORSDO>
F 19

$$$$
=
 OpenBabel11062422593D

 61 67  0  0  1  0  0  0  0  0999 V2000
  195.9220  174.5260  141.0380 N   0  0  0  0  0  0  0  0  0  0  0  0
  197.5900  174.2930  143.6640 C   0  0  0  0  0  3  0  0  0  0  0  0
  196.4550  172.0420  144.9390 C   0  0  0  0  0  3  0  0  0  0  0  0
  195.6910  172.1520  141.3220 O   0  0  0  0  0  0  0  0  0  0  0  0
  196.8660  173.3340  142.9540 C   0  0  0  0  0  0  0  0  0  0  0  0
  196.5440  173.2760  141.5130 C   0  0  2  0  0  3  0  0  0  0  0  0
  197.1640  172.9940  145.6880 C   0  0  0  0  0  3  0  0  0  0  0  0
  196.3210  172.2580  143.5640 C   0  0  0  0  0  0  0  0  0  0  0  0
  197.7320  174.1160  145.0530 C   0  0  0  0  0  3  0  0  0  0  0  0
  195.6900  171.4070  142.5320 C   0  0  1  0  0  3  0  0  0  0  0  0
  193.7560  169.8190  142.7200 C   0  0  0  0  0  0  0  0  0  0  0  0
  194.2870  171.0360  142.8990 C   0  0  0  0  0  3  0  0  0  0  0  0
  195.6970  168.7160  141.8120 O   0  0  0  0  0  0  0  0  0  0  0  0
  194.4680  168.6860  142.0880 C   0  0  0  0  0  3  0  0  0  0  0  0
  192.3230  169.6330  143.0900 C   0  0  0  0  0  2  0  0  0  0  0  0
  191.4380  170.6870  142.4280 C   0  0  1  0  0  3  0  0  0  0  0  0
  190.5000  170.0270  141.4370 C   0  0  0  0  0  1  0  0  0  0  0  0
  190.6430  171.5010  143.4550 C   0  0  1  0  0  3  0  0  0  0  0  0
  191.3520  171.6630  144.6520 O   0  0  0  0  0  1  0  0  0  0  0  0
  190.2060  172.8330  142.9120 C   0  0  0  0  0  3  0  0  0  0  0  0
  191.0090  173.5940  142.1630 C   0  0  0  0  0  3  0  0  0  0  0  0
  190.5500  174.9120  141.6320 C   0  0  0  0  0  2  0  0  0  0  0  0
  188.9200  173.8780  140.2900 O   0  0  0  0  0  0  0  0  0  0  0  0
  189.1740  174.8040  141.0450 C   0  0  0  0  0  0  0  0  0  0  0  0
  188.1150  175.8280  141.3440 C   0  0  0  0  0  0  0  0  0  0  0  0
  187.3120  175.9960  140.2310 F   0  0  0  0  0  0  0  0  0  0  0  0
  188.7180  177.0340  141.6560 F   0  0  0  0  0  0  0  0  0  0  0  0
  187.3280  175.4280  142.4130 F   0  0  0  0  0  0  0  0  0  0  0  0
  195.7340  175.4440  142.1630 C   0  0  2  0  0  3  0  0  0  0  0  0
  194.2810  175.4800  142.6200 C   0  0  2  0  0  3  0  0  0  0  0  0
  194.8220  176.5810  141.7330 C   0  0  0  0  0  2  0  0  0  0  0  0
  194.2450  175.9740  144.0570 C   0  0  0  0  0  2  0  0  0  0  0  0
  190.8630  176.0800  145.8730 C   0  0  1  0  0  3  0  0  0  0  0  0
  186.1080  177.6270  145.8220 C   0  0  0  0  0  3  0  0  0  0  0  0
  186.8560  176.7430  146.6040 C   0  0  0  0  0  0  0  0  0  0  0  0
  192.1430  177.3690  143.7590 N   0  0  0  0  0  2  0  0  0  0  0  0
  189.0400  175.5270  147.0920 C   0  0  0  0  0  2  0  0  0  0  0  0
  192.2460  175.6810  145.4650 C   0  0  0  0  0  3  0  0  0  0  0  0
  187.9760  177.9150  144.3590 N   0  0  0  0  0  0  0  0  0  0  0  0
  186.6830  178.1980  144.6830 C   0  0  0  0  0  0  0  0  0  0  0  0
  190.1210  176.6900  144.6780 C   0  0  2  0  0  3  0  0  0  0  0  0
  190.8830  177.8400  144.1920 N   0  0  0  0  0  2  0  0  0  0  0  0
  190.1280  174.9870  146.3660 O   0  0  0  0  0  0  0  0  0  0  0  0
  186.2900  176.1840  147.7420 O   0  0  0  0  0  1  0  0  0  0  0  0
  192.8570  176.3410  144.4730 C   0  0  0  0  0  0  0  0  0  0  0  0
  188.7340  177.0680  145.1110 C   0  0  0  0  0  0  0  0  0  0  0  0
  188.1730  176.4340  146.2360 C   0  0  0  0  0  0  0  0  0  0  0  0
  185.8850  179.1650  143.8730 C   0  0  0  0  0  2  0  0  0  0  0  0
  185.9840  178.8570  142.4530 N   0  0  0  0  0  2  0  0  0  0  0  0
  185.0070  178.1120  140.3480 O   0  0  0  0  0  0  0  0  0  0  0  0
  183.8070  178.0260  142.2980 O   0  0  0  0  0  1  0  0  0  0  0  0
  184.8880  178.3140  141.7180 C   0  0  0  0  0  0  0  0  0  0  0  0
  196.8110  175.2000  140.0890 C   0  0  0  0  0  2  0  0  0  0  0  0
  197.7520  174.1970  139.4420 C   0  0  0  0  0  2  0  0  0  0  0  0
  196.9820  175.4510  137.5670 O   0  0  0  0  0  1  0  0  0  0  0  0
  197.9400  174.5140  137.9660 C   0  0  2  0  0  3  0  0  0  0  0  0
  197.1370  172.1980  137.8950 N   0  0  0  0  0  2  0  0  0  0  0  0
  195.9890  172.0000  135.7990 C   0  0  0  0  0  2  0  0  0  0  0  0
  197.8210  173.2390  137.1380 C   0  0  1  0  0  3  0  0  0  0  0  0
  196.6680  171.2380  136.9150 C   0  0  0  0  0  2  0  0  0  0  0  0
  196.8740  173.5690  135.6160 S   0  0  0  0  0  0  0  0  0  0  0  0
  2  9  1  0  0  0  0
  3  7  1  0  0  0  0
  4  6  1  0  0  0  0
  4 10  1  0  0  0  0
  5  8  1  0  0  0  0
  5  2  2  0  0  0  0
  6  1  1  1  0  0  0
  6  5  1  0  0  0  0
  8  3  2  0  0  0  0
  9  7  2  0  0  0  0
 10 12  1  1  0  0  0
 10  8  1  0  0  0  0
 11 12  2  0  0  0  0
 11 15  1  0  0  0  0
 13 14  2  0  0  0  0
 14 11  1  0  0  0  0
 16 17  1  6  0  0  0
 16 15  1  0  0  0  0
 16 18  1  0  0  0  0
 18 19  1  1  0  0  0
 20 18  1  0  0  0  0
 21 20  2  0  0  0  0
 22 21  1  0  0  0  0
 23 24  2  0  0  0  0
 24 25  1  0  0  0  0
 24 22  1  0  0  0  0
 25 27  1  0  0  0  0
 25 28  1  0  0  0  0
 26 25  1  0  0  0  0
 29  1  1  6  0  0  0
 29 30  1  0  0  0  0
 30 32  1  1  0  0  0
 31 29  1  0  0  0  0
 31 30  1  0  0  0  0
 32 45  1  0  0  0  0
 33 38  1  6  0  0  0
 33 43  1  0  0  0  0
 34 35  1  0  0  0  0
 35 44  1  0  0  0  0
 36 42  1  0  0  0  0
 36 45  1  0  0  0  0
 39 40  1  0  0  0  0
 39 46  2  0  0  0  0
 40 34  2  0  0  0  0
 41 42  1  1  0  0  0
 41 46  1  0  0  0  0
 41 33  1  0  0  0  0
 43 37  1  0  0  0  0
 45 38  2  0  0  0  0
 46 47  1  0  0  0  0
 47 35  2  0  0  0  0
 47 37  1  0  0  0  0
 48 40  1  0  0  0  0
 49 48  1  0  0  0  0
 50 52  2  0  0  0  0
 52 51  1  0  0  0  0
 52 49  1  0  0  0  0
 53  1  1  0  0  0  0
 54 53  1  0  0  0  0
 56 55  1  6  0  0  0
 56 54  1  0  0  0  0
 58 60  1  0  0  0  0
 59 57  1  0  0  0  0
 59 56  1  1  0  0  0
 60 57  1  0  0  0  0
 61 58  1  0  0  0  0
 61 59  1  0  0  0  0
M  END
>  <MODEL>
4

>  <REMARK>
 VINA RESULT:      -6.2      3.308      9.642
  Name = 
  19 active torsions:
  status: ('A' for Active; 'I' for Inactive)
    1  A    between atoms: C_1  and  C_14
    2  A    between atoms: C_12  and  N_37
    3  A    between atoms: C_13  and  C_39
    4  A    between atoms: C_13  and  C_42
    5  A    between atoms: C_14  and  C_19
    6  A    between atoms: N_15  and  C_18
    7  A    between atoms: C_16  and  C_33
    8  A    between atoms: C_16  and  C_54
    9  A    between atoms: C_18  and  C_32
   10  A    between atoms: C_19  and  C_42
   11  A    between atoms: C_20  and  C_53
   12  A    between atoms: C_27  and  C_54
   13  A    between atoms: C_29  and  C_59
   14  A    between atoms: C_31  and  N_37
   15  A    between atoms: C_33  and  N_37
   16  A    between atoms: C_44  and  C_51
   17  A    between atoms: C_50  and  C_53
   18  A    between atoms: C_50  and  C_58
   19  A    between atoms: C_51  and  C_52
                            x       y       z     vdW  Elec       q    Type
                         _______ _______ _______ _____ _____    ______ ____

>  <TORSDO>
F 19

$$$$
=
 OpenBabel11062422593D

 61 67  0  0  1  0  0  0  0  0999 V2000
  196.0160  174.4010  141.2730 N   0  0  0  0  0  0  0  0  0  0  0  0
  197.4830  174.2020  144.0190 C   0  0  0  0  0  3  0  0  0  0  0  0
  196.2400  171.9790  145.2420 C   0  0  0  0  0  3  0  0  0  0  0  0
  195.7470  172.0330  141.5770 O   0  0  0  0  0  0  0  0  0  0  0  0
  196.8060  173.2360  143.2720 C   0  0  0  0  0  0  0  0  0  0  0  0
  196.5920  173.1560  141.8130 C   0  0  2  0  0  3  0  0  0  0  0  0
  196.8980  172.9390  146.0260 C   0  0  0  0  0  3  0  0  0  0  0  0
  196.2100  172.1730  143.8570 C   0  0  0  0  0  0  0  0  0  0  0  0
  197.5190  174.0470  145.4170 C   0  0  0  0  0  3  0  0  0  0  0  0
  195.6520  171.3080  142.7950 C   0  0  1  0  0  3  0  0  0  0  0  0
  193.7060  169.7270  142.8960 C   0  0  0  0  0  0  0  0  0  0  0  0
  194.2230  170.9510  143.0620 C   0  0  0  0  0  3  0  0  0  0  0  0
  194.8220  168.4670  141.1710 O   0  0  0  0  0  0  0  0  0  0  0  0
  194.4660  168.5680  142.3750 C   0  0  0  0  0  3  0  0  0  0  0  0
  192.2470  169.5550  143.1560 C   0  0  0  0  0  2  0  0  0  0  0  0
  191.4280  169.7700  141.8850 C   0  0  1  0  0  3  0  0  0  0  0  0
  190.7450  168.4780  141.4830 C   0  0  0  0  0  1  0  0  0  0  0  0
  190.3970  170.8930  142.0450 C   0  0  1  0  0  3  0  0  0  0  0  0
  190.7160  171.7430  143.1110 O   0  0  0  0  0  1  0  0  0  0  0  0
  190.2060  171.6770  140.7780 C   0  0  0  0  0  3  0  0  0  0  0  0
  191.1880  171.8420  139.8880 C   0  0  0  0  0  3  0  0  0  0  0  0
  190.9710  172.6240  138.6340 C   0  0  0  0  0  2  0  0  0  0  0  0
  188.7800  172.7250  137.7870 O   0  0  0  0  0  0  0  0  0  0  0  0
  189.8130  172.0760  137.8550 C   0  0  0  0  0  0  0  0  0  0  0  0
  189.8900  170.7330  137.1840 C   0  0  0  0  0  0  0  0  0  0  0  0
  189.2470  170.7930  135.9600 F   0  0  0  0  0  0  0  0  0  0  0  0
  189.2660  169.7870  137.9780 F   0  0  0  0  0  0  0  0  0  0  0  0
  191.2080  170.3550  136.9820 F   0  0  0  0  0  0  0  0  0  0  0  0
  195.8190  175.3660  142.3560 C   0  0  2  0  0  3  0  0  0  0  0  0
  194.3480  175.4950  142.7310 C   0  0  2  0  0  3  0  0  0  0  0  0
  194.9950  176.5340  141.8420 C   0  0  0  0  0  2  0  0  0  0  0  0
  194.2630  176.0390  144.1480 C   0  0  0  0  0  2  0  0  0  0  0  0
  190.8400  176.2370  145.8770 C   0  0  1  0  0  3  0  0  0  0  0  0
  186.0670  177.7030  145.6020 C   0  0  0  0  0  3  0  0  0  0  0  0
  186.8090  176.8960  146.4670 C   0  0  0  0  0  0  0  0  0  0  0  0
  192.1500  177.3740  143.6960 N   0  0  0  0  0  2  0  0  0  0  0  0
  188.9980  175.7560  147.0980 C   0  0  0  0  0  2  0  0  0  0  0  0
  192.2370  175.8290  145.5310 C   0  0  0  0  0  3  0  0  0  0  0  0
  187.9630  177.9030  144.1610 N   0  0  0  0  0  0  0  0  0  0  0  0
  186.6590  178.1910  144.4340 C   0  0  0  0  0  0  0  0  0  0  0  0
  190.1170  176.7400  144.6220 C   0  0  2  0  0  3  0  0  0  0  0  0
  190.8740  177.8590  144.0630 N   0  0  0  0  0  2  0  0  0  0  0  0
  190.1090  175.1760  146.4400 O   0  0  0  0  0  0  0  0  0  0  0  0
  186.2250  176.4200  147.6340 O   0  0  0  0  0  1  0  0  0  0  0  0
  192.8610  176.4170  144.5040 C   0  0  0  0  0  0  0  0  0  0  0  0
  188.7150  177.1300  144.9940 C   0  0  0  0  0  0  0  0  0  0  0  0
  188.1370  176.5780  146.1540 C   0  0  0  0  0  0  0  0  0  0  0  0
  185.8670  179.0780  143.5330 C   0  0  0  0  0  2  0  0  0  0  0  0
  185.9550  178.6250  142.1510 N   0  0  0  0  0  2  0  0  0  0  0  0
  184.9300  177.8400  140.0850 O   0  0  0  0  0  0  0  0  0  0  0  0
  183.6800  178.1200  141.9840 O   0  0  0  0  0  1  0  0  0  0  0  0
  184.8070  178.1860  141.4250 C   0  0  0  0  0  0  0  0  0  0  0  0
  196.9480  175.0160  140.3250 C   0  0  0  0  0  2  0  0  0  0  0  0
  197.7200  173.9450  139.5720 C   0  0  0  0  0  2  0  0  0  0  0  0
  197.1350  175.4830  137.8480 O   0  0  0  0  0  1  0  0  0  0  0  0
  197.7130  174.2300  138.0780 C   0  0  2  0  0  3  0  0  0  0  0  0
  197.0600  171.8670  138.0420 N   0  0  0  0  0  2  0  0  0  0  0  0
  194.7010  171.8780  137.6100 C   0  0  0  0  0  2  0  0  0  0  0  0
  196.9420  173.1400  137.3420 C   0  0  1  0  0  3  0  0  0  0  0  0
  195.9640  171.0470  137.5620 C   0  0  0  0  0  2  0  0  0  0  0  0
  195.1770  173.5850  137.2380 S   0  0  0  0  0  0  0  0  0  0  0  0
  2  9  1  0  0  0  0
  3  7  1  0  0  0  0
  4  6  1  0  0  0  0
  4 10  1  0  0  0  0
  5  8  1  0  0  0  0
  5  2  2  0  0  0  0
  6  1  1  1  0  0  0
  6  5  1  0  0  0  0
  8  3  2  0  0  0  0
  9  7  2  0  0  0  0
 10 12  1  1  0  0  0
 10  8  1  0  0  0  0
 11 12  2  0  0  0  0
 11 15  1  0  0  0  0
 13 14  2  0  0  0  0
 14 11  1  0  0  0  0
 16 17  1  1  0  0  0
 16 18  1  0  0  0  0
 16 15  1  0  0  0  0
 18 19  1  1  0  0  0
 20 18  1  0  0  0  0
 21 20  2  0  0  0  0
 22 21  1  0  0  0  0
 23 24  2  0  0  0  0
 24 22  1  0  0  0  0
 25 24  1  0  0  0  0
 25 27  1  0  0  0  0
 26 25  1  0  0  0  0
 28 25  1  0  0  0  0
 29  1  1  6  0  0  0
 29 30  1  0  0  0  0
 30 32  1  1  0  0  0
 31 29  1  0  0  0  0
 31 30  1  0  0  0  0
 32 45  1  0  0  0  0
 33 38  1  6  0  0  0
 33 43  1  0  0  0  0
 34 35  1  0  0  0  0
 35 44  1  0  0  0  0
 36 42  1  0  0  0  0
 36 45  1  0  0  0  0
 39 40  1  0  0  0  0
 39 46  2  0  0  0  0
 40 34  2  0  0  0  0
 41 42  1  1  0  0  0
 41 46  1  0  0  0  0
 41 33  1  0  0  0  0
 43 37  1  0  0  0  0
 45 38  2  0  0  0  0
 46 47  1  0  0  0  0
 47 35  2  0  0  0  0
 47 37  1  0  0  0  0
 48 40  1  0  0  0  0
 49 48  1  0  0  0  0
 50 52  2  0  0  0  0
 52 51  1  0  0  0  0
 52 49  1  0  0  0  0
 53  1  1  0  0  0  0
 54 53  1  0  0  0  0
 56 55  1  1  0  0  0
 56 54  1  0  0  0  0
 59 57  1  0  0  0  0
 59 56  1  1  0  0  0
 60 58  1  0  0  0  0
 60 57  1  0  0  0  0
 61 59  1  0  0  0  0
 61 58  1  0  0  0  0
M  END
>  <MODEL>
5

>  <REMARK>
 VINA RESULT:      -6.2      3.117      9.449
  Name = 
  19 active torsions:
  status: ('A' for Active; 'I' for Inactive)
    1  A    between atoms: C_1  and  C_14
    2  A    between atoms: C_12  and  N_37
    3  A    between atoms: C_13  and  C_39
    4  A    between atoms: C_13  and  C_42
    5  A    between atoms: C_14  and  C_19
    6  A    between atoms: N_15  and  C_18
    7  A    between atoms: C_16  and  C_33
    8  A    between atoms: C_16  and  C_54
    9  A    between atoms: C_18  and  C_32
   10  A    between atoms: C_19  and  C_42
   11  A    between atoms: C_20  and  C_53
   12  A    between atoms: C_27  and  C_54
   13  A    between atoms: C_29  and  C_59
   14  A    between atoms: C_31  and  N_37
   15  A    between atoms: C_33  and  N_37
   16  A    between atoms: C_44  and  C_51
   17  A    between atoms: C_50  and  C_53
   18  A    between atoms: C_50  and  C_58
   19  A    between atoms: C_51  and  C_52
                            x       y       z     vdW  Elec       q    Type
                         _______ _______ _______ _____ _____    ______ ____

>  <TORSDO>
F 19

$$$$
=
 OpenBabel11062422593D

 61 67  0  0  1  0  0  0  0  0999 V2000
  192.9100  171.7010  140.4070 N   0  0  0  0  0  0  0  0  0  0  0  0
  195.3560  172.4960  138.6410 C   0  0  0  0  0  3  0  0  0  0  0  0
  197.2400  173.4040  140.5410 C   0  0  0  0  0  3  0  0  0  0  0  0
  194.6060  171.2980  142.0590 O   0  0  0  0  0  0  0  0  0  0  0  0
  195.2810  172.1260  139.9850 C   0  0  0  0  0  0  0  0  0  0  0  0
  194.2940  171.2660  140.6690 C   0  0  2  0  0  3  0  0  0  0  0  0
  197.3380  173.8090  139.2000 C   0  0  0  0  0  3  0  0  0  0  0  0
  196.1810  172.5620  140.8950 C   0  0  0  0  0  0  0  0  0  0  0  0
  196.4000  173.3560  138.2520 C   0  0  0  0  0  3  0  0  0  0  0  0
  195.8680  171.9370  142.1970 C   0  0  1  0  0  3  0  0  0  0  0  0
  196.0610  172.6780  144.5860 C   0  0  0  0  0  0  0  0  0  0  0  0
  195.8070  172.9470  143.2990 C   0  0  0  0  0  3  0  0  0  0  0  0
  197.5700  170.9280  145.2690 O   0  0  0  0  0  0  0  0  0  0  0  0
  196.3880  171.3310  145.1050 C   0  0  0  0  0  3  0  0  0  0  0  0
  195.9010  173.7910  145.5670 C   0  0  0  0  0  2  0  0  0  0  0  0
  194.5720  174.5170  145.3690 C   0  0  1  0  0  3  0  0  0  0  0  0
  193.4340  173.6700  145.9020 C   0  0  0  0  0  1  0  0  0  0  0  0
  194.5650  175.8990  146.0330 C   0  0  1  0  0  3  0  0  0  0  0  0
  194.8450  176.9190  145.1140 O   0  0  0  0  0  1  0  0  0  0  0  0
  193.2790  176.1770  146.7590 C   0  0  0  0  0  3  0  0  0  0  0  0
  192.1300  176.3990  146.1130 C   0  0  0  0  0  3  0  0  0  0  0  0
  190.8640  176.6690  146.8580 C   0  0  0  0  0  2  0  0  0  0  0  0
  191.1010  174.9760  148.4720 O   0  0  0  0  0  0  0  0  0  0  0  0
  190.4010  175.4440  147.5880 C   0  0  0  0  0  0  0  0  0  0  0  0
  189.1080  174.7660  147.2300 C   0  0  0  0  0  0  0  0  0  0  0  0
  188.5730  174.1710  148.3590 F   0  0  0  0  0  0  0  0  0  0  0  0
  189.3480  173.7930  146.2760 F   0  0  0  0  0  0  0  0  0  0  0  0
  188.1940  175.6770  146.7250 F   0  0  0  0  0  0  0  0  0  0  0  0
  192.6980  173.0400  140.9610 C   0  0  2  0  0  3  0  0  0  0  0  0
  191.2400  173.2630  141.3440 C   0  0  2  0  0  3  0  0  0  0  0  0
  191.7740  173.8210  140.0420 C   0  0  0  0  0  2  0  0  0  0  0  0
  191.1830  174.3780  142.3760 C   0  0  0  0  0  2  0  0  0  0  0  0
  187.8650  176.0400  141.3880 C   0  0  1  0  0  3  0  0  0  0  0  0
  183.8320  178.5930  142.8780 C   0  0  0  0  0  3  0  0  0  0  0  0
  184.3930  178.2560  141.6440 C   0  0  0  0  0  0  0  0  0  0  0  0
  189.1800  175.2070  143.7000 N   0  0  0  0  0  2  0  0  0  0  0  0
  186.2620  177.1900  140.2820 C   0  0  0  0  0  2  0  0  0  0  0  0
  189.2300  175.4330  141.3100 C   0  0  0  0  0  3  0  0  0  0  0  0
  185.7260  177.6570  143.9970 N   0  0  0  0  0  0  0  0  0  0  0  0
  184.5240  178.2990  144.0550 C   0  0  0  0  0  0  0  0  0  0  0  0
  187.6600  176.6910  142.7610 C   0  0  2  0  0  3  0  0  0  0  0  0
  187.8490  175.6740  143.7940 N   0  0  0  0  0  2  0  0  0  0  0  0
  187.6620  177.0020  140.3830 O   0  0  0  0  0  0  0  0  0  0  0  0
  183.7010  178.5380  140.4740 O   0  0  0  0  0  1  0  0  0  0  0  0
  189.8260  175.0040  142.4280 C   0  0  0  0  0  0  0  0  0  0  0  0
  186.2900  177.3030  142.8080 C   0  0  0  0  0  0  0  0  0  0  0  0
  185.6460  177.6300  141.5980 C   0  0  0  0  0  0  0  0  0  0  0  0
  183.9010  178.6350  145.3690 C   0  0  0  0  0  2  0  0  0  0  0  0
  184.5540  177.9120  146.4530 N   0  0  0  0  0  2  0  0  0  0  0  0
  186.0230  177.8340  148.3960 O   0  0  0  0  0  1  0  0  0  0  0  0
  185.8230  179.7460  147.1500 O   0  0  0  0  0  0  0  0  0  0  0  0
  185.4880  178.5450  147.3280 C   0  0  0  0  0  0  0  0  0  0  0  0
  192.6810  171.8040  138.9630 C   0  0  0  0  0  2  0  0  0  0  0  0
  191.8500  170.6270  138.4760 C   0  0  0  0  0  2  0  0  0  0  0  0
  191.9070  171.9340  136.4830 O   0  0  0  0  0  1  0  0  0  0  0  0
  191.1600  170.9670  137.1630 C   0  0  2  0  0  3  0  0  0  0  0  0
  189.4360  171.3970  138.8540 N   0  0  0  0  0  2  0  0  0  0  0  0
  188.6320  173.6050  138.3770 C   0  0  0  0  0  2  0  0  0  0  0  0
  189.7460  171.4720  137.4310 C   0  0  1  0  0  3  0  0  0  0  0  0
  188.3180  172.2960  139.0640 C   0  0  0  0  0  2  0  0  0  0  0  0
  189.5910  173.2070  136.8930 S   0  0  0  0  0  0  0  0  0  0  0  0
  2  5  1  0  0  0  0
  3  8  1  0  0  0  0
  4 10  1  0  0  0  0
  5  6  1  0  0  0  0
  5  8  2  0  0  0  0
  6  1  1  1  0  0  0
  6  4  1  0  0  0  0
  7  3  2  0  0  0  0
  8 10  1  0  0  0  0
  9  2  2  0  0  0  0
  9  7  1  0  0  0  0
 10 12  1  1  0  0  0
 11 14  1  0  0  0  0
 11 15  1  0  0  0  0
 12 11  2  0  0  0  0
 14 13  2  0  0  0  0
 16 15  1  0  0  0  0
 16 17  1  1  0  0  0
 16 18  1  0  0  0  0
 18 19  1  6  0  0  0
 18 20  1  0  0  0  0
 21 20  2  0  0  0  0
 21 22  1  0  0  0  0
 22 24  1  0  0  0  0
 24 23  2  0  0  0  0
 25 24  1  0  0  0  0
 25 26  1  0  0  0  0
 27 25  1  0  0  0  0
 28 25  1  0  0  0  0
 29  1  1  6  0  0  0
 29 30  1  0  0  0  0
 30 32  1  1  0  0  0
 31 29  1  0  0  0  0
 31 30  1  0  0  0  0
 32 45  1  0  0  0  0
 33 38  1  1  0  0  0
 33 41  1  0  0  0  0
 34 40  1  0  0  0  0
 35 34  2  0  0  0  0
 36 42  1  0  0  0  0
 37 43  1  0  0  0  0
 37 47  1  0  0  0  0
 38 45  2  0  0  0  0
 39 40  2  0  0  0  0
 40 48  1  0  0  0  0
 41 46  1  6  0  0  0
 41 42  1  0  0  0  0
 43 33  1  0  0  0  0
 44 35  1  0  0  0  0
 45 36  1  0  0  0  0
 46 39  1  0  0  0  0
 47 35  1  0  0  0  0
 47 46  2  0  0  0  0
 48 49  1  0  0  0  0
 49 52  1  0  0  0  0
 51 52  2  0  0  0  0
 52 50  1  0  0  0  0
 53  1  1  0  0  0  0
 54 53  1  0  0  0  0
 56 55  1  1  0  0  0
 56 54  1  0  0  0  0
 57 60  1  0  0  0  0
 58 60  1  0  0  0  0
 59 56  1  1  0  0  0
 59 57  1  0  0  0  0
 61 59  1  0  0  0  0
 61 58  1  0  0  0  0
M  END
>  <MODEL>
6

>  <REMARK>
 VINA RESULT:      -6.1      3.326      9.815
  Name = 
  19 active torsions:
  status: ('A' for Active; 'I' for Inactive)
    1  A    between atoms: C_1  and  C_14
    2  A    between atoms: C_12  and  N_37
    3  A    between atoms: C_13  and  C_39
    4  A    between atoms: C_13  and  C_42
    5  A    between atoms: C_14  and  C_19
    6  A    between atoms: N_15  and  C_18
    7  A    between atoms: C_16  and  C_33
    8  A    between atoms: C_16  and  C_54
    9  A    between atoms: C_18  and  C_32
   10  A    between atoms: C_19  and  C_42
   11  A    between atoms: C_20  and  C_53
   12  A    between atoms: C_27  and  C_54
   13  A    between atoms: C_29  and  C_59
   14  A    between atoms: C_31  and  N_37
   15  A    between atoms: C_33  and  N_37
   16  A    between atoms: C_44  and  C_51
   17  A    between atoms: C_50  and  C_53
   18  A    between atoms: C_50  and  C_58
   19  A    between atoms: C_51  and  C_52
                            x       y       z     vdW  Elec       q    Type
                         _______ _______ _______ _____ _____    ______ ____

>  <TORSDO>
F 19

$$$$
=
 OpenBabel11062422593D

 61 67  0  0  1  0  0  0  0  0999 V2000
  194.6990  173.2960  142.0130 N   0  0  0  0  0  0  0  0  0  0  0  0
  194.6520  170.5890  140.4640 C   0  0  0  0  0  3  0  0  0  0  0  0
  194.5850  171.4060  137.7610 C   0  0  0  0  0  3  0  0  0  0  0  0
  195.7780  174.0820  140.0160 O   0  0  0  0  0  0  0  0  0  0  0  0
  195.0740  171.8590  140.0700 C   0  0  0  0  0  0  0  0  0  0  0  0
  195.5970  172.9720  140.8900 C   0  0  2  0  0  3  0  0  0  0  0  0
  194.1370  170.1250  138.1210 C   0  0  0  0  0  3  0  0  0  0  0  0
  195.0410  172.2520  138.7770 C   0  0  0  0  0  0  0  0  0  0  0  0
  194.1710  169.7160  139.4690 C   0  0  0  0  0  3  0  0  0  0  0  0
  195.6190  173.6090  138.6860 C   0  0  1  0  0  3  0  0  0  0  0  0
  195.0510  175.0800  136.7350 C   0  0  0  0  0  0  0  0  0  0  0  0
  194.7340  174.5410  137.9180 C   0  0  0  0  0  3  0  0  0  0  0  0
  197.0320  175.8140  135.5740 O   0  0  0  0  0  0  0  0  0  0  0  0
  196.3440  174.8690  136.0440 C   0  0  0  0  0  3  0  0  0  0  0  0
  194.0760  176.0340  136.1300 C   0  0  0  0  0  2  0  0  0  0  0  0
  193.0250  175.3000  135.3000 C   0  0  1  0  0  3  0  0  0  0  0  0
  193.3720  173.8280  135.2090 C   0  0  0  0  0  1  0  0  0  0  0  0
  191.6120  175.4830  135.8670 C   0  0  1  0  0  3  0  0  0  0  0  0
  190.8520  176.3700  135.0940 O   0  0  0  0  0  1  0  0  0  0  0  0
  190.8920  174.1740  136.0360 C   0  0  0  0  0  3  0  0  0  0  0  0
  189.9350  174.0020  136.9530 C   0  0  0  0  0  3  0  0  0  0  0  0
  189.2320  172.6920  137.0980 C   0  0  0  0  0  2  0  0  0  0  0  0
  188.6020  172.3540  139.3380 O   0  0  0  0  0  0  0  0  0  0  0  0
  189.4330  172.1260  138.4730 C   0  0  0  0  0  0  0  0  0  0  0  0
  190.6510  171.3120  138.8100 C   0  0  0  0  0  0  0  0  0  0  0  0
  191.7210  172.1590  139.0380 F   0  0  0  0  0  0  0  0  0  0  0  0
  190.9520  170.4750  137.7500 F   0  0  0  0  0  0  0  0  0  0  0  0
  190.4350  170.5440  139.9440 F   0  0  0  0  0  0  0  0  0  0  0  0
  193.3100  173.0430  141.6250 C   0  0  2  0  0  3  0  0  0  0  0  0
  192.3360  173.8650  142.4610 C   0  0  2  0  0  3  0  0  0  0  0  0
  192.5730  172.4070  142.7910 C   0  0  0  0  0  2  0  0  0  0  0  0
  191.0340  173.9940  141.6890 C   0  0  0  0  0  2  0  0  0  0  0  0
  189.1550  175.9620  144.3980 C   0  0  1  0  0  3  0  0  0  0  0  0
  185.0430  178.5180  145.6520 C   0  0  0  0  0  3  0  0  0  0  0  0
  186.1390  177.9970  146.3450 C   0  0  0  0  0  0  0  0  0  0  0  0
  189.0320  175.5560  141.6430 N   0  0  0  0  0  2  0  0  0  0  0  0
  188.3030  176.6550  146.3750 C   0  0  0  0  0  2  0  0  0  0  0  0
  190.1210  175.0420  143.7200 C   0  0  0  0  0  3  0  0  0  0  0  0
  185.8160  177.4730  143.6450 N   0  0  0  0  0  0  0  0  0  0  0  0
  184.8860  178.2310  144.2930 C   0  0  0  0  0  0  0  0  0  0  0  0
  187.8570  176.0470  143.5860 C   0  0  2  0  0  3  0  0  0  0  0  0
  188.1780  176.5130  142.2380 N   0  0  0  0  0  2  0  0  0  0  0  0
  188.8570  175.5380  145.7040 O   0  0  0  0  0  0  0  0  0  0  0  0
  186.3020  178.2900  147.6930 O   0  0  0  0  0  1  0  0  0  0  0  0
  190.0690  174.8940  142.3920 C   0  0  0  0  0  0  0  0  0  0  0  0
  186.9010  176.9640  144.2930 C   0  0  0  0  0  0  0  0  0  0  0  0
  187.0660  177.1890  145.6740 C   0  0  0  0  0  0  0  0  0  0  0  0
  183.7290  178.8180  143.5550 C   0  0  0  0  0  2  0  0  0  0  0  0
  183.6550  178.2850  142.2010 N   0  0  0  0  0  2  0  0  0  0  0  0
  182.4430  177.8590  140.1300 O   0  0  0  0  0  0  0  0  0  0  0  0
  181.3760  178.7350  141.9580 O   0  0  0  0  0  1  0  0  0  0  0  0
  182.4440  178.3050  141.4470 C   0  0  0  0  0  0  0  0  0  0  0  0
  194.9820  172.4200  143.1520 C   0  0  0  0  0  2  0  0  0  0  0  0
  195.8470  173.1440  144.1730 C   0  0  0  0  0  2  0  0  0  0  0  0
  196.8060  175.2730  143.6960 O   0  0  0  0  0  1  0  0  0  0  0  0
  195.6220  174.6460  144.0960 C   0  0  2  0  0  3  0  0  0  0  0  0
  194.9990  176.6240  145.4050 N   0  0  0  0  0  2  0  0  0  0  0  0
  192.9690  176.0150  146.5260 C   0  0  0  0  0  2  0  0  0  0  0  0
  195.1650  175.1760  145.4510 C   0  0  1  0  0  3  0  0  0  0  0  0
  194.1480  176.9610  146.5300 C   0  0  0  0  0  2  0  0  0  0  0  0
  193.5710  174.4220  145.9100 S   0  0  0  0  0  0  0  0  0  0  0  0
  1 53  1  0  0  0  0
  3  7  2  0  0  0  0
  3  8  1  0  0  0  0
  4  6  1  0  0  0  0
  5  2  1  0  0  0  0
  5  6  1  0  0  0  0
  6  1  1  1  0  0  0
  7  9  1  0  0  0  0
  8  5  2  0  0  0  0
  9  2  2  0  0  0  0
 10 12  1  6  0  0  0
 10  8  1  0  0  0  0
 10  4  1  0  0  0  0
 11 12  2  0  0  0  0
 13 14  2  0  0  0  0
 14 11  1  0  0  0  0
 15 11  1  0  0  0  0
 16 17  1  1  0  0  0
 16 18  1  0  0  0  0
 16 15  1  0  0  0  0
 18 19  1  6  0  0  0
 18 20  1  0  0  0  0
 20 21  2  0  0  0  0
 21 22  1  0  0  0  0
 22 24  1  0  0  0  0
 24 25  1  0  0  0  0
 24 23  2  0  0  0  0
 25 26  1  0  0  0  0
 25 28  1  0  0  0  0
 27 25  1  0  0  0  0
 29  1  1  1  0  0  0
 29 30  1  0  0  0  0
 29 31  1  0  0  0  0
 30 32  1  6  0  0  0
 30 31  1  0  0  0  0
 32 45  1  0  0  0  0
 33 38  1  6  0  0  0
 33 43  1  0  0  0  0
 34 35  1  0  0  0  0
 35 44  1  0  0  0  0
 36 42  1  0  0  0  0
 36 45  1  0  0  0  0
 39 46  2  0  0  0  0
 39 40  1  0  0  0  0
 40 34  2  0  0  0  0
 41 42  1  6  0  0  0
 41 46  1  0  0  0  0
 41 33  1  0  0  0  0
 43 37  1  0  0  0  0
 45 38  2  0  0  0  0
 46 47  1  0  0  0  0
 47 35  2  0  0  0  0
 47 37  1  0  0  0  0
 48 40  1  0  0  0  0
 49 48  1  0  0  0  0
 50 52  2  0  0  0  0
 52 51  1  0  0  0  0
 52 49  1  0  0  0  0
 53 54  1  0  0  0  0
 56 55  1  1  0  0  0
 56 54  1  0  0  0  0
 57 59  1  0  0  0  0
 57 60  1  0  0  0  0
 58 60  1  0  0  0  0
 59 56  1  6  0  0  0
 59 61  1  0  0  0  0
 61 58  1  0  0  0  0
M  END
>  <MODEL>
7

>  <REMARK>
 VINA RESULT:      -5.8      2.913      9.336
  Name = 
  19 active torsions:
  status: ('A' for Active; 'I' for Inactive)
    1  A    between atoms: C_1  and  C_14
    2  A    between atoms: C_12  and  N_37
    3  A    between atoms: C_13  and  C_39
    4  A    between atoms: C_13  and  C_42
    5  A    between atoms: C_14  and  C_19
    6  A    between atoms: N_15  and  C_18
    7  A    between atoms: C_16  and  C_33
    8  A    between atoms: C_16  and  C_54
    9  A    between atoms: C_18  and  C_32
   10  A    between atoms: C_19  and  C_42
   11  A    between atoms: C_20  and  C_53
   12  A    between atoms: C_27  and  C_54
   13  A    between atoms: C_29  and  C_59
   14  A    between atoms: C_31  and  N_37
   15  A    between atoms: C_33  and  N_37
   16  A    between atoms: C_44  and  C_51
   17  A    between atoms: C_50  and  C_53
   18  A    between atoms: C_50  and  C_58
   19  A    between atoms: C_51  and  C_52
                            x       y       z     vdW  Elec       q    Type
                         _______ _______ _______ _____ _____    ______ ____

>  <TORSDO>
F 19

$$$$
=
 OpenBabel11062422593D

 61 67  0  0  1  0  0  0  0  0999 V2000
  187.8400  176.6880  142.5280 N   0  0  0  0  0  0  0  0  0  0  0  0
  186.1860  177.1860  145.1250 C   0  0  0  0  0  3  0  0  0  0  0  0
  188.1380  177.0250  147.1610 C   0  0  0  0  0  3  0  0  0  0  0  0
  189.6180  177.6430  143.8290 O   0  0  0  0  0  0  0  0  0  0  0  0
  187.5430  177.3700  144.8570 C   0  0  0  0  0  0  0  0  0  0  0  0
  188.2170  177.6560  143.5740 C   0  0  2  0  0  3  0  0  0  0  0  0
  186.7830  176.8180  147.4650 C   0  0  0  0  0  3  0  0  0  0  0  0
  188.4780  177.2910  145.8310 C   0  0  0  0  0  0  0  0  0  0  0  0
  185.8090  176.8990  146.4510 C   0  0  0  0  0  3  0  0  0  0  0  0
  189.7960  177.6050  145.2380 C   0  0  1  0  0  3  0  0  0  0  0  0
  191.8750  176.2640  144.8240 C   0  0  0  0  0  0  0  0  0  0  0  0
  190.8240  176.5780  145.5930 C   0  0  0  0  0  3  0  0  0  0  0  0
  192.9140  176.3310  142.6510 O   0  0  0  0  0  0  0  0  0  0  0  0
  192.1380  176.8550  143.4920 C   0  0  0  0  0  3  0  0  0  0  0  0
  192.7770  175.1750  145.3020 C   0  0  0  0  0  2  0  0  0  0  0  0
  194.2180  175.6650  145.4290 C   0  0  1  0  0  3  0  0  0  0  0  0
  194.3010  176.7690  146.4640 C   0  0  0  0  0  1  0  0  0  0  0  0
  195.1850  174.5290  145.7810 C   0  0  1  0  0  3  0  0  0  0  0  0
  194.5600  173.2770  145.7210 O   0  0  0  0  0  1  0  0  0  0  0  0
  196.4210  174.5470  144.9270 C   0  0  0  0  0  3  0  0  0  0  0  0
  196.3830  174.8480  143.6260 C   0  0  0  0  0  3  0  0  0  0  0  0
  197.6280  174.8630  142.8000 C   0  0  0  0  0  2  0  0  0  0  0  0
  197.5290  173.7170  140.7490 O   0  0  0  0  0  0  0  0  0  0  0  0
  197.3020  174.7620  141.3390 C   0  0  0  0  0  0  0  0  0  0  0  0
  196.7320  175.9310  140.5850 C   0  0  0  0  0  0  0  0  0  0  0  0
  197.6540  176.3670  139.6500 F   0  0  0  0  0  0  0  0  0  0  0  0
  196.4620  176.9610  141.4690 F   0  0  0  0  0  0  0  0  0  0  0  0
  195.5620  175.5770  139.9330 F   0  0  0  0  0  0  0  0  0  0  0  0
  188.2070  175.3350  142.9490 C   0  0  2  0  0  3  0  0  0  0  0  0
  189.3690  174.7890  142.1280 C   0  0  2  0  0  3  0  0  0  0  0  0
  187.9510  174.3680  141.8050 C   0  0  0  0  0  2  0  0  0  0  0  0
  190.0420  173.6860  142.9290 C   0  0  0  0  0  2  0  0  0  0  0  0
  193.1680  171.6610  141.9960 C   0  0  1  0  0  3  0  0  0  0  0  0
  196.8360  170.8710  138.6890 C   0  0  0  0  0  3  0  0  0  0  0  0
  196.5690  170.4520  139.9950 C   0  0  0  0  0  0  0  0  0  0  0  0
  191.3520  173.3860  140.7740 N   0  0  0  0  0  2  0  0  0  0  0  0
  195.1210  170.5230  142.0890 C   0  0  0  0  0  2  0  0  0  0  0  0
  192.0570  172.2780  142.7840 C   0  0  0  0  0  3  0  0  0  0  0  0
  194.9390  172.3240  138.7670 N   0  0  0  0  0  0  0  0  0  0  0  0
  196.0130  171.8280  138.0900 C   0  0  0  0  0  0  0  0  0  0  0  0
  193.5200  172.5550  140.8010 C   0  0  2  0  0  3  0  0  0  0  0  0
  192.3230  172.7330  139.9810 N   0  0  0  0  0  2  0  0  0  0  0  0
  194.3180  171.4620  142.7800 O   0  0  0  0  0  0  0  0  0  0  0  0
  197.3790  169.4920  140.5880 O   0  0  0  0  0  1  0  0  0  0  0  0
  191.1720  173.0710  142.1680 C   0  0  0  0  0  0  0  0  0  0  0  0
  194.6460  171.9220  140.0360 C   0  0  0  0  0  0  0  0  0  0  0  0
  195.4820  170.9970  140.6920 C   0  0  0  0  0  0  0  0  0  0  0  0
  196.2890  172.2460  136.6830 C   0  0  0  0  0  2  0  0  0  0  0  0
  195.8310  173.6090  136.4490 N   0  0  0  0  0  2  0  0  0  0  0  0
  196.2220  176.0120  136.3430 O   0  0  0  0  0  0  0  0  0  0  0  0
  197.8430  174.5900  137.1160 O   0  0  0  0  0  1  0  0  0  0  0  0
  196.6790  174.7380  136.6590 C   0  0  0  0  0  0  0  0  0  0  0  0
  186.3870  176.6900  142.3420 C   0  0  0  0  0  2  0  0  0  0  0  0
  186.0060  177.5720  141.1630 C   0  0  0  0  0  2  0  0  0  0  0  0
  185.5190  179.2310  142.8040 O   0  0  0  0  0  1  0  0  0  0  0  0
  185.0590  178.6780  141.6050 C   0  0  2  0  0  3  0  0  0  0  0  0
  182.8360  179.0260  142.5800 N   0  0  0  0  0  2  0  0  0  0  0  0
  181.2960  178.5570  140.8030 C   0  0  0  0  0  2  0  0  0  0  0  0
  183.6500  178.1200  141.7780 C   0  0  1  0  0  3  0  0  0  0  0  0
  181.4580  178.6710  142.3010 C   0  0  0  0  0  2  0  0  0  0  0  0
  182.8570  177.9130  140.1500 S   0  0  0  0  0  0  0  0  0  0  0  0
  2  9  1  0  0  0  0
  3  7  1  0  0  0  0
  4 10  1  0  0  0  0
  5  2  2  0  0  0  0
  5  8  1  0  0  0  0
  6  1  1  6  0  0  0
  6  4  1  0  0  0  0
  6  5  1  0  0  0  0
  8  3  2  0  0  0  0
  9  7  2  0  0  0  0
 10 12  1  6  0  0  0
 10  8  1  0  0  0  0
 11 15  1  0  0  0  0
 11 12  2  0  0  0  0
 13 14  2  0  0  0  0
 14 11  1  0  0  0  0
 15 16  1  0  0  0  0
 16 18  1  0  0  0  0
 16 17  1  1  0  0  0
 18 19  1  6  0  0  0
 20 18  1  0  0  0  0
 21 20  2  0  0  0  0
 22 21  1  0  0  0  0
 23 24  2  0  0  0  0
 24 22  1  0  0  0  0
 25 24  1  0  0  0  0
 25 27  1  0  0  0  0
 26 25  1  0  0  0  0
 28 25  1  0  0  0  0
 29  1  1  6  0  0  0
 30 32  1  1  0  0  0
 30 29  1  0  0  0  0
 31 30  1  0  0  0  0
 31 29  1  0  0  0  0
 33 43  1  0  0  0  0
 33 38  1  1  0  0  0
 34 35  1  0  0  0  0
 35 44  1  0  0  0  0
 35 47  2  0  0  0  0
 36 45  1  0  0  0  0
 37 43  1  0  0  0  0
 39 46  2  0  0  0  0
 40 34  2  0  0  0  0
 40 39  1  0  0  0  0
 41 42  1  6  0  0  0
 41 33  1  0  0  0  0
 42 36  1  0  0  0  0
 45 38  2  0  0  0  0
 45 32  1  0  0  0  0
 46 47  1  0  0  0  0
 46 41  1  0  0  0  0
 47 37  1  0  0  0  0
 48 40  1  0  0  0  0
 49 52  1  0  0  0  0
 49 48  1  0  0  0  0
 50 52  2  0  0  0  0
 52 51  1  0  0  0  0
 53  1  1  0  0  0  0
 54 56  1  0  0  0  0
 54 53  1  0  0  0  0
 56 55  1  1  0  0  0
 58 60  1  0  0  0  0
 59 56  1  6  0  0  0
 59 57  1  0  0  0  0
 60 57  1  0  0  0  0
 61 58  1  0  0  0  0
 61 59  1  0  0  0  0
M  END
>  <MODEL>
8

>  <REMARK>
 VINA RESULT:      -5.8      2.585      3.938
  Name = 
  19 active torsions:
  status: ('A' for Active; 'I' for Inactive)
    1  A    between atoms: C_1  and  C_14
    2  A    between atoms: C_12  and  N_37
    3  A    between atoms: C_13  and  C_39
    4  A    between atoms: C_13  and  C_42
    5  A    between atoms: C_14  and  C_19
    6  A    between atoms: N_15  and  C_18
    7  A    between atoms: C_16  and  C_33
    8  A    between atoms: C_16  and  C_54
    9  A    between atoms: C_18  and  C_32
   10  A    between atoms: C_19  and  C_42
   11  A    between atoms: C_20  and  C_53
   12  A    between atoms: C_27  and  C_54
   13  A    between atoms: C_29  and  C_59
   14  A    between atoms: C_31  and  N_37
   15  A    between atoms: C_33  and  N_37
   16  A    between atoms: C_44  and  C_51
   17  A    between atoms: C_50  and  C_53
   18  A    between atoms: C_50  and  C_58
   19  A    between atoms: C_51  and  C_52
                            x       y       z     vdW  Elec       q    Type
                         _______ _______ _______ _____ _____    ______ ____

>  <TORSDO>
F 19

$$$$
=
 OpenBabel11062422593D

 61 67  0  0  1  0  0  0  0  0999 V2000
  190.4540  177.6560  143.9090 N   0  0  0  0  0  0  0  0  0  0  0  0
  192.2620  176.2000  145.9920 C   0  0  0  0  0  3  0  0  0  0  0  0
  193.6110  174.2750  144.4250 C   0  0  0  0  0  3  0  0  0  0  0  0
  192.2000  177.0190  142.3870 O   0  0  0  0  0  0  0  0  0  0  0  0
  192.3910  176.3380  144.6090 C   0  0  0  0  0  0  0  0  0  0  0  0
  191.8960  177.4100  143.7220 C   0  0  2  0  0  3  0  0  0  0  0  0
  193.4870  174.0940  145.8120 C   0  0  0  0  0  3  0  0  0  0  0  0
  193.0350  175.4160  143.8580 C   0  0  0  0  0  0  0  0  0  0  0  0
  192.8160  175.0540  146.5940 C   0  0  0  0  0  3  0  0  0  0  0  0
  193.0600  175.8900  142.4590 C   0  0  1  0  0  3  0  0  0  0  0  0
  193.3700  174.2540  140.5820 C   0  0  0  0  0  0  0  0  0  0  0  0
  192.5940  174.8350  141.5050 C   0  0  0  0  0  3  0  0  0  0  0  0
  195.2400  174.8920  139.2020 O   0  0  0  0  0  0  0  0  0  0  0  0
  194.7870  174.6110  140.3430 C   0  0  0  0  0  3  0  0  0  0  0  0
  192.7320  173.2570  139.6740 C   0  0  0  0  0  2  0  0  0  0  0  0
  191.7690  173.9320  138.6990 C   0  0  1  0  0  3  0  0  0  0  0  0
  192.2340  173.7100  137.2740 C   0  0  0  0  0  1  0  0  0  0  0  0
  190.3290  173.4380  138.8750 C   0  0  1  0  0  3  0  0  0  0  0  0
  190.1250  172.1990  138.2550 O   0  0  0  0  0  1  0  0  0  0  0  0
  189.9160  173.3840  140.3190 C   0  0  0  0  0  3  0  0  0  0  0  0
  189.0440  172.4820  140.7770 C   0  0  0  0  0  3  0  0  0  0  0  0
  188.6540  172.4470  142.2190 C   0  0  0  0  0  2  0  0  0  0  0  0
  190.2360  170.7440  142.5710 O   0  0  0  0  0  0  0  0  0  0  0  0
  189.6870  171.7300  143.0360 C   0  0  0  0  0  0  0  0  0  0  0  0
  190.0340  172.1850  144.4260 C   0  0  0  0  0  0  0  0  0  0  0  0
  191.3430  171.8380  144.7090 F   0  0  0  0  0  0  0  0  0  0  0  0
  189.1940  171.5660  145.3350 F   0  0  0  0  0  0  0  0  0  0  0  0
  189.8960  173.5590  144.5470 F   0  0  0  0  0  0  0  0  0  0  0  0
  189.7260  177.2780  142.6960 C   0  0  2  0  0  3  0  0  0  0  0  0
  188.2780  177.7470  142.7430 C   0  0  2  0  0  3  0  0  0  0  0  0
  188.6160  176.3070  143.0620 C   0  0  0  0  0  2  0  0  0  0  0  0
  187.7560  177.8300  141.3170 C   0  0  0  0  0  2  0  0  0  0  0  0
  184.1630  178.7200  142.3370 C   0  0  1  0  0  3  0  0  0  0  0  0
  179.2920  178.4750  141.2280 C   0  0  0  0  0  3  0  0  0  0  0  0
  180.0380  178.8460  142.3500 C   0  0  0  0  0  0  0  0  0  0  0  0
  185.5390  177.8430  140.0780 N   0  0  0  0  0  2  0  0  0  0  0  0
  182.2800  179.0990  143.5310 C   0  0  0  0  0  2  0  0  0  0  0  0
  185.6350  178.4600  142.3960 C   0  0  0  0  0  3  0  0  0  0  0  0
  181.2950  177.7680  140.1310 N   0  0  0  0  0  0  0  0  0  0  0  0
  179.9400  177.9170  140.1230 C   0  0  0  0  0  0  0  0  0  0  0  0
  183.5260  177.8660  141.2340 C   0  0  2  0  0  3  0  0  0  0  0  0
  184.1730  178.1850  139.9630 N   0  0  0  0  0  2  0  0  0  0  0  0
  183.5330  178.4410  143.5620 O   0  0  0  0  0  0  0  0  0  0  0  0
  179.3970  179.4100  143.4450 O   0  0  0  0  0  1  0  0  0  0  0  0
  186.2820  178.0790  141.2890 C   0  0  0  0  0  0  0  0  0  0  0  0
  182.0480  178.1340  141.2050 C   0  0  0  0  0  0  0  0  0  0  0  0
  181.4260  178.6520  142.3580 C   0  0  0  0  0  0  0  0  0  0  0  0
  179.1380  177.5530  138.9180 C   0  0  0  0  0  2  0  0  0  0  0  0
  179.8030  176.5100  138.1480 N   0  0  0  0  0  2  0  0  0  0  0  0
  179.7580  174.4610  136.8310 O   0  0  0  0  0  0  0  0  0  0  0  0
  177.8680  175.2320  137.8700 O   0  0  0  0  0  1  0  0  0  0  0  0
  179.0940  175.3870  137.6270 C   0  0  0  0  0  0  0  0  0  0  0  0
  189.9370  176.8140  144.9900 C   0  0  0  0  0  2  0  0  0  0  0  0
  189.4690  177.6750  146.1530 C   0  0  0  0  0  2  0  0  0  0  0  0
  187.9780  175.8190  146.2500 O   0  0  0  0  0  1  0  0  0  0  0  0
  188.3860  176.9610  146.9460 C   0  0  2  0  0  3  0  0  0  0  0  0
  186.8100  178.5430  145.9340 N   0  0  0  0  0  2  0  0  0  0  0  0
  184.6550  177.8900  146.7590 C   0  0  0  0  0  2  0  0  0  0  0  0
  187.2050  177.8980  147.1800 C   0  0  1  0  0  3  0  0  0  0  0  0
  185.4550  179.0170  146.1460 C   0  0  0  0  0  2  0  0  0  0  0  0
  185.7830  176.9590  147.8260 S   0  0  0  0  0  0  0  0  0  0  0  0
  1 53  1  0  0  0  0
  2  9  1  0  0  0  0
  3  7  1  0  0  0  0
  4 10  1  0  0  0  0
  4  6  1  0  0  0  0
  5  2  2  0  0  0  0
  6  1  1  6  0  0  0
  6  5  1  0  0  0  0
  7  9  2  0  0  0  0
  8  3  2  0  0  0  0
  8  5  1  0  0  0  0
 10 12  1  6  0  0  0
 10  8  1  0  0  0  0
 11 12  2  0  0  0  0
 13 14  2  0  0  0  0
 14 11  1  0  0  0  0
 15 11  1  0  0  0  0
 16 17  1  6  0  0  0
 16 18  1  0  0  0  0
 16 15  1  0  0  0  0
 18 19  1  1  0  0  0
 18 20  1  0  0  0  0
 20 21  2  0  0  0  0
 21 22  1  0  0  0  0
 22 24  1  0  0  0  0
 23 24  2  0  0  0  0
 24 25  1  0  0  0  0
 25 28  1  0  0  0  0
 25 26  1  0  0  0  0
 25 27  1  0  0  0  0
 29 30  1  0  0  0  0
 29 31  1  0  0  0  0
 29  1  1  1  0  0  0
 30 32  1  6  0  0  0
 30 31  1  0  0  0  0
 33 38  1  1  0  0  0
 33 43  1  0  0  0  0
 34 35  1  0  0  0  0
 35 47  2  0  0  0  0
 35 44  1  0  0  0  0
 36 45  1  0  0  0  0
 37 43  1  0  0  0  0
 39 46  2  0  0  0  0
 40 39  1  0  0  0  0
 40 34  2  0  0  0  0
 41 42  1  6  0  0  0
 41 33  1  0  0  0  0
 42 36  1  0  0  0  0
 45 32  1  0  0  0  0
 45 38  2  0  0  0  0
 46 41  1  0  0  0  0
 46 47  1  0  0  0  0
 47 37  1  0  0  0  0
 48 40  1  0  0  0  0
 49 48  1  0  0  0  0
 50 52  2  0  0  0  0
 52 51  1  0  0  0  0
 52 49  1  0  0  0  0
 53 54  1  0  0  0  0
 54 56  1  0  0  0  0
 56 55  1  6  0  0  0
 57 60  1  0  0  0  0
 57 59  1  0  0  0  0
 58 61  1  0  0  0  0
 59 56  1  6  0  0  0
 59 61  1  0  0  0  0
 60 58  1  0  0  0  0
M  END
>  <MODEL>
9

>  <REMARK>
 VINA RESULT:      -5.8      3.886      9.783
  Name = 
  19 active torsions:
  status: ('A' for Active; 'I' for Inactive)
    1  A    between atoms: C_1  and  C_14
    2  A    between atoms: C_12  and  N_37
    3  A    between atoms: C_13  and  C_39
    4  A    between atoms: C_13  and  C_42
    5  A    between atoms: C_14  and  C_19
    6  A    between atoms: N_15  and  C_18
    7  A    between atoms: C_16  and  C_33
    8  A    between atoms: C_16  and  C_54
    9  A    between atoms: C_18  and  C_32
   10  A    between atoms: C_19  and  C_42
   11  A    between atoms: C_20  and  C_53
   12  A    between atoms: C_27  and  C_54
   13  A    between atoms: C_29  and  C_59
   14  A    between atoms: C_31  and  N_37
   15  A    between atoms: C_33  and  N_37
   16  A    between atoms: C_44  and  C_51
   17  A    between atoms: C_50  and  C_53
   18  A    between atoms: C_50  and  C_58
   19  A    between atoms: C_51  and  C_52
                            x       y       z     vdW  Elec       q    Type
                         _______ _______ _______ _____ _____    ______ ____

>  <TORSDO>
F 19

$$$$
