=
 OpenBabel11062422343D

 59 62  0  0  1  0  0  0  0  0999 V2000
  195.3150  173.4380  143.3340 C   0  0  2  0  0  3  0  0  0  0  0  0
  192.3510  174.8910  141.8830 C   0  0  0  0  0  3  0  0  0  0  0  0
  193.2090  174.5170  142.7980 C   0  0  0  0  0  0  0  0  0  0  0  0
  194.0540  174.1420  143.7170 C   0  0  0  0  0  3  0  0  0  0  0  0
  190.9820  174.6350  141.9990 O   0  0  0  0  0  0  0  0  0  0  0  0
  190.0770  175.5360  142.6270 C   0  0  2  0  0  3  0  0  0  0  0  0
  189.8520  175.1000  144.0010 N   0  0  0  0  0  2  0  0  0  0  0  0
  191.3730  176.5910  144.9680 O   0  0  0  0  0  0  0  0  0  0  0  0
  190.5100  175.6840  145.1280 C   0  0  0  0  0  0  0  0  0  0  0  0
  190.7720  176.1070  147.5670 C   0  0  0  0  0  1  0  0  0  0  0  0
  190.0970  175.2630  146.4990 C   0  0  1  0  0  3  0  0  0  0  0  0
  188.5850  175.3480  146.6330 C   0  0  0  0  0  2  0  0  0  0  0  0
  188.1250  176.7990  146.6360 C   0  0  0  0  0  2  0  0  0  0  0  0
  186.7270  176.9430  147.2240 C   0  0  0  0  0  2  0  0  0  0  0  0
  184.5480  177.7440  146.3010 C   0  0  0  0  0  1  0  0  0  0  0  0
  185.9870  178.1200  146.6070 C   0  0  0  0  0  2  0  0  0  0  0  0
  187.6390  176.0930  142.7590 C   0  0  2  0  0  3  0  0  0  0  0  0
  188.7530  175.5520  141.8740 C   0  0  2  0  0  3  0  0  0  0  0  0
  187.7890  174.6010  142.5510 C   0  0  0  0  0  2  0  0  0  0  0  0
  186.6030  176.5690  141.9510 O   0  0  0  0  0  0  0  0  0  0  0  0
  185.6370  177.0700  142.8310 C   0  0  0  0  0  2  0  0  0  0  0  0
  184.8820  178.2180  142.1810 C   0  0  2  0  0  3  0  0  0  0  0  0
  182.9120  178.6380  140.5740 C   0  0  0  0  0  2  0  0  0  0  0  0
  183.5990  178.4110  142.8290 N   0  0  0  0  0  0  0  0  0  0  0  0
  181.3090  178.9010  142.5420 N   0  0  0  0  0  2  0  0  0  0  0  0
  182.6210  178.6630  142.0290 C   0  0  0  0  0  0  0  0  0  0  0  0
  184.5600  177.8850  140.4160 S   0  0  0  0  0  0  0  0  0  0  0  0
  179.5390  177.8730  141.5210 C   0  0  0  0  0  1  0  0  0  0  0  0
  180.2250  179.1410  141.6870 N   0  0  0  0  0  2  0  0  0  0  0  0
  196.4360  174.4190  143.2560 C   0  0  0  0  0  0  0  0  0  0  0  0
  197.9410  173.9410  143.7090 S   0  0  0  0  0  0  0  0  0  0  0  0
  197.0660  176.8110  143.0540 C   0  0  0  0  0  1  0  0  0  0  0  0
  196.1740  175.7260  142.8310 O   0  0  0  0  0  0  0  0  0  0  0  0
  195.1580  172.7930  142.0740 O   0  0  0  0  0  0  0  0  0  0  0  0
  195.7780  171.5790  141.7640 C   0  0  0  0  0  0  0  0  0  0  0  0
  196.8270  171.5580  141.0600 O   0  0  0  0  0  0  0  0  0  0  0  0
  195.1960  170.2860  142.2410 C   0  0  2  0  0  3  0  0  0  0  0  0
  193.6860  170.3800  142.3930 C   0  0  0  0  0  2  0  0  0  0  0  0
  193.0070  169.8050  141.1610 C   0  0  0  0  0  2  0  0  0  0  0  0
  189.5740  171.7320  136.2120 C   0  0  0  0  0  2  0  0  0  0  0  0
  191.6140  170.3960  140.9650 C   0  0  2  0  0  3  0  0  0  0  0  0
  190.6420  171.1040  137.0900 C   0  0  0  0  0  2  0  0  0  0  0  0
  189.5590  173.9970  135.6070 O   0  0  0  0  0  0  0  0  0  0  0  0
  190.5930  169.5340  138.8230 C   0  0  0  0  0  2  0  0  0  0  0  0
  188.0130  173.1580  138.4320 O   0  0  0  0  0  1  0  0  0  0  0  0
  189.2000  173.6790  137.9120 C   0  0  2  0  0  3  0  0  0  0  0  0
  189.4390  173.1890  136.5120 C   0  0  0  0  0  0  0  0  0  0  0  0
  190.3980  173.3680  138.8120 C   0  0  0  0  0  2  0  0  0  0  0  0
  190.4230  171.9380  139.3800 C   0  0  2  0  0  3  0  0  0  0  0  0
  190.6480  169.3740  140.3420 C   0  0  0  0  0  2  0  0  0  0  0  0
  191.7250  171.6790  140.1370 C   0  0  0  0  0  2  0  0  0  0  0  0
  190.0840  170.8510  138.4160 N   0  0  1  0  0  0  0  0  0  0  0  0
  195.8630  169.7640  143.5090 C   0  0  0  0  0  2  0  0  0  0  0  0
  194.9320  169.1450  144.3510 O   0  0  0  0  0  0  0  0  0  0  0  0
  194.6160  168.9240  147.1040 O   0  0  0  0  0  1  0  0  0  0  0  0
  195.0700  169.9520  145.8370 P   0  0  2  0  0  0  0  0  0  0  0  0
  194.1600  171.1590  145.8350 O   0  0  0  0  0  0  0  0  0  0  0  0
  196.8210  171.9280  146.2920 N   0  0  0  0  0  1  0  0  0  0  0  0
  196.7850  170.4900  146.0850 C   0  0  0  0  0  2  0  0  0  0  0  0
  1  4  1  6  0  0  0
  2  5  1  0  0  0  0
  2  3  2  0  0  0  0
  3  4  2  0  0  0  0
  6  5  1  6  0  0  0
  6  7  1  0  0  0  0
  7  9  1  0  0  0  0
  8  9  2  0  0  0  0
  9 11  1  0  0  0  0
 11 12  1  0  0  0  0
 11 10  1  1  0  0  0
 12 13  1  0  0  0  0
 13 14  1  0  0  0  0
 15 16  1  0  0  0  0
 16 14  1  0  0  0  0
 17 20  1  6  0  0  0
 18 19  1  0  0  0  0
 18  6  1  1  0  0  0
 18 17  1  0  0  0  0
 19 17  1  0  0  0  0
 20 21  1  0  0  0  0
 22 24  1  0  0  0  0
 22 21  1  1  0  0  0
 23 26  1  0  0  0  0
 26 25  1  0  0  0  0
 26 24  2  0  0  0  0
 27 23  1  0  0  0  0
 27 22  1  0  0  0  0
 28 29  1  0  0  0  0
 29 25  1  0  0  0  0
 30  1  1  0  0  0  0
 30 31  2  0  0  0  0
 33 32  1  0  0  0  0
 33 30  1  0  0  0  0
 34  1  1  0  0  0  0
 35 34  1  0  0  0  0
 35 37  1  0  0  0  0
 36 35  2  0  0  0  0
 37 38  1  1  0  0  0
 37 53  1  0  0  0  0
 39 38  1  0  0  0  0
 40 47  1  0  0  0  0
 40 42  1  0  0  0  0
 41 39  1  6  0  0  0
 43 47  2  0  0  0  0
 44 50  1  0  0  0  0
 46 45  1  1  0  0  0
 46 48  1  0  0  0  0
 47 46  1  0  0  0  0
 49 48  1  6  0  0  0
 49 51  1  0  0  0  0
 50 41  1  0  0  0  0
 51 41  1  0  0  0  0
 52 42  1  6  0  0  0
 52 44  1  0  0  0  0
 52 49  1  0  0  0  0
 53 54  1  0  0  0  0
 54 56  1  0  0  0  0
 56 57  2  6  0  0  0
 56 59  1  0  0  0  0
 56 55  1  0  0  0  0
 59 58  1  0  0  0  0
M  END
>  <MODEL>
1

>  <REMARK>
 VINA RESULT:      -5.7      0.000      0.000
  Name = 
  26 active torsions:
  status: ('A' for Active; 'I' for Inactive)
    1  A    between atoms: C_2  and  O_20
    2  A    between atoms: C_2  and  C_24
    3  A    between atoms: C_4  and  O_6
    4  A    between atoms: O_6  and  C_44
    5  A    between atoms: C_9  and  C_48
    6  A    between atoms: C_10  and  C_40
    7  A    between atoms: C_10  and  O_41
    8  A    between atoms: C_12  and  C_59
    9  A    between atoms: C_15  and  C_30
   10  A    between atoms: C_15  and  C_51
   11  A    between atoms: O_18  and  C_19
   12  A    between atoms: O_18  and  C_40
   13  A    between atoms: C_19  and  C_24
   14  A    between atoms: O_20  and  P_53
   15  A    between atoms: C_21  and  O_31
   16  A    between atoms: C_23  and  C_44
   17  A    between atoms: C_24  and  C_56
   18  A    between atoms: C_30  and  C_46
   19  A    between atoms: O_31  and  C_59
   20  A    between atoms: N_32  and  N_39
   21  A    between atoms: N_34  and  C_59
   22  A    between atoms: C_37  and  C_46
   23  A    between atoms: C_37  and  C_57
   24  A    between atoms: C_40  and  C_47
   25  A    between atoms: C_48  and  C_56
   26  A    between atoms: P_53  and  C_54
                            x       y       z     vdW  Elec       q    Type
                         _______ _______ _______ _____ _____    ______ ____

>  <TORSDO>
F 26

$$$$
=
 OpenBabel11062422343D

 59 62  0  0  1  0  0  0  0  0999 V2000
  192.0230  175.8720  143.2180 C   0  0  2  0  0  3  0  0  0  0  0  0
  195.0610  176.4730  141.3710 C   0  0  0  0  0  3  0  0  0  0  0  0
  194.0040  175.8430  141.8170 C   0  0  0  0  0  0  0  0  0  0  0  0
  192.9580  175.2050  142.2620 C   0  0  0  0  0  3  0  0  0  0  0  0
  196.3280  175.8820  141.3580 O   0  0  0  0  0  0  0  0  0  0  0  0
  196.5240  174.4730  141.3650 C   0  0  2  0  0  3  0  0  0  0  0  0
  197.2520  174.1020  142.5740 N   0  0  0  0  0  2  0  0  0  0  0  0
  195.3600  173.4780  143.8010 O   0  0  0  0  0  0  0  0  0  0  0  0
  196.6170  173.5870  143.7470 C   0  0  0  0  0  0  0  0  0  0  0  0
  196.9880  173.6420  146.2080 C   0  0  0  0  0  1  0  0  0  0  0  0
  197.4700  173.1020  144.8720 C   0  0  1  0  0  3  0  0  0  0  0  0
  197.4880  171.5820  144.8900 C   0  0  0  0  0  2  0  0  0  0  0  0
  196.6910  171.0480  146.0700 C   0  0  0  0  0  2  0  0  0  0  0  0
  195.3680  170.4360  145.6240 C   0  0  0  0  0  2  0  0  0  0  0  0
  194.5470  170.0560  143.2960 C   0  0  0  0  0  1  0  0  0  0  0  0
  195.5390  169.6140  144.3570 C   0  0  0  0  0  2  0  0  0  0  0  0
  196.4490  174.0670  138.8950 C   0  0  2  0  0  3  0  0  0  0  0  0
  197.3250  174.0530  140.1390 C   0  0  2  0  0  3  0  0  0  0  0  0
  196.7560  172.7600  139.5960 C   0  0  0  0  0  2  0  0  0  0  0  0
  197.2620  174.1850  137.7640 O   0  0  0  0  0  0  0  0  0  0  0  0
  196.3860  174.2740  136.6760 C   0  0  0  0  0  2  0  0  0  0  0  0
  195.7690  175.6620  136.6150 C   0  0  2  0  0  3  0  0  0  0  0  0
  194.6950  177.2810  134.9210 C   0  0  0  0  0  2  0  0  0  0  0  0
  194.3250  175.5690  136.5160 N   0  0  0  0  0  0  0  0  0  0  0  0
  192.3640  176.4390  135.5320 N   0  0  0  0  0  2  0  0  0  0  0  0
  193.7830  176.4060  135.7010 C   0  0  0  0  0  0  0  0  0  0  0  0
  196.3590  176.5860  135.1570 S   0  0  0  0  0  0  0  0  0  0  0  0
  190.3430  176.9980  134.6200 C   0  0  0  0  0  1  0  0  0  0  0  0
  191.7580  177.3170  134.6250 N   0  0  0  0  0  2  0  0  0  0  0  0
  192.6080  175.8560  144.5900 C   0  0  0  0  0  0  0  0  0  0  0  0
  192.2040  174.6350  145.6110 S   0  0  0  0  0  0  0  0  0  0  0  0
  194.8440  176.7100  145.2470 C   0  0  0  0  0  1  0  0  0  0  0  0
  193.4590  176.8950  144.9840 O   0  0  0  0  0  0  0  0  0  0  0  0
  190.7670  175.2040  143.2280 O   0  0  0  0  0  0  0  0  0  0  0  0
  190.4660  174.1450  142.3650 C   0  0  0  0  0  0  0  0  0  0  0  0
  190.6110  172.9490  142.7460 O   0  0  0  0  0  0  0  0  0  0  0  0
  189.9880  174.4120  140.9730 C   0  0  2  0  0  3  0  0  0  0  0  0
  188.4780  174.5890  140.9300 C   0  0  0  0  0  2  0  0  0  0  0  0
  188.1050  175.9670  141.4500 C   0  0  0  0  0  2  0  0  0  0  0  0
  185.5020  179.8260  145.7300 C   0  0  0  0  0  2  0  0  0  0  0  0
  186.9000  175.9050  142.3820 C   0  0  2  0  0  3  0  0  0  0  0  0
  186.3430  179.2550  144.6030 C   0  0  0  0  0  2  0  0  0  0  0  0
  186.0440  179.5940  148.0000 O   0  0  0  0  0  0  0  0  0  0  0  0
  185.8330  178.1850  142.5870 C   0  0  0  0  0  2  0  0  0  0  0  0
  184.1840  177.2050  146.6190 O   0  0  0  0  0  1  0  0  0  0  0  0
  185.4880  177.5400  146.9930 C   0  0  2  0  0  3  0  0  0  0  0  0
  185.6880  179.0290  146.9800 C   0  0  0  0  0  0  0  0  0  0  0  0
  186.5270  176.8400  146.1150 C   0  0  0  0  0  2  0  0  0  0  0  0
  186.1890  176.8130  144.6140 C   0  0  2  0  0  3  0  0  0  0  0  0
  185.7620  176.8210  141.9000 C   0  0  0  0  0  2  0  0  0  0  0  0
  187.3500  176.2310  143.8090 C   0  0  0  0  0  2  0  0  0  0  0  0
  185.6670  178.0880  144.0440 N   0  0  1  0  0  0  0  0  0  0  0  0
  190.4660  173.3690  139.9680 C   0  0  0  0  0  2  0  0  0  0  0  0
  189.5970  172.2720  139.9270 O   0  0  0  0  0  0  0  0  0  0  0  0
  189.8930  170.1340  138.1750 O   0  0  0  0  0  0  0  0  0  0  0  0
  190.5700  170.9500  139.4950 P   0  0  2  0  0  0  0  0  0  0  0  0
  190.6640  169.9980  140.6650 O   0  0  0  0  0  1  0  0  0  0  0  0
  193.2190  170.8600  139.8830 N   0  0  0  0  0  1  0  0  0  0  0  0
  192.2320  171.5320  139.0550 C   0  0  0  0  0  2  0  0  0  0  0  0
  1  4  1  6  0  0  0
  1 34  1  0  0  0  0
  1 30  1  0  0  0  0
  2  3  2  0  0  0  0
  3  4  2  0  0  0  0
  5  2  1  0  0  0  0
  6  5  1  6  0  0  0
  6  7  1  0  0  0  0
  7  9  1  0  0  0  0
  9  8  2  0  0  0  0
  9 11  1  0  0  0  0
 11 12  1  0  0  0  0
 11 10  1  1  0  0  0
 12 13  1  0  0  0  0
 14 13  1  0  0  0  0
 15 16  1  0  0  0  0
 16 14  1  0  0  0  0
 17 20  1  6  0  0  0
 17 19  1  0  0  0  0
 17 18  1  0  0  0  0
 18  6  1  1  0  0  0
 19 18  1  0  0  0  0
 21 20  1  0  0  0  0
 22 21  1  6  0  0  0
 23 27  1  0  0  0  0
 23 26  1  0  0  0  0
 24 22  1  0  0  0  0
 25 26  1  0  0  0  0
 26 24  2  0  0  0  0
 27 22  1  0  0  0  0
 28 29  1  0  0  0  0
 29 25  1  0  0  0  0
 30 33  1  0  0  0  0
 30 31  2  0  0  0  0
 33 32  1  0  0  0  0
 35 36  2  0  0  0  0
 35 34  1  0  0  0  0
 37 53  1  6  0  0  0
 37 35  1  0  0  0  0
 38 37  1  0  0  0  0
 38 39  1  0  0  0  0
 40 47  1  0  0  0  0
 41 39  1  6  0  0  0
 41 51  1  0  0  0  0
 42 40  1  0  0  0  0
 46 45  1  6  0  0  0
 47 46  1  0  0  0  0
 47 43  2  0  0  0  0
 48 46  1  0  0  0  0
 49 51  1  6  0  0  0
 49 48  1  0  0  0  0
 50 41  1  0  0  0  0
 50 44  1  0  0  0  0
 52 44  1  6  0  0  0
 52 42  1  0  0  0  0
 52 49  1  0  0  0  0
 54 53  1  0  0  0  0
 56 55  2  6  0  0  0
 56 54  1  0  0  0  0
 56 57  1  0  0  0  0
 59 56  1  0  0  0  0
 59 58  1  0  0  0  0
M  END
>  <MODEL>
2

>  <REMARK>
 VINA RESULT:      -5.6      3.684      9.339
  Name = 
  26 active torsions:
  status: ('A' for Active; 'I' for Inactive)
    1  A    between atoms: C_2  and  O_20
    2  A    between atoms: C_2  and  C_24
    3  A    between atoms: C_4  and  O_6
    4  A    between atoms: O_6  and  C_44
    5  A    between atoms: C_9  and  C_48
    6  A    between atoms: C_10  and  C_40
    7  A    between atoms: C_10  and  O_41
    8  A    between atoms: C_12  and  C_59
    9  A    between atoms: C_15  and  C_30
   10  A    between atoms: C_15  and  C_51
   11  A    between atoms: O_18  and  C_19
   12  A    between atoms: O_18  and  C_40
   13  A    between atoms: C_19  and  C_24
   14  A    between atoms: O_20  and  P_53
   15  A    between atoms: C_21  and  O_31
   16  A    between atoms: C_23  and  C_44
   17  A    between atoms: C_24  and  C_56
   18  A    between atoms: C_30  and  C_46
   19  A    between atoms: O_31  and  C_59
   20  A    between atoms: N_32  and  N_39
   21  A    between atoms: N_34  and  C_59
   22  A    between atoms: C_37  and  C_46
   23  A    between atoms: C_37  and  C_57
   24  A    between atoms: C_40  and  C_47
   25  A    between atoms: C_48  and  C_56
   26  A    between atoms: P_53  and  C_54
                            x       y       z     vdW  Elec       q    Type
                         _______ _______ _______ _____ _____    ______ ____

>  <TORSDO>
F 26

$$$$
=
 OpenBabel11062422343D

 59 62  0  0  1  0  0  0  0  0999 V2000
  190.1200  175.3500  142.6230 C   0  0  2  0  0  3  0  0  0  0  0  0
  191.7550  172.3260  143.7080 C   0  0  0  0  0  3  0  0  0  0  0  0
  191.3360  173.2700  142.9050 C   0  0  0  0  0  0  0  0  0  0  0  0
  190.9180  174.2030  142.0960 C   0  0  0  0  0  3  0  0  0  0  0  0
  191.5980  170.9700  143.4070 O   0  0  0  0  0  0  0  0  0  0  0  0
  192.6740  170.0390  143.4500 C   0  0  2  0  0  3  0  0  0  0  0  0
  193.5210  170.3480  144.5980 N   0  0  0  0  0  2  0  0  0  0  0  0
  193.5420  168.1750  145.4620 O   0  0  0  0  0  0  0  0  0  0  0  0
  193.9400  169.3690  145.5500 C   0  0  0  0  0  0  0  0  0  0  0  0
  195.3410  168.5750  147.4490 C   0  0  0  0  0  1  0  0  0  0  0  0
  194.9250  169.7650  146.6010 C   0  0  1  0  0  3  0  0  0  0  0  0
  196.1420  170.4060  145.9540 C   0  0  0  0  0  2  0  0  0  0  0  0
  196.5740  169.6230  144.7230 C   0  0  0  0  0  2  0  0  0  0  0  0
  197.9350  170.0820  144.2140 C   0  0  0  0  0  2  0  0  0  0  0  0
  197.3320  171.5810  142.3090 C   0  0  0  0  0  1  0  0  0  0  0  0
  197.9340  170.2430  142.7020 C   0  0  0  0  0  2  0  0  0  0  0  0
  193.4360  168.8240  141.3980 C   0  0  2  0  0  3  0  0  0  0  0  0
  193.4950  170.1330  142.1710 C   0  0  2  0  0  3  0  0  0  0  0  0
  194.6450  169.1530  142.2490 C   0  0  0  0  0  2  0  0  0  0  0  0
  193.7370  169.0700  140.0560 O   0  0  0  0  0  0  0  0  0  0  0  0
  192.6000  168.6840  139.3360 C   0  0  0  0  0  2  0  0  0  0  0  0
  192.3900  169.6130  138.1520 C   0  0  2  0  0  3  0  0  0  0  0  0
  190.5420  170.3520  136.5160 C   0  0  0  0  0  2  0  0  0  0  0  0
  191.6520  170.7930  138.5610 N   0  0  0  0  0  0  0  0  0  0  0  0
  189.9780  172.3550  137.9930 N   0  0  0  0  0  2  0  0  0  0  0  0
  190.7560  171.1880  137.7240 C   0  0  0  0  0  0  0  0  0  0  0  0
  191.4320  168.7970  136.8310 S   0  0  0  0  0  0  0  0  0  0  0  0
  189.6230  173.6110  136.1150 C   0  0  0  0  0  1  0  0  0  0  0  0
  188.9750  172.7810  137.1130 N   0  0  0  0  0  2  0  0  0  0  0  0
  188.9280  175.5780  141.7540 C   0  0  0  0  0  0  0  0  0  0  0  0
  188.6030  174.5040  140.5560 S   0  0  0  0  0  0  0  0  0  0  0  0
  187.1620  177.1650  141.0290 C   0  0  0  0  0  1  0  0  0  0  0  0
  188.1380  176.7150  141.9610 O   0  0  0  0  0  0  0  0  0  0  0  0
  190.9150  176.5300  142.6590 O   0  0  0  0  0  0  0  0  0  0  0  0
  191.3400  177.1200  143.8540 C   0  0  0  0  0  0  0  0  0  0  0  0
  190.8760  178.2380  144.2160 O   0  0  0  0  0  0  0  0  0  0  0  0
  192.3670  176.4470  144.7100 C   0  0  2  0  0  3  0  0  0  0  0  0
  192.1790  176.7950  146.1780 C   0  0  0  0  0  2  0  0  0  0  0  0
  191.8610  175.5370  146.9700 C   0  0  0  0  0  2  0  0  0  0  0  0
  186.2570  177.5070  144.8020 C   0  0  0  0  0  2  0  0  0  0  0  0
  190.4330  175.5600  147.5050 C   0  0  2  0  0  3  0  0  0  0  0  0
  187.7130  177.0940  144.9140 C   0  0  0  0  0  2  0  0  0  0  0  0
  185.4670  179.6420  145.3660 O   0  0  0  0  0  0  0  0  0  0  0  0
  188.7910  175.1460  145.6320 C   0  0  0  0  0  2  0  0  0  0  0  0
  185.5650  177.3590  147.7850 O   0  0  0  0  0  1  0  0  0  0  0  0
  186.2480  178.4480  147.2390 C   0  0  2  0  0  3  0  0  0  0  0  0
  185.9440  178.5980  145.7750 C   0  0  0  0  0  0  0  0  0  0  0  0
  187.7560  178.3490  147.4780 C   0  0  0  0  0  2  0  0  0  0  0  0
  188.3510  176.9450  147.2720 C   0  0  2  0  0  3  0  0  0  0  0  0
  189.5480  174.5170  146.8010 C   0  0  0  0  0  2  0  0  0  0  0  0
  189.8740  176.9800  147.3850 C   0  0  0  0  0  2  0  0  0  0  0  0
  187.8740  176.2100  146.0650 N   0  0  1  0  0  0  0  0  0  0  0  0
  193.7950  176.7070  144.2430 C   0  0  0  0  0  2  0  0  0  0  0  0
  194.7220  176.0680  145.0750 O   0  0  0  0  0  0  0  0  0  0  0  0
  194.6080  174.6290  142.7000 O   0  0  0  0  0  0  0  0  0  0  0  0
  195.5400  174.9720  144.0710 P   0  0  2  0  0  0  0  0  0  0  0  0
  195.7860  173.6880  144.8310 O   0  0  0  0  0  1  0  0  0  0  0  0
  197.0000  176.2560  142.2280 N   0  0  0  0  0  1  0  0  0  0  0  0
  197.1290  175.6820  143.5560 C   0  0  0  0  0  2  0  0  0  0  0  0
  1  4  1  6  0  0  0
  1 34  1  0  0  0  0
  3  2  2  0  0  0  0
  4  3  2  0  0  0  0
  5  2  1  0  0  0  0
  6  5  1  6  0  0  0
  6  7  1  0  0  0  0
  7  9  1  0  0  0  0
  8  9  2  0  0  0  0
  9 11  1  0  0  0  0
 11 10  1  6  0  0  0
 12 11  1  0  0  0  0
 13 12  1  0  0  0  0
 14 13  1  0  0  0  0
 15 16  1  0  0  0  0
 16 14  1  0  0  0  0
 17 20  1  6  0  0  0
 17 18  1  0  0  0  0
 17 19  1  0  0  0  0
 18 19  1  0  0  0  0
 18  6  1  1  0  0  0
 21 20  1  0  0  0  0
 22 24  1  0  0  0  0
 22 21  1  1  0  0  0
 23 27  1  0  0  0  0
 23 26  1  0  0  0  0
 26 25  1  0  0  0  0
 26 24  2  0  0  0  0
 27 22  1  0  0  0  0
 28 29  1  0  0  0  0
 29 25  1  0  0  0  0
 30 33  1  0  0  0  0
 30  1  1  0  0  0  0
 31 30  2  0  0  0  0
 32 33  1  0  0  0  0
 34 35  1  0  0  0  0
 35 36  2  0  0  0  0
 35 37  1  0  0  0  0
 37 53  1  6  0  0  0
 37 38  1  0  0  0  0
 38 39  1  0  0  0  0
 40 42  1  0  0  0  0
 40 47  1  0  0  0  0
 41 39  1  6  0  0  0
 43 47  2  0  0  0  0
 44 52  1  0  0  0  0
 44 50  1  0  0  0  0
 46 48  1  0  0  0  0
 46 45  1  6  0  0  0
 47 46  1  0  0  0  0
 49 51  1  6  0  0  0
 49 48  1  0  0  0  0
 50 41  1  0  0  0  0
 51 41  1  0  0  0  0
 52 42  1  6  0  0  0
 52 49  1  0  0  0  0
 53 54  1  0  0  0  0
 56 55  2  6  0  0  0
 56 57  1  0  0  0  0
 56 54  1  0  0  0  0
 58 59  1  0  0  0  0
 59 56  1  0  0  0  0
M  END
>  <MODEL>
3

>  <REMARK>
 VINA RESULT:      -5.3      3.428      9.294
  Name = 
  26 active torsions:
  status: ('A' for Active; 'I' for Inactive)
    1  A    between atoms: C_2  and  O_20
    2  A    between atoms: C_2  and  C_24
    3  A    between atoms: C_4  and  O_6
    4  A    between atoms: O_6  and  C_44
    5  A    between atoms: C_9  and  C_48
    6  A    between atoms: C_10  and  C_40
    7  A    between atoms: C_10  and  O_41
    8  A    between atoms: C_12  and  C_59
    9  A    between atoms: C_15  and  C_30
   10  A    between atoms: C_15  and  C_51
   11  A    between atoms: O_18  and  C_19
   12  A    between atoms: O_18  and  C_40
   13  A    between atoms: C_19  and  C_24
   14  A    between atoms: O_20  and  P_53
   15  A    between atoms: C_21  and  O_31
   16  A    between atoms: C_23  and  C_44
   17  A    between atoms: C_24  and  C_56
   18  A    between atoms: C_30  and  C_46
   19  A    between atoms: O_31  and  C_59
   20  A    between atoms: N_32  and  N_39
   21  A    between atoms: N_34  and  C_59
   22  A    between atoms: C_37  and  C_46
   23  A    between atoms: C_37  and  C_57
   24  A    between atoms: C_40  and  C_47
   25  A    between atoms: C_48  and  C_56
   26  A    between atoms: P_53  and  C_54
                            x       y       z     vdW  Elec       q    Type
                         _______ _______ _______ _____ _____    ______ ____

>  <TORSDO>
F 26

$$$$
=
 OpenBabel11062422343D

 59 62  0  0  1  0  0  0  0  0999 V2000
  187.6250  175.6420  141.9900 C   0  0  2  0  0  3  0  0  0  0  0  0
  188.8970  173.4930  139.3900 C   0  0  0  0  0  3  0  0  0  0  0  0
  188.8960  174.3580  140.3720 C   0  0  0  0  0  0  0  0  0  0  0  0
  188.9060  175.2270  141.3450 C   0  0  0  0  0  3  0  0  0  0  0  0
  189.6130  173.7090  138.2090 O   0  0  0  0  0  0  0  0  0  0  0  0
  190.8680  173.0930  137.9430 C   0  0  2  0  0  3  0  0  0  0  0  0
  190.8120  171.6990  138.3700 N   0  0  0  0  0  2  0  0  0  0  0  0
  190.9150  170.7930  136.2170 O   0  0  0  0  0  0  0  0  0  0  0  0
  190.8660  170.5970  137.4630 C   0  0  0  0  0  0  0  0  0  0  0  0
  190.7760  168.1670  136.9290 C   0  0  0  0  0  1  0  0  0  0  0  0
  190.9490  169.2130  138.0170 C   0  0  1  0  0  3  0  0  0  0  0  0
  192.2770  169.0200  138.7310 C   0  0  0  0  0  2  0  0  0  0  0  0
  192.0570  168.5610  140.1650 C   0  0  0  0  0  2  0  0  0  0  0  0
  190.6920  168.9920  140.6890 C   0  0  0  0  0  2  0  0  0  0  0  0
  190.5740  171.2130  141.8260 C   0  0  0  0  0  1  0  0  0  0  0  0
  190.8160  169.7260  142.0150 C   0  0  0  0  0  2  0  0  0  0  0  0
  193.2230  173.9380  137.8450 C   0  0  2  0  0  3  0  0  0  0  0  0
  191.9730  173.8150  138.7030 C   0  0  2  0  0  3  0  0  0  0  0  0
  193.1330  172.8650  138.9100 C   0  0  0  0  0  2  0  0  0  0  0  0
  194.0040  174.9950  138.3220 O   0  0  0  0  0  0  0  0  0  0  0  0
  195.1940  174.9480  137.5870 C   0  0  0  0  0  2  0  0  0  0  0  0
  196.3800  174.7730  138.5210 C   0  0  2  0  0  3  0  0  0  0  0  0
  196.9200  173.9670  140.9090 C   0  0  0  0  0  2  0  0  0  0  0  0
  196.7400  173.3720  138.6230 N   0  0  0  0  0  0  0  0  0  0  0  0
  197.4520  171.6270  140.0430 N   0  0  0  0  0  2  0  0  0  0  0  0
  197.0510  172.9780  139.8100 C   0  0  0  0  0  0  0  0  0  0  0  0
  195.9910  175.3630  140.2030 S   0  0  0  0  0  0  0  0  0  0  0  0
  197.4790  169.7460  141.3440 C   0  0  0  0  0  1  0  0  0  0  0  0
  197.7590  171.1700  141.3310 N   0  0  0  0  0  2  0  0  0  0  0  0
  187.2970  177.0460  141.6030 C   0  0  0  0  0  0  0  0  0  0  0  0
  186.7880  178.0910  142.7630 S   0  0  0  0  0  0  0  0  0  0  0  0
  186.3740  177.1930  139.3030 C   0  0  0  0  0  1  0  0  0  0  0  0
  187.4000  177.4270  140.2600 O   0  0  0  0  0  0  0  0  0  0  0  0
  187.7330  175.5520  143.4070 O   0  0  0  0  0  0  0  0  0  0  0  0
  188.9070  175.1510  144.0520 C   0  0  0  0  0  0  0  0  0  0  0  0
  189.4910  174.0840  143.7110 O   0  0  0  0  0  0  0  0  0  0  0  0
  189.4750  175.9660  145.1700 C   0  0  2  0  0  3  0  0  0  0  0  0
  190.7350  175.3290  145.7350 C   0  0  0  0  0  2  0  0  0  0  0  0
  191.6950  176.4110  146.2030 C   0  0  0  0  0  2  0  0  0  0  0  0
  195.4180  171.7060  144.2030 C   0  0  0  0  0  2  0  0  0  0  0  0
  193.0370  176.3140  145.4850 C   0  0  2  0  0  3  0  0  0  0  0  0
  194.2450  172.5150  144.7290 C   0  0  0  0  0  2  0  0  0  0  0  0
  197.1850  170.9580  145.5500 O   0  0  0  0  0  0  0  0  0  0  0  0
  193.0430  174.3440  143.9040 C   0  0  0  0  0  2  0  0  0  0  0  0
  197.4860  173.9700  144.1670 O   0  0  0  0  0  1  0  0  0  0  0  0
  197.1410  173.3020  145.3460 C   0  0  2  0  0  3  0  0  0  0  0  0
  196.6270  171.9210  145.0540 C   0  0  0  0  0  0  0  0  0  0  0  0
  196.1300  174.0990  146.1730 C   0  0  0  0  0  2  0  0  0  0  0  0
  195.0030  174.7550  145.3570 C   0  0  2  0  0  3  0  0  0  0  0  0
  192.8680  175.8570  144.0260 C   0  0  0  0  0  2  0  0  0  0  0  0
  193.9690  175.3960  146.2820 C   0  0  0  0  0  2  0  0  0  0  0  0
  194.3890  173.9030  144.2980 N   0  0  1  0  0  0  0  0  0  0  0  0
  188.4560  176.2740  146.2610 C   0  0  0  0  0  2  0  0  0  0  0  0
  187.9590  177.5770  146.1360 O   0  0  0  0  0  0  0  0  0  0  0  0
  186.1790  177.0760  148.2110 O   0  0  0  0  0  1  0  0  0  0  0  0
  186.3230  177.4730  146.5720 P   0  0  2  0  0  0  0  0  0  0  0  0
  185.6540  176.3980  145.7460 O   0  0  0  0  0  0  0  0  0  0  0  0
  184.1980  178.8360  145.6770 N   0  0  0  0  0  1  0  0  0  0  0  0
  185.5060  179.0650  146.2650 C   0  0  0  0  0  2  0  0  0  0  0  0
  1  4  1  6  0  0  0
  1 34  1  0  0  0  0
  2  3  2  0  0  0  0
  3  4  2  0  0  0  0
  5  2  1  0  0  0  0
  6  5  1  1  0  0  0
  6  7  1  0  0  0  0
  8  9  2  0  0  0  0
  9 11  1  0  0  0  0
  9  7  1  0  0  0  0
 11 10  1  6  0  0  0
 11 12  1  0  0  0  0
 12 13  1  0  0  0  0
 13 14  1  0  0  0  0
 14 16  1  0  0  0  0
 15 16  1  0  0  0  0
 17 20  1  1  0  0  0
 17 18  1  0  0  0  0
 17 19  1  0  0  0  0
 18  6  1  6  0  0  0
 18 19  1  0  0  0  0
 21 20  1  0  0  0  0
 22 21  1  6  0  0  0
 22 24  1  0  0  0  0
 22 27  1  0  0  0  0
 24 26  2  0  0  0  0
 25 29  1  0  0  0  0
 26 25  1  0  0  0  0
 26 23  1  0  0  0  0
 27 23  1  0  0  0  0
 29 28  1  0  0  0  0
 30  1  1  0  0  0  0
 30 31  2  0  0  0  0
 32 33  1  0  0  0  0
 33 30  1  0  0  0  0
 34 35  1  0  0  0  0
 35 37  1  0  0  0  0
 36 35  2  0  0  0  0
 37 38  1  1  0  0  0
 37 53  1  0  0  0  0
 38 39  1  0  0  0  0
 40 42  1  0  0  0  0
 40 47  1  0  0  0  0
 41 39  1  1  0  0  0
 41 51  1  0  0  0  0
 44 50  1  0  0  0  0
 46 45  1  6  0  0  0
 46 48  1  0  0  0  0
 47 46  1  0  0  0  0
 47 43  2  0  0  0  0
 49 48  1  1  0  0  0
 49 51  1  0  0  0  0
 50 41  1  0  0  0  0
 52 44  1  1  0  0  0
 52 42  1  0  0  0  0
 52 49  1  0  0  0  0
 54 53  1  0  0  0  0
 54 56  1  0  0  0  0
 56 57  2  6  0  0  0
 56 55  1  0  0  0  0
 58 59  1  0  0  0  0
 59 56  1  0  0  0  0
M  END
>  <MODEL>
4

>  <REMARK>
 VINA RESULT:      -5.3      3.235     10.625
  Name = 
  26 active torsions:
  status: ('A' for Active; 'I' for Inactive)
    1  A    between atoms: C_2  and  O_20
    2  A    between atoms: C_2  and  C_24
    3  A    between atoms: C_4  and  O_6
    4  A    between atoms: O_6  and  C_44
    5  A    between atoms: C_9  and  C_48
    6  A    between atoms: C_10  and  C_40
    7  A    between atoms: C_10  and  O_41
    8  A    between atoms: C_12  and  C_59
    9  A    between atoms: C_15  and  C_30
   10  A    between atoms: C_15  and  C_51
   11  A    between atoms: O_18  and  C_19
   12  A    between atoms: O_18  and  C_40
   13  A    between atoms: C_19  and  C_24
   14  A    between atoms: O_20  and  P_53
   15  A    between atoms: C_21  and  O_31
   16  A    between atoms: C_23  and  C_44
   17  A    between atoms: C_24  and  C_56
   18  A    between atoms: C_30  and  C_46
   19  A    between atoms: O_31  and  C_59
   20  A    between atoms: N_32  and  N_39
   21  A    between atoms: N_34  and  C_59
   22  A    between atoms: C_37  and  C_46
   23  A    between atoms: C_37  and  C_57
   24  A    between atoms: C_40  and  C_47
   25  A    between atoms: C_48  and  C_56
   26  A    between atoms: P_53  and  C_54
                            x       y       z     vdW  Elec       q    Type
                         _______ _______ _______ _____ _____    ______ ____

>  <TORSDO>
F 26

$$$$
=
 OpenBabel11062422343D

 59 62  0  0  1  0  0  0  0  0999 V2000
  190.1670  175.2350  142.4830 C   0  0  2  0  0  3  0  0  0  0  0  0
  190.8440  171.6950  142.3800 C   0  0  0  0  0  3  0  0  0  0  0  0
  190.7710  172.9390  141.9820 C   0  0  0  0  0  0  0  0  0  0  0  0
  190.6960  174.1750  141.5730 C   0  0  0  0  0  3  0  0  0  0  0  0
  190.3780  170.6350  141.5970 O   0  0  0  0  0  0  0  0  0  0  0  0
  191.2160  169.9070  140.7060 C   0  0  2  0  0  3  0  0  0  0  0  0
  192.5020  169.6690  141.3540 N   0  0  0  0  0  2  0  0  0  0  0  0
  193.3070  168.1870  139.7330 O   0  0  0  0  0  0  0  0  0  0  0  0
  193.5130  168.8210  140.8050 C   0  0  0  0  0  0  0  0  0  0  0  0
  195.9690  168.6000  140.4660 C   0  0  0  0  0  1  0  0  0  0  0  0
  194.8460  168.7650  141.4750 C   0  0  1  0  0  3  0  0  0  0  0  0
  195.0600  170.0200  142.3060 C   0  0  0  0  0  2  0  0  0  0  0  0
  195.4580  169.6620  143.7300 C   0  0  0  0  0  2  0  0  0  0  0  0
  194.3890  170.0780  144.7330 C   0  0  0  0  0  2  0  0  0  0  0  0
  196.3720  170.6600  146.1360 C   0  0  0  0  0  1  0  0  0  0  0  0
  194.9480  170.1320  146.1460 C   0  0  0  0  0  2  0  0  0  0  0  0
  190.0960  171.1170  138.8220 C   0  0  2  0  0  3  0  0  0  0  0  0
  191.4300  170.7020  139.4250 C   0  0  2  0  0  3  0  0  0  0  0  0
  190.8490  169.9290  138.2610 C   0  0  0  0  0  2  0  0  0  0  0  0
  190.2940  172.2230  137.9900 O   0  0  0  0  0  0  0  0  0  0  0  0
  189.8420  171.8290  136.7250 C   0  0  0  0  0  2  0  0  0  0  0  0
  190.1820  172.8930  135.6940 C   0  0  2  0  0  3  0  0  0  0  0  0
  190.8600  175.3760  135.5570 C   0  0  0  0  0  2  0  0  0  0  0  0
  191.6130  173.1330  135.6700 N   0  0  0  0  0  0  0  0  0  0  0  0
  193.3300  174.7410  135.4940 N   0  0  0  0  0  2  0  0  0  0  0  0
  191.9520  174.3710  135.5590 C   0  0  0  0  0  0  0  0  0  0  0  0
  189.3680  174.4780  136.0830 S   0  0  0  0  0  0  0  0  0  0  0  0
  195.1640  176.1060  135.5570 C   0  0  0  0  0  1  0  0  0  0  0  0
  193.7210  176.0830  135.4090 N   0  0  0  0  0  2  0  0  0  0  0  0
  188.8220  175.6790  142.0130 C   0  0  0  0  0  0  0  0  0  0  0  0
  187.6160  174.5700  141.8990 S   0  0  0  0  0  0  0  0  0  0  0  0
  187.4140  177.5090  141.1040 C   0  0  0  0  0  1  0  0  0  0  0  0
  188.6300  177.0170  141.6530 O   0  0  0  0  0  0  0  0  0  0  0  0
  191.0520  176.3490  142.5120 O   0  0  0  0  0  0  0  0  0  0  0  0
  191.4470  176.9710  143.7010 C   0  0  0  0  0  0  0  0  0  0  0  0
  191.0050  178.1160  144.0010 O   0  0  0  0  0  0  0  0  0  0  0  0
  192.4130  176.3000  144.6250 C   0  0  2  0  0  3  0  0  0  0  0  0
  192.2650  176.8110  146.0490 C   0  0  0  0  0  2  0  0  0  0  0  0
  192.0350  175.6430  146.9950 C   0  0  0  0  0  2  0  0  0  0  0  0
  186.3100  177.2730  144.8610 C   0  0  0  0  0  2  0  0  0  0  0  0
  190.6230  175.6600  147.5700 C   0  0  2  0  0  3  0  0  0  0  0  0
  187.7820  176.9150  144.9580 C   0  0  0  0  0  2  0  0  0  0  0  0
  185.4650  179.4170  145.2940 O   0  0  0  0  0  0  0  0  0  0  0  0
  188.9440  175.0600  145.7810 C   0  0  0  0  0  2  0  0  0  0  0  0
  185.7060  177.3200  147.8670 O   0  0  0  0  0  1  0  0  0  0  0  0
  186.3370  178.3880  147.2230 C   0  0  2  0  0  3  0  0  0  0  0  0
  185.9880  178.4210  145.7620 C   0  0  0  0  0  0  0  0  0  0  0  0
  187.8530  178.3540  147.4230 C   0  0  0  0  0  2  0  0  0  0  0  0
  188.4890  176.9580  147.3000 C   0  0  2  0  0  3  0  0  0  0  0  0
  189.7540  174.5420  146.9690 C   0  0  0  0  0  2  0  0  0  0  0  0
  190.0130  177.0500  147.3660 C   0  0  0  0  0  2  0  0  0  0  0  0
  188.0040  176.1220  146.1640 N   0  0  1  0  0  0  0  0  0  0  0  0
  193.8570  176.3840  144.1400 C   0  0  0  0  0  2  0  0  0  0  0  0
  194.4100  175.1080  143.9780 O   0  0  0  0  0  0  0  0  0  0  0  0
  194.5620  176.4070  141.5250 O   0  0  0  0  0  0  0  0  0  0  0  0
  195.1850  175.1480  142.4690 P   0  0  2  0  0  0  0  0  0  0  0  0
  194.9500  173.8370  141.7540 O   0  0  0  0  0  1  0  0  0  0  0  0
  197.3600  174.9130  144.0150 N   0  0  0  0  0  1  0  0  0  0  0  0
  196.9680  175.3960  142.7030 C   0  0  0  0  0  2  0  0  0  0  0  0
  1  4  1  6  0  0  0
  1 34  1  0  0  0  0
  3  2  2  0  0  0  0
  4  3  2  0  0  0  0
  5  2  1  0  0  0  0
  6  7  1  1  0  0  0
  6  5  1  0  0  0  0
  8  9  2  0  0  0  0
  9  7  1  0  0  0  0
  9 11  1  0  0  0  0
 11 10  1  6  0  0  0
 11 12  1  0  0  0  0
 12 13  1  0  0  0  0
 13 14  1  0  0  0  0
 14 16  1  0  0  0  0
 15 16  1  0  0  0  0
 17 20  1  6  0  0  0
 17 18  1  0  0  0  0
 18  6  1  1  0  0  0
 19 17  1  0  0  0  0
 19 18  1  0  0  0  0
 21 20  1  0  0  0  0
 22 27  1  0  0  0  0
 22 21  1  1  0  0  0
 23 26  1  0  0  0  0
 23 27  1  0  0  0  0
 24 22  1  0  0  0  0
 25 26  1  0  0  0  0
 26 24  2  0  0  0  0
 29 25  1  0  0  0  0
 29 28  1  0  0  0  0
 30  1  1  0  0  0  0
 31 30  2  0  0  0  0
 32 33  1  0  0  0  0
 33 30  1  0  0  0  0
 34 35  1  0  0  0  0
 35 36  2  0  0  0  0
 35 37  1  0  0  0  0
 37 53  1  6  0  0  0
 37 38  1  0  0  0  0
 38 39  1  0  0  0  0
 40 42  1  0  0  0  0
 40 47  1  0  0  0  0
 41 39  1  6  0  0  0
 43 47  2  0  0  0  0
 44 52  1  0  0  0  0
 44 50  1  0  0  0  0
 46 48  1  0  0  0  0
 46 45  1  6  0  0  0
 47 46  1  0  0  0  0
 49 51  1  6  0  0  0
 49 48  1  0  0  0  0
 50 41  1  0  0  0  0
 51 41  1  0  0  0  0
 52 42  1  6  0  0  0
 52 49  1  0  0  0  0
 54 53  1  0  0  0  0
 56 55  2  6  0  0  0
 56 59  1  0  0  0  0
 56 54  1  0  0  0  0
 57 56  1  0  0  0  0
 59 58  1  0  0  0  0
M  END
>  <MODEL>
5

>  <REMARK>
 VINA RESULT:      -5.1      3.484      9.216
  Name = 
  26 active torsions:
  status: ('A' for Active; 'I' for Inactive)
    1  A    between atoms: C_2  and  O_20
    2  A    between atoms: C_2  and  C_24
    3  A    between atoms: C_4  and  O_6
    4  A    between atoms: O_6  and  C_44
    5  A    between atoms: C_9  and  C_48
    6  A    between atoms: C_10  and  C_40
    7  A    between atoms: C_10  and  O_41
    8  A    between atoms: C_12  and  C_59
    9  A    between atoms: C_15  and  C_30
   10  A    between atoms: C_15  and  C_51
   11  A    between atoms: O_18  and  C_19
   12  A    between atoms: O_18  and  C_40
   13  A    between atoms: C_19  and  C_24
   14  A    between atoms: O_20  and  P_53
   15  A    between atoms: C_21  and  O_31
   16  A    between atoms: C_23  and  C_44
   17  A    between atoms: C_24  and  C_56
   18  A    between atoms: C_30  and  C_46
   19  A    between atoms: O_31  and  C_59
   20  A    between atoms: N_32  and  N_39
   21  A    between atoms: N_34  and  C_59
   22  A    between atoms: C_37  and  C_46
   23  A    between atoms: C_37  and  C_57
   24  A    between atoms: C_40  and  C_47
   25  A    between atoms: C_48  and  C_56
   26  A    between atoms: P_53  and  C_54
                            x       y       z     vdW  Elec       q    Type
                         _______ _______ _______ _____ _____    ______ ____

>  <TORSDO>
F 26

$$$$
=
 OpenBabel11062422343D

 59 62  0  0  1  0  0  0  0  0999 V2000
  188.2030  176.2770  144.8740 C   0  0  2  0  0  3  0  0  0  0  0  0
  188.3540  178.1350  141.7880 C   0  0  0  0  0  3  0  0  0  0  0  0
  187.9800  177.7950  142.9950 C   0  0  0  0  0  0  0  0  0  0  0  0
  187.5950  177.4590  144.1950 C   0  0  0  0  0  3  0  0  0  0  0  0
  187.4330  178.4240  140.7770 O   0  0  0  0  0  0  0  0  0  0  0  0
  186.3460  177.5640  140.4530 C   0  0  2  0  0  3  0  0  0  0  0  0
  186.6610  176.8490  139.2200 N   0  0  0  0  0  2  0  0  0  0  0  0
  187.8790  175.1380  140.2490 O   0  0  0  0  0  0  0  0  0  0  0  0
  187.4070  175.6300  139.1870 C   0  0  0  0  0  0  0  0  0  0  0  0
  187.4790  175.8630  136.7100 C   0  0  0  0  0  1  0  0  0  0  0  0
  187.5440  174.9070  137.8890 C   0  0  1  0  0  3  0  0  0  0  0  0
  188.8490  174.1270  137.8660 C   0  0  0  0  0  2  0  0  0  0  0  0
  189.4460  174.1140  136.4660 C   0  0  0  0  0  2  0  0  0  0  0  0
  190.3470  172.9050  136.2510 C   0  0  0  0  0  2  0  0  0  0  0  0
  190.4890  170.4200  136.4570 C   0  0  0  0  0  1  0  0  0  0  0  0
  189.8040  171.6770  136.9630 C   0  0  0  0  0  2  0  0  0  0  0  0
  183.9890  177.9220  141.2180 C   0  0  2  0  0  3  0  0  0  0  0  0
  185.0760  178.3820  140.2570 C   0  0  2  0  0  3  0  0  0  0  0  0
  183.9710  177.4680  139.7740 C   0  0  0  0  0  2  0  0  0  0  0  0
  183.0630  178.9550  141.3890 O   0  0  0  0  0  0  0  0  0  0  0  0
  181.9940  178.3900  142.0950 C   0  0  0  0  0  2  0  0  0  0  0  0
  180.7370  178.4050  141.2400 C   0  0  2  0  0  3  0  0  0  0  0  0
  178.4080  179.5040  141.1580 C   0  0  0  0  0  2  0  0  0  0  0  0
  180.6690  179.6270  140.4630 N   0  0  0  0  0  0  0  0  0  0  0  0
  179.2860  181.3460  139.6270 N   0  0  0  0  0  2  0  0  0  0  0  0
  179.4960  180.1550  140.3860 C   0  0  0  0  0  0  0  0  0  0  0  0
  179.2340  178.3250  142.2710 S   0  0  0  0  0  0  0  0  0  0  0  0
  178.2410  183.3760  139.7610 C   0  0  0  0  0  1  0  0  0  0  0  0
  178.0260  181.9550  139.5600 N   0  0  0  0  0  2  0  0  0  0  0  0
  188.1090  176.4410  146.3540 C   0  0  0  0  0  0  0  0  0  0  0  0
  186.8510  177.2910  146.9800 S   0  0  0  0  0  0  0  0  0  0  0  0
  189.0940  174.5470  147.6210 C   0  0  0  0  0  1  0  0  0  0  0  0
  189.1090  175.8950  147.1680 O   0  0  0  0  0  0  0  0  0  0  0  0
  189.5690  176.1380  144.4960 O   0  0  0  0  0  0  0  0  0  0  0  0
  190.0720  174.9840  143.8880 C   0  0  0  0  0  0  0  0  0  0  0  0
  189.5170  173.8650  144.0800 O   0  0  0  0  0  0  0  0  0  0  0  0
  191.2880  175.0520  143.0180 C   0  0  2  0  0  3  0  0  0  0  0  0
  191.6410  173.6860  142.4520 C   0  0  0  0  0  2  0  0  0  0  0  0
  190.6770  173.3260  141.3340 C   0  0  0  0  0  2  0  0  0  0  0  0
  196.7240  173.0980  139.4950 C   0  0  0  0  0  2  0  0  0  0  0  0
  191.4190  172.8580  140.0860 C   0  0  2  0  0  3  0  0  0  0  0  0
  195.4530  173.2340  140.3150 C   0  0  0  0  0  2  0  0  0  0  0  0
  197.6180  174.8310  138.1920 O   0  0  0  0  0  0  0  0  0  0  0  0
  193.6330  171.8230  140.7220 C   0  0  0  0  0  2  0  0  0  0  0  0
  195.4000  172.8170  136.7430 O   0  0  0  0  0  1  0  0  0  0  0  0
  195.5530  174.0590  137.3660 C   0  0  2  0  0  3  0  0  0  0  0  0
  196.7020  174.0390  138.3340 C   0  0  0  0  0  0  0  0  0  0  0  0
  194.2640  174.5100  138.0550 C   0  0  0  0  0  2  0  0  0  0  0  0
  193.5210  173.4030  138.8230 C   0  0  2  0  0  3  0  0  0  0  0  0
  192.1800  171.5450  140.3380 C   0  0  0  0  0  2  0  0  0  0  0  0
  192.3370  173.9820  139.5950 C   0  0  0  0  0  2  0  0  0  0  0  0
  194.3750  172.5050  139.6530 N   0  0  1  0  0  0  0  0  0  0  0  0
  192.4790  175.7060  143.7100 C   0  0  0  0  0  2  0  0  0  0  0  0
  193.3400  174.7430  144.2500 O   0  0  0  0  0  0  0  0  0  0  0  0
  195.4570  176.5000  143.8550 O   0  0  0  0  0  0  0  0  0  0  0  0
  194.5770  175.6250  145.0060 P   0  0  2  0  0  0  0  0  0  0  0  0
  195.5090  174.6690  145.7140 O   0  0  0  0  0  1  0  0  0  0  0  0
  192.8240  176.0960  146.9760 N   0  0  0  0  0  1  0  0  0  0  0  0
  193.8580  176.7730  146.2140 C   0  0  0  0  0  2  0  0  0  0  0  0
  1  4  1  6  0  0  0
  1 30  1  0  0  0  0
  2  3  2  0  0  0  0
  3  4  2  0  0  0  0
  5  2  1  0  0  0  0
  6  7  1  6  0  0  0
  6  5  1  0  0  0  0
  9  7  1  0  0  0  0
  9  8  2  0  0  0  0
 11 10  1  6  0  0  0
 11  9  1  0  0  0  0
 12 11  1  0  0  0  0
 13 12  1  0  0  0  0
 14 13  1  0  0  0  0
 14 16  1  0  0  0  0
 15 16  1  0  0  0  0
 17 20  1  6  0  0  0
 18  6  1  1  0  0  0
 18 17  1  0  0  0  0
 19 18  1  0  0  0  0
 19 17  1  0  0  0  0
 20 21  1  0  0  0  0
 22 21  1  1  0  0  0
 22 27  1  0  0  0  0
 23 27  1  0  0  0  0
 24 22  1  0  0  0  0
 25 26  1  0  0  0  0
 26 24  2  0  0  0  0
 26 23  1  0  0  0  0
 29 25  1  0  0  0  0
 29 28  1  0  0  0  0
 30 31  2  0  0  0  0
 30 33  1  0  0  0  0
 33 32  1  0  0  0  0
 34  1  1  0  0  0  0
 35 36  2  0  0  0  0
 35 34  1  0  0  0  0
 37 38  1  1  0  0  0
 37 53  1  0  0  0  0
 37 35  1  0  0  0  0
 39 38  1  0  0  0  0
 40 42  1  0  0  0  0
 41 50  1  0  0  0  0
 41 39  1  1  0  0  0
 43 47  2  0  0  0  0
 46 45  1  1  0  0  0
 46 48  1  0  0  0  0
 46 47  1  0  0  0  0
 47 40  1  0  0  0  0
 49 48  1  1  0  0  0
 49 51  1  0  0  0  0
 49 52  1  0  0  0  0
 50 44  1  0  0  0  0
 51 41  1  0  0  0  0
 52 42  1  1  0  0  0
 52 44  1  0  0  0  0
 53 54  1  0  0  0  0
 54 56  1  0  0  0  0
 56 55  2  6  0  0  0
 56 57  1  0  0  0  0
 56 59  1  0  0  0  0
 59 58  1  0  0  0  0
M  END
>  <MODEL>
6

>  <REMARK>
 VINA RESULT:      -5.0      3.426      6.929
  Name = 
  26 active torsions:
  status: ('A' for Active; 'I' for Inactive)
    1  A    between atoms: C_2  and  O_20
    2  A    between atoms: C_2  and  C_24
    3  A    between atoms: C_4  and  O_6
    4  A    between atoms: O_6  and  C_44
    5  A    between atoms: C_9  and  C_48
    6  A    between atoms: C_10  and  C_40
    7  A    between atoms: C_10  and  O_41
    8  A    between atoms: C_12  and  C_59
    9  A    between atoms: C_15  and  C_30
   10  A    between atoms: C_15  and  C_51
   11  A    between atoms: O_18  and  C_19
   12  A    between atoms: O_18  and  C_40
   13  A    between atoms: C_19  and  C_24
   14  A    between atoms: O_20  and  P_53
   15  A    between atoms: C_21  and  O_31
   16  A    between atoms: C_23  and  C_44
   17  A    between atoms: C_24  and  C_56
   18  A    between atoms: C_30  and  C_46
   19  A    between atoms: O_31  and  C_59
   20  A    between atoms: N_32  and  N_39
   21  A    between atoms: N_34  and  C_59
   22  A    between atoms: C_37  and  C_46
   23  A    between atoms: C_37  and  C_57
   24  A    between atoms: C_40  and  C_47
   25  A    between atoms: C_48  and  C_56
   26  A    between atoms: P_53  and  C_54
                            x       y       z     vdW  Elec       q    Type
                         _______ _______ _______ _____ _____    ______ ____

>  <TORSDO>
F 26

$$$$
=
 OpenBabel11062422343D

 59 62  0  0  1  0  0  0  0  0999 V2000
  186.9620  176.8920  145.2000 C   0  0  2  0  0  3  0  0  0  0  0  0
  188.0580  177.9910  141.9460 C   0  0  0  0  0  3  0  0  0  0  0  0
  187.4040  177.9840  143.0790 C   0  0  0  0  0  0  0  0  0  0  0  0
  186.7420  177.9820  144.2030 C   0  0  0  0  0  3  0  0  0  0  0  0
  187.4190  178.2000  140.7200 O   0  0  0  0  0  0  0  0  0  0  0  0
  186.2790  177.4550  140.3060 C   0  0  2  0  0  3  0  0  0  0  0  0
  186.5370  176.8910  138.9850 N   0  0  0  0  0  2  0  0  0  0  0  0
  187.8790  175.1320  139.7440 O   0  0  0  0  0  0  0  0  0  0  0  0
  187.3210  175.7150  138.7740 C   0  0  0  0  0  0  0  0  0  0  0  0
  187.0730  176.1830  136.3410 C   0  0  0  0  0  1  0  0  0  0  0  0
  187.3990  175.1410  137.3980 C   0  0  1  0  0  3  0  0  0  0  0  0
  188.7810  174.5560  137.1570 C   0  0  0  0  0  2  0  0  0  0  0  0
  189.3160  174.9800  135.7970 C   0  0  0  0  0  2  0  0  0  0  0  0
  189.9990  173.8230  135.0770 C   0  0  0  0  0  2  0  0  0  0  0  0
  189.3960  171.6940  136.2370 C   0  0  0  0  0  1  0  0  0  0  0  0
  190.4640  172.7590  136.0590 C   0  0  0  0  0  2  0  0  0  0  0  0
  184.0040  177.9200  141.2430 C   0  0  2  0  0  3  0  0  0  0  0  0
  185.0590  178.3650  140.2420 C   0  0  2  0  0  3  0  0  0  0  0  0
  183.8650  177.5570  139.7800 C   0  0  0  0  0  2  0  0  0  0  0  0
  183.1630  178.9980  141.5330 O   0  0  0  0  0  0  0  0  0  0  0  0
  181.9840  178.4340  142.0330 C   0  0  0  0  0  2  0  0  0  0  0  0
  180.8980  178.4660  140.9700 C   0  0  2  0  0  3  0  0  0  0  0  0
  178.4400  179.1780  140.6680 C   0  0  0  0  0  2  0  0  0  0  0  0
  180.7120  179.8180  140.4780 N   0  0  0  0  0  0  0  0  0  0  0  0
  179.1660  181.4570  139.7770 N   0  0  0  0  0  2  0  0  0  0  0  0
  179.4850  180.1610  140.2870 C   0  0  0  0  0  0  0  0  0  0  0  0
  179.2970  177.9020  141.6400 S   0  0  0  0  0  0  0  0  0  0  0  0
  177.6920  183.1290  140.2870 C   0  0  0  0  0  1  0  0  0  0  0  0
  177.8370  181.8610  139.5960 N   0  0  0  0  0  2  0  0  0  0  0  0
  186.5300  177.3510  146.5520 C   0  0  0  0  0  0  0  0  0  0  0  0
  185.0940  176.8220  147.1490 S   0  0  0  0  0  0  0  0  0  0  0  0
  186.8240  179.2480  148.1260 C   0  0  0  0  0  1  0  0  0  0  0  0
  187.3410  178.2420  147.2640 O   0  0  0  0  0  0  0  0  0  0  0  0
  188.3360  176.5260  145.2370 O   0  0  0  0  0  0  0  0  0  0  0  0
  188.8060  175.4240  145.9580 C   0  0  0  0  0  0  0  0  0  0  0  0
  188.3580  175.1760  147.1130 O   0  0  0  0  0  0  0  0  0  0  0  0
  189.8620  174.5340  145.3820 C   0  0  2  0  0  3  0  0  0  0  0  0
  189.6290  173.0800  145.7620 C   0  0  0  0  0  2  0  0  0  0  0  0
  190.1470  172.1690  144.6610 C   0  0  0  0  0  2  0  0  0  0  0  0
  191.9640  170.6680  138.7930 C   0  0  0  0  0  2  0  0  0  0  0  0
  190.3430  172.9300  143.3540 C   0  0  2  0  0  3  0  0  0  0  0  0
  191.5050  170.6040  140.2380 C   0  0  0  0  0  2  0  0  0  0  0  0
  194.2040  170.9390  138.1550 O   0  0  0  0  0  0  0  0  0  0  0  0
  189.6720  171.4850  141.3940 C   0  0  0  0  0  2  0  0  0  0  0  0
  192.4110  173.6980  138.6470 O   0  0  0  0  0  1  0  0  0  0  0  0
  193.3430  172.8420  139.2400 C   0  0  2  0  0  3  0  0  0  0  0  0
  193.2320  171.4520  138.6800 C   0  0  0  0  0  0  0  0  0  0  0  0
  193.2120  172.8300  140.7640 C   0  0  0  0  0  2  0  0  0  0  0  0
  191.7660  172.7990  141.2870 C   0  0  2  0  0  3  0  0  0  0  0  0
  189.2350  172.6050  142.3380 C   0  0  0  0  0  2  0  0  0  0  0  0
  191.7430  172.6380  142.8070 C   0  0  0  0  0  2  0  0  0  0  0  0
  190.8440  171.8580  140.5880 N   0  0  1  0  0  0  0  0  0  0  0  0
  191.2770  174.9890  145.7230 C   0  0  0  0  0  2  0  0  0  0  0  0
  191.3280  176.3740  145.9220 O   0  0  0  0  0  0  0  0  0  0  0  0
  191.7320  178.4220  144.0880 O   0  0  0  0  0  1  0  0  0  0  0  0
  192.3390  176.9630  144.6940 P   0  0  2  0  0  0  0  0  0  0  0  0
  192.4020  175.9530  143.5720 O   0  0  0  0  0  0  0  0  0  0  0  0
  194.8140  176.0430  145.1500 N   0  0  0  0  0  1  0  0  0  0  0  0
  194.0080  177.2340  145.3550 C   0  0  0  0  0  2  0  0  0  0  0  0
  1  4  1  6  0  0  0
  1 34  1  0  0  0  0
  1 30  1  0  0  0  0
  2  3  2  0  0  0  0
  3  4  2  0  0  0  0
  5  2  1  0  0  0  0
  6  7  1  6  0  0  0
  6  5  1  0  0  0  0
  9  7  1  0  0  0  0
  9  8  2  0  0  0  0
 11 10  1  6  0  0  0
 11  9  1  0  0  0  0
 12 11  1  0  0  0  0
 13 12  1  0  0  0  0
 14 13  1  0  0  0  0
 14 16  1  0  0  0  0
 16 15  1  0  0  0  0
 17 20  1  6  0  0  0
 18  6  1  1  0  0  0
 18 17  1  0  0  0  0
 19 18  1  0  0  0  0
 19 17  1  0  0  0  0
 20 21  1  0  0  0  0
 22 27  1  0  0  0  0
 22 21  1  1  0  0  0
 23 27  1  0  0  0  0
 24 22  1  0  0  0  0
 25 26  1  0  0  0  0
 26 24  2  0  0  0  0
 26 23  1  0  0  0  0
 29 25  1  0  0  0  0
 29 28  1  0  0  0  0
 30 31  2  0  0  0  0
 30 33  1  0  0  0  0
 33 32  1  0  0  0  0
 34 35  1  0  0  0  0
 35 36  2  0  0  0  0
 37 53  1  1  0  0  0
 37 38  1  0  0  0  0
 37 35  1  0  0  0  0
 39 38  1  0  0  0  0
 40 42  1  0  0  0  0
 41 39  1  1  0  0  0
 43 47  2  0  0  0  0
 44 50  1  0  0  0  0
 46 45  1  6  0  0  0
 46 48  1  0  0  0  0
 47 40  1  0  0  0  0
 47 46  1  0  0  0  0
 49 48  1  6  0  0  0
 49 51  1  0  0  0  0
 50 41  1  0  0  0  0
 51 41  1  0  0  0  0
 52 42  1  1  0  0  0
 52 49  1  0  0  0  0
 52 44  1  0  0  0  0
 53 54  1  0  0  0  0
 55 56  1  0  0  0  0
 56 57  2  6  0  0  0
 56 59  1  0  0  0  0
 56 54  1  0  0  0  0
 58 59  1  0  0  0  0
M  END
>  <MODEL>
7

>  <REMARK>
 VINA RESULT:      -4.8      3.707      7.297
  Name = 
  26 active torsions:
  status: ('A' for Active; 'I' for Inactive)
    1  A    between atoms: C_2  and  O_20
    2  A    between atoms: C_2  and  C_24
    3  A    between atoms: C_4  and  O_6
    4  A    between atoms: O_6  and  C_44
    5  A    between atoms: C_9  and  C_48
    6  A    between atoms: C_10  and  C_40
    7  A    between atoms: C_10  and  O_41
    8  A    between atoms: C_12  and  C_59
    9  A    between atoms: C_15  and  C_30
   10  A    between atoms: C_15  and  C_51
   11  A    between atoms: O_18  and  C_19
   12  A    between atoms: O_18  and  C_40
   13  A    between atoms: C_19  and  C_24
   14  A    between atoms: O_20  and  P_53
   15  A    between atoms: C_21  and  O_31
   16  A    between atoms: C_23  and  C_44
   17  A    between atoms: C_24  and  C_56
   18  A    between atoms: C_30  and  C_46
   19  A    between atoms: O_31  and  C_59
   20  A    between atoms: N_32  and  N_39
   21  A    between atoms: N_34  and  C_59
   22  A    between atoms: C_37  and  C_46
   23  A    between atoms: C_37  and  C_57
   24  A    between atoms: C_40  and  C_47
   25  A    between atoms: C_48  and  C_56
   26  A    between atoms: P_53  and  C_54
                            x       y       z     vdW  Elec       q    Type
                         _______ _______ _______ _____ _____    ______ ____

>  <TORSDO>
F 26

$$$$
=
 OpenBabel11062422343D

 59 62  0  0  1  0  0  0  0  0999 V2000
  188.8350  176.1140  142.3830 C   0  0  2  0  0  3  0  0  0  0  0  0
  185.7270  177.4950  141.1860 C   0  0  0  0  0  3  0  0  0  0  0  0
  187.0130  177.3740  141.3920 C   0  0  0  0  0  0  0  0  0  0  0  0
  188.2970  177.2650  141.5980 C   0  0  0  0  0  3  0  0  0  0  0  0
  185.0520  178.7020  141.3930 O   0  0  0  0  0  0  0  0  0  0  0  0
  183.9180  178.8170  142.2450 C   0  0  2  0  0  3  0  0  0  0  0  0
  184.3110  178.4680  143.6060 N   0  0  0  0  0  2  0  0  0  0  0  0
  185.5630  180.4060  143.9890 O   0  0  0  0  0  0  0  0  0  0  0  0
  185.1110  179.3150  144.4340 C   0  0  0  0  0  0  0  0  0  0  0  0
  184.3910  177.8110  146.2820 C   0  0  0  0  0  1  0  0  0  0  0  0
  185.3300  178.9270  145.8590 C   0  0  1  0  0  3  0  0  0  0  0  0
  186.7770  178.5080  146.0650 C   0  0  0  0  0  2  0  0  0  0  0  0
  186.9280  177.0010  145.9180 C   0  0  0  0  0  2  0  0  0  0  0  0
  187.9190  176.4350  146.9270 C   0  0  0  0  0  2  0  0  0  0  0  0
  189.8820  174.9300  147.2750 C   0  0  0  0  0  1  0  0  0  0  0  0
  188.8260  175.3960  146.2880 C   0  0  0  0  0  2  0  0  0  0  0  0
  182.3350  178.2630  140.3850 C   0  0  2  0  0  3  0  0  0  0  0  0
  182.8170  177.8740  141.7750 C   0  0  2  0  0  3  0  0  0  0  0  0
  181.5340  178.6590  141.6070 C   0  0  0  0  0  2  0  0  0  0  0  0
  181.7370  177.1540  139.7810 O   0  0  0  0  0  0  0  0  0  0  0  0
  182.6130  176.7590  138.7630 C   0  0  0  0  0  2  0  0  0  0  0  0
  181.8270  176.2900  137.5500 C   0  0  2  0  0  3  0  0  0  0  0  0
  181.7350  174.3240  135.8860 C   0  0  0  0  0  2  0  0  0  0  0  0
  180.9170  175.2220  137.9190 N   0  0  0  0  0  0  0  0  0  0  0  0
  179.9570  173.1590  137.2970 N   0  0  0  0  0  2  0  0  0  0  0  0
  180.8390  174.2590  137.0670 C   0  0  0  0  0  0  0  0  0  0  0  0
  182.9340  175.6420  136.2520 S   0  0  0  0  0  0  0  0  0  0  0  0
  178.9220  171.1480  136.9530 C   0  0  0  0  0  1  0  0  0  0  0  0
  179.8840  172.0840  136.4010 N   0  0  0  0  0  2  0  0  0  0  0  0
  190.0770  176.5280  143.0990 C   0  0  0  0  0  0  0  0  0  0  0  0
  190.1680  178.0460  143.7180 S   0  0  0  0  0  0  0  0  0  0  0  0
  192.3710  175.9400  143.8410 C   0  0  0  0  0  1  0  0  0  0  0  0
  191.1430  175.6260  143.1970 O   0  0  0  0  0  0  0  0  0  0  0  0
  189.1240  175.0190  141.5210 O   0  0  0  0  0  0  0  0  0  0  0  0
  188.4080  173.8190  141.5550 C   0  0  0  0  0  0  0  0  0  0  0  0
  187.2160  173.7960  141.9730 O   0  0  0  0  0  0  0  0  0  0  0  0
  189.0500  172.5390  141.1180 C   0  0  2  0  0  3  0  0  0  0  0  0
  190.4190  172.3610  141.7540 C   0  0  0  0  0  2  0  0  0  0  0  0
  190.7910  170.8870  141.7740 C   0  0  0  0  0  2  0  0  0  0  0  0
  195.5670  173.1000  145.2790 C   0  0  0  0  0  2  0  0  0  0  0  0
  192.3030  170.6930  141.8010 C   0  0  2  0  0  3  0  0  0  0  0  0
  194.1890  172.7430  144.7510 C   0  0  0  0  0  2  0  0  0  0  0  0
  196.7950  174.9580  144.5450 O   0  0  0  0  0  0  0  0  0  0  0  0
  193.1470  170.7280  144.1810 C   0  0  0  0  0  2  0  0  0  0  0  0
  197.1890  172.1080  142.8730 O   0  0  0  0  0  1  0  0  0  0  0  0
  196.5240  173.3370  142.8600 C   0  0  2  0  0  3  0  0  0  0  0  0
  196.3390  173.8660  144.2540 C   0  0  0  0  0  0  0  0  0  0  0  0
  195.1850  173.2500  142.1250 C   0  0  0  0  0  2  0  0  0  0  0  0
  194.3630  171.9860  142.4310 C   0  0  2  0  0  3  0  0  0  0  0  0
  192.7440  169.8410  143.0030 C   0  0  0  0  0  2  0  0  0  0  0  0
  192.9870  172.0630  141.7710 C   0  0  0  0  0  2  0  0  0  0  0  0
  194.2980  171.5870  143.8670 N   0  0  1  0  0  0  0  0  0  0  0  0
  189.1040  172.3880  139.6020 C   0  0  0  0  0  2  0  0  0  0  0  0
  189.6990  173.5040  139.0030 O   0  0  0  0  0  0  0  0  0  0  0  0
  191.0650  171.2080  138.2390 O   0  0  0  0  0  0  0  0  0  0  0  0
  190.9190  172.8780  138.0040 P   0  0  2  0  0  0  0  0  0  0  0  0
  192.2340  173.5390  138.3490 O   0  0  0  0  0  1  0  0  0  0  0  0
  189.5550  172.2280  135.7920 N   0  0  0  0  0  1  0  0  0  0  0  0
  190.5160  173.2090  136.2660 C   0  0  0  0  0  2  0  0  0  0  0  0
  1  4  1  6  0  0  0
  1 30  1  0  0  0  0
  2  3  2  0  0  0  0
  2  5  1  0  0  0  0
  3  4  2  0  0  0  0
  6  5  1  6  0  0  0
  6  7  1  0  0  0  0
  7  9  1  0  0  0  0
  8  9  2  0  0  0  0
  9 11  1  0  0  0  0
 11 12  1  0  0  0  0
 11 10  1  6  0  0  0
 13 12  1  0  0  0  0
 13 14  1  0  0  0  0
 16 14  1  0  0  0  0
 16 15  1  0  0  0  0
 17 20  1  6  0  0  0
 17 19  1  0  0  0  0
 17 18  1  0  0  0  0
 18  6  1  1  0  0  0
 19 18  1  0  0  0  0
 21 20  1  0  0  0  0
 22 24  1  0  0  0  0
 22 21  1  1  0  0  0
 23 27  1  0  0  0  0
 23 26  1  0  0  0  0
 26 25  1  0  0  0  0
 26 24  2  0  0  0  0
 27 22  1  0  0  0  0
 29 28  1  0  0  0  0
 29 25  1  0  0  0  0
 30 33  1  0  0  0  0
 30 31  2  0  0  0  0
 33 32  1  0  0  0  0
 34 35  1  0  0  0  0
 34  1  1  0  0  0  0
 35 36  2  0  0  0  0
 37 53  1  6  0  0  0
 37 35  1  0  0  0  0
 37 38  1  0  0  0  0
 38 39  1  0  0  0  0
 41 39  1  1  0  0  0
 41 50  1  0  0  0  0
 42 40  1  0  0  0  0
 46 45  1  1  0  0  0
 46 47  1  0  0  0  0
 47 43  2  0  0  0  0
 47 40  1  0  0  0  0
 48 49  1  0  0  0  0
 48 46  1  0  0  0  0
 49 51  1  1  0  0  0
 49 52  1  0  0  0  0
 50 44  1  0  0  0  0
 51 41  1  0  0  0  0
 52 44  1  6  0  0  0
 52 42  1  0  0  0  0
 54 53  1  0  0  0  0
 56 55  2  1  0  0  0
 56 57  1  0  0  0  0
 56 54  1  0  0  0  0
 58 59  1  0  0  0  0
 59 56  1  0  0  0  0
M  END
>  <MODEL>
8

>  <REMARK>
 VINA RESULT:      -4.8      3.411      7.230
  Name = 
  26 active torsions:
  status: ('A' for Active; 'I' for Inactive)
    1  A    between atoms: C_2  and  O_20
    2  A    between atoms: C_2  and  C_24
    3  A    between atoms: C_4  and  O_6
    4  A    between atoms: O_6  and  C_44
    5  A    between atoms: C_9  and  C_48
    6  A    between atoms: C_10  and  C_40
    7  A    between atoms: C_10  and  O_41
    8  A    between atoms: C_12  and  C_59
    9  A    between atoms: C_15  and  C_30
   10  A    between atoms: C_15  and  C_51
   11  A    between atoms: O_18  and  C_19
   12  A    between atoms: O_18  and  C_40
   13  A    between atoms: C_19  and  C_24
   14  A    between atoms: O_20  and  P_53
   15  A    between atoms: C_21  and  O_31
   16  A    between atoms: C_23  and  C_44
   17  A    between atoms: C_24  and  C_56
   18  A    between atoms: C_30  and  C_46
   19  A    between atoms: O_31  and  C_59
   20  A    between atoms: N_32  and  N_39
   21  A    between atoms: N_34  and  C_59
   22  A    between atoms: C_37  and  C_46
   23  A    between atoms: C_37  and  C_57
   24  A    between atoms: C_40  and  C_47
   25  A    between atoms: C_48  and  C_56
   26  A    between atoms: P_53  and  C_54
                            x       y       z     vdW  Elec       q    Type
                         _______ _______ _______ _____ _____    ______ ____

>  <TORSDO>
F 26

$$$$
=
 OpenBabel11062422343D

 59 62  0  0  1  0  0  0  0  0999 V2000
  191.7790  171.8970  141.1820 C   0  0  2  0  0  3  0  0  0  0  0  0
  189.1740  174.3850  141.0400 C   0  0  0  0  0  3  0  0  0  0  0  0
  189.7480  173.2240  141.2220 C   0  0  0  0  0  0  0  0  0  0  0  0
  190.3110  172.0610  141.3990 C   0  0  0  0  0  3  0  0  0  0  0  0
  187.9970  174.5240  140.2990 O   0  0  0  0  0  0  0  0  0  0  0  0
  187.8170  175.5400  139.3190 C   0  0  2  0  0  3  0  0  0  0  0  0
  186.7150  176.4050  139.7300 N   0  0  0  0  0  2  0  0  0  0  0  0
  187.8410  177.3660  141.5420 O   0  0  0  0  0  0  0  0  0  0  0  0
  186.7990  177.3130  140.8310 C   0  0  0  0  0  0  0  0  0  0  0  0
  184.9950  178.6630  139.7730 C   0  0  0  0  0  1  0  0  0  0  0  0
  185.6660  178.2550  141.0730 C   0  0  1  0  0  3  0  0  0  0  0  0
  184.6550  177.6180  142.0130 C   0  0  0  0  0  2  0  0  0  0  0  0
  183.4920  178.5640  142.2740 C   0  0  0  0  0  2  0  0  0  0  0  0
  182.1560  177.9210  141.9230 C   0  0  0  0  0  2  0  0  0  0  0  0
  180.2660  178.8130  140.5550 C   0  0  0  0  0  1  0  0  0  0  0  0
  181.7020  178.3180  140.5280 C   0  0  0  0  0  2  0  0  0  0  0  0
  188.2470  175.6180  136.8530 C   0  0  2  0  0  3  0  0  0  0  0  0
  187.4940  174.9100  137.9700 C   0  0  2  0  0  3  0  0  0  0  0  0
  186.7870  175.9320  137.1050 C   0  0  0  0  0  2  0  0  0  0  0  0
  188.3510  174.7590  135.7560 O   0  0  0  0  0  0  0  0  0  0  0  0
  189.5220  175.1370  135.0890 C   0  0  0  0  0  2  0  0  0  0  0  0
  190.7370  174.5810  135.8130 C   0  0  2  0  0  3  0  0  0  0  0  0
  193.1700  173.8700  135.3450 C   0  0  0  0  0  2  0  0  0  0  0  0
  191.7250  175.6230  136.0160 N   0  0  0  0  0  0  0  0  0  0  0  0
  194.0180  176.1810  136.0180 N   0  0  0  0  0  2  0  0  0  0  0  0
  192.9450  175.2570  135.8230 C   0  0  0  0  0  0  0  0  0  0  0  0
  191.5330  173.2520  134.8480 S   0  0  0  0  0  0  0  0  0  0  0  0
  195.7580  176.5030  134.5690 C   0  0  0  0  0  1  0  0  0  0  0  0
  195.3480  175.8140  135.7790 N   0  0  0  0  0  2  0  0  0  0  0  0
  192.0470  170.5970  140.4990 C   0  0  0  0  0  0  0  0  0  0  0  0
  191.4240  169.2200  141.1420 S   0  0  0  0  0  0  0  0  0  0  0  0
  192.3550  170.9060  138.0560 C   0  0  0  0  0  1  0  0  0  0  0  0
  192.8450  170.5790  139.3500 O   0  0  0  0  0  0  0  0  0  0  0  0
  192.4700  171.9330  142.4250 O   0  0  0  0  0  0  0  0  0  0  0  0
  192.6920  173.1180  143.1340 C   0  0  0  0  0  0  0  0  0  0  0  0
  192.9630  174.1890  142.5210 O   0  0  0  0  0  0  0  0  0  0  0  0
  192.6330  173.1310  144.6290 C   0  0  2  0  0  3  0  0  0  0  0  0
  191.9530  174.3890  145.1460 C   0  0  0  0  0  2  0  0  0  0  0  0
  190.4530  174.2930  144.9250 C   0  0  0  0  0  2  0  0  0  0  0  0
  186.4940  178.3570  147.7190 C   0  0  0  0  0  2  0  0  0  0  0  0
  189.8530  175.6490  144.5680 C   0  0  2  0  0  3  0  0  0  0  0  0
  187.4450  177.2070  147.4390 C   0  0  0  0  0  2  0  0  0  0  0  0
  184.2060  178.3000  147.2100 O   0  0  0  0  0  0  0  0  0  0  0  0
  189.6390  177.0820  146.6370 C   0  0  0  0  0  2  0  0  0  0  0  0
  186.2720  179.4060  144.8470 O   0  0  0  0  0  1  0  0  0  0  0  0
  185.5560  178.2870  145.2820 C   0  0  2  0  0  3  0  0  0  0  0  0
  185.3410  178.3280  146.7680 C   0  0  0  0  0  0  0  0  0  0  0  0
  186.2360  176.9820  144.8630 C   0  0  0  0  0  2  0  0  0  0  0  0
  187.7660  176.9700  145.0250 C   0  0  2  0  0  3  0  0  0  0  0  0
  190.4810  176.7820  145.3970 C   0  0  0  0  0  2  0  0  0  0  0  0
  188.3310  175.5830  144.7250 C   0  0  0  0  0  2  0  0  0  0  0  0
  188.2880  177.5490  146.2960 N   0  0  1  0  0  0  0  0  0  0  0  0
  193.9940  172.9120  145.2810 C   0  0  0  0  0  2  0  0  0  0  0  0
  195.0250  172.9900  144.3370 O   0  0  0  0  0  0  0  0  0  0  0  0
  197.3140  174.4820  143.8300 O   0  0  0  0  0  0  0  0  0  0  0  0
  196.1410  174.0900  144.9860 P   0  0  2  0  0  0  0  0  0  0  0  0
  196.8210  173.4640  146.1820 O   0  0  0  0  0  1  0  0  0  0  0  0
  194.9910  176.4220  144.3430 N   0  0  0  0  0  1  0  0  0  0  0  0
  195.2800  175.6010  145.5050 C   0  0  0  0  0  2  0  0  0  0  0  0
  1  4  1  1  0  0  0
  1 34  1  0  0  0  0
  2  3  2  0  0  0  0
  3  4  2  0  0  0  0
  5  2  1  0  0  0  0
  6  7  1  1  0  0  0
  6  5  1  0  0  0  0
  7  9  1  0  0  0  0
  9 11  1  0  0  0  0
  9  8  2  0  0  0  0
 11 10  1  6  0  0  0
 11 12  1  0  0  0  0
 12 13  1  0  0  0  0
 14 13  1  0  0  0  0
 16 15  1  0  0  0  0
 16 14  1  0  0  0  0
 17 20  1  6  0  0  0
 17 19  1  0  0  0  0
 17 18  1  0  0  0  0
 18  6  1  1  0  0  0
 19 18  1  0  0  0  0
 21 20  1  0  0  0  0
 22 21  1  6  0  0  0
 22 24  1  0  0  0  0
 23 26  1  0  0  0  0
 26 24  2  0  0  0  0
 26 25  1  0  0  0  0
 27 23  1  0  0  0  0
 27 22  1  0  0  0  0
 28 29  1  0  0  0  0
 29 25  1  0  0  0  0
 30 31  2  0  0  0  0
 30  1  1  0  0  0  0
 32 33  1  0  0  0  0
 33 30  1  0  0  0  0
 34 35  1  0  0  0  0
 35 37  1  0  0  0  0
 36 35  2  0  0  0  0
 37 38  1  6  0  0  0
 37 53  1  0  0  0  0
 39 38  1  0  0  0  0
 41 51  1  0  0  0  0
 41 39  1  1  0  0  0
 41 50  1  0  0  0  0
 42 40  1  0  0  0  0
 46 45  1  1  0  0  0
 46 47  1  0  0  0  0
 47 43  2  0  0  0  0
 47 40  1  0  0  0  0
 48 49  1  0  0  0  0
 48 46  1  0  0  0  0
 49 51  1  1  0  0  0
 49 52  1  0  0  0  0
 50 44  1  0  0  0  0
 52 44  1  1  0  0  0
 52 42  1  0  0  0  0
 54 56  1  0  0  0  0
 54 53  1  0  0  0  0
 56 55  2  6  0  0  0
 56 59  1  0  0  0  0
 56 57  1  0  0  0  0
 58 59  1  0  0  0  0
M  END
>  <MODEL>
9

>  <REMARK>
 VINA RESULT:      -4.7      3.481      8.377
  Name = 
  26 active torsions:
  status: ('A' for Active; 'I' for Inactive)
    1  A    between atoms: C_2  and  O_20
    2  A    between atoms: C_2  and  C_24
    3  A    between atoms: C_4  and  O_6
    4  A    between atoms: O_6  and  C_44
    5  A    between atoms: C_9  and  C_48
    6  A    between atoms: C_10  and  C_40
    7  A    between atoms: C_10  and  O_41
    8  A    between atoms: C_12  and  C_59
    9  A    between atoms: C_15  and  C_30
   10  A    between atoms: C_15  and  C_51
   11  A    between atoms: O_18  and  C_19
   12  A    between atoms: O_18  and  C_40
   13  A    between atoms: C_19  and  C_24
   14  A    between atoms: O_20  and  P_53
   15  A    between atoms: C_21  and  O_31
   16  A    between atoms: C_23  and  C_44
   17  A    between atoms: C_24  and  C_56
   18  A    between atoms: C_30  and  C_46
   19  A    between atoms: O_31  and  C_59
   20  A    between atoms: N_32  and  N_39
   21  A    between atoms: N_34  and  C_59
   22  A    between atoms: C_37  and  C_46
   23  A    between atoms: C_37  and  C_57
   24  A    between atoms: C_40  and  C_47
   25  A    between atoms: C_48  and  C_56
   26  A    between atoms: P_53  and  C_54
                            x       y       z     vdW  Elec       q    Type
                         _______ _______ _______ _____ _____    ______ ____

>  <TORSDO>
F 26

$$$$
