=
 OpenBabel11062421233D

 31 33  0  0  1  0  0  0  0  0999 V2000
  188.8580  176.8390  143.2170 C   0  0  0  0  0  2  0  0  0  0  0  0
  189.6990  176.4260  144.4370 C   0  0  0  0  0  2  0  0  0  0  0  0
  188.4590  174.5260  142.0750 C   0  0  2  0  0  3  0  0  0  0  0  0
  186.6260  175.8200  142.9450 N   0  0  0  0  0  0  0  0  0  0  0  0
  190.3900  173.1260  141.7650 O   0  0  0  0  0  1  0  0  0  0  0  0
  187.9090  175.7660  142.7270 C   0  0  0  0  0  0  0  0  0  0  0  0
  189.9080  174.2180  142.4890 C   0  0  2  0  0  3  0  0  0  0  0  0
  190.0700  173.9330  143.9890 C   0  0  0  0  0  2  0  0  0  0  0  0
  188.3740  174.6600  140.6870 O   0  0  0  0  0  1  0  0  0  0  0  0
  189.4380  174.9910  144.9020 C   0  0  1  0  0  3  0  0  0  0  0  0
  184.8480  177.9050  145.2330 C   0  0  0  0  0  0  0  0  0  0  0  0
  185.2870  178.0080  142.9460 C   0  0  0  0  0  2  0  0  0  0  0  0
  184.5720  178.7690  144.0600 C   0  0  2  0  0  3  0  0  0  0  0  0
  185.6350  176.7750  144.9140 N   0  0  0  0  0  0  0  0  0  0  0  0
  185.2270  180.1250  144.2470 C   0  0  0  0  0  1  0  0  0  0  0  0
  185.8930  176.8330  143.6510 C   0  0  0  0  0  0  0  0  0  0  0  0
  184.4120  178.1230  146.3930 O   0  0  0  0  0  0  0  0  0  0  0  0
  189.0360  174.1880  147.2060 F   0  0  0  0  0  0  0  0  0  0  0  0
  189.8550  174.8060  146.3180 C   0  0  0  0  0  0  0  0  0  0  0  0
  192.3310  175.3320  146.9270 C   0  0  0  0  0  3  0  0  0  0  0  0
  191.0860  175.0740  146.6480 C   0  0  0  0  0  0  0  0  0  0  0  0
  193.6790  175.1350  143.3750 C   0  0  1  0  0  3  0  0  0  0  0  0
  194.9040  174.2730  143.6860 C   0  0  0  0  0  2  0  0  0  0  0  0
  193.4160  173.5180  145.6410 C   0  0  0  0  0  2  0  0  0  0  0  0
  193.3800  175.0170  145.9210 C   0  0  1  0  0  3  0  0  0  0  0  0
  194.5830  173.1680  144.7060 C   0  0  1  0  0  3  0  0  0  0  0  0
  193.1400  175.8220  144.6380 C   0  0  0  0  0  2  0  0  0  0  0  0
  194.3060  171.9730  144.0410 O   0  0  0  0  0  0  0  0  0  0  0  0
  193.0230  171.6190  144.4610 C   0  0  0  0  0  1  0  0  0  0  0  0
  195.4040  176.2930  142.2010 O   0  0  0  0  0  1  0  0  0  0  0  0
  194.0190  176.1830  142.3340 C   0  0  0  0  0  2  0  0  0  0  0  0
  1  2  1  0  0  0  0
  2 10  1  0  0  0  0
  3  9  1  6  0  0  0
  3  7  1  0  0  0  0
  3  6  1  0  0  0  0
  4 16  1  0  0  0  0
  6  4  2  0  0  0  0
  6  1  1  0  0  0  0
  7  5  1  6  0  0  0
  7  8  1  0  0  0  0
  8 10  1  0  0  0  0
 10 19  1  1  0  0  0
 11 17  2  0  0  0  0
 12 16  1  0  0  0  0
 12 13  1  0  0  0  0
 13 15  1  1  0  0  0
 13 11  1  0  0  0  0
 14 11  1  0  0  0  0
 16 14  2  0  0  0  0
 19 21  2  0  0  0  0
 19 18  1  0  0  0  0
 21 20  2  0  0  0  0
 22 31  1  6  0  0  0
 22 23  1  0  0  0  0
 22 27  1  0  0  0  0
 23 26  1  0  0  0  0
 24 25  1  0  0  0  0
 25 20  1  1  0  0  0
 26 28  1  6  0  0  0
 26 24  1  0  0  0  0
 27 25  1  0  0  0  0
 28 29  1  0  0  0  0
 30 31  1  0  0  0  0
M  END
>  <MODEL>
1

>  <REMARK>
 VINA RESULT:      -7.8      0.000      0.000
  Name = 
  5 active torsions:
  status: ('A' for Active; 'I' for Inactive)
    1  A    between atoms: C_3  and  C_20
    2  A    between atoms: C_5  and  C_31
    3  A    between atoms: O_7  and  C_25
    4  A    between atoms: C_8  and  C_24
    5  A    between atoms: C_18  and  N_19
                            x       y       z     vdW  Elec       q    Type
                         _______ _______ _______ _____ _____    ______ ____

>  <TORSDO>
F 5

$$$$
=
 OpenBabel11062421233D

 31 33  0  0  1  0  0  0  0  0999 V2000
  191.5460  176.6310  143.8150 C   0  0  0  0  0  2  0  0  0  0  0  0
  191.0780  176.6380  145.2810 C   0  0  0  0  0  2  0  0  0  0  0  0
  193.7920  175.3160  144.0110 C   0  0  2  0  0  3  0  0  0  0  0  0
  191.9460  174.4490  142.7330 N   0  0  0  0  0  0  0  0  0  0  0  0
  195.3100  176.0210  145.7380 O   0  0  0  0  0  1  0  0  0  0  0  0
  192.4030  175.4400  143.4450 C   0  0  0  0  0  0  0  0  0  0  0  0
  193.9770  176.0860  145.3300 C   0  0  2  0  0  3  0  0  0  0  0  0
  193.0820  175.5760  146.4690 C   0  0  0  0  0  2  0  0  0  0  0  0
  194.7160  175.7590  143.0620 O   0  0  0  0  0  1  0  0  0  0  0  0
  191.6000  175.4510  146.0950 C   0  0  1  0  0  3  0  0  0  0  0  0
  188.9310  174.3250  140.8270 C   0  0  0  0  0  0  0  0  0  0  0  0
  189.4650  173.8880  143.0530 C   0  0  0  0  0  2  0  0  0  0  0  0
  188.2810  173.8960  142.0880 C   0  0  2  0  0  3  0  0  0  0  0  0
  190.3210  174.5380  140.9660 N   0  0  0  0  0  0  0  0  0  0  0  0
  187.7380  172.4870  141.9420 C   0  0  0  0  0  1  0  0  0  0  0  0
  190.6250  174.2850  142.1940 C   0  0  0  0  0  0  0  0  0  0  0  0
  188.3210  174.5110  139.7420 O   0  0  0  0  0  0  0  0  0  0  0  0
  191.3180  174.9850  148.5080 F   0  0  0  0  0  0  0  0  0  0  0  0
  190.7530  175.2170  147.2960 C   0  0  0  0  0  0  0  0  0  0  0  0
  188.1980  175.6670  147.0790 C   0  0  0  0  0  3  0  0  0  0  0  0
  189.4710  175.4250  147.2070 C   0  0  0  0  0  0  0  0  0  0  0  0
  185.5550  177.8290  145.4000 C   0  0  1  0  0  3  0  0  0  0  0  0
  186.4930  178.5600  144.4380 C   0  0  0  0  0  2  0  0  0  0  0  0
  187.8760  176.4150  144.7420 C   0  0  0  0  0  2  0  0  0  0  0  0
  187.7580  176.7950  146.2140 C   0  0  1  0  0  3  0  0  0  0  0  0
  187.5520  177.6180  143.8430 C   0  0  1  0  0  3  0  0  0  0  0  0
  186.3260  177.2090  146.5750 C   0  0  0  0  0  2  0  0  0  0  0  0
  187.1360  177.1660  142.5900 O   0  0  0  0  0  0  0  0  0  0  0  0
  187.9880  177.7960  141.6820 C   0  0  0  0  0  1  0  0  0  0  0  0
  184.2010  178.4640  147.2590 O   0  0  0  0  0  1  0  0  0  0  0  0
  184.4970  178.7760  145.9320 C   0  0  0  0  0  2  0  0  0  0  0  0
  1  2  1  0  0  0  0
  2 10  1  0  0  0  0
  3  9  1  6  0  0  0
  3  7  1  0  0  0  0
  4  6  2  0  0  0  0
  6  1  1  0  0  0  0
  6  3  1  0  0  0  0
  7  5  1  1  0  0  0
  7  8  1  0  0  0  0
 10  8  1  0  0  0  0
 10 19  1  1  0  0  0
 11 14  1  0  0  0  0
 11 13  1  0  0  0  0
 13 15  1  6  0  0  0
 13 12  1  0  0  0  0
 14 16  2  0  0  0  0
 16  4  1  0  0  0  0
 16 12  1  0  0  0  0
 17 11  2  0  0  0  0
 19 18  1  0  0  0  0
 20 21  2  0  0  0  0
 21 19  2  0  0  0  0
 22 31  1  1  0  0  0
 22 27  1  0  0  0  0
 23 22  1  0  0  0  0
 24 25  1  0  0  0  0
 25 27  1  0  0  0  0
 25 20  1  1  0  0  0
 26 28  1  6  0  0  0
 26 23  1  0  0  0  0
 26 24  1  0  0  0  0
 29 28  1  0  0  0  0
 31 30  1  0  0  0  0
M  END
>  <MODEL>
2

>  <REMARK>
 VINA RESULT:      -7.8      2.316      6.706
  Name = 
  5 active torsions:
  status: ('A' for Active; 'I' for Inactive)
    1  A    between atoms: C_3  and  C_20
    2  A    between atoms: C_5  and  C_31
    3  A    between atoms: O_7  and  C_25
    4  A    between atoms: C_8  and  C_24
    5  A    between atoms: C_18  and  N_19
                            x       y       z     vdW  Elec       q    Type
                         _______ _______ _______ _____ _____    ______ ____

>  <TORSDO>
F 5

$$$$
=
 OpenBabel11062421233D

 31 33  0  0  1  0  0  0  0  0999 V2000
  189.3010  175.0110  147.4710 C   0  0  0  0  0  2  0  0  0  0  0  0
  189.3420  173.7940  146.5300 C   0  0  0  0  0  2  0  0  0  0  0  0
  191.4340  176.3080  146.7120 C   0  0  2  0  0  3  0  0  0  0  0  0
  189.2390  177.2620  146.4610 N   0  0  0  0  0  0  0  0  0  0  0  0
  193.4620  175.0310  146.5130 O   0  0  0  0  0  1  0  0  0  0  0  0
  189.9420  176.2570  146.9010 C   0  0  0  0  0  0  0  0  0  0  0  0
  192.0730  174.9160  146.5720 C   0  0  2  0  0  3  0  0  0  0  0  0
  191.5840  174.1370  145.3410 C   0  0  0  0  0  2  0  0  0  0  0  0
  192.0100  176.9950  147.7830 O   0  0  0  0  0  1  0  0  0  0  0  0
  190.0580  174.0710  145.2050 C   0  0  1  0  0  3  0  0  0  0  0  0
  185.7560  177.8400  146.9880 C   0  0  0  0  0  0  0  0  0  0  0  0
  186.9910  176.7580  145.3340 C   0  0  0  0  0  2  0  0  0  0  0  0
  185.5530  177.0940  145.7230 C   0  0  2  0  0  3  0  0  0  0  0  0
  187.1180  177.9730  147.3390 N   0  0  0  0  0  0  0  0  0  0  0  0
  184.9450  178.0050  144.6730 C   0  0  0  0  0  1  0  0  0  0  0  0
  187.8090  177.3870  146.4200 C   0  0  0  0  0  0  0  0  0  0  0  0
  184.8230  178.2910  147.7020 O   0  0  0  0  0  0  0  0  0  0  0  0
  189.1230  171.8890  144.5100 F   0  0  0  0  0  0  0  0  0  0  0  0
  189.6460  173.0920  144.1630 C   0  0  0  0  0  0  0  0  0  0  0  0
  189.5810  173.9140  141.6930 C   0  0  0  0  0  3  0  0  0  0  0  0
  189.6170  173.4790  142.9190 C   0  0  0  0  0  0  0  0  0  0  0  0
  189.0430  177.5410  142.7100 C   0  0  1  0  0  3  0  0  0  0  0  0
  188.1940  177.9500  141.5060 C   0  0  0  0  0  2  0  0  0  0  0  0
  187.6410  175.4400  141.5100 C   0  0  0  0  0  2  0  0  0  0  0  0
  189.1600  175.3170  141.4340 C   0  0  1  0  0  3  0  0  0  0  0  0
  187.1900  176.8530  141.1130 C   0  0  1  0  0  3  0  0  0  0  0  0
  189.8500  176.2660  142.4220 C   0  0  0  0  0  2  0  0  0  0  0  0
  185.9450  177.1230  141.6820 O   0  0  0  0  0  0  0  0  0  0  0  0
  185.4090  178.1480  140.9010 C   0  0  0  0  0  1  0  0  0  0  0  0
  191.1480  178.1320  143.6660 O   0  0  0  0  0  1  0  0  0  0  0  0
  189.9880  178.6610  143.0980 C   0  0  0  0  0  2  0  0  0  0  0  0
  2  1  1  0  0  0  0
  3  6  1  0  0  0  0
  3  9  1  1  0  0  0
  4  6  2  0  0  0  0
  6  1  1  0  0  0  0
  7  5  1  6  0  0  0
  7  3  1  0  0  0  0
  8  7  1  0  0  0  0
 10 19  1  6  0  0  0
 10  8  1  0  0  0  0
 10  2  1  0  0  0  0
 11 14  1  0  0  0  0
 11 17  2  0  0  0  0
 12 13  1  0  0  0  0
 12 16  1  0  0  0  0
 13 15  1  6  0  0  0
 13 11  1  0  0  0  0
 16  4  1  0  0  0  0
 16 14  2  0  0  0  0
 19 18  1  0  0  0  0
 20 21  2  0  0  0  0
 21 19  2  0  0  0  0
 22 31  1  6  0  0  0
 23 22  1  0  0  0  0
 25 24  1  0  0  0  0
 25 20  1  1  0  0  0
 25 27  1  0  0  0  0
 26 23  1  0  0  0  0
 26 24  1  0  0  0  0
 26 28  1  1  0  0  0
 27 22  1  0  0  0  0
 29 28  1  0  0  0  0
 31 30  1  0  0  0  0
M  END
>  <MODEL>
3

>  <REMARK>
 VINA RESULT:      -7.6      2.696      5.412
  Name = 
  5 active torsions:
  status: ('A' for Active; 'I' for Inactive)
    1  A    between atoms: C_3  and  C_20
    2  A    between atoms: C_5  and  C_31
    3  A    between atoms: O_7  and  C_25
    4  A    between atoms: C_8  and  C_24
    5  A    between atoms: C_18  and  N_19
                            x       y       z     vdW  Elec       q    Type
                         _______ _______ _______ _____ _____    ______ ____

>  <TORSDO>
F 5

$$$$
=
 OpenBabel11062421233D

 31 33  0  0  1  0  0  0  0  0999 V2000
  188.8000  176.9330  142.9970 C   0  0  0  0  0  2  0  0  0  0  0  0
  189.7040  176.4780  144.1560 C   0  0  0  0  0  2  0  0  0  0  0  0
  188.3870  174.6720  141.7610 C   0  0  2  0  0  3  0  0  0  0  0  0
  186.5750  175.8870  142.7770 N   0  0  0  0  0  0  0  0  0  0  0  0
  190.3250  173.3260  141.2940 O   0  0  0  0  0  1  0  0  0  0  0  0
  187.8480  175.8680  142.4980 C   0  0  0  0  0  0  0  0  0  0  0  0
  189.8590  174.3720  142.0930 C   0  0  2  0  0  3  0  0  0  0  0  0
  190.0960  174.0170  143.5680 C   0  0  0  0  0  2  0  0  0  0  0  0
  188.2360  174.8720  140.3870 O   0  0  0  0  0  1  0  0  0  0  0  0
  189.4890  175.0170  144.5600 C   0  0  1  0  0  3  0  0  0  0  0  0
  184.8620  177.8180  145.2420 C   0  0  0  0  0  0  0  0  0  0  0  0
  185.2180  178.0550  142.9510 C   0  0  0  0  0  2  0  0  0  0  0  0
  184.5360  178.7450  144.1310 C   0  0  2  0  0  3  0  0  0  0  0  0
  185.6470  176.7170  144.8310 N   0  0  0  0  0  0  0  0  0  0  0  0
  185.1840  180.0950  144.3720 C   0  0  0  0  0  1  0  0  0  0  0  0
  185.8590  176.8500  143.5660 C   0  0  0  0  0  0  0  0  0  0  0  0
  184.4660  177.9650  146.4270 O   0  0  0  0  0  0  0  0  0  0  0  0
  189.1610  174.2100  146.8750 F   0  0  0  0  0  0  0  0  0  0  0  0
  189.9740  174.7710  145.9450 C   0  0  0  0  0  0  0  0  0  0  0  0
  192.5200  175.0700  146.4040 C   0  0  0  0  0  3  0  0  0  0  0  0
  191.2420  174.9250  146.2000 C   0  0  0  0  0  0  0  0  0  0  0  0
  196.0040  174.7510  144.9090 C   0  0  1  0  0  3  0  0  0  0  0  0
  195.5670  174.4270  143.4800 C   0  0  0  0  0  2  0  0  0  0  0  0
  193.4770  175.7270  144.2190 C   0  0  0  0  0  2  0  0  0  0  0  0
  193.4730  174.6830  145.3300 C   0  0  1  0  0  3  0  0  0  0  0  0
  194.3560  175.2700  143.0460 C   0  0  1  0  0  3  0  0  0  0  0  0
  194.8770  174.4820  145.9160 C   0  0  0  0  0  2  0  0  0  0  0  0
  194.7870  176.3840  142.3230 O   0  0  0  0  0  0  0  0  0  0  0  0
  195.7030  175.8780  141.4000 C   0  0  0  0  0  1  0  0  0  0  0  0
  197.1730  173.5970  146.6400 O   0  0  0  0  0  1  0  0  0  0  0  0
  197.2250  173.9360  145.2870 C   0  0  0  0  0  2  0  0  0  0  0  0
  1  2  1  0  0  0  0
  2 10  1  0  0  0  0
  3  9  1  6  0  0  0
  3  7  1  0  0  0  0
  3  6  1  0  0  0  0
  4 16  1  0  0  0  0
  6  4  2  0  0  0  0
  6  1  1  0  0  0  0
  7  5  1  6  0  0  0
  7  8  1  0  0  0  0
  8 10  1  0  0  0  0
 10 19  1  1  0  0  0
 11 17  2  0  0  0  0
 12 16  1  0  0  0  0
 12 13  1  0  0  0  0
 13 15  1  1  0  0  0
 13 11  1  0  0  0  0
 14 11  1  0  0  0  0
 16 14  2  0  0  0  0
 19 21  2  0  0  0  0
 19 18  1  0  0  0  0
 21 20  2  0  0  0  0
 22 31  1  1  0  0  0
 22 27  1  0  0  0  0
 23 22  1  0  0  0  0
 24 25  1  0  0  0  0
 25 27  1  0  0  0  0
 25 20  1  1  0  0  0
 26 28  1  1  0  0  0
 26 23  1  0  0  0  0
 26 24  1  0  0  0  0
 29 28  1  0  0  0  0
 31 30  1  0  0  0  0
M  END
>  <MODEL>
4

>  <REMARK>
 VINA RESULT:      -7.6      1.126      2.149
  Name = 
  5 active torsions:
  status: ('A' for Active; 'I' for Inactive)
    1  A    between atoms: C_3  and  C_20
    2  A    between atoms: C_5  and  C_31
    3  A    between atoms: O_7  and  C_25
    4  A    between atoms: C_8  and  C_24
    5  A    between atoms: C_18  and  N_19
                            x       y       z     vdW  Elec       q    Type
                         _______ _______ _______ _____ _____    ______ ____

>  <TORSDO>
F 5

$$$$
=
 OpenBabel11062421233D

 31 33  0  0  1  0  0  0  0  0999 V2000
  192.6860  176.0200  143.4540 C   0  0  0  0  0  2  0  0  0  0  0  0
  192.3620  176.7220  144.7840 C   0  0  0  0  0  2  0  0  0  0  0  0
  194.2460  174.0930  144.2670 C   0  0  2  0  0  3  0  0  0  0  0  0
  192.1220  173.6270  143.2340 N   0  0  0  0  0  0  0  0  0  0  0  0
  196.0370  174.7040  145.7500 O   0  0  0  0  0  1  0  0  0  0  0  0
  192.9800  174.5420  143.5890 C   0  0  0  0  0  0  0  0  0  0  0  0
  194.8100  175.1370  145.2450 C   0  0  2  0  0  3  0  0  0  0  0  0
  193.8700  175.4510  146.4180 C   0  0  0  0  0  2  0  0  0  0  0  0
  195.2000  173.7770  143.2970 O   0  0  0  0  0  1  0  0  0  0  0  0
  192.4350  175.7920  145.9980 C   0  0  1  0  0  3  0  0  0  0  0  0
  189.1890  174.3930  141.3510 C   0  0  0  0  0  0  0  0  0  0  0  0
  189.5720  173.5430  143.4870 C   0  0  0  0  0  2  0  0  0  0  0  0
  188.4360  173.9300  142.5420 C   0  0  2  0  0  3  0  0  0  0  0  0
  190.5890  174.2970  141.5100 N   0  0  0  0  0  0  0  0  0  0  0  0
  187.6230  172.6970  142.1970 C   0  0  0  0  0  1  0  0  0  0  0  0
  190.8080  173.8150  142.6860 C   0  0  0  0  0  0  0  0  0  0  0  0
  188.6530  174.8530  140.3090 O   0  0  0  0  0  0  0  0  0  0  0  0
  192.2460  177.1240  148.0740 F   0  0  0  0  0  0  0  0  0  0  0  0
  191.6510  176.3430  147.1370 C   0  0  0  0  0  0  0  0  0  0  0  0
  189.0600  176.1010  147.0490 C   0  0  0  0  0  3  0  0  0  0  0  0
  190.3540  176.2230  147.1190 C   0  0  0  0  0  0  0  0  0  0  0  0
  188.4500  177.7500  143.6740 C   0  0  1  0  0  3  0  0  0  0  0  0
  187.1800  176.9780  143.3140 C   0  0  0  0  0  2  0  0  0  0  0  0
  187.0010  176.8080  145.8720 C   0  0  0  0  0  2  0  0  0  0  0  0
  188.3940  176.2050  145.7230 C   0  0  1  0  0  3  0  0  0  0  0  0
  186.2560  176.7950  144.5290 C   0  0  1  0  0  3  0  0  0  0  0  0
  189.2600  177.0250  144.7590 C   0  0  0  0  0  2  0  0  0  0  0  0
  185.2720  177.7850  144.5310 O   0  0  0  0  0  0  0  0  0  0  0  0
  184.8100  177.8320  143.2150 C   0  0  0  0  0  1  0  0  0  0  0  0
  188.5170  178.2660  141.3450 O   0  0  0  0  0  1  0  0  0  0  0  0
  189.3150  177.9510  142.4460 C   0  0  0  0  0  2  0  0  0  0  0  0
  1  6  1  0  0  0  0
  1  2  1  0  0  0  0
  2 10  1  0  0  0  0
  3  9  1  6  0  0  0
  3  7  1  0  0  0  0
  4  6  2  0  0  0  0
  6  3  1  0  0  0  0
  7  5  1  1  0  0  0
  7  8  1  0  0  0  0
 10  8  1  0  0  0  0
 10 19  1  1  0  0  0
 11 14  1  0  0  0  0
 11 13  1  0  0  0  0
 13 15  1  6  0  0  0
 13 12  1  0  0  0  0
 14 16  2  0  0  0  0
 16  4  1  0  0  0  0
 16 12  1  0  0  0  0
 17 11  2  0  0  0  0
 19 18  1  0  0  0  0
 20 21  2  0  0  0  0
 21 19  2  0  0  0  0
 22 31  1  6  0  0  0
 22 27  1  0  0  0  0
 23 22  1  0  0  0  0
 23 26  1  0  0  0  0
 25 24  1  0  0  0  0
 25 20  1  1  0  0  0
 26 28  1  1  0  0  0
 26 24  1  0  0  0  0
 27 25  1  0  0  0  0
 29 28  1  0  0  0  0
 30 31  1  0  0  0  0
M  END
>  <MODEL>
5

>  <REMARK>
 VINA RESULT:      -7.3      2.231      6.340
  Name = 
  5 active torsions:
  status: ('A' for Active; 'I' for Inactive)
    1  A    between atoms: C_3  and  C_20
    2  A    between atoms: C_5  and  C_31
    3  A    between atoms: O_7  and  C_25
    4  A    between atoms: C_8  and  C_24
    5  A    between atoms: C_18  and  N_19
                            x       y       z     vdW  Elec       q    Type
                         _______ _______ _______ _____ _____    ______ ____

>  <TORSDO>
F 5

$$$$
=
 OpenBabel11062421233D

 31 33  0  0  1  0  0  0  0  0999 V2000
  189.1510  176.9140  143.2110 C   0  0  0  0  0  2  0  0  0  0  0  0
  190.0160  176.3830  144.3680 C   0  0  0  0  0  2  0  0  0  0  0  0
  188.3430  174.6850  142.1220 C   0  0  2  0  0  3  0  0  0  0  0  0
  186.7830  176.2240  143.1170 N   0  0  0  0  0  0  0  0  0  0  0  0
  190.0270  173.0250  141.6800 O   0  0  0  0  0  1  0  0  0  0  0  0
  188.0260  175.9880  142.8040 C   0  0  0  0  0  0  0  0  0  0  0  0
  189.7610  174.1720  142.4290 C   0  0  2  0  0  3  0  0  0  0  0  0
  189.9940  173.8640  143.9150 C   0  0  0  0  0  2  0  0  0  0  0  0
  188.1730  174.8330  140.7440 O   0  0  0  0  0  1  0  0  0  0  0  0
  189.5900  174.9990  144.8630 C   0  0  1  0  0  3  0  0  0  0  0  0
  185.5980  179.3310  144.4120 C   0  0  0  0  0  0  0  0  0  0  0  0
  185.9870  177.2290  145.3380 C   0  0  0  0  0  2  0  0  0  0  0  0
  185.5050  178.6280  145.7140 C   0  0  2  0  0  3  0  0  0  0  0  0
  186.0520  178.4990  143.3650 N   0  0  0  0  0  0  0  0  0  0  0  0
  184.0590  178.5600  146.1680 C   0  0  0  0  0  1  0  0  0  0  0  0
  186.2570  177.3290  143.8680 C   0  0  0  0  0  0  0  0  0  0  0  0
  185.3300  180.5500  144.2440 O   0  0  0  0  0  0  0  0  0  0  0  0
  189.2880  174.1520  147.1680 F   0  0  0  0  0  0  0  0  0  0  0  0
  190.0820  174.7540  146.2460 C   0  0  0  0  0  0  0  0  0  0  0  0
  192.6150  175.1370  146.7120 C   0  0  0  0  0  3  0  0  0  0  0  0
  191.3440  174.9500  146.5040 C   0  0  0  0  0  0  0  0  0  0  0  0
  194.4940  172.6940  144.4810 C   0  0  1  0  0  3  0  0  0  0  0  0
  195.5200  173.6890  143.9340 C   0  0  0  0  0  2  0  0  0  0  0  0
  195.0120  174.8690  146.1610 C   0  0  0  0  0  2  0  0  0  0  0  0
  193.5830  174.7980  145.6350 C   0  0  1  0  0  3  0  0  0  0  0  0
  196.0210  174.6510  145.0240 C   0  0  1  0  0  3  0  0  0  0  0  0
  193.2650  173.4130  145.0570 C   0  0  0  0  0  2  0  0  0  0  0  0
  197.2270  174.1860  145.5510 O   0  0  0  0  0  0  0  0  0  0  0  0
  197.9410  173.7150  144.4490 C   0  0  0  0  0  1  0  0  0  0  0  0
  194.1330  172.3550  142.1470 O   0  0  0  0  0  1  0  0  0  0  0  0
  194.0560  171.7330  143.3940 C   0  0  0  0  0  2  0  0  0  0  0  0
  1  2  1  0  0  0  0
  2 10  1  0  0  0  0
  3  9  1  6  0  0  0
  3  7  1  0  0  0  0
  3  6  1  0  0  0  0
  4 16  1  0  0  0  0
  6  4  2  0  0  0  0
  6  1  1  0  0  0  0
  7  5  1  6  0  0  0
  7  8  1  0  0  0  0
  8 10  1  0  0  0  0
 10 19  1  1  0  0  0
 11 13  1  0  0  0  0
 12 13  1  0  0  0  0
 13 15  1  6  0  0  0
 14 16  2  0  0  0  0
 14 11  1  0  0  0  0
 16 12  1  0  0  0  0
 17 11  2  0  0  0  0
 19 21  2  0  0  0  0
 19 18  1  0  0  0  0
 21 20  2  0  0  0  0
 22 31  1  6  0  0  0
 22 27  1  0  0  0  0
 23 22  1  0  0  0  0
 23 26  1  0  0  0  0
 25 24  1  0  0  0  0
 25 20  1  1  0  0  0
 26 28  1  1  0  0  0
 26 24  1  0  0  0  0
 27 25  1  0  0  0  0
 29 28  1  0  0  0  0
 30 31  1  0  0  0  0
M  END
>  <MODEL>
6

>  <REMARK>
 VINA RESULT:      -7.3      1.468      2.169
  Name = 
  5 active torsions:
  status: ('A' for Active; 'I' for Inactive)
    1  A    between atoms: C_3  and  C_20
    2  A    between atoms: C_5  and  C_31
    3  A    between atoms: O_7  and  C_25
    4  A    between atoms: C_8  and  C_24
    5  A    between atoms: C_18  and  N_19
                            x       y       z     vdW  Elec       q    Type
                         _______ _______ _______ _____ _____    ______ ____

>  <TORSDO>
F 5

$$$$
=
 OpenBabel11062421233D

 31 33  0  0  1  0  0  0  0  0999 V2000
  188.9410  173.6210  142.8190 C   0  0  0  0  0  2  0  0  0  0  0  0
  187.9400  174.6890  142.3450 C   0  0  0  0  0  2  0  0  0  0  0  0
  190.0000  172.8800  140.5520 C   0  0  2  0  0  3  0  0  0  0  0  0
  191.3260  173.9320  142.2630 N   0  0  0  0  0  0  0  0  0  0  0  0
  188.4760  172.3660  138.7640 O   0  0  0  0  0  1  0  0  0  0  0  0
  190.1540  173.4690  141.9280 C   0  0  0  0  0  0  0  0  0  0  0  0
  188.5770  173.0300  139.9870 C   0  0  2  0  0  3  0  0  0  0  0  0
  188.1410  174.4910  139.8000 C   0  0  0  0  0  2  0  0  0  0  0  0
  190.3640  171.5320  140.5860 O   0  0  0  0  0  1  0  0  0  0  0  0
  188.3500  175.3720  141.0370 C   0  0  1  0  0  3  0  0  0  0  0  0
  192.2090  175.0670  145.5300 C   0  0  0  0  0  0  0  0  0  0  0  0
  191.6620  176.1350  143.5320 C   0  0  0  0  0  2  0  0  0  0  0  0
  192.0490  176.4340  144.9790 C   0  0  2  0  0  3  0  0  0  0  0  0
  191.9750  174.0540  144.5730 N   0  0  0  0  0  0  0  0  0  0  0  0
  193.3780  177.1650  145.0050 C   0  0  0  0  0  1  0  0  0  0  0  0
  191.6850  174.6390  143.4600 C   0  0  0  0  0  0  0  0  0  0  0  0
  192.4940  174.8150  146.7300 O   0  0  0  0  0  0  0  0  0  0  0  0
  187.0650  177.0280  139.7240 F   0  0  0  0  0  0  0  0  0  0  0  0
  187.6720  176.6880  140.8890 C   0  0  0  0  0  0  0  0  0  0  0  0
  187.3360  178.1220  143.0360 C   0  0  0  0  0  3  0  0  0  0  0  0
  187.5030  177.4270  141.9480 C   0  0  0  0  0  0  0  0  0  0  0  0
  186.5560  178.0110  146.7590 C   0  0  1  0  0  3  0  0  0  0  0  0
  186.8180  176.5180  146.9620 C   0  0  0  0  0  2  0  0  0  0  0  0
  188.3460  176.8870  144.9280 C   0  0  0  0  0  2  0  0  0  0  0  0
  187.0530  177.4130  144.3130 C   0  0  1  0  0  3  0  0  0  0  0  0
  188.0500  176.0400  146.1740 C   0  0  1  0  0  3  0  0  0  0  0  0
  186.3090  178.3420  145.2800 C   0  0  0  0  0  2  0  0  0  0  0  0
  189.1700  176.0260  147.0070 O   0  0  0  0  0  0  0  0  0  0  0  0
  189.1480  174.7700  147.6150 C   0  0  0  0  0  1  0  0  0  0  0  0
  184.1860  178.2670  146.8610 O   0  0  0  0  0  1  0  0  0  0  0  0
  185.3640  178.4570  147.5830 C   0  0  0  0  0  2  0  0  0  0  0  0
  2  1  1  0  0  0  0
  3  9  1  1  0  0  0
  3  6  1  0  0  0  0
  4 16  1  0  0  0  0
  6  4  2  0  0  0  0
  6  1  1  0  0  0  0
  7  5  1  6  0  0  0
  7  3  1  0  0  0  0
  8  7  1  0  0  0  0
  8 10  1  0  0  0  0
 10 19  1  6  0  0  0
 10  2  1  0  0  0  0
 11 17  2  0  0  0  0
 12 13  1  0  0  0  0
 13 15  1  6  0  0  0
 13 11  1  0  0  0  0
 14 11  1  0  0  0  0
 16 12  1  0  0  0  0
 16 14  2  0  0  0  0
 18 19  1  0  0  0  0
 19 21  2  0  0  0  0
 21 20  2  0  0  0  0
 22 23  1  0  0  0  0
 22 31  1  1  0  0  0
 24 26  1  0  0  0  0
 25 20  1  6  0  0  0
 25 24  1  0  0  0  0
 25 27  1  0  0  0  0
 26 23  1  0  0  0  0
 26 28  1  1  0  0  0
 27 22  1  0  0  0  0
 28 29  1  0  0  0  0
 30 31  1  0  0  0  0
M  END
>  <MODEL>
7

>  <REMARK>
 VINA RESULT:      -7.3      3.091      6.794
  Name = 
  5 active torsions:
  status: ('A' for Active; 'I' for Inactive)
    1  A    between atoms: C_3  and  C_20
    2  A    between atoms: C_5  and  C_31
    3  A    between atoms: O_7  and  C_25
    4  A    between atoms: C_8  and  C_24
    5  A    between atoms: C_18  and  N_19
                            x       y       z     vdW  Elec       q    Type
                         _______ _______ _______ _____ _____    ______ ____

>  <TORSDO>
F 5

$$$$
=
 OpenBabel11062421233D

 31 33  0  0  1  0  0  0  0  0999 V2000
  191.7520  173.9740  143.5490 C   0  0  0  0  0  2  0  0  0  0  0  0
  190.8280  174.2520  144.7470 C   0  0  0  0  0  2  0  0  0  0  0  0
  193.0920  176.2100  143.4180 C   0  0  2  0  0  3  0  0  0  0  0  0
  194.1910  174.1240  143.9030 N   0  0  0  0  0  0  0  0  0  0  0  0
  191.8110  178.2430  143.4800 O   0  0  0  0  0  1  0  0  0  0  0  0
  193.0700  174.7160  143.5990 C   0  0  0  0  0  0  0  0  0  0  0  0
  191.7550  176.8810  143.7760 C   0  0  2  0  0  3  0  0  0  0  0  0
  191.3560  176.7060  145.2490 C   0  0  0  0  0  2  0  0  0  0  0  0
  193.4420  176.5080  142.1000 O   0  0  0  0  0  1  0  0  0  0  0  0
  191.4070  175.2570  145.7460 C   0  0  1  0  0  3  0  0  0  0  0  0
  194.6320  170.5850  144.0590 C   0  0  0  0  0  0  0  0  0  0  0  0
  194.4030  172.2660  145.6580 C   0  0  0  0  0  2  0  0  0  0  0  0
  194.5890  170.7550  145.5310 C   0  0  2  0  0  3  0  0  0  0  0  0
  194.5100  171.8060  143.3580 N   0  0  0  0  0  0  0  0  0  0  0  0
  195.9210  170.3570  146.1410 C   0  0  0  0  0  1  0  0  0  0  0  0
  194.3960  172.7420  144.2380 C   0  0  0  0  0  0  0  0  0  0  0  0
  194.7380  169.4750  143.4770 O   0  0  0  0  0  0  0  0  0  0  0  0
  191.5080  174.9140  148.1940 F   0  0  0  0  0  0  0  0  0  0  0  0
  190.7610  175.1150  147.0790 C   0  0  0  0  0  0  0  0  0  0  0  0
  188.2220  175.6680  147.2540 C   0  0  0  0  0  3  0  0  0  0  0  0
  189.4890  175.3760  147.1870 C   0  0  0  0  0  0  0  0  0  0  0  0
  185.4050  177.6360  145.6200 C   0  0  1  0  0  3  0  0  0  0  0  0
  186.2780  178.4650  144.6760 C   0  0  0  0  0  2  0  0  0  0  0  0
  187.8370  176.4380  144.9340 C   0  0  0  0  0  2  0  0  0  0  0  0
  187.6890  176.7740  146.4140 C   0  0  1  0  0  3  0  0  0  0  0  0
  187.4120  177.6280  144.0620 C   0  0  1  0  0  3  0  0  0  0  0  0
  186.2270  177.0580  146.7820 C   0  0  0  0  0  2  0  0  0  0  0  0
  187.0340  177.1700  142.7990 O   0  0  0  0  0  0  0  0  0  0  0  0
  186.4810  178.2830  142.1650 C   0  0  0  0  0  1  0  0  0  0  0  0
  184.4410  178.6670  147.5440 O   0  0  0  0  0  1  0  0  0  0  0  0
  184.2720  178.4790  146.1720 C   0  0  0  0  0  2  0  0  0  0  0  0
  1  6  1  0  0  0  0
  1  2  1  0  0  0  0
  2 10  1  0  0  0  0
  3  9  1  6  0  0  0
  3  6  1  0  0  0  0
  3  7  1  0  0  0  0
  4 16  1  0  0  0  0
  6  4  2  0  0  0  0
  7  5  1  1  0  0  0
  7  8  1  0  0  0  0
  8 10  1  0  0  0  0
 10 19  1  1  0  0  0
 11 13  1  0  0  0  0
 13 12  1  0  0  0  0
 13 15  1  1  0  0  0
 14 11  1  0  0  0  0
 14 16  2  0  0  0  0
 16 12  1  0  0  0  0
 17 11  2  0  0  0  0
 19 21  2  0  0  0  0
 19 18  1  0  0  0  0
 21 20  2  0  0  0  0
 22 31  1  1  0  0  0
 22 27  1  0  0  0  0
 23 22  1  0  0  0  0
 24 25  1  0  0  0  0
 25 27  1  0  0  0  0
 25 20  1  1  0  0  0
 26 28  1  6  0  0  0
 26 23  1  0  0  0  0
 26 24  1  0  0  0  0
 29 28  1  0  0  0  0
 31 30  1  0  0  0  0
M  END
>  <MODEL>
8

>  <REMARK>
 VINA RESULT:      -7.3      2.911      8.259
  Name = 
  5 active torsions:
  status: ('A' for Active; 'I' for Inactive)
    1  A    between atoms: C_3  and  C_20
    2  A    between atoms: C_5  and  C_31
    3  A    between atoms: O_7  and  C_25
    4  A    between atoms: C_8  and  C_24
    5  A    between atoms: C_18  and  N_19
                            x       y       z     vdW  Elec       q    Type
                         _______ _______ _______ _____ _____    ______ ____

>  <TORSDO>
F 5

$$$$
=
 OpenBabel11062421233D

 31 33  0  0  1  0  0  0  0  0999 V2000
  185.9500  176.1310  143.3070 C   0  0  0  0  0  2  0  0  0  0  0  0
  186.0120  176.1740  144.8440 C   0  0  0  0  0  2  0  0  0  0  0  0
  186.6730  178.5660  142.7060 C   0  0  2  0  0  3  0  0  0  0  0  0
  188.0020  176.6710  142.0450 N   0  0  0  0  0  0  0  0  0  0  0  0
  185.5670  180.3450  143.8880 O   0  0  0  0  0  1  0  0  0  0  0  0
  186.9080  177.0820  142.6230 C   0  0  0  0  0  0  0  0  0  0  0  0
  185.8410  178.9770  143.9330 C   0  0  2  0  0  3  0  0  0  0  0  0
  186.5180  178.6470  145.2720 C   0  0  0  0  0  2  0  0  0  0  0  0
  186.0480  178.9990  141.5350 O   0  0  0  0  0  1  0  0  0  0  0  0
  187.0100  177.2000  145.3870 C   0  0  1  0  0  3  0  0  0  0  0  0
  189.0220  173.3680  141.1580 C   0  0  0  0  0  0  0  0  0  0  0  0
  188.9260  174.5550  143.1610 C   0  0  0  0  0  2  0  0  0  0  0  0
  189.3130  173.1880  142.6010 C   0  0  2  0  0  3  0  0  0  0  0  0
  188.5410  174.6600  140.8480 N   0  0  0  0  0  0  0  0  0  0  0  0
  190.7980  172.9580  142.8090 C   0  0  0  0  0  1  0  0  0  0  0  0
  188.4980  175.3270  141.9510 C   0  0  0  0  0  0  0  0  0  0  0  0
  189.1570  172.4660  140.2900 O   0  0  0  0  0  0  0  0  0  0  0  0
  186.4890  176.4210  147.6760 F   0  0  0  0  0  0  0  0  0  0  0  0
  187.4070  176.8690  146.7830 C   0  0  0  0  0  0  0  0  0  0  0  0
  189.9520  176.7870  147.3280 C   0  0  0  0  0  3  0  0  0  0  0  0
  188.6750  176.8330  147.0800 C   0  0  0  0  0  0  0  0  0  0  0  0
  193.3720  176.4160  145.7030 C   0  0  1  0  0  3  0  0  0  0  0  0
  192.8880  175.8320  144.3750 C   0  0  0  0  0  2  0  0  0  0  0  0
  190.7560  177.1180  145.0110 C   0  0  0  0  0  2  0  0  0  0  0  0
  190.8750  176.2780  146.2780 C   0  0  1  0  0  3  0  0  0  0  0  0
  191.6050  176.5200  143.8800 C   0  0  1  0  0  3  0  0  0  0  0  0
  192.3150  176.2590  146.8060 C   0  0  0  0  0  2  0  0  0  0  0  0
  191.9260  177.5180  142.9590 O   0  0  0  0  0  0  0  0  0  0  0  0
  191.2950  178.6660  143.4400 C   0  0  0  0  0  1  0  0  0  0  0  0
  195.5270  175.6270  145.0500 O   0  0  0  0  0  1  0  0  0  0  0  0
  194.6610  175.7470  146.1380 C   0  0  0  0  0  2  0  0  0  0  0  0
  1  2  1  0  0  0  0
  2 10  1  0  0  0  0
  3  9  1  6  0  0  0
  3  7  1  0  0  0  0
  4  6  2  0  0  0  0
  6  3  1  0  0  0  0
  6  1  1  0  0  0  0
  7  5  1  6  0  0  0
  7  8  1  0  0  0  0
  8 10  1  0  0  0  0
 10 19  1  1  0  0  0
 11 13  1  0  0  0  0
 13 15  1  6  0  0  0
 13 12  1  0  0  0  0
 14 11  1  0  0  0  0
 14 16  2  0  0  0  0
 16  4  1  0  0  0  0
 16 12  1  0  0  0  0
 17 11  2  0  0  0  0
 19 21  2  0  0  0  0
 19 18  1  0  0  0  0
 21 20  2  0  0  0  0
 22 31  1  1  0  0  0
 22 27  1  0  0  0  0
 23 22  1  0  0  0  0
 24 25  1  0  0  0  0
 25 27  1  0  0  0  0
 25 20  1  1  0  0  0
 26 28  1  6  0  0  0
 26 23  1  0  0  0  0
 26 24  1  0  0  0  0
 28 29  1  0  0  0  0
 30 31  1  0  0  0  0
M  END
>  <MODEL>
9

>  <REMARK>
 VINA RESULT:      -7.2      2.235      5.139
  Name = 
  5 active torsions:
  status: ('A' for Active; 'I' for Inactive)
    1  A    between atoms: C_3  and  C_20
    2  A    between atoms: C_5  and  C_31
    3  A    between atoms: O_7  and  C_25
    4  A    between atoms: C_8  and  C_24
    5  A    between atoms: C_18  and  N_19
                            x       y       z     vdW  Elec       q    Type
                         _______ _______ _______ _____ _____    ______ ____

>  <TORSDO>
F 5

$$$$
