=
 OpenBabel11062422583D

 29 33  0  0  1  0  0  0  0  0999 V2000
  186.6070  178.7450  144.7650 N   0  0  0  0  0  2  0  0  0  0  0  0
  185.1060  177.8150  147.2790 C   0  0  0  0  0  2  0  0  0  0  0  0
  184.3490  178.8870  146.5070 C   0  0  0  0  0  2  0  0  0  0  0  0
  186.6100  177.9680  147.0920 C   0  0  0  0  0  2  0  0  0  0  0  0
  185.3090  178.3980  144.1890 C   0  0  2  0  0  0  0  0  0  0  0  0
  187.0210  177.6660  145.6560 C   0  0  2  0  0  3  0  0  0  0  0  0
  184.3830  179.5900  144.1310 C   0  0  0  0  0  2  0  0  0  0  0  0
  184.0670  178.4370  145.0760 C   0  0  2  0  0  3  0  0  0  0  0  0
  191.2550  177.0280  145.3190 C   0  0  0  0  0  3  0  0  0  0  0  0
  191.1760  177.6300  142.8960 C   0  0  0  0  0  1  0  0  0  0  0  0
  188.4950  177.4420  145.5570 C   0  0  0  0  0  0  0  0  0  0  0  0
  189.1300  177.6340  144.3270 C   0  0  0  0  0  3  0  0  0  0  0  0
  190.6260  176.8410  146.5560 C   0  0  0  0  0  0  0  0  0  0  0  0
  190.5080  177.4270  144.2070 C   0  0  0  0  0  0  0  0  0  0  0  0
  189.2450  177.0390  146.6720 C   0  0  0  0  0  3  0  0  0  0  0  0
  191.4190  176.3900  147.7360 C   0  0  0  0  0  0  0  0  0  0  0  0
  191.3090  175.0650  148.0730 O   0  0  0  0  0  0  0  0  0  0  0  0
  191.6540  177.2390  148.8170 O   0  0  0  0  0  1  0  0  0  0  0  0
  192.4380  175.5080  147.4830 O   0  0  0  0  0  0  0  0  0  0  0  0
  185.2760  177.4390  142.6370 S   0  0  0  0  0  0  0  0  0  0  0  0
  186.5820  178.4170  141.8390 C   0  0  0  0  0  2  0  0  0  0  0  0
  187.5660  177.5020  141.1340 C   0  0  0  0  0  2  0  0  0  0  0  0
  187.3330  176.0510  141.5320 C   0  0  0  0  0  2  0  0  0  0  0  0
  188.6360  175.2650  141.5700 C   0  0  1  0  0  3  0  0  0  0  0  0
  188.5040  174.0720  142.5050 C   0  0  1  0  0  3  0  0  0  0  0  0
  188.5720  173.1290  141.3190 C   0  0  0  0  0  2  0  0  0  0  0  0
  188.6930  174.3190  140.3840 C   0  0  0  0  0  2  0  0  0  0  0  0
  189.7100  173.9270  143.3880 C   0  0  0  0  0  3  0  0  0  0  0  0
  189.6250  173.9960  144.6050 O   0  0  0  0  0  0  0  0  0  0  0  0
  1  6  1  0  0  0  0
  3  2  1  0  0  0  0
  4  2  1  0  0  0  0
  5 20  1  6  0  0  0
  5  1  1  0  0  0  0
  5  8  1  0  0  0  0
  6 11  1  1  0  0  0
  6  4  1  0  0  0  0
  7  5  1  0  0  0  0
  8  7  1  6  0  0  0
  8  3  1  0  0  0  0
  9 13  1  0  0  0  0
 10 14  1  0  0  0  0
 11 15  1  0  0  0  0
 12 11  2  0  0  0  0
 13 15  2  0  0  0  0
 13 16  1  0  0  0  0
 14 12  1  0  0  0  0
 14  9  2  0  0  0  0
 16 17  1  0  0  0  0
 16 18  1  0  0  0  0
 19 16  1  0  0  0  0
 19 17  1  0  0  0  0
 21 20  1  0  0  0  0
 22 23  1  0  0  0  0
 22 21  1  0  0  0  0
 24 23  1  6  0  0  0
 24 25  1  0  0  0  0
 25 28  1  1  0  0  0
 26 25  1  0  0  0  0
 27 26  1  0  0  0  0
 27 24  1  0  0  0  0
 28 29  2  0  0  0  0
M  END
>  <MODEL>
1

>  <REMARK>
 VINA RESULT:      -7.1      0.000      0.000
  Name = 
  8 active torsions:
  status: ('A' for Active; 'I' for Inactive)
    1  A    between atoms: C_5  and  C_15
    2  A    between atoms: C_5  and  C_20
    3  A    between atoms: C_7  and  C_13
    4  A    between atoms: C_8  and  C_21
    5  A    between atoms: S_9  and  C_11
    6  A    between atoms: S_9  and  C_15
    7  A    between atoms: C_12  and  C_20
    8  A    between atoms: C_16  and  C_17
                            x       y       z     vdW  Elec       q    Type
                         _______ _______ _______ _____ _____    ______ ____

>  <TORSDO>
F 8

$$$$
=
 OpenBabel11062422583D

 29 33  0  0  1  0  0  0  0  0999 V2000
  186.2350  176.8430  142.7870 N   0  0  0  0  0  2  0  0  0  0  0  0
  186.5610  177.7210  139.8600 C   0  0  0  0  0  2  0  0  0  0  0  0
  185.1060  177.7060  140.3100 C   0  0  0  0  0  2  0  0  0  0  0  0
  187.3770  176.6840  140.6210 C   0  0  0  0  0  2  0  0  0  0  0  0
  185.5020  178.1070  142.8030 C   0  0  2  0  0  0  0  0  0  0  0  0
  187.5030  177.0520  142.0950 C   0  0  2  0  0  3  0  0  0  0  0  0
  184.0300  177.9070  142.5330 C   0  0  0  0  0  2  0  0  0  0  0  0
  184.8910  178.6300  141.5060 C   0  0  2  0  0  3  0  0  0  0  0  0
  190.6620  174.8480  143.9930 C   0  0  0  0  0  3  0  0  0  0  0  0
  191.6320  176.9670  144.8920 C   0  0  0  0  0  1  0  0  0  0  0  0
  188.5930  176.2690  142.7510 C   0  0  0  0  0  0  0  0  0  0  0  0
  189.5660  176.9480  143.4900 C   0  0  0  0  0  3  0  0  0  0  0  0
  189.6870  174.1610  143.2610 C   0  0  0  0  0  0  0  0  0  0  0  0
  190.5990  176.2400  144.1100 C   0  0  0  0  0  0  0  0  0  0  0  0
  188.6590  174.8730  142.6310 C   0  0  0  0  0  3  0  0  0  0  0  0
  189.7680  172.6790  143.1140 C   0  0  0  0  0  0  0  0  0  0  0  0
  189.1950  171.9350  144.1150 O   0  0  0  0  0  0  0  0  0  0  0  0
  190.8640  172.0710  142.5040 O   0  0  0  0  0  1  0  0  0  0  0  0
  188.5800  172.0220  142.9170 O   0  0  0  0  0  0  0  0  0  0  0  0
  185.7840  179.2570  144.1910 S   0  0  0  0  0  0  0  0  0  0  0  0
  184.2700  178.7840  145.0760 C   0  0  0  0  0  2  0  0  0  0  0  0
  184.6150  178.1930  146.4300 C   0  0  0  0  0  2  0  0  0  0  0  0
  185.3060  176.8470  146.2700 C   0  0  0  0  0  2  0  0  0  0  0  0
  186.4650  176.6920  147.2460 C   0  0  1  0  0  3  0  0  0  0  0  0
  187.7410  176.3390  146.4970 C   0  0  1  0  0  3  0  0  0  0  0  0
  188.3190  177.7010  146.8300 C   0  0  0  0  0  2  0  0  0  0  0  0
  187.0420  178.0580  147.5690 C   0  0  0  0  0  2  0  0  0  0  0  0
  188.4980  175.2400  147.1840 C   0  0  0  0  0  3  0  0  0  0  0  0
  189.7000  175.3190  147.3880 O   0  0  0  0  0  0  0  0  0  0  0  0
  1  5  1  0  0  0  0
  2  3  1  0  0  0  0
  2  4  1  0  0  0  0
  4  6  1  0  0  0  0
  5 20  1  1  0  0  0
  6 11  1  1  0  0  0
  6  1  1  0  0  0  0
  7  5  1  0  0  0  0
  8  3  1  6  0  0  0
  8  7  1  0  0  0  0
  8  5  1  0  0  0  0
  9 14  1  0  0  0  0
 11 12  1  0  0  0  0
 12 14  2  0  0  0  0
 13  9  2  0  0  0  0
 14 10  1  0  0  0  0
 15 11  2  0  0  0  0
 15 13  1  0  0  0  0
 16 13  1  0  0  0  0
 16 17  1  0  0  0  0
 18 16  1  0  0  0  0
 19 16  1  0  0  0  0
 19 17  1  0  0  0  0
 20 21  1  0  0  0  0
 21 22  1  0  0  0  0
 23 22  1  0  0  0  0
 24 23  1  6  0  0  0
 24 27  1  0  0  0  0
 25 26  1  0  0  0  0
 25 28  1  1  0  0  0
 25 24  1  0  0  0  0
 26 27  1  0  0  0  0
 28 29  2  0  0  0  0
M  END
>  <MODEL>
2

>  <REMARK>
 VINA RESULT:      -7.0      1.719      4.997
  Name = 
  8 active torsions:
  status: ('A' for Active; 'I' for Inactive)
    1  A    between atoms: C_5  and  C_15
    2  A    between atoms: C_5  and  C_20
    3  A    between atoms: C_7  and  C_13
    4  A    between atoms: C_8  and  C_21
    5  A    between atoms: S_9  and  C_11
    6  A    between atoms: S_9  and  C_15
    7  A    between atoms: C_12  and  C_20
    8  A    between atoms: C_16  and  C_17
                            x       y       z     vdW  Elec       q    Type
                         _______ _______ _______ _____ _____    ______ ____

>  <TORSDO>
F 8

$$$$
=
 OpenBabel11062422583D

 29 33  0  0  1  0  0  0  0  0999 V2000
  186.2320  177.0290  144.9120 N   0  0  0  0  0  2  0  0  0  0  0  0
  185.4860  179.7880  143.7840 C   0  0  0  0  0  2  0  0  0  0  0  0
  184.3850  179.1910  144.6500 C   0  0  0  0  0  2  0  0  0  0  0  0
  186.3040  178.6940  143.1100 C   0  0  0  0  0  2  0  0  0  0  0  0
  185.8610  177.7290  146.1400 C   0  0  2  0  0  0  0  0  0  0  0  0
  187.1080  177.8980  144.1310 C   0  0  2  0  0  3  0  0  0  0  0  0
  184.4050  177.5250  146.4840 C   0  0  0  0  0  2  0  0  0  0  0  0
  184.8910  178.9060  146.0620 C   0  0  2  0  0  3  0  0  0  0  0  0
  190.2200  175.6400  142.2180 C   0  0  0  0  0  3  0  0  0  0  0  0
  191.9040  177.3670  142.8660 C   0  0  0  0  0  1  0  0  0  0  0  0
  188.1790  177.0980  143.4630 C   0  0  0  0  0  0  0  0  0  0  0  0
  189.4920  177.5780  143.4740 C   0  0  0  0  0  3  0  0  0  0  0  0
  188.9090  175.1500  142.2090 C   0  0  0  0  0  0  0  0  0  0  0  0
  190.5110  176.8510  142.8530 C   0  0  0  0  0  0  0  0  0  0  0  0
  187.8870  175.8850  142.8230 C   0  0  0  0  0  3  0  0  0  0  0  0
  188.5930  173.8710  141.5090 C   0  0  0  0  0  0  0  0  0  0  0  0
  188.8350  172.7170  142.2110 O   0  0  0  0  0  0  0  0  0  0  0  0
  188.7430  173.7450  140.1290 O   0  0  0  0  0  1  0  0  0  0  0  0
  187.5630  173.1300  142.0320 O   0  0  0  0  0  0  0  0  0  0  0  0
  186.9340  177.5460  147.6030 S   0  0  0  0  0  0  0  0  0  0  0  0
  187.8070  176.0900  146.9560 C   0  0  0  0  0  2  0  0  0  0  0  0
  189.3030  176.3440  146.9290 C   0  0  0  0  0  2  0  0  0  0  0  0
  190.0650  175.0520  146.6740 C   0  0  0  0  0  2  0  0  0  0  0  0
  191.2690  175.2800  145.7710 C   0  0  1  0  0  3  0  0  0  0  0  0
  192.5470  175.3120  146.5950 C   0  0  1  0  0  3  0  0  0  0  0  0
  192.9840  173.9970  145.9770 C   0  0  0  0  0  2  0  0  0  0  0  0
  191.7040  173.9590  145.1620 C   0  0  0  0  0  2  0  0  0  0  0  0
  193.4460  176.4390  146.1750 C   0  0  0  0  0  3  0  0  0  0  0  0
  194.1020  177.0730  146.9890 O   0  0  0  0  0  0  0  0  0  0  0  0
  1  5  1  0  0  0  0
  2  3  1  0  0  0  0
  4  2  1  0  0  0  0
  4  6  1  0  0  0  0
  5  7  1  0  0  0  0
  5 20  1  1  0  0  0
  6 11  1  6  0  0  0
  6  1  1  0  0  0  0
  8  3  1  6  0  0  0
  8  5  1  0  0  0  0
  8  7  1  0  0  0  0
  9 14  1  0  0  0  0
 11 12  1  0  0  0  0
 13  9  2  0  0  0  0
 13 15  1  0  0  0  0
 14 10  1  0  0  0  0
 14 12  2  0  0  0  0
 15 11  2  0  0  0  0
 16 19  1  0  0  0  0
 16 13  1  0  0  0  0
 16 17  1  0  0  0  0
 18 16  1  0  0  0  0
 19 17  1  0  0  0  0
 21 20  1  0  0  0  0
 22 21  1  0  0  0  0
 23 22  1  0  0  0  0
 24 25  1  0  0  0  0
 24 23  1  1  0  0  0
 25 28  1  6  0  0  0
 26 25  1  0  0  0  0
 27 24  1  0  0  0  0
 27 26  1  0  0  0  0
 28 29  2  0  0  0  0
M  END
>  <MODEL>
3

>  <REMARK>
 VINA RESULT:      -6.9      2.155      4.933
  Name = 
  8 active torsions:
  status: ('A' for Active; 'I' for Inactive)
    1  A    between atoms: C_5  and  C_15
    2  A    between atoms: C_5  and  C_20
    3  A    between atoms: C_7  and  C_13
    4  A    between atoms: C_8  and  C_21
    5  A    between atoms: S_9  and  C_11
    6  A    between atoms: S_9  and  C_15
    7  A    between atoms: C_12  and  C_20
    8  A    between atoms: C_16  and  C_17
                            x       y       z     vdW  Elec       q    Type
                         _______ _______ _______ _____ _____    ______ ____

>  <TORSDO>
F 8

$$$$
=
 OpenBabel11062422583D

 29 33  0  0  1  0  0  0  0  0999 V2000
  186.2760  176.6960  142.7060 N   0  0  0  0  0  2  0  0  0  0  0  0
  186.6470  177.6890  139.8220 C   0  0  0  0  0  2  0  0  0  0  0  0
  185.1970  177.7500  140.2820 C   0  0  0  0  0  2  0  0  0  0  0  0
  187.3960  176.5640  140.5270 C   0  0  0  0  0  2  0  0  0  0  0  0
  185.6300  178.0040  142.7880 C   0  0  2  0  0  0  0  0  0  0  0  0
  187.5520  176.8520  142.0150 C   0  0  2  0  0  3  0  0  0  0  0  0
  184.1460  177.9160  142.5190 C   0  0  0  0  0  2  0  0  0  0  0  0
  185.0500  178.6280  141.5210 C   0  0  2  0  0  3  0  0  0  0  0  0
  190.5030  174.2670  143.7620 C   0  0  0  0  0  3  0  0  0  0  0  0
  189.1510  172.2620  143.1370 C   0  0  0  0  0  1  0  0  0  0  0  0
  188.5900  175.9670  142.6250 C   0  0  0  0  0  0  0  0  0  0  0  0
  188.4030  174.5820  142.5990 C   0  0  0  0  0  3  0  0  0  0  0  0
  190.7010  175.6530  143.7850 C   0  0  0  0  0  0  0  0  0  0  0  0
  189.3570  173.7330  143.1660 C   0  0  0  0  0  0  0  0  0  0  0  0
  189.7390  176.5030  143.2250 C   0  0  0  0  0  3  0  0  0  0  0  0
  191.9110  176.2250  144.4430 C   0  0  0  0  0  0  0  0  0  0  0  0
  192.9880  176.4700  143.6300 O   0  0  0  0  0  0  0  0  0  0  0  0
  192.2470  175.8910  145.7550 O   0  0  0  0  0  1  0  0  0  0  0  0
  192.2510  177.5050  144.0850 O   0  0  0  0  0  0  0  0  0  0  0  0
  185.9950  179.0650  144.2260 S   0  0  0  0  0  0  0  0  0  0  0  0
  184.5090  178.5710  145.1470 C   0  0  0  0  0  2  0  0  0  0  0  0
  184.8980  177.9080  146.4550 C   0  0  0  0  0  2  0  0  0  0  0  0
  185.6770  176.6260  146.1980 C   0  0  0  0  0  2  0  0  0  0  0  0
  186.8790  176.5050  147.1260 C   0  0  1  0  0  3  0  0  0  0  0  0
  188.1310  176.1770  146.3270 C   0  0  1  0  0  3  0  0  0  0  0  0
  188.6900  177.5550  146.6270 C   0  0  0  0  0  2  0  0  0  0  0  0
  187.4360  177.8870  147.4160 C   0  0  0  0  0  2  0  0  0  0  0  0
  188.9420  175.1010  146.9890 C   0  0  0  0  0  3  0  0  0  0  0  0
  188.5560  174.5400  148.0040 O   0  0  0  0  0  0  0  0  0  0  0  0
  1  5  1  0  0  0  0
  2  3  1  0  0  0  0
  2  4  1  0  0  0  0
  4  6  1  0  0  0  0
  5 20  1  1  0  0  0
  6 11  1  1  0  0  0
  6  1  1  0  0  0  0
  7  5  1  0  0  0  0
  8  3  1  6  0  0  0
  8  7  1  0  0  0  0
  8  5  1  0  0  0  0
  9 13  1  0  0  0  0
 10 14  1  0  0  0  0
 11 15  1  0  0  0  0
 12 11  2  0  0  0  0
 12 14  1  0  0  0  0
 13 16  1  0  0  0  0
 14  9  2  0  0  0  0
 15 13  2  0  0  0  0
 16 18  1  0  0  0  0
 17 19  1  0  0  0  0
 17 16  1  0  0  0  0
 19 16  1  0  0  0  0
 20 21  1  0  0  0  0
 21 22  1  0  0  0  0
 23 22  1  0  0  0  0
 24 23  1  6  0  0  0
 24 27  1  0  0  0  0
 25 26  1  0  0  0  0
 25 28  1  1  0  0  0
 25 24  1  0  0  0  0
 26 27  1  0  0  0  0
 28 29  2  0  0  0  0
M  END
>  <MODEL>
4

>  <REMARK>
 VINA RESULT:      -6.8      1.881      4.667
  Name = 
  8 active torsions:
  status: ('A' for Active; 'I' for Inactive)
    1  A    between atoms: C_5  and  C_15
    2  A    between atoms: C_5  and  C_20
    3  A    between atoms: C_7  and  C_13
    4  A    between atoms: C_8  and  C_21
    5  A    between atoms: S_9  and  C_11
    6  A    between atoms: S_9  and  C_15
    7  A    between atoms: C_12  and  C_20
    8  A    between atoms: C_16  and  C_17
                            x       y       z     vdW  Elec       q    Type
                         _______ _______ _______ _____ _____    ______ ____

>  <TORSDO>
F 8

$$$$
=
 OpenBabel11062422583D

 29 33  0  0  1  0  0  0  0  0999 V2000
  187.0270  178.3050  144.7260 N   0  0  0  0  0  2  0  0  0  0  0  0
  185.4540  177.7380  147.3040 C   0  0  0  0  0  2  0  0  0  0  0  0
  185.0330  179.0390  146.6330 C   0  0  0  0  0  2  0  0  0  0  0  0
  186.9160  177.4230  147.0130 C   0  0  0  0  0  2  0  0  0  0  0  0
  185.6560  178.4180  144.2330 C   0  0  2  0  0  0  0  0  0  0  0  0
  187.1280  177.0970  145.5400 C   0  0  2  0  0  3  0  0  0  0  0  0
  185.1540  179.8410  144.2920 C   0  0  0  0  0  2  0  0  0  0  0  0
  184.5430  178.7900  145.2100 C   0  0  2  0  0  3  0  0  0  0  0  0
  190.8990  175.1310  144.9440 C   0  0  0  0  0  3  0  0  0  0  0  0
  189.9330  172.9780  145.7640 C   0  0  0  0  0  1  0  0  0  0  0  0
  188.4470  176.4280  145.3240 C   0  0  0  0  0  0  0  0  0  0  0  0
  188.5770  175.0700  145.6270 C   0  0  0  0  0  3  0  0  0  0  0  0
  190.7740  176.4900  144.6320 C   0  0  0  0  0  0  0  0  0  0  0  0
  189.8010  174.4210  145.4380 C   0  0  0  0  0  0  0  0  0  0  0  0
  189.5500  177.1400  144.8320 C   0  0  0  0  0  3  0  0  0  0  0  0
  191.9530  177.2540  144.1300 C   0  0  0  0  0  0  0  0  0  0  0  0
  192.0570  177.3870  142.7690 O   0  0  0  0  0  0  0  0  0  0  0  0
  193.1760  177.2170  144.7980 O   0  0  0  0  0  1  0  0  0  0  0  0
  191.6850  178.4490  143.5130 O   0  0  0  0  0  0  0  0  0  0  0  0
  185.2320  177.6160  142.6510 S   0  0  0  0  0  0  0  0  0  0  0  0
  186.8170  178.0170  141.8600 C   0  0  0  0  0  2  0  0  0  0  0  0
  187.3910  176.7880  141.1800 C   0  0  0  0  0  2  0  0  0  0  0  0
  187.3500  175.5870  142.1150 C   0  0  0  0  0  2  0  0  0  0  0  0
  188.4830  174.6120  141.8230 C   0  0  1  0  0  3  0  0  0  0  0  0
  187.9620  173.1830  141.8280 C   0  0  1  0  0  3  0  0  0  0  0  0
  188.1900  173.0900  140.3310 C   0  0  0  0  0  2  0  0  0  0  0  0
  188.6990  174.5200  140.3240 C   0  0  0  0  0  2  0  0  0  0  0  0
  188.8810  172.2640  142.5800 C   0  0  0  0  0  3  0  0  0  0  0  0
  189.7490  171.6190  142.0110 O   0  0  0  0  0  0  0  0  0  0  0  0
  1  6  1  0  0  0  0
  3  2  1  0  0  0  0
  4  2  1  0  0  0  0
  5 20  1  6  0  0  0
  5  7  1  0  0  0  0
  5  1  1  0  0  0  0
  5  8  1  0  0  0  0
  6 11  1  1  0  0  0
  6  4  1  0  0  0  0
  8  7  1  6  0  0  0
  8  3  1  0  0  0  0
  9 14  1  0  0  0  0
 11 12  1  0  0  0  0
 13 15  1  0  0  0  0
 13  9  2  0  0  0  0
 14 12  2  0  0  0  0
 14 10  1  0  0  0  0
 15 11  2  0  0  0  0
 16 13  1  0  0  0  0
 16 18  1  0  0  0  0
 17 19  1  0  0  0  0
 17 16  1  0  0  0  0
 19 16  1  0  0  0  0
 21 20  1  0  0  0  0
 22 21  1  0  0  0  0
 22 23  1  0  0  0  0
 24 25  1  0  0  0  0
 24 23  1  6  0  0  0
 25 28  1  1  0  0  0
 26 25  1  0  0  0  0
 27 26  1  0  0  0  0
 27 24  1  0  0  0  0
 29 28  2  0  0  0  0
M  END
>  <MODEL>
5

>  <REMARK>
 VINA RESULT:      -6.8      1.884      2.484
  Name = 
  8 active torsions:
  status: ('A' for Active; 'I' for Inactive)
    1  A    between atoms: C_5  and  C_15
    2  A    between atoms: C_5  and  C_20
    3  A    between atoms: C_7  and  C_13
    4  A    between atoms: C_8  and  C_21
    5  A    between atoms: S_9  and  C_11
    6  A    between atoms: S_9  and  C_15
    7  A    between atoms: C_12  and  C_20
    8  A    between atoms: C_16  and  C_17
                            x       y       z     vdW  Elec       q    Type
                         _______ _______ _______ _____ _____    ______ ____

>  <TORSDO>
F 8

$$$$
=
 OpenBabel11062422583D

 29 33  0  0  1  0  0  0  0  0999 V2000
  186.3980  176.8090  145.2130 N   0  0  0  0  0  2  0  0  0  0  0  0
  185.0180  179.5340  144.8740 C   0  0  0  0  0  2  0  0  0  0  0  0
  184.7200  178.8880  146.2210 C   0  0  0  0  0  2  0  0  0  0  0  0
  185.2730  178.4760  143.8070 C   0  0  0  0  0  2  0  0  0  0  0  0
  186.8520  177.4920  146.4230 C   0  0  2  0  0  0  0  0  0  0  0  0
  186.5650  177.7160  144.0800 C   0  0  2  0  0  3  0  0  0  0  0  0
  185.9380  177.2240  147.5950 C   0  0  0  0  0  2  0  0  0  0  0  0
  186.0060  178.6250  147.0000 C   0  0  2  0  0  3  0  0  0  0  0  0
  187.8120  175.5860  140.5660 C   0  0  0  0  0  3  0  0  0  0  0  0
  186.6340  177.2430  139.1150 C   0  0  0  0  0  1  0  0  0  0  0  0
  187.0100  176.9640  142.8680 C   0  0  0  0  0  0  0  0  0  0  0  0
  186.6360  177.4310  141.6050 C   0  0  0  0  0  3  0  0  0  0  0  0
  188.1960  175.1170  141.8280 C   0  0  0  0  0  0  0  0  0  0  0  0
  187.0360  176.7440  140.4550 C   0  0  0  0  0  0  0  0  0  0  0  0
  187.7860  175.8010  142.9790 C   0  0  0  0  0  3  0  0  0  0  0  0
  189.0020  173.8680  141.9480 C   0  0  0  0  0  0  0  0  0  0  0  0
  188.2960  172.6970  142.0670 O   0  0  0  0  0  0  0  0  0  0  0  0
  190.2350  173.8620  142.5980 O   0  0  0  0  0  1  0  0  0  0  0  0
  188.9140  172.9850  140.9020 O   0  0  0  0  0  0  0  0  0  0  0  0
  188.6100  177.3540  146.8910 S   0  0  0  0  0  0  0  0  0  0  0  0
  188.7500  175.6110  146.4030 C   0  0  0  0  0  2  0  0  0  0  0  0
  189.5300  174.8340  147.4470 C   0  0  0  0  0  2  0  0  0  0  0  0
  190.9700  175.3220  147.5170 C   0  0  0  0  0  2  0  0  0  0  0  0
  191.6620  175.2200  146.1640 C   0  0  1  0  0  3  0  0  0  0  0  0
  192.3490  176.5330  145.8230 C   0  0  1  0  0  3  0  0  0  0  0  0
  193.7040  175.8730  145.9860 C   0  0  0  0  0  2  0  0  0  0  0  0
  193.0200  174.5640  146.3370 C   0  0  0  0  0  2  0  0  0  0  0  0
  192.1020  176.9300  144.3960 C   0  0  0  0  0  3  0  0  0  0  0  0
  190.9730  176.9830  143.9310 O   0  0  0  0  0  0  0  0  0  0  0  0
  1  5  1  0  0  0  0
  2  3  1  0  0  0  0
  4  6  1  0  0  0  0
  4  2  1  0  0  0  0
  5 20  1  1  0  0  0
  5  8  1  0  0  0  0
  5  7  1  0  0  0  0
  6 11  1  6  0  0  0
  6  1  1  0  0  0  0
  8  3  1  6  0  0  0
  8  7  1  0  0  0  0
  9 13  1  0  0  0  0
 10 14  1  0  0  0  0
 11 15  1  0  0  0  0
 12 11  2  0  0  0  0
 13 16  1  0  0  0  0
 13 15  2  0  0  0  0
 14  9  2  0  0  0  0
 14 12  1  0  0  0  0
 16 17  1  0  0  0  0
 16 18  1  0  0  0  0
 19 16  1  0  0  0  0
 19 17  1  0  0  0  0
 21 20  1  0  0  0  0
 21 22  1  0  0  0  0
 22 23  1  0  0  0  0
 24 27  1  0  0  0  0
 24 23  1  1  0  0  0
 25 28  1  6  0  0  0
 25 26  1  0  0  0  0
 25 24  1  0  0  0  0
 26 27  1  0  0  0  0
 29 28  2  0  0  0  0
M  END
>  <MODEL>
6

>  <REMARK>
 VINA RESULT:      -6.6      2.208      5.275
  Name = 
  8 active torsions:
  status: ('A' for Active; 'I' for Inactive)
    1  A    between atoms: C_5  and  C_15
    2  A    between atoms: C_5  and  C_20
    3  A    between atoms: C_7  and  C_13
    4  A    between atoms: C_8  and  C_21
    5  A    between atoms: S_9  and  C_11
    6  A    between atoms: S_9  and  C_15
    7  A    between atoms: C_12  and  C_20
    8  A    between atoms: C_16  and  C_17
                            x       y       z     vdW  Elec       q    Type
                         _______ _______ _______ _____ _____    ______ ____

>  <TORSDO>
F 8

$$$$
=
 OpenBabel11062422583D

 29 33  0  0  1  0  0  0  0  0999 V2000
  190.3830  175.8530  145.3680 N   0  0  0  0  0  2  0  0  0  0  0  0
  190.8070  177.2140  148.0900 C   0  0  0  0  0  2  0  0  0  0  0  0
  191.5700  175.9020  147.9650 C   0  0  0  0  0  2  0  0  0  0  0  0
  189.5400  177.1900  147.2450 C   0  0  0  0  0  2  0  0  0  0  0  0
  191.8420  175.8930  145.4230 C   0  0  2  0  0  0  0  0  0  0  0  0
  189.8690  177.1630  145.7570 C   0  0  2  0  0  3  0  0  0  0  0  0
  192.4180  174.6290  146.0160 C   0  0  0  0  0  2  0  0  0  0  0  0
  192.5360  175.9390  146.7830 C   0  0  2  0  0  3  0  0  0  0  0  0
  186.4600  178.1920  143.3570 C   0  0  0  0  0  3  0  0  0  0  0  0
  187.8120  177.9150  141.2750 C   0  0  0  0  0  1  0  0  0  0  0  0
  188.6720  177.5200  144.9380 C   0  0  0  0  0  0  0  0  0  0  0  0
  188.7870  177.5490  143.5450 C   0  0  0  0  0  3  0  0  0  0  0  0
  186.3350  178.1570  144.7510 C   0  0  0  0  0  0  0  0  0  0  0  0
  187.6830  177.8840  142.7550 C   0  0  0  0  0  0  0  0  0  0  0  0
  187.4450  177.8310  145.5410 C   0  0  0  0  0  3  0  0  0  0  0  0
  185.0370  178.5110  145.3950 C   0  0  0  0  0  0  0  0  0  0  0  0
  184.4680  177.5460  146.1880 O   0  0  0  0  0  0  0  0  0  0  0  0
  184.1190  179.3480  144.7620 O   0  0  0  0  0  1  0  0  0  0  0  0
  185.0470  178.6210  146.7630 O   0  0  0  0  0  0  0  0  0  0  0  0
  192.7540  176.4170  143.9320 S   0  0  0  0  0  0  0  0  0  0  0  0
  193.0680  174.7230  143.3570 C   0  0  0  0  0  2  0  0  0  0  0  0
  192.4650  174.5150  141.9800 C   0  0  0  0  0  2  0  0  0  0  0  0
  191.0290  175.0170  141.9400 C   0  0  0  0  0  2  0  0  0  0  0  0
  190.0480  173.8850  141.6640 C   0  0  1  0  0  3  0  0  0  0  0  0
  189.2530  173.5590  142.9190 C   0  0  1  0  0  3  0  0  0  0  0  0
  187.9970  174.1120  142.2740 C   0  0  0  0  0  2  0  0  0  0  0  0
  188.7910  174.4480  141.0240 C   0  0  0  0  0  2  0  0  0  0  0  0
  189.1500  172.0760  143.1360 C   0  0  0  0  0  3  0  0  0  0  0  0
  189.7080  171.2790  142.3970 O   0  0  0  0  0  0  0  0  0  0  0  0
  1  5  1  0  0  0  0
  1  6  1  0  0  0  0
  3  2  1  0  0  0  0
  4  2  1  0  0  0  0
  5 20  1  6  0  0  0
  5  7  1  0  0  0  0
  5  8  1  0  0  0  0
  6 11  1  6  0  0  0
  6  4  1  0  0  0  0
  8  7  1  1  0  0  0
  8  3  1  0  0  0  0
  9 13  1  0  0  0  0
 10 14  1  0  0  0  0
 11 15  1  0  0  0  0
 12 11  2  0  0  0  0
 13 16  1  0  0  0  0
 13 15  2  0  0  0  0
 14  9  2  0  0  0  0
 14 12  1  0  0  0  0
 16 17  1  0  0  0  0
 16 19  1  0  0  0  0
 17 19  1  0  0  0  0
 18 16  1  0  0  0  0
 21 20  1  0  0  0  0
 22 21  1  0  0  0  0
 23 22  1  0  0  0  0
 24 23  1  1  0  0  0
 24 25  1  0  0  0  0
 25 28  1  6  0  0  0
 26 25  1  0  0  0  0
 27 24  1  0  0  0  0
 27 26  1  0  0  0  0
 29 28  2  0  0  0  0
M  END
>  <MODEL>
7

>  <REMARK>
 VINA RESULT:      -6.6      3.212      5.515
  Name = 
  8 active torsions:
  status: ('A' for Active; 'I' for Inactive)
    1  A    between atoms: C_5  and  C_15
    2  A    between atoms: C_5  and  C_20
    3  A    between atoms: C_7  and  C_13
    4  A    between atoms: C_8  and  C_21
    5  A    between atoms: S_9  and  C_11
    6  A    between atoms: S_9  and  C_15
    7  A    between atoms: C_12  and  C_20
    8  A    between atoms: C_16  and  C_17
                            x       y       z     vdW  Elec       q    Type
                         _______ _______ _______ _____ _____    ______ ____

>  <TORSDO>
F 8

$$$$
=
 OpenBabel11062422583D

 29 33  0  0  1  0  0  0  0  0999 V2000
  187.2880  178.0360  144.8640 N   0  0  0  0  0  2  0  0  0  0  0  0
  185.1920  178.0780  147.1110 C   0  0  0  0  0  2  0  0  0  0  0  0
  184.9490  179.1550  146.0620 C   0  0  0  0  0  2  0  0  0  0  0  0
  186.6760  177.7500  147.2230 C   0  0  0  0  0  2  0  0  0  0  0  0
  186.0550  177.9750  144.0820 C   0  0  2  0  0  0  0  0  0  0  0  0
  187.1890  177.0740  145.9580 C   0  0  2  0  0  3  0  0  0  0  0  0
  185.5800  179.3500  143.6740 C   0  0  0  0  0  2  0  0  0  0  0  0
  184.7670  178.5410  144.6760 C   0  0  2  0  0  3  0  0  0  0  0  0
  191.0010  175.2340  146.6830 C   0  0  0  0  0  3  0  0  0  0  0  0
  191.5630  177.0020  148.3550 C   0  0  0  0  0  1  0  0  0  0  0  0
  188.5100  176.4190  146.2000 C   0  0  0  0  0  0  0  0  0  0  0  0
  189.3890  176.9850  147.1280 C   0  0  0  0  0  3  0  0  0  0  0  0
  190.1230  174.6570  145.7580 C   0  0  0  0  0  0  0  0  0  0  0  0
  190.6330  176.3940  147.3700 C   0  0  0  0  0  0  0  0  0  0  0  0
  188.8810  175.2560  145.5100 C   0  0  0  0  0  3  0  0  0  0  0  0
  190.5260  173.4330  145.0060 C   0  0  0  0  0  0  0  0  0  0  0  0
  191.2130  173.6360  143.8360 O   0  0  0  0  0  0  0  0  0  0  0  0
  189.7350  172.2850  145.0150 O   0  0  0  0  0  1  0  0  0  0  0  0
  191.8730  173.1870  144.9240 O   0  0  0  0  0  0  0  0  0  0  0  0
  185.9610  176.7890  142.6990 S   0  0  0  0  0  0  0  0  0  0  0  0
  187.4800  177.3830  141.9000 C   0  0  0  0  0  2  0  0  0  0  0  0
  188.6000  176.3780  142.0900 C   0  0  0  0  0  2  0  0  0  0  0  0
  188.0980  174.9610  141.8550 C   0  0  0  0  0  2  0  0  0  0  0  0
  189.0340  174.1780  140.9450 C   0  0  1  0  0  3  0  0  0  0  0  0
  188.6470  172.7070  140.9300 C   0  0  1  0  0  3  0  0  0  0  0  0
  188.1920  172.8360  139.4890 C   0  0  0  0  0  2  0  0  0  0  0  0
  188.5680  174.3070  139.5060 C   0  0  0  0  0  2  0  0  0  0  0  0
  189.8520  171.8180  141.0460 C   0  0  0  0  0  3  0  0  0  0  0  0
  190.0430  171.1220  142.0320 O   0  0  0  0  0  0  0  0  0  0  0  0
  1  6  1  0  0  0  0
  2  4  1  0  0  0  0
  3  2  1  0  0  0  0
  5 20  1  6  0  0  0
  5  8  1  0  0  0  0
  5  1  1  0  0  0  0
  6 11  1  1  0  0  0
  6  4  1  0  0  0  0
  7  5  1  0  0  0  0
  8  7  1  6  0  0  0
  8  3  1  0  0  0  0
  9 14  1  0  0  0  0
 11 12  1  0  0  0  0
 12 14  2  0  0  0  0
 13  9  2  0  0  0  0
 14 10  1  0  0  0  0
 15 13  1  0  0  0  0
 15 11  2  0  0  0  0
 16 18  1  0  0  0  0
 16 13  1  0  0  0  0
 17 19  1  0  0  0  0
 17 16  1  0  0  0  0
 19 16  1  0  0  0  0
 21 22  1  0  0  0  0
 21 20  1  0  0  0  0
 23 22  1  0  0  0  0
 24 23  1  1  0  0  0
 25 24  1  0  0  0  0
 25 28  1  6  0  0  0
 26 27  1  0  0  0  0
 26 25  1  0  0  0  0
 27 24  1  0  0  0  0
 28 29  2  0  0  0  0
M  END
>  <MODEL>
8

>  <REMARK>
 VINA RESULT:      -6.5      1.936      2.674
  Name = 
  8 active torsions:
  status: ('A' for Active; 'I' for Inactive)
    1  A    between atoms: C_5  and  C_15
    2  A    between atoms: C_5  and  C_20
    3  A    between atoms: C_7  and  C_13
    4  A    between atoms: C_8  and  C_21
    5  A    between atoms: S_9  and  C_11
    6  A    between atoms: S_9  and  C_15
    7  A    between atoms: C_12  and  C_20
    8  A    between atoms: C_16  and  C_17
                            x       y       z     vdW  Elec       q    Type
                         _______ _______ _______ _____ _____    ______ ____

>  <TORSDO>
F 8

$$$$
=
 OpenBabel11062422583D

 29 33  0  0  1  0  0  0  0  0999 V2000
  192.2300  176.5620  145.0330 N   0  0  0  0  0  2  0  0  0  0  0  0
  194.5750  174.8400  144.0440 C   0  0  0  0  0  2  0  0  0  0  0  0
  195.0000  175.8700  145.0820 C   0  0  0  0  0  2  0  0  0  0  0  0
  193.3760  175.3340  143.2440 C   0  0  0  0  0  2  0  0  0  0  0  0
  192.7660  176.0830  146.3050 C   0  0  2  0  0  0  0  0  0  0  0  0
  192.1310  175.4290  144.1170 C   0  0  2  0  0  3  0  0  0  0  0  0
  193.7750  177.0440  146.8880 C   0  0  0  0  0  2  0  0  0  0  0  0
  194.2360  175.6800  146.3900 C   0  0  2  0  0  3  0  0  0  0  0  0
  188.5830  175.7960  141.7260 C   0  0  0  0  0  3  0  0  0  0  0  0
  188.6180  178.2780  142.0120 C   0  0  0  0  0  1  0  0  0  0  0  0
  190.8970  175.5390  143.2810 C   0  0  0  0  0  0  0  0  0  0  0  0
  190.3510  176.8030  143.0390 C   0  0  0  0  0  3  0  0  0  0  0  0
  189.1290  174.5280  141.9570 C   0  0  0  0  0  0  0  0  0  0  0  0
  189.1960  176.9320  142.2630 C   0  0  0  0  0  0  0  0  0  0  0  0
  190.2810  174.4000  142.7440 C   0  0  0  0  0  3  0  0  0  0  0  0
  188.4610  173.3140  141.4060 C   0  0  0  0  0  0  0  0  0  0  0  0
  188.4960  173.1660  140.0420 O   0  0  0  0  0  0  0  0  0  0  0  0
  187.3280  172.7730  142.0120 O   0  0  0  0  0  1  0  0  0  0  0  0
  189.2790  172.3850  140.8150 O   0  0  0  0  0  0  0  0  0  0  0  0
  191.5960  175.4820  147.5700 S   0  0  0  0  0  0  0  0  0  0  0  0
  190.3560  176.7660  147.2370 C   0  0  0  0  0  2  0  0  0  0  0  0
  189.0580  176.1340  146.7690 C   0  0  0  0  0  2  0  0  0  0  0  0
  188.3790  177.0070  145.7250 C   0  0  0  0  0  2  0  0  0  0  0  0
  186.8630  176.9590  145.8540 C   0  0  1  0  0  3  0  0  0  0  0  0
  186.2950  178.3680  145.9300 C   0  0  1  0  0  3  0  0  0  0  0  0
  185.6660  178.1940  144.5610 C   0  0  0  0  0  2  0  0  0  0  0  0
  186.2410  176.7910  144.4800 C   0  0  0  0  0  2  0  0  0  0  0  0
  185.2500  178.4850  147.0020 C   0  0  0  0  0  3  0  0  0  0  0  0
  184.0670  178.6290  146.7310 O   0  0  0  0  0  0  0  0  0  0  0  0
  1  5  1  0  0  0  0
  2  3  1  0  0  0  0
  4  2  1  0  0  0  0
  4  6  1  0  0  0  0
  5  8  1  0  0  0  0
  5  7  1  0  0  0  0
  5 20  1  1  0  0  0
  6 11  1  6  0  0  0
  6  1  1  0  0  0  0
  8  3  1  6  0  0  0
  8  7  1  0  0  0  0
  9 13  2  0  0  0  0
  9 14  1  0  0  0  0
 10 14  1  0  0  0  0
 12 11  1  0  0  0  0
 13 15  1  0  0  0  0
 14 12  2  0  0  0  0
 15 11  2  0  0  0  0
 16 13  1  0  0  0  0
 16 18  1  0  0  0  0
 17 19  1  0  0  0  0
 17 16  1  0  0  0  0
 19 16  1  0  0  0  0
 21 20  1  0  0  0  0
 22 21  1  0  0  0  0
 23 22  1  0  0  0  0
 24 23  1  6  0  0  0
 24 25  1  0  0  0  0
 25 28  1  1  0  0  0
 26 25  1  0  0  0  0
 27 26  1  0  0  0  0
 27 24  1  0  0  0  0
 29 28  2  0  0  0  0
M  END
>  <MODEL>
9

>  <REMARK>
 VINA RESULT:      -6.5      3.425      7.080
  Name = 
  8 active torsions:
  status: ('A' for Active; 'I' for Inactive)
    1  A    between atoms: C_5  and  C_15
    2  A    between atoms: C_5  and  C_20
    3  A    between atoms: C_7  and  C_13
    4  A    between atoms: C_8  and  C_21
    5  A    between atoms: S_9  and  C_11
    6  A    between atoms: S_9  and  C_15
    7  A    between atoms: C_12  and  C_20
    8  A    between atoms: C_16  and  C_17
                            x       y       z     vdW  Elec       q    Type
                         _______ _______ _______ _____ _____    ______ ____

>  <TORSDO>
F 8

$$$$
