=
 OpenBabel11062420373D

 32 36  0  0  1  0  0  0  0  0999 V2000
  191.3000  175.8610  145.2180 C   0  0  0  0  0  0  0  0  0  0  0  0
  190.1360  176.8300  145.3240 C   0  0  2  0  0  3  0  0  0  0  0  0
  189.8960  177.1820  146.7400 N   0  0  0  0  0  2  0  0  0  0  0  0
  191.0980  174.5440  145.4280 C   0  0  0  0  0  0  0  0  0  0  0  0
  188.9590  176.2860  146.0400 C   0  0  2  0  0  0  0  0  0  0  0  0
  189.7110  174.0430  145.6880 C   0  0  0  0  0  2  0  0  0  0  0  0
  192.1390  173.6240  145.3840 O   0  0  0  0  0  1  0  0  0  0  0  0
  189.0210  174.9390  146.6130 N   0  0  0  0  0  2  0  0  0  0  0  0
  187.6050  176.9200  145.9070 C   0  0  0  0  0  0  0  0  0  0  0  0
  184.8470  178.1810  144.8810 C   0  0  2  0  0  3  0  0  0  0  0  0
  185.7030  178.0550  147.1580 C   0  0  0  0  0  2  0  0  0  0  0  0
  185.4070  179.0020  146.0220 C   0  0  0  0  0  2  0  0  0  0  0  0
  183.4850  178.3350  142.7880 C   0  0  0  0  0  2  0  0  0  0  0  0
  185.9190  177.5140  144.0410 C   0  0  0  0  0  0  0  0  0  0  0  0
  187.0520  177.4290  147.0170 C   0  0  0  0  0  3  0  0  0  0  0  0
  187.0430  176.9700  144.5310 C   0  0  0  0  0  3  0  0  0  0  0  0
  183.9270  179.0630  144.0460 C   0  0  0  0  0  2  0  0  0  0  0  0
  184.7190  178.0940  141.9340 C   0  0  0  0  0  2  0  0  0  0  0  0
  185.7070  177.3620  142.6610 O   0  0  0  0  0  0  0  0  0  0  0  0
  193.8300  175.9870  145.4390 N   0  0  0  0  0  2  0  0  0  0  0  0
  192.6640  177.2590  143.8810 O   0  0  0  0  0  0  0  0  0  0  0  0
  192.6140  176.4280  144.8290 C   0  0  0  0  0  0  0  0  0  0  0  0
  195.1350  176.2890  144.8700 C   0  0  0  0  0  2  0  0  0  0  0  0
  196.5990  175.5550  140.1890 C   0  0  0  0  0  0  0  0  0  0  0  0
  194.9840  174.3440  143.2920 C   0  0  0  0  0  2  0  0  0  0  0  0
  195.6970  175.3840  139.3250 O   0  0  0  0  0  0  0  0  0  0  0  0
  197.2040  176.1250  142.5470 C   0  0  0  0  0  2  0  0  0  0  0  0
  197.9030  175.8040  139.7730 O   0  0  0  0  0  1  0  0  0  0  0  0
  197.2410  175.2920  143.8270 C   0  0  0  0  0  2  0  0  0  0  0  0
  195.8330  175.0230  144.3680 C   0  0  0  0  0  3  0  0  0  0  0  0
  196.2760  175.5380  141.5850 N   0  0  0  0  0  0  0  0  0  0  0  0
  194.9230  175.1930  142.0240 C   0  0  0  0  0  2  0  0  0  0  0  0
  1  4  2  0  0  0  0
  2  1  1  1  0  0  0
  2  5  1  0  0  0  0
  2  3  1  0  0  0  0
  4  6  1  0  0  0  0
  5  9  1  6  0  0  0
  5  8  1  0  0  0  0
  5  3  1  0  0  0  0
  6  8  1  0  0  0  0
  7  4  1  0  0  0  0
  9 15  2  0  0  0  0
 10 17  1  6  0  0  0
 10 12  1  0  0  0  0
 12 11  1  0  0  0  0
 13 17  1  0  0  0  0
 14 16  2  0  0  0  0
 14 10  1  0  0  0  0
 15 11  1  0  0  0  0
 16  9  1  0  0  0  0
 18 19  1  0  0  0  0
 18 13  1  0  0  0  0
 19 14  1  0  0  0  0
 21 22  2  0  0  0  0
 22  1  1  0  0  0  0
 22 20  1  0  0  0  0
 23 20  1  0  0  0  0
 24 31  1  0  0  0  0
 25 30  1  0  0  0  0
 26 24  2  0  0  0  0
 27 29  1  0  0  0  0
 28 24  1  0  0  0  0
 29 30  1  0  0  0  0
 30 23  1  0  0  0  0
 31 32  1  0  0  0  0
 31 27  1  0  0  0  0
 32 25  1  0  0  0  0
M  END
>  <MODEL>
1

>  <REMARK>
 VINA RESULT:      -8.4      0.000      0.000
  Name = 
  4 active torsions:
  status: ('A' for Active; 'I' for Inactive)
    1  A    between atoms: C_1  and  C_32
    2  A    between atoms: C_4  and  C_23
    3  A    between atoms: C_4  and  N_28
    4  A    between atoms: C_5  and  C_22
                            x       y       z     vdW  Elec       q    Type
                         _______ _______ _______ _____ _____    ______ ____

>  <TORSDO>
F 4

$$$$
=
 OpenBabel11062420373D

 32 36  0  0  1  0  0  0  0  0999 V2000
  191.2900  176.7250  144.9550 C   0  0  0  0  0  0  0  0  0  0  0  0
  192.4050  175.7870  144.5320 C   0  0  2  0  0  3  0  0  0  0  0  0
  191.8870  174.4090  144.3960 N   0  0  0  0  0  2  0  0  0  0  0  0
  190.9440  176.8120  146.2560 C   0  0  0  0  0  0  0  0  0  0  0  0
  192.7480  174.7570  145.5400 C   0  0  2  0  0  0  0  0  0  0  0  0
  191.7190  176.0390  147.2780 C   0  0  0  0  0  2  0  0  0  0  0  0
  189.9010  177.6230  146.6880 O   0  0  0  0  0  1  0  0  0  0  0  0
  191.9840  174.6890  146.7890 N   0  0  0  0  0  2  0  0  0  0  0  0
  194.0490  174.0130  145.4830 C   0  0  0  0  0  0  0  0  0  0  0  0
  196.3760  171.8160  145.4280 C   0  0  2  0  0  3  0  0  0  0  0  0
  196.5820  174.2420  145.4520 C   0  0  0  0  0  2  0  0  0  0  0  0
  196.7900  172.9970  146.2770 C   0  0  0  0  0  2  0  0  0  0  0  0
  196.6550  169.3430  145.1730 C   0  0  0  0  0  2  0  0  0  0  0  0
  194.8810  171.5660  145.4370 C   0  0  0  0  0  0  0  0  0  0  0  0
  195.1750  174.7370  145.5450 C   0  0  0  0  0  3  0  0  0  0  0  0
  193.9470  172.5300  145.4250 C   0  0  0  0  0  3  0  0  0  0  0  0
  197.1670  170.5910  145.8720 C   0  0  0  0  0  2  0  0  0  0  0  0
  195.2260  169.1060  145.6330 C   0  0  0  0  0  2  0  0  0  0  0  0
  194.4090  170.2460  145.3650 O   0  0  0  0  0  0  0  0  0  0  0  0
  189.5640  177.0620  143.1180 N   0  0  0  0  0  2  0  0  0  0  0  0
  191.0580  178.7360  143.7280 O   0  0  0  0  0  0  0  0  0  0  0  0
  190.6630  177.5490  143.8940 C   0  0  0  0  0  0  0  0  0  0  0  0
  188.7410  177.9440  142.3020 C   0  0  0  0  0  2  0  0  0  0  0  0
  184.7660  178.0110  145.2670 C   0  0  0  0  0  0  0  0  0  0  0  0
  187.0600  176.2110  142.9850 C   0  0  0  0  0  2  0  0  0  0  0  0
  184.8210  177.3150  146.3170 O   0  0  0  0  0  1  0  0  0  0  0  0
  185.9400  178.9180  143.2540 C   0  0  0  0  0  2  0  0  0  0  0  0
  183.7530  178.9530  145.1250 O   0  0  0  0  0  0  0  0  0  0  0  0
  186.2500  178.3120  141.8860 C   0  0  0  0  0  2  0  0  0  0  0  0
  187.3960  177.2980  141.9630 C   0  0  0  0  0  3  0  0  0  0  0  0
  185.7650  177.8650  144.2490 N   0  0  0  0  0  0  0  0  0  0  0  0
  186.7810  176.8170  144.3590 C   0  0  0  0  0  2  0  0  0  0  0  0
  1  4  2  0  0  0  0
  2  3  1  6  0  0  0
  2  1  1  0  0  0  0
  2  5  1  0  0  0  0
  3  5  1  0  0  0  0
  4  7  1  0  0  0  0
  4  6  1  0  0  0  0
  5  9  1  1  0  0  0
  5  8  1  0  0  0  0
  8  6  1  0  0  0  0
  9 15  2  0  0  0  0
 10 14  1  0  0  0  0
 10 17  1  1  0  0  0
 10 12  1  0  0  0  0
 11 15  1  0  0  0  0
 11 12  1  0  0  0  0
 13 18  1  0  0  0  0
 13 17  1  0  0  0  0
 16 14  2  0  0  0  0
 16  9  1  0  0  0  0
 19 14  1  0  0  0  0
 19 18  1  0  0  0  0
 20 22  1  0  0  0  0
 21 22  2  0  0  0  0
 22  1  1  0  0  0  0
 23 20  1  0  0  0  0
 24 26  1  0  0  0  0
 25 32  1  0  0  0  0
 27 31  1  0  0  0  0
 28 24  2  0  0  0  0
 29 30  1  0  0  0  0
 29 27  1  0  0  0  0
 30 23  1  0  0  0  0
 30 25  1  0  0  0  0
 31 32  1  0  0  0  0
 31 24  1  0  0  0  0
M  END
>  <MODEL>
2

>  <REMARK>
 VINA RESULT:      -8.2      3.215      9.694
  Name = 
  4 active torsions:
  status: ('A' for Active; 'I' for Inactive)
    1  A    between atoms: C_1  and  C_32
    2  A    between atoms: C_4  and  C_23
    3  A    between atoms: C_4  and  N_28
    4  A    between atoms: C_5  and  C_22
                            x       y       z     vdW  Elec       q    Type
                         _______ _______ _______ _____ _____    ______ ____

>  <TORSDO>
F 4

$$$$
=
 OpenBabel11062420373D

 32 36  0  0  1  0  0  0  0  0999 V2000
  191.4250  175.9090  145.0810 C   0  0  0  0  0  0  0  0  0  0  0  0
  190.1070  176.2980  144.4350 C   0  0  2  0  0  3  0  0  0  0  0  0
  190.0450  177.7640  144.2510 N   0  0  0  0  0  2  0  0  0  0  0  0
  191.5710  176.0030  146.4180 C   0  0  0  0  0  0  0  0  0  0  0  0
  189.2300  177.1230  145.2980 C   0  0  2  0  0  0  0  0  0  0  0  0
  190.4030  176.4170  147.2590 C   0  0  0  0  0  2  0  0  0  0  0  0
  192.7700  175.7000  147.0510 O   0  0  0  0  0  1  0  0  0  0  0  0
  189.6990  177.5290  146.6250 N   0  0  0  0  0  2  0  0  0  0  0  0
  187.7650  177.2700  145.0070 C   0  0  0  0  0  0  0  0  0  0  0  0
  184.8890  177.7750  143.6950 C   0  0  2  0  0  3  0  0  0  0  0  0
  185.4290  177.2500  146.0110 C   0  0  0  0  0  2  0  0  0  0  0  0
  184.9340  178.3420  145.0970 C   0  0  0  0  0  2  0  0  0  0  0  0
  183.8540  178.0980  141.4410 C   0  0  0  0  0  2  0  0  0  0  0  0
  186.2340  177.8040  142.9950 C   0  0  0  0  0  0  0  0  0  0  0  0
  186.9210  177.1930  146.0450 C   0  0  0  0  0  3  0  0  0  0  0  0
  187.4090  177.5490  143.5900 C   0  0  0  0  0  3  0  0  0  0  0  0
  183.8120  178.5060  142.9030 C   0  0  0  0  0  2  0  0  0  0  0  0
  185.1820  178.5640  140.8660 C   0  0  0  0  0  2  0  0  0  0  0  0
  186.2760  178.0230  141.6080 O   0  0  0  0  0  0  0  0  0  0  0  0
  193.7780  175.9960  144.1190 N   0  0  0  0  0  2  0  0  0  0  0  0
  192.2640  174.3330  143.5270 O   0  0  0  0  0  0  0  0  0  0  0  0
  192.4850  175.3870  144.1850 C   0  0  0  0  0  0  0  0  0  0  0  0
  194.9150  175.3310  143.4990 C   0  0  0  0  0  2  0  0  0  0  0  0
  196.8330  171.0920  145.2160 C   0  0  0  0  0  0  0  0  0  0  0  0
  195.6770  174.5660  145.7640 C   0  0  0  0  0  2  0  0  0  0  0  0
  196.1360  170.4380  146.0370 O   0  0  0  0  0  1  0  0  0  0  0  0
  197.0040  173.0250  143.6380 C   0  0  0  0  0  2  0  0  0  0  0  0
  197.9400  170.4890  144.6270 O   0  0  0  0  0  0  0  0  0  0  0  0
  197.3040  174.5070  143.8590 C   0  0  0  0  0  2  0  0  0  0  0  0
  196.1020  175.2440  144.4610 C   0  0  0  0  0  3  0  0  0  0  0  0
  196.4620  172.4290  144.8550 N   0  0  0  0  0  0  0  0  0  0  0  0
  195.3480  173.0930  145.5350 C   0  0  0  0  0  2  0  0  0  0  0  0
  1  4  2  0  0  0  0
  2  3  1  6  0  0  0
  2  1  1  0  0  0  0
  2  5  1  0  0  0  0
  3  5  1  0  0  0  0
  4  7  1  0  0  0  0
  4  6  1  0  0  0  0
  5  9  1  6  0  0  0
  5  8  1  0  0  0  0
  8  6  1  0  0  0  0
  9 15  2  0  0  0  0
 10 17  1  6  0  0  0
 10 12  1  0  0  0  0
 11 15  1  0  0  0  0
 12 11  1  0  0  0  0
 13 17  1  0  0  0  0
 14 16  2  0  0  0  0
 14 10  1  0  0  0  0
 16  9  1  0  0  0  0
 18 13  1  0  0  0  0
 18 19  1  0  0  0  0
 19 14  1  0  0  0  0
 20 22  1  0  0  0  0
 21 22  2  0  0  0  0
 22  1  1  0  0  0  0
 23 20  1  0  0  0  0
 23 30  1  0  0  0  0
 24 26  1  0  0  0  0
 27 29  1  0  0  0  0
 27 31  1  0  0  0  0
 28 24  2  0  0  0  0
 29 30  1  0  0  0  0
 30 25  1  0  0  0  0
 31 24  1  0  0  0  0
 31 32  1  0  0  0  0
 32 25  1  0  0  0  0
M  END
>  <MODEL>
3

>  <REMARK>
 VINA RESULT:      -8.2      2.255      3.009
  Name = 
  4 active torsions:
  status: ('A' for Active; 'I' for Inactive)
    1  A    between atoms: C_1  and  C_32
    2  A    between atoms: C_4  and  C_23
    3  A    between atoms: C_4  and  N_28
    4  A    between atoms: C_5  and  C_22
                            x       y       z     vdW  Elec       q    Type
                         _______ _______ _______ _____ _____    ______ ____

>  <TORSDO>
F 4

$$$$
=
 OpenBabel11062420373D

 32 36  0  0  1  0  0  0  0  0999 V2000
  190.9870  175.0870  145.2030 C   0  0  0  0  0  0  0  0  0  0  0  0
  189.6640  175.6680  144.7350 C   0  0  2  0  0  3  0  0  0  0  0  0
  189.8640  177.0420  144.2270 N   0  0  0  0  0  2  0  0  0  0  0  0
  191.4550  175.3880  146.4310 C   0  0  0  0  0  0  0  0  0  0  0  0
  189.2000  176.8310  145.5250 C   0  0  2  0  0  0  0  0  0  0  0  0
  190.6250  176.2300  147.3500 C   0  0  0  0  0  2  0  0  0  0  0  0
  192.6810  174.9160  146.8880 O   0  0  0  0  0  1  0  0  0  0  0  0
  190.0380  177.3460  146.6120 N   0  0  0  0  0  2  0  0  0  0  0  0
  187.7700  177.2840  145.4800 C   0  0  0  0  0  0  0  0  0  0  0  0
  184.8300  178.2210  144.6320 C   0  0  2  0  0  3  0  0  0  0  0  0
  185.7910  178.0780  146.8650 C   0  0  0  0  0  2  0  0  0  0  0  0
  185.3240  179.0410  145.8030 C   0  0  0  0  0  2  0  0  0  0  0  0
  183.3710  178.3140  142.6010 C   0  0  0  0  0  2  0  0  0  0  0  0
  185.9430  177.7540  143.7140 C   0  0  0  0  0  0  0  0  0  0  0  0
  187.2030  177.6480  146.6380 C   0  0  0  0  0  3  0  0  0  0  0  0
  187.1490  177.3390  144.1290 C   0  0  0  0  0  3  0  0  0  0  0  0
  183.7660  179.0190  143.8870 C   0  0  0  0  0  2  0  0  0  0  0  0
  184.5890  178.2910  141.6920 C   0  0  0  0  0  2  0  0  0  0  0  0
  185.6940  177.6570  142.3360 O   0  0  0  0  0  0  0  0  0  0  0  0
  191.2980  172.7840  144.1690 N   0  0  0  0  0  2  0  0  0  0  0  0
  192.5730  174.6140  143.5100 O   0  0  0  0  0  0  0  0  0  0  0  0
  191.6800  174.1590  144.2770 C   0  0  0  0  0  0  0  0  0  0  0  0
  191.7390  171.9440  143.0650 C   0  0  0  0  0  2  0  0  0  0  0  0
  189.0420  173.2320  139.1080 C   0  0  0  0  0  0  0  0  0  0  0  0
  189.2810  171.9160  142.5590 C   0  0  0  0  0  2  0  0  0  0  0  0
  188.2590  174.2110  139.2410 O   0  0  0  0  0  1  0  0  0  0  0  0
  190.8610  171.8180  140.0790 C   0  0  0  0  0  2  0  0  0  0  0  0
  189.3210  172.7500  137.8330 O   0  0  0  0  0  0  0  0  0  0  0  0
  190.8370  170.6460  141.0600 C   0  0  0  0  0  2  0  0  0  0  0  0
  190.5840  171.1160  142.4970 C   0  0  0  0  0  3  0  0  0  0  0  0
  189.6760  172.6520  140.2550 N   0  0  0  0  0  0  0  0  0  0  0  0
  189.3200  173.1040  141.6010 C   0  0  0  0  0  2  0  0  0  0  0  0
  1  4  2  0  0  0  0
  2  3  1  6  0  0  0
  2  1  1  0  0  0  0
  2  5  1  0  0  0  0
  3  5  1  0  0  0  0
  4  7  1  0  0  0  0
  4  6  1  0  0  0  0
  5  9  1  1  0  0  0
  5  8  1  0  0  0  0
  8  6  1  0  0  0  0
  9 15  2  0  0  0  0
 10 17  1  6  0  0  0
 10 12  1  0  0  0  0
 12 11  1  0  0  0  0
 13 17  1  0  0  0  0
 14 16  2  0  0  0  0
 14 10  1  0  0  0  0
 15 11  1  0  0  0  0
 16  9  1  0  0  0  0
 18 19  1  0  0  0  0
 18 13  1  0  0  0  0
 19 14  1  0  0  0  0
 20 22  1  0  0  0  0
 21 22  2  0  0  0  0
 22  1  1  0  0  0  0
 23 20  1  0  0  0  0
 24 26  1  0  0  0  0
 24 31  1  0  0  0  0
 27 31  1  0  0  0  0
 27 29  1  0  0  0  0
 28 24  2  0  0  0  0
 29 30  1  0  0  0  0
 30 25  1  0  0  0  0
 30 23  1  0  0  0  0
 31 32  1  0  0  0  0
 32 25  1  0  0  0  0
M  END
>  <MODEL>
4

>  <REMARK>
 VINA RESULT:      -8.0      3.272      4.384
  Name = 
  4 active torsions:
  status: ('A' for Active; 'I' for Inactive)
    1  A    between atoms: C_1  and  C_32
    2  A    between atoms: C_4  and  C_23
    3  A    between atoms: C_4  and  N_28
    4  A    between atoms: C_5  and  C_22
                            x       y       z     vdW  Elec       q    Type
                         _______ _______ _______ _____ _____    ______ ____

>  <TORSDO>
F 4

$$$$
=
 OpenBabel11062420373D

 32 36  0  0  1  0  0  0  0  0999 V2000
  186.3240  177.4440  145.7870 C   0  0  0  0  0  0  0  0  0  0  0  0
  185.8660  177.6690  144.3570 C   0  0  2  0  0  3  0  0  0  0  0  0
  186.0350  179.0900  143.9870 N   0  0  0  0  0  2  0  0  0  0  0  0
  185.4920  177.7260  146.8100 C   0  0  0  0  0  0  0  0  0  0  0  0
  184.6850  178.5520  144.2300 C   0  0  2  0  0  0  0  0  0  0  0  0
  184.0960  178.1840  146.5190 C   0  0  0  0  0  2  0  0  0  0  0  0
  185.8790  177.5780  148.1360 O   0  0  0  0  0  1  0  0  0  0  0  0
  184.1060  179.1600  145.4310 N   0  0  0  0  0  2  0  0  0  0  0  0
  183.8600  178.5770  142.9760 C   0  0  0  0  0  0  0  0  0  0  0  0
  181.5260  178.7040  140.7900 C   0  0  2  0  0  3  0  0  0  0  0  0
  183.9020  178.2920  140.4490 C   0  0  0  0  0  2  0  0  0  0  0  0
  182.5400  177.6460  140.4140 C   0  0  0  0  0  2  0  0  0  0  0  0
  179.1010  179.2970  140.6250 C   0  0  0  0  0  2  0  0  0  0  0  0
  181.3910  178.8990  142.2880 C   0  0  0  0  0  0  0  0  0  0  0  0
  184.4820  178.2820  141.8260 C   0  0  0  0  0  3  0  0  0  0  0  0
  182.4130  178.8680  143.1560 C   0  0  0  0  0  3  0  0  0  0  0  0
  180.1940  178.3650  140.1310 C   0  0  0  0  0  2  0  0  0  0  0  0
  178.9080  179.0390  142.1110 C   0  0  0  0  0  2  0  0  0  0  0  0
  180.1330  179.2210  142.8230 O   0  0  0  0  0  0  0  0  0  0  0  0
  188.8240  177.4110  145.3230 N   0  0  0  0  0  2  0  0  0  0  0  0
  187.8250  175.9200  146.8010 O   0  0  0  0  0  0  0  0  0  0  0  0
  187.6760  176.8650  145.9780 C   0  0  0  0  0  0  0  0  0  0  0  0
  190.1810  177.0700  145.7280 C   0  0  0  0  0  2  0  0  0  0  0  0
  194.9420  175.7710  145.2470 C   0  0  0  0  0  0  0  0  0  0  0  0
  191.5400  176.1420  143.8350 C   0  0  0  0  0  2  0  0  0  0  0  0
  195.6460  176.4510  144.4520 O   0  0  0  0  0  0  0  0  0  0  0  0
  192.7580  175.4670  146.4260 C   0  0  0  0  0  2  0  0  0  0  0  0
  195.5650  174.9010  146.1350 O   0  0  0  0  0  1  0  0  0  0  0  0
  191.4290  174.8580  145.9840 C   0  0  0  0  0  2  0  0  0  0  0  0
  190.6650  175.7930  145.0390 C   0  0  0  0  0  3  0  0  0  0  0  0
  193.5180  175.9280  145.2680 N   0  0  0  0  0  0  0  0  0  0  0  0
  192.8550  176.7800  144.2780 C   0  0  0  0  0  2  0  0  0  0  0  0
  1 22  1  0  0  0  0
  1  4  2  0  0  0  0
  2  3  1  6  0  0  0
  2  1  1  0  0  0  0
  3  5  1  0  0  0  0
  4  7  1  0  0  0  0
  5  9  1  6  0  0  0
  5  2  1  0  0  0  0
  5  8  1  0  0  0  0
  6  4  1  0  0  0  0
  8  6  1  0  0  0  0
  9 16  1  0  0  0  0
 10 17  1  1  0  0  0
 10 14  1  0  0  0  0
 11 15  1  0  0  0  0
 12 11  1  0  0  0  0
 12 10  1  0  0  0  0
 13 18  1  0  0  0  0
 14 19  1  0  0  0  0
 14 16  2  0  0  0  0
 15  9  2  0  0  0  0
 17 13  1  0  0  0  0
 18 19  1  0  0  0  0
 20 23  1  0  0  0  0
 20 22  1  0  0  0  0
 22 21  2  0  0  0  0
 24 31  1  0  0  0  0
 24 28  1  0  0  0  0
 25 32  1  0  0  0  0
 25 30  1  0  0  0  0
 26 24  2  0  0  0  0
 29 27  1  0  0  0  0
 30 23  1  0  0  0  0
 30 29  1  0  0  0  0
 31 27  1  0  0  0  0
 32 31  1  0  0  0  0
M  END
>  <MODEL>
5

>  <REMARK>
 VINA RESULT:      -8.0      2.976      5.640
  Name = 
  4 active torsions:
  status: ('A' for Active; 'I' for Inactive)
    1  A    between atoms: C_1  and  C_32
    2  A    between atoms: C_4  and  C_23
    3  A    between atoms: C_4  and  N_28
    4  A    between atoms: C_5  and  C_22
                            x       y       z     vdW  Elec       q    Type
                         _______ _______ _______ _____ _____    ______ ____

>  <TORSDO>
F 4

$$$$
=
 OpenBabel11062420373D

 32 36  0  0  1  0  0  0  0  0999 V2000
  191.9840  175.3130  142.8890 C   0  0  0  0  0  0  0  0  0  0  0  0
  190.5200  175.4710  143.2560 C   0  0  2  0  0  3  0  0  0  0  0  0
  189.9480  176.6490  142.5710 N   0  0  0  0  0  2  0  0  0  0  0  0
  192.9200  176.0420  143.5320 C   0  0  0  0  0  0  0  0  0  0  0  0
  190.2150  176.7030  144.0190 C   0  0  2  0  0  0  0  0  0  0  0  0
  192.5080  176.9410  144.6570 C   0  0  0  0  0  2  0  0  0  0  0  0
  194.2680  175.9650  143.2030 O   0  0  0  0  0  1  0  0  0  0  0  0
  191.2870  177.6610  144.3010 N   0  0  0  0  0  2  0  0  0  0  0  0
  188.9400  176.8420  144.7980 C   0  0  0  0  0  0  0  0  0  0  0  0
  186.0680  177.6720  145.9410 C   0  0  2  0  0  3  0  0  0  0  0  0
  187.6850  176.1150  146.8870 C   0  0  0  0  0  2  0  0  0  0  0  0
  187.0460  177.4670  147.0770 C   0  0  0  0  0  2  0  0  0  0  0  0
  184.0480  178.9780  145.2530 C   0  0  0  0  0  2  0  0  0  0  0  0
  186.7240  178.1660  144.6670 C   0  0  0  0  0  0  0  0  0  0  0  0
  188.8560  176.1830  145.9620 C   0  0  0  0  0  3  0  0  0  0  0  0
  187.9200  177.7560  144.2170 C   0  0  0  0  0  3  0  0  0  0  0  0
  184.9540  178.5990  146.4120 C   0  0  0  0  0  2  0  0  0  0  0  0
  184.8730  179.7860  144.2640 C   0  0  0  0  0  2  0  0  0  0  0  0
  186.0180  179.0490  143.8340 O   0  0  0  0  0  0  0  0  0  0  0  0
  191.9650  172.9270  142.0090 N   0  0  0  0  0  2  0  0  0  0  0  0
  192.8430  174.6900  140.7730 O   0  0  0  0  0  0  0  0  0  0  0  0
  192.3140  174.3060  141.8520 C   0  0  0  0  0  0  0  0  0  0  0  0
  191.9920  171.9910  140.8950 C   0  0  0  0  0  2  0  0  0  0  0  0
  189.4010  172.8140  136.7470 C   0  0  0  0  0  0  0  0  0  0  0  0
  189.5900  172.5490  140.4350 C   0  0  0  0  0  2  0  0  0  0  0  0
  188.9410  173.9760  136.5780 O   0  0  0  0  0  1  0  0  0  0  0  0
  190.8320  171.2690  138.0960 C   0  0  0  0  0  2  0  0  0  0  0  0
  189.4090  171.9210  135.6800 O   0  0  0  0  0  0  0  0  0  0  0  0
  190.5740  170.4960  139.3880 C   0  0  0  0  0  2  0  0  0  0  0  0
  190.6020  171.4170  140.6130 C   0  0  0  0  0  3  0  0  0  0  0  0
  189.9530  172.4310  138.0130 N   0  0  0  0  0  0  0  0  0  0  0  0
  189.8690  173.3400  139.1590 C   0  0  0  0  0  2  0  0  0  0  0  0
  1  2  1  0  0  0  0
  1  4  2  0  0  0  0
  2  3  1  6  0  0  0
  2  5  1  0  0  0  0
  3  5  1  0  0  0  0
  4  6  1  0  0  0  0
  5  8  1  0  0  0  0
  5  9  1  1  0  0  0
  7  4  1  0  0  0  0
  8  6  1  0  0  0  0
  9 15  2  0  0  0  0
 10 17  1  1  0  0  0
 10 12  1  0  0  0  0
 11 12  1  0  0  0  0
 13 17  1  0  0  0  0
 14 10  1  0  0  0  0
 15 11  1  0  0  0  0
 16 14  2  0  0  0  0
 16  9  1  0  0  0  0
 18 13  1  0  0  0  0
 19 18  1  0  0  0  0
 19 14  1  0  0  0  0
 21 22  2  0  0  0  0
 22 20  1  0  0  0  0
 22  1  1  0  0  0  0
 23 20  1  0  0  0  0
 24 31  1  0  0  0  0
 25 30  1  0  0  0  0
 26 24  1  0  0  0  0
 27 29  1  0  0  0  0
 28 24  2  0  0  0  0
 29 30  1  0  0  0  0
 30 23  1  0  0  0  0
 31 27  1  0  0  0  0
 31 32  1  0  0  0  0
 32 25  1  0  0  0  0
M  END
>  <MODEL>
6

>  <REMARK>
 VINA RESULT:      -7.9      4.203      5.137
  Name = 
  4 active torsions:
  status: ('A' for Active; 'I' for Inactive)
    1  A    between atoms: C_1  and  C_32
    2  A    between atoms: C_4  and  C_23
    3  A    between atoms: C_4  and  N_28
    4  A    between atoms: C_5  and  C_22
                            x       y       z     vdW  Elec       q    Type
                         _______ _______ _______ _____ _____    ______ ____

>  <TORSDO>
F 4

$$$$
=
 OpenBabel11062420373D

 32 36  0  0  1  0  0  0  0  0999 V2000
  190.9350  174.4960  141.7300 C   0  0  0  0  0  0  0  0  0  0  0  0
  190.2490  175.5140  142.6230 C   0  0  2  0  0  3  0  0  0  0  0  0
  189.5980  174.8330  143.7630 N   0  0  0  0  0  2  0  0  0  0  0  0
  190.2170  173.8170  140.8110 C   0  0  0  0  0  0  0  0  0  0  0  0
  188.7750  175.3820  142.6720 C   0  0  2  0  0  0  0  0  0  0  0  0
  188.7640  174.1340  140.6310 C   0  0  0  0  0  2  0  0  0  0  0  0
  190.7900  172.8450  140.0000 O   0  0  0  0  0  1  0  0  0  0  0  0
  188.1230  174.2980  141.9330 N   0  0  0  0  0  2  0  0  0  0  0  0
  187.9080  176.5050  143.1620 C   0  0  0  0  0  0  0  0  0  0  0  0
  186.1130  178.5300  144.8700 C   0  0  2  0  0  3  0  0  0  0  0  0
  186.5640  178.5520  142.4770 C   0  0  0  0  0  2  0  0  0  0  0  0
  185.4930  178.3000  143.5090 C   0  0  0  0  0  2  0  0  0  0  0  0
  185.5600  179.0380  147.2570 C   0  0  0  0  0  2  0  0  0  0  0  0
  186.8860  177.3330  145.3870 C   0  0  0  0  0  0  0  0  0  0  0  0
  187.4010  177.3370  142.2420 C   0  0  0  0  0  3  0  0  0  0  0  0
  187.6540  176.5360  144.6270 C   0  0  0  0  0  3  0  0  0  0  0  0
  185.0210  178.9720  145.8380 C   0  0  0  0  0  2  0  0  0  0  0  0
  185.9440  177.6280  147.6750 C   0  0  0  0  0  2  0  0  0  0  0  0
  186.8900  177.0670  146.7650 O   0  0  0  0  0  0  0  0  0  0  0  0
  192.9600  173.5230  142.9230 N   0  0  0  0  0  2  0  0  0  0  0  0
  193.1680  174.8730  141.0420 O   0  0  0  0  0  0  0  0  0  0  0  0
  192.4010  174.3390  141.8890 C   0  0  0  0  0  0  0  0  0  0  0  0
  194.3540  173.1050  142.9100 C   0  0  0  0  0  2  0  0  0  0  0  0
  194.2010  176.7220  146.3000 C   0  0  0  0  0  0  0  0  0  0  0  0
  196.0230  174.0180  144.5460 C   0  0  0  0  0  2  0  0  0  0  0  0
  194.9420  177.7240  146.1040 O   0  0  0  0  0  0  0  0  0  0  0  0
  193.2740  174.5640  145.4410 C   0  0  0  0  0  2  0  0  0  0  0  0
  193.2020  176.7910  147.2650 O   0  0  0  0  0  1  0  0  0  0  0  0
  193.8390  173.1450  145.4100 C   0  0  0  0  0  2  0  0  0  0  0  0
  194.9150  172.9880  144.3290 C   0  0  0  0  0  3  0  0  0  0  0  0
  194.3570  175.5420  145.5030 N   0  0  0  0  0  0  0  0  0  0  0  0
  195.4610  175.4380  144.5460 C   0  0  0  0  0  2  0  0  0  0  0  0
  1 22  1  0  0  0  0
  2  1  1  6  0  0  0
  2  5  1  0  0  0  0
  2  3  1  0  0  0  0
  4  1  2  0  0  0  0
  5  9  1  1  0  0  0
  5  3  1  0  0  0  0
  6  4  1  0  0  0  0
  6  8  1  0  0  0  0
  7  4  1  0  0  0  0
  8  5  1  0  0  0  0
  9 16  1  0  0  0  0
 10 12  1  6  0  0  0
 10 14  1  0  0  0  0
 10 17  1  0  0  0  0
 11 12  1  0  0  0  0
 13 18  1  0  0  0  0
 14 19  1  0  0  0  0
 15 11  1  0  0  0  0
 15  9  2  0  0  0  0
 16 14  2  0  0  0  0
 17 13  1  0  0  0  0
 19 18  1  0  0  0  0
 21 22  2  0  0  0  0
 22 20  1  0  0  0  0
 23 20  1  0  0  0  0
 23 30  1  0  0  0  0
 24 28  1  0  0  0  0
 25 32  1  0  0  0  0
 26 24  2  0  0  0  0
 27 31  1  0  0  0  0
 29 27  1  0  0  0  0
 30 25  1  0  0  0  0
 30 29  1  0  0  0  0
 31 24  1  0  0  0  0
 32 31  1  0  0  0  0
M  END
>  <MODEL>
7

>  <REMARK>
 VINA RESULT:      -7.8      2.807      4.366
  Name = 
  4 active torsions:
  status: ('A' for Active; 'I' for Inactive)
    1  A    between atoms: C_1  and  C_32
    2  A    between atoms: C_4  and  C_23
    3  A    between atoms: C_4  and  N_28
    4  A    between atoms: C_5  and  C_22
                            x       y       z     vdW  Elec       q    Type
                         _______ _______ _______ _____ _____    ______ ____

>  <TORSDO>
F 4

$$$$
=
 OpenBabel11062420373D

 32 36  0  0  1  0  0  0  0  0999 V2000
  191.0310  174.4190  141.9270 C   0  0  0  0  0  0  0  0  0  0  0  0
  190.3160  175.4260  142.8100 C   0  0  2  0  0  3  0  0  0  0  0  0
  189.5500  174.7250  143.8630 N   0  0  0  0  0  2  0  0  0  0  0  0
  190.3630  173.8120  140.9250 C   0  0  0  0  0  0  0  0  0  0  0  0
  188.8390  175.3560  142.7370 C   0  0  2  0  0  0  0  0  0  0  0  0
  188.9430  174.1980  140.6470 C   0  0  0  0  0  2  0  0  0  0  0  0
  190.9600  172.8520  140.1170 O   0  0  0  0  0  1  0  0  0  0  0  0
  188.2060  174.3330  141.9010 N   0  0  0  0  0  2  0  0  0  0  0  0
  187.9800  176.4920  143.2100 C   0  0  0  0  0  0  0  0  0  0  0  0
  186.1760  178.5420  144.8790 C   0  0  2  0  0  3  0  0  0  0  0  0
  186.6950  178.5680  142.4990 C   0  0  0  0  0  2  0  0  0  0  0  0
  185.5910  178.3310  143.5000 C   0  0  0  0  0  2  0  0  0  0  0  0
  185.5660  179.0480  147.2520 C   0  0  0  0  0  2  0  0  0  0  0  0
  186.9120  177.3280  145.4100 C   0  0  0  0  0  0  0  0  0  0  0  0
  187.5150  177.3390  142.2810 C   0  0  0  0  0  3  0  0  0  0  0  0
  187.6850  176.5200  144.6680 C   0  0  0  0  0  3  0  0  0  0  0  0
  185.0660  178.9990  145.8180 C   0  0  0  0  0  2  0  0  0  0  0  0
  185.9110  177.6280  147.6720 C   0  0  0  0  0  2  0  0  0  0  0  0
  186.8710  177.0540  146.7860 O   0  0  0  0  0  0  0  0  0  0  0  0
  193.1950  174.9920  143.1340 N   0  0  0  0  0  2  0  0  0  0  0  0
  193.0510  173.2210  141.6350 O   0  0  0  0  0  0  0  0  0  0  0  0
  192.4720  174.1930  142.1930 C   0  0  0  0  0  0  0  0  0  0  0  0
  194.5030  174.5990  143.6390 C   0  0  0  0  0  2  0  0  0  0  0  0
  195.4790  170.4260  146.1340 C   0  0  0  0  0  0  0  0  0  0  0  0
  193.4410  173.4730  145.6140 C   0  0  0  0  0  2  0  0  0  0  0  0
  194.6180  169.5070  146.0740 O   0  0  0  0  0  0  0  0  0  0  0  0
  196.2570  172.6650  145.3370 C   0  0  0  0  0  2  0  0  0  0  0  0
  196.7440  170.1450  146.6400 O   0  0  0  0  0  1  0  0  0  0  0  0
  195.8680  174.0880  145.7340 C   0  0  0  0  0  2  0  0  0  0  0  0
  194.5000  174.4810  145.1640 C   0  0  0  0  0  3  0  0  0  0  0  0
  195.1720  171.7370  145.6430 N   0  0  0  0  0  0  0  0  0  0  0  0
  193.8170  172.0550  145.1880 C   0  0  0  0  0  2  0  0  0  0  0  0
  1 22  1  0  0  0  0
  2  1  1  6  0  0  0
  2  3  1  0  0  0  0
  4  1  2  0  0  0  0
  5  2  1  0  0  0  0
  5  9  1  1  0  0  0
  5  3  1  0  0  0  0
  6  4  1  0  0  0  0
  6  8  1  0  0  0  0
  7  4  1  0  0  0  0
  8  5  1  0  0  0  0
  9 16  1  0  0  0  0
 10 12  1  6  0  0  0
 10 14  1  0  0  0  0
 10 17  1  0  0  0  0
 11 12  1  0  0  0  0
 13 18  1  0  0  0  0
 14 19  1  0  0  0  0
 15 11  1  0  0  0  0
 15  9  2  0  0  0  0
 16 14  2  0  0  0  0
 17 13  1  0  0  0  0
 19 18  1  0  0  0  0
 20 23  1  0  0  0  0
 21 22  2  0  0  0  0
 22 20  1  0  0  0  0
 23 30  1  0  0  0  0
 24 28  1  0  0  0  0
 26 24  2  0  0  0  0
 27 31  1  0  0  0  0
 27 29  1  0  0  0  0
 30 25  1  0  0  0  0
 30 29  1  0  0  0  0
 31 24  1  0  0  0  0
 32 25  1  0  0  0  0
 32 31  1  0  0  0  0
M  END
>  <MODEL>
8

>  <REMARK>
 VINA RESULT:      -7.8      3.228      4.532
  Name = 
  4 active torsions:
  status: ('A' for Active; 'I' for Inactive)
    1  A    between atoms: C_1  and  C_32
    2  A    between atoms: C_4  and  C_23
    3  A    between atoms: C_4  and  N_28
    4  A    between atoms: C_5  and  C_22
                            x       y       z     vdW  Elec       q    Type
                         _______ _______ _______ _____ _____    ______ ____

>  <TORSDO>
F 4

$$$$
=
 OpenBabel11062420373D

 32 36  0  0  1  0  0  0  0  0999 V2000
  191.6720  176.0140  145.2500 C   0  0  0  0  0  0  0  0  0  0  0  0
  190.3340  176.2990  144.5900 C   0  0  2  0  0  3  0  0  0  0  0  0
  190.2110  177.7430  144.2960 N   0  0  0  0  0  2  0  0  0  0  0  0
  191.8230  176.2150  146.5740 C   0  0  0  0  0  0  0  0  0  0  0  0
  189.4300  177.1510  145.3960 C   0  0  2  0  0  0  0  0  0  0  0  0
  190.6450  176.6440  147.3940 C   0  0  0  0  0  2  0  0  0  0  0  0
  193.0390  176.0100  147.2160 O   0  0  0  0  0  1  0  0  0  0  0  0
  189.8910  177.6750  146.6840 N   0  0  0  0  0  2  0  0  0  0  0  0
  187.9590  177.2150  145.1100 C   0  0  0  0  0  0  0  0  0  0  0  0
  185.0540  177.6060  143.8230 C   0  0  2  0  0  3  0  0  0  0  0  0
  185.6300  176.9680  146.1010 C   0  0  0  0  0  2  0  0  0  0  0  0
  185.0600  178.0820  145.2590 C   0  0  0  0  0  2  0  0  0  0  0  0
  183.9980  178.0050  141.5900 C   0  0  0  0  0  2  0  0  0  0  0  0
  186.3930  177.7740  143.1310 C   0  0  0  0  0  0  0  0  0  0  0  0
  187.1230  177.0120  146.1370 C   0  0  0  0  0  3  0  0  0  0  0  0
  187.5840  177.5620  143.7130 C   0  0  0  0  0  3  0  0  0  0  0  0
  183.9280  178.3120  143.0760 C   0  0  0  0  0  2  0  0  0  0  0  0
  185.2910  178.5980  141.0530 C   0  0  0  0  0  2  0  0  0  0  0  0
  186.4190  178.0860  141.7620 O   0  0  0  0  0  0  0  0  0  0  0  0
  193.9630  176.1870  144.1590 N   0  0  0  0  0  2  0  0  0  0  0  0
  192.6150  174.3090  143.9050 O   0  0  0  0  0  0  0  0  0  0  0  0
  192.7470  175.4690  144.3850 C   0  0  0  0  0  0  0  0  0  0  0  0
  195.1410  175.5520  143.5850 C   0  0  0  0  0  2  0  0  0  0  0  0
  196.3890  174.0020  139.0420 C   0  0  0  0  0  0  0  0  0  0  0  0
  197.1610  175.8860  142.1340 C   0  0  0  0  0  2  0  0  0  0  0  0
  197.3640  173.2070  138.9540 O   0  0  0  0  0  1  0  0  0  0  0  0
  194.7940  175.2560  140.5040 C   0  0  0  0  0  2  0  0  0  0  0  0
  195.5560  174.1840  137.9430 O   0  0  0  0  0  0  0  0  0  0  0  0
  194.9170  176.5790  141.2580 C   0  0  0  0  0  2  0  0  0  0  0  0
  195.7850  176.4350  142.5140 C   0  0  0  0  0  3  0  0  0  0  0  0
  196.1140  174.6750  140.2770 N   0  0  0  0  0  0  0  0  0  0  0  0
  197.0370  174.5490  141.4070 C   0  0  0  0  0  2  0  0  0  0  0  0
  1  4  2  0  0  0  0
  2  3  1  6  0  0  0
  2  1  1  0  0  0  0
  2  5  1  0  0  0  0
  3  5  1  0  0  0  0
  4  7  1  0  0  0  0
  4  6  1  0  0  0  0
  5  9  1  6  0  0  0
  5  8  1  0  0  0  0
  8  6  1  0  0  0  0
  9 15  2  0  0  0  0
 10 17  1  6  0  0  0
 10 12  1  0  0  0  0
 11 15  1  0  0  0  0
 12 11  1  0  0  0  0
 13 17  1  0  0  0  0
 14 16  2  0  0  0  0
 14 10  1  0  0  0  0
 16  9  1  0  0  0  0
 18 13  1  0  0  0  0
 18 19  1  0  0  0  0
 19 14  1  0  0  0  0
 20 22  1  0  0  0  0
 21 22  2  0  0  0  0
 22  1  1  0  0  0  0
 23 20  1  0  0  0  0
 24 31  1  0  0  0  0
 25 30  1  0  0  0  0
 26 24  1  0  0  0  0
 27 29  1  0  0  0  0
 28 24  2  0  0  0  0
 29 30  1  0  0  0  0
 30 23  1  0  0  0  0
 31 27  1  0  0  0  0
 31 32  1  0  0  0  0
 32 25  1  0  0  0  0
M  END
>  <MODEL>
9

>  <REMARK>
 VINA RESULT:      -7.7      1.511      2.098
  Name = 
  4 active torsions:
  status: ('A' for Active; 'I' for Inactive)
    1  A    between atoms: C_1  and  C_32
    2  A    between atoms: C_4  and  C_23
    3  A    between atoms: C_4  and  N_28
    4  A    between atoms: C_5  and  C_22
                            x       y       z     vdW  Elec       q    Type
                         _______ _______ _______ _____ _____    ______ ____

>  <TORSDO>
F 4

$$$$
