=
 OpenBabel11062419233D

 38 43  0  0  1  0  0  0  0  0999 V2000
  189.6670  171.7200  143.6650 C   0  0  0  0  0  2  0  0  0  0  0  0
  189.3950  173.2170  143.3520 C   0  0  0  0  0  2  0  0  0  0  0  0
  189.0750  173.4410  141.8860 C   0  0  0  0  0  0  0  0  0  0  0  0
  190.4770  170.9810  142.6660 N   0  0  0  0  0  2  0  0  0  0  0  0
  190.7310  171.7730  141.4630 C   0  0  2  0  0  3  0  0  0  0  0  0
  189.4570  172.3490  140.9370 C   0  0  2  0  0  3  0  0  0  0  0  0
  191.2290  170.9820  140.2950 C   0  0  0  0  0  2  0  0  0  0  0  0
  190.7520  171.8160  139.1040 C   0  0  1  0  0  3  0  0  0  0  0  0
  188.4550  174.4910  141.4650 N   0  0  0  0  0  0  0  0  0  0  0  0
  189.7660  172.7930  139.5870 N   0  0  0  0  0  0  0  0  0  0  0  0
  191.8610  176.7630  146.5050 O   0  0  0  0  0  0  0  0  0  0  0  0
  190.5050  176.6400  144.5820 C   0  0  0  0  0  3  0  0  0  0  0  0
  186.7870  177.7190  144.2940 C   0  0  1  0  0  3  0  0  0  0  0  0
  188.0470  175.5740  142.3260 C   0  0  1  0  0  3  0  0  0  0  0  0
  189.5250  176.9980  146.9280 C   0  0  0  0  0  2  0  0  0  0  0  0
  185.1160  178.2390  142.2530 O   0  0  0  0  0  0  0  0  0  0  0  0
  187.0530  177.6940  147.0190 C   0  0  0  0  0  2  0  0  0  0  0  0
  185.8560  176.8710  146.5210 C   0  0  0  0  0  2  0  0  0  0  0  0
  185.6510  176.9660  144.9950 C   0  0  0  0  0  2  0  0  0  0  0  0
  188.2680  177.3770  146.1920 C   0  0  0  0  0  0  0  0  0  0  0  0
  188.1550  177.3260  144.8430 C   0  0  0  0  0  0  0  0  0  0  0  0
  189.3140  176.8440  144.0190 C   0  0  0  0  0  0  0  0  0  0  0  0
  187.4440  178.9300  141.9880 O   0  0  0  0  0  0  0  0  0  0  0  0
  189.2150  176.5200  142.5650 C   0  0  0  0  0  2  0  0  0  0  0  0
  190.7020  176.8220  146.0200 C   0  0  0  0  0  0  0  0  0  0  0  0
  186.8910  176.3200  141.6810 C   0  0  0  0  0  2  0  0  0  0  0  0
  186.5420  177.8540  142.5260 S   0  0  0  0  0  0  0  0  0  0  0  0
  188.5650  172.6140  138.7850 C   0  0  0  0  0  2  0  0  0  0  0  0
  187.6410  174.7490  137.8690 C   0  0  0  0  0  3  0  0  0  0  0  0
  186.7460  176.7670  136.9750 F   0  0  0  0  0  0  0  0  0  0  0  0
  189.2070  174.4490  135.6000 C   0  0  0  0  0  3  0  0  0  0  0  0
  189.2590  173.5320  136.6010 N   0  0  0  0  0  0  0  0  0  0  0  0
  188.3610  175.5560  135.7080 C   0  0  0  0  0  3  0  0  0  0  0  0
  187.5750  175.7030  136.8520 C   0  0  0  0  0  0  0  0  0  0  0  0
  188.5060  173.6600  137.7270 C   0  0  0  0  0  0  0  0  0  0  0  0
  191.8780  172.5200  138.5120 N   0  0  0  0  0  2  0  0  0  0  0  0
  191.8560  173.8250  139.0200 N   0  0  0  0  0  2  0  0  0  0  0  0
  193.2170  174.1410  139.4130 C   0  0  0  0  0  1  0  0  0  0  0  0
  2  1  1  0  0  0  0
  3  2  1  0  0  0  0
  4  1  1  0  0  0  0
  5  7  1  6  0  0  0
  5  4  1  0  0  0  0
  6  5  1  0  0  0  0
  6  3  1  1  0  0  0
  8 36  1  1  0  0  0
  8 10  1  0  0  0  0
  8  7  1  0  0  0  0
  9  3  2  0  0  0  0
 10  6  1  0  0  0  0
 12 25  1  0  0  0  0
 13 21  1  0  0  0  0
 13 19  1  6  0  0  0
 14  9  1  6  0  0  0
 14 24  1  0  0  0  0
 16 27  2  0  0  0  0
 18 17  1  0  0  0  0
 19 18  1  0  0  0  0
 20 15  1  0  0  0  0
 20 17  1  0  0  0  0
 21 20  2  0  0  0  0
 22 12  2  0  0  0  0
 22 21  1  0  0  0  0
 23 27  2  0  0  0  0
 24 22  1  0  0  0  0
 25 11  2  0  0  0  0
 25 15  1  0  0  0  0
 26 14  1  0  0  0  0
 26 27  1  0  0  0  0
 27 13  1  0  0  0  0
 28 10  1  0  0  0  0
 31 33  2  0  0  0  0
 31 32  1  0  0  0  0
 32 35  2  0  0  0  0
 33 34  1  0  0  0  0
 34 30  1  0  0  0  0
 34 29  2  0  0  0  0
 35 29  1  0  0  0  0
 35 28  1  0  0  0  0
 36 37  1  0  0  0  0
 37 38  1  0  0  0  0
M  END
>  <MODEL>
1

>  <REMARK>
 VINA RESULT:      -7.9      0.000      0.000
  Name = 
  5 active torsions:
  status: ('A' for Active; 'I' for Inactive)
    1  A    between atoms: C_6  and  N_34
    2  A    between atoms: C_11  and  N_35
    3  A    between atoms: C_11  and  C_37
    4  A    between atoms: N_16  and  N_25
    5  A    between atoms: N_16  and  C_33
                            x       y       z     vdW  Elec       q    Type
                         _______ _______ _______ _____ _____    ______ ____

>  <TORSDO>
F 5

$$$$
=
 OpenBabel11062419233D

 38 43  0  0  1  0  0  0  0  0999 V2000
  192.0640  177.2050  148.0110 C   0  0  0  0  0  2  0  0  0  0  0  0
  192.4540  176.2240  146.8710 C   0  0  0  0  0  2  0  0  0  0  0  0
  191.6390  176.4620  145.6140 C   0  0  0  0  0  0  0  0  0  0  0  0
  190.6130  177.4710  148.1730 N   0  0  0  0  0  2  0  0  0  0  0  0
  189.8170  176.8800  147.1000 C   0  0  2  0  0  3  0  0  0  0  0  0
  190.3780  177.2520  145.7660 C   0  0  2  0  0  3  0  0  0  0  0  0
  188.4160  177.3970  147.0110 C   0  0  0  0  0  2  0  0  0  0  0  0
  188.0840  177.2000  145.5300 C   0  0  1  0  0  3  0  0  0  0  0  0
  192.0250  176.0570  144.4510 N   0  0  0  0  0  0  0  0  0  0  0  0
  189.3340  176.9270  144.8070 N   0  0  0  0  0  0  0  0  0  0  0  0
  192.4370  169.5770  144.3280 O   0  0  0  0  0  0  0  0  0  0  0  0
  192.7450  171.8580  143.8250 C   0  0  0  0  0  3  0  0  0  0  0  0
  196.0590  173.8640  144.0940 C   0  0  1  0  0  3  0  0  0  0  0  0
  193.2350  175.3020  144.2320 C   0  0  1  0  0  3  0  0  0  0  0  0
  194.4670  170.5070  145.1680 C   0  0  0  0  0  2  0  0  0  0  0  0
  196.9320  176.2210  143.1400 O   0  0  0  0  0  0  0  0  0  0  0  0
  196.7520  171.6300  145.5180 C   0  0  0  0  0  2  0  0  0  0  0  0
  197.0170  172.9380  146.2780 C   0  0  0  0  0  2  0  0  0  0  0  0
  196.7170  174.1960  145.4380 C   0  0  0  0  0  2  0  0  0  0  0  0
  195.3830  171.6710  144.8990 C   0  0  0  0  0  0  0  0  0  0  0  0
  194.9900  172.7850  144.2360 C   0  0  0  0  0  0  0  0  0  0  0  0
  193.5700  172.9040  143.7610 C   0  0  0  0  0  0  0  0  0  0  0  0
  195.4870  174.8970  141.6810 O   0  0  0  0  0  0  0  0  0  0  0  0
  192.9760  174.1730  143.2460 C   0  0  0  0  0  2  0  0  0  0  0  0
  193.1800  170.5890  144.4080 C   0  0  0  0  0  0  0  0  0  0  0  0
  194.3140  176.2290  143.6970 C   0  0  0  0  0  2  0  0  0  0  0  0
  195.7310  175.3190  143.1040 S   0  0  0  0  0  0  0  0  0  0  0  0
  189.4180  177.8990  143.7270 C   0  0  0  0  0  2  0  0  0  0  0  0
  188.7740  176.1520  142.0590 C   0  0  0  0  0  3  0  0  0  0  0  0
  188.1730  174.5050  140.4470 F   0  0  0  0  0  0  0  0  0  0  0  0
  186.9700  177.9180  140.9110 C   0  0  0  0  0  3  0  0  0  0  0  0
  187.7120  178.2910  141.9870 N   0  0  0  0  0  0  0  0  0  0  0  0
  187.1110  176.6360  140.3740 C   0  0  0  0  0  3  0  0  0  0  0  0
  188.0200  175.7510  140.9550 C   0  0  0  0  0  0  0  0  0  0  0  0
  188.5980  177.4410  142.5720 C   0  0  0  0  0  0  0  0  0  0  0  0
  187.1810  176.0710  145.3740 N   0  0  0  0  0  2  0  0  0  0  0  0
  185.9010  176.5210  145.7260 N   0  0  0  0  0  2  0  0  0  0  0  0
  185.4970  177.4670  144.7030 C   0  0  0  0  0  1  0  0  0  0  0  0
  1  4  1  0  0  0  0
  2  1  1  0  0  0  0
  3  2  1  0  0  0  0
  5  7  1  6  0  0  0
  5  4  1  0  0  0  0
  6  3  1  6  0  0  0
  6  5  1  0  0  0  0
  8 36  1  1  0  0  0
  8  7  1  0  0  0  0
  9  3  2  0  0  0  0
 10  8  1  0  0  0  0
 10  6  1  0  0  0  0
 11 25  2  0  0  0  0
 12 25  1  0  0  0  0
 13 21  1  0  0  0  0
 13 19  1  1  0  0  0
 14  9  1  6  0  0  0
 17 18  1  0  0  0  0
 19 18  1  0  0  0  0
 20 15  1  0  0  0  0
 20 17  1  0  0  0  0
 21 20  2  0  0  0  0
 22 12  2  0  0  0  0
 22 21  1  0  0  0  0
 23 27  2  0  0  0  0
 24 22  1  0  0  0  0
 24 14  1  0  0  0  0
 25 15  1  0  0  0  0
 26 14  1  0  0  0  0
 27 16  2  0  0  0  0
 27 26  1  0  0  0  0
 27 13  1  0  0  0  0
 28 10  1  0  0  0  0
 29 35  1  0  0  0  0
 30 34  1  0  0  0  0
 31 32  1  0  0  0  0
 32 35  2  0  0  0  0
 33 31  2  0  0  0  0
 33 34  1  0  0  0  0
 34 29  2  0  0  0  0
 35 28  1  0  0  0  0
 36 37  1  0  0  0  0
 38 37  1  0  0  0  0
M  END
>  <MODEL>
2

>  <REMARK>
 VINA RESULT:      -7.6      4.597      7.937
  Name = 
  5 active torsions:
  status: ('A' for Active; 'I' for Inactive)
    1  A    between atoms: C_6  and  N_34
    2  A    between atoms: C_11  and  N_35
    3  A    between atoms: C_11  and  C_37
    4  A    between atoms: N_16  and  N_25
    5  A    between atoms: N_16  and  C_33
                            x       y       z     vdW  Elec       q    Type
                         _______ _______ _______ _____ _____    ______ ____

>  <TORSDO>
F 5

$$$$
=
 OpenBabel11062419233D

 38 43  0  0  1  0  0  0  0  0999 V2000
  190.7410  175.2200  145.7000 C   0  0  0  0  0  2  0  0  0  0  0  0
  190.1100  174.6660  144.3930 C   0  0  0  0  0  2  0  0  0  0  0  0
  189.0560  175.6020  143.8320 C   0  0  0  0  0  0  0  0  0  0  0  0
  189.8030  175.8520  146.6610 N   0  0  0  0  0  2  0  0  0  0  0  0
  188.4560  175.9910  146.1100 C   0  0  2  0  0  3  0  0  0  0  0  0
  188.5040  176.6340  144.7630 C   0  0  2  0  0  3  0  0  0  0  0  0
  187.5680  176.9200  146.8760 C   0  0  0  0  0  2  0  0  0  0  0  0
  186.5930  177.4060  145.7990 C   0  0  1  0  0  3  0  0  0  0  0  0
  188.6790  175.5600  142.5980 N   0  0  0  0  0  0  0  0  0  0  0  0
  187.1360  177.0410  144.4830 N   0  0  0  0  0  0  0  0  0  0  0  0
  192.1230  170.2550  144.0700 O   0  0  0  0  0  0  0  0  0  0  0  0
  190.5690  171.7210  143.0760 C   0  0  0  0  0  3  0  0  0  0  0  0
  190.4780  172.8290  139.3560 C   0  0  1  0  0  3  0  0  0  0  0  0
  189.1790  174.6000  141.6450 C   0  0  1  0  0  3  0  0  0  0  0  0
  192.7770  171.0830  141.9300 C   0  0  0  0  0  2  0  0  0  0  0  0
  188.6440  173.9880  137.7670 O   0  0  0  0  0  0  0  0  0  0  0  0
  192.9860  171.7350  139.4520 C   0  0  0  0  0  2  0  0  0  0  0  0
  192.9690  173.1600  138.8810 C   0  0  0  0  0  2  0  0  0  0  0  0
  191.5460  173.7370  138.7380 C   0  0  0  0  0  2  0  0  0  0  0  0
  192.1460  171.6770  140.6980 C   0  0  0  0  0  0  0  0  0  0  0  0
  190.9230  172.2590  140.6990 C   0  0  0  0  0  0  0  0  0  0  0  0
  190.1480  172.3570  141.9820 C   0  0  0  0  0  0  0  0  0  0  0  0
  187.8300  172.3770  139.4140 O   0  0  0  0  0  0  0  0  0  0  0  0
  188.9170  173.1860  142.1410 C   0  0  0  0  0  2  0  0  0  0  0  0
  191.8200  170.9620  143.0750 C   0  0  0  0  0  0  0  0  0  0  0  0
  188.4960  174.8200  140.3060 C   0  0  0  0  0  2  0  0  0  0  0  0
  188.8210  173.4810  139.1710 S   0  0  0  0  0  0  0  0  0  0  0  0
  187.1990  178.2650  143.6980 C   0  0  0  0  0  2  0  0  0  0  0  0
  184.8760  178.2470  142.7740 C   0  0  0  0  0  3  0  0  0  0  0  0
  182.6660  178.2010  141.8860 F   0  0  0  0  0  0  0  0  0  0  0  0
  185.8970  177.8540  140.2260 C   0  0  0  0  0  3  0  0  0  0  0  0
  186.7300  177.9740  141.2920 N   0  0  0  0  0  0  0  0  0  0  0  0
  184.5130  177.9300  140.4060 C   0  0  0  0  0  3  0  0  0  0  0  0
  184.0040  178.1280  141.6900 C   0  0  0  0  0  0  0  0  0  0  0  0
  186.2540  178.1750  142.5510 C   0  0  0  0  0  0  0  0  0  0  0  0
  185.3000  176.7680  145.9810 N   0  0  0  0  0  2  0  0  0  0  0  0
  184.5630  177.5810  146.8520 N   0  0  0  0  0  2  0  0  0  0  0  0
  184.0690  178.6940  146.0630 C   0  0  0  0  0  1  0  0  0  0  0  0
  1  4  1  0  0  0  0
  2  1  1  0  0  0  0
  3  2  1  0  0  0  0
  5  4  1  0  0  0  0
  5  7  1  1  0  0  0
  6  3  1  6  0  0  0
  6  5  1  0  0  0  0
  8 36  1  1  0  0  0
  8  7  1  0  0  0  0
  9  3  2  0  0  0  0
 10  6  1  0  0  0  0
 10  8  1  0  0  0  0
 13 19  1  1  0  0  0
 13 21  1  0  0  0  0
 14 24  1  0  0  0  0
 14  9  1  1  0  0  0
 15 25  1  0  0  0  0
 16 27  2  0  0  0  0
 17 20  1  0  0  0  0
 18 17  1  0  0  0  0
 19 18  1  0  0  0  0
 20 21  2  0  0  0  0
 20 15  1  0  0  0  0
 21 22  1  0  0  0  0
 22 24  1  0  0  0  0
 22 12  2  0  0  0  0
 25 12  1  0  0  0  0
 25 11  2  0  0  0  0
 26 14  1  0  0  0  0
 27 13  1  0  0  0  0
 27 23  2  0  0  0  0
 27 26  1  0  0  0  0
 28 10  1  0  0  0  0
 31 33  2  0  0  0  0
 31 32  1  0  0  0  0
 32 35  2  0  0  0  0
 33 34  1  0  0  0  0
 34 30  1  0  0  0  0
 34 29  2  0  0  0  0
 35 29  1  0  0  0  0
 35 28  1  0  0  0  0
 36 37  1  0  0  0  0
 38 37  1  0  0  0  0
M  END
>  <MODEL>
3

>  <REMARK>
 VINA RESULT:      -7.5      3.525      7.338
  Name = 
  5 active torsions:
  status: ('A' for Active; 'I' for Inactive)
    1  A    between atoms: C_6  and  N_34
    2  A    between atoms: C_11  and  N_35
    3  A    between atoms: C_11  and  C_37
    4  A    between atoms: N_16  and  N_25
    5  A    between atoms: N_16  and  C_33
                            x       y       z     vdW  Elec       q    Type
                         _______ _______ _______ _____ _____    ______ ____

>  <TORSDO>
F 5

$$$$
=
 OpenBabel11062419233D

 38 43  0  0  1  0  0  0  0  0999 V2000
  191.9330  170.9400  141.2840 C   0  0  0  0  0  2  0  0  0  0  0  0
  192.3750  172.3620  141.7290 C   0  0  0  0  0  2  0  0  0  0  0  0
  191.1900  173.2850  141.9360 C   0  0  0  0  0  0  0  0  0  0  0  0
  190.8340  170.8810  140.2880 N   0  0  0  0  0  2  0  0  0  0  0  0
  190.2450  172.1940  140.0340 C   0  0  2  0  0  3  0  0  0  0  0  0
  189.8920  172.8680  141.3190 C   0  0  2  0  0  3  0  0  0  0  0  0
  188.9290  172.1550  139.3230 C   0  0  0  0  0  2  0  0  0  0  0  0
  188.2600  173.4480  139.7960 C   0  0  1  0  0  3  0  0  0  0  0  0
  191.2630  174.3560  142.6530 N   0  0  0  0  0  0  0  0  0  0  0  0
  189.0110  173.9650  140.9480 N   0  0  0  0  0  0  0  0  0  0  0  0
  196.8220  175.6990  139.5750 O   0  0  0  0  0  0  0  0  0  0  0  0
  194.9930  175.7990  141.0580 C   0  0  0  0  0  3  0  0  0  0  0  0
  195.1200  175.4420  144.9220 C   0  0  1  0  0  3  0  0  0  0  0  0
  192.4780  174.8090  143.2850 C   0  0  1  0  0  3  0  0  0  0  0  0
  197.2820  174.8740  141.7660 C   0  0  0  0  0  2  0  0  0  0  0  0
  193.4340  176.0160  146.9360 O   0  0  0  0  0  0  0  0  0  0  0  0
  197.6170  174.5140  144.2890 C   0  0  0  0  0  2  0  0  0  0  0  0
  196.8240  173.5520  145.1840 C   0  0  0  0  0  2  0  0  0  0  0  0
  195.4570  174.1190  145.6190 C   0  0  0  0  0  2  0  0  0  0  0  0
  196.7430  175.0010  143.1660 C   0  0  0  0  0  0  0  0  0  0  0  0
  195.4830  175.4130  143.4400 C   0  0  0  0  0  0  0  0  0  0  0  0
  194.5450  175.7380  142.3120 C   0  0  0  0  0  0  0  0  0  0  0  0
  193.4830  177.5680  145.0500 O   0  0  0  0  0  0  0  0  0  0  0  0
  193.0810  175.9610  142.4950 C   0  0  0  0  0  2  0  0  0  0  0  0
  196.3890  175.4970  140.7380 C   0  0  0  0  0  0  0  0  0  0  0  0
  192.1680  175.2530  144.7050 C   0  0  0  0  0  2  0  0  0  0  0  0
  193.5460  176.1180  145.4410 S   0  0  0  0  0  0  0  0  0  0  0  0
  188.0560  174.1400  142.0320 C   0  0  0  0  0  2  0  0  0  0  0  0
  186.5040  175.9580  142.7640 C   0  0  0  0  0  3  0  0  0  0  0  0
  185.0200  177.6970  143.4320 F   0  0  0  0  0  0  0  0  0  0  0  0
  188.2560  177.8560  141.7540 C   0  0  0  0  0  3  0  0  0  0  0  0
  188.5520  176.5320  141.6750 N   0  0  0  0  0  0  0  0  0  0  0  0
  187.0620  178.2730  142.3480 C   0  0  0  0  0  3  0  0  0  0  0  0
  186.1840  177.3140  142.8550 C   0  0  0  0  0  0  0  0  0  0  0  0
  187.7120  175.5820  142.1700 C   0  0  0  0  0  0  0  0  0  0  0  0
  188.2790  174.4320  138.7260 N   0  0  0  0  0  2  0  0  0  0  0  0
  188.2690  173.7230  137.5190 N   0  0  0  0  0  2  0  0  0  0  0  0
  188.9140  174.5710  136.5330 C   0  0  0  0  0  1  0  0  0  0  0  0
  1  2  1  0  0  0  0
  2  3  1  0  0  0  0
  3  9  2  0  0  0  0
  4  1  1  0  0  0  0
  5  7  1  6  0  0  0
  5  4  1  0  0  0  0
  5  6  1  0  0  0  0
  6  3  1  6  0  0  0
  7  8  1  0  0  0  0
  8 36  1  6  0  0  0
  8 10  1  0  0  0  0
 10  6  1  0  0  0  0
 10 28  1  0  0  0  0
 11 25  2  0  0  0  0
 12 22  2  0  0  0  0
 13 27  1  0  0  0  0
 13 19  1  6  0  0  0
 14  9  1  6  0  0  0
 14 26  1  0  0  0  0
 15 20  1  0  0  0  0
 17 18  1  0  0  0  0
 18 19  1  0  0  0  0
 20 21  2  0  0  0  0
 20 17  1  0  0  0  0
 21 13  1  0  0  0  0
 22 24  1  0  0  0  0
 22 21  1  0  0  0  0
 23 27  2  0  0  0  0
 24 14  1  0  0  0  0
 25 12  1  0  0  0  0
 25 15  1  0  0  0  0
 26 27  1  0  0  0  0
 27 16  2  0  0  0  0
 28 35  1  0  0  0  0
 29 34  1  0  0  0  0
 31 33  1  0  0  0  0
 32 31  2  0  0  0  0
 32 35  1  0  0  0  0
 33 34  2  0  0  0  0
 34 30  1  0  0  0  0
 35 29  2  0  0  0  0
 37 36  1  0  0  0  0
 38 37  1  0  0  0  0
M  END
>  <MODEL>
4

>  <REMARK>
 VINA RESULT:      -7.5      3.689      6.434
  Name = 
  5 active torsions:
  status: ('A' for Active; 'I' for Inactive)
    1  A    between atoms: C_6  and  N_34
    2  A    between atoms: C_11  and  N_35
    3  A    between atoms: C_11  and  C_37
    4  A    between atoms: N_16  and  N_25
    5  A    between atoms: N_16  and  C_33
                            x       y       z     vdW  Elec       q    Type
                         _______ _______ _______ _____ _____    ______ ____

>  <TORSDO>
F 5

$$$$
=
 OpenBabel11062419233D

 38 43  0  0  1  0  0  0  0  0999 V2000
  194.2360  175.1800  143.2860 C   0  0  0  0  0  2  0  0  0  0  0  0
  192.9240  174.4570  142.8760 C   0  0  0  0  0  2  0  0  0  0  0  0
  191.6930  175.1880  143.3750 C   0  0  0  0  0  0  0  0  0  0  0  0
  194.2750  175.7280  144.6640 N   0  0  0  0  0  2  0  0  0  0  0  0
  192.9810  175.6310  145.3370 C   0  0  2  0  0  3  0  0  0  0  0  0
  191.8980  176.1860  144.4710 C   0  0  2  0  0  3  0  0  0  0  0  0
  192.8610  176.4660  146.5720 C   0  0  0  0  0  2  0  0  0  0  0  0
  191.3550  176.7330  146.6450 C   0  0  1  0  0  3  0  0  0  0  0  0
  190.5240  175.0120  142.8570 N   0  0  0  0  0  0  0  0  0  0  0  0
  190.7560  176.3680  145.3540 N   0  0  0  0  0  0  0  0  0  0  0  0
  192.3230  168.7720  142.8070 O   0  0  0  0  0  0  0  0  0  0  0  0
  191.0760  170.7540  142.5390 C   0  0  0  0  0  3  0  0  0  0  0  0
  189.8820  172.3060  139.1870 C   0  0  1  0  0  3  0  0  0  0  0  0
  190.2590  174.0760  141.7910 C   0  0  1  0  0  3  0  0  0  0  0  0
  192.3030  169.6330  140.5820 C   0  0  0  0  0  2  0  0  0  0  0  0
  188.0580  174.1570  138.4970 O   0  0  0  0  0  0  0  0  0  0  0  0
  191.7110  170.5030  138.2370 C   0  0  0  0  0  2  0  0  0  0  0  0
  191.9370  171.9280  137.7120 C   0  0  0  0  0  2  0  0  0  0  0  0
  190.8490  172.9210  138.1700 C   0  0  0  0  0  2  0  0  0  0  0  0
  191.4680  170.5420  139.7200 C   0  0  0  0  0  0  0  0  0  0  0  0
  190.6110  171.4600  140.2270 C   0  0  0  0  0  0  0  0  0  0  0  0
  190.4880  171.6220  141.7150 C   0  0  0  0  0  0  0  0  0  0  0  0
  187.4870  172.6700  140.3490 O   0  0  0  0  0  0  0  0  0  0  0  0
  189.7680  172.7560  142.3660 C   0  0  0  0  0  2  0  0  0  0  0  0
  191.8990  169.6590  142.0230 C   0  0  0  0  0  0  0  0  0  0  0  0
  189.2130  174.6630  140.8580 C   0  0  0  0  0  2  0  0  0  0  0  0
  188.6010  173.4460  139.7040 S   0  0  0  0  0  0  0  0  0  0  0  0
  190.0240  177.5340  144.8830 C   0  0  0  0  0  2  0  0  0  0  0  0
  187.7670  176.9420  143.9870 C   0  0  0  0  0  3  0  0  0  0  0  0
  185.6070  176.4070  143.1370 F   0  0  0  0  0  0  0  0  0  0  0  0
  186.6600  177.3850  146.4910 C   0  0  0  0  0  3  0  0  0  0  0  0
  187.9950  177.5390  146.2890 N   0  0  0  0  0  0  0  0  0  0  0  0
  185.8320  177.0000  145.4330 C   0  0  0  0  0  3  0  0  0  0  0  0
  186.3930  176.7780  144.1750 C   0  0  0  0  0  0  0  0  0  0  0  0
  188.5630  177.3200  145.0720 C   0  0  0  0  0  0  0  0  0  0  0  0
  190.7620  175.9240  147.6980 N   0  0  0  0  0  2  0  0  0  0  0  0
  190.2670  174.7630  147.0900 N   0  0  0  0  0  2  0  0  0  0  0  0
  188.9410  174.5410  147.6370 C   0  0  0  0  0  1  0  0  0  0  0  0
  1  4  1  0  0  0  0
  2  1  1  0  0  0  0
  2  3  1  0  0  0  0
  4  5  1  0  0  0  0
  5  7  1  1  0  0  0
  6  3  1  6  0  0  0
  6  5  1  0  0  0  0
  6 10  1  0  0  0  0
  7  8  1  0  0  0  0
  8 36  1  1  0  0  0
  9  3  2  0  0  0  0
 10  8  1  0  0  0  0
 13 19  1  1  0  0  0
 13 27  1  0  0  0  0
 13 21  1  0  0  0  0
 14 24  1  0  0  0  0
 14  9  1  1  0  0  0
 15 25  1  0  0  0  0
 16 27  2  0  0  0  0
 17 20  1  0  0  0  0
 18 19  1  0  0  0  0
 18 17  1  0  0  0  0
 20 21  2  0  0  0  0
 20 15  1  0  0  0  0
 21 22  1  0  0  0  0
 22 24  1  0  0  0  0
 22 12  2  0  0  0  0
 25 12  1  0  0  0  0
 25 11  2  0  0  0  0
 26 14  1  0  0  0  0
 27 23  2  0  0  0  0
 27 26  1  0  0  0  0
 28 35  1  0  0  0  0
 28 10  1  0  0  0  0
 29 34  2  0  0  0  0
 29 35  1  0  0  0  0
 30 34  1  0  0  0  0
 32 31  1  0  0  0  0
 33 31  2  0  0  0  0
 34 33  1  0  0  0  0
 35 32  2  0  0  0  0
 37 38  1  0  0  0  0
 37 36  1  0  0  0  0
M  END
>  <MODEL>
5

>  <REMARK>
 VINA RESULT:      -7.3      3.615      7.805
  Name = 
  5 active torsions:
  status: ('A' for Active; 'I' for Inactive)
    1  A    between atoms: C_6  and  N_34
    2  A    between atoms: C_11  and  N_35
    3  A    between atoms: C_11  and  C_37
    4  A    between atoms: N_16  and  N_25
    5  A    between atoms: N_16  and  C_33
                            x       y       z     vdW  Elec       q    Type
                         _______ _______ _______ _____ _____    ______ ____

>  <TORSDO>
F 5

$$$$
=
 OpenBabel11062419233D

 38 43  0  0  1  0  0  0  0  0999 V2000
  190.3770  171.9050  144.0600 C   0  0  0  0  0  2  0  0  0  0  0  0
  189.9650  173.3190  143.5660 C   0  0  0  0  0  2  0  0  0  0  0  0
  189.6500  173.3320  142.0820 C   0  0  0  0  0  0  0  0  0  0  0  0
  191.2730  171.1360  143.1610 N   0  0  0  0  0  2  0  0  0  0  0  0
  191.4690  171.7980  141.8730 C   0  0  2  0  0  3  0  0  0  0  0  0
  190.1540  172.1780  141.2740 C   0  0  2  0  0  3  0  0  0  0  0  0
  192.0630  170.9270  140.8120 C   0  0  0  0  0  2  0  0  0  0  0  0
  191.5260  171.5600  139.5260 C   0  0  1  0  0  3  0  0  0  0  0  0
  188.9370  174.2570  141.5330 N   0  0  0  0  0  0  0  0  0  0  0  0
  190.4420  172.4850  139.8820 N   0  0  0  0  0  0  0  0  0  0  0  0
  191.5040  176.7910  146.9340 O   0  0  0  0  0  0  0  0  0  0  0  0
  190.4810  176.5660  144.8230 C   0  0  0  0  0  3  0  0  0  0  0  0
  186.8780  177.6500  143.8670 C   0  0  1  0  0  3  0  0  0  0  0  0
  188.4100  175.3900  142.2550 C   0  0  1  0  0  3  0  0  0  0  0  0
  189.1350  177.0630  146.9520 C   0  0  0  0  0  2  0  0  0  0  0  0
  185.5730  178.0640  141.5530 O   0  0  0  0  0  0  0  0  0  0  0  0
  186.6920  177.7790  146.5960 C   0  0  0  0  0  2  0  0  0  0  0  0
  185.5810  176.9370  145.9530 C   0  0  0  0  0  2  0  0  0  0  0  0
  185.6310  176.9460  144.4120 C   0  0  0  0  0  2  0  0  0  0  0  0
  188.0210  177.4070  146.0000 C   0  0  0  0  0  0  0  0  0  0  0  0
  188.1300  177.2810  144.6550 C   0  0  0  0  0  0  0  0  0  0  0  0
  189.4020  176.7460  144.0610 C   0  0  0  0  0  0  0  0  0  0  0  0
  187.9230  178.7250  141.6380 O   0  0  0  0  0  0  0  0  0  0  0  0
  189.5370  176.3400  142.6310 C   0  0  0  0  0  2  0  0  0  0  0  0
  190.4420  176.8280  146.2620 C   0  0  0  0  0  0  0  0  0  0  0  0
  187.3880  176.1050  141.3880 C   0  0  0  0  0  2  0  0  0  0  0  0
  186.9290  177.6860  142.0780 S   0  0  0  0  0  0  0  0  0  0  0  0
  189.2780  172.0920  139.1010 C   0  0  0  0  0  2  0  0  0  0  0  0
  189.7400  173.1180  136.8680 C   0  0  0  0  0  3  0  0  0  0  0  0
  190.1910  174.1210  134.7550 F   0  0  0  0  0  0  0  0  0  0  0  0
  187.8160  175.0540  137.3640 C   0  0  0  0  0  3  0  0  0  0  0  0
  188.0700  174.0830  138.2800 N   0  0  0  0  0  0  0  0  0  0  0  0
  188.5250  175.0840  136.1600 C   0  0  0  0  0  3  0  0  0  0  0  0
  189.4910  174.1070  135.9150 C   0  0  0  0  0  0  0  0  0  0  0  0
  189.0040  173.1180  138.0570 C   0  0  0  0  0  0  0  0  0  0  0  0
  192.5880  172.2960  138.8600 N   0  0  0  0  0  2  0  0  0  0  0  0
  192.4340  173.6430  139.2120 N   0  0  0  0  0  2  0  0  0  0  0  0
  193.0660  174.4220  138.1630 C   0  0  0  0  0  1  0  0  0  0  0  0
  2  1  1  0  0  0  0
  3  2  1  0  0  0  0
  4  1  1  0  0  0  0
  5  7  1  6  0  0  0
  5  4  1  0  0  0  0
  6  5  1  0  0  0  0
  6  3  1  1  0  0  0
  8 36  1  1  0  0  0
  8 10  1  0  0  0  0
  8  7  1  0  0  0  0
  9  3  2  0  0  0  0
 10  6  1  0  0  0  0
 12 25  1  0  0  0  0
 13 19  1  6  0  0  0
 13 21  1  0  0  0  0
 14  9  1  6  0  0  0
 14 24  1  0  0  0  0
 16 27  2  0  0  0  0
 18 17  1  0  0  0  0
 19 18  1  0  0  0  0
 20 17  1  0  0  0  0
 20 15  1  0  0  0  0
 21 20  2  0  0  0  0
 22 21  1  0  0  0  0
 22 12  2  0  0  0  0
 23 27  2  0  0  0  0
 24 22  1  0  0  0  0
 25 11  2  0  0  0  0
 25 15  1  0  0  0  0
 26 27  1  0  0  0  0
 26 14  1  0  0  0  0
 27 13  1  0  0  0  0
 28 10  1  0  0  0  0
 29 35  1  0  0  0  0
 30 34  1  0  0  0  0
 31 32  1  0  0  0  0
 33 31  2  0  0  0  0
 34 33  1  0  0  0  0
 34 29  2  0  0  0  0
 35 32  2  0  0  0  0
 35 28  1  0  0  0  0
 36 37  1  0  0  0  0
 38 37  1  0  0  0  0
M  END
>  <MODEL>
6

>  <REMARK>
 VINA RESULT:      -7.2      1.111      1.301
  Name = 
  5 active torsions:
  status: ('A' for Active; 'I' for Inactive)
    1  A    between atoms: C_6  and  N_34
    2  A    between atoms: C_11  and  N_35
    3  A    between atoms: C_11  and  C_37
    4  A    between atoms: N_16  and  N_25
    5  A    between atoms: N_16  and  C_33
                            x       y       z     vdW  Elec       q    Type
                         _______ _______ _______ _____ _____    ______ ____

>  <TORSDO>
F 5

$$$$
=
 OpenBabel11062419233D

 38 43  0  0  1  0  0  0  0  0999 V2000
  196.0180  176.7890  143.8830 C   0  0  0  0  0  2  0  0  0  0  0  0
  194.6370  176.0820  143.9680 C   0  0  0  0  0  2  0  0  0  0  0  0
  194.7530  174.6750  144.5230 C   0  0  0  0  0  0  0  0  0  0  0  0
  197.1490  175.9550  143.4080 N   0  0  0  0  0  2  0  0  0  0  0  0
  196.7800  174.5480  143.2670 C   0  0  2  0  0  3  0  0  0  0  0  0
  196.1140  174.0540  144.5100 C   0  0  2  0  0  3  0  0  0  0  0  0
  197.9410  173.6130  143.1360 C   0  0  0  0  0  2  0  0  0  0  0  0
  197.3770  172.3040  143.6930 C   0  0  1  0  0  3  0  0  0  0  0  0
  193.7490  174.0480  145.0370 N   0  0  0  0  0  0  0  0  0  0  0  0
  196.1230  172.6030  144.3990 N   0  0  0  0  0  0  0  0  0  0  0  0
  188.8480  172.3880  141.1120 O   0  0  0  0  0  0  0  0  0  0  0  0
  190.0980  172.9790  143.0200 C   0  0  0  0  0  3  0  0  0  0  0  0
  189.6720  176.1840  145.1690 C   0  0  1  0  0  3  0  0  0  0  0  0
  192.4140  174.5930  145.0930 C   0  0  1  0  0  3  0  0  0  0  0  0
  188.6320  174.6720  141.7650 C   0  0  0  0  0  2  0  0  0  0  0  0
  190.4700  176.9440  147.6220 O   0  0  0  0  0  0  0  0  0  0  0  0
  188.2150  176.9060  142.9650 C   0  0  0  0  0  2  0  0  0  0  0  0
  189.2790  177.9430  143.3540 C   0  0  0  0  0  2  0  0  0  0  0  0
  190.0320  177.5810  144.6500 C   0  0  0  0  0  2  0  0  0  0  0  0
  188.8160  175.5280  142.9890 C   0  0  0  0  0  0  0  0  0  0  0  0
  189.5890  175.1620  144.0400 C   0  0  0  0  0  0  0  0  0  0  0  0
  190.3310  173.8560  143.9970 C   0  0  0  0  0  0  0  0  0  0  0  0
  189.8250  174.6050  147.3370 O   0  0  0  0  0  0  0  0  0  0  0  0
  191.3880  173.4750  144.9790 C   0  0  0  0  0  2  0  0  0  0  0  0
  189.1600  173.2820  141.9390 C   0  0  0  0  0  0  0  0  0  0  0  0
  192.2330  175.3400  146.4030 C   0  0  0  0  0  2  0  0  0  0  0  0
  190.5230  175.7670  146.6880 S   0  0  0  0  0  0  0  0  0  0  0  0
  196.2560  172.0660  145.7440 C   0  0  0  0  0  2  0  0  0  0  0  0
  194.4290  170.4830  145.1060 C   0  0  0  0  0  3  0  0  0  0  0  0
  192.6770  168.9760  144.5260 F   0  0  0  0  0  0  0  0  0  0  0  0
  195.5510  168.5370  146.7320 C   0  0  0  0  0  3  0  0  0  0  0  0
  196.1340  169.7590  146.6150 N   0  0  0  0  0  0  0  0  0  0  0  0
  194.3770  168.2510  146.0300 C   0  0  0  0  0  3  0  0  0  0  0  0
  193.8170  169.2330  145.2130 C   0  0  0  0  0  0  0  0  0  0  0  0
  195.6070  170.7280  145.8180 C   0  0  0  0  0  0  0  0  0  0  0  0
  197.1080  171.3800  142.6040 N   0  0  0  0  0  2  0  0  0  0  0  0
  197.5940  170.1280  143.0020 N   0  0  0  0  0  2  0  0  0  0  0  0
  196.6860  169.1360  142.4550 C   0  0  0  0  0  1  0  0  0  0  0  0
  1  2  1  0  0  0  0
  2  3  1  0  0  0  0
  3  9  2  0  0  0  0
  4  1  1  0  0  0  0
  5  7  1  1  0  0  0
  5  4  1  0  0  0  0
  5  6  1  0  0  0  0
  6  3  1  6  0  0  0
  7  8  1  0  0  0  0
  8 36  1  6  0  0  0
  8 10  1  0  0  0  0
 10  6  1  0  0  0  0
 10 28  1  0  0  0  0
 11 25  2  0  0  0  0
 12 22  2  0  0  0  0
 13 19  1  6  0  0  0
 13 27  1  0  0  0  0
 14  9  1  1  0  0  0
 14 26  1  0  0  0  0
 15 25  1  0  0  0  0
 15 20  1  0  0  0  0
 17 20  1  0  0  0  0
 17 18  1  0  0  0  0
 18 19  1  0  0  0  0
 20 21  2  0  0  0  0
 21 13  1  0  0  0  0
 22 21  1  0  0  0  0
 22 24  1  0  0  0  0
 24 14  1  0  0  0  0
 25 12  1  0  0  0  0
 26 27  1  0  0  0  0
 27 23  2  0  0  0  0
 27 16  2  0  0  0  0
 28 35  1  0  0  0  0
 29 34  2  0  0  0  0
 29 35  1  0  0  0  0
 30 34  1  0  0  0  0
 32 31  1  0  0  0  0
 33 31  2  0  0  0  0
 34 33  1  0  0  0  0
 35 32  2  0  0  0  0
 36 37  1  0  0  0  0
 38 37  1  0  0  0  0
M  END
>  <MODEL>
7

>  <REMARK>
 VINA RESULT:      -7.2      5.186      7.954
  Name = 
  5 active torsions:
  status: ('A' for Active; 'I' for Inactive)
    1  A    between atoms: C_6  and  N_34
    2  A    between atoms: C_11  and  N_35
    3  A    between atoms: C_11  and  C_37
    4  A    between atoms: N_16  and  N_25
    5  A    between atoms: N_16  and  C_33
                            x       y       z     vdW  Elec       q    Type
                         _______ _______ _______ _____ _____    ______ ____

>  <TORSDO>
F 5

$$$$
=
 OpenBabel11062419233D

 38 43  0  0  1  0  0  0  0  0999 V2000
  193.7840  176.3910  146.8880 C   0  0  0  0  0  2  0  0  0  0  0  0
  193.5960  175.4390  145.6740 C   0  0  0  0  0  2  0  0  0  0  0  0
  192.4350  175.8630  144.7960 C   0  0  0  0  0  0  0  0  0  0  0  0
  192.5410  176.8390  147.5630 N   0  0  0  0  0  2  0  0  0  0  0  0
  191.3390  176.4290  146.8400 C   0  0  2  0  0  3  0  0  0  0  0  0
  191.4410  176.8040  145.3980 C   0  0  2  0  0  3  0  0  0  0  0  0
  190.0900  177.1350  147.2660 C   0  0  0  0  0  2  0  0  0  0  0  0
  189.2300  177.0770  146.0000 C   0  0  1  0  0  3  0  0  0  0  0  0
  192.3210  175.4830  143.5680 N   0  0  0  0  0  0  0  0  0  0  0  0
  190.0890  176.6840  144.8740 N   0  0  0  0  0  0  0  0  0  0  0  0
  194.6810  170.0160  146.1590 O   0  0  0  0  0  0  0  0  0  0  0  0
  193.7990  171.5830  144.6360 C   0  0  0  0  0  3  0  0  0  0  0  0
  195.5520  172.9690  141.4610 C   0  0  1  0  0  3  0  0  0  0  0  0
  193.2490  174.5870  142.9220 C   0  0  1  0  0  3  0  0  0  0  0  0
  196.2970  170.9900  144.6990 C   0  0  0  0  0  2  0  0  0  0  0  0
  194.7320  174.2790  139.2610 O   0  0  0  0  0  0  0  0  0  0  0  0
  197.7000  171.8210  142.7130 C   0  0  0  0  0  2  0  0  0  0  0  0
  197.9410  173.2850  142.3180 C   0  0  0  0  0  2  0  0  0  0  0  0
  196.7680  173.8990  141.5280 C   0  0  0  0  0  2  0  0  0  0  0  0
  196.3530  171.6860  143.3660 C   0  0  0  0  0  0  0  0  0  0  0  0
  195.2800  172.2900  142.8000 C   0  0  0  0  0  0  0  0  0  0  0  0
  193.9670  172.3070  143.5290 C   0  0  0  0  0  0  0  0  0  0  0  0
  193.2390  172.5650  140.1560 O   0  0  0  0  0  0  0  0  0  0  0  0
  192.8030  173.1450  143.1140 C   0  0  0  0  0  2  0  0  0  0  0  0
  194.8990  170.8010  145.2020 C   0  0  0  0  0  0  0  0  0  0  0  0
  193.3200  174.9210  141.4420 C   0  0  0  0  0  2  0  0  0  0  0  0
  194.1950  173.6650  140.5230 S   0  0  0  0  0  0  0  0  0  0  0  0
  189.9300  177.7020  143.8460 C   0  0  0  0  0  2  0  0  0  0  0  0
  188.9860  175.8210  142.4960 C   0  0  0  0  0  3  0  0  0  0  0  0
  188.1020  174.0390  141.1850 F   0  0  0  0  0  0  0  0  0  0  0  0
  187.5160  177.6360  141.0010 C   0  0  0  0  0  3  0  0  0  0  0  0
  188.3140  178.0630  142.0150 N   0  0  0  0  0  0  0  0  0  0  0  0
  187.4290  176.2740  140.7040 C   0  0  0  0  0  3  0  0  0  0  0  0
  188.1700  175.3640  141.4590 C   0  0  0  0  0  0  0  0  0  0  0  0
  189.0390  177.1910  142.7670 C   0  0  0  0  0  0  0  0  0  0  0  0
  188.1740  176.0930  146.1670 N   0  0  0  0  0  2  0  0  0  0  0  0
  186.9990  176.8000  146.4540 N   0  0  0  0  0  2  0  0  0  0  0  0
  186.2220  176.8300  145.2290 C   0  0  0  0  0  1  0  0  0  0  0  0
  1  4  1  0  0  0  0
  2  1  1  0  0  0  0
  3  2  1  0  0  0  0
  5  7  1  1  0  0  0
  5  4  1  0  0  0  0
  6  3  1  6  0  0  0
  6  5  1  0  0  0  0
  8 36  1  1  0  0  0
  8  7  1  0  0  0  0
  9  3  2  0  0  0  0
 10  6  1  0  0  0  0
 10  8  1  0  0  0  0
 12 25  1  0  0  0  0
 13 19  1  1  0  0  0
 13 21  1  0  0  0  0
 14 24  1  0  0  0  0
 14  9  1  1  0  0  0
 15 25  1  0  0  0  0
 16 27  2  0  0  0  0
 17 20  1  0  0  0  0
 18 17  1  0  0  0  0
 19 18  1  0  0  0  0
 20 15  1  0  0  0  0
 21 20  2  0  0  0  0
 21 22  1  0  0  0  0
 22 12  2  0  0  0  0
 23 27  2  0  0  0  0
 24 22  1  0  0  0  0
 25 11  2  0  0  0  0
 26 14  1  0  0  0  0
 27 26  1  0  0  0  0
 27 13  1  0  0  0  0
 28 10  1  0  0  0  0
 29 35  1  0  0  0  0
 30 34  1  0  0  0  0
 31 32  1  0  0  0  0
 32 35  2  0  0  0  0
 33 31  2  0  0  0  0
 33 34  1  0  0  0  0
 34 29  2  0  0  0  0
 35 28  1  0  0  0  0
 36 37  1  0  0  0  0
 38 37  1  0  0  0  0
M  END
>  <MODEL>
8

>  <REMARK>
 VINA RESULT:      -7.0      4.504      8.049
  Name = 
  5 active torsions:
  status: ('A' for Active; 'I' for Inactive)
    1  A    between atoms: C_6  and  N_34
    2  A    between atoms: C_11  and  N_35
    3  A    between atoms: C_11  and  C_37
    4  A    between atoms: N_16  and  N_25
    5  A    between atoms: N_16  and  C_33
                            x       y       z     vdW  Elec       q    Type
                         _______ _______ _______ _____ _____    ______ ____

>  <TORSDO>
F 5

$$$$
=
 OpenBabel11062419233D

 38 43  0  0  1  0  0  0  0  0999 V2000
  192.2150  176.4060  146.9500 C   0  0  0  0  0  2  0  0  0  0  0  0
  192.1830  175.6200  145.6100 C   0  0  0  0  0  2  0  0  0  0  0  0
  191.1550  176.1810  144.6470 C   0  0  0  0  0  0  0  0  0  0  0  0
  190.8960  176.7990  147.5060 N   0  0  0  0  0  2  0  0  0  0  0  0
  189.7980  176.5160  146.5830 C   0  0  2  0  0  3  0  0  0  0  0  0
  190.0980  177.0660  145.2270 C   0  0  2  0  0  3  0  0  0  0  0  0
  188.5110  177.1950  146.9260 C   0  0  0  0  0  2  0  0  0  0  0  0
  187.8290  177.3190  145.5610 C   0  0  1  0  0  3  0  0  0  0  0  0
  191.2040  175.9610  143.3760 N   0  0  0  0  0  0  0  0  0  0  0  0
  188.8280  177.0480  144.5170 N   0  0  0  0  0  0  0  0  0  0  0  0
  190.4720  169.6760  141.9150 O   0  0  0  0  0  0  0  0  0  0  0  0
  191.0630  171.9540  141.8060 C   0  0  0  0  0  3  0  0  0  0  0  0
  194.6590  173.4150  141.7070 C   0  0  1  0  0  3  0  0  0  0  0  0
  192.2020  175.1290  142.7500 C   0  0  1  0  0  3  0  0  0  0  0  0
  192.7540  170.1300  142.4420 C   0  0  0  0  0  2  0  0  0  0  0  0
  195.7210  175.7970  141.0550 O   0  0  0  0  0  0  0  0  0  0  0  0
  195.2220  170.8490  142.4800 C   0  0  0  0  0  2  0  0  0  0  0  0
  195.8470  171.9090  143.3990 C   0  0  0  0  0  2  0  0  0  0  0  0
  195.6100  173.3510  142.9070 C   0  0  0  0  0  2  0  0  0  0  0  0
  193.7860  171.2000  142.2030 C   0  0  0  0  0  0  0  0  0  0  0  0
  193.4690  172.4750  141.8730 C   0  0  0  0  0  0  0  0  0  0  0  0
  192.0250  172.8760  141.7620 C   0  0  0  0  0  0  0  0  0  0  0  0
  193.8180  175.0280  139.7300 O   0  0  0  0  0  0  0  0  0  0  0  0
  191.5690  174.2920  141.6480 C   0  0  0  0  0  2  0  0  0  0  0  0
  191.3780  170.5410  142.0200 C   0  0  0  0  0  0  0  0  0  0  0  0
  193.3000  176.0090  142.1750 C   0  0  0  0  0  2  0  0  0  0  0  0
  194.3990  175.0840  141.1160 S   0  0  0  0  0  0  0  0  0  0  0  0
  188.8190  178.1900  143.6160 C   0  0  0  0  0  2  0  0  0  0  0  0
  186.6160  178.5430  142.4860 C   0  0  0  0  0  3  0  0  0  0  0  0
  184.5110  178.8500  141.4160 F   0  0  0  0  0  0  0  0  0  0  0  0
  187.3730  176.7930  140.4720 C   0  0  0  0  0  3  0  0  0  0  0  0
  188.2210  177.0750  141.4970 N   0  0  0  0  0  0  0  0  0  0  0  0
  186.1090  177.3870  140.4260 C   0  0  0  0  0  3  0  0  0  0  0  0
  185.7330  178.2670  141.4410 C   0  0  0  0  0  0  0  0  0  0  0  0
  187.8750  177.9360  142.4920 C   0  0  0  0  0  0  0  0  0  0  0  0
  186.7500  176.3500  145.4590 N   0  0  0  0  0  2  0  0  0  0  0  0
  185.7690  176.7330  146.3820 N   0  0  0  0  0  2  0  0  0  0  0  0
  185.0210  177.8150  145.7690 C   0  0  0  0  0  1  0  0  0  0  0  0
  1  4  1  0  0  0  0
  2  1  1  0  0  0  0
  3  2  1  0  0  0  0
  5  7  1  1  0  0  0
  5  4  1  0  0  0  0
  6  3  1  6  0  0  0
  6  5  1  0  0  0  0
  8 36  1  1  0  0  0
  8  7  1  0  0  0  0
  9  3  2  0  0  0  0
 10  6  1  0  0  0  0
 10  8  1  0  0  0  0
 11 25  2  0  0  0  0
 12 25  1  0  0  0  0
 13 21  1  0  0  0  0
 13 19  1  1  0  0  0
 14  9  1  6  0  0  0
 16 27  2  0  0  0  0
 17 18  1  0  0  0  0
 19 18  1  0  0  0  0
 20 15  1  0  0  0  0
 20 17  1  0  0  0  0
 21 20  2  0  0  0  0
 22 12  2  0  0  0  0
 22 21  1  0  0  0  0
 23 27  2  0  0  0  0
 24 22  1  0  0  0  0
 24 14  1  0  0  0  0
 25 15  1  0  0  0  0
 26 14  1  0  0  0  0
 27 13  1  0  0  0  0
 27 26  1  0  0  0  0
 28 10  1  0  0  0  0
 29 35  1  0  0  0  0
 30 34  1  0  0  0  0
 31 32  1  0  0  0  0
 32 35  2  0  0  0  0
 33 31  2  0  0  0  0
 33 34  1  0  0  0  0
 34 29  2  0  0  0  0
 35 28  1  0  0  0  0
 36 37  1  0  0  0  0
 38 37  1  0  0  0  0
M  END
>  <MODEL>
9

>  <REMARK>
 VINA RESULT:      -6.9      4.096      7.714
  Name = 
  5 active torsions:
  status: ('A' for Active; 'I' for Inactive)
    1  A    between atoms: C_6  and  N_34
    2  A    between atoms: C_11  and  N_35
    3  A    between atoms: C_11  and  C_37
    4  A    between atoms: N_16  and  N_25
    5  A    between atoms: N_16  and  C_33
                            x       y       z     vdW  Elec       q    Type
                         _______ _______ _______ _____ _____    ______ ____

>  <TORSDO>
F 5

$$$$
