=
 OpenBabel11062419533D

 30 33  0  0  1  0  0  0  0  0999 V2000
  189.3380  177.2270  144.0430 C   0  0  0  0  0  0  0  0  0  0  0  0
  184.9030  178.0220  145.5710 O   0  0  0  0  0  0  0  0  0  0  0  0
  191.3880  177.3720  145.3370 C   0  0  0  0  0  3  0  0  0  0  0  0
  187.8560  177.0300  144.0360 C   0  0  2  0  0  3  0  0  0  0  0  0
  187.0430  177.3820  142.7970 C   0  0  2  0  0  3  0  0  0  0  0  0
  187.2500  177.8200  145.1630 C   0  0  1  0  0  3  0  0  0  0  0  0
  187.0760  177.7590  147.5500 O   0  0  0  0  0  1  0  0  0  0  0  0
  191.4740  177.4250  142.9160 C   0  0  0  0  0  3  0  0  0  0  0  0
  192.1230  177.4640  144.1520 C   0  0  0  0  0  3  0  0  0  0  0  0
  189.9940  177.2340  145.2970 C   0  0  0  0  0  0  0  0  0  0  0  0
  189.2100  177.1770  146.6060 C   0  0  1  0  0  3  0  0  0  0  0  0
  190.0830  177.3010  142.8600 C   0  0  0  0  0  3  0  0  0  0  0  0
  185.8150  177.8000  144.7910 C   0  0  0  0  0  0  0  0  0  0  0  0
  187.6670  177.1290  146.4540 C   0  0  2  0  0  3  0  0  0  0  0  0
  185.6150  177.5440  143.3330 C   0  0  1  0  0  3  0  0  0  0  0  0
  189.0080  174.8650  146.8770 C   0  0  0  0  0  1  0  0  0  0  0  0
  189.6550  176.0500  147.4100 N   0  0  0  0  0  2  0  0  0  0  0  0
  187.1060  176.2420  141.7940 C   0  0  0  0  0  2  0  0  0  0  0  0
  187.0200  174.9070  142.5110 C   0  0  0  0  0  2  0  0  0  0  0  0
  190.4170  173.5580  142.1880 C   0  0  0  0  0  0  0  0  0  0  0  0
  188.6840  174.5200  140.7020 C   0  0  0  0  0  2  0  0  0  0  0  0
  188.0610  173.9470  141.9660 C   0  0  1  0  0  3  0  0  0  0  0  0
  191.5100  173.4620  142.7220 O   0  0  0  0  0  0  0  0  0  0  0  0
  189.1740  173.7220  142.9790 C   0  0  0  0  0  2  0  0  0  0  0  0
  190.2470  173.6410  140.4180 S   0  0  0  0  0  0  0  0  0  0  0  0
  184.9840  178.6960  142.7080 N   0  0  0  0  0  2  0  0  0  0  0  0
  183.7080  178.2530  142.1710 C   0  0  0  0  0  2  0  0  0  0  0  0
  183.7640  178.2430  140.6550 C   0  0  0  0  0  2  0  0  0  0  0  0
  181.6350  178.2220  141.2280 C   0  0  0  0  0  1  0  0  0  0  0  0
  182.4880  178.0090  140.1450 O   0  0  0  0  0  0  0  0  0  0  0  0
  1 10  1  0  0  0  0
  4  1  1  6  0  0  0
  4  6  1  0  0  0  0
  5 18  1  6  0  0  0
  5 15  1  0  0  0  0
  5  4  1  0  0  0  0
  6 13  1  6  0  0  0
  6 14  1  0  0  0  0
  8  9  2  0  0  0  0
  9  3  1  0  0  0  0
 10  3  2  0  0  0  0
 10 11  1  0  0  0  0
 11 17  1  6  0  0  0
 12  8  1  0  0  0  0
 12  1  2  0  0  0  0
 13  2  2  0  0  0  0
 14 11  1  0  0  0  0
 14  7  1  1  0  0  0
 15 26  1  6  0  0  0
 15 13  1  0  0  0  0
 16 17  1  0  0  0  0
 18 19  1  0  0  0  0
 20 23  2  0  0  0  0
 20 24  1  0  0  0  0
 21 22  1  0  0  0  0
 22 19  1  1  0  0  0
 22 24  1  0  0  0  0
 25 21  1  0  0  0  0
 25 20  1  0  0  0  0
 27 26  1  0  0  0  0
 28 27  1  0  0  0  0
 30 28  1  0  0  0  0
 30 29  1  0  0  0  0
M  END
>  <MODEL>
1

>  <REMARK>
 VINA RESULT:      -6.6      0.000      0.000
  Name = 
  8 active torsions:
  status: ('A' for Active; 'I' for Inactive)
    1  A    between atoms: C_5  and  C_9
    2  A    between atoms: C_5  and  C_16
    3  A    between atoms: C_10  and  N_17
    4  A    between atoms: C_10  and  C_25
    5  A    between atoms: C_12  and  C_16
    6  A    between atoms: N_17  and  C_26
    7  A    between atoms: C_20  and  N_28
    8  A    between atoms: C_25  and  O_27
                            x       y       z     vdW  Elec       q    Type
                         _______ _______ _______ _____ _____    ______ ____

>  <TORSDO>
F 8

$$$$
=
 OpenBabel11062419533D

 30 33  0  0  1  0  0  0  0  0999 V2000
  188.6380  176.6650  142.8050 C   0  0  0  0  0  0  0  0  0  0  0  0
  192.4240  174.2120  144.3170 O   0  0  0  0  0  0  0  0  0  0  0  0
  187.4640  176.4060  140.6960 C   0  0  0  0  0  3  0  0  0  0  0  0
  189.5170  176.0540  143.8490 C   0  0  2  0  0  3  0  0  0  0  0  0
  190.2010  176.9360  144.8860 C   0  0  2  0  0  3  0  0  0  0  0  0
  190.6190  175.2840  143.1740 C   0  0  1  0  0  3  0  0  0  0  0  0
  190.9440  173.2510  141.9520 O   0  0  0  0  0  1  0  0  0  0  0  0
  187.1900  178.4310  141.9970 C   0  0  0  0  0  3  0  0  0  0  0  0
  186.8990  177.6740  140.8600 C   0  0  0  0  0  3  0  0  0  0  0  0
  188.3210  175.8800  141.6710 C   0  0  0  0  0  0  0  0  0  0  0  0
  188.9580  174.5100  141.4480 C   0  0  1  0  0  3  0  0  0  0  0  0
  188.0540  177.9260  142.9730 C   0  0  0  0  0  3  0  0  0  0  0  0
  191.5550  175.0690  144.3020 C   0  0  0  0  0  0  0  0  0  0  0  0
  189.9700  174.0640  142.5350 C   0  0  2  0  0  3  0  0  0  0  0  0
  191.3570  176.0660  145.3960 C   0  0  1  0  0  3  0  0  0  0  0  0
  188.1600  172.8340  140.0280 C   0  0  0  0  0  1  0  0  0  0  0  0
  187.9270  173.4960  141.2990 N   0  0  0  0  0  2  0  0  0  0  0  0
  189.2360  177.2510  146.0160 C   0  0  0  0  0  2  0  0  0  0  0  0
  188.3130  176.0700  146.2630 C   0  0  0  0  0  2  0  0  0  0  0  0
  185.1300  177.8100  145.7090 C   0  0  0  0  0  0  0  0  0  0  0  0
  187.0320  177.9390  147.2920 C   0  0  0  0  0  2  0  0  0  0  0  0
  186.9340  176.5540  146.6690 C   0  0  1  0  0  3  0  0  0  0  0  0
  184.3420  178.2080  144.8670 O   0  0  0  0  0  0  0  0  0  0  0  0
  186.0140  176.6450  145.4600 C   0  0  0  0  0  2  0  0  0  0  0  0
  185.3730  178.6760  147.2450 S   0  0  0  0  0  0  0  0  0  0  0  0
  192.5530  176.8810  145.5480 N   0  0  0  0  0  2  0  0  0  0  0  0
  193.2590  176.4000  146.7250 C   0  0  0  0  0  2  0  0  0  0  0  0
  194.6850  176.0360  146.3560 C   0  0  0  0  0  2  0  0  0  0  0  0
  195.7220  175.4540  144.4990 C   0  0  0  0  0  1  0  0  0  0  0  0
  194.9550  176.4750  145.0610 O   0  0  0  0  0  0  0  0  0  0  0  0
  1 12  1  0  0  0  0
  3  9  2  0  0  0  0
  3 10  1  0  0  0  0
  4  1  1  6  0  0  0
  4  5  1  0  0  0  0
  5 15  1  0  0  0  0
  5 18  1  1  0  0  0
  6  4  1  0  0  0  0
  6 13  1  1  0  0  0
  8 12  2  0  0  0  0
  9  8  1  0  0  0  0
 10  1  2  0  0  0  0
 11 17  1  1  0  0  0
 11 10  1  0  0  0  0
 11 14  1  0  0  0  0
 13  2  2  0  0  0  0
 13 15  1  0  0  0  0
 14  7  1  6  0  0  0
 14  6  1  0  0  0  0
 15 26  1  6  0  0  0
 16 17  1  0  0  0  0
 18 19  1  0  0  0  0
 20 25  1  0  0  0  0
 22 19  1  6  0  0  0
 22 21  1  0  0  0  0
 23 20  2  0  0  0  0
 24 20  1  0  0  0  0
 24 22  1  0  0  0  0
 25 21  1  0  0  0  0
 26 27  1  0  0  0  0
 28 27  1  0  0  0  0
 29 30  1  0  0  0  0
 30 28  1  0  0  0  0
M  END
>  <MODEL>
2

>  <REMARK>
 VINA RESULT:      -6.5      3.049      7.456
  Name = 
  8 active torsions:
  status: ('A' for Active; 'I' for Inactive)
    1  A    between atoms: C_5  and  C_9
    2  A    between atoms: C_5  and  C_16
    3  A    between atoms: C_10  and  N_17
    4  A    between atoms: C_10  and  C_25
    5  A    between atoms: C_12  and  C_16
    6  A    between atoms: N_17  and  C_26
    7  A    between atoms: C_20  and  N_28
    8  A    between atoms: C_25  and  O_27
                            x       y       z     vdW  Elec       q    Type
                         _______ _______ _______ _____ _____    ______ ____

>  <TORSDO>
F 8

$$$$
=
 OpenBabel11062419533D

 30 33  0  0  1  0  0  0  0  0999 V2000
  187.0470  177.5400  142.8710 C   0  0  0  0  0  0  0  0  0  0  0  0
  187.3610  176.1450  147.4090 O   0  0  0  0  0  0  0  0  0  0  0  0
  185.0220  177.9510  141.5960 C   0  0  0  0  0  3  0  0  0  0  0  0
  187.7050  177.4560  144.2120 C   0  0  2  0  0  3  0  0  0  0  0  0
  189.0710  176.7970  144.3540 C   0  0  2  0  0  3  0  0  0  0  0  0
  186.7950  176.7240  145.1600 C   0  0  1  0  0  3  0  0  0  0  0  0
  184.7580  177.0670  146.3700 O   0  0  0  0  0  1  0  0  0  0  0  0
  187.1280  177.5940  140.4510 C   0  0  0  0  0  3  0  0  0  0  0  0
  185.7530  177.8410  140.4100 C   0  0  0  0  0  3  0  0  0  0  0  0
  185.6610  177.8210  142.8360 C   0  0  0  0  0  0  0  0  0  0  0  0
  184.8330  177.9040  144.1160 C   0  0  1  0  0  3  0  0  0  0  0  0
  187.7770  177.4500  141.6800 C   0  0  0  0  0  3  0  0  0  0  0  0
  187.7220  176.4270  146.2780 C   0  0  0  0  0  0  0  0  0  0  0  0
  185.6140  177.6450  145.4310 C   0  0  2  0  0  3  0  0  0  0  0  0
  189.1520  176.4460  145.8450 C   0  0  1  0  0  3  0  0  0  0  0  0
  185.1770  180.1870  144.4810 C   0  0  0  0  0  1  0  0  0  0  0  0
  184.1600  179.1910  144.1970 N   0  0  0  0  0  2  0  0  0  0  0  0
  190.1640  177.7860  143.9830 C   0  0  0  0  0  2  0  0  0  0  0  0
  191.0800  177.1860  142.9320 C   0  0  0  0  0  2  0  0  0  0  0  0
  194.1100  176.6960  144.9430 C   0  0  0  0  0  0  0  0  0  0  0  0
  193.3420  176.1890  142.6430 C   0  0  0  0  0  2  0  0  0  0  0  0
  192.1610  176.3490  143.5890 C   0  0  1  0  0  3  0  0  0  0  0  0
  194.8250  177.1770  145.8070 O   0  0  0  0  0  0  0  0  0  0  0  0
  192.6640  177.0150  144.8620 C   0  0  0  0  0  2  0  0  0  0  0  0
  194.7730  175.6840  143.6390 S   0  0  0  0  0  0  0  0  0  0  0  0
  189.7380  175.1240  146.0060 N   0  0  0  0  0  2  0  0  0  0  0  0
  189.4290  174.3640  144.8050 C   0  0  0  0  0  2  0  0  0  0  0  0
  190.2500  173.0890  144.7790 C   0  0  0  0  0  2  0  0  0  0  0  0
  189.4490  171.9900  143.0430 C   0  0  0  0  0  1  0  0  0  0  0  0
  189.4300  172.0150  144.4370 O   0  0  0  0  0  0  0  0  0  0  0  0
  3 10  2  0  0  0  0
  4  1  1  6  0  0  0
  4  5  1  0  0  0  0
  4  6  1  0  0  0  0
  5 18  1  1  0  0  0
  5 15  1  0  0  0  0
  6 14  1  0  0  0  0
  6 13  1  1  0  0  0
  8 12  1  0  0  0  0
  9  8  2  0  0  0  0
  9  3  1  0  0  0  0
 10  1  1  0  0  0  0
 10 11  1  0  0  0  0
 11 17  1  1  0  0  0
 11 14  1  0  0  0  0
 12  1  2  0  0  0  0
 13  2  2  0  0  0  0
 14  7  1  1  0  0  0
 15 26  1  6  0  0  0
 15 13  1  0  0  0  0
 17 16  1  0  0  0  0
 19 18  1  0  0  0  0
 20 23  2  0  0  0  0
 21 22  1  0  0  0  0
 21 25  1  0  0  0  0
 22 19  1  6  0  0  0
 22 24  1  0  0  0  0
 24 20  1  0  0  0  0
 25 20  1  0  0  0  0
 27 26  1  0  0  0  0
 28 27  1  0  0  0  0
 29 30  1  0  0  0  0
 30 28  1  0  0  0  0
M  END
>  <MODEL>
3

>  <REMARK>
 VINA RESULT:      -6.5      2.331      5.691
  Name = 
  8 active torsions:
  status: ('A' for Active; 'I' for Inactive)
    1  A    between atoms: C_5  and  C_9
    2  A    between atoms: C_5  and  C_16
    3  A    between atoms: C_10  and  N_17
    4  A    between atoms: C_10  and  C_25
    5  A    between atoms: C_12  and  C_16
    6  A    between atoms: N_17  and  C_26
    7  A    between atoms: C_20  and  N_28
    8  A    between atoms: C_25  and  O_27
                            x       y       z     vdW  Elec       q    Type
                         _______ _______ _______ _____ _____    ______ ____

>  <TORSDO>
F 8

$$$$
=
 OpenBabel11062419533D

 30 33  0  0  1  0  0  0  0  0999 V2000
  187.5060  176.8950  145.4220 C   0  0  0  0  0  0  0  0  0  0  0  0
  191.3240  177.7220  142.7060 O   0  0  0  0  0  0  0  0  0  0  0  0
  185.2650  177.7780  145.1160 C   0  0  0  0  0  3  0  0  0  0  0  0
  188.8230  176.5440  144.8090 C   0  0  2  0  0  3  0  0  0  0  0  0
  190.0340  176.2770  145.6950 C   0  0  2  0  0  3  0  0  0  0  0  0
  189.2370  177.6430  143.8690 C   0  0  1  0  0  3  0  0  0  0  0  0
  188.6610  178.5200  141.7170 O   0  0  0  0  0  1  0  0  0  0  0  0
  185.9300  176.8690  147.2620 C   0  0  0  0  0  3  0  0  0  0  0  0
  184.9680  177.4720  146.4480 C   0  0  0  0  0  3  0  0  0  0  0  0
  186.5250  177.4770  144.5840 C   0  0  0  0  0  0  0  0  0  0  0  0
  186.8380  177.8580  143.1390 C   0  0  1  0  0  3  0  0  0  0  0  0
  187.1960  176.5750  146.7490 C   0  0  0  0  0  3  0  0  0  0  0  0
  190.6650  177.3130  143.6490 C   0  0  0  0  0  0  0  0  0  0  0  0
  188.2910  177.5770  142.6780 C   0  0  2  0  0  3  0  0  0  0  0  0
  191.2260  176.4750  144.7500 C   0  0  1  0  0  3  0  0  0  0  0  0
  185.2210  178.2500  141.4970 C   0  0  0  0  0  1  0  0  0  0  0  0
  185.9060  177.2040  142.2340 N   0  0  0  0  0  2  0  0  0  0  0  0
  189.9960  174.8470  146.2070 C   0  0  0  0  0  2  0  0  0  0  0  0
  190.8170  173.9440  145.3050 C   0  0  0  0  0  2  0  0  0  0  0  0
  190.1180  171.3630  142.7910 C   0  0  0  0  0  0  0  0  0  0  0  0
  189.5060  173.7290  143.2000 C   0  0  0  0  0  2  0  0  0  0  0  0
  189.9080  173.0380  144.4950 C   0  0  1  0  0  3  0  0  0  0  0  0
  190.5770  170.4130  142.1800 O   0  0  0  0  0  0  0  0  0  0  0  0
  190.6170  171.7400  144.1360 C   0  0  0  0  0  2  0  0  0  0  0  0
  188.9100  172.4470  142.0620 S   0  0  0  0  0  0  0  0  0  0  0  0
  192.2810  177.2010  145.4400 N   0  0  0  0  0  2  0  0  0  0  0  0
  193.5350  176.5230  145.1510 C   0  0  0  0  0  2  0  0  0  0  0  0
  194.2120  176.1200  146.4470 C   0  0  0  0  0  2  0  0  0  0  0  0
  195.5480  175.4190  144.8400 C   0  0  0  0  0  1  0  0  0  0  0  0
  195.2190  175.1960  146.1770 O   0  0  0  0  0  0  0  0  0  0  0  0
  1 12  1  0  0  0  0
  2 13  2  0  0  0  0
  3  9  2  0  0  0  0
  4  1  1  1  0  0  0
  4  5  1  0  0  0  0
  5 18  1  6  0  0  0
  6 13  1  6  0  0  0
  6  4  1  0  0  0  0
  9  8  1  0  0  0  0
 10  3  1  0  0  0  0
 10  1  2  0  0  0  0
 11 17  1  6  0  0  0
 11 10  1  0  0  0  0
 12  8  2  0  0  0  0
 13 15  1  0  0  0  0
 14  7  1  6  0  0  0
 14 11  1  0  0  0  0
 14  6  1  0  0  0  0
 15 26  1  1  0  0  0
 15  5  1  0  0  0  0
 16 17  1  0  0  0  0
 19 18  1  0  0  0  0
 20 24  1  0  0  0  0
 21 22  1  0  0  0  0
 22 19  1  6  0  0  0
 23 20  2  0  0  0  0
 24 22  1  0  0  0  0
 25 20  1  0  0  0  0
 25 21  1  0  0  0  0
 27 26  1  0  0  0  0
 27 28  1  0  0  0  0
 29 30  1  0  0  0  0
 30 28  1  0  0  0  0
M  END
>  <MODEL>
4

>  <REMARK>
 VINA RESULT:      -6.4      2.576      6.653
  Name = 
  8 active torsions:
  status: ('A' for Active; 'I' for Inactive)
    1  A    between atoms: C_5  and  C_9
    2  A    between atoms: C_5  and  C_16
    3  A    between atoms: C_10  and  N_17
    4  A    between atoms: C_10  and  C_25
    5  A    between atoms: C_12  and  C_16
    6  A    between atoms: N_17  and  C_26
    7  A    between atoms: C_20  and  N_28
    8  A    between atoms: C_25  and  O_27
                            x       y       z     vdW  Elec       q    Type
                         _______ _______ _______ _____ _____    ______ ____

>  <TORSDO>
F 8

$$$$
=
 OpenBabel11062419533D

 30 33  0  0  1  0  0  0  0  0999 V2000
  189.2500  174.5210  143.4780 C   0  0  0  0  0  0  0  0  0  0  0  0
  187.1660  177.1820  140.1290 O   0  0  0  0  0  0  0  0  0  0  0  0
  189.5980  172.1180  143.4410 C   0  0  0  0  0  3  0  0  0  0  0  0
  189.0290  175.7800  142.7040 C   0  0  2  0  0  3  0  0  0  0  0  0
  188.5420  177.0390  143.4110 C   0  0  2  0  0  3  0  0  0  0  0  0
  188.0340  175.5150  141.6070 C   0  0  1  0  0  3  0  0  0  0  0  0
  187.8990  174.3950  139.4960 O   0  0  0  0  0  1  0  0  0  0  0  0
  189.7200  173.3310  145.5350 C   0  0  0  0  0  3  0  0  0  0  0  0
  189.7860  172.1290  144.8260 C   0  0  0  0  0  3  0  0  0  0  0  0
  189.3480  173.3110  142.7500 C   0  0  0  0  0  0  0  0  0  0  0  0
  189.1050  173.2660  141.2440 C   0  0  1  0  0  3  0  0  0  0  0  0
  189.4570  174.5270  144.8620 C   0  0  0  0  0  3  0  0  0  0  0  0
  187.6790  176.8950  141.1990 C   0  0  0  0  0  0  0  0  0  0  0  0
  188.7340  174.6230  140.5900 C   0  0  2  0  0  3  0  0  0  0  0  0
  187.9590  177.8910  142.2770 C   0  0  1  0  0  3  0  0  0  0  0  0
  191.2670  173.7430  140.4970 C   0  0  0  0  0  1  0  0  0  0  0  0
  190.2600  172.7000  140.5650 N   0  0  0  0  0  2  0  0  0  0  0  0
  189.7140  177.7540  144.0630 C   0  0  0  0  0  2  0  0  0  0  0  0
  190.9260  177.7140  143.1490 C   0  0  0  0  0  2  0  0  0  0  0  0
  193.1210  175.0750  144.4500 C   0  0  0  0  0  0  0  0  0  0  0  0
  191.7760  176.9470  145.3590 C   0  0  0  0  0  2  0  0  0  0  0  0
  192.1360  177.1930  143.9020 C   0  0  1  0  0  3  0  0  0  0  0  0
  193.4840  173.9200  144.3110 O   0  0  0  0  0  0  0  0  0  0  0  0
  192.6190  175.8780  143.3080 C   0  0  0  0  0  2  0  0  0  0  0  0
  193.0380  175.8420  146.0540 S   0  0  0  0  0  0  0  0  0  0  0  0
  186.7170  178.5090  142.7170 N   0  0  0  0  0  2  0  0  0  0  0  0
  186.1300  177.6360  143.7210 C   0  0  0  0  0  2  0  0  0  0  0  0
  184.8240  178.2280  144.2160 C   0  0  0  0  0  2  0  0  0  0  0  0
  185.6080  176.8840  145.7780 C   0  0  0  0  0  1  0  0  0  0  0  0
  184.5800  177.7900  145.5160 O   0  0  0  0  0  0  0  0  0  0  0  0
  1 12  1  0  0  0  0
  2 13  2  0  0  0  0
  3  9  2  0  0  0  0
  4  5  1  0  0  0  0
  4  1  1  1  0  0  0
  5 18  1  6  0  0  0
  6 13  1  6  0  0  0
  6  4  1  0  0  0  0
  9  8  1  0  0  0  0
 10  3  1  0  0  0  0
 10  1  2  0  0  0  0
 11 17  1  6  0  0  0
 11 10  1  0  0  0  0
 12  8  2  0  0  0  0
 13 15  1  0  0  0  0
 14  7  1  6  0  0  0
 14 11  1  0  0  0  0
 14  6  1  0  0  0  0
 15 26  1  1  0  0  0
 15  5  1  0  0  0  0
 16 17  1  0  0  0  0
 19 18  1  0  0  0  0
 20 25  1  0  0  0  0
 21 25  1  0  0  0  0
 22 19  1  6  0  0  0
 22 21  1  0  0  0  0
 23 20  2  0  0  0  0
 24 22  1  0  0  0  0
 24 20  1  0  0  0  0
 26 27  1  0  0  0  0
 27 28  1  0  0  0  0
 28 30  1  0  0  0  0
 30 29  1  0  0  0  0
M  END
>  <MODEL>
5

>  <REMARK>
 VINA RESULT:      -6.2      2.634      5.087
  Name = 
  8 active torsions:
  status: ('A' for Active; 'I' for Inactive)
    1  A    between atoms: C_5  and  C_9
    2  A    between atoms: C_5  and  C_16
    3  A    between atoms: C_10  and  N_17
    4  A    between atoms: C_10  and  C_25
    5  A    between atoms: C_12  and  C_16
    6  A    between atoms: N_17  and  C_26
    7  A    between atoms: C_20  and  N_28
    8  A    between atoms: C_25  and  O_27
                            x       y       z     vdW  Elec       q    Type
                         _______ _______ _______ _____ _____    ______ ____

>  <TORSDO>
F 8

$$$$
=
 OpenBabel11062419533D

 30 33  0  0  1  0  0  0  0  0999 V2000
  190.6330  176.3800  144.0550 C   0  0  0  0  0  0  0  0  0  0  0  0
  186.2390  178.1070  144.6430 O   0  0  0  0  0  0  0  0  0  0  0  0
  192.4470  176.3940  145.6680 C   0  0  0  0  0  3  0  0  0  0  0  0
  189.1590  176.4250  143.8050 C   0  0  2  0  0  3  0  0  0  0  0  0
  188.6280  176.7060  142.4050 C   0  0  2  0  0  3  0  0  0  0  0  0
  188.5420  177.4690  144.6950 C   0  0  1  0  0  3  0  0  0  0  0  0
  187.9900  177.8100  146.9990 O   0  0  0  0  0  1  0  0  0  0  0  0
  192.9170  176.0540  143.3160 C   0  0  0  0  0  3  0  0  0  0  0  0
  193.3620  176.1810  144.6340 C   0  0  0  0  0  3  0  0  0  0  0  0
  191.0750  176.4780  145.3950 C   0  0  0  0  0  0  0  0  0  0  0  0
  190.1000  176.7530  146.5370 C   0  0  1  0  0  3  0  0  0  0  0  0
  191.5530  176.1470  143.0260 C   0  0  0  0  0  3  0  0  0  0  0  0
  187.2040  177.6220  144.0750 C   0  0  0  0  0  0  0  0  0  0  0  0
  188.6180  176.9300  146.1170 C   0  0  2  0  0  3  0  0  0  0  0  0
  187.1890  177.1770  142.6500 C   0  0  1  0  0  3  0  0  0  0  0  0
  189.2910  174.6470  147.1470 C   0  0  0  0  0  1  0  0  0  0  0  0
  190.1980  175.7090  147.5440 N   0  0  0  0  0  2  0  0  0  0  0  0
  188.6350  175.4280  141.5830 C   0  0  0  0  0  2  0  0  0  0  0  0
  188.0620  174.2790  142.3930 C   0  0  0  0  0  2  0  0  0  0  0  0
  191.0540  172.4180  143.4220 C   0  0  0  0  0  0  0  0  0  0  0  0
  190.0910  173.3140  141.3220 C   0  0  0  0  0  2  0  0  0  0  0  0
  189.0080  173.0920  142.3670 C   0  0  1  0  0  3  0  0  0  0  0  0
  191.8860  172.2710  144.3010 O   0  0  0  0  0  0  0  0  0  0  0  0
  189.6860  172.9090  143.7170 C   0  0  0  0  0  2  0  0  0  0  0  0
  191.4570  172.1810  141.7050 S   0  0  0  0  0  0  0  0  0  0  0  0
  186.8870  178.3030  141.7800 N   0  0  0  0  0  2  0  0  0  0  0  0
  185.9170  177.8450  140.7990 C   0  0  0  0  0  2  0  0  0  0  0  0
  184.5180  177.9310  141.3800 C   0  0  0  0  0  2  0  0  0  0  0  0
  182.4920  177.9500  140.5110 C   0  0  0  0  0  1  0  0  0  0  0  0
  183.6980  178.6500  140.5120 O   0  0  0  0  0  0  0  0  0  0  0  0
  1 10  1  0  0  0  0
  4  1  1  6  0  0  0
  4  6  1  0  0  0  0
  5 18  1  6  0  0  0
  5 15  1  0  0  0  0
  5  4  1  0  0  0  0
  6 13  1  6  0  0  0
  6 14  1  0  0  0  0
  8  9  2  0  0  0  0
  9  3  1  0  0  0  0
 10  3  2  0  0  0  0
 10 11  1  0  0  0  0
 11 17  1  1  0  0  0
 12  8  1  0  0  0  0
 12  1  2  0  0  0  0
 13  2  2  0  0  0  0
 14 11  1  0  0  0  0
 14  7  1  1  0  0  0
 15 26  1  6  0  0  0
 15 13  1  0  0  0  0
 16 17  1  0  0  0  0
 18 19  1  0  0  0  0
 20 24  1  0  0  0  0
 20 23  2  0  0  0  0
 21 25  1  0  0  0  0
 21 22  1  0  0  0  0
 22 19  1  1  0  0  0
 22 24  1  0  0  0  0
 25 20  1  0  0  0  0
 27 28  1  0  0  0  0
 27 26  1  0  0  0  0
 29 30  1  0  0  0  0
 30 28  1  0  0  0  0
M  END
>  <MODEL>
6

>  <REMARK>
 VINA RESULT:      -6.2      1.377      1.601
  Name = 
  8 active torsions:
  status: ('A' for Active; 'I' for Inactive)
    1  A    between atoms: C_5  and  C_9
    2  A    between atoms: C_5  and  C_16
    3  A    between atoms: C_10  and  N_17
    4  A    between atoms: C_10  and  C_25
    5  A    between atoms: C_12  and  C_16
    6  A    between atoms: N_17  and  C_26
    7  A    between atoms: C_20  and  N_28
    8  A    between atoms: C_25  and  O_27
                            x       y       z     vdW  Elec       q    Type
                         _______ _______ _______ _____ _____    ______ ____

>  <TORSDO>
F 8

$$$$
=
 OpenBabel11062419533D

 30 33  0  0  1  0  0  0  0  0999 V2000
  190.4610  175.0740  144.9990 C   0  0  0  0  0  0  0  0  0  0  0  0
  192.0530  174.1040  140.6220 O   0  0  0  0  0  0  0  0  0  0  0  0
  191.7900  175.5510  146.9750 C   0  0  0  0  0  3  0  0  0  0  0  0
  190.3720  175.0570  143.5070 C   0  0  2  0  0  3  0  0  0  0  0  0
  189.2530  174.2880  142.8150 C   0  0  2  0  0  3  0  0  0  0  0  0
  191.6550  174.5120  142.9430 C   0  0  1  0  0  3  0  0  0  0  0  0
  193.9360  175.1660  142.6290 O   0  0  0  0  0  1  0  0  0  0  0  0
  189.4720  174.8840  147.2020 C   0  0  0  0  0  3  0  0  0  0  0  0
  190.6870  175.2560  147.7810 C   0  0  0  0  0  3  0  0  0  0  0  0
  191.6860  175.4820  145.5790 C   0  0  0  0  0  0  0  0  0  0  0  0
  192.9160  175.7680  144.7220 C   0  0  1  0  0  3  0  0  0  0  0  0
  189.3550  174.7980  145.8120 C   0  0  0  0  0  3  0  0  0  0  0  0
  191.2610  174.2380  141.5410 C   0  0  0  0  0  0  0  0  0  0  0  0
  192.7250  175.5650  143.1960 C   0  0  2  0  0  3  0  0  0  0  0  0
  189.7840  174.0770  141.3910 C   0  0  1  0  0  3  0  0  0  0  0  0
  194.7690  176.9940  145.4480 C   0  0  0  0  0  1  0  0  0  0  0  0
  193.4020  177.1160  144.9750 N   0  0  0  0  0  2  0  0  0  0  0  0
  187.9860  175.1260  142.7900 C   0  0  0  0  0  2  0  0  0  0  0  0
  188.2940  176.5290  142.2980 C   0  0  0  0  0  2  0  0  0  0  0  0
  186.6580  178.0130  145.2280 C   0  0  0  0  0  0  0  0  0  0  0  0
  185.9780  177.0240  143.0610 C   0  0  0  0  0  2  0  0  0  0  0  0
  187.4080  177.5410  142.9990 C   0  0  1  0  0  3  0  0  0  0  0  0
  186.7010  178.1360  146.4410 O   0  0  0  0  0  0  0  0  0  0  0  0
  187.8830  177.7820  144.4250 C   0  0  0  0  0  2  0  0  0  0  0  0
  185.1130  177.9690  144.3480 S   0  0  0  0  0  0  0  0  0  0  0  0
  189.4720  172.7270  140.9470 N   0  0  0  0  0  2  0  0  0  0  0  0
  188.3290  172.8180  140.0530 C   0  0  0  0  0  2  0  0  0  0  0  0
  188.5630  173.9120  139.0300 C   0  0  0  0  0  2  0  0  0  0  0  0
  188.9950  174.2370  136.8920 C   0  0  0  0  0  1  0  0  0  0  0  0
  188.2560  173.4310  137.7580 O   0  0  0  0  0  0  0  0  0  0  0  0
  1 10  2  0  0  0  0
  1 12  1  0  0  0  0
  2 13  2  0  0  0  0
  3  9  2  0  0  0  0
  4  1  1  1  0  0  0
  5 18  1  6  0  0  0
  5  4  1  0  0  0  0
  6 13  1  6  0  0  0
  6 14  1  0  0  0  0
  6  4  1  0  0  0  0
  8  9  1  0  0  0  0
 10  3  1  0  0  0  0
 11 17  1  6  0  0  0
 11 10  1  0  0  0  0
 12  8  2  0  0  0  0
 14  7  1  1  0  0  0
 14 11  1  0  0  0  0
 15 26  1  1  0  0  0
 15 13  1  0  0  0  0
 15  5  1  0  0  0  0
 17 16  1  0  0  0  0
 19 18  1  0  0  0  0
 20 23  2  0  0  0  0
 21 25  1  0  0  0  0
 22 19  1  1  0  0  0
 22 21  1  0  0  0  0
 22 24  1  0  0  0  0
 24 20  1  0  0  0  0
 25 20  1  0  0  0  0
 27 26  1  0  0  0  0
 28 27  1  0  0  0  0
 29 30  1  0  0  0  0
 30 28  1  0  0  0  0
M  END
>  <MODEL>
7

>  <REMARK>
 VINA RESULT:      -6.2      3.144      5.912
  Name = 
  8 active torsions:
  status: ('A' for Active; 'I' for Inactive)
    1  A    between atoms: C_5  and  C_9
    2  A    between atoms: C_5  and  C_16
    3  A    between atoms: C_10  and  N_17
    4  A    between atoms: C_10  and  C_25
    5  A    between atoms: C_12  and  C_16
    6  A    between atoms: N_17  and  C_26
    7  A    between atoms: C_20  and  N_28
    8  A    between atoms: C_25  and  O_27
                            x       y       z     vdW  Elec       q    Type
                         _______ _______ _______ _____ _____    ______ ____

>  <TORSDO>
F 8

$$$$
=
 OpenBabel11062419533D

 30 33  0  0  1  0  0  0  0  0999 V2000
  189.3730  174.2390  143.7910 C   0  0  0  0  0  0  0  0  0  0  0  0
  187.0250  178.3550  143.3680 O   0  0  0  0  0  0  0  0  0  0  0  0
  189.2250  172.3040  142.3310 C   0  0  0  0  0  3  0  0  0  0  0  0
  189.2020  175.7150  143.9600 C   0  0  2  0  0  3  0  0  0  0  0  0
  189.1770  176.3280  145.3540 C   0  0  2  0  0  3  0  0  0  0  0  0
  187.9170  176.1390  143.3020 C   0  0  1  0  0  3  0  0  0  0  0  0
  187.0040  176.4540  141.1120 O   0  0  0  0  0  1  0  0  0  0  0  0
  190.1380  172.0740  144.5640 C   0  0  0  0  0  3  0  0  0  0  0  0
  189.7770  171.5080  143.3380 C   0  0  0  0  0  3  0  0  0  0  0  0
  189.0350  173.6770  142.5370 C   0  0  0  0  0  0  0  0  0  0  0  0
  188.3920  174.5170  141.4360 C   0  0  1  0  0  3  0  0  0  0  0  0
  189.9420  173.4390  144.7890 C   0  0  0  0  0  3  0  0  0  0  0  0
  187.7410  177.4990  143.8630 C   0  0  0  0  0  0  0  0  0  0  0  0
  188.1300  176.0020  141.8010 C   0  0  2  0  0  3  0  0  0  0  0  0
  188.4880  177.6820  145.1430 C   0  0  1  0  0  3  0  0  0  0  0  0
  188.3460  173.8730  139.1900 C   0  0  0  0  0  1  0  0  0  0  0  0
  189.1890  174.4490  140.2220 N   0  0  0  0  0  2  0  0  0  0  0  0
  190.5970  176.5290  145.8570 C   0  0  0  0  0  2  0  0  0  0  0  0
  191.4830  177.0450  144.7370 C   0  0  0  0  0  2  0  0  0  0  0  0
  194.9770  176.2260  143.9720 C   0  0  0  0  0  0  0  0  0  0  0  0
  192.7380  175.7520  143.0210 C   0  0  0  0  0  2  0  0  0  0  0  0
  192.6410  176.0940  144.5000 C   0  0  1  0  0  3  0  0  0  0  0  0
  196.1260  176.6360  143.9860 O   0  0  0  0  0  0  0  0  0  0  0  0
  193.9580  176.7280  144.9250 C   0  0  0  0  0  2  0  0  0  0  0  0
  194.4040  175.0950  142.7220 S   0  0  0  0  0  0  0  0  0  0  0  0
  187.5550  177.9320  146.2310 N   0  0  0  0  0  2  0  0  0  0  0  0
  186.8060  176.7060  146.4510 C   0  0  0  0  0  2  0  0  0  0  0  0
  185.3580  177.0360  146.7600 C   0  0  0  0  0  2  0  0  0  0  0  0
  184.0890  178.6360  145.9300 C   0  0  0  0  0  1  0  0  0  0  0  0
  184.7140  177.4370  145.5910 O   0  0  0  0  0  0  0  0  0  0  0  0
  1 12  1  0  0  0  0
  2 13  2  0  0  0  0
  3 10  1  0  0  0  0
  3  9  2  0  0  0  0
  4  1  1  1  0  0  0
  4  5  1  0  0  0  0
  5 18  1  6  0  0  0
  6 13  1  6  0  0  0
  6  4  1  0  0  0  0
  8 12  2  0  0  0  0
  9  8  1  0  0  0  0
 10  1  2  0  0  0  0
 11 17  1  6  0  0  0
 11 14  1  0  0  0  0
 11 10  1  0  0  0  0
 13 15  1  0  0  0  0
 14  7  1  6  0  0  0
 14  6  1  0  0  0  0
 15  5  1  0  0  0  0
 15 26  1  1  0  0  0
 16 17  1  0  0  0  0
 19 18  1  0  0  0  0
 20 23  2  0  0  0  0
 20 24  1  0  0  0  0
 21 22  1  0  0  0  0
 22 19  1  6  0  0  0
 22 24  1  0  0  0  0
 25 21  1  0  0  0  0
 25 20  1  0  0  0  0
 26 27  1  0  0  0  0
 27 28  1  0  0  0  0
 30 29  1  0  0  0  0
 30 28  1  0  0  0  0
M  END
>  <MODEL>
8

>  <REMARK>
 VINA RESULT:      -6.0      2.758      5.226
  Name = 
  8 active torsions:
  status: ('A' for Active; 'I' for Inactive)
    1  A    between atoms: C_5  and  C_9
    2  A    between atoms: C_5  and  C_16
    3  A    between atoms: C_10  and  N_17
    4  A    between atoms: C_10  and  C_25
    5  A    between atoms: C_12  and  C_16
    6  A    between atoms: N_17  and  C_26
    7  A    between atoms: C_20  and  N_28
    8  A    between atoms: C_25  and  O_27
                            x       y       z     vdW  Elec       q    Type
                         _______ _______ _______ _____ _____    ______ ____

>  <TORSDO>
F 8

$$$$
=
 OpenBabel11062419533D

 30 33  0  0  1  0  0  0  0  0999 V2000
  188.2680  175.8380  144.7740 C   0  0  0  0  0  0  0  0  0  0  0  0
  190.7300  173.1830  141.6880 O   0  0  0  0  0  0  0  0  0  0  0  0
  188.3530  175.7340  147.1980 C   0  0  0  0  0  3  0  0  0  0  0  0
  188.9510  175.5740  143.4700 C   0  0  2  0  0  3  0  0  0  0  0  0
  188.1550  175.5950  142.1710 C   0  0  2  0  0  3  0  0  0  0  0  0
  189.6110  174.2230  143.5250 C   0  0  1  0  0  3  0  0  0  0  0  0
  191.4970  173.1520  144.5360 O   0  0  0  0  0  1  0  0  0  0  0  0
  186.4800  176.8020  146.0930 C   0  0  0  0  0  3  0  0  0  0  0  0
  187.1280  176.4040  147.2650 C   0  0  0  0  0  3  0  0  0  0  0  0
  188.9450  175.4610  145.9580 C   0  0  0  0  0  0  0  0  0  0  0  0
  190.2630  174.6910  145.9110 C   0  0  1  0  0  3  0  0  0  0  0  0
  187.0510  176.5250  144.8480 C   0  0  0  0  0  3  0  0  0  0  0  0
  189.9060  173.9880  142.0920 C   0  0  0  0  0  0  0  0  0  0  0  0
  190.7820  174.3490  144.4900 C   0  0  2  0  0  3  0  0  0  0  0  0
  189.0320  174.8000  141.1950 C   0  0  1  0  0  3  0  0  0  0  0  0
  192.0530  176.1740  145.6710 C   0  0  0  0  0  1  0  0  0  0  0  0
  191.2920  175.4120  146.6430 N   0  0  0  0  0  2  0  0  0  0  0  0
  187.9890  177.0270  141.6880 C   0  0  0  0  0  2  0  0  0  0  0  0
  186.7110  177.1640  140.8810 C   0  0  0  0  0  2  0  0  0  0  0  0
  185.5670  179.3470  143.5990 C   0  0  0  0  0  0  0  0  0  0  0  0
  184.6300  177.5340  142.1940 C   0  0  0  0  0  2  0  0  0  0  0  0
  185.8040  178.2100  141.5010 C   0  0  1  0  0  3  0  0  0  0  0  0
  185.8920  179.9140  144.6290 O   0  0  0  0  0  0  0  0  0  0  0  0
  186.5550  179.0310  142.5390 C   0  0  0  0  0  2  0  0  0  0  0  0
  183.9140  178.7380  143.3490 S   0  0  0  0  0  0  0  0  0  0  0  0
  188.1960  173.9240  140.3890 N   0  0  0  0  0  2  0  0  0  0  0  0
  188.4360  174.2590  138.9940 C   0  0  0  0  0  2  0  0  0  0  0  0
  188.7310  172.9960  138.2060 C   0  0  0  0  0  2  0  0  0  0  0  0
  189.9810  171.2410  138.6720 C   0  0  0  0  0  1  0  0  0  0  0  0
  188.8310  171.9160  139.0810 O   0  0  0  0  0  0  0  0  0  0  0  0
  1 12  2  0  0  0  0
  1 10  1  0  0  0  0
  2 13  2  0  0  0  0
  3  9  1  0  0  0  0
  4  6  1  0  0  0  0
  4  1  1  1  0  0  0
  5 18  1  6  0  0  0
  5  4  1  0  0  0  0
  6 13  1  6  0  0  0
  6 14  1  0  0  0  0
  8  9  2  0  0  0  0
 10  3  2  0  0  0  0
 11 10  1  0  0  0  0
 11 17  1  6  0  0  0
 12  8  1  0  0  0  0
 14  7  1  1  0  0  0
 14 11  1  0  0  0  0
 15 26  1  6  0  0  0
 15 13  1  0  0  0  0
 15  5  1  0  0  0  0
 16 17  1  0  0  0  0
 19 18  1  0  0  0  0
 20 23  2  0  0  0  0
 21 25  1  0  0  0  0
 22 19  1  1  0  0  0
 22 21  1  0  0  0  0
 22 24  1  0  0  0  0
 24 20  1  0  0  0  0
 25 20  1  0  0  0  0
 27 26  1  0  0  0  0
 28 27  1  0  0  0  0
 28 30  1  0  0  0  0
 29 30  1  0  0  0  0
M  END
>  <MODEL>
9

>  <REMARK>
 VINA RESULT:      -6.0      2.836      5.839
  Name = 
  8 active torsions:
  status: ('A' for Active; 'I' for Inactive)
    1  A    between atoms: C_5  and  C_9
    2  A    between atoms: C_5  and  C_16
    3  A    between atoms: C_10  and  N_17
    4  A    between atoms: C_10  and  C_25
    5  A    between atoms: C_12  and  C_16
    6  A    between atoms: N_17  and  C_26
    7  A    between atoms: C_20  and  N_28
    8  A    between atoms: C_25  and  O_27
                            x       y       z     vdW  Elec       q    Type
                         _______ _______ _______ _____ _____    ______ ____

>  <TORSDO>
F 8

$$$$
