=
 OpenBabel11062420093D

 35 37  0  0  1  0  0  0  0  0999 V2000
  189.2700  175.4580  144.3510 C   0  0  1  0  0  3  0  0  0  0  0  0
  190.0130  175.0840  141.9340 C   0  0  0  0  0  3  0  0  0  0  0  0
  188.4950  173.3360  141.7700 C   0  0  0  0  0  0  0  0  0  0  0  0
  189.8650  174.4550  143.3350 C   0  0  2  0  0  3  0  0  0  0  0  0
  187.6340  172.5720  141.2580 O   0  0  0  0  0  0  0  0  0  0  0  0
  189.0820  174.3980  141.0570 N   0  0  0  0  0  0  0  0  0  0  0  0
  188.9640  173.2240  143.1650 C   0  0  2  0  0  3  0  0  0  0  0  0
  189.7940  171.9650  143.3340 C   0  0  0  0  0  1  0  0  0  0  0  0
  189.8550  175.6230  146.8230 C   0  0  0  0  0  2  0  0  0  0  0  0
  190.2910  175.9710  145.4060 C   0  0  2  0  0  0  0  0  0  0  0  0
  192.2500  175.1670  146.6330 C   0  0  1  0  0  3  0  0  0  0  0  0
  191.1040  175.2870  147.6180 C   0  0  0  0  0  2  0  0  0  0  0  0
  190.4800  177.4810  145.3060 C   0  0  0  0  0  1  0  0  0  0  0  0
  191.6330  175.2780  145.2490 C   0  0  0  0  0  2  0  0  0  0  0  0
  193.1840  176.2660  146.8510 N   0  0  0  0  0  2  0  0  0  0  0  0
  194.3380  176.5190  146.0370 C   0  0  0  0  0  0  0  0  0  0  0  0
  194.7410  177.7670  145.8020 C   0  0  0  0  0  2  0  0  0  0  0  0
  195.7850  174.6120  146.3230 O   0  0  0  0  0  1  0  0  0  0  0  0
  195.0690  175.4110  145.4940 N   0  0  0  0  0  0  0  0  0  0  0  0
  195.0630  175.1450  144.1140 N   0  0  0  0  0  2  0  0  0  0  0  0
  195.3750  173.7330  143.9320 C   0  0  0  0  0  2  0  0  0  0  0  0
  193.4400  174.0240  142.5840 O   0  0  0  0  0  1  0  0  0  0  0  0
  194.3250  173.0560  143.0600 C   0  0  2  0  0  3  0  0  0  0  0  0
  193.3540  172.1910  145.0310 O   0  0  0  0  0  0  0  0  0  0  0  0
  193.5640  172.0320  143.8400 C   0  0  0  0  0  3  0  0  0  0  0  0
  188.5990  176.6280  143.6250 C   0  0  0  0  0  2  0  0  0  0  0  0
  187.0990  176.3980  143.5870 C   0  0  0  0  0  2  0  0  0  0  0  0
  185.3670  178.5500  145.7670 C   0  0  1  0  0  3  0  0  0  0  0  0
  184.9310  177.5030  143.3130 N   0  0  0  0  0  2  0  0  0  0  0  0
  186.6100  178.4820  144.8680 C   0  0  0  0  0  2  0  0  0  0  0  0
  186.3610  177.7250  143.5520 C   0  0  1  0  0  3  0  0  0  0  0  0
  184.2640  178.7210  143.5280 N   0  0  0  0  0  2  0  0  0  0  0  0
  184.0980  178.9070  144.9740 C   0  0  0  0  0  2  0  0  0  0  0  0
  185.1560  177.2360  146.5080 C   0  0  0  0  0  2  0  0  0  0  0  0
  186.4140  176.8460  147.2640 C   0  0  0  0  0  1  0  0  0  0  0  0
  1 26  1  6  0  0  0
  1 10  1  0  0  0  0
  2  4  1  0  0  0  0
  3  7  1  0  0  0  0
  4  1  1  1  0  0  0
  5  3  2  0  0  0  0
  6  3  1  0  0  0  0
  6  2  2  0  0  0  0
  7  8  1  6  0  0  0
  7  4  1  0  0  0  0
  9 12  1  0  0  0  0
 10 13  1  6  0  0  0
 10  9  1  0  0  0  0
 11 15  1  1  0  0  0
 11 12  1  0  0  0  0
 14 10  1  0  0  0  0
 14 11  1  0  0  0  0
 16 15  1  0  0  0  0
 17 16  2  0  0  0  0
 19 16  1  0  0  0  0
 19 18  1  0  0  0  0
 20 19  1  0  0  0  0
 21 20  1  0  0  0  0
 23 22  1  1  0  0  0
 23 25  1  0  0  0  0
 23 21  1  0  0  0  0
 25 24  2  0  0  0  0
 27 26  1  0  0  0  0
 28 34  1  6  0  0  0
 29 32  1  0  0  0  0
 29 31  1  0  0  0  0
 30 28  1  0  0  0  0
 31 27  1  1  0  0  0
 31 30  1  0  0  0  0
 32 33  1  0  0  0  0
 33 28  1  0  0  0  0
 34 35  1  0  0  0  0
M  END
>  <MODEL>
1

>  <REMARK>
 VINA RESULT:      -6.4      0.000      0.000
  Name = 
  13 active torsions:
  status: ('A' for Active; 'I' for Inactive)
    1  A    between atoms: C_4  and  N_24
    2  A    between atoms: C_4  and  C_32
    3  A    between atoms: C_5  and  N_8
    4  A    between atoms: C_5  and  N_10
    5  A    between atoms: C_6  and  C_12
    6  A    between atoms: N_8  and  C_21
    7  A    between atoms: C_9  and  C_17
    8  A    between atoms: C_9  and  C_26
    9  A    between atoms: N_10  and  N_24
   10  A    between atoms: C_13  and  C_28
   11  A    between atoms: C_17  and  C_28
   12  A    between atoms: C_20  and  C_28
   13  A    between atoms: C_30  and  C_32
                            x       y       z     vdW  Elec       q    Type
                         _______ _______ _______ _____ _____    ______ ____

>  <TORSDO>
F 13

$$$$
=
 OpenBabel11062420093D

 35 37  0  0  1  0  0  0  0  0999 V2000
  190.3290  174.4140  144.0080 C   0  0  1  0  0  3  0  0  0  0  0  0
  189.1100  172.4510  142.9150 C   0  0  0  0  0  3  0  0  0  0  0  0
  189.6990  173.2860  140.8310 C   0  0  0  0  0  0  0  0  0  0  0  0
  189.2080  173.9870  143.0320 C   0  0  2  0  0  3  0  0  0  0  0  0
  190.0610  173.2830  139.6240 O   0  0  0  0  0  0  0  0  0  0  0  0
  189.5060  172.1000  141.5640 N   0  0  0  0  0  0  0  0  0  0  0  0
  189.4640  174.5140  141.6140 C   0  0  2  0  0  3  0  0  0  0  0  0
  188.2210  175.2220  141.1070 C   0  0  0  0  0  1  0  0  0  0  0  0
  190.7840  176.5060  145.3850 C   0  0  0  0  0  2  0  0  0  0  0  0
  189.8430  175.3290  145.1680 C   0  0  2  0  0  0  0  0  0  0  0  0
  188.4890  177.3400  145.5000 C   0  0  1  0  0  3  0  0  0  0  0  0
  189.9370  177.7100  145.7550 C   0  0  0  0  0  2  0  0  0  0  0  0
  189.7190  174.5500  146.4730 C   0  0  0  0  0  1  0  0  0  0  0  0
  188.5100  175.9750  144.8330 C   0  0  0  0  0  2  0  0  0  0  0  0
  187.7850  177.2590  146.7750 N   0  0  0  0  0  2  0  0  0  0  0  0
  186.6860  178.1040  147.1460 C   0  0  0  0  0  0  0  0  0  0  0  0
  186.7820  178.9180  148.1970 C   0  0  0  0  0  2  0  0  0  0  0  0
  184.6460  177.0190  146.4570 O   0  0  0  0  0  1  0  0  0  0  0  0
  185.4860  178.0790  146.3610 N   0  0  0  0  0  0  0  0  0  0  0  0
  185.1710  179.1330  145.4860 N   0  0  0  0  0  2  0  0  0  0  0  0
  184.0970  178.6780  144.6110 C   0  0  0  0  0  2  0  0  0  0  0  0
  183.4970  178.2390  142.3540 O   0  0  0  0  0  1  0  0  0  0  0  0
  184.5490  178.6830  143.1560 C   0  0  2  0  0  3  0  0  0  0  0  0
  185.6240  176.5810  143.1140 O   0  0  0  0  0  0  0  0  0  0  0  0
  185.7300  177.7860  142.9610 C   0  0  0  0  0  3  0  0  0  0  0  0
  191.0690  173.1880  144.5510 C   0  0  0  0  0  2  0  0  0  0  0  0
  192.4590  173.1360  143.9450 C   0  0  0  0  0  2  0  0  0  0  0  0
  194.5880  175.1580  145.8860 C   0  0  1  0  0  3  0  0  0  0  0  0
  194.8440  172.8860  144.4430 N   0  0  0  0  0  2  0  0  0  0  0  0
  193.4040  174.1870  146.0010 C   0  0  0  0  0  2  0  0  0  0  0  0
  193.5070  172.9940  145.0370 C   0  0  1  0  0  3  0  0  0  0  0  0
  195.7860  173.0000  145.4810 N   0  0  0  0  0  2  0  0  0  0  0  0
  195.9360  174.4210  145.8140 C   0  0  0  0  0  2  0  0  0  0  0  0
  194.4340  176.0660  144.6720 C   0  0  0  0  0  2  0  0  0  0  0  0
  195.7820  176.3160  144.0220 C   0  0  0  0  0  1  0  0  0  0  0  0
  1 26  1  1  0  0  0
  1 10  1  0  0  0  0
  2  4  1  0  0  0  0
  3  6  1  0  0  0  0
  3  7  1  0  0  0  0
  4  1  1  1  0  0  0
  5  3  2  0  0  0  0
  6  2  2  0  0  0  0
  7  8  1  6  0  0  0
  7  4  1  0  0  0  0
  9 12  1  0  0  0  0
 10  9  1  0  0  0  0
 10 13  1  1  0  0  0
 11 12  1  0  0  0  0
 11 15  1  1  0  0  0
 14 10  1  0  0  0  0
 14 11  1  0  0  0  0
 15 16  1  0  0  0  0
 16 17  2  0  0  0  0
 19 18  1  0  0  0  0
 19 16  1  0  0  0  0
 20 19  1  0  0  0  0
 21 20  1  0  0  0  0
 23 22  1  6  0  0  0
 23 21  1  0  0  0  0
 25 24  2  0  0  0  0
 25 23  1  0  0  0  0
 27 26  1  0  0  0  0
 28 34  1  6  0  0  0
 28 30  1  0  0  0  0
 29 31  1  0  0  0  0
 29 32  1  0  0  0  0
 31 27  1  6  0  0  0
 31 30  1  0  0  0  0
 32 33  1  0  0  0  0
 33 28  1  0  0  0  0
 35 34  1  0  0  0  0
M  END
>  <MODEL>
2

>  <REMARK>
 VINA RESULT:      -6.3      2.691      7.795
  Name = 
  13 active torsions:
  status: ('A' for Active; 'I' for Inactive)
    1  A    between atoms: C_4  and  N_24
    2  A    between atoms: C_4  and  C_32
    3  A    between atoms: C_5  and  N_8
    4  A    between atoms: C_5  and  N_10
    5  A    between atoms: C_6  and  C_12
    6  A    between atoms: N_8  and  C_21
    7  A    between atoms: C_9  and  C_17
    8  A    between atoms: C_9  and  C_26
    9  A    between atoms: N_10  and  N_24
   10  A    between atoms: C_13  and  C_28
   11  A    between atoms: C_17  and  C_28
   12  A    between atoms: C_20  and  C_28
   13  A    between atoms: C_30  and  C_32
                            x       y       z     vdW  Elec       q    Type
                         _______ _______ _______ _____ _____    ______ ____

>  <TORSDO>
F 13

$$$$
=
 OpenBabel11062420093D

 35 37  0  0  1  0  0  0  0  0999 V2000
  189.1820  176.0460  144.2340 C   0  0  1  0  0  3  0  0  0  0  0  0
  189.5870  177.7400  142.3620 C   0  0  0  0  0  3  0  0  0  0  0  0
  187.7480  176.8840  141.2330 C   0  0  0  0  0  0  0  0  0  0  0  0
  189.4630  176.2450  142.7260 C   0  0  2  0  0  3  0  0  0  0  0  0
  186.7070  176.8720  140.5240 O   0  0  0  0  0  0  0  0  0  0  0  0
  188.4560  178.0680  141.5150 N   0  0  0  0  0  0  0  0  0  0  0  0
  188.3270  175.6810  141.8620 C   0  0  2  0  0  3  0  0  0  0  0  0
  188.9080  174.7680  140.7980 C   0  0  0  0  0  1  0  0  0  0  0  0
  190.0770  173.8050  145.0430 C   0  0  0  0  0  2  0  0  0  0  0  0
  190.3190  175.3070  144.9970 C   0  0  2  0  0  0  0  0  0  0  0  0
  192.4370  174.1770  144.5250 C   0  0  1  0  0  3  0  0  0  0  0  0
  191.4250  173.1180  144.9160 C   0  0  0  0  0  2  0  0  0  0  0  0
  190.4570  175.8280  146.4230 C   0  0  0  0  0  1  0  0  0  0  0  0
  191.6450  175.4490  144.2710 C   0  0  0  0  0  2  0  0  0  0  0  0
  193.3650  174.3820  145.6310 N   0  0  0  0  0  2  0  0  0  0  0  0
  194.2880  175.4770  145.7200 C   0  0  0  0  0  0  0  0  0  0  0  0
  194.1740  176.3830  146.6910 C   0  0  0  0  0  2  0  0  0  0  0  0
  196.3900  174.7070  144.8240 O   0  0  0  0  0  1  0  0  0  0  0  0
  195.3520  175.5770  144.7630 N   0  0  0  0  0  0  0  0  0  0  0  0
  195.3390  176.5670  143.7660 N   0  0  0  0  0  2  0  0  0  0  0  0
  196.5350  176.3940  142.9520 C   0  0  0  0  0  2  0  0  0  0  0  0
  194.8720  176.6630  141.2750 O   0  0  0  0  0  1  0  0  0  0  0  0
  196.2490  176.7320  141.4930 C   0  0  2  0  0  3  0  0  0  0  0  0
  196.4110  175.4140  139.5400 O   0  0  0  0  0  0  0  0  0  0  0  0
  196.9430  175.7740  140.5780 C   0  0  0  0  0  3  0  0  0  0  0  0
  188.8530  177.3840  144.9030 C   0  0  0  0  0  2  0  0  0  0  0  0
  187.3980  177.3820  145.3330 C   0  0  0  0  0  2  0  0  0  0  0  0
  184.4060  179.2360  145.3020 C   0  0  1  0  0  3  0  0  0  0  0  0
  185.5490  177.3570  143.7280 N   0  0  0  0  0  2  0  0  0  0  0  0
  185.9240  179.3840  145.1220 C   0  0  0  0  0  2  0  0  0  0  0  0
  186.5600  178.2040  144.3680 C   0  0  1  0  0  3  0  0  0  0  0  0
  184.6560  178.1970  143.0400 N   0  0  0  0  0  2  0  0  0  0  0  0
  183.7140  178.7650  144.0110 C   0  0  0  0  0  2  0  0  0  0  0  0
  184.0820  178.2740  146.4380 C   0  0  0  0  0  2  0  0  0  0  0  0
  184.9830  178.5390  147.6310 C   0  0  0  0  0  1  0  0  0  0  0  0
  1 26  1  1  0  0  0
  1 10  1  0  0  0  0
  2  4  1  0  0  0  0
  3  6  1  0  0  0  0
  3  7  1  0  0  0  0
  4  1  1  1  0  0  0
  5  3  2  0  0  0  0
  6  2  2  0  0  0  0
  7  8  1  6  0  0  0
  7  4  1  0  0  0  0
 10  9  1  0  0  0  0
 10 13  1  1  0  0  0
 11 12  1  0  0  0  0
 11 15  1  1  0  0  0
 12  9  1  0  0  0  0
 14 11  1  0  0  0  0
 14 10  1  0  0  0  0
 15 16  1  0  0  0  0
 16 17  2  0  0  0  0
 19 18  1  0  0  0  0
 19 16  1  0  0  0  0
 20 19  1  0  0  0  0
 21 20  1  0  0  0  0
 23 22  1  1  0  0  0
 23 21  1  0  0  0  0
 24 25  2  0  0  0  0
 25 23  1  0  0  0  0
 26 27  1  0  0  0  0
 28 34  1  1  0  0  0
 29 31  1  0  0  0  0
 30 28  1  0  0  0  0
 31 30  1  0  0  0  0
 31 27  1  1  0  0  0
 32 29  1  0  0  0  0
 32 33  1  0  0  0  0
 33 28  1  0  0  0  0
 34 35  1  0  0  0  0
M  END
>  <MODEL>
3

>  <REMARK>
 VINA RESULT:      -6.3      2.159      2.789
  Name = 
  13 active torsions:
  status: ('A' for Active; 'I' for Inactive)
    1  A    between atoms: C_4  and  N_24
    2  A    between atoms: C_4  and  C_32
    3  A    between atoms: C_5  and  N_8
    4  A    between atoms: C_5  and  N_10
    5  A    between atoms: C_6  and  C_12
    6  A    between atoms: N_8  and  C_21
    7  A    between atoms: C_9  and  C_17
    8  A    between atoms: C_9  and  C_26
    9  A    between atoms: N_10  and  N_24
   10  A    between atoms: C_13  and  C_28
   11  A    between atoms: C_17  and  C_28
   12  A    between atoms: C_20  and  C_28
   13  A    between atoms: C_30  and  C_32
                            x       y       z     vdW  Elec       q    Type
                         _______ _______ _______ _____ _____    ______ ____

>  <TORSDO>
F 13

$$$$
=
 OpenBabel11062420093D

 35 37  0  0  1  0  0  0  0  0999 V2000
  189.2050  176.0560  144.1450 C   0  0  1  0  0  3  0  0  0  0  0  0
  189.2780  175.5810  141.6340 C   0  0  0  0  0  3  0  0  0  0  0  0
  188.2070  173.5570  142.0170 C   0  0  0  0  0  0  0  0  0  0  0  0
  189.6880  175.0880  143.0380 C   0  0  2  0  0  3  0  0  0  0  0  0
  187.4280  172.5860  141.8260 O   0  0  0  0  0  0  0  0  0  0  0  0
  188.3100  174.6330  141.1150 N   0  0  0  0  0  0  0  0  0  0  0  0
  189.0740  173.6910  143.2040 C   0  0  2  0  0  3  0  0  0  0  0  0
  190.1760  172.6490  143.1620 C   0  0  0  0  0  1  0  0  0  0  0  0
  189.7890  177.2280  146.3280 C   0  0  0  0  0  2  0  0  0  0  0  0
  190.3430  176.5820  145.0650 C   0  0  2  0  0  0  0  0  0  0  0  0
  191.6910  175.8290  146.9630 C   0  0  1  0  0  3  0  0  0  0  0  0
  190.7310  176.8880  147.4690 C   0  0  0  0  0  2  0  0  0  0  0  0
  191.2180  177.5970  144.3360 C   0  0  0  0  0  1  0  0  0  0  0  0
  191.2050  175.4410  145.5770 C   0  0  0  0  0  2  0  0  0  0  0  0
  193.0310  176.4000  146.8780 N   0  0  0  0  0  2  0  0  0  0  0  0
  194.0770  175.8870  146.0400 C   0  0  0  0  0  0  0  0  0  0  0  0
  194.4710  174.6180  146.1490 C   0  0  0  0  0  2  0  0  0  0  0  0
  195.0970  177.9860  145.4340 O   0  0  0  0  0  1  0  0  0  0  0  0
  194.6820  176.7480  145.0660 N   0  0  0  0  0  0  0  0  0  0  0  0
  194.8450  176.3330  143.7340 N   0  0  0  0  0  2  0  0  0  0  0  0
  196.2550  176.4780  143.3930 C   0  0  0  0  0  2  0  0  0  0  0  0
  195.1670  176.7370  141.2960 O   0  0  0  0  0  1  0  0  0  0  0  0
  196.4260  176.7130  141.8970 C   0  0  2  0  0  3  0  0  0  0  0  0
  196.7090  174.6980  140.6970 O   0  0  0  0  0  0  0  0  0  0  0  0
  197.2470  175.6260  141.2780 C   0  0  0  0  0  3  0  0  0  0  0  0
  188.4090  177.2150  143.5390 C   0  0  0  0  0  2  0  0  0  0  0  0
  186.9280  176.8930  143.6070 C   0  0  0  0  0  2  0  0  0  0  0  0
  185.2050  178.5870  146.1660 C   0  0  1  0  0  3  0  0  0  0  0  0
  184.6920  177.8910  143.6050 N   0  0  0  0  0  2  0  0  0  0  0  0
  186.3990  178.7300  145.2100 C   0  0  0  0  0  2  0  0  0  0  0  0
  186.1180  178.1630  143.8080 C   0  0  1  0  0  3  0  0  0  0  0  0
  183.9730  179.0210  144.0330 N   0  0  0  0  0  2  0  0  0  0  0  0
  183.8780  178.9790  145.4970 C   0  0  0  0  0  2  0  0  0  0  0  0
  185.1080  177.1670  146.7090 C   0  0  0  0  0  2  0  0  0  0  0  0
  186.4250  176.7460  147.3350 C   0  0  0  0  0  1  0  0  0  0  0  0
  1 26  1  6  0  0  0
  1 10  1  0  0  0  0
  2  4  1  0  0  0  0
  3  7  1  0  0  0  0
  4  7  1  0  0  0  0
  4  1  1  1  0  0  0
  5  3  2  0  0  0  0
  6  2  2  0  0  0  0
  6  3  1  0  0  0  0
  7  8  1  6  0  0  0
  9 12  1  0  0  0  0
 10 13  1  6  0  0  0
 10 14  1  0  0  0  0
 10  9  1  0  0  0  0
 11 15  1  6  0  0  0
 11 12  1  0  0  0  0
 14 11  1  0  0  0  0
 16 17  2  0  0  0  0
 16 15  1  0  0  0  0
 19 18  1  0  0  0  0
 19 16  1  0  0  0  0
 20 19  1  0  0  0  0
 21 20  1  0  0  0  0
 23 22  1  6  0  0  0
 23 21  1  0  0  0  0
 24 25  2  0  0  0  0
 25 23  1  0  0  0  0
 26 27  1  0  0  0  0
 28 34  1  6  0  0  0
 29 31  1  0  0  0  0
 29 32  1  0  0  0  0
 30 28  1  0  0  0  0
 31 27  1  1  0  0  0
 31 30  1  0  0  0  0
 32 33  1  0  0  0  0
 33 28  1  0  0  0  0
 34 35  1  0  0  0  0
M  END
>  <MODEL>
4

>  <REMARK>
 VINA RESULT:      -6.3      1.796      2.079
  Name = 
  13 active torsions:
  status: ('A' for Active; 'I' for Inactive)
    1  A    between atoms: C_4  and  N_24
    2  A    between atoms: C_4  and  C_32
    3  A    between atoms: C_5  and  N_8
    4  A    between atoms: C_5  and  N_10
    5  A    between atoms: C_6  and  C_12
    6  A    between atoms: N_8  and  C_21
    7  A    between atoms: C_9  and  C_17
    8  A    between atoms: C_9  and  C_26
    9  A    between atoms: N_10  and  N_24
   10  A    between atoms: C_13  and  C_28
   11  A    between atoms: C_17  and  C_28
   12  A    between atoms: C_20  and  C_28
   13  A    between atoms: C_30  and  C_32
                            x       y       z     vdW  Elec       q    Type
                         _______ _______ _______ _____ _____    ______ ____

>  <TORSDO>
F 13

$$$$
=
 OpenBabel11062420093D

 35 37  0  0  1  0  0  0  0  0999 V2000
  189.4590  174.7260  141.7400 C   0  0  1  0  0  3  0  0  0  0  0  0
  189.3020  172.1930  141.4330 C   0  0  0  0  0  3  0  0  0  0  0  0
  191.1630  172.2770  140.0470 C   0  0  0  0  0  0  0  0  0  0  0  0
  189.3040  173.5660  140.7280 C   0  0  2  0  0  3  0  0  0  0  0  0
  192.2510  171.9240  139.5200 O   0  0  0  0  0  0  0  0  0  0  0  0
  190.5120  171.5030  141.0270 N   0  0  0  0  0  0  0  0  0  0  0  0
  190.4640  173.5360  139.7240 C   0  0  2  0  0  3  0  0  0  0  0  0
  189.9070  173.4720  138.3130 C   0  0  0  0  0  1  0  0  0  0  0  0
  187.1190  175.2110  142.6180 C   0  0  0  0  0  2  0  0  0  0  0  0
  188.2620  175.7200  141.7500 C   0  0  2  0  0  0  0  0  0  0  0  0
  187.4190  177.5930  143.0790 C   0  0  1  0  0  3  0  0  0  0  0  0
  186.4980  176.4110  143.3100 C   0  0  0  0  0  2  0  0  0  0  0  0
  187.7370  175.9670  140.3400 C   0  0  0  0  0  1  0  0  0  0  0  0
  188.6540  177.0410  142.3870 C   0  0  0  0  0  2  0  0  0  0  0  0
  186.7510  178.5560  142.2110 N   0  0  0  0  0  2  0  0  0  0  0  0
  185.3620  178.4980  141.8560 C   0  0  0  0  0  0  0  0  0  0  0  0
  184.9920  178.1850  140.6140 C   0  0  0  0  0  2  0  0  0  0  0  0
  183.0980  178.3300  142.6690 O   0  0  0  0  0  1  0  0  0  0  0  0
  184.3710  178.7580  142.8590 N   0  0  0  0  0  0  0  0  0  0  0  0
  184.6950  179.4580  144.0340 N   0  0  0  0  0  2  0  0  0  0  0  0
  183.8410  178.9540  145.1020 C   0  0  0  0  0  2  0  0  0  0  0  0
  185.8730  179.3310  146.2750 O   0  0  0  0  0  1  0  0  0  0  0  0
  184.6620  178.6410  146.3470 C   0  0  2  0  0  3  0  0  0  0  0  0
  185.7840  176.7550  147.2190 O   0  0  0  0  0  0  0  0  0  0  0  0
  184.9360  177.1740  146.4490 C   0  0  0  0  0  3  0  0  0  0  0  0
  189.7320  174.1840  143.1460 C   0  0  0  0  0  2  0  0  0  0  0  0
  191.0880  174.6780  143.6150 C   0  0  0  0  0  2  0  0  0  0  0  0
  189.5620  174.9940  146.7710 C   0  0  1  0  0  3  0  0  0  0  0  0
  192.0520  175.3280  145.7700 N   0  0  0  0  0  2  0  0  0  0  0  0
  189.9820  173.9470  145.7290 C   0  0  0  0  0  2  0  0  0  0  0  0
  191.3290  174.2690  145.0590 C   0  0  1  0  0  3  0  0  0  0  0  0
  192.0360  175.0140  147.1410 N   0  0  0  0  0  2  0  0  0  0  0  0
  190.7300  175.3980  147.6870 C   0  0  0  0  0  2  0  0  0  0  0  0
  188.9850  176.2330  146.0990 C   0  0  0  0  0  2  0  0  0  0  0  0
  189.3990  177.4860  146.8480 C   0  0  0  0  0  1  0  0  0  0  0  0
  1 10  1  0  0  0  0
  1 26  1  1  0  0  0
  3  6  1  0  0  0  0
  4  2  1  0  0  0  0
  4  1  1  1  0  0  0
  5  3  2  0  0  0  0
  6  2  2  0  0  0  0
  7  8  1  6  0  0  0
  7  3  1  0  0  0  0
  7  4  1  0  0  0  0
  9 12  1  0  0  0  0
 10 13  1  6  0  0  0
 10 14  1  0  0  0  0
 10  9  1  0  0  0  0
 11 15  1  6  0  0  0
 11 12  1  0  0  0  0
 14 11  1  0  0  0  0
 16 15  1  0  0  0  0
 16 19  1  0  0  0  0
 17 16  2  0  0  0  0
 18 19  1  0  0  0  0
 19 20  1  0  0  0  0
 20 21  1  0  0  0  0
 21 23  1  0  0  0  0
 23 22  1  6  0  0  0
 23 25  1  0  0  0  0
 25 24  2  0  0  0  0
 26 27  1  0  0  0  0
 28 34  1  6  0  0  0
 28 33  1  0  0  0  0
 29 32  1  0  0  0  0
 30 28  1  0  0  0  0
 31 27  1  6  0  0  0
 31 30  1  0  0  0  0
 31 29  1  0  0  0  0
 32 33  1  0  0  0  0
 34 35  1  0  0  0  0
M  END
>  <MODEL>
5

>  <REMARK>
 VINA RESULT:      -6.3      2.971      7.532
  Name = 
  13 active torsions:
  status: ('A' for Active; 'I' for Inactive)
    1  A    between atoms: C_4  and  N_24
    2  A    between atoms: C_4  and  C_32
    3  A    between atoms: C_5  and  N_8
    4  A    between atoms: C_5  and  N_10
    5  A    between atoms: C_6  and  C_12
    6  A    between atoms: N_8  and  C_21
    7  A    between atoms: C_9  and  C_17
    8  A    between atoms: C_9  and  C_26
    9  A    between atoms: N_10  and  N_24
   10  A    between atoms: C_13  and  C_28
   11  A    between atoms: C_17  and  C_28
   12  A    between atoms: C_20  and  C_28
   13  A    between atoms: C_30  and  C_32
                            x       y       z     vdW  Elec       q    Type
                         _______ _______ _______ _____ _____    ______ ____

>  <TORSDO>
F 13

$$$$
=
 OpenBabel11062420093D

 35 37  0  0  1  0  0  0  0  0999 V2000
  188.0880  176.4870  144.1720 C   0  0  1  0  0  3  0  0  0  0  0  0
  185.6070  176.6810  143.5840 C   0  0  0  0  0  3  0  0  0  0  0  0
  185.7140  178.9590  144.0230 C   0  0  0  0  0  0  0  0  0  0  0  0
  186.6830  176.9030  144.6680 C   0  0  2  0  0  3  0  0  0  0  0  0
  185.4840  180.1910  143.8970 O   0  0  0  0  0  0  0  0  0  0  0  0
  185.1250  177.9910  143.1860 N   0  0  0  0  0  0  0  0  0  0  0  0
  186.6320  178.3940  145.0300 C   0  0  2  0  0  3  0  0  0  0  0  0
  186.0420  178.5550  146.4190 C   0  0  0  0  0  1  0  0  0  0  0  0
  188.4720  175.8080  146.5950 C   0  0  0  0  0  2  0  0  0  0  0  0
  189.1300  176.2960  145.3110 C   0  0  2  0  0  0  0  0  0  0  0  0
  190.5320  174.5320  146.2640 C   0  0  1  0  0  3  0  0  0  0  0  0
  189.4310  174.8370  147.2610 C   0  0  0  0  0  2  0  0  0  0  0  0
  189.8740  177.5940  145.6020 C   0  0  0  0  0  1  0  0  0  0  0  0
  190.1260  175.2040  144.9630 C   0  0  0  0  0  2  0  0  0  0  0  0
  191.7850  175.1020  146.7480 N   0  0  0  0  0  2  0  0  0  0  0  0
  193.0760  174.7930  146.2030 C   0  0  0  0  0  0  0  0  0  0  0  0
  193.3100  173.6040  145.6460 C   0  0  0  0  0  2  0  0  0  0  0  0
  193.9220  176.9170  146.9680 O   0  0  0  0  0  1  0  0  0  0  0  0
  194.1100  175.7850  146.2450 N   0  0  0  0  0  0  0  0  0  0  0  0
  195.3140  175.6070  145.5420 N   0  0  0  0  0  2  0  0  0  0  0  0
  195.3030  176.5180  144.4040 C   0  0  0  0  0  2  0  0  0  0  0  0
  196.4380  176.8290  142.3390 O   0  0  0  0  0  1  0  0  0  0  0  0
  195.8960  175.8480  143.1710 C   0  0  2  0  0  3  0  0  0  0  0  0
  193.6680  175.3660  142.5540 O   0  0  0  0  0  0  0  0  0  0  0  0
  194.8480  175.0880  142.4210 C   0  0  0  0  0  3  0  0  0  0  0  0
  188.0010  175.2350  143.2940 C   0  0  0  0  0  2  0  0  0  0  0  0
  188.6270  175.5290  141.9430 C   0  0  0  0  0  2  0  0  0  0  0  0
  189.4730  172.1140  141.8400 C   0  0  1  0  0  3  0  0  0  0  0  0
  189.6520  174.2160  140.1490 N   0  0  0  0  0  2  0  0  0  0  0  0
  188.2640  173.0620  141.8620 C   0  0  0  0  0  2  0  0  0  0  0  0
  188.4790  174.3310  141.0200 C   0  0  1  0  0  3  0  0  0  0  0  0
  189.5820  172.9740  139.4930 N   0  0  0  0  0  2  0  0  0  0  0  0
  190.0420  171.9350  140.4220 C   0  0  0  0  0  2  0  0  0  0  0  0
  190.5690  172.6050  142.7750 C   0  0  0  0  0  2  0  0  0  0  0  0
  191.9360  172.2140  142.2430 C   0  0  0  0  0  1  0  0  0  0  0  0
  1 26  1  1  0  0  0
  1 10  1  0  0  0  0
  2  4  1  0  0  0  0
  3  7  1  0  0  0  0
  4  1  1  6  0  0  0
  4  7  1  0  0  0  0
  5  3  2  0  0  0  0
  6  2  2  0  0  0  0
  6  3  1  0  0  0  0
  7  8  1  1  0  0  0
  9 12  1  0  0  0  0
 10 13  1  1  0  0  0
 10  9  1  0  0  0  0
 11 15  1  1  0  0  0
 11 12  1  0  0  0  0
 14 10  1  0  0  0  0
 14 11  1  0  0  0  0
 16 19  1  0  0  0  0
 16 15  1  0  0  0  0
 17 16  2  0  0  0  0
 19 18  1  0  0  0  0
 20 19  1  0  0  0  0
 21 20  1  0  0  0  0
 23 22  1  6  0  0  0
 23 21  1  0  0  0  0
 25 24  2  0  0  0  0
 25 23  1  0  0  0  0
 27 26  1  0  0  0  0
 28 30  1  0  0  0  0
 28 34  1  1  0  0  0
 29 31  1  0  0  0  0
 31 30  1  0  0  0  0
 31 27  1  1  0  0  0
 32 29  1  0  0  0  0
 32 33  1  0  0  0  0
 33 28  1  0  0  0  0
 35 34  1  0  0  0  0
M  END
>  <MODEL>
6

>  <REMARK>
 VINA RESULT:      -6.1      2.157      5.142
  Name = 
  13 active torsions:
  status: ('A' for Active; 'I' for Inactive)
    1  A    between atoms: C_4  and  N_24
    2  A    between atoms: C_4  and  C_32
    3  A    between atoms: C_5  and  N_8
    4  A    between atoms: C_5  and  N_10
    5  A    between atoms: C_6  and  C_12
    6  A    between atoms: N_8  and  C_21
    7  A    between atoms: C_9  and  C_17
    8  A    between atoms: C_9  and  C_26
    9  A    between atoms: N_10  and  N_24
   10  A    between atoms: C_13  and  C_28
   11  A    between atoms: C_17  and  C_28
   12  A    between atoms: C_20  and  C_28
   13  A    between atoms: C_30  and  C_32
                            x       y       z     vdW  Elec       q    Type
                         _______ _______ _______ _____ _____    ______ ____

>  <TORSDO>
F 13

$$$$
=
 OpenBabel11062420093D

 35 37  0  0  1  0  0  0  0  0999 V2000
  191.1040  174.8370  145.4300 C   0  0  1  0  0  3  0  0  0  0  0  0
  192.5630  175.9140  143.6280 C   0  0  0  0  0  3  0  0  0  0  0  0
  194.3820  174.7150  144.4290 C   0  0  0  0  0  0  0  0  0  0  0  0
  192.3560  175.6980  145.1430 C   0  0  2  0  0  3  0  0  0  0  0  0
  195.4520  174.0500  144.4070 O   0  0  0  0  0  0  0  0  0  0  0  0
  193.7780  175.2120  143.2590 N   0  0  0  0  0  0  0  0  0  0  0  0
  193.6340  175.0250  145.6630 C   0  0  2  0  0  3  0  0  0  0  0  0
  194.4150  176.0130  146.5090 C   0  0  0  0  0  1  0  0  0  0  0  0
  190.6760  176.6030  147.2120 C   0  0  0  0  0  2  0  0  0  0  0  0
  190.0420  175.5430  146.3210 C   0  0  2  0  0  0  0  0  0  0  0  0
  188.6140  177.5290  146.2810 C   0  0  1  0  0  3  0  0  0  0  0  0
  189.7010  177.7620  147.3120 C   0  0  0  0  0  2  0  0  0  0  0  0
  189.3010  174.5410  147.1990 C   0  0  0  0  0  1  0  0  0  0  0  0
  189.0450  176.3150  145.4750 C   0  0  0  0  0  2  0  0  0  0  0  0
  187.3570  177.2500  146.9660 N   0  0  0  0  0  2  0  0  0  0  0  0
  186.2090  178.1100  146.9310 C   0  0  0  0  0  0  0  0  0  0  0  0
  186.1990  179.2570  147.6110 C   0  0  0  0  0  2  0  0  0  0  0  0
  183.8250  177.9840  146.5960 O   0  0  0  0  0  1  0  0  0  0  0  0
  185.0760  177.7340  146.1370 N   0  0  0  0  0  0  0  0  0  0  0  0
  185.2410  177.1030  144.8920 N   0  0  0  0  0  2  0  0  0  0  0  0
  185.7380  178.0990  143.9510 C   0  0  0  0  0  2  0  0  0  0  0  0
  186.3160  176.0480  142.8990 O   0  0  0  0  0  1  0  0  0  0  0  0
  186.2940  177.4290  142.7000 C   0  0  2  0  0  3  0  0  0  0  0  0
  188.0850  177.9780  141.2620 O   0  0  0  0  0  0  0  0  0  0  0  0
  187.6810  177.9080  142.4110 C   0  0  0  0  0  3  0  0  0  0  0  0
  190.4780  174.3390  144.1230 C   0  0  0  0  0  2  0  0  0  0  0  0
  190.4280  172.8230  144.1400 C   0  0  0  0  0  2  0  0  0  0  0  0
  190.0600  172.1940  140.6970 C   0  0  1  0  0  3  0  0  0  0  0  0
  188.6180  173.4440  142.6120 N   0  0  0  0  0  2  0  0  0  0  0  0
  190.0600  171.4920  142.0630 C   0  0  0  0  0  2  0  0  0  0  0  0
  189.3760  172.3180  143.1650 C   0  0  1  0  0  3  0  0  0  0  0  0
  187.8350  172.9560  141.5510 N   0  0  0  0  0  2  0  0  0  0  0  0
  188.6940  172.8210  140.3690 C   0  0  0  0  0  2  0  0  0  0  0  0
  191.1440  173.2620  140.6320 C   0  0  0  0  0  2  0  0  0  0  0  0
  192.4870  172.6800  141.0300 C   0  0  0  0  0  1  0  0  0  0  0  0
  1 26  1  6  0  0  0
  1 10  1  0  0  0  0
  2  4  1  0  0  0  0
  3  7  1  0  0  0  0
  4  1  1  6  0  0  0
  4  7  1  0  0  0  0
  5  3  2  0  0  0  0
  6  2  2  0  0  0  0
  6  3  1  0  0  0  0
  7  8  1  1  0  0  0
  9 12  1  0  0  0  0
 10 13  1  1  0  0  0
 10  9  1  0  0  0  0
 11 15  1  1  0  0  0
 11 12  1  0  0  0  0
 14 11  1  0  0  0  0
 14 10  1  0  0  0  0
 16 15  1  0  0  0  0
 16 17  2  0  0  0  0
 19 18  1  0  0  0  0
 19 16  1  0  0  0  0
 20 19  1  0  0  0  0
 21 20  1  0  0  0  0
 23 22  1  1  0  0  0
 23 21  1  0  0  0  0
 24 25  2  0  0  0  0
 25 23  1  0  0  0  0
 26 27  1  0  0  0  0
 28 34  1  1  0  0  0
 28 30  1  0  0  0  0
 29 31  1  0  0  0  0
 30 31  1  0  0  0  0
 31 27  1  1  0  0  0
 32 29  1  0  0  0  0
 33 28  1  0  0  0  0
 33 32  1  0  0  0  0
 34 35  1  0  0  0  0
M  END
>  <MODEL>
7

>  <REMARK>
 VINA RESULT:      -6.1      2.533      7.191
  Name = 
  13 active torsions:
  status: ('A' for Active; 'I' for Inactive)
    1  A    between atoms: C_4  and  N_24
    2  A    between atoms: C_4  and  C_32
    3  A    between atoms: C_5  and  N_8
    4  A    between atoms: C_5  and  N_10
    5  A    between atoms: C_6  and  C_12
    6  A    between atoms: N_8  and  C_21
    7  A    between atoms: C_9  and  C_17
    8  A    between atoms: C_9  and  C_26
    9  A    between atoms: N_10  and  N_24
   10  A    between atoms: C_13  and  C_28
   11  A    between atoms: C_17  and  C_28
   12  A    between atoms: C_20  and  C_28
   13  A    between atoms: C_30  and  C_32
                            x       y       z     vdW  Elec       q    Type
                         _______ _______ _______ _____ _____    ______ ____

>  <TORSDO>
F 13

$$$$
=
 OpenBabel11062420093D

 35 37  0  0  1  0  0  0  0  0999 V2000
  191.3920  175.0370  145.2720 C   0  0  1  0  0  3  0  0  0  0  0  0
  192.8630  176.2650  143.5790 C   0  0  0  0  0  3  0  0  0  0  0  0
  194.7440  175.4720  144.6840 C   0  0  0  0  0  0  0  0  0  0  0  0
  192.4990  176.0990  145.0700 C   0  0  2  0  0  3  0  0  0  0  0  0
  195.9080  175.0180  144.8430 O   0  0  0  0  0  0  0  0  0  0  0  0
  194.2210  175.7830  143.4140 N   0  0  0  0  0  0  0  0  0  0  0  0
  193.7960  175.7050  145.7910 C   0  0  2  0  0  3  0  0  0  0  0  0
  194.2700  176.8670  146.6440 C   0  0  0  0  0  1  0  0  0  0  0  0
  190.4610  176.6620  146.9960 C   0  0  0  0  0  2  0  0  0  0  0  0
  190.1180  175.5790  145.9810 C   0  0  2  0  0  0  0  0  0  0  0  0
  188.4930  177.3920  145.7420 C   0  0  1  0  0  3  0  0  0  0  0  0
  189.3530  177.6990  146.9520 C   0  0  0  0  0  2  0  0  0  0  0  0
  189.3620  174.4610  146.6910 C   0  0  0  0  0  1  0  0  0  0  0  0
  189.1960  176.2710  144.9940 C   0  0  0  0  0  2  0  0  0  0  0  0
  187.1800  176.9430  146.1900 N   0  0  0  0  0  2  0  0  0  0  0  0
  186.1510  177.8160  146.6780 C   0  0  0  0  0  0  0  0  0  0  0  0
  186.0630  178.1000  147.9780 C   0  0  0  0  0  2  0  0  0  0  0  0
  183.9050  178.4320  146.0520 O   0  0  0  0  0  1  0  0  0  0  0  0
  185.2270  178.3990  145.7490 N   0  0  0  0  0  0  0  0  0  0  0  0
  185.6680  178.9300  144.5260 N   0  0  0  0  0  2  0  0  0  0  0  0
  184.8680  178.3290  143.4660 C   0  0  0  0  0  2  0  0  0  0  0  0
  185.9790  176.2620  143.0940 O   0  0  0  0  0  1  0  0  0  0  0  0
  185.7450  177.5140  142.5240 C   0  0  2  0  0  3  0  0  0  0  0  0
  188.0080  177.5780  141.8500 O   0  0  0  0  0  0  0  0  0  0  0  0
  187.0530  178.2000  142.2860 C   0  0  0  0  0  3  0  0  0  0  0  0
  191.0360  174.3680  143.9410 C   0  0  0  0  0  2  0  0  0  0  0  0
  191.4710  172.9150  143.9800 C   0  0  0  0  0  2  0  0  0  0  0  0
  190.1910  172.6950  140.7090 C   0  0  1  0  0  3  0  0  0  0  0  0
  191.5330  171.0550  142.3890 N   0  0  0  0  0  2  0  0  0  0  0  0
  191.2890  173.3800  141.5360 C   0  0  0  0  0  2  0  0  0  0  0  0
  191.9080  172.4570  142.5980 C   0  0  1  0  0  3  0  0  0  0  0  0
  191.7360  170.7540  141.0300 N   0  0  0  0  0  2  0  0  0  0  0  0
  190.5990  171.2800  140.2660 C   0  0  0  0  0  2  0  0  0  0  0  0
  188.8820  172.6330  141.4850 C   0  0  0  0  0  2  0  0  0  0  0  0
  188.2690  174.0160  141.6030 C   0  0  0  0  0  1  0  0  0  0  0  0
  1 26  1  6  0  0  0
  1 10  1  0  0  0  0
  2  4  1  0  0  0  0
  3  5  2  0  0  0  0
  3  7  1  0  0  0  0
  4  1  1  6  0  0  0
  4  7  1  0  0  0  0
  6  2  2  0  0  0  0
  6  3  1  0  0  0  0
  7  8  1  1  0  0  0
 10 13  1  1  0  0  0
 10  9  1  0  0  0  0
 11 15  1  1  0  0  0
 11 12  1  0  0  0  0
 12  9  1  0  0  0  0
 14 11  1  0  0  0  0
 14 10  1  0  0  0  0
 15 16  1  0  0  0  0
 16 17  2  0  0  0  0
 19 18  1  0  0  0  0
 19 16  1  0  0  0  0
 20 19  1  0  0  0  0
 21 20  1  0  0  0  0
 23 22  1  1  0  0  0
 23 21  1  0  0  0  0
 24 25  2  0  0  0  0
 25 23  1  0  0  0  0
 26 27  1  0  0  0  0
 28 34  1  1  0  0  0
 28 30  1  0  0  0  0
 29 31  1  0  0  0  0
 30 31  1  0  0  0  0
 31 27  1  1  0  0  0
 32 29  1  0  0  0  0
 33 28  1  0  0  0  0
 33 32  1  0  0  0  0
 34 35  1  0  0  0  0
M  END
>  <MODEL>
8

>  <REMARK>
 VINA RESULT:      -6.1      2.661      7.588
  Name = 
  13 active torsions:
  status: ('A' for Active; 'I' for Inactive)
    1  A    between atoms: C_4  and  N_24
    2  A    between atoms: C_4  and  C_32
    3  A    between atoms: C_5  and  N_8
    4  A    between atoms: C_5  and  N_10
    5  A    between atoms: C_6  and  C_12
    6  A    between atoms: N_8  and  C_21
    7  A    between atoms: C_9  and  C_17
    8  A    between atoms: C_9  and  C_26
    9  A    between atoms: N_10  and  N_24
   10  A    between atoms: C_13  and  C_28
   11  A    between atoms: C_17  and  C_28
   12  A    between atoms: C_20  and  C_28
   13  A    between atoms: C_30  and  C_32
                            x       y       z     vdW  Elec       q    Type
                         _______ _______ _______ _____ _____    ______ ____

>  <TORSDO>
F 13

$$$$
=
 OpenBabel11062420093D

 35 37  0  0  1  0  0  0  0  0999 V2000
  189.2890  176.1010  144.4270 C   0  0  1  0  0  3  0  0  0  0  0  0
  188.6340  176.7200  142.0340 C   0  0  0  0  0  3  0  0  0  0  0  0
  188.3670  174.4640  141.5560 C   0  0  0  0  0  0  0  0  0  0  0  0
  189.6170  175.9300  142.9240 C   0  0  2  0  0  3  0  0  0  0  0  0
  187.8730  173.4210  141.0520 O   0  0  0  0  0  0  0  0  0  0  0  0
  187.8530  175.7480  141.2930 N   0  0  0  0  0  0  0  0  0  0  0  0
  189.5120  174.4620  142.4880 C   0  0  2  0  0  3  0  0  0  0  0  0
  190.7780  174.0630  141.7530 C   0  0  0  0  0  1  0  0  0  0  0  0
  190.1220  176.8550  146.7110 C   0  0  0  0  0  2  0  0  0  0  0  0
  190.5300  176.4100  145.3130 C   0  0  2  0  0  0  0  0  0  0  0  0
  191.9820  175.2830  146.9280 C   0  0  1  0  0  3  0  0  0  0  0  0
  191.1330  176.2820  147.6880 C   0  0  0  0  0  2  0  0  0  0  0  0
  191.4010  177.4930  144.6860 C   0  0  0  0  0  1  0  0  0  0  0  0
  191.3590  175.1600  145.5470 C   0  0  0  0  0  2  0  0  0  0  0  0
  193.3410  175.7980  146.8160 N   0  0  0  0  0  2  0  0  0  0  0  0
  194.2810  175.3890  145.8120 C   0  0  0  0  0  0  0  0  0  0  0  0
  194.6900  174.1220  145.7420 C   0  0  0  0  0  2  0  0  0  0  0  0
  195.1420  177.5810  145.2980 O   0  0  0  0  0  1  0  0  0  0  0  0
  194.7610  176.3540  144.8660 N   0  0  0  0  0  0  0  0  0  0  0  0
  194.8370  176.0500  143.4960 N   0  0  0  0  0  2  0  0  0  0  0  0
  196.1950  176.3360  143.0520 C   0  0  0  0  0  2  0  0  0  0  0  0
  194.8970  176.7670  141.1080 O   0  0  0  0  0  1  0  0  0  0  0  0
  196.2000  176.8160  141.6050 C   0  0  2  0  0  3  0  0  0  0  0  0
  196.6060  175.0690  140.0700 O   0  0  0  0  0  0  0  0  0  0  0  0
  197.0830  175.9550  140.7600 C   0  0  0  0  0  3  0  0  0  0  0  0
  188.1970  177.1560  144.6250 C   0  0  0  0  0  2  0  0  0  0  0  0
  186.8660  176.4620  144.8450 C   0  0  0  0  0  2  0  0  0  0  0  0
  184.5050  178.5720  146.3800 C   0  0  1  0  0  3  0  0  0  0  0  0
  187.0810  177.8830  146.8270 N   0  0  0  0  0  2  0  0  0  0  0  0
  184.8260  177.0910  146.1350 C   0  0  0  0  0  2  0  0  0  0  0  0
  186.3280  176.7750  146.2310 C   0  0  1  0  0  3  0  0  0  0  0  0
  186.4010  178.2910  147.9880 N   0  0  0  0  0  2  0  0  0  0  0  0
  185.2720  179.1380  147.5870 C   0  0  0  0  0  2  0  0  0  0  0  0
  184.8060  179.4080  145.1430 C   0  0  0  0  0  2  0  0  0  0  0  0
  184.1800  178.7790  143.9120 C   0  0  0  0  0  1  0  0  0  0  0  0
  1 26  1  6  0  0  0
  1 10  1  0  0  0  0
  2  4  1  0  0  0  0
  3  7  1  0  0  0  0
  4  1  1  1  0  0  0
  5  3  2  0  0  0  0
  6  3  1  0  0  0  0
  6  2  2  0  0  0  0
  7  8  1  6  0  0  0
  7  4  1  0  0  0  0
  9 12  1  0  0  0  0
 10 13  1  6  0  0  0
 10 14  1  0  0  0  0
 10  9  1  0  0  0  0
 11 15  1  6  0  0  0
 11 12  1  0  0  0  0
 14 11  1  0  0  0  0
 16 15  1  0  0  0  0
 17 16  2  0  0  0  0
 19 18  1  0  0  0  0
 19 16  1  0  0  0  0
 20 19  1  0  0  0  0
 21 20  1  0  0  0  0
 23 22  1  6  0  0  0
 23 21  1  0  0  0  0
 24 25  2  0  0  0  0
 25 23  1  0  0  0  0
 26 27  1  0  0  0  0
 28 34  1  6  0  0  0
 28 33  1  0  0  0  0
 29 32  1  0  0  0  0
 30 31  1  0  0  0  0
 30 28  1  0  0  0  0
 31 27  1  6  0  0  0
 31 29  1  0  0  0  0
 33 32  1  0  0  0  0
 35 34  1  0  0  0  0
M  END
>  <MODEL>
9

>  <REMARK>
 VINA RESULT:      -6.1      2.135      2.786
  Name = 
  13 active torsions:
  status: ('A' for Active; 'I' for Inactive)
    1  A    between atoms: C_4  and  N_24
    2  A    between atoms: C_4  and  C_32
    3  A    between atoms: C_5  and  N_8
    4  A    between atoms: C_5  and  N_10
    5  A    between atoms: C_6  and  C_12
    6  A    between atoms: N_8  and  C_21
    7  A    between atoms: C_9  and  C_17
    8  A    between atoms: C_9  and  C_26
    9  A    between atoms: N_10  and  N_24
   10  A    between atoms: C_13  and  C_28
   11  A    between atoms: C_17  and  C_28
   12  A    between atoms: C_20  and  C_28
   13  A    between atoms: C_30  and  C_32
                            x       y       z     vdW  Elec       q    Type
                         _______ _______ _______ _____ _____    ______ ____

>  <TORSDO>
F 13

$$$$
