=
 OpenBabel11062419083D

 32 35  0  0  1  0  0  0  0  0999 V2000
  188.3630  176.4900  143.8410 C   0  0  1  0  0  3  0  0  0  0  0  0
  190.6530  176.8730  142.7420 C   0  0  1  0  0  3  0  0  0  0  0  0
  186.3130  176.6330  147.3120 C   0  0  0  0  0  2  0  0  0  0  0  0
  187.4460  178.0490  145.6780 C   0  0  1  0  0  3  0  0  0  0  0  0
  187.3150  177.5300  144.2420 C   0  0  0  0  0  2  0  0  0  0  0  0
  188.7630  176.4440  147.0770 C   0  0  0  0  0  3  0  0  0  0  0  0
  189.1900  174.8630  142.1270 C   0  0  2  0  0  3  0  0  0  0  0  0
  190.4920  176.2870  145.2170 C   0  0  2  0  0  3  0  0  0  0  0  0
  190.2920  174.9010  145.2020 O   0  0  0  0  0  1  0  0  0  0  0  0
  190.0990  176.9060  146.5610 C   0  0  2  0  0  3  0  0  0  0  0  0
  185.3380  177.5710  146.7630 N   0  0  0  0  0  2  0  0  0  0  0  0
  186.1020  178.6220  146.0840 C   0  0  0  0  0  2  0  0  0  0  0  0
  191.9770  177.2540  142.9670 O   0  0  0  0  0  1  0  0  0  0  0  0
  187.5970  176.9460  146.6530 C   0  0  0  0  0  0  0  0  0  0  0  0
  188.0650  175.8550  142.4720 C   0  0  2  0  0  3  0  0  0  0  0  0
  190.5990  175.4830  142.1020 C   0  0  0  0  0  2  0  0  0  0  0  0
  189.8150  176.9820  144.0290 C   0  0  2  0  0  3  0  0  0  0  0  0
  188.8950  174.0150  140.9240 C   0  0  0  0  0  0  0  0  0  0  0  0
  189.2310  174.2850  139.6680 C   0  0  0  0  0  3  0  0  0  0  0  0
  188.0750  172.8170  140.8980 C   0  0  0  0  0  0  0  0  0  0  0  0
  187.9100  172.3860  139.5580 N   0  0  0  0  0  0  0  0  0  0  0  0
  187.2970  172.4390  141.8580 N   0  0  0  0  0  2  0  0  0  0  0  0
  188.6980  173.1520  137.4470 N   0  0  0  0  0  1  0  0  0  0  0  0
  188.6060  173.2260  138.8640 C   0  0  0  0  0  0  0  0  0  0  0  0
  191.3820  176.5640  147.8020 P   0  0  0  0  0  0  0  0  0  0  0  0
  192.9000  176.5650  147.0560 O   0  0  0  0  0  0  0  0  0  0  0  0
  191.3490  177.7510  149.0060 O   0  0  0  0  0  1  0  0  0  0  0  0
  191.1340  175.2090  148.4250 O   0  0  0  0  0  1  0  0  0  0  0  0
  187.8530  176.9140  141.3800 C   0  0  0  0  0  2  0  0  0  0  0  0
  186.4950  176.9480  140.9650 O   0  0  0  0  0  0  0  0  0  0  0  0
  185.8120  178.1550  140.8650 C   0  0  0  0  0  3  0  0  0  0  0  0
  184.5440  178.1680  140.4890 C   0  0  0  0  0  2  0  0  0  0  0  0
  1 17  1  0  0  0  0
  1  5  1  6  0  0  0
  2 13  1  1  0  0  0
  2 17  1  0  0  0  0
  4  5  1  6  0  0  0
  4 12  1  0  0  0  0
  4 14  1  0  0  0  0
  7 18  1  6  0  0  0
  7 15  1  0  0  0  0
  8  9  1  1  0  0  0
  8 10  1  0  0  0  0
 10  6  1  0  0  0  0
 10 25  1  1  0  0  0
 11  3  1  0  0  0  0
 12 11  1  0  0  0  0
 14  6  2  0  0  0  0
 14  3  1  0  0  0  0
 15 29  1  6  0  0  0
 15  1  1  0  0  0  0
 16  7  1  0  0  0  0
 16  2  1  0  0  0  0
 17  8  1  0  0  0  0
 19 18  2  0  0  0  0
 20 18  1  0  0  0  0
 20 22  2  0  0  0  0
 21 20  1  0  0  0  0
 23 24  1  0  0  0  0
 24 21  2  0  0  0  0
 24 19  1  0  0  0  0
 25 28  1  0  0  0  0
 25 27  1  0  0  0  0
 26 25  2  0  0  0  0
 30 29  1  0  0  0  0
 31 30  1  0  0  0  0
 32 31  2  0  0  0  0
M  END
>  <MODEL>
1

>  <REMARK>
 VINA RESULT:      -7.3      0.000      0.000
  Name = 
  5 active torsions:
  status: ('A' for Active; 'I' for Inactive)
    1  A    between atoms: P_1  and  C_17
    2  A    between atoms: C_4  and  C_13
    3  A    between atoms: C_5  and  O_28
    4  A    between atoms: C_14  and  C_26
    5  A    between atoms: C_14  and  O_28
                            x       y       z     vdW  Elec       q    Type
                         _______ _______ _______ _____ _____    ______ ____

>  <TORSDO>
F 5

$$$$
=
 OpenBabel11062419083D

 32 35  0  0  1  0  0  0  0  0999 V2000
  190.1480  176.1750  144.2540 C   0  0  1  0  0  3  0  0  0  0  0  0
  191.2590  176.6970  146.5100 C   0  0  1  0  0  3  0  0  0  0  0  0
  186.7960  176.6200  142.0550 C   0  0  0  0  0  2  0  0  0  0  0  0
  188.6410  177.8790  143.0420 C   0  0  1  0  0  3  0  0  0  0  0  0
  189.9610  177.1000  143.0500 C   0  0  0  0  0  2  0  0  0  0  0  0
  186.9520  176.7630  144.5140 C   0  0  0  0  0  3  0  0  0  0  0  0
  191.5240  174.4130  145.3820 C   0  0  2  0  0  3  0  0  0  0  0  0
  188.7220  176.5410  146.3280 C   0  0  2  0  0  3  0  0  0  0  0  0
  188.4890  175.1600  146.3320 O   0  0  0  0  0  1  0  0  0  0  0  0
  187.5200  177.3220  145.7910 C   0  0  2  0  0  3  0  0  0  0  0  0
  187.5230  177.2890  140.9800 N   0  0  0  0  0  2  0  0  0  0  0  0
  188.3680  178.3060  141.6120 C   0  0  0  0  0  2  0  0  0  0  0  0
  191.0850  177.3060  147.7540 O   0  0  0  0  0  1  0  0  0  0  0  0
  187.4790  177.0010  143.3070 C   0  0  0  0  0  0  0  0  0  0  0  0
  191.3840  175.2700  144.1110 C   0  0  2  0  0  3  0  0  0  0  0  0
  191.6380  175.2230  146.6870 C   0  0  0  0  0  2  0  0  0  0  0  0
  190.0280  176.9050  145.6100 C   0  0  2  0  0  3  0  0  0  0  0  0
  192.5580  173.3310  145.2660 C   0  0  0  0  0  0  0  0  0  0  0  0
  193.7890  173.3610  145.7630 C   0  0  0  0  0  2  0  0  0  0  0  0
  192.4440  172.1160  144.4780 C   0  0  0  0  0  0  0  0  0  0  0  0
  193.6790  171.4210  144.5010 N   0  0  0  0  0  0  0  0  0  0  0  0
  191.5360  171.9020  143.5850 N   0  0  0  0  0  1  0  0  0  0  0  0
  195.7840  171.7860  145.5520 N   0  0  0  0  0  1  0  0  0  0  0  0
  194.4350  172.1360  145.2700 C   0  0  0  0  0  0  0  0  0  0  0  0
  186.2160  177.4020  147.0540 P   0  0  0  0  0  0  0  0  0  0  0  0
  186.3000  178.8910  147.8550 O   0  0  0  0  0  1  0  0  0  0  0  0
  184.6990  177.2430  146.3260 O   0  0  0  0  0  0  0  0  0  0  0  0
  186.4130  176.2870  148.0560 O   0  0  0  0  0  1  0  0  0  0  0  0
  192.6530  176.0740  143.7960 C   0  0  0  0  0  2  0  0  0  0  0  0
  193.3190  175.5430  142.6590 O   0  0  0  0  0  0  0  0  0  0  0  0
  194.6920  175.3170  142.6800 C   0  0  0  0  0  3  0  0  0  0  0  0
  195.4450  175.9110  143.5910 C   0  0  0  0  0  2  0  0  0  0  0  0
  1  5  1  6  0  0  0
  1 17  1  0  0  0  0
  2 16  1  0  0  0  0
  2 13  1  1  0  0  0
  3 14  1  0  0  0  0
  4 12  1  6  0  0  0
  4  5  1  0  0  0  0
  4 14  1  0  0  0  0
  6 10  1  0  0  0  0
  7 18  1  6  0  0  0
  7 16  1  0  0  0  0
  8  9  1  6  0  0  0
 10  8  1  0  0  0  0
 10 25  1  1  0  0  0
 11 12  1  0  0  0  0
 11  3  1  0  0  0  0
 14  6  2  0  0  0  0
 15 29  1  1  0  0  0
 15  1  1  0  0  0  0
 15  7  1  0  0  0  0
 17  8  1  0  0  0  0
 17  2  1  0  0  0  0
 18 19  1  0  0  0  0
 20 21  1  0  0  0  0
 20 18  2  0  0  0  0
 21 24  2  0  0  0  0
 22 20  1  0  0  0  0
 24 23  1  0  0  0  0
 24 19  1  0  0  0  0
 25 26  1  0  0  0  0
 25 28  1  0  0  0  0
 27 25  2  0  0  0  0
 30 31  1  0  0  0  0
 30 29  1  0  0  0  0
 31 32  2  0  0  0  0
M  END
>  <MODEL>
2

>  <REMARK>
 VINA RESULT:      -7.1      3.801      5.858
  Name = 
  5 active torsions:
  status: ('A' for Active; 'I' for Inactive)
    1  A    between atoms: P_1  and  C_17
    2  A    between atoms: C_4  and  C_13
    3  A    between atoms: C_5  and  O_28
    4  A    between atoms: C_14  and  C_26
    5  A    between atoms: C_14  and  O_28
                            x       y       z     vdW  Elec       q    Type
                         _______ _______ _______ _____ _____    ______ ____

>  <TORSDO>
F 5

$$$$
=
 OpenBabel11062419083D

 32 35  0  0  1  0  0  0  0  0999 V2000
  187.9000  176.5570  144.5300 C   0  0  1  0  0  3  0  0  0  0  0  0
  188.4300  174.6720  142.8680 C   0  0  1  0  0  3  0  0  0  0  0  0
  185.3300  179.5370  145.4170 C   0  0  0  0  0  2  0  0  0  0  0  0
  185.4890  177.1050  145.2570 C   0  0  1  0  0  3  0  0  0  0  0  0
  186.8660  176.5670  145.6580 C   0  0  0  0  0  2  0  0  0  0  0  0
  185.6610  178.5150  143.1950 C   0  0  0  0  0  3  0  0  0  0  0  0
  190.2730  176.1680  143.8300 C   0  0  2  0  0  3  0  0  0  0  0  0
  187.1020  176.7150  142.1200 C   0  0  2  0  0  3  0  0  0  0  0  0
  188.0950  177.6830  141.9240 O   0  0  0  0  0  1  0  0  0  0  0  0
  185.7120  177.3410  142.2540 C   0  0  2  0  0  3  0  0  0  0  0  0
  185.0380  178.9690  146.7310 N   0  0  0  0  0  2  0  0  0  0  0  0
  184.7790  177.5410  146.5240 C   0  0  0  0  0  2  0  0  0  0  0  0
  188.0170  174.0340  141.6960 O   0  0  0  0  0  1  0  0  0  0  0  0
  185.5870  178.3880  144.5250 C   0  0  0  0  0  0  0  0  0  0  0  0
  189.3110  176.2040  145.0320 C   0  0  2  0  0  3  0  0  0  0  0  0
  189.8680  175.1800  142.7210 C   0  0  0  0  0  2  0  0  0  0  0  0
  187.4370  175.7720  143.2830 C   0  0  2  0  0  3  0  0  0  0  0  0
  191.7180  176.0590  144.2210 C   0  0  0  0  0  0  0  0  0  0  0  0
  192.5340  177.0660  144.5090 C   0  0  0  0  0  2  0  0  0  0  0  0
  192.5170  174.8460  144.2240 C   0  0  0  0  0  0  0  0  0  0  0  0
  193.8680  175.1720  144.5060 N   0  0  0  0  0  0  0  0  0  0  0  0
  192.1640  173.7320  143.6740 N   0  0  0  0  0  1  0  0  0  0  0  0
  195.0340  177.1880  144.9970 N   0  0  0  0  0  1  0  0  0  0  0  0
  193.8560  176.4510  144.6950 C   0  0  0  0  0  0  0  0  0  0  0  0
  185.0970  177.8450  140.6190 P   0  0  0  0  0  0  0  0  0  0  0  0
  185.9740  177.0390  139.4170 O   0  0  0  0  0  0  0  0  0  0  0  0
  183.4590  177.4530  140.4750 O   0  0  0  0  0  1  0  0  0  0  0  0
  185.2750  179.3360  140.4500 O   0  0  0  0  0  1  0  0  0  0  0  0
  189.3250  174.9000  145.8420 C   0  0  0  0  0  2  0  0  0  0  0  0
  189.5980  175.1580  147.2110 O   0  0  0  0  0  0  0  0  0  0  0  0
  190.9040  175.3400  147.6540 C   0  0  0  0  0  3  0  0  0  0  0  0
  191.3180  176.5440  148.0110 C   0  0  0  0  0  2  0  0  0  0  0  0
  1 15  1  0  0  0  0
  1  5  1  1  0  0  0
  2 13  1  6  0  0  0
  2 17  1  0  0  0  0
  3 11  1  0  0  0  0
  4  5  1  1  0  0  0
  4 12  1  0  0  0  0
  6 14  2  0  0  0  0
  7 18  1  1  0  0  0
  7 15  1  0  0  0  0
  8  9  1  1  0  0  0
  8 10  1  0  0  0  0
  8 17  1  0  0  0  0
 10 25  1  6  0  0  0
 10  6  1  0  0  0  0
 12 11  1  0  0  0  0
 14  4  1  0  0  0  0
 14  3  1  0  0  0  0
 15 29  1  6  0  0  0
 16  2  1  0  0  0  0
 16  7  1  0  0  0  0
 17  1  1  0  0  0  0
 18 20  2  0  0  0  0
 18 19  1  0  0  0  0
 19 24  1  0  0  0  0
 20 21  1  0  0  0  0
 21 24  2  0  0  0  0
 22 20  1  0  0  0  0
 24 23  1  0  0  0  0
 26 25  2  0  0  0  0
 27 25  1  0  0  0  0
 28 25  1  0  0  0  0
 29 30  1  0  0  0  0
 30 31  1  0  0  0  0
 31 32  2  0  0  0  0
M  END
>  <MODEL>
3

>  <REMARK>
 VINA RESULT:      -6.8      3.438      6.382
  Name = 
  5 active torsions:
  status: ('A' for Active; 'I' for Inactive)
    1  A    between atoms: P_1  and  C_17
    2  A    between atoms: C_4  and  C_13
    3  A    between atoms: C_5  and  O_28
    4  A    between atoms: C_14  and  C_26
    5  A    between atoms: C_14  and  O_28
                            x       y       z     vdW  Elec       q    Type
                         _______ _______ _______ _____ _____    ______ ____

>  <TORSDO>
F 5

$$$$
=
 OpenBabel11062419083D

 32 35  0  0  1  0  0  0  0  0999 V2000
  189.6470  175.6140  143.3220 C   0  0  1  0  0  3  0  0  0  0  0  0
  188.2920  177.4260  142.1050 C   0  0  1  0  0  3  0  0  0  0  0  0
  191.7760  172.2210  142.8490 C   0  0  0  0  0  2  0  0  0  0  0  0
  191.7960  174.6050  142.3200 C   0  0  1  0  0  3  0  0  0  0  0  0
  191.1670  175.4680  143.4180 C   0  0  0  0  0  2  0  0  0  0  0  0
  190.0800  173.1030  141.2880 C   0  0  0  0  0  3  0  0  0  0  0  0
  187.5270  176.4620  144.3510 C   0  0  2  0  0  3  0  0  0  0  0  0
  188.4910  175.0840  141.1200 C   0  0  2  0  0  3  0  0  0  0  0  0
  187.5580  174.3480  141.8610 O   0  0  0  0  0  1  0  0  0  0  0  0
  189.4980  174.1770  140.4070 C   0  0  2  0  0  3  0  0  0  0  0  0
  192.9640  172.8160  143.4540 N   0  0  0  0  0  2  0  0  0  0  0  0
  193.1440  174.1290  142.8260 C   0  0  0  0  0  2  0  0  0  0  0  0
  187.8200  177.8560  140.8640 O   0  0  0  0  0  1  0  0  0  0  0  0
  191.0820  173.3200  142.1480 C   0  0  0  0  0  0  0  0  0  0  0  0
  189.0460  176.3120  144.5540 C   0  0  2  0  0  3  0  0  0  0  0  0
  187.1280  177.2400  143.0840 C   0  0  0  0  0  2  0  0  0  0  0  0
  189.1720  176.1700  141.9620 C   0  0  2  0  0  3  0  0  0  0  0  0
  186.8000  176.9220  145.5810 C   0  0  0  0  0  0  0  0  0  0  0  0
  185.9930  177.9740  145.6730 C   0  0  0  0  0  3  0  0  0  0  0  0
  186.9510  176.3810  146.9200 C   0  0  0  0  0  0  0  0  0  0  0  0
  186.2120  177.1730  147.8360 N   0  0  0  0  0  0  0  0  0  0  0  0
  187.8970  175.5830  147.2880 N   0  0  0  0  0  2  0  0  0  0  0  0
  184.8070  179.0840  147.6380 N   0  0  0  0  0  1  0  0  0  0  0  0
  185.6440  178.0690  147.0960 C   0  0  0  0  0  0  0  0  0  0  0  0
  188.7260  173.4150  138.9490 P   0  0  0  0  0  0  0  0  0  0  0  0
  187.8150  174.5790  138.1240 O   0  0  0  0  0  1  0  0  0  0  0  0
  189.9190  172.8050  137.9190 O   0  0  0  0  0  0  0  0  0  0  0  0
  187.8160  172.2910  139.3880 O   0  0  0  0  0  1  0  0  0  0  0  0
  189.7390  177.6500  144.8540 C   0  0  0  0  0  2  0  0  0  0  0  0
  190.1930  177.6940  146.1980 O   0  0  0  0  0  0  0  0  0  0  0  0
  191.0940  176.7480  146.6770 C   0  0  0  0  0  3  0  0  0  0  0  0
  191.2400  176.5750  147.9790 C   0  0  0  0  0  2  0  0  0  0  0  0
  1  5  1  1  0  0  0
  1 15  1  0  0  0  0
  2 13  1  6  0  0  0
  2 16  1  0  0  0  0
  3 11  1  0  0  0  0
  4 12  1  1  0  0  0
  4  5  1  0  0  0  0
  6 14  2  0  0  0  0
  7 15  1  0  0  0  0
  7 18  1  1  0  0  0
  8  9  1  1  0  0  0
  8 17  1  0  0  0  0
 10 25  1  6  0  0  0
 10  8  1  0  0  0  0
 10  6  1  0  0  0  0
 12 11  1  0  0  0  0
 14  4  1  0  0  0  0
 14  3  1  0  0  0  0
 15 29  1  6  0  0  0
 16  7  1  0  0  0  0
 17  2  1  0  0  0  0
 17  1  1  0  0  0  0
 18 19  2  0  0  0  0
 18 20  1  0  0  0  0
 19 24  1  0  0  0  0
 20 22  2  0  0  0  0
 20 21  1  0  0  0  0
 24 23  1  0  0  0  0
 24 21  2  0  0  0  0
 25 28  1  0  0  0  0
 26 25  1  0  0  0  0
 27 25  2  0  0  0  0
 29 30  1  0  0  0  0
 30 31  1  0  0  0  0
 31 32  2  0  0  0  0
M  END
>  <MODEL>
4

>  <REMARK>
 VINA RESULT:      -6.7      3.247      7.425
  Name = 
  5 active torsions:
  status: ('A' for Active; 'I' for Inactive)
    1  A    between atoms: P_1  and  C_17
    2  A    between atoms: C_4  and  C_13
    3  A    between atoms: C_5  and  O_28
    4  A    between atoms: C_14  and  C_26
    5  A    between atoms: C_14  and  O_28
                            x       y       z     vdW  Elec       q    Type
                         _______ _______ _______ _____ _____    ______ ____

>  <TORSDO>
F 5

$$$$
=
 OpenBabel11062419083D

 32 35  0  0  1  0  0  0  0  0999 V2000
  190.4660  175.4850  142.8610 C   0  0  1  0  0  3  0  0  0  0  0  0
  189.2780  175.2030  145.1210 C   0  0  1  0  0  3  0  0  0  0  0  0
  194.0560  175.6720  141.0300 C   0  0  0  0  0  2  0  0  0  0  0  0
  192.5860  174.1520  142.2510 C   0  0  1  0  0  3  0  0  0  0  0  0
  191.1000  174.4070  141.9790 C   0  0  0  0  0  2  0  0  0  0  0  0
  193.6170  176.1120  143.4190 C   0  0  0  0  0  3  0  0  0  0  0  0
  188.4620  176.8940  143.3790 C   0  0  2  0  0  3  0  0  0  0  0  0
  191.6350  176.1650  145.0140 C   0  0  2  0  0  3  0  0  0  0  0  0
  191.4170  177.4960  144.6360 O   0  0  0  0  0  1  0  0  0  0  0  0
  193.0850  175.7330  144.7760 C   0  0  2  0  0  3  0  0  0  0  0  0
  193.7320  174.5460  140.1580 N   0  0  0  0  0  2  0  0  0  0  0  0
  193.1740  173.4970  141.0160 C   0  0  0  0  0  2  0  0  0  0  0  0
  189.4640  175.0250  146.4930 O   0  0  0  0  0  1  0  0  0  0  0  0
  193.3630  175.4100  142.3080 C   0  0  0  0  0  0  0  0  0  0  0  0
  189.0400  175.8450  142.4120 C   0  0  2  0  0  3  0  0  0  0  0  0
  188.4330  176.4520  144.8540 C   0  0  0  0  0  2  0  0  0  0  0  0
  190.6230  175.2080  144.3720 C   0  0  2  0  0  3  0  0  0  0  0  0
  187.1660  177.4910  142.9140 C   0  0  0  0  0  0  0  0  0  0  0  0
  186.0290  177.5370  143.6000 C   0  0  0  0  0  2  0  0  0  0  0  0
  186.8840  178.0030  141.5850 C   0  0  0  0  0  0  0  0  0  0  0  0
  185.5110  178.3410  141.4900 N   0  0  0  0  0  0  0  0  0  0  0  0
  187.6320  177.8100  140.5500 N   0  0  0  0  0  1  0  0  0  0  0  0
  183.6690  178.2910  142.9970 N   0  0  0  0  0  1  0  0  0  0  0  0
  185.0380  178.0930  142.6680 C   0  0  0  0  0  0  0  0  0  0  0  0
  194.1610  176.4270  146.0660 P   0  0  0  0  0  0  0  0  0  0  0  0
  195.3170  175.2740  146.5120 O   0  0  0  0  0  1  0  0  0  0  0  0
  194.9420  177.8080  145.4830 O   0  0  0  0  0  0  0  0  0  0  0  0
  193.3300  176.7910  147.2750 O   0  0  0  0  0  1  0  0  0  0  0  0
  188.1460  174.6030  142.2820 C   0  0  0  0  0  2  0  0  0  0  0  0
  187.9300  174.2750  140.9170 O   0  0  0  0  0  0  0  0  0  0  0  0
  188.1910  172.9940  140.4440 C   0  0  0  0  0  3  0  0  0  0  0  0
  188.3230  172.7830  139.1450 C   0  0  0  0  0  2  0  0  0  0  0  0
  1  5  1  6  0  0  0
  1 17  1  0  0  0  0
  2 13  1  1  0  0  0
  3 14  1  0  0  0  0
  4 12  1  6  0  0  0
  4 14  1  0  0  0  0
  5  4  1  0  0  0  0
  6 10  1  0  0  0  0
  7 18  1  6  0  0  0
  7 16  1  0  0  0  0
  8  9  1  6  0  0  0
 10  8  1  0  0  0  0
 10 25  1  1  0  0  0
 11 12  1  0  0  0  0
 11  3  1  0  0  0  0
 14  6  2  0  0  0  0
 15 29  1  1  0  0  0
 15  1  1  0  0  0  0
 15  7  1  0  0  0  0
 16  2  1  0  0  0  0
 17  8  1  0  0  0  0
 17  2  1  0  0  0  0
 18 19  1  0  0  0  0
 20 18  2  0  0  0  0
 21 20  1  0  0  0  0
 21 24  2  0  0  0  0
 22 20  1  0  0  0  0
 24 23  1  0  0  0  0
 24 19  1  0  0  0  0
 25 26  1  0  0  0  0
 25 28  1  0  0  0  0
 27 25  2  0  0  0  0
 30 29  1  0  0  0  0
 31 30  1  0  0  0  0
 32 31  2  0  0  0  0
M  END
>  <MODEL>
5

>  <REMARK>
 VINA RESULT:      -6.6      2.679      5.663
  Name = 
  5 active torsions:
  status: ('A' for Active; 'I' for Inactive)
    1  A    between atoms: P_1  and  C_17
    2  A    between atoms: C_4  and  C_13
    3  A    between atoms: C_5  and  O_28
    4  A    between atoms: C_14  and  C_26
    5  A    between atoms: C_14  and  O_28
                            x       y       z     vdW  Elec       q    Type
                         _______ _______ _______ _____ _____    ______ ____

>  <TORSDO>
F 5

$$$$
=
 OpenBabel11062419083D

 32 35  0  0  1  0  0  0  0  0999 V2000
  190.1450  176.3540  144.2270 C   0  0  1  0  0  3  0  0  0  0  0  0
  191.1750  176.9250  146.5100 C   0  0  1  0  0  3  0  0  0  0  0  0
  186.7980  176.5530  141.9840 C   0  0  0  0  0  2  0  0  0  0  0  0
  188.5140  177.9460  143.0240 C   0  0  1  0  0  3  0  0  0  0  0  0
  189.8950  177.2840  143.0380 C   0  0  0  0  0  2  0  0  0  0  0  0
  186.9070  176.6580  144.4480 C   0  0  0  0  0  3  0  0  0  0  0  0
  191.6530  174.6950  145.3430 C   0  0  2  0  0  3  0  0  0  0  0  0
  188.6640  176.5540  146.2850 C   0  0  2  0  0  3  0  0  0  0  0  0
  188.5510  175.1580  146.2580 O   0  0  0  0  0  1  0  0  0  0  0  0
  187.4070  177.2390  145.7430 C   0  0  2  0  0  3  0  0  0  0  0  0
  187.4800  177.3040  140.9330 N   0  0  0  0  0  2  0  0  0  0  0  0
  188.2250  178.3770  141.5990 C   0  0  0  0  0  2  0  0  0  0  0  0
  190.9310  177.4910  147.7620 O   0  0  0  0  0  1  0  0  0  0  0  0
  187.4280  176.9660  143.2540 C   0  0  0  0  0  0  0  0  0  0  0  0
  191.4570  175.5620  144.0860 C   0  0  2  0  0  3  0  0  0  0  0  0
  191.6770  175.4850  146.6640 C   0  0  0  0  0  2  0  0  0  0  0  0
  189.9440  177.0430  145.5940 C   0  0  2  0  0  3  0  0  0  0  0  0
  192.7780  173.7090  145.2220 C   0  0  0  0  0  0  0  0  0  0  0  0
  192.6670  172.4180  144.9320 C   0  0  0  0  0  3  0  0  0  0  0  0
  194.1750  173.9580  145.5330 C   0  0  0  0  0  0  0  0  0  0  0  0
  194.9040  172.7460  145.4380 N   0  0  0  0  0  0  0  0  0  0  0  0
  194.6120  174.9910  146.1730 N   0  0  0  0  0  2  0  0  0  0  0  0
  194.3510  170.5040  144.8600 N   0  0  0  0  0  1  0  0  0  0  0  0
  194.0250  171.8730  145.0630 C   0  0  0  0  0  0  0  0  0  0  0  0
  186.0830  177.1800  146.9880 P   0  0  0  0  0  0  0  0  0  0  0  0
  186.5250  176.1180  148.2290 O   0  0  0  0  0  1  0  0  0  0  0  0
  185.8300  178.7220  147.6330 O   0  0  0  0  0  1  0  0  0  0  0  0
  184.8060  176.6890  146.3440 O   0  0  0  0  0  0  0  0  0  0  0  0
  192.6560  176.4800  143.8060 C   0  0  0  0  0  2  0  0  0  0  0  0
  193.1420  176.2880  142.4860 O   0  0  0  0  0  0  0  0  0  0  0  0
  193.0410  175.0480  141.8640 C   0  0  0  0  0  3  0  0  0  0  0  0
  194.1060  174.2700  141.7650 C   0  0  0  0  0  2  0  0  0  0  0  0
  1  5  1  6  0  0  0
  1 17  1  0  0  0  0
  2 16  1  0  0  0  0
  2 13  1  1  0  0  0
  3 14  1  0  0  0  0
  4 12  1  6  0  0  0
  4  5  1  0  0  0  0
  4 14  1  0  0  0  0
  6 10  1  0  0  0  0
  7 18  1  6  0  0  0
  7 16  1  0  0  0  0
  8  9  1  6  0  0  0
 10  8  1  0  0  0  0
 10 25  1  1  0  0  0
 11 12  1  0  0  0  0
 11  3  1  0  0  0  0
 14  6  2  0  0  0  0
 15 29  1  1  0  0  0
 15  1  1  0  0  0  0
 15  7  1  0  0  0  0
 17  8  1  0  0  0  0
 17  2  1  0  0  0  0
 18 20  1  0  0  0  0
 19 24  1  0  0  0  0
 19 18  2  0  0  0  0
 20 22  2  0  0  0  0
 21 20  1  0  0  0  0
 23 24  1  0  0  0  0
 24 21  2  0  0  0  0
 25 27  1  0  0  0  0
 25 26  1  0  0  0  0
 28 25  2  0  0  0  0
 30 29  1  0  0  0  0
 31 30  1  0  0  0  0
 32 31  2  0  0  0  0
M  END
>  <MODEL>
6

>  <REMARK>
 VINA RESULT:      -6.4      3.929      5.876
  Name = 
  5 active torsions:
  status: ('A' for Active; 'I' for Inactive)
    1  A    between atoms: P_1  and  C_17
    2  A    between atoms: C_4  and  C_13
    3  A    between atoms: C_5  and  O_28
    4  A    between atoms: C_14  and  C_26
    5  A    between atoms: C_14  and  O_28
                            x       y       z     vdW  Elec       q    Type
                         _______ _______ _______ _____ _____    ______ ____

>  <TORSDO>
F 5

$$$$
=
 OpenBabel11062419083D

 32 35  0  0  1  0  0  0  0  0999 V2000
  192.5750  175.0390  143.7020 C   0  0  1  0  0  3  0  0  0  0  0  0
  190.8660  173.1230  143.6030 C   0  0  1  0  0  3  0  0  0  0  0  0
  196.5050  175.9470  143.7060 C   0  0  0  0  0  2  0  0  0  0  0  0
  194.7370  175.0200  142.3000 C   0  0  1  0  0  3  0  0  0  0  0  0
  193.3700  175.6630  142.5540 C   0  0  0  0  0  2  0  0  0  0  0  0
  195.5140  173.7730  144.3270 C   0  0  0  0  0  3  0  0  0  0  0  0
  190.5490  175.1230  145.1720 C   0  0  2  0  0  3  0  0  0  0  0  0
  193.2070  172.7170  144.5250 C   0  0  2  0  0  3  0  0  0  0  0  0
  193.1280  173.2280  145.8260 O   0  0  0  0  0  1  0  0  0  0  0  0
  194.6570  172.5650  144.0570 C   0  0  2  0  0  3  0  0  0  0  0  0
  196.3680  176.7920  142.5240 N   0  0  0  0  0  2  0  0  0  0  0  0
  195.5860  176.0270  141.5480 C   0  0  0  0  0  2  0  0  0  0  0  0
  190.7080  171.7380  143.5250 O   0  0  0  0  0  1  0  0  0  0  0  0
  195.5150  174.8620  143.5490 C   0  0  0  0  0  0  0  0  0  0  0  0
  191.3110  175.8460  144.0470 C   0  0  2  0  0  3  0  0  0  0  0  0
  190.1490  173.6730  144.8400 C   0  0  0  0  0  2  0  0  0  0  0  0
  192.3520  173.5190  143.5360 C   0  0  2  0  0  3  0  0  0  0  0  0
  189.4230  175.9290  145.7490 C   0  0  0  0  0  0  0  0  0  0  0  0
  188.1970  176.0420  145.2500 C   0  0  0  0  0  3  0  0  0  0  0  0
  189.5080  176.8370  146.8800 C   0  0  0  0  0  0  0  0  0  0  0  0
  188.2770  177.5250  147.0280 N   0  0  0  0  0  0  0  0  0  0  0  0
  190.6120  177.2540  147.4050 N   0  0  0  0  0  2  0  0  0  0  0  0
  186.1860  177.4710  145.8940 N   0  0  0  0  0  1  0  0  0  0  0  0
  187.5230  177.0340  146.0980 C   0  0  0  0  0  0  0  0  0  0  0  0
  195.4090  171.1010  144.8300 P   0  0  0  0  0  0  0  0  0  0  0  0
  196.3810  171.5880  146.1270 O   0  0  0  0  0  1  0  0  0  0  0  0
  194.2000  170.0640  145.3950 O   0  0  0  0  0  1  0  0  0  0  0  0
  196.2620  170.3750  143.8140 O   0  0  0  0  0  0  0  0  0  0  0  0
  190.4380  176.1040  142.8100 C   0  0  0  0  0  2  0  0  0  0  0  0
  190.1520  177.4880  142.6730 O   0  0  0  0  0  0  0  0  0  0  0  0
  188.9440  177.9150  142.1300 C   0  0  0  0  0  3  0  0  0  0  0  0
  188.0900  177.0300  141.6420 C   0  0  0  0  0  2  0  0  0  0  0  0
  1  5  1  6  0  0  0
  1 15  1  0  0  0  0
  2 13  1  1  0  0  0
  2 16  1  0  0  0  0
  4 12  1  6  0  0  0
  4  5  1  0  0  0  0
  4 14  1  0  0  0  0
  7 18  1  6  0  0  0
  8  9  1  1  0  0  0
 10  6  1  0  0  0  0
 10  8  1  0  0  0  0
 10 25  1  1  0  0  0
 11  3  1  0  0  0  0
 12 11  1  0  0  0  0
 14  3  1  0  0  0  0
 14  6  2  0  0  0  0
 15 29  1  6  0  0  0
 15  7  1  0  0  0  0
 16  7  1  0  0  0  0
 17  2  1  0  0  0  0
 17  1  1  0  0  0  0
 17  8  1  0  0  0  0
 18 20  1  0  0  0  0
 19 18  2  0  0  0  0
 19 24  1  0  0  0  0
 20 21  1  0  0  0  0
 20 22  2  0  0  0  0
 23 24  1  0  0  0  0
 24 21  2  0  0  0  0
 25 27  1  0  0  0  0
 25 26  1  0  0  0  0
 28 25  2  0  0  0  0
 30 29  1  0  0  0  0
 31 30  1  0  0  0  0
 32 31  2  0  0  0  0
M  END
>  <MODEL>
7

>  <REMARK>
 VINA RESULT:      -6.2      4.295      6.964
  Name = 
  5 active torsions:
  status: ('A' for Active; 'I' for Inactive)
    1  A    between atoms: P_1  and  C_17
    2  A    between atoms: C_4  and  C_13
    3  A    between atoms: C_5  and  O_28
    4  A    between atoms: C_14  and  C_26
    5  A    between atoms: C_14  and  O_28
                            x       y       z     vdW  Elec       q    Type
                         _______ _______ _______ _____ _____    ______ ____

>  <TORSDO>
F 5

$$$$
=
 OpenBabel11062419083D

 32 35  0  0  1  0  0  0  0  0999 V2000
  192.1970  175.3250  144.3210 C   0  0  1  0  0  3  0  0  0  0  0  0
  191.5980  174.1320  142.1260 C   0  0  1  0  0  3  0  0  0  0  0  0
  190.7340  177.4740  147.4050 C   0  0  0  0  0  2  0  0  0  0  0  0
  190.6530  175.2580  146.3830 C   0  0  1  0  0  3  0  0  0  0  0  0
  191.9870  174.8390  145.7560 C   0  0  0  0  0  2  0  0  0  0  0  0
  189.6960  177.2320  145.1780 C   0  0  0  0  0  3  0  0  0  0  0  0
  193.7330  175.5290  142.3530 C   0  0  2  0  0  3  0  0  0  0  0  0
  190.1840  176.0800  142.9630 C   0  0  2  0  0  3  0  0  0  0  0  0
  190.9360  177.2000  142.5910 O   0  0  0  0  0  1  0  0  0  0  0  0
  189.1470  176.4190  144.0370 C   0  0  2  0  0  3  0  0  0  0  0  0
  191.2110  176.5000  148.3830 N   0  0  0  0  0  2  0  0  0  0  0  0
  190.8100  175.1790  147.8900 C   0  0  0  0  0  2  0  0  0  0  0  0
  190.5630  173.8220  141.2420 O   0  0  0  0  0  1  0  0  0  0  0  0
  190.3830  176.7010  146.1960 C   0  0  0  0  0  0  0  0  0  0  0  0
  193.6250  175.0560  143.8140 C   0  0  2  0  0  3  0  0  0  0  0  0
  192.7230  174.8720  141.3950 C   0  0  0  0  0  2  0  0  0  0  0  0
  191.0710  174.8920  143.3570 C   0  0  2  0  0  3  0  0  0  0  0  0
  195.1370  175.5270  141.8240 C   0  0  0  0  0  0  0  0  0  0  0  0
  195.6040  174.7800  140.8300 C   0  0  0  0  0  3  0  0  0  0  0  0
  196.2690  176.2420  142.3890 C   0  0  0  0  0  0  0  0  0  0  0  0
  197.4520  175.8720  141.7010 N   0  0  0  0  0  0  0  0  0  0  0  0
  196.2790  176.7950  143.5560 N   0  0  0  0  0  2  0  0  0  0  0  0
  197.9410  174.4300  139.8720 N   0  0  0  0  0  1  0  0  0  0  0  0
  197.0480  175.0510  140.7870 C   0  0  0  0  0  0  0  0  0  0  0  0
  187.7390  177.2930  143.2890 P   0  0  0  0  0  0  0  0  0  0  0  0
  187.0700  178.3550  144.4230 O   0  0  0  0  0  1  0  0  0  0  0  0
  188.2580  178.1680  141.9390 O   0  0  0  0  0  0  0  0  0  0  0  0
  186.6890  176.2910  142.8670 O   0  0  0  0  0  1  0  0  0  0  0  0
  194.0310  173.5860  143.9920 C   0  0  0  0  0  2  0  0  0  0  0  0
  195.3840  173.4820  144.4110 O   0  0  0  0  0  0  0  0  0  0  0  0
  195.7590  173.8410  145.7010 C   0  0  0  0  0  3  0  0  0  0  0  0
  196.9920  173.6090  146.1200 C   0  0  0  0  0  2  0  0  0  0  0  0
  1  5  1  1  0  0  0
  2 13  1  6  0  0  0
  2 17  1  0  0  0  0
  3 11  1  0  0  0  0
  4  5  1  6  0  0  0
  4 12  1  0  0  0  0
  6 14  2  0  0  0  0
  7 18  1  6  0  0  0
  7 15  1  0  0  0  0
  8  9  1  1  0  0  0
  8 17  1  0  0  0  0
  8 10  1  0  0  0  0
 10 25  1  6  0  0  0
 10  6  1  0  0  0  0
 12 11  1  0  0  0  0
 14  4  1  0  0  0  0
 14  3  1  0  0  0  0
 15 29  1  6  0  0  0
 15  1  1  0  0  0  0
 16  2  1  0  0  0  0
 16  7  1  0  0  0  0
 17  1  1  0  0  0  0
 18 20  1  0  0  0  0
 19 18  2  0  0  0  0
 20 22  2  0  0  0  0
 21 20  1  0  0  0  0
 23 24  1  0  0  0  0
 24 19  1  0  0  0  0
 24 21  2  0  0  0  0
 25 26  1  0  0  0  0
 27 25  2  0  0  0  0
 28 25  1  0  0  0  0
 29 30  1  0  0  0  0
 30 31  1  0  0  0  0
 31 32  2  0  0  0  0
M  END
>  <MODEL>
8

>  <REMARK>
 VINA RESULT:      -6.1      4.728      6.929
  Name = 
  5 active torsions:
  status: ('A' for Active; 'I' for Inactive)
    1  A    between atoms: P_1  and  C_17
    2  A    between atoms: C_4  and  C_13
    3  A    between atoms: C_5  and  O_28
    4  A    between atoms: C_14  and  C_26
    5  A    between atoms: C_14  and  O_28
                            x       y       z     vdW  Elec       q    Type
                         _______ _______ _______ _____ _____    ______ ____

>  <TORSDO>
F 5

$$$$
=
 OpenBabel11062419083D

 32 35  0  0  1  0  0  0  0  0999 V2000
  191.9710  173.4720  143.9600 C   0  0  1  0  0  3  0  0  0  0  0  0
  190.6790  174.3700  141.9290 C   0  0  1  0  0  3  0  0  0  0  0  0
  194.3100  170.4770  145.3120 C   0  0  0  0  0  2  0  0  0  0  0  0
  194.2720  172.3350  143.7280 C   0  0  1  0  0  3  0  0  0  0  0  0
  193.4740  173.5400  144.2370 C   0  0  0  0  0  2  0  0  0  0  0  0
  192.7670  170.3630  143.3880 C   0  0  0  0  0  3  0  0  0  0  0  0
  189.7040  174.4830  144.2950 C   0  0  2  0  0  3  0  0  0  0  0  0
  191.1120  171.8710  142.1810 C   0  0  2  0  0  3  0  0  0  0  0  0
  190.1360  171.4720  143.1030 O   0  0  0  0  0  1  0  0  0  0  0  0
  192.2410  170.8440  142.0620 C   0  0  2  0  0  3  0  0  0  0  0  0
  195.3860  171.4000  145.6600 N   0  0  0  0  0  2  0  0  0  0  0  0
  195.5730  172.2840  144.5050 C   0  0  0  0  0  2  0  0  0  0  0  0
  190.3360  174.1290  140.5980 O   0  0  0  0  0  1  0  0  0  0  0  0
  193.6490  171.0520  144.1230 C   0  0  0  0  0  0  0  0  0  0  0  0
  191.1930  174.5970  144.6670 C   0  0  2  0  0  3  0  0  0  0  0  0
  189.4190  174.5430  142.7830 C   0  0  0  0  0  2  0  0  0  0  0  0
  191.6320  173.2860  142.4650 C   0  0  2  0  0  3  0  0  0  0  0  0
  188.8140  175.3840  145.1000 C   0  0  0  0  0  0  0  0  0  0  0  0
  188.1220  176.4210  144.6440 C   0  0  0  0  0  3  0  0  0  0  0  0
  188.6540  175.3650  146.5440 C   0  0  0  0  0  0  0  0  0  0  0  0
  187.8470  176.4600  146.9440 N   0  0  0  0  0  0  0  0  0  0  0  0
  189.4240  174.7260  147.3600 N   0  0  0  0  0  2  0  0  0  0  0  0
  186.7160  178.2110  145.7950 N   0  0  0  0  0  1  0  0  0  0  0  0
  187.5250  177.0420  145.8350 C   0  0  0  0  0  0  0  0  0  0  0  0
  191.6860  169.4210  141.0760 P   0  0  0  0  0  0  0  0  0  0  0  0
  190.8080  168.3620  142.0610 O   0  0  0  0  0  1  0  0  0  0  0  0
  190.7030  169.9500  139.8070 O   0  0  0  0  0  0  0  0  0  0  0  0
  192.8880  168.6970  140.5140 O   0  0  0  0  0  1  0  0  0  0  0  0
  191.7770  175.9830  144.3570 C   0  0  0  0  0  2  0  0  0  0  0  0
  191.9170  176.7500  145.5440 O   0  0  0  0  0  0  0  0  0  0  0  0
  192.6900  176.2860  146.6030 C   0  0  0  0  0  3  0  0  0  0  0  0
  194.0030  176.4460  146.5830 C   0  0  0  0  0  2  0  0  0  0  0  0
  1  5  1  6  0  0  0
  1 15  1  0  0  0  0
  2 13  1  6  0  0  0
  2 17  1  0  0  0  0
  2 16  1  0  0  0  0
  3 11  1  0  0  0  0
  4 14  1  0  0  0  0
  4  5  1  1  0  0  0
  4 12  1  0  0  0  0
  6 14  2  0  0  0  0
  7 15  1  0  0  0  0
  7 18  1  1  0  0  0
  8 17  1  0  0  0  0
  8  9  1  1  0  0  0
 10 25  1  6  0  0  0
 10  8  1  0  0  0  0
 10  6  1  0  0  0  0
 12 11  1  0  0  0  0
 14  3  1  0  0  0  0
 15 29  1  6  0  0  0
 16  7  1  0  0  0  0
 17  1  1  0  0  0  0
 18 20  1  0  0  0  0
 19 18  2  0  0  0  0
 19 24  1  0  0  0  0
 20 21  1  0  0  0  0
 20 22  2  0  0  0  0
 23 24  1  0  0  0  0
 24 21  2  0  0  0  0
 25 26  1  0  0  0  0
 27 25  2  0  0  0  0
 28 25  1  0  0  0  0
 29 30  1  0  0  0  0
 30 31  1  0  0  0  0
 32 31  2  0  0  0  0
M  END
>  <MODEL>
9

>  <REMARK>
 VINA RESULT:      -6.1      4.712      7.819
  Name = 
  5 active torsions:
  status: ('A' for Active; 'I' for Inactive)
    1  A    between atoms: P_1  and  C_17
    2  A    between atoms: C_4  and  C_13
    3  A    between atoms: C_5  and  O_28
    4  A    between atoms: C_14  and  C_26
    5  A    between atoms: C_14  and  O_28
                            x       y       z     vdW  Elec       q    Type
                         _______ _______ _______ _____ _____    ______ ____

>  <TORSDO>
F 5

$$$$
