=
 OpenBabel11062419333D

 40 41  0  0  1  0  0  0  0  0999 V2000
  189.9860  172.7910  143.8820 C   0  0  0  0  0  0  0  0  0  0  0  0
  189.7050  172.3170  145.0130 O   0  0  0  0  0  0  0  0  0  0  0  0
  189.6460  174.1470  143.5870 N   0  0  0  0  0  2  0  0  0  0  0  0
  189.8780  174.7510  142.2880 C   0  0  0  0  0  2  0  0  0  0  0  0
  188.4460  174.5360  141.2500 S   0  0  0  0  0  0  0  0  0  0  0  0
  188.8270  173.7520  140.0260 O   0  0  0  0  0  0  0  0  0  0  0  0
  187.4060  173.7710  142.0170 O   0  0  0  0  0  0  0  0  0  0  0  0
  187.7630  176.1180  140.7830 C   0  0  0  0  0  2  0  0  0  0  0  0
  188.7730  178.1030  141.6170 O   0  0  0  0  0  0  0  0  0  0  0  0
  187.2690  177.0510  143.0740 N   0  0  0  0  0  0  0  0  0  0  0  0
  187.9960  177.1370  141.8420 C   0  0  0  0  0  0  0  0  0  0  0  0
  187.4940  177.8910  144.1820 N   0  0  0  0  0  0  0  0  0  0  0  0
  184.4540  178.8160  146.1690 C   0  0  0  0  0  3  0  0  0  0  0  0
  186.5850  178.0520  145.2810 C   0  0  0  0  0  0  0  0  0  0  0  0
  186.1210  177.8970  147.6620 C   0  0  0  0  0  3  0  0  0  0  0  0
  185.3190  178.6270  145.0880 C   0  0  0  0  0  3  0  0  0  0  0  0
  186.9920  177.7010  146.5840 C   0  0  0  0  0  0  0  0  0  0  0  0
  184.8520  178.4470  147.4560 C   0  0  0  0  0  3  0  0  0  0  0  0
  188.3490  177.1350  146.8460 C   0  0  0  0  0  2  0  0  0  0  0  0
  189.6550  175.0600  147.1840 C   0  0  0  0  0  1  0  0  0  0  0  0
  188.2950  175.6190  146.8340 C   0  0  0  0  0  2  0  0  0  0  0  0
  190.6860  171.9340  142.8760 C   0  0  0  0  0  2  0  0  0  0  0  0
  192.1270  172.1340  142.9420 N   0  0  0  0  0  2  0  0  0  0  0  0
  193.5120  169.9070  143.4890 S   0  0  0  0  0  0  0  0  0  0  0  0
  193.0160  171.4300  143.8240 C   0  0  0  0  0  0  0  0  0  0  0  0
  193.5010  172.0450  144.9790 O   0  0  0  0  0  0  0  0  0  0  0  0
  195.8470  172.9370  145.8120 O   0  0  0  0  0  0  0  0  0  0  0  0
  194.7370  176.0250  144.9530 C   0  0  1  0  0  3  0  0  0  0  0  0
  195.8190  175.6410  142.9530 C   0  0  2  0  0  0  0  0  0  0  0  0
  194.6730  173.3020  144.9320 P   0  0  2  0  0  0  0  0  0  0  0  0
  193.9380  174.8530  145.5250 C   0  0  2  0  0  3  0  0  0  0  0  0
  194.6090  176.0780  143.5500 O   0  0  0  0  0  0  0  0  0  0  0  0
  195.1920  173.5480  143.3330 O   0  0  0  0  0  0  0  0  0  0  0  0
  196.2270  174.3680  143.4290 O   0  0  0  0  0  0  0  0  0  0  0  0
  192.6050  174.9230  145.1110 O   0  0  0  0  0  1  0  0  0  0  0  0
  196.8320  176.5710  143.2230 O   0  0  0  0  0  1  0  0  0  0  0  0
  196.7880  175.9430  140.7730 O   0  0  0  0  0  1  0  0  0  0  0  0
  195.6140  175.5880  141.4400 C   0  0  0  0  0  2  0  0  0  0  0  0
  194.3520  177.3580  145.5860 C   0  0  0  0  0  2  0  0  0  0  0  0
  194.4470  177.3000  146.9780 O   0  0  0  0  0  1  0  0  0  0  0  0
  1  2  2  0  0  0  0
  3  1  1  0  0  0  0
  4  3  1  0  0  0  0
  5  7  2  0  0  0  0
  5  4  1  0  0  0  0
  6  5  2  0  0  0  0
  8  5  1  0  0  0  0
  8 11  1  0  0  0  0
  9 11  2  0  0  0  0
 10 12  2  0  0  0  0
 11 10  1  0  0  0  0
 12 14  1  0  0  0  0
 13 18  1  0  0  0  0
 14 17  2  0  0  0  0
 16 14  1  0  0  0  0
 16 13  2  0  0  0  0
 17 19  1  0  0  0  0
 17 15  1  0  0  0  0
 18 15  2  0  0  0  0
 21 19  1  0  0  0  0
 21 20  1  0  0  0  0
 22 23  1  0  0  0  0
 22  1  1  0  0  0  0
 23 25  1  0  0  0  0
 24 25  2  0  0  0  0
 25 26  1  0  0  0  0
 28 31  1  0  0  0  0
 28 39  1  1  0  0  0
 29 36  1  1  0  0  0
 29 34  1  0  0  0  0
 29 32  1  0  0  0  0
 30 26  1  0  0  0  0
 30 31  1  0  0  0  0
 30 27  2  1  0  0  0
 31 35  1  6  0  0  0
 32 28  1  0  0  0  0
 33 34  1  0  0  0  0
 33 30  1  0  0  0  0
 37 38  1  0  0  0  0
 38 29  1  0  0  0  0
 39 40  1  0  0  0  0
M  END
>  <MODEL>
1

>  <REMARK>
 VINA RESULT:      -6.6      0.000      0.000
  Name = 
  15 active torsions:
  status: ('A' for Active; 'I' for Inactive)
    1  A    between atoms: C_1  and  S_6
    2  A    between atoms: C_1  and  N_39
    3  A    between atoms: S_6  and  C_15
    4  A    between atoms: C_8  and  C_11
    5  A    between atoms: C_8  and  N_24
    6  A    between atoms: C_9  and  C_18
    7  A    between atoms: N_10  and  C_13
    8  A    between atoms: N_10  and  N_25
    9  A    between atoms: C_14  and  C_28
   10  A    between atoms: C_15  and  C_37
   11  A    between atoms: P_16  and  O_34
   12  A    between atoms: C_22  and  C_40
   13  A    between atoms: N_24  and  C_35
   14  A    between atoms: C_26  and  C_40
   15  A    between atoms: O_34  and  C_35
                            x       y       z     vdW  Elec       q    Type
                         _______ _______ _______ _____ _____    ______ ____

>  <TORSDO>
F 15

$$$$
=
 OpenBabel11062419333D

 40 41  0  0  1  0  0  0  0  0999 V2000
  190.0390  172.7340  143.9180 C   0  0  0  0  0  0  0  0  0  0  0  0
  189.7320  172.2580  145.0410 O   0  0  0  0  0  0  0  0  0  0  0  0
  189.6880  174.0850  143.6110 N   0  0  0  0  0  2  0  0  0  0  0  0
  189.9490  174.6900  142.3190 C   0  0  0  0  0  2  0  0  0  0  0  0
  188.5540  174.4510  141.2370 S   0  0  0  0  0  0  0  0  0  0  0  0
  189.0030  173.7490  139.9870 O   0  0  0  0  0  0  0  0  0  0  0  0
  187.5410  173.5950  141.9420 O   0  0  0  0  0  0  0  0  0  0  0  0
  187.7960  176.0150  140.8300 C   0  0  0  0  0  2  0  0  0  0  0  0
  188.8270  178.0140  141.6040 O   0  0  0  0  0  0  0  0  0  0  0  0
  187.4300  176.9400  143.1490 N   0  0  0  0  0  0  0  0  0  0  0  0
  188.0780  177.0370  141.8750 C   0  0  0  0  0  0  0  0  0  0  0  0
  187.7100  177.7830  144.2420 N   0  0  0  0  0  0  0  0  0  0  0  0
  186.4270  177.0030  147.6760 C   0  0  0  0  0  3  0  0  0  0  0  0
  186.9350  177.8370  145.4490 C   0  0  0  0  0  0  0  0  0  0  0  0
  185.0530  178.7360  146.6970 C   0  0  0  0  0  3  0  0  0  0  0  0
  187.2110  176.9710  146.5190 C   0  0  0  0  0  3  0  0  0  0  0  0
  185.8350  178.7130  145.5360 C   0  0  0  0  0  0  0  0  0  0  0  0
  185.3510  177.8880  147.7670 C   0  0  0  0  0  3  0  0  0  0  0  0
  185.4700  179.6150  144.4030 C   0  0  0  0  0  2  0  0  0  0  0  0
  184.2010  178.2590  142.7670 C   0  0  0  0  0  1  0  0  0  0  0  0
  184.0870  179.2700  143.8840 C   0  0  0  0  0  2  0  0  0  0  0  0
  190.7820  171.8870  142.9350 C   0  0  0  0  0  2  0  0  0  0  0  0
  192.2170  172.1160  143.0390 N   0  0  0  0  0  2  0  0  0  0  0  0
  193.5570  169.8410  143.4930 S   0  0  0  0  0  0  0  0  0  0  0  0
  193.1100  171.3680  143.8780 C   0  0  0  0  0  0  0  0  0  0  0  0
  193.6440  171.9410  145.0340 O   0  0  0  0  0  0  0  0  0  0  0  0
  195.9620  172.8890  145.8840 O   0  0  0  0  0  0  0  0  0  0  0  0
  194.8050  175.9430  144.9660 C   0  0  1  0  0  3  0  0  0  0  0  0
  195.9200  175.5520  142.9860 C   0  0  2  0  0  0  0  0  0  0  0  0
  194.7920  173.2200  144.9830 P   0  0  2  0  0  0  0  0  0  0  0  0
  194.0200  174.7650  145.5440 C   0  0  2  0  0  3  0  0  0  0  0  0
  194.6940  175.9740  143.5610 O   0  0  0  0  0  0  0  0  0  0  0  0
  195.3270  173.4530  143.3880 O   0  0  0  0  0  0  0  0  0  0  0  0
  196.3450  174.2940  143.4850 O   0  0  0  0  0  0  0  0  0  0  0  0
  192.6920  174.8030  145.1130 O   0  0  0  0  0  1  0  0  0  0  0  0
  196.9110  176.5040  143.2550 O   0  0  0  0  0  1  0  0  0  0  0  0
  194.4410  175.8560  141.1130 O   0  0  0  0  0  1  0  0  0  0  0  0
  195.7360  175.4740  141.4710 C   0  0  0  0  0  2  0  0  0  0  0  0
  194.3860  177.2780  145.5740 C   0  0  0  0  0  2  0  0  0  0  0  0
  194.2770  177.1840  146.9630 O   0  0  0  0  0  1  0  0  0  0  0  0
  1  2  2  0  0  0  0
  3  1  1  0  0  0  0
  4  3  1  0  0  0  0
  5  7  2  0  0  0  0
  5  4  1  0  0  0  0
  6  5  2  0  0  0  0
  8  5  1  0  0  0  0
  8 11  1  0  0  0  0
  9 11  2  0  0  0  0
 10 12  2  0  0  0  0
 11 10  1  0  0  0  0
 12 14  1  0  0  0  0
 13 18  1  0  0  0  0
 14 17  2  0  0  0  0
 14 16  1  0  0  0  0
 15 18  2  0  0  0  0
 16 13  2  0  0  0  0
 17 15  1  0  0  0  0
 19 17  1  0  0  0  0
 20 21  1  0  0  0  0
 21 19  1  0  0  0  0
 22 23  1  0  0  0  0
 22  1  1  0  0  0  0
 23 25  1  0  0  0  0
 24 25  2  0  0  0  0
 25 26  1  0  0  0  0
 28 31  1  0  0  0  0
 28 39  1  1  0  0  0
 29 36  1  1  0  0  0
 29 34  1  0  0  0  0
 29 32  1  0  0  0  0
 30 26  1  0  0  0  0
 30 31  1  0  0  0  0
 30 27  2  1  0  0  0
 31 35  1  6  0  0  0
 32 28  1  0  0  0  0
 33 34  1  0  0  0  0
 33 30  1  0  0  0  0
 37 38  1  0  0  0  0
 38 29  1  0  0  0  0
 39 40  1  0  0  0  0
M  END
>  <MODEL>
2

>  <REMARK>
 VINA RESULT:      -6.4      0.775      1.942
  Name = 
  15 active torsions:
  status: ('A' for Active; 'I' for Inactive)
    1  A    between atoms: C_1  and  S_6
    2  A    between atoms: C_1  and  N_39
    3  A    between atoms: S_6  and  C_15
    4  A    between atoms: C_8  and  C_11
    5  A    between atoms: C_8  and  N_24
    6  A    between atoms: C_9  and  C_18
    7  A    between atoms: N_10  and  C_13
    8  A    between atoms: N_10  and  N_25
    9  A    between atoms: C_14  and  C_28
   10  A    between atoms: C_15  and  C_37
   11  A    between atoms: P_16  and  O_34
   12  A    between atoms: C_22  and  C_40
   13  A    between atoms: N_24  and  C_35
   14  A    between atoms: C_26  and  C_40
   15  A    between atoms: O_34  and  C_35
                            x       y       z     vdW  Elec       q    Type
                         _______ _______ _______ _____ _____    ______ ____

>  <TORSDO>
F 15

$$$$
=
 OpenBabel11062419333D

 40 41  0  0  1  0  0  0  0  0999 V2000
  193.8570  173.5100  140.9910 C   0  0  0  0  0  0  0  0  0  0  0  0
  194.8570  173.3870  140.2390 O   0  0  0  0  0  0  0  0  0  0  0  0
  192.5530  173.5970  140.4120 N   0  0  0  0  0  2  0  0  0  0  0  0
  191.3540  173.8020  141.2040 C   0  0  0  0  0  2  0  0  0  0  0  0
  190.2900  172.3780  141.0820 S   0  0  0  0  0  0  0  0  0  0  0  0
  189.9860  172.1020  139.6370 O   0  0  0  0  0  0  0  0  0  0  0  0
  191.0030  171.1930  141.6670 O   0  0  0  0  0  0  0  0  0  0  0  0
  188.7770  172.6410  141.9920 C   0  0  0  0  0  2  0  0  0  0  0  0
  188.2370  174.4340  140.5240 O   0  0  0  0  0  0  0  0  0  0  0  0
  187.5410  174.7080  142.7450 N   0  0  0  0  0  0  0  0  0  0  0  0
  188.2010  173.9830  141.7000 C   0  0  0  0  0  0  0  0  0  0  0  0
  187.0650  176.0270  142.6090 N   0  0  0  0  0  0  0  0  0  0  0  0
  186.7540  177.3830  146.0890 C   0  0  0  0  0  3  0  0  0  0  0  0
  186.7460  176.8950  143.7060 C   0  0  0  0  0  0  0  0  0  0  0  0
  185.6550  178.8950  144.5530 C   0  0  0  0  0  3  0  0  0  0  0  0
  187.1010  176.5510  145.0210 C   0  0  0  0  0  3  0  0  0  0  0  0
  186.0020  178.0700  143.4770 C   0  0  0  0  0  0  0  0  0  0  0  0
  186.0350  178.5580  145.8550 C   0  0  0  0  0  3  0  0  0  0  0  0
  185.5560  178.4490  142.1030 C   0  0  0  0  0  2  0  0  0  0  0  0
  183.7010  178.3340  140.4690 C   0  0  0  0  0  1  0  0  0  0  0  0
  184.1010  178.0700  141.9020 C   0  0  0  0  0  2  0  0  0  0  0  0
  194.0470  173.5440  142.4740 C   0  0  0  0  0  2  0  0  0  0  0  0
  195.4050  173.9510  142.8090 N   0  0  0  0  0  2  0  0  0  0  0  0
  196.7340  176.2460  143.1890 S   0  0  0  0  0  0  0  0  0  0  0  0
  195.7450  175.0390  143.6820 C   0  0  0  0  0  0  0  0  0  0  0  0
  195.2130  175.1060  144.9710 O   0  0  0  0  0  0  0  0  0  0  0  0
  194.4960  177.3890  146.0960 O   0  0  0  0  0  0  0  0  0  0  0  0
  191.3980  176.0340  146.3680 C   0  0  1  0  0  3  0  0  0  0  0  0
  190.9670  177.1130  144.3750 C   0  0  2  0  0  0  0  0  0  0  0  0
  193.9340  176.1770  145.3860 P   0  0  2  0  0  0  0  0  0  0  0  0
  192.7530  175.3350  146.4780 C   0  0  2  0  0  3  0  0  0  0  0  0
  190.8630  175.8810  145.0710 O   0  0  0  0  0  0  0  0  0  0  0  0
  193.1010  176.6530  143.9840 O   0  0  0  0  0  0  0  0  0  0  0  0
  192.2910  177.6230  144.3770 O   0  0  0  0  0  0  0  0  0  0  0  0
  192.6440  173.9950  146.0980 O   0  0  0  0  0  1  0  0  0  0  0  0
  190.1180  178.0560  144.9690 O   0  0  0  0  0  1  0  0  0  0  0  0
  189.8720  178.0360  142.4430 O   0  0  0  0  0  1  0  0  0  0  0  0
  190.4990  176.8910  142.9380 C   0  0  0  0  0  2  0  0  0  0  0  0
  190.4070  175.5570  147.4240 C   0  0  0  0  0  2  0  0  0  0  0  0
  189.5030  174.6380  146.8870 O   0  0  0  0  0  1  0  0  0  0  0  0
  1 22  1  0  0  0  0
  2  1  2  0  0  0  0
  3  1  1  0  0  0  0
  3  4  1  0  0  0  0
  5  4  1  0  0  0  0
  5  7  2  0  0  0  0
  5  8  1  0  0  0  0
  6  5  2  0  0  0  0
  9 11  2  0  0  0  0
 11  8  1  0  0  0  0
 11 10  1  0  0  0  0
 12 10  2  0  0  0  0
 12 14  1  0  0  0  0
 14 16  1  0  0  0  0
 15 18  2  0  0  0  0
 16 13  2  0  0  0  0
 17 14  2  0  0  0  0
 17 15  1  0  0  0  0
 18 13  1  0  0  0  0
 19 17  1  0  0  0  0
 20 21  1  0  0  0  0
 21 19  1  0  0  0  0
 22 23  1  0  0  0  0
 23 25  1  0  0  0  0
 24 25  2  0  0  0  0
 25 26  1  0  0  0  0
 26 30  1  0  0  0  0
 28 31  1  0  0  0  0
 28 39  1  1  0  0  0
 29 34  1  0  0  0  0
 29 36  1  1  0  0  0
 29 32  1  0  0  0  0
 30 27  2  1  0  0  0
 30 31  1  0  0  0  0
 31 35  1  6  0  0  0
 32 28  1  0  0  0  0
 33 34  1  0  0  0  0
 33 30  1  0  0  0  0
 37 38  1  0  0  0  0
 38 29  1  0  0  0  0
 40 39  1  0  0  0  0
M  END
>  <MODEL>
3

>  <REMARK>
 VINA RESULT:      -6.2      2.631      4.558
  Name = 
  15 active torsions:
  status: ('A' for Active; 'I' for Inactive)
    1  A    between atoms: C_1  and  S_6
    2  A    between atoms: C_1  and  N_39
    3  A    between atoms: S_6  and  C_15
    4  A    between atoms: C_8  and  C_11
    5  A    between atoms: C_8  and  N_24
    6  A    between atoms: C_9  and  C_18
    7  A    between atoms: N_10  and  C_13
    8  A    between atoms: N_10  and  N_25
    9  A    between atoms: C_14  and  C_28
   10  A    between atoms: C_15  and  C_37
   11  A    between atoms: P_16  and  O_34
   12  A    between atoms: C_22  and  C_40
   13  A    between atoms: N_24  and  C_35
   14  A    between atoms: C_26  and  C_40
   15  A    between atoms: O_34  and  C_35
                            x       y       z     vdW  Elec       q    Type
                         _______ _______ _______ _____ _____    ______ ____

>  <TORSDO>
F 15

$$$$
=
 OpenBabel11062419333D

 40 41  0  0  1  0  0  0  0  0999 V2000
  190.2700  174.3610  142.7770 C   0  0  0  0  0  0  0  0  0  0  0  0
  189.8620  174.8340  141.6860 O   0  0  0  0  0  0  0  0  0  0  0  0
  191.1220  175.1510  143.6080 N   0  0  0  0  0  2  0  0  0  0  0  0
  191.6870  174.6570  144.8510 C   0  0  0  0  0  2  0  0  0  0  0  0
  192.1630  176.0230  145.8910 S   0  0  0  0  0  0  0  0  0  0  0  0
  193.4180  175.6700  146.6380 O   0  0  0  0  0  0  0  0  0  0  0  0
  192.4300  177.2190  145.0230 O   0  0  0  0  0  0  0  0  0  0  0  0
  190.8560  176.4290  147.0360 C   0  0  0  0  0  2  0  0  0  0  0  0
  188.8100  175.2770  146.6550 O   0  0  0  0  0  0  0  0  0  0  0  0
  189.0210  177.3380  145.5620 N   0  0  0  0  0  2  0  0  0  0  0  0
  189.5180  176.2860  146.3970 C   0  0  0  0  0  0  0  0  0  0  0  0
  187.8260  177.2580  144.8200 N   0  0  0  0  0  2  0  0  0  0  0  0
  184.8490  178.1400  146.9190 C   0  0  0  0  0  3  0  0  0  0  0  0
  186.5710  177.8200  145.2330 C   0  0  0  0  0  0  0  0  0  0  0  0
  184.5330  179.0280  144.6920 C   0  0  0  0  0  3  0  0  0  0  0  0
  186.0890  177.6220  146.5360 C   0  0  0  0  0  3  0  0  0  0  0  0
  185.7750  178.5150  144.3010 C   0  0  0  0  0  0  0  0  0  0  0  0
  184.0720  178.8470  145.9990 C   0  0  0  0  0  3  0  0  0  0  0  0
  186.2220  178.7060  142.8890 C   0  0  0  0  0  2  0  0  0  0  0  0
  185.5290  178.1850  140.5710 C   0  0  0  0  0  1  0  0  0  0  0  0
  185.5730  177.6700  141.9900 C   0  0  0  0  0  2  0  0  0  0  0  0
  189.8430  172.9890  143.1930 C   0  0  0  0  0  2  0  0  0  0  0  0
  190.3020  171.9940  142.2330 N   0  0  0  0  0  2  0  0  0  0  0  0
  191.0910  169.4860  141.7200 S   0  0  0  0  0  0  0  0  0  0  0  0
  191.1810  170.9000  142.5380 C   0  0  0  0  0  0  0  0  0  0  0  0
  192.1570  171.0310  143.5280 O   0  0  0  0  0  0  0  0  0  0  0  0
  194.4070  170.6420  142.1940 O   0  0  0  0  0  0  0  0  0  0  0  0
  195.8810  172.6110  144.5300 C   0  0  1  0  0  3  0  0  0  0  0  0
  195.5220  174.3230  143.0280 C   0  0  2  0  0  0  0  0  0  0  0  0
  193.7500  171.5770  143.1850 P   0  0  2  0  0  0  0  0  0  0  0  0
  194.7310  171.6200  144.7120 C   0  0  2  0  0  3  0  0  0  0  0  0
  195.3870  173.9240  144.3820 O   0  0  0  0  0  0  0  0  0  0  0  0
  193.6970  173.1550  142.5550 O   0  0  0  0  0  0  0  0  0  0  0  0
  194.9270  173.3980  142.1310 O   0  0  0  0  0  0  0  0  0  0  0  0
  193.9140  172.0080  145.7770 O   0  0  0  0  0  1  0  0  0  0  0  0
  196.8810  174.4490  142.7120 O   0  0  0  0  0  1  0  0  0  0  0  0
  195.6750  176.5360  142.0970 O   0  0  0  0  0  1  0  0  0  0  0  0
  194.8690  175.6950  142.8660 C   0  0  0  0  0  2  0  0  0  0  0  0
  196.9000  172.5380  145.6620 C   0  0  0  0  0  2  0  0  0  0  0  0
  196.9610  173.7450  146.3620 O   0  0  0  0  0  1  0  0  0  0  0  0
  1 22  1  0  0  0  0
  1  3  1  0  0  0  0
  2  1  2  0  0  0  0
  3  4  1  0  0  0  0
  4  5  1  0  0  0  0
  5  6  2  0  0  0  0
  5  8  1  0  0  0  0
  7  5  2  0  0  0  0
 10 11  1  0  0  0  0
 11  9  2  0  0  0  0
 11  8  1  0  0  0  0
 12 14  1  0  0  0  0
 12 10  1  0  0  0  0
 14 16  2  0  0  0  0
 15 18  1  0  0  0  0
 16 13  1  0  0  0  0
 17 15  2  0  0  0  0
 17 14  1  0  0  0  0
 18 13  2  0  0  0  0
 19 17  1  0  0  0  0
 20 21  1  0  0  0  0
 21 19  1  0  0  0  0
 23 25  1  0  0  0  0
 23 22  1  0  0  0  0
 24 25  2  0  0  0  0
 25 26  1  0  0  0  0
 28 31  1  0  0  0  0
 28 39  1  1  0  0  0
 29 36  1  6  0  0  0
 29 32  1  0  0  0  0
 30 27  2  6  0  0  0
 30 26  1  0  0  0  0
 30 31  1  0  0  0  0
 31 35  1  1  0  0  0
 32 28  1  0  0  0  0
 33 30  1  0  0  0  0
 34 33  1  0  0  0  0
 34 29  1  0  0  0  0
 37 38  1  0  0  0  0
 38 29  1  0  0  0  0
 39 40  1  0  0  0  0
M  END
>  <MODEL>
4

>  <REMARK>
 VINA RESULT:      -6.2      2.166      3.942
  Name = 
  15 active torsions:
  status: ('A' for Active; 'I' for Inactive)
    1  A    between atoms: C_1  and  S_6
    2  A    between atoms: C_1  and  N_39
    3  A    between atoms: S_6  and  C_15
    4  A    between atoms: C_8  and  C_11
    5  A    between atoms: C_8  and  N_24
    6  A    between atoms: C_9  and  C_18
    7  A    between atoms: N_10  and  C_13
    8  A    between atoms: N_10  and  N_25
    9  A    between atoms: C_14  and  C_28
   10  A    between atoms: C_15  and  C_37
   11  A    between atoms: P_16  and  O_34
   12  A    between atoms: C_22  and  C_40
   13  A    between atoms: N_24  and  C_35
   14  A    between atoms: C_26  and  C_40
   15  A    between atoms: O_34  and  C_35
                            x       y       z     vdW  Elec       q    Type
                         _______ _______ _______ _____ _____    ______ ____

>  <TORSDO>
F 15

$$$$
=
 OpenBabel11062419333D

 40 41  0  0  1  0  0  0  0  0999 V2000
  195.7500  176.1260  144.1300 C   0  0  0  0  0  0  0  0  0  0  0  0
  196.4160  176.6770  143.2160 O   0  0  0  0  0  0  0  0  0  0  0  0
  194.9220  176.9280  144.9740 N   0  0  0  0  0  2  0  0  0  0  0  0
  194.1710  176.3800  146.0880 C   0  0  0  0  0  2  0  0  0  0  0  0
  192.4610  176.1750  145.6310 S   0  0  0  0  0  0  0  0  0  0  0  0
  192.1130  177.1490  144.5420 O   0  0  0  0  0  0  0  0  0  0  0  0
  192.2650  174.7770  145.1190 O   0  0  0  0  0  0  0  0  0  0  0  0
  191.3970  176.4200  147.0430 C   0  0  0  0  0  2  0  0  0  0  0  0
  189.5410  174.9560  147.3050 O   0  0  0  0  0  0  0  0  0  0  0  0
  189.1810  176.7930  145.8950 N   0  0  0  0  0  0  0  0  0  0  0  0
  190.0040  175.9870  146.7470 C   0  0  0  0  0  0  0  0  0  0  0  0
  187.8950  176.4200  145.4600 N   0  0  0  0  0  0  0  0  0  0  0  0
  186.7070  178.5180  142.5910 C   0  0  0  0  0  3  0  0  0  0  0  0
  187.0530  177.2250  144.6200 C   0  0  0  0  0  0  0  0  0  0  0  0
  184.9700  178.4270  144.2710 C   0  0  0  0  0  3  0  0  0  0  0  0
  187.5180  177.7030  143.3840 C   0  0  0  0  0  3  0  0  0  0  0  0
  185.7740  177.6070  145.0710 C   0  0  0  0  0  0  0  0  0  0  0  0
  185.4310  178.8770  143.0310 C   0  0  0  0  0  3  0  0  0  0  0  0
  185.2570  177.1670  146.4020 C   0  0  0  0  0  2  0  0  0  0  0  0
  186.4060  178.6720  147.9950 C   0  0  0  0  0  1  0  0  0  0  0  0
  185.0900  178.3630  147.3200 C   0  0  0  0  0  2  0  0  0  0  0  0
  195.8230  174.6420  144.3040 C   0  0  0  0  0  2  0  0  0  0  0  0
  195.4230  173.9600  143.0800 N   0  0  0  0  0  2  0  0  0  0  0  0
  194.3690  171.8380  144.3290 S   0  0  0  0  0  0  0  0  0  0  0  0
  194.5760  172.8020  143.0230 C   0  0  0  0  0  0  0  0  0  0  0  0
  193.8820  172.4880  141.8530 O   0  0  0  0  0  0  0  0  0  0  0  0
  192.4870  174.7270  141.6730 O   0  0  0  0  0  0  0  0  0  0  0  0
  189.7260  172.7580  141.7150 C   0  0  1  0  0  3  0  0  0  0  0  0
  189.8430  172.8820  139.4150 C   0  0  2  0  0  0  0  0  0  0  0  0
  192.3920  173.2360  141.4350 P   0  0  2  0  0  0  0  0  0  0  0  0
  191.0510  172.5510  142.4490 C   0  0  2  0  0  3  0  0  0  0  0  0
  189.6960  172.0070  140.5210 O   0  0  0  0  0  0  0  0  0  0  0  0
  192.0260  172.9240  139.8050 O   0  0  0  0  0  0  0  0  0  0  0  0
  190.9940  173.7050  139.5290 O   0  0  0  0  0  0  0  0  0  0  0  0
  191.2830  171.1900  142.6660 O   0  0  0  0  0  1  0  0  0  0  0  0
  188.7100  173.7000  139.3150 O   0  0  0  0  0  1  0  0  0  0  0  0
  189.8400  170.6790  138.4520 O   0  0  0  0  0  1  0  0  0  0  0  0
  189.9330  172.0370  138.1460 C   0  0  0  0  0  2  0  0  0  0  0  0
  188.5180  172.4370  142.5890 C   0  0  0  0  0  2  0  0  0  0  0  0
  187.3250  172.6850  141.9080 O   0  0  0  0  0  1  0  0  0  0  0  0
  1 22  1  0  0  0  0
  1  3  1  0  0  0  0
  2  1  2  0  0  0  0
  3  4  1  0  0  0  0
  5  4  1  0  0  0  0
  5  8  1  0  0  0  0
  6  5  2  0  0  0  0
  7  5  2  0  0  0  0
 10 11  1  0  0  0  0
 11  8  1  0  0  0  0
 11  9  2  0  0  0  0
 12 10  2  0  0  0  0
 13 18  2  0  0  0  0
 13 16  1  0  0  0  0
 14 17  1  0  0  0  0
 14 12  1  0  0  0  0
 15 17  2  0  0  0  0
 16 14  2  0  0  0  0
 17 19  1  0  0  0  0
 18 15  1  0  0  0  0
 19 21  1  0  0  0  0
 21 20  1  0  0  0  0
 23 22  1  0  0  0  0
 25 23  1  0  0  0  0
 25 24  2  0  0  0  0
 26 25  1  0  0  0  0
 28 31  1  0  0  0  0
 28 39  1  1  0  0  0
 29 36  1  6  0  0  0
 29 34  1  0  0  0  0
 29 32  1  0  0  0  0
 30 27  2  1  0  0  0
 30 26  1  0  0  0  0
 30 31  1  0  0  0  0
 31 35  1  6  0  0  0
 32 28  1  0  0  0  0
 33 30  1  0  0  0  0
 34 33  1  0  0  0  0
 38 37  1  0  0  0  0
 38 29  1  0  0  0  0
 40 39  1  0  0  0  0
M  END
>  <MODEL>
5

>  <REMARK>
 VINA RESULT:      -6.1      2.621      5.767
  Name = 
  15 active torsions:
  status: ('A' for Active; 'I' for Inactive)
    1  A    between atoms: C_1  and  S_6
    2  A    between atoms: C_1  and  N_39
    3  A    between atoms: S_6  and  C_15
    4  A    between atoms: C_8  and  C_11
    5  A    between atoms: C_8  and  N_24
    6  A    between atoms: C_9  and  C_18
    7  A    between atoms: N_10  and  C_13
    8  A    between atoms: N_10  and  N_25
    9  A    between atoms: C_14  and  C_28
   10  A    between atoms: C_15  and  C_37
   11  A    between atoms: P_16  and  O_34
   12  A    between atoms: C_22  and  C_40
   13  A    between atoms: N_24  and  C_35
   14  A    between atoms: C_26  and  C_40
   15  A    between atoms: O_34  and  C_35
                            x       y       z     vdW  Elec       q    Type
                         _______ _______ _______ _____ _____    ______ ____

>  <TORSDO>
F 15

$$$$
=
 OpenBabel11062419333D

 40 41  0  0  1  0  0  0  0  0999 V2000
  195.1690  173.2910  144.1370 C   0  0  0  0  0  0  0  0  0  0  0  0
  195.6780  172.9290  143.0460 O   0  0  0  0  0  0  0  0  0  0  0  0
  194.9990  174.6850  144.4020 N   0  0  0  0  0  2  0  0  0  0  0  0
  194.4780  175.1880  145.6600 C   0  0  0  0  0  2  0  0  0  0  0  0
  192.7900  175.7170  145.4550 S   0  0  0  0  0  0  0  0  0  0  0  0
  192.7290  176.8140  144.4300 O   0  0  0  0  0  0  0  0  0  0  0  0
  191.9760  174.5510  144.9720 O   0  0  0  0  0  0  0  0  0  0  0  0
  192.1120  176.2830  147.0060 C   0  0  0  0  0  2  0  0  0  0  0  0
  190.0760  175.2260  147.6360 O   0  0  0  0  0  0  0  0  0  0  0  0
  189.8430  177.1950  146.3880 N   0  0  0  0  0  2  0  0  0  0  0  0
  190.6280  176.1740  147.0150 C   0  0  0  0  0  0  0  0  0  0  0  0
  188.4430  177.1340  146.2390 N   0  0  0  0  0  2  0  0  0  0  0  0
  187.7470  177.9060  142.6380 C   0  0  0  0  0  3  0  0  0  0  0  0
  187.7480  177.3070  144.9950 C   0  0  0  0  0  0  0  0  0  0  0  0
  185.6640  177.3680  143.7450 C   0  0  0  0  0  3  0  0  0  0  0  0
  188.4360  177.7010  143.8360 C   0  0  0  0  0  3  0  0  0  0  0  0
  186.3480  177.1570  144.9480 C   0  0  0  0  0  0  0  0  0  0  0  0
  186.3610  177.7350  142.5900 C   0  0  0  0  0  3  0  0  0  0  0  0
  185.5660  176.7920  146.1670 C   0  0  0  0  0  2  0  0  0  0  0  0
  185.4260  179.0020  147.2720 C   0  0  0  0  0  1  0  0  0  0  0  0
  184.6400  177.9290  146.5560 C   0  0  0  0  0  2  0  0  0  0  0  0
  194.7340  172.2580  145.1280 C   0  0  0  0  0  2  0  0  0  0  0  0
  193.4700  171.6570  144.7240 N   0  0  0  0  0  2  0  0  0  0  0  0
  193.5020  168.9810  144.6220 S   0  0  0  0  0  0  0  0  0  0  0  0
  193.3420  170.4600  143.9410 C   0  0  0  0  0  0  0  0  0  0  0  0
  193.0480  170.5330  142.5780 O   0  0  0  0  0  0  0  0  0  0  0  0
  190.7240  169.4030  142.0170 O   0  0  0  0  0  0  0  0  0  0  0  0
  190.1630  172.0630  139.9900 C   0  0  1  0  0  3  0  0  0  0  0  0
  189.0600  172.9630  141.8040 C   0  0  2  0  0  0  0  0  0  0  0  0
  191.4450  170.7320  141.9890 P   0  0  2  0  0  0  0  0  0  0  0  0
  191.4870  171.3570  140.2860 C   0  0  2  0  0  3  0  0  0  0  0  0
  190.0220  173.2140  140.7930 O   0  0  0  0  0  0  0  0  0  0  0  0
  190.6170  171.8690  142.9430 O   0  0  0  0  0  0  0  0  0  0  0  0
  189.3550  171.7930  142.5510 O   0  0  0  0  0  0  0  0  0  0  0  0
  192.5560  172.2440  140.1420 O   0  0  0  0  0  1  0  0  0  0  0  0
  187.7960  172.8180  141.2180 O   0  0  0  0  0  1  0  0  0  0  0  0
  189.9740  175.1170  142.3580 O   0  0  0  0  0  1  0  0  0  0  0  0
  189.0160  174.1740  142.7340 C   0  0  0  0  0  2  0  0  0  0  0  0
  190.0020  172.4080  138.5130 C   0  0  0  0  0  2  0  0  0  0  0  0
  189.9280  173.7900  138.3250 O   0  0  0  0  0  1  0  0  0  0  0  0
  1  3  1  0  0  0  0
  1 22  1  0  0  0  0
  2  1  2  0  0  0  0
  3  4  1  0  0  0  0
  5  4  1  0  0  0  0
  5  8  1  0  0  0  0
  6  5  2  0  0  0  0
  7  5  2  0  0  0  0
  8 11  1  0  0  0  0
 10 11  1  0  0  0  0
 11  9  2  0  0  0  0
 12 10  1  0  0  0  0
 13 16  1  0  0  0  0
 14 12  1  0  0  0  0
 15 17  2  0  0  0  0
 16 14  2  0  0  0  0
 17 14  1  0  0  0  0
 17 19  1  0  0  0  0
 18 13  2  0  0  0  0
 18 15  1  0  0  0  0
 19 21  1  0  0  0  0
 21 20  1  0  0  0  0
 23 22  1  0  0  0  0
 25 24  2  0  0  0  0
 25 23  1  0  0  0  0
 26 25  1  0  0  0  0
 28 39  1  6  0  0  0
 28 31  1  0  0  0  0
 28 32  1  0  0  0  0
 29 36  1  6  0  0  0
 29 34  1  0  0  0  0
 29 38  1  0  0  0  0
 30 27  2  1  0  0  0
 30 26  1  0  0  0  0
 30 33  1  0  0  0  0
 31 35  1  1  0  0  0
 31 30  1  0  0  0  0
 32 29  1  0  0  0  0
 34 33  1  0  0  0  0
 37 38  1  0  0  0  0
 40 39  1  0  0  0  0
M  END
>  <MODEL>
6

>  <REMARK>
 VINA RESULT:      -6.1      2.638      5.854
  Name = 
  15 active torsions:
  status: ('A' for Active; 'I' for Inactive)
    1  A    between atoms: C_1  and  S_6
    2  A    between atoms: C_1  and  N_39
    3  A    between atoms: S_6  and  C_15
    4  A    between atoms: C_8  and  C_11
    5  A    between atoms: C_8  and  N_24
    6  A    between atoms: C_9  and  C_18
    7  A    between atoms: N_10  and  C_13
    8  A    between atoms: N_10  and  N_25
    9  A    between atoms: C_14  and  C_28
   10  A    between atoms: C_15  and  C_37
   11  A    between atoms: P_16  and  O_34
   12  A    between atoms: C_22  and  C_40
   13  A    between atoms: N_24  and  C_35
   14  A    between atoms: C_26  and  C_40
   15  A    between atoms: O_34  and  C_35
                            x       y       z     vdW  Elec       q    Type
                         _______ _______ _______ _____ _____    ______ ____

>  <TORSDO>
F 15

$$$$
=
 OpenBabel11062419333D

 40 41  0  0  1  0  0  0  0  0999 V2000
  190.9000  172.2160  144.2690 C   0  0  0  0  0  0  0  0  0  0  0  0
  191.9740  171.6630  144.6190 O   0  0  0  0  0  0  0  0  0  0  0  0
  190.1450  171.6590  143.1920 N   0  0  0  0  0  2  0  0  0  0  0  0
  188.9300  172.2700  142.6850 C   0  0  0  0  0  2  0  0  0  0  0  0
  189.1510  172.7540  140.9850 S   0  0  0  0  0  0  0  0  0  0  0  0
  190.1000  171.8030  140.3130 O   0  0  0  0  0  0  0  0  0  0  0  0
  187.8220  172.6910  140.2900 O   0  0  0  0  0  0  0  0  0  0  0  0
  189.7730  174.4240  140.8800 C   0  0  0  0  0  2  0  0  0  0  0  0
  187.7860  175.7090  140.6320 O   0  0  0  0  0  0  0  0  0  0  0  0
  188.8720  175.9250  142.6970 N   0  0  0  0  0  2  0  0  0  0  0  0
  188.7630  175.4040  141.3670 C   0  0  0  0  0  0  0  0  0  0  0  0
  188.0430  176.9380  143.2170 N   0  0  0  0  0  2  0  0  0  0  0  0
  187.4700  176.4130  146.8830 C   0  0  0  0  0  3  0  0  0  0  0  0
  187.4000  176.8870  144.4990 C   0  0  0  0  0  0  0  0  0  0  0  0
  185.3840  177.0630  145.8450 C   0  0  0  0  0  3  0  0  0  0  0  0
  188.1120  176.4980  145.6450 C   0  0  0  0  0  3  0  0  0  0  0  0
  186.0200  177.1540  144.6020 C   0  0  0  0  0  0  0  0  0  0  0  0
  186.1070  176.6990  146.9850 C   0  0  0  0  0  3  0  0  0  0  0  0
  185.2100  177.5200  143.4020 C   0  0  0  0  0  2  0  0  0  0  0  0
  185.5600  179.7940  144.3130 C   0  0  0  0  0  1  0  0  0  0  0  0
  185.4280  178.9790  143.0480 C   0  0  0  0  0  2  0  0  0  0  0  0
  190.4260  173.4330  144.9970 C   0  0  0  0  0  2  0  0  0  0  0  0
  191.3290  174.5540  144.7700 N   0  0  0  0  0  2  0  0  0  0  0  0
  191.2580  175.3410  147.3300 S   0  0  0  0  0  0  0  0  0  0  0  0
  191.7230  175.5070  145.7690 C   0  0  0  0  0  0  0  0  0  0  0  0
  192.5410  176.5870  145.4350 O   0  0  0  0  0  0  0  0  0  0  0  0
  194.9430  177.4900  146.0730 O   0  0  0  0  0  0  0  0  0  0  0  0
  196.0370  175.9450  143.2580 C   0  0  1  0  0  3  0  0  0  0  0  0
  196.5460  174.1850  144.6580 C   0  0  2  0  0  0  0  0  0  0  0  0
  194.2430  176.4320  145.2490 P   0  0  2  0  0  0  0  0  0  0  0  0
  194.6940  176.6360  143.5020 C   0  0  2  0  0  3  0  0  0  0  0  0
  195.9190  174.5520  143.4400 O   0  0  0  0  0  0  0  0  0  0  0  0
  194.7390  174.8830  145.7380 O   0  0  0  0  0  0  0  0  0  0  0  0
  196.0610  174.9350  145.7610 O   0  0  0  0  0  0  0  0  0  0  0  0
  193.7010  176.0730  142.6970 O   0  0  0  0  0  1  0  0  0  0  0  0
  197.9280  174.3840  144.5480 O   0  0  0  0  0  1  0  0  0  0  0  0
  196.7850  172.3090  146.1440 O   0  0  0  0  0  1  0  0  0  0  0  0
  196.2980  172.6970  144.8950 C   0  0  0  0  0  2  0  0  0  0  0  0
  196.6180  176.2680  141.8860 C   0  0  0  0  0  2  0  0  0  0  0  0
  197.2200  175.1420  141.3190 O   0  0  0  0  0  1  0  0  0  0  0  0
  1  2  2  0  0  0  0
  1 22  1  0  0  0  0
  3  1  1  0  0  0  0
  4  3  1  0  0  0  0
  5  4  1  0  0  0  0
  6  5  2  0  0  0  0
  7  5  2  0  0  0  0
  8  5  1  0  0  0  0
  8 11  1  0  0  0  0
  9 11  2  0  0  0  0
 10 12  1  0  0  0  0
 11 10  1  0  0  0  0
 12 14  1  0  0  0  0
 13 18  1  0  0  0  0
 14 17  2  0  0  0  0
 14 16  1  0  0  0  0
 15 18  2  0  0  0  0
 16 13  2  0  0  0  0
 17 15  1  0  0  0  0
 19 17  1  0  0  0  0
 21 19  1  0  0  0  0
 21 20  1  0  0  0  0
 23 22  1  0  0  0  0
 23 25  1  0  0  0  0
 25 24  2  0  0  0  0
 26 25  1  0  0  0  0
 28 39  1  6  0  0  0
 28 32  1  0  0  0  0
 28 31  1  0  0  0  0
 29 36  1  6  0  0  0
 29 38  1  0  0  0  0
 29 34  1  0  0  0  0
 30 26  1  0  0  0  0
 30 33  1  0  0  0  0
 30 27  2  1  0  0  0
 31 35  1  6  0  0  0
 31 30  1  0  0  0  0
 32 29  1  0  0  0  0
 33 34  1  0  0  0  0
 38 37  1  0  0  0  0
 40 39  1  0  0  0  0
M  END
>  <MODEL>
7

>  <REMARK>
 VINA RESULT:      -6.0      2.048      3.632
  Name = 
  15 active torsions:
  status: ('A' for Active; 'I' for Inactive)
    1  A    between atoms: C_1  and  S_6
    2  A    between atoms: C_1  and  N_39
    3  A    between atoms: S_6  and  C_15
    4  A    between atoms: C_8  and  C_11
    5  A    between atoms: C_8  and  N_24
    6  A    between atoms: C_9  and  C_18
    7  A    between atoms: N_10  and  C_13
    8  A    between atoms: N_10  and  N_25
    9  A    between atoms: C_14  and  C_28
   10  A    between atoms: C_15  and  C_37
   11  A    between atoms: P_16  and  O_34
   12  A    between atoms: C_22  and  C_40
   13  A    between atoms: N_24  and  C_35
   14  A    between atoms: C_26  and  C_40
   15  A    between atoms: O_34  and  C_35
                            x       y       z     vdW  Elec       q    Type
                         _______ _______ _______ _____ _____    ______ ____

>  <TORSDO>
F 15

$$$$
=
 OpenBabel11062419333D

 40 41  0  0  1  0  0  0  0  0999 V2000
  194.2490  172.8000  145.1980 C   0  0  0  0  0  0  0  0  0  0  0  0
  195.2220  172.3210  145.8350 O   0  0  0  0  0  0  0  0  0  0  0  0
  193.5220  173.8970  145.7530 N   0  0  0  0  0  2  0  0  0  0  0  0
  192.3500  174.4670  145.1140 C   0  0  0  0  0  2  0  0  0  0  0  0
  192.3240  176.2330  145.3480 S   0  0  0  0  0  0  0  0  0  0  0  0
  193.6720  176.6960  145.8220 O   0  0  0  0  0  0  0  0  0  0  0  0
  192.0170  176.8880  144.0320 O   0  0  0  0  0  0  0  0  0  0  0  0
  191.0630  176.6950  146.5240 C   0  0  0  0  0  2  0  0  0  0  0  0
  189.1100  175.3800  146.1830 O   0  0  0  0  0  0  0  0  0  0  0  0
  189.0460  177.5320  145.2600 N   0  0  0  0  0  2  0  0  0  0  0  0
  189.7010  176.4720  145.9660 C   0  0  0  0  0  0  0  0  0  0  0  0
  187.8120  177.3930  144.5960 N   0  0  0  0  0  2  0  0  0  0  0  0
  184.8810  177.6790  146.9150 C   0  0  0  0  0  3  0  0  0  0  0  0
  186.5440  177.7850  145.1430 C   0  0  0  0  0  0  0  0  0  0  0  0
  184.4100  178.9220  144.8940 C   0  0  0  0  0  3  0  0  0  0  0  0
  186.1330  177.3250  146.4050 C   0  0  0  0  0  3  0  0  0  0  0  0
  185.6640  178.5750  144.3770 C   0  0  0  0  0  0  0  0  0  0  0  0
  184.0210  178.4820  146.1610 C   0  0  0  0  0  3  0  0  0  0  0  0
  186.0350  179.0430  143.0080 C   0  0  0  0  0  2  0  0  0  0  0  0
  186.3030  177.3200  141.2510 C   0  0  0  0  0  1  0  0  0  0  0  0
  185.3140  178.2160  141.9600 C   0  0  0  0  0  2  0  0  0  0  0  0
  193.8840  172.2260  143.8670 C   0  0  0  0  0  2  0  0  0  0  0  0
  193.8700  170.7700  143.9200 N   0  0  0  0  0  2  0  0  0  0  0  0
  193.2950  168.2900  143.0870 S   0  0  0  0  0  0  0  0  0  0  0  0
  193.3400  169.9150  142.8960 C   0  0  0  0  0  0  0  0  0  0  0  0
  192.8210  170.4560  141.7190 O   0  0  0  0  0  0  0  0  0  0  0  0
  190.4020  169.4020  141.5490 O   0  0  0  0  0  0  0  0  0  0  0  0
  189.5140  172.2390  139.9150 C   0  0  1  0  0  3  0  0  0  0  0  0
  188.8270  172.9830  141.9870 C   0  0  2  0  0  0  0  0  0  0  0  0
  191.1380  170.7220  141.4890 P   0  0  2  0  0  0  0  0  0  0  0  0
  190.8510  171.4970  139.8730 C   0  0  2  0  0  3  0  0  0  0  0  0
  189.5710  173.3140  140.8260 O   0  0  0  0  0  0  0  0  0  0  0  0
  190.5520  171.7770  142.6850 O   0  0  0  0  0  0  0  0  0  0  0  0
  189.2350  171.7480  142.5540 O   0  0  0  0  0  0  0  0  0  0  0  0
  191.8930  172.3830  139.5910 O   0  0  0  0  0  1  0  0  0  0  0  0
  187.4670  172.9030  141.6610 O   0  0  0  0  0  1  0  0  0  0  0  0
  189.2920  175.3120  142.3640 O   0  0  0  0  0  1  0  0  0  0  0  0
  189.0050  174.1060  143.0060 C   0  0  0  0  0  2  0  0  0  0  0  0
  189.0680  172.7160  138.5370 C   0  0  0  0  0  2  0  0  0  0  0  0
  188.4200  173.9510  138.6190 O   0  0  0  0  0  1  0  0  0  0  0  0
  1  3  1  0  0  0  0
  1  2  2  0  0  0  0
  4  5  1  0  0  0  0
  4  3  1  0  0  0  0
  5  6  2  0  0  0  0
  5  8  1  0  0  0  0
  7  5  2  0  0  0  0
 10 11  1  0  0  0  0
 11  9  2  0  0  0  0
 11  8  1  0  0  0  0
 12 14  1  0  0  0  0
 12 10  1  0  0  0  0
 14 16  2  0  0  0  0
 15 18  1  0  0  0  0
 16 13  1  0  0  0  0
 17 15  2  0  0  0  0
 17 14  1  0  0  0  0
 18 13  2  0  0  0  0
 19 17  1  0  0  0  0
 20 21  1  0  0  0  0
 21 19  1  0  0  0  0
 22 23  1  0  0  0  0
 22  1  1  0  0  0  0
 25 24  2  0  0  0  0
 25 23  1  0  0  0  0
 26 25  1  0  0  0  0
 28 39  1  6  0  0  0
 28 32  1  0  0  0  0
 29 36  1  6  0  0  0
 29 34  1  0  0  0  0
 29 38  1  0  0  0  0
 30 27  2  1  0  0  0
 30 26  1  0  0  0  0
 30 33  1  0  0  0  0
 31 35  1  1  0  0  0
 31 28  1  0  0  0  0
 31 30  1  0  0  0  0
 32 29  1  0  0  0  0
 34 33  1  0  0  0  0
 37 38  1  0  0  0  0
 39 40  1  0  0  0  0
M  END
>  <MODEL>
8

>  <REMARK>
 VINA RESULT:      -6.0      2.692      5.823
  Name = 
  15 active torsions:
  status: ('A' for Active; 'I' for Inactive)
    1  A    between atoms: C_1  and  S_6
    2  A    between atoms: C_1  and  N_39
    3  A    between atoms: S_6  and  C_15
    4  A    between atoms: C_8  and  C_11
    5  A    between atoms: C_8  and  N_24
    6  A    between atoms: C_9  and  C_18
    7  A    between atoms: N_10  and  C_13
    8  A    between atoms: N_10  and  N_25
    9  A    between atoms: C_14  and  C_28
   10  A    between atoms: C_15  and  C_37
   11  A    between atoms: P_16  and  O_34
   12  A    between atoms: C_22  and  C_40
   13  A    between atoms: N_24  and  C_35
   14  A    between atoms: C_26  and  C_40
   15  A    between atoms: O_34  and  C_35
                            x       y       z     vdW  Elec       q    Type
                         _______ _______ _______ _____ _____    ______ ____

>  <TORSDO>
F 15

$$$$
=
 OpenBabel11062419333D

 40 41  0  0  1  0  0  0  0  0999 V2000
  195.7290  176.0790  144.0020 C   0  0  0  0  0  0  0  0  0  0  0  0
  196.1380  176.7270  143.0050 O   0  0  0  0  0  0  0  0  0  0  0  0
  194.8320  176.7030  144.9230 N   0  0  0  0  0  2  0  0  0  0  0  0
  194.3630  176.0470  146.1300 C   0  0  0  0  0  2  0  0  0  0  0  0
  192.5840  175.9460  146.1180 S   0  0  0  0  0  0  0  0  0  0  0  0
  192.1650  174.5160  145.9350 O   0  0  0  0  0  0  0  0  0  0  0  0
  192.0660  176.4430  147.4370 O   0  0  0  0  0  0  0  0  0  0  0  0
  191.9030  176.9620  144.8180 C   0  0  0  0  0  2  0  0  0  0  0  0
  190.3480  175.9130  143.3550 O   0  0  0  0  0  0  0  0  0  0  0  0
  189.4570  176.6950  145.3760 N   0  0  0  0  0  2  0  0  0  0  0  0
  190.5330  176.5120  144.4480 C   0  0  0  0  0  0  0  0  0  0  0  0
  188.1080  176.4130  145.0840 N   0  0  0  0  0  2  0  0  0  0  0  0
  185.8280  177.9360  147.6400 C   0  0  0  0  0  3  0  0  0  0  0  0
  186.9880  177.0860  145.6790 C   0  0  0  0  0  0  0  0  0  0  0  0
  184.7770  178.0730  145.4660 C   0  0  0  0  0  3  0  0  0  0  0  0
  186.9390  177.3150  147.0630 C   0  0  0  0  0  3  0  0  0  0  0  0
  185.8870  177.4550  144.8790 C   0  0  0  0  0  0  0  0  0  0  0  0
  184.7480  178.3190  146.8410 C   0  0  0  0  0  3  0  0  0  0  0  0
  185.8710  177.1840  143.4110 C   0  0  0  0  0  2  0  0  0  0  0  0
  187.6500  178.2580  142.0680 C   0  0  0  0  0  1  0  0  0  0  0  0
  186.2650  178.4320  142.6440 C   0  0  0  0  0  2  0  0  0  0  0  0
  196.1730  174.6640  144.1950 C   0  0  0  0  0  2  0  0  0  0  0  0
  196.6940  174.1140  142.9510 N   0  0  0  0  0  2  0  0  0  0  0  0
  196.2590  173.8960  140.3160 S   0  0  0  0  0  0  0  0  0  0  0  0
  195.8900  173.5920  141.8820 C   0  0  0  0  0  0  0  0  0  0  0  0
  194.7850  172.7840  142.1560 O   0  0  0  0  0  0  0  0  0  0  0  0
  193.1030  174.8130  142.3800 O   0  0  0  0  0  0  0  0  0  0  0  0
  190.6470  172.4790  142.5490 C   0  0  1  0  0  3  0  0  0  0  0  0
  190.4390  172.8190  140.2780 C   0  0  2  0  0  0  0  0  0  0  0  0
  193.1690  173.3500  142.0010 P   0  0  2  0  0  0  0  0  0  0  0  0
  192.0750  172.3970  143.0920 C   0  0  2  0  0  3  0  0  0  0  0  0
  190.5540  171.8380  141.2960 O   0  0  0  0  0  0  0  0  0  0  0  0
  192.6310  173.1330  140.4040 O   0  0  0  0  0  0  0  0  0  0  0  0
  191.4800  173.7820  140.3370 O   0  0  0  0  0  0  0  0  0  0  0  0
  192.5050  171.0690  143.1370 O   0  0  0  0  0  1  0  0  0  0  0  0
  189.2080  173.4750  140.4010 O   0  0  0  0  0  1  0  0  0  0  0  0
  190.0490  170.7830  139.0580 O   0  0  0  0  0  1  0  0  0  0  0  0
  190.4660  172.1090  138.9260 C   0  0  0  0  0  2  0  0  0  0  0  0
  189.6180  171.9180  143.5250 C   0  0  0  0  0  2  0  0  0  0  0  0
  189.7260  172.5300  144.7760 O   0  0  0  0  0  1  0  0  0  0  0  0
  1 22  1  0  0  0  0
  1  3  1  0  0  0  0
  2  1  2  0  0  0  0
  3  4  1  0  0  0  0
  5  4  1  0  0  0  0
  5  7  2  0  0  0  0
  6  5  2  0  0  0  0
  8  5  1  0  0  0  0
  9 11  2  0  0  0  0
 11  8  1  0  0  0  0
 11 10  1  0  0  0  0
 12 10  1  0  0  0  0
 12 14  1  0  0  0  0
 14 16  2  0  0  0  0
 15 18  1  0  0  0  0
 16 13  1  0  0  0  0
 17 15  2  0  0  0  0
 17 14  1  0  0  0  0
 18 13  2  0  0  0  0
 19 17  1  0  0  0  0
 20 21  1  0  0  0  0
 21 19  1  0  0  0  0
 23 22  1  0  0  0  0
 24 25  2  0  0  0  0
 25 26  1  0  0  0  0
 25 23  1  0  0  0  0
 28 31  1  0  0  0  0
 28 39  1  1  0  0  0
 29 34  1  0  0  0  0
 29 36  1  1  0  0  0
 29 32  1  0  0  0  0
 30 26  1  0  0  0  0
 30 27  2  1  0  0  0
 30 31  1  0  0  0  0
 31 35  1  6  0  0  0
 32 28  1  0  0  0  0
 33 30  1  0  0  0  0
 34 33  1  0  0  0  0
 38 37  1  0  0  0  0
 38 29  1  0  0  0  0
 39 40  1  0  0  0  0
M  END
>  <MODEL>
9

>  <REMARK>
 VINA RESULT:      -6.0      2.707      5.417
  Name = 
  15 active torsions:
  status: ('A' for Active; 'I' for Inactive)
    1  A    between atoms: C_1  and  S_6
    2  A    between atoms: C_1  and  N_39
    3  A    between atoms: S_6  and  C_15
    4  A    between atoms: C_8  and  C_11
    5  A    between atoms: C_8  and  N_24
    6  A    between atoms: C_9  and  C_18
    7  A    between atoms: N_10  and  C_13
    8  A    between atoms: N_10  and  N_25
    9  A    between atoms: C_14  and  C_28
   10  A    between atoms: C_15  and  C_37
   11  A    between atoms: P_16  and  O_34
   12  A    between atoms: C_22  and  C_40
   13  A    between atoms: N_24  and  C_35
   14  A    between atoms: C_26  and  C_40
   15  A    between atoms: O_34  and  C_35
                            x       y       z     vdW  Elec       q    Type
                         _______ _______ _______ _____ _____    ______ ____

>  <TORSDO>
F 15

$$$$
