=
 OpenBabel11062421053D

 68 74  0  0  1  0  0  0  0  0999 V2000
  193.3070  173.7750  136.2150 C   0  0  0  0  0  1  0  0  0  0  0  0
  194.6600  171.9330  137.1710 C   0  0  2  0  0  3  0  0  0  0  0  0
  189.1330  172.5160  139.0950 C   0  0  0  0  0  2  0  0  0  0  0  0
  190.5950  172.9320  139.1900 C   0  0  2  0  0  3  0  0  0  0  0  0
  193.5400  172.9410  137.4650 C   0  0  2  0  0  0  0  0  0  0  0  0
  188.4080  173.2520  140.1990 C   0  0  1  0  0  3  0  0  0  0  0  0
  195.3000  175.5640  142.5440 C   0  0  1  0  0  3  0  0  0  0  0  0
  192.2440  172.2130  137.8970 C   0  0  1  0  0  3  0  0  0  0  0  0
  196.5870  174.6100  143.5090 P   0  0  2  0  0  0  0  0  0  0  0  0
  195.6740  172.1850  139.1350 O   0  0  0  0  0  0  0  0  0  0  0  0
  194.0750  173.8630  138.5570 C   0  0  0  0  0  3  0  0  0  0  0  0
  190.6370  174.2620  139.9260 C   0  0  0  0  0  2  0  0  0  0  0  0
  191.1360  173.0690  137.9090 O   0  0  0  0  0  0  0  0  0  0  0  0
  195.5130  173.2500  144.2120 C   0  0  2  0  0  3  0  0  0  0  0  0
  194.5330  170.4740  137.2340 C   0  0  1  0  0  0  0  0  0  0  0  0
  193.0670  173.0340  144.2350 C   0  0  0  0  0  3  0  0  0  0  0  0
  195.7200  174.4010  140.3270 C   0  0  0  0  0  2  0  0  0  0  0  0
  190.0500  175.1590  142.7400 C   0  0  0  0  0  2  0  0  0  0  0  0
  188.4230  172.3850  141.4470 C   0  0  0  0  0  1  0  0  0  0  0  0
  195.1240  173.4760  139.3230 C   0  0  0  0  0  0  0  0  0  0  0  0
  196.5840  175.6350  144.9100 O   0  0  0  0  0  1  0  0  0  0  0  0
  191.8550  173.4300  144.4940 C   0  0  0  0  0  0  0  0  0  0  0  0
  194.8180  171.2040  138.5560 C   0  0  2  0  0  3  0  0  0  0  0  0
  195.8680  176.8770  142.0370 C   0  0  0  0  0  1  0  0  0  0  0  0
  189.6550  174.0120  143.6600 C   0  0  0  0  0  2  0  0  0  0  0  0
  189.2060  174.5440  140.3470 C   0  0  2  0  0  3  0  0  0  0  0  0
  194.7040  174.7290  141.4150 C   0  0  0  0  0  2  0  0  0  0  0  0
  193.0980  169.9090  137.1770 C   0  0  0  0  0  2  0  0  0  0  0  0
  189.0400  175.4140  141.6100 C   0  0  1  0  0  3  0  0  0  0  0  0
  194.2160  173.8100  144.7720 C   0  0  0  0  0  2  0  0  0  0  0  0
  190.6470  173.8550  144.7610 C   0  0  0  0  0  0  0  0  0  0  0  0
  191.7700  171.2810  135.7100 O   0  0  0  0  0  1  0  0  0  0  0  0
  191.9720  170.9530  137.0520 C   0  0  2  0  0  3  0  0  0  0  0  0
  187.1980  176.8710  142.0040 C   0  0  0  0  0  0  0  0  0  0  0  0
  187.5930  175.5510  142.0830 C   0  0  1  0  0  3  0  0  0  0  0  0
  187.1930  178.1180  142.4480 C   0  0  0  0  0  2  0  0  0  0  0  0
  186.7780  175.8240  141.0170 O   0  0  0  0  0  0  0  0  0  0  0  0
  196.2100  172.5790  145.2210 O   0  0  0  0  0  0  0  0  0  0  0  0
  196.7480  171.4480  144.6020 C   0  0  0  0  0  2  0  0  0  0  0  0
  195.8640  170.1130  146.5120 O   0  0  0  0  0  1  0  0  0  0  0  0
  196.8840  170.3520  145.5990 C   0  0  0  0  0  0  0  0  0  0  0  0
  197.9410  169.6700  145.6470 O   0  0  0  0  0  0  0  0  0  0  0  0
  190.1970  174.0560  146.1740 C   0  0  0  0  0  2  0  0  0  0  0  0
  188.8840  174.5720  146.2210 O   0  0  0  0  0  0  0  0  0  0  0  0
  188.0900  175.8960  147.8780 O   0  0  0  0  0  1  0  0  0  0  0  0
  188.8840  175.8950  146.7290 C   0  0  1  0  0  0  0  0  0  0  0  0
  190.5840  176.3950  147.2200 P   0  0  0  0  0  0  0  0  0  0  0  0
  191.3020  175.1730  148.1440 O   0  0  0  0  0  1  0  0  0  0  0  0
  190.5010  177.8120  148.1400 O   0  0  0  0  0  1  0  0  0  0  0  0
  191.4300  176.6540  145.9930 O   0  0  0  0  0  0  0  0  0  0  0  0
  188.2740  176.8810  145.7050 C   0  0  0  0  0  2  0  0  0  0  0  0
  186.0980  176.0800  145.2560 O   0  0  0  0  0  0  0  0  0  0  0  0
  186.7750  176.9730  145.7380 C   0  0  0  0  0  0  0  0  0  0  0  0
  187.0760  178.9600  147.1580 N   0  0  0  0  0  2  0  0  0  0  0  0
  186.1400  178.1120  147.9210 C   0  0  0  0  0  2  0  0  0  0  0  0
  185.0190  178.9060  145.7820 C   0  0  0  0  0  1  0  0  0  0  0  0
  186.1080  178.1000  146.4640 C   0  0  2  0  0  0  0  0  0  0  0  0
  195.6880  169.6280  136.6570 C   0  0  1  0  0  3  0  0  0  0  0  0
  195.7550  168.2070  137.2190 C   0  0  0  0  0  2  0  0  0  0  0  0
  196.5670  168.1740  138.5060 C   0  0  1  0  0  3  0  0  0  0  0  0
  197.6220  169.0820  138.4190 O   0  0  0  0  0  1  0  0  0  0  0  0
  196.2170  168.7050  140.8280 N   0  0  0  0  0  2  0  0  0  0  0  0
  195.7010  168.5340  139.6650 C   0  0  0  0  0  3  0  0  0  0  0  0
  195.6170  169.5680  135.1360 C   0  0  0  0  0  2  0  0  0  0  0  0
  197.0030  169.3620  134.5600 C   0  0  0  0  0  2  0  0  0  0  0  0
  197.8940  170.2640  135.1410 O   0  0  0  0  0  0  0  0  0  0  0  0
  197.6220  171.4800  134.5150 C   0  0  0  0  0  2  0  0  0  0  0  0
  197.9410  172.6230  135.4580 C   0  0  0  0  0  1  0  0  0  0  0  0
  1  5  1  0  0  0  0
  2 15  1  0  0  0  0
  2  5  1  0  0  0  0
  2 23  1  0  0  0  0
  3  4  1  0  0  0  0
  3  6  1  0  0  0  0
  4 12  1  0  0  0  0
  5  8  1  0  0  0  0
  5 11  1  0  0  0  0
  6 26  1  0  0  0  0
  6 19  1  0  0  0  0
  7  9  1  0  0  0  0
  8 13  1  0  0  0  0
  9 14  1  0  0  0  0
  9 21  1  0  0  0  0
 10 20  1  0  0  0  0
 11 20  2  0  0  0  0
 12 26  1  0  0  0  0
 13  4  1  0  0  0  0
 14 30  1  0  0  0  0
 14 38  1  0  0  0  0
 15 23  1  0  0  0  0
 16 22  2  0  0  0  0
 16 30  1  0  0  0  0
 17 27  1  0  0  0  0
 18 25  1  0  0  0  0
 20 17  1  0  0  0  0
 22 31  2  0  0  0  0
 23 10  1  0  0  0  0
 24  7  1  0  0  0  0
 25 31  1  0  0  0  0
 26 29  1  0  0  0  0
 27  7  1  0  0  0  0
 28 15  1  0  0  0  0
 29 35  1  0  0  0  0
 29 18  1  0  0  0  0
 31 43  1  0  0  0  0
 32 33  1  0  0  0  0
 33 28  1  0  0  0  0
 33  8  1  0  0  0  0
 34 35  1  0  0  0  0
 34 36  2  0  0  0  0
 37 34  1  0  0  0  0
 37 35  1  0  0  0  0
 39 38  1  0  0  0  0
 39 41  1  0  0  0  0
 41 42  2  0  0  0  0
 41 40  1  0  0  0  0
 43 44  1  0  0  0  0
 44 46  1  0  0  0  0
 46 47  1  0  0  0  0
 46 45  1  0  0  0  0
 47 49  1  0  0  0  0
 47 48  1  0  0  0  0
 50 47  2  0  0  0  0
 51 53  1  0  0  0  0
 51 46  1  0  0  0  0
 52 53  2  0  0  0  0
 53 57  1  0  0  0  0
 54 55  1  0  0  0  0
 56 57  1  0  0  0  0
 57 54  1  0  0  0  0
 57 55  1  0  0  0  0
 58 59  1  0  0  0  0
 58 15  1  0  0  0  0
 59 60  1  0  0  0  0
 60 63  1  0  0  0  0
 61 60  1  0  0  0  0
 63 62  2  0  0  0  0
 64 58  1  0  0  0  0
 65 64  1  0  0  0  0
 65 66  1  0  0  0  0
 67 66  1  0  0  0  0
 67 68  1  0  0  0  0
M  END
>  <MODEL>
1

>  <REMARK>
 VINA RESULT:      -4.2      0.000      0.000
  Name = 
  19 active torsions:
  status: ('A' for Active; 'I' for Inactive)
    1  A    between atoms: O_2  and  C_3
    2  A    between atoms: O_2  and  C_42
    3  A    between atoms: C_9  and  C_59
    4  A    between atoms: C_10  and  C_29
    5  A    between atoms: C_10  and  C_42
    6  A    between atoms: C_13  and  C_56
    7  A    between atoms: C_13  and  C_58
    8  A    between atoms: C_18  and  C_46
    9  A    between atoms: C_18  and  O_50
   10  A    between atoms: P_25  and  C_68
   11  A    between atoms: C_28  and  O_50
   12  A    between atoms: C_29  and  C_30
   13  A    between atoms: C_29  and  C_56
   14  A    between atoms: C_38  and  C_48
   15  A    between atoms: C_38  and  C_55
   16  A    between atoms: C_44  and  O_60
   17  A    between atoms: C_44  and  C_62
   18  A    between atoms: C_48  and  C_68
   19  A    between atoms: O_60  and  C_68
                            x       y       z     vdW  Elec       q    Type
                         _______ _______ _______ _____ _____    ______ ____

>  <TORSDO>
F 19

$$$$
=
 OpenBabel11062421053D

 68 74  0  0  1  0  0  0  0  0999 V2000
  191.5660  175.6960  146.6980 C   0  0  0  0  0  1  0  0  0  0  0  0
  190.6350  176.5960  144.5860 C   0  0  2  0  0  3  0  0  0  0  0  0
  191.4510  170.7820  144.9270 C   0  0  0  0  0  2  0  0  0  0  0  0
  192.0280  172.1620  144.6450 C   0  0  2  0  0  3  0  0  0  0  0  0
  191.5130  175.4920  145.1920 C   0  0  2  0  0  0  0  0  0  0  0  0
  192.5530  169.7910  144.6260 C   0  0  1  0  0  3  0  0  0  0  0  0
  196.5320  175.7350  141.9480 C   0  0  1  0  0  3  0  0  0  0  0  0
  190.9550  174.0910  144.8410 C   0  0  1  0  0  3  0  0  0  0  0  0
  196.3570  176.6140  140.3070 P   0  0  2  0  0  0  0  0  0  0  0  0
  191.9640  176.9680  142.8410 O   0  0  0  0  0  0  0  0  0  0  0  0
  192.9170  175.7110  144.6350 C   0  0  0  0  0  3  0  0  0  0  0  0
  193.5430  172.0430  144.7270 C   0  0  0  0  0  2  0  0  0  0  0  0
  191.5620  173.0780  145.5920 O   0  0  0  0  0  0  0  0  0  0  0  0
  195.4230  175.3090  139.3450 C   0  0  2  0  0  3  0  0  0  0  0  0
  189.4050  176.3830  143.8170 C   0  0  1  0  0  0  0  0  0  0  0  0
  194.9610  172.9670  139.9190 C   0  0  0  0  0  3  0  0  0  0  0  0
  194.4660  176.7570  143.0130 C   0  0  0  0  0  2  0  0  0  0  0  0
  195.6620  170.6660  143.0920 C   0  0  0  0  0  2  0  0  0  0  0  0
  192.4450  169.3770  143.1680 C   0  0  0  0  0  1  0  0  0  0  0  0
  193.0970  176.4530  143.5150 C   0  0  0  0  0  0  0  0  0  0  0  0
  197.9410  176.2320  139.7080 O   0  0  0  0  0  1  0  0  0  0  0  0
  195.2860  171.7550  140.2640 C   0  0  0  0  0  0  0  0  0  0  0  0
  190.7310  176.2840  143.0470 C   0  0  2  0  0  3  0  0  0  0  0  0
  197.4650  176.4970  142.8720 C   0  0  0  0  0  1  0  0  0  0  0  0
  195.1010  169.9500  141.8710 C   0  0  0  0  0  2  0  0  0  0  0  0
  193.8260  170.5680  144.9450 C   0  0  2  0  0  3  0  0  0  0  0  0
  195.1760  175.4740  142.5980 C   0  0  0  0  0  2  0  0  0  0  0  0
  188.7240  175.0080  143.9840 C   0  0  0  0  0  2  0  0  0  0  0  0
  195.1890  170.0660  144.4250 C   0  0  1  0  0  3  0  0  0  0  0  0
  196.0310  173.9330  139.5570 C   0  0  0  0  0  2  0  0  0  0  0  0
  195.6420  170.5460  140.6170 C   0  0  0  0  0  0  0  0  0  0  0  0
  188.9970  174.2660  146.2580 O   0  0  0  0  0  1  0  0  0  0  0  0
  189.4200  174.0290  144.9480 C   0  0  2  0  0  3  0  0  0  0  0  0
  196.6070  168.2690  145.0820 C   0  0  0  0  0  0  0  0  0  0  0  0
  195.3740  168.5520  144.5310 C   0  0  1  0  0  3  0  0  0  0  0  0
  197.9250  168.1680  145.0070 C   0  0  0  0  0  2  0  0  0  0  0  0
  195.3210  168.1670  145.8440 O   0  0  0  0  0  0  0  0  0  0  0  0
  195.4430  175.6280  137.9850 O   0  0  0  0  0  0  0  0  0  0  0  0
  194.0990  175.6890  137.6050 C   0  0  0  0  0  2  0  0  0  0  0  0
  193.2120  177.2810  135.9050 O   0  0  0  0  0  1  0  0  0  0  0  0
  194.0000  176.1760  136.2030 C   0  0  0  0  0  0  0  0  0  0  0  0
  194.5940  175.5620  135.2790 O   0  0  0  0  0  0  0  0  0  0  0  0
  196.4740  169.6950  139.7120 C   0  0  0  0  0  2  0  0  0  0  0  0
  195.6670  168.8310  138.9410 O   0  0  0  0  0  0  0  0  0  0  0  0
  196.2830  168.2760  136.8330 O   0  0  0  0  0  1  0  0  0  0  0  0
  195.6300  169.2530  137.5890 C   0  0  1  0  0  0  0  0  0  0  0  0
  193.8930  169.3560  136.9950 P   0  0  0  0  0  0  0  0  0  0  0  0
  193.8250  168.9920  135.3440 O   0  0  0  0  0  0  0  0  0  0  0  0
  193.3150  170.9260  137.2430 O   0  0  0  0  0  1  0  0  0  0  0  0
  193.0200  168.3850  137.7560 O   0  0  0  0  0  1  0  0  0  0  0  0
  196.3740  170.5970  137.4090 C   0  0  0  0  0  2  0  0  0  0  0  0
  197.1540  170.0700  135.2430 O   0  0  0  0  0  0  0  0  0  0  0  0
  196.7240  170.9350  135.9880 C   0  0  0  0  0  0  0  0  0  0  0  0
  197.4930  172.7700  134.5390 N   0  0  0  0  0  2  0  0  0  0  0  0
  197.2950  173.4100  135.8540 C   0  0  0  0  0  2  0  0  0  0  0  0
  195.0530  172.6430  134.9330 C   0  0  0  0  0  1  0  0  0  0  0  0
  196.4380  172.3030  135.4490 C   0  0  2  0  0  0  0  0  0  0  0  0
  188.5280  177.6160  143.5120 C   0  0  1  0  0  3  0  0  0  0  0  0
  188.2410  177.8180  142.0230 C   0  0  0  0  0  2  0  0  0  0  0  0
  187.1370  176.8820  141.5540 C   0  0  1  0  0  3  0  0  0  0  0  0
  185.9820  177.6170  141.2860 O   0  0  0  0  0  1  0  0  0  0  0  0
  187.1900  176.5900  139.1650 N   0  0  0  0  0  2  0  0  0  0  0  0
  187.5640  176.1670  140.3180 C   0  0  0  0  0  3  0  0  0  0  0  0
  187.2120  177.5540  144.2770 C   0  0  0  0  0  2  0  0  0  0  0  0
  187.2960  178.4120  145.5240 C   0  0  0  0  0  2  0  0  0  0  0  0
  187.5090  177.6030  146.6390 O   0  0  0  0  0  0  0  0  0  0  0  0
  186.4500  177.9000  147.4960 C   0  0  0  0  0  2  0  0  0  0  0  0
  186.9470  178.7580  148.6440 C   0  0  0  0  0  1  0  0  0  0  0  0
  2  5  1  0  0  0  0
  4 12  1  0  0  0  0
  4  3  1  0  0  0  0
  4 13  1  0  0  0  0
  5  1  1  0  0  0  0
  6  3  1  0  0  0  0
  6 26  1  0  0  0  0
  7 27  1  0  0  0  0
  7 24  1  0  0  0  0
  8 33  1  0  0  0  0
  8  5  1  0  0  0  0
  8 13  1  0  0  0  0
  9  7  1  0  0  0  0
 10 23  1  0  0  0  0
 10 20  1  0  0  0  0
 11  5  1  0  0  0  0
 12 26  1  0  0  0  0
 14 30  1  0  0  0  0
 14  9  1  0  0  0  0
 15 28  1  0  0  0  0
 15  2  1  0  0  0  0
 16 22  2  0  0  0  0
 17 20  1  0  0  0  0
 18 29  1  0  0  0  0
 19  6  1  0  0  0  0
 20 11  2  0  0  0  0
 21  9  1  0  0  0  0
 22 31  2  0  0  0  0
 23 15  1  0  0  0  0
 23  2  1  0  0  0  0
 25 18  1  0  0  0  0
 27 17  1  0  0  0  0
 28 33  1  0  0  0  0
 29 35  1  0  0  0  0
 29 26  1  0  0  0  0
 30 16  1  0  0  0  0
 31 25  1  0  0  0  0
 33 32  1  0  0  0  0
 34 37  1  0  0  0  0
 35 34  1  0  0  0  0
 35 37  1  0  0  0  0
 36 34  2  0  0  0  0
 38 14  1  0  0  0  0
 39 38  1  0  0  0  0
 40 41  1  0  0  0  0
 41 39  1  0  0  0  0
 42 41  2  0  0  0  0
 43 31  1  0  0  0  0
 44 43  1  0  0  0  0
 45 46  1  0  0  0  0
 46 44  1  0  0  0  0
 47 49  1  0  0  0  0
 47 46  1  0  0  0  0
 47 50  1  0  0  0  0
 48 47  2  0  0  0  0
 51 46  1  0  0  0  0
 52 53  2  0  0  0  0
 53 51  1  0  0  0  0
 54 57  1  0  0  0  0
 54 55  1  0  0  0  0
 56 57  1  0  0  0  0
 57 55  1  0  0  0  0
 57 53  1  0  0  0  0
 58 15  1  0  0  0  0
 58 64  1  0  0  0  0
 59 58  1  0  0  0  0
 60 59  1  0  0  0  0
 61 60  1  0  0  0  0
 62 63  2  0  0  0  0
 63 60  1  0  0  0  0
 64 65  1  0  0  0  0
 65 66  1  0  0  0  0
 66 67  1  0  0  0  0
 67 68  1  0  0  0  0
M  END
>  <MODEL>
2

>  <REMARK>
 VINA RESULT:      -3.0      2.926     11.166
  Name = 
  19 active torsions:
  status: ('A' for Active; 'I' for Inactive)
    1  A    between atoms: O_2  and  C_3
    2  A    between atoms: O_2  and  C_42
    3  A    between atoms: C_9  and  C_59
    4  A    between atoms: C_10  and  C_29
    5  A    between atoms: C_10  and  C_42
    6  A    between atoms: C_13  and  C_56
    7  A    between atoms: C_13  and  C_58
    8  A    between atoms: C_18  and  C_46
    9  A    between atoms: C_18  and  O_50
   10  A    between atoms: P_25  and  C_68
   11  A    between atoms: C_28  and  O_50
   12  A    between atoms: C_29  and  C_30
   13  A    between atoms: C_29  and  C_56
   14  A    between atoms: C_38  and  C_48
   15  A    between atoms: C_38  and  C_55
   16  A    between atoms: C_44  and  O_60
   17  A    between atoms: C_44  and  C_62
   18  A    between atoms: C_48  and  C_68
   19  A    between atoms: O_60  and  C_68
                            x       y       z     vdW  Elec       q    Type
                         _______ _______ _______ _____ _____    ______ ____

>  <TORSDO>
F 19

$$$$
=
 OpenBabel11062421053D

 68 74  0  0  1  0  0  0  0  0999 V2000
  186.5830  173.9360  142.8600 C   0  0  0  0  0  1  0  0  0  0  0  0
  188.0930  175.5390  143.9950 C   0  0  2  0  0  3  0  0  0  0  0  0
  188.9890  174.5670  138.2650 C   0  0  0  0  0  2  0  0  0  0  0  0
  189.2180  174.1400  139.7080 C   0  0  2  0  0  3  0  0  0  0  0  0
  187.9990  174.4910  142.8770 C   0  0  2  0  0  0  0  0  0  0  0  0
  189.7940  173.6160  137.4070 C   0  0  1  0  0  3  0  0  0  0  0  0
  192.6350  170.8660  143.9410 C   0  0  1  0  0  3  0  0  0  0  0  0
  188.3680  175.1130  141.5080 C   0  0  1  0  0  3  0  0  0  0  0  0
  193.9610  171.5970  145.0390 P   0  0  2  0  0  0  0  0  0  0  0  0
  190.0940  174.8820  144.7120 O   0  0  0  0  0  0  0  0  0  0  0  0
  188.9450  173.3610  143.2720 C   0  0  0  0  0  3  0  0  0  0  0  0
  189.6620  172.6850  139.6830 C   0  0  0  0  0  2  0  0  0  0  0  0
  188.0340  174.2730  140.4390 O   0  0  0  0  0  0  0  0  0  0  0  0
  194.7570  172.7810  143.8290 C   0  0  2  0  0  3  0  0  0  0  0  0
  188.4350  176.9530  143.8140 C   0  0  1  0  0  0  0  0  0  0  0  0
  194.4510  172.9870  141.4020 C   0  0  0  0  0  3  0  0  0  0  0  0
  190.7960  172.4660  144.6500 C   0  0  0  0  0  2  0  0  0  0  0  0
  192.1060  171.2210  138.7110 C   0  0  0  0  0  2  0  0  0  0  0  0
  191.1810  174.2030  137.2070 C   0  0  0  0  0  1  0  0  0  0  0  0
  189.9260  173.5800  144.1820 C   0  0  0  0  0  0  0  0  0  0  0  0
  195.1030  170.3030  144.8600 O   0  0  0  0  0  1  0  0  0  0  0  0
  194.4340  172.5450  140.1780 C   0  0  0  0  0  0  0  0  0  0  0  0
  189.6060  175.9630  143.9220 C   0  0  2  0  0  3  0  0  0  0  0  0
  191.9610  169.6870  144.6210 C   0  0  0  0  0  1  0  0  0  0  0  0
  193.1720  172.1500  138.1460 C   0  0  0  0  0  2  0  0  0  0  0  0
  189.7920  172.3220  138.2150 C   0  0  2  0  0  3  0  0  0  0  0  0
  191.6250  171.9180  143.4950 C   0  0  0  0  0  2  0  0  0  0  0  0
  188.2780  177.5160  142.3860 C   0  0  0  0  0  2  0  0  0  0  0  0
  190.8080  171.2070  137.8900 C   0  0  1  0  0  3  0  0  0  0  0  0
  194.9840  172.1160  142.4820 C   0  0  0  0  0  2  0  0  0  0  0  0
  194.4200  172.0740  138.9580 C   0  0  0  0  0  0  0  0  0  0  0  0
  186.3750  176.4810  141.3370 O   0  0  0  0  0  1  0  0  0  0  0  0
  187.7700  176.5210  141.3250 C   0  0  2  0  0  3  0  0  0  0  0  0
  191.5630  169.7240  136.1860 C   0  0  0  0  0  0  0  0  0  0  0  0
  191.0160  170.9740  136.3940 C   0  0  1  0  0  3  0  0  0  0  0  0
  192.5800  168.8770  136.2000 C   0  0  0  0  0  2  0  0  0  0  0  0
  190.1200  170.0440  135.9380 O   0  0  0  0  0  0  0  0  0  0  0  0
  195.9770  173.2260  144.3460 O   0  0  0  0  0  0  0  0  0  0  0  0
  195.8340  174.6100  144.4760 C   0  0  0  0  0  2  0  0  0  0  0  0
  194.5710  175.9830  146.1290 O   0  0  0  0  0  0  0  0  0  0  0  0
  195.4540  174.9420  145.8770 C   0  0  0  0  0  0  0  0  0  0  0  0
  195.9680  174.3080  146.8360 O   0  0  0  0  0  1  0  0  0  0  0  0
  195.6750  171.5830  138.3080 C   0  0  0  0  0  2  0  0  0  0  0  0
  195.8540  172.1690  137.0370 O   0  0  0  0  0  0  0  0  0  0  0  0
  197.9120  173.0140  137.4580 O   0  0  0  0  0  1  0  0  0  0  0  0
  196.5990  173.3700  137.1400 C   0  0  1  0  0  0  0  0  0  0  0  0
  196.6300  174.2480  135.5250 P   0  0  0  0  0  0  0  0  0  0  0  0
  196.7940  175.9130  135.7760 O   0  0  0  0  0  1  0  0  0  0  0  0
  195.1810  173.9490  134.7040 O   0  0  0  0  0  1  0  0  0  0  0  0
  197.7840  173.7550  134.6820 O   0  0  0  0  0  0  0  0  0  0  0  0
  196.0430  174.2710  138.2680 C   0  0  0  0  0  2  0  0  0  0  0  0
  197.8280  175.8150  138.1810 O   0  0  0  0  0  0  0  0  0  0  0  0
  197.0520  175.1930  138.8890 C   0  0  0  0  0  0  0  0  0  0  0  0
  195.6800  175.7350  140.8580 N   0  0  0  0  0  2  0  0  0  0  0  0
  196.7180  176.7830  140.8450 C   0  0  0  0  0  2  0  0  0  0  0  0
  197.7930  174.5250  141.3030 C   0  0  0  0  0  1  0  0  0  0  0  0
  197.0330  175.4440  140.3650 C   0  0  2  0  0  0  0  0  0  0  0  0
  188.2280  177.9000  145.0150 C   0  0  1  0  0  3  0  0  0  0  0  0
  187.0380  177.5260  145.8990 C   0  0  0  0  0  2  0  0  0  0  0  0
  185.8510  178.4380  145.6210 C   0  0  1  0  0  3  0  0  0  0  0  0
  186.2790  179.7650  145.5820 O   0  0  0  0  0  1  0  0  0  0  0  0
  184.9490  178.9990  143.4600 N   0  0  0  0  0  2  0  0  0  0  0  0
  185.2290  178.0820  144.3130 C   0  0  0  0  0  3  0  0  0  0  0  0
  189.4870  177.9850  145.8690 C   0  0  0  0  0  2  0  0  0  0  0  0
  189.5170  176.8410  146.8620 C   0  0  0  0  0  2  0  0  0  0  0  0
  190.2950  177.1940  147.9640 O   0  0  0  0  0  0  0  0  0  0  0  0
  191.5000  176.5200  147.7750 C   0  0  0  0  0  2  0  0  0  0  0  0
  192.6320  177.3110  148.4010 C   0  0  0  0  0  1  0  0  0  0  0  0
  1  5  1  0  0  0  0
  3  4  1  0  0  0  0
  4 13  1  0  0  0  0
  5 11  1  0  0  0  0
  5  2  1  0  0  0  0
  6 26  1  0  0  0  0
  6  3  1  0  0  0  0
  7 24  1  0  0  0  0
  7  9  1  0  0  0  0
  8  5  1  0  0  0  0
 11 20  2  0  0  0  0
 12  4  1  0  0  0  0
 13  8  1  0  0  0  0
 14 38  1  0  0  0  0
 14  9  1  0  0  0  0
 15 23  1  0  0  0  0
 15  2  1  0  0  0  0
 15 58  1  0  0  0  0
 16 30  1  0  0  0  0
 19  6  1  0  0  0  0
 20 17  1  0  0  0  0
 20 10  1  0  0  0  0
 21  9  1  0  0  0  0
 22 16  2  0  0  0  0
 23  2  1  0  0  0  0
 23 10  1  0  0  0  0
 25 18  1  0  0  0  0
 25 31  1  0  0  0  0
 26 12  1  0  0  0  0
 27  7  1  0  0  0  0
 27 17  1  0  0  0  0
 28 15  1  0  0  0  0
 29 26  1  0  0  0  0
 29 18  1  0  0  0  0
 30 14  1  0  0  0  0
 31 22  2  0  0  0  0
 33 32  1  0  0  0  0
 33  8  1  0  0  0  0
 33 28  1  0  0  0  0
 34 36  2  0  0  0  0
 34 35  1  0  0  0  0
 35 29  1  0  0  0  0
 37 34  1  0  0  0  0
 37 35  1  0  0  0  0
 38 39  1  0  0  0  0
 39 41  1  0  0  0  0
 41 40  2  0  0  0  0
 41 42  1  0  0  0  0
 43 31  1  0  0  0  0
 44 46  1  0  0  0  0
 44 43  1  0  0  0  0
 46 45  1  0  0  0  0
 46 51  1  0  0  0  0
 47 48  1  0  0  0  0
 47 46  1  0  0  0  0
 49 47  1  0  0  0  0
 50 47  2  0  0  0  0
 51 53  1  0  0  0  0
 52 53  2  0  0  0  0
 53 57  1  0  0  0  0
 55 54  1  0  0  0  0
 57 55  1  0  0  0  0
 57 54  1  0  0  0  0
 57 56  1  0  0  0  0
 58 64  1  0  0  0  0
 58 59  1  0  0  0  0
 60 59  1  0  0  0  0
 61 60  1  0  0  0  0
 62 63  2  0  0  0  0
 63 60  1  0  0  0  0
 64 65  1  0  0  0  0
 65 66  1  0  0  0  0
 67 66  1  0  0  0  0
 67 68  1  0  0  0  0
M  END
>  <MODEL>
3

>  <REMARK>
 VINA RESULT:      -2.6      2.522     10.208
  Name = 
  19 active torsions:
  status: ('A' for Active; 'I' for Inactive)
    1  A    between atoms: O_2  and  C_3
    2  A    between atoms: O_2  and  C_42
    3  A    between atoms: C_9  and  C_59
    4  A    between atoms: C_10  and  C_29
    5  A    between atoms: C_10  and  C_42
    6  A    between atoms: C_13  and  C_56
    7  A    between atoms: C_13  and  C_58
    8  A    between atoms: C_18  and  C_46
    9  A    between atoms: C_18  and  O_50
   10  A    between atoms: P_25  and  C_68
   11  A    between atoms: C_28  and  O_50
   12  A    between atoms: C_29  and  C_30
   13  A    between atoms: C_29  and  C_56
   14  A    between atoms: C_38  and  C_48
   15  A    between atoms: C_38  and  C_55
   16  A    between atoms: C_44  and  O_60
   17  A    between atoms: C_44  and  C_62
   18  A    between atoms: C_48  and  C_68
   19  A    between atoms: O_60  and  C_68
                            x       y       z     vdW  Elec       q    Type
                         _______ _______ _______ _____ _____    ______ ____

>  <TORSDO>
F 19

$$$$
=
 OpenBabel11062421053D

 68 74  0  0  1  0  0  0  0  0999 V2000
  196.6550  172.4580  143.4620 C   0  0  0  0  0  1  0  0  0  0  0  0
  196.5220  173.2060  141.1050 C   0  0  2  0  0  3  0  0  0  0  0  0
  194.0280  176.6350  145.1800 C   0  0  0  0  0  2  0  0  0  0  0  0
  193.9260  175.4320  144.2520 C   0  0  2  0  0  3  0  0  0  0  0  0
  195.7970  173.2120  142.4580 C   0  0  2  0  0  0  0  0  0  0  0  0
  192.6770  176.7760  145.8440 C   0  0  1  0  0  3  0  0  0  0  0  0
  190.3040  171.2540  141.1310 C   0  0  1  0  0  3  0  0  0  0  0  0
  195.5300  174.6610  142.9330 C   0  0  1  0  0  3  0  0  0  0  0  0
  189.8480  171.3780  139.3210 P   0  0  2  0  0  0  0  0  0  0  0  0
  194.6900  172.8130  139.9030 O   0  0  0  0  0  0  0  0  0  0  0  0
  194.5060  172.4240  142.2530 C   0  0  0  0  0  3  0  0  0  0  0  0
  192.7810  174.5670  144.7600 C   0  0  0  0  0  2  0  0  0  0  0  0
  195.1230  174.7110  144.2710 O   0  0  0  0  0  0  0  0  0  0  0  0
  189.5660  173.2220  139.1900 C   0  0  2  0  0  3  0  0  0  0  0  0
  196.9560  174.3940  140.3640 C   0  0  1  0  0  0  0  0  0  0  0  0
  189.4000  174.9150  140.9620 C   0  0  0  0  0  3  0  0  0  0  0  0
  192.8140  171.3810  140.7780 C   0  0  0  0  0  2  0  0  0  0  0  0
  189.7910  174.8750  144.9240 C   0  0  0  0  0  2  0  0  0  0  0  0
  191.8120  177.6900  144.9920 C   0  0  0  0  0  1  0  0  0  0  0  0
  194.0190  172.2280  141.0030 C   0  0  0  0  0  0  0  0  0  0  0  0
  188.1840  170.9160  139.5040 O   0  0  0  0  0  1  0  0  0  0  0  0
  188.9130  175.4300  142.0530 C   0  0  0  0  0  0  0  0  0  0  0  0
  195.4940  173.9560  140.1790 C   0  0  2  0  0  3  0  0  0  0  0  0
  190.3730  169.8030  141.5720 C   0  0  0  0  0  1  0  0  0  0  0  0
  189.2930  176.1830  144.3250 C   0  0  0  0  0  2  0  0  0  0  0  0
  192.1630  175.3410  145.9100 C   0  0  2  0  0  3  0  0  0  0  0  0
  191.5940  172.0060  141.4430 C   0  0  0  0  0  2  0  0  0  0  0  0
  197.0760  175.7000  141.1760 C   0  0  0  0  0  2  0  0  0  0  0  0
  190.6670  175.0670  146.1710 C   0  0  1  0  0  3  0  0  0  0  0  0
  188.7330  173.7330  140.3550 C   0  0  0  0  0  2  0  0  0  0  0  0
  188.4080  175.9230  143.1550 C   0  0  0  0  0  0  0  0  0  0  0  0
  197.8520  175.1780  143.3950 O   0  0  0  0  0  1  0  0  0  0  0  0
  196.7300  175.5910  142.6740 C   0  0  2  0  0  3  0  0  0  0  0  0
  189.4450  175.1990  148.2120 C   0  0  0  0  0  0  0  0  0  0  0  0
  190.0480  175.9690  147.2390 C   0  0  1  0  0  3  0  0  0  0  0  0
  188.4580  174.4330  148.6510 C   0  0  0  0  0  2  0  0  0  0  0  0
  190.7670  175.8780  148.4010 O   0  0  0  0  0  0  0  0  0  0  0  0
  188.9180  173.5110  137.9860 O   0  0  0  0  0  0  0  0  0  0  0  0
  189.9370  173.8810  137.1040 C   0  0  0  0  0  2  0  0  0  0  0  0
  189.6650  172.4940  135.0510 O   0  0  0  0  0  0  0  0  0  0  0  0
  189.4690  173.7060  135.7020 C   0  0  0  0  0  0  0  0  0  0  0  0
  188.9360  174.6680  135.0900 O   0  0  0  0  0  1  0  0  0  0  0  0
  186.9790  176.3610  143.2170 C   0  0  0  0  0  2  0  0  0  0  0  0
  186.8770  177.7050  143.6340 O   0  0  0  0  0  0  0  0  0  0  0  0
  185.8730  179.6970  143.2400 O   0  0  0  0  0  1  0  0  0  0  0  0
  185.7290  178.3180  143.0720 C   0  0  1  0  0  0  0  0  0  0  0  0
  185.6370  177.9780  141.2670 P   0  0  0  0  0  0  0  0  0  0  0  0
  185.4350  176.3200  141.0010 O   0  0  0  0  0  1  0  0  0  0  0  0
  187.0730  178.4890  140.5340 O   0  0  0  0  0  0  0  0  0  0  0  0
  184.4770  178.7270  140.6510 O   0  0  0  0  0  1  0  0  0  0  0  0
  184.4450  177.8610  143.8030 C   0  0  0  0  0  2  0  0  0  0  0  0
  183.3850  179.1300  145.4900 O   0  0  0  0  0  0  0  0  0  0  0  0
  184.3040  178.3780  145.2060 C   0  0  0  0  0  0  0  0  0  0  0  0
  184.9930  178.5780  147.5590 N   0  0  0  0  0  2  0  0  0  0  0  0
  186.2430  178.7780  146.8010 C   0  0  0  0  0  2  0  0  0  0  0  0
  185.4230  176.3920  146.4810 C   0  0  0  0  0  1  0  0  0  0  0  0
  185.2160  177.8820  146.2850 C   0  0  2  0  0  0  0  0  0  0  0  0
  197.8910  174.1820  139.1540 C   0  0  1  0  0  3  0  0  0  0  0  0
  197.9410  172.7360  138.6570 C   0  0  0  0  0  2  0  0  0  0  0  0
  197.1100  172.5710  137.3930 C   0  0  1  0  0  3  0  0  0  0  0  0
  197.9280  172.1490  136.3450 O   0  0  0  0  0  1  0  0  0  0  0  0
  195.5580  170.8960  136.6280 N   0  0  0  0  0  2  0  0  0  0  0  0
  196.0350  171.5620  137.6170 C   0  0  0  0  0  3  0  0  0  0  0  0
  197.5110  175.1010  138.0000 C   0  0  0  0  0  2  0  0  0  0  0  0
  196.1040  175.6280  138.1990 C   0  0  0  0  0  2  0  0  0  0  0  0
  195.4300  175.6420  136.9790 O   0  0  0  0  0  0  0  0  0  0  0  0
  194.0790  175.6170  137.3230 C   0  0  0  0  0  2  0  0  0  0  0  0
  193.2590  176.2550  136.2190 C   0  0  0  0  0  1  0  0  0  0  0  0
  2  5  1  0  0  0  0
  3  6  1  0  0  0  0
  4 13  1  0  0  0  0
  4 12  1  0  0  0  0
  4  3  1  0  0  0  0
  5  8  1  0  0  0  0
  5  1  1  0  0  0  0
  6 26  1  0  0  0  0
  7 27  1  0  0  0  0
  7 24  1  0  0  0  0
  8 13  1  0  0  0  0
  9 21  1  0  0  0  0
  9  7  1  0  0  0  0
 10 23  1  0  0  0  0
 10 20  1  0  0  0  0
 11  5  1  0  0  0  0
 12 26  1  0  0  0  0
 14  9  1  0  0  0  0
 14 30  1  0  0  0  0
 15  2  1  0  0  0  0
 15 28  1  0  0  0  0
 16 22  2  0  0  0  0
 17 20  1  0  0  0  0
 17 27  1  0  0  0  0
 18 29  1  0  0  0  0
 19  6  1  0  0  0  0
 20 11  2  0  0  0  0
 22 31  2  0  0  0  0
 23 15  1  0  0  0  0
 23  2  1  0  0  0  0
 25 18  1  0  0  0  0
 26 29  1  0  0  0  0
 28 33  1  0  0  0  0
 29 35  1  0  0  0  0
 30 16  1  0  0  0  0
 31 43  1  0  0  0  0
 31 25  1  0  0  0  0
 33  8  1  0  0  0  0
 33 32  1  0  0  0  0
 34 37  1  0  0  0  0
 34 36  2  0  0  0  0
 35 34  1  0  0  0  0
 35 37  1  0  0  0  0
 38 14  1  0  0  0  0
 39 38  1  0  0  0  0
 40 41  2  0  0  0  0
 41 39  1  0  0  0  0
 42 41  1  0  0  0  0
 43 44  1  0  0  0  0
 46 45  1  0  0  0  0
 46 44  1  0  0  0  0
 46 51  1  0  0  0  0
 47 46  1  0  0  0  0
 48 47  1  0  0  0  0
 49 47  2  0  0  0  0
 50 47  1  0  0  0  0
 51 53  1  0  0  0  0
 53 52  2  0  0  0  0
 53 57  1  0  0  0  0
 55 54  1  0  0  0  0
 57 56  1  0  0  0  0
 57 55  1  0  0  0  0
 57 54  1  0  0  0  0
 58 15  1  0  0  0  0
 59 58  1  0  0  0  0
 60 63  1  0  0  0  0
 60 59  1  0  0  0  0
 61 60  1  0  0  0  0
 62 63  2  0  0  0  0
 64 65  1  0  0  0  0
 64 58  1  0  0  0  0
 66 67  1  0  0  0  0
 66 65  1  0  0  0  0
 68 67  1  0  0  0  0
M  END
>  <MODEL>
4

>  <REMARK>
 VINA RESULT:      -2.2      2.732      6.843
  Name = 
  19 active torsions:
  status: ('A' for Active; 'I' for Inactive)
    1  A    between atoms: O_2  and  C_3
    2  A    between atoms: O_2  and  C_42
    3  A    between atoms: C_9  and  C_59
    4  A    between atoms: C_10  and  C_29
    5  A    between atoms: C_10  and  C_42
    6  A    between atoms: C_13  and  C_56
    7  A    between atoms: C_13  and  C_58
    8  A    between atoms: C_18  and  C_46
    9  A    between atoms: C_18  and  O_50
   10  A    between atoms: P_25  and  C_68
   11  A    between atoms: C_28  and  O_50
   12  A    between atoms: C_29  and  C_30
   13  A    between atoms: C_29  and  C_56
   14  A    between atoms: C_38  and  C_48
   15  A    between atoms: C_38  and  C_55
   16  A    between atoms: C_44  and  O_60
   17  A    between atoms: C_44  and  C_62
   18  A    between atoms: C_48  and  C_68
   19  A    between atoms: O_60  and  C_68
                            x       y       z     vdW  Elec       q    Type
                         _______ _______ _______ _____ _____    ______ ____

>  <TORSDO>
F 19

$$$$
=
 OpenBabel11062421053D

 68 74  0  0  1  0  0  0  0  0999 V2000
  196.0380  170.5100  143.3510 C   0  0  0  0  0  1  0  0  0  0  0  0
  196.2420  171.4450  141.0660 C   0  0  2  0  0  3  0  0  0  0  0  0
  194.5690  175.1080  145.3510 C   0  0  0  0  0  2  0  0  0  0  0  0
  194.1910  174.0560  144.3180 C   0  0  2  0  0  3  0  0  0  0  0  0
  195.4750  171.5480  142.3920 C   0  0  2  0  0  0  0  0  0  0  0  0
  193.2740  175.5670  145.9840 C   0  0  1  0  0  3  0  0  0  0  0  0
  189.7350  171.3000  140.7310 C   0  0  1  0  0  3  0  0  0  0  0  0
  195.5900  172.9730  142.9850 C   0  0  1  0  0  3  0  0  0  0  0  0
  189.4280  171.6840  138.9260 P   0  0  2  0  0  0  0  0  0  0  0  0
  194.4400  171.6690  139.7800 O   0  0  0  0  0  0  0  0  0  0  0  0
  194.0310  171.1680  142.0790 C   0  0  0  0  0  3  0  0  0  0  0  0
  192.8280  173.5070  144.7120 C   0  0  0  0  0  2  0  0  0  0  0  0
  195.1420  173.0320  144.3100 O   0  0  0  0  0  0  0  0  0  0  0  0
  189.6700  173.5390  138.9500 C   0  0  2  0  0  3  0  0  0  0  0  0
  197.0250  172.5190  140.4470 C   0  0  1  0  0  0  0  0  0  0  0  0
  189.8800  175.0700  140.8590 C   0  0  0  0  0  3  0  0  0  0  0  0
  192.1990  170.7520  140.4660 C   0  0  0  0  0  2  0  0  0  0  0  0
  190.0320  174.6190  144.8120 C   0  0  0  0  0  2  0  0  0  0  0  0
  192.7400  176.7480  145.1910 C   0  0  0  0  0  1  0  0  0  0  0  0
  193.5760  171.2110  140.8020 C   0  0  0  0  0  0  0  0  0  0  0  0
  187.6950  171.6900  139.0160 O   0  0  0  0  0  1  0  0  0  0  0  0
  189.4940  175.6140  141.9760 C   0  0  0  0  0  0  0  0  0  0  0  0
  195.5110  172.5200  140.1800 C   0  0  2  0  0  3  0  0  0  0  0  0
  189.3810  169.8580  141.0430 C   0  0  0  0  0  1  0  0  0  0  0  0
  189.9440  176.0560  144.3170 C   0  0  0  0  0  2  0  0  0  0  0  0
  192.3840  174.3310  145.9070 C   0  0  2  0  0  3  0  0  0  0  0  0
  191.1630  171.6380  141.1470 C   0  0  0  0  0  2  0  0  0  0  0  0
  197.4540  173.6740  141.3750 C   0  0  0  0  0  2  0  0  0  0  0  0
  190.8590  174.4630  146.0970 C   0  0  1  0  0  3  0  0  0  0  0  0
  188.9480  174.1700  140.1300 C   0  0  0  0  0  2  0  0  0  0  0  0
  189.0850  176.1420  143.1010 C   0  0  0  0  0  0  0  0  0  0  0  0
  197.9370  172.7890  143.5610 O   0  0  0  0  0  1  0  0  0  0  0  0
  197.0120  173.5510  142.8460 C   0  0  2  0  0  3  0  0  0  0  0  0
  189.2850  174.9810  147.8090 C   0  0  0  0  0  0  0  0  0  0  0  0
  190.4540  175.4180  147.2210 C   0  0  1  0  0  3  0  0  0  0  0  0
  187.9700  174.8210  147.8170 C   0  0  0  0  0  2  0  0  0  0  0  0
  190.6350  174.8110  148.4360 O   0  0  0  0  0  0  0  0  0  0  0  0
  189.1920  174.0880  137.7580 O   0  0  0  0  0  0  0  0  0  0  0  0
  190.0200  173.5680  136.7590 C   0  0  0  0  0  2  0  0  0  0  0  0
  191.4990  174.7470  135.1360 O   0  0  0  0  0  0  0  0  0  0  0  0
  190.2420  174.5990  135.7100 C   0  0  0  0  0  0  0  0  0  0  0  0
  189.3040  175.3680  135.3720 O   0  0  0  0  0  1  0  0  0  0  0  0
  187.8300  176.9530  143.1590 C   0  0  0  0  0  2  0  0  0  0  0  0
  187.1830  176.8020  144.4040 O   0  0  0  0  0  0  0  0  0  0  0  0
  184.9550  176.5660  144.0700 O   0  0  0  0  0  1  0  0  0  0  0  0
  185.9450  177.4910  144.4120 C   0  0  1  0  0  0  0  0  0  0  0  0
  185.5690  178.1190  146.0990 P   0  0  0  0  0  0  0  0  0  0  0  0
  185.4640  179.8070  146.0770 O   0  0  0  0  0  0  0  0  0  0  0  0
  186.8060  177.6520  147.1530 O   0  0  0  0  0  1  0  0  0  0  0  0
  184.2600  177.5450  146.5920 O   0  0  0  0  0  1  0  0  0  0  0  0
  185.9400  178.6300  143.3660 C   0  0  0  0  0  2  0  0  0  0  0  0
  183.7480  179.4890  143.1760 O   0  0  0  0  0  0  0  0  0  0  0  0
  184.6300  178.8250  142.6570 C   0  0  0  0  0  0  0  0  0  0  0  0
  185.3690  177.2060  140.9580 N   0  0  0  0  0  2  0  0  0  0  0  0
  185.5110  178.5150  140.2910 C   0  0  0  0  0  2  0  0  0  0  0  0
  183.0510  178.0420  140.7290 C   0  0  0  0  0  1  0  0  0  0  0  0
  184.4460  178.3070  141.2640 C   0  0  2  0  0  0  0  0  0  0  0  0
  197.9290  172.1490  139.2520 C   0  0  1  0  0  3  0  0  0  0  0  0
  197.8120  170.6880  138.8160 C   0  0  0  0  0  2  0  0  0  0  0  0
  196.7220  170.5230  137.7670 C   0  0  1  0  0  3  0  0  0  0  0  0
  197.1970  170.9490  136.5260 O   0  0  0  0  0  1  0  0  0  0  0  0
  195.9880  168.4430  138.7320 N   0  0  0  0  0  2  0  0  0  0  0  0
  196.3140  169.0920  137.6740 C   0  0  0  0  0  3  0  0  0  0  0  0
  197.6580  173.0570  138.0580 C   0  0  0  0  0  2  0  0  0  0  0  0
  197.1160  174.3900  138.5330 C   0  0  0  0  0  2  0  0  0  0  0  0
  196.5160  175.0600  137.4680 O   0  0  0  0  0  0  0  0  0  0  0  0
  195.1500  175.0050  137.7420 C   0  0  0  0  0  2  0  0  0  0  0  0
  194.4830  174.0130  136.8090 C   0  0  0  0  0  1  0  0  0  0  0  0
  2  5  1  0  0  0  0
  3  6  1  0  0  0  0
  4 12  1  0  0  0  0
  4  3  1  0  0  0  0
  5  8  1  0  0  0  0
  5  1  1  0  0  0  0
  7 24  1  0  0  0  0
  7 27  1  0  0  0  0
  8 13  1  0  0  0  0
  9 14  1  0  0  0  0
  9 21  1  0  0  0  0
  9  7  1  0  0  0  0
 10 23  1  0  0  0  0
 10 20  1  0  0  0  0
 11  5  1  0  0  0  0
 12 26  1  0  0  0  0
 13  4  1  0  0  0  0
 14 30  1  0  0  0  0
 15  2  1  0  0  0  0
 15 28  1  0  0  0  0
 16 22  2  0  0  0  0
 17 20  1  0  0  0  0
 17 27  1  0  0  0  0
 18 29  1  0  0  0  0
 19  6  1  0  0  0  0
 20 11  2  0  0  0  0
 22 31  2  0  0  0  0
 23 15  1  0  0  0  0
 23  2  1  0  0  0  0
 25 18  1  0  0  0  0
 26  6  1  0  0  0  0
 26 29  1  0  0  0  0
 28 33  1  0  0  0  0
 29 35  1  0  0  0  0
 30 16  1  0  0  0  0
 31 43  1  0  0  0  0
 31 25  1  0  0  0  0
 33  8  1  0  0  0  0
 33 32  1  0  0  0  0
 34 36  2  0  0  0  0
 34 37  1  0  0  0  0
 35 34  1  0  0  0  0
 35 37  1  0  0  0  0
 38 14  1  0  0  0  0
 39 38  1  0  0  0  0
 40 41  2  0  0  0  0
 41 39  1  0  0  0  0
 42 41  1  0  0  0  0
 43 44  1  0  0  0  0
 44 46  1  0  0  0  0
 45 46  1  0  0  0  0
 46 47  1  0  0  0  0
 47 50  1  0  0  0  0
 47 49  1  0  0  0  0
 48 47  2  0  0  0  0
 51 46  1  0  0  0  0
 53 52  2  0  0  0  0
 53 51  1  0  0  0  0
 54 57  1  0  0  0  0
 55 54  1  0  0  0  0
 55 57  1  0  0  0  0
 56 57  1  0  0  0  0
 57 53  1  0  0  0  0
 58 15  1  0  0  0  0
 59 58  1  0  0  0  0
 60 59  1  0  0  0  0
 61 60  1  0  0  0  0
 63 60  1  0  0  0  0
 63 62  2  0  0  0  0
 64 65  1  0  0  0  0
 64 58  1  0  0  0  0
 66 67  1  0  0  0  0
 66 65  1  0  0  0  0
 68 67  1  0  0  0  0
M  END
>  <MODEL>
5

>  <REMARK>
 VINA RESULT:      -2.0      2.734      6.618
  Name = 
  19 active torsions:
  status: ('A' for Active; 'I' for Inactive)
    1  A    between atoms: O_2  and  C_3
    2  A    between atoms: O_2  and  C_42
    3  A    between atoms: C_9  and  C_59
    4  A    between atoms: C_10  and  C_29
    5  A    between atoms: C_10  and  C_42
    6  A    between atoms: C_13  and  C_56
    7  A    between atoms: C_13  and  C_58
    8  A    between atoms: C_18  and  C_46
    9  A    between atoms: C_18  and  O_50
   10  A    between atoms: P_25  and  C_68
   11  A    between atoms: C_28  and  O_50
   12  A    between atoms: C_29  and  C_30
   13  A    between atoms: C_29  and  C_56
   14  A    between atoms: C_38  and  C_48
   15  A    between atoms: C_38  and  C_55
   16  A    between atoms: C_44  and  O_60
   17  A    between atoms: C_44  and  C_62
   18  A    between atoms: C_48  and  C_68
   19  A    between atoms: O_60  and  C_68
                            x       y       z     vdW  Elec       q    Type
                         _______ _______ _______ _____ _____    ______ ____

>  <TORSDO>
F 19

$$$$
=
 OpenBabel11062421053D

 68 74  0  0  1  0  0  0  0  0999 V2000
  188.4550  173.7060  146.2280 C   0  0  0  0  0  1  0  0  0  0  0  0
  189.7360  175.8250  146.2600 C   0  0  2  0  0  3  0  0  0  0  0  0
  188.4290  173.5310  141.0050 C   0  0  0  0  0  2  0  0  0  0  0  0
  189.3520  173.5680  142.2160 C   0  0  2  0  0  3  0  0  0  0  0  0
  189.5090  174.5160  145.4900 C   0  0  2  0  0  0  0  0  0  0  0  0
  189.0520  172.5640  140.0240 C   0  0  1  0  0  3  0  0  0  0  0  0
  195.0270  172.3220  144.7750 C   0  0  1  0  0  3  0  0  0  0  0  0
  189.0730  174.8030  144.0330 C   0  0  1  0  0  3  0  0  0  0  0  0
  196.3990  173.5750  144.9930 P   0  0  2  0  0  0  0  0  0  0  0  0
  191.9500  175.8030  146.0380 O   0  0  0  0  0  0  0  0  0  0  0  0
  190.8280  173.7500  145.5580 C   0  0  0  0  0  3  0  0  0  0  0  0
  190.1620  172.2800  142.2030 C   0  0  0  0  0  2  0  0  0  0  0  0
  188.5970  173.6550  143.3890 O   0  0  0  0  0  0  0  0  0  0  0  0
  196.2240  174.5190  143.3880 C   0  0  2  0  0  3  0  0  0  0  0  0
  189.5280  177.1750  145.7280 C   0  0  1  0  0  0  0  0  0  0  0  0
  194.8940  173.9910  141.3930 C   0  0  0  0  0  3  0  0  0  0  0  0
  193.2580  173.6520  146.0170 C   0  0  0  0  0  2  0  0  0  0  0  0
  192.3020  171.1270  140.4270 C   0  0  0  0  0  2  0  0  0  0  0  0
  189.9840  173.3400  139.1070 C   0  0  0  0  0  1  0  0  0  0  0  0
  191.9800  174.4000  145.8530 C   0  0  0  0  0  0  0  0  0  0  0  0
  197.6970  172.5360  144.4940 O   0  0  0  0  0  1  0  0  0  0  0  0
  194.5070  173.2390  140.4040 C   0  0  0  0  0  0  0  0  0  0  0  0
  190.8780  176.5070  145.4180 C   0  0  2  0  0  3  0  0  0  0  0  0
  195.0860  171.2630  145.8610 C   0  0  0  0  0  1  0  0  0  0  0  0
  192.7030  172.0620  139.2930 C   0  0  0  0  0  2  0  0  0  0  0  0
  189.7760  171.5650  140.9210 C   0  0  2  0  0  3  0  0  0  0  0  0
  193.6570  172.9890  144.7050 C   0  0  0  0  0  2  0  0  0  0  0  0
  188.6320  177.2860  144.4770 C   0  0  0  0  0  2  0  0  0  0  0  0
  190.8510  170.6320  140.3280 C   0  0  1  0  0  3  0  0  0  0  0  0
  196.0630  173.5720  142.2100 C   0  0  0  0  0  2  0  0  0  0  0  0
  194.1330  172.4610  139.4210 C   0  0  0  0  0  0  0  0  0  0  0  0
  186.8760  175.6450  144.6180 O   0  0  0  0  0  1  0  0  0  0  0  0
  188.0580  175.9590  143.9440 C   0  0  2  0  0  3  0  0  0  0  0  0
  191.3820  169.0610  138.6180 C   0  0  0  0  0  0  0  0  0  0  0  0
  190.4810  170.0460  138.9650 C   0  0  1  0  0  3  0  0  0  0  0  0
  192.5670  168.6620  138.1820 C   0  0  0  0  0  2  0  0  0  0  0  0
  190.0000  168.7740  139.1190 O   0  0  0  0  0  0  0  0  0  0  0  0
  197.3510  175.3230  143.1950 O   0  0  0  0  0  0  0  0  0  0  0  0
  196.8460  176.5910  142.8940 C   0  0  0  0  0  2  0  0  0  0  0  0
  195.6440  177.4860  140.9030 O   0  0  0  0  0  1  0  0  0  0  0  0
  196.6850  176.7260  141.4210 C   0  0  0  0  0  0  0  0  0  0  0  0
  197.4650  176.1170  140.6430 O   0  0  0  0  0  0  0  0  0  0  0  0
  195.0910  172.0730  138.3390 C   0  0  0  0  0  2  0  0  0  0  0  0
  196.1450  173.0050  138.2350 O   0  0  0  0  0  0  0  0  0  0  0  0
  195.4080  172.7140  136.1140 O   0  0  0  0  0  1  0  0  0  0  0  0
  196.4210  173.2990  136.8770 C   0  0  1  0  0  0  0  0  0  0  0  0
  196.3660  175.1140  136.5880 P   0  0  0  0  0  0  0  0  0  0  0  0
  195.4260  175.4530  135.2220 O   0  0  0  0  0  0  0  0  0  0  0  0
  197.9380  175.6830  136.3360 O   0  0  0  0  0  1  0  0  0  0  0  0
  195.7740  175.8190  137.7870 O   0  0  0  0  0  1  0  0  0  0  0  0
  197.7780  172.6950  136.4450 C   0  0  0  0  0  2  0  0  0  0  0  0
  197.9400  171.3460  134.5130 O   0  0  0  0  0  0  0  0  0  0  0  0
  197.6780  171.3920  135.7040 C   0  0  0  0  0  0  0  0  0  0  0  0
  197.5490  168.9370  135.6030 N   0  0  0  0  0  2  0  0  0  0  0  0
  196.2040  169.3490  136.0480 C   0  0  0  0  0  2  0  0  0  0  0  0
  197.9090  169.9170  137.8470 C   0  0  0  0  0  1  0  0  0  0  0  0
  197.3700  170.1280  136.4450 C   0  0  2  0  0  0  0  0  0  0  0  0
  189.5610  178.3520  146.7260 C   0  0  1  0  0  3  0  0  0  0  0  0
  188.3850  178.3670  147.7040 C   0  0  0  0  0  2  0  0  0  0  0  0
  187.1220  177.8420  147.0360 C   0  0  1  0  0  3  0  0  0  0  0  0
  186.9000  176.5210  147.4240 O   0  0  0  0  0  1  0  0  0  0  0  0
  186.0490  179.5060  148.4070 N   0  0  0  0  0  2  0  0  0  0  0  0
  185.9510  178.6760  147.4330 C   0  0  0  0  0  3  0  0  0  0  0  0
  190.8690  178.3720  147.5070 C   0  0  0  0  0  2  0  0  0  0  0  0
  190.7060  177.6170  148.8110 C   0  0  0  0  0  2  0  0  0  0  0  0
  191.8040  177.8580  149.6350 O   0  0  0  0  0  0  0  0  0  0  0  0
  191.2520  178.1450  150.8830 C   0  0  0  0  0  2  0  0  0  0  0  0
  191.8670  177.2410  151.9330 C   0  0  0  0  0  1  0  0  0  0  0  0
  3  4  1  0  0  0  0
  4 13  1  0  0  0  0
  5 11  1  0  0  0  0
  5  1  1  0  0  0  0
  5  2  1  0  0  0  0
  6 26  1  0  0  0  0
  6  3  1  0  0  0  0
  7  9  1  0  0  0  0
  7 24  1  0  0  0  0
  8  5  1  0  0  0  0
 11 20  2  0  0  0  0
 12  4  1  0  0  0  0
 13  8  1  0  0  0  0
 14  9  1  0  0  0  0
 15  2  1  0  0  0  0
 15 58  1  0  0  0  0
 16 30  1  0  0  0  0
 19  6  1  0  0  0  0
 20 17  1  0  0  0  0
 20 10  1  0  0  0  0
 21  9  1  0  0  0  0
 22 16  2  0  0  0  0
 23 15  1  0  0  0  0
 23 10  1  0  0  0  0
 23  2  1  0  0  0  0
 25 31  1  0  0  0  0
 25 18  1  0  0  0  0
 26 12  1  0  0  0  0
 27  7  1  0  0  0  0
 27 17  1  0  0  0  0
 28 15  1  0  0  0  0
 29 18  1  0  0  0  0
 29 26  1  0  0  0  0
 30 14  1  0  0  0  0
 31 22  2  0  0  0  0
 33  8  1  0  0  0  0
 33 28  1  0  0  0  0
 33 32  1  0  0  0  0
 34 35  1  0  0  0  0
 34 37  1  0  0  0  0
 35 37  1  0  0  0  0
 35 29  1  0  0  0  0
 36 34  2  0  0  0  0
 38 14  1  0  0  0  0
 39 38  1  0  0  0  0
 40 41  1  0  0  0  0
 41 39  1  0  0  0  0
 42 41  2  0  0  0  0
 43 31  1  0  0  0  0
 44 43  1  0  0  0  0
 45 46  1  0  0  0  0
 46 44  1  0  0  0  0
 47 46  1  0  0  0  0
 47 50  1  0  0  0  0
 48 47  2  0  0  0  0
 49 47  1  0  0  0  0
 51 46  1  0  0  0  0
 52 53  2  0  0  0  0
 53 57  1  0  0  0  0
 53 51  1  0  0  0  0
 54 55  1  0  0  0  0
 54 57  1  0  0  0  0
 55 57  1  0  0  0  0
 57 56  1  0  0  0  0
 58 64  1  0  0  0  0
 58 59  1  0  0  0  0
 60 61  1  0  0  0  0
 60 63  1  0  0  0  0
 60 59  1  0  0  0  0
 63 62  2  0  0  0  0
 64 65  1  0  0  0  0
 65 66  1  0  0  0  0
 66 67  1  0  0  0  0
 67 68  1  0  0  0  0
M  END
>  <MODEL>
6

>  <REMARK>
 VINA RESULT:      -1.8      2.575     11.098
  Name = 
  19 active torsions:
  status: ('A' for Active; 'I' for Inactive)
    1  A    between atoms: O_2  and  C_3
    2  A    between atoms: O_2  and  C_42
    3  A    between atoms: C_9  and  C_59
    4  A    between atoms: C_10  and  C_29
    5  A    between atoms: C_10  and  C_42
    6  A    between atoms: C_13  and  C_56
    7  A    between atoms: C_13  and  C_58
    8  A    between atoms: C_18  and  C_46
    9  A    between atoms: C_18  and  O_50
   10  A    between atoms: P_25  and  C_68
   11  A    between atoms: C_28  and  O_50
   12  A    between atoms: C_29  and  C_30
   13  A    between atoms: C_29  and  C_56
   14  A    between atoms: C_38  and  C_48
   15  A    between atoms: C_38  and  C_55
   16  A    between atoms: C_44  and  O_60
   17  A    between atoms: C_44  and  C_62
   18  A    between atoms: C_48  and  C_68
   19  A    between atoms: O_60  and  C_68
                            x       y       z     vdW  Elec       q    Type
                         _______ _______ _______ _____ _____    ______ ____

>  <TORSDO>
F 19

$$$$
=
 OpenBabel11062421053D

 68 74  0  0  1  0  0  0  0  0999 V2000
  191.4330  175.8050  146.8710 C   0  0  0  0  0  1  0  0  0  0  0  0
  190.4600  176.6880  144.7710 C   0  0  2  0  0  3  0  0  0  0  0  0
  191.3520  170.8860  145.1120 C   0  0  0  0  0  2  0  0  0  0  0  0
  191.9080  172.2730  144.8190 C   0  0  2  0  0  3  0  0  0  0  0  0
  191.3600  175.5960  145.3670 C   0  0  2  0  0  0  0  0  0  0  0  0
  192.4610  169.9070  144.7970 C   0  0  1  0  0  3  0  0  0  0  0  0
  196.3270  175.8930  142.0480 C   0  0  1  0  0  3  0  0  0  0  0  0
  190.8150  174.1880  145.0260 C   0  0  1  0  0  3  0  0  0  0  0  0
  196.1170  176.7670  140.4070 P   0  0  2  0  0  0  0  0  0  0  0  0
  191.7590  177.0730  143.0060 O   0  0  0  0  0  0  0  0  0  0  0  0
  192.7530  175.8320  144.7880 C   0  0  0  0  0  3  0  0  0  0  0  0
  193.4250  172.1720  144.8790 C   0  0  0  0  0  2  0  0  0  0  0  0
  191.4450  173.1840  145.7710 O   0  0  0  0  0  0  0  0  0  0  0  0
  195.1850  175.4480  139.4630 C   0  0  2  0  0  3  0  0  0  0  0  0
  189.2210  176.4590  144.0210 C   0  0  1  0  0  0  0  0  0  0  0  0
  194.7600  173.1020  140.0480 C   0  0  0  0  0  3  0  0  0  0  0  0
  194.2650  176.8930  143.1410 C   0  0  0  0  0  2  0  0  0  0  0  0
  195.5370  170.8170  143.2150 C   0  0  0  0  0  2  0  0  0  0  0  0
  192.3370  169.4890  143.3420 C   0  0  0  0  0  1  0  0  0  0  0  0
  192.9080  176.5740  143.6640 C   0  0  0  0  0  0  0  0  0  0  0  0
  197.6970  176.4020  139.7850 O   0  0  0  0  0  1  0  0  0  0  0  0
  195.1060  171.8950  140.3910 C   0  0  0  0  0  0  0  0  0  0  0  0
  190.5370  176.3750  143.2320 C   0  0  2  0  0  3  0  0  0  0  0  0
  197.2640  176.6690  142.9560 C   0  0  0  0  0  1  0  0  0  0  0  0
  194.9660  170.0910  142.0040 C   0  0  0  0  0  2  0  0  0  0  0  0
  193.7300  170.7010  145.0960 C   0  0  2  0  0  3  0  0  0  0  0  0
  194.9840  175.6170  142.7180 C   0  0  0  0  0  2  0  0  0  0  0  0
  188.5600  175.0770  144.2010 C   0  0  0  0  0  2  0  0  0  0  0  0
  195.0910  170.2140  144.5560 C   0  0  1  0  0  3  0  0  0  0  0  0
  195.8130  174.0800  139.6680 C   0  0  0  0  0  2  0  0  0  0  0  0
  195.4810  170.6910  140.7410 C   0  0  0  0  0  0  0  0  0  0  0  0
  188.8750  174.3420  146.4720 O   0  0  0  0  0  1  0  0  0  0  0  0
  189.2820  174.1080  145.1570 C   0  0  2  0  0  3  0  0  0  0  0  0
  196.6340  168.4010  144.5160 C   0  0  0  0  0  0  0  0  0  0  0  0
  195.2960  168.7030  144.6630 C   0  0  1  0  0  3  0  0  0  0  0  0
  197.7210  168.2390  143.7780 C   0  0  0  0  0  2  0  0  0  0  0  0
  195.9300  168.4000  145.8390 O   0  0  0  0  0  0  0  0  0  0  0  0
  195.1810  175.7640  138.1010 O   0  0  0  0  0  0  0  0  0  0  0  0
  194.8220  174.5780  137.4540 C   0  0  0  0  0  2  0  0  0  0  0  0
  196.0810  175.4770  135.5000 O   0  0  0  0  0  1  0  0  0  0  0  0
  195.0110  174.7370  135.9860 C   0  0  0  0  0  0  0  0  0  0  0  0
  194.1770  174.2380  135.1860 O   0  0  0  0  0  0  0  0  0  0  0  0
  196.3100  169.8480  139.8250 C   0  0  0  0  0  2  0  0  0  0  0  0
  195.5140  168.9030  139.1430 O   0  0  0  0  0  0  0  0  0  0  0  0
  194.5790  170.6760  138.0890 O   0  0  0  0  0  1  0  0  0  0  0  0
  195.1160  169.4030  137.8790 C   0  0  1  0  0  0  0  0  0  0  0  0
  196.5720  169.5840  136.7700 P   0  0  0  0  0  0  0  0  0  0  0  0
  197.8940  168.7470  137.4130 O   0  0  0  0  0  1  0  0  0  0  0  0
  196.9640  171.2240  136.6340 O   0  0  0  0  0  1  0  0  0  0  0  0
  196.2560  169.0380  135.3960 O   0  0  0  0  0  0  0  0  0  0  0  0
  194.0270  168.5050  137.2460 C   0  0  0  0  0  2  0  0  0  0  0  0
  192.6680  169.8300  135.8400 O   0  0  0  0  0  0  0  0  0  0  0  0
  192.7530  169.2180  136.8920 C   0  0  0  0  0  0  0  0  0  0  0  0
  191.7180  169.7790  139.0530 N   0  0  0  0  0  2  0  0  0  0  0  0
  191.6580  168.3060  138.9990 C   0  0  0  0  0  2  0  0  0  0  0  0
  190.1590  169.2870  137.1940 C   0  0  0  0  0  1  0  0  0  0  0  0
  191.5480  169.0830  137.7700 C   0  0  2  0  0  0  0  0  0  0  0  0
  188.3250  177.6800  143.7270 C   0  0  1  0  0  3  0  0  0  0  0  0
  186.9610  177.3180  143.1360 C   0  0  0  0  0  2  0  0  0  0  0  0
  187.0220  177.2880  141.6160 C   0  0  1  0  0  3  0  0  0  0  0  0
  187.5060  176.0510  141.1900 O   0  0  0  0  0  1  0  0  0  0  0  0
  184.8860  178.3980  141.5490 N   0  0  0  0  0  2  0  0  0  0  0  0
  185.6620  177.5070  141.0460 C   0  0  0  0  0  3  0  0  0  0  0  0
  188.1260  178.5280  144.9770 C   0  0  0  0  0  2  0  0  0  0  0  0
  186.7390  178.2990  145.5440 C   0  0  0  0  0  2  0  0  0  0  0  0
  186.7770  177.2630  146.4760 O   0  0  0  0  0  0  0  0  0  0  0  0
  185.6260  177.4380  147.2430 C   0  0  0  0  0  2  0  0  0  0  0  0
  185.1110  178.8550  147.0760 C   0  0  0  0  0  1  0  0  0  0  0  0
  2  5  1  0  0  0  0
  4 12  1  0  0  0  0
  4  3  1  0  0  0  0
  4 13  1  0  0  0  0
  5  1  1  0  0  0  0
  6 26  1  0  0  0  0
  6  3  1  0  0  0  0
  7 27  1  0  0  0  0
  7 24  1  0  0  0  0
  8 33  1  0  0  0  0
  8  5  1  0  0  0  0
  8 13  1  0  0  0  0
  9  7  1  0  0  0  0
 10 23  1  0  0  0  0
 10 20  1  0  0  0  0
 11  5  1  0  0  0  0
 12 26  1  0  0  0  0
 14 30  1  0  0  0  0
 14  9  1  0  0  0  0
 15 28  1  0  0  0  0
 15  2  1  0  0  0  0
 16 22  2  0  0  0  0
 17 20  1  0  0  0  0
 18 29  1  0  0  0  0
 19  6  1  0  0  0  0
 20 11  2  0  0  0  0
 21  9  1  0  0  0  0
 22 31  2  0  0  0  0
 23 15  1  0  0  0  0
 23  2  1  0  0  0  0
 25 18  1  0  0  0  0
 27 17  1  0  0  0  0
 28 33  1  0  0  0  0
 29 35  1  0  0  0  0
 29 26  1  0  0  0  0
 30 16  1  0  0  0  0
 31 25  1  0  0  0  0
 33 32  1  0  0  0  0
 34 35  1  0  0  0  0
 34 37  1  0  0  0  0
 35 37  1  0  0  0  0
 36 34  2  0  0  0  0
 38 14  1  0  0  0  0
 39 38  1  0  0  0  0
 40 41  1  0  0  0  0
 41 39  1  0  0  0  0
 42 41  2  0  0  0  0
 43 31  1  0  0  0  0
 44 43  1  0  0  0  0
 46 45  1  0  0  0  0
 46 44  1  0  0  0  0
 47 48  1  0  0  0  0
 47 46  1  0  0  0  0
 49 47  1  0  0  0  0
 50 47  2  0  0  0  0
 51 46  1  0  0  0  0
 52 53  2  0  0  0  0
 53 51  1  0  0  0  0
 53 57  1  0  0  0  0
 55 54  1  0  0  0  0
 56 57  1  0  0  0  0
 57 55  1  0  0  0  0
 57 54  1  0  0  0  0
 58 15  1  0  0  0  0
 58 64  1  0  0  0  0
 59 58  1  0  0  0  0
 60 59  1  0  0  0  0
 61 60  1  0  0  0  0
 63 62  2  0  0  0  0
 63 60  1  0  0  0  0
 64 65  1  0  0  0  0
 65 66  1  0  0  0  0
 66 67  1  0  0  0  0
 68 67  1  0  0  0  0
M  END
>  <MODEL>
7

>  <REMARK>
 VINA RESULT:      -1.6      2.815     10.927
  Name = 
  19 active torsions:
  status: ('A' for Active; 'I' for Inactive)
    1  A    between atoms: O_2  and  C_3
    2  A    between atoms: O_2  and  C_42
    3  A    between atoms: C_9  and  C_59
    4  A    between atoms: C_10  and  C_29
    5  A    between atoms: C_10  and  C_42
    6  A    between atoms: C_13  and  C_56
    7  A    between atoms: C_13  and  C_58
    8  A    between atoms: C_18  and  C_46
    9  A    between atoms: C_18  and  O_50
   10  A    between atoms: P_25  and  C_68
   11  A    between atoms: C_28  and  O_50
   12  A    between atoms: C_29  and  C_30
   13  A    between atoms: C_29  and  C_56
   14  A    between atoms: C_38  and  C_48
   15  A    between atoms: C_38  and  C_55
   16  A    between atoms: C_44  and  O_60
   17  A    between atoms: C_44  and  C_62
   18  A    between atoms: C_48  and  C_68
   19  A    between atoms: O_60  and  C_68
                            x       y       z     vdW  Elec       q    Type
                         _______ _______ _______ _____ _____    ______ ____

>  <TORSDO>
F 19

$$$$
=
 OpenBabel11062421053D

 68 74  0  0  1  0  0  0  0  0999 V2000
  186.2940  174.6230  142.5960 C   0  0  0  0  0  1  0  0  0  0  0  0
  188.2170  175.6750  143.7500 C   0  0  2  0  0  3  0  0  0  0  0  0
  188.3160  175.5660  137.8710 C   0  0  0  0  0  2  0  0  0  0  0  0
  188.5890  174.8560  139.1910 C   0  0  2  0  0  3  0  0  0  0  0  0
  187.7900  174.8790  142.5090 C   0  0  2  0  0  0  0  0  0  0  0  0
  188.8100  174.6410  136.7810 C   0  0  1  0  0  3  0  0  0  0  0  0
  191.6200  170.2860  142.3910 C   0  0  1  0  0  3  0  0  0  0  0  0
  188.1490  175.6460  141.2130 C   0  0  1  0  0  3  0  0  0  0  0  0
  193.1730  170.5400  143.4010 P   0  0  2  0  0  0  0  0  0  0  0  0
  190.0900  174.5240  144.0880 O   0  0  0  0  0  0  0  0  0  0  0  0
  188.5060  173.5340  142.6000 C   0  0  0  0  0  3  0  0  0  0  0  0
  188.7050  173.3700  138.8870 C   0  0  0  0  0  2  0  0  0  0  0  0
  187.5390  175.0880  140.0830 O   0  0  0  0  0  0  0  0  0  0  0  0
  194.0830  171.7390  142.2900 C   0  0  2  0  0  3  0  0  0  0  0  0
  188.8360  177.0040  143.7410 C   0  0  1  0  0  0  0  0  0  0  0  0
  193.5920  172.4220  139.9830 C   0  0  0  0  0  3  0  0  0  0  0  0
  190.2470  172.0660  143.5700 C   0  0  0  0  0  2  0  0  0  0  0  0
  190.6700  171.6490  137.3910 C   0  0  0  0  0  2  0  0  0  0  0  0
  190.2650  174.9710  136.4900 C   0  0  0  0  0  1  0  0  0  0  0  0
  189.5950  173.3940  143.3950 C   0  0  0  0  0  0  0  0  0  0  0  0
  193.9880  169.0990  142.8790 O   0  0  0  0  0  1  0  0  0  0  0  0
  193.3600  172.2140  138.7200 C   0  0  0  0  0  0  0  0  0  0  0  0
  189.7710  175.8000  143.5420 C   0  0  2  0  0  3  0  0  0  0  0  0
  190.7790  169.1620  142.9680 C   0  0  0  0  0  1  0  0  0  0  0  0
  191.8500  172.4360  136.8370 C   0  0  0  0  0  2  0  0  0  0  0  0
  188.6090  173.2510  137.3770 C   0  0  2  0  0  3  0  0  0  0  0  0
  190.8210  171.5780  142.2460 C   0  0  0  0  0  2  0  0  0  0  0  0
  188.6640  177.8290  142.4480 C   0  0  0  0  0  2  0  0  0  0  0  0
  189.3250  172.0340  136.7560 C   0  0  1  0  0  3  0  0  0  0  0  0
  194.0290  171.2880  140.8390 C   0  0  0  0  0  2  0  0  0  0  0  0
  193.1260  171.9760  137.4550 C   0  0  0  0  0  0  0  0  0  0  0  0
  186.4890  177.3860  141.5150 O   0  0  0  0  0  1  0  0  0  0  0  0
  187.8530  177.1540  141.3260 C   0  0  2  0  0  3  0  0  0  0  0  0
  189.9960  170.9140  134.7640 C   0  0  0  0  0  0  0  0  0  0  0  0
  189.3300  172.0300  135.2270 C   0  0  1  0  0  3  0  0  0  0  0  0
  191.1050  170.2350  134.5150 C   0  0  0  0  0  2  0  0  0  0  0  0
  188.5040  171.0430  134.7600 O   0  0  0  0  0  0  0  0  0  0  0  0
  195.4150  171.8390  142.7020 O   0  0  0  0  0  0  0  0  0  0  0  0
  195.3860  172.6610  143.8320 C   0  0  0  0  0  2  0  0  0  0  0  0
  196.7950  174.4530  142.8250 O   0  0  0  0  0  0  0  0  0  0  0  0
  196.5920  173.5310  143.8450 C   0  0  0  0  0  0  0  0  0  0  0  0
  197.4530  173.4030  144.7540 O   0  0  0  0  0  1  0  0  0  0  0  0
  194.1760  171.3700  136.5790 C   0  0  0  0  0  2  0  0  0  0  0  0
  194.6070  172.2840  135.5930 O   0  0  0  0  0  0  0  0  0  0  0  0
  196.2020  173.1260  136.9630 O   0  0  0  0  0  1  0  0  0  0  0  0
  195.9960  172.5330  135.7150 C   0  0  1  0  0  0  0  0  0  0  0  0
  196.9380  170.9540  135.6810 P   0  0  0  0  0  0  0  0  0  0  0  0
  195.8740  169.6500  135.5170 O   0  0  0  0  0  1  0  0  0  0  0  0
  197.8000  170.7910  137.1270 O   0  0  0  0  0  1  0  0  0  0  0  0
  197.9130  170.9500  134.5240 O   0  0  0  0  0  0  0  0  0  0  0  0
  196.4810  173.5090  134.6170 C   0  0  0  0  0  2  0  0  0  0  0  0
  196.9910  175.8140  134.6790 O   0  0  0  0  0  0  0  0  0  0  0  0
  196.1480  174.9520  134.8680 C   0  0  0  0  0  0  0  0  0  0  0  0
  194.6110  176.8030  135.3840 N   0  0  0  0  0  2  0  0  0  0  0  0
  194.5110  175.9150  136.5580 C   0  0  0  0  0  2  0  0  0  0  0  0
  193.5700  174.7340  134.5130 C   0  0  0  0  0  1  0  0  0  0  0  0
  194.7520  175.3480  135.2380 C   0  0  2  0  0  0  0  0  0  0  0  0
  188.9560  177.7480  145.0880 C   0  0  1  0  0  3  0  0  0  0  0  0
  187.6290  178.3060  145.6060 C   0  0  0  0  0  2  0  0  0  0  0  0
  186.5620  177.2210  145.6370 C   0  0  1  0  0  3  0  0  0  0  0  0
  186.3070  176.8510  146.9570 O   0  0  0  0  0  1  0  0  0  0  0  0
  184.2480  177.8800  145.7260 N   0  0  0  0  0  2  0  0  0  0  0  0
  185.3050  177.7250  145.0140 C   0  0  0  0  0  3  0  0  0  0  0  0
  189.5810  176.8560  146.1530 C   0  0  0  0  0  2  0  0  0  0  0  0
  190.3980  177.6930  147.1160 C   0  0  0  0  0  2  0  0  0  0  0  0
  191.4540  176.9350  147.6200 O   0  0  0  0  0  0  0  0  0  0  0  0
  191.4430  175.7670  146.8590 C   0  0  0  0  0  2  0  0  0  0  0  0
  192.7970  175.0890  146.9450 C   0  0  0  0  0  1  0  0  0  0  0  0
  3  4  1  0  0  0  0
  4 13  1  0  0  0  0
  5  1  1  0  0  0  0
  5 11  1  0  0  0  0
  5  2  1  0  0  0  0
  6 26  1  0  0  0  0
  6  3  1  0  0  0  0
  7 24  1  0  0  0  0
  7  9  1  0  0  0  0
  8 33  1  0  0  0  0
  8  5  1  0  0  0  0
 11 20  2  0  0  0  0
 12  4  1  0  0  0  0
 13  8  1  0  0  0  0
 14 38  1  0  0  0  0
 14  9  1  0  0  0  0
 15  2  1  0  0  0  0
 15 58  1  0  0  0  0
 16 30  1  0  0  0  0
 19  6  1  0  0  0  0
 20 17  1  0  0  0  0
 20 10  1  0  0  0  0
 21  9  1  0  0  0  0
 22 16  2  0  0  0  0
 23 15  1  0  0  0  0
 23  2  1  0  0  0  0
 23 10  1  0  0  0  0
 25 18  1  0  0  0  0
 25 31  1  0  0  0  0
 26 12  1  0  0  0  0
 27  7  1  0  0  0  0
 27 17  1  0  0  0  0
 28 15  1  0  0  0  0
 29 26  1  0  0  0  0
 29 18  1  0  0  0  0
 30 14  1  0  0  0  0
 31 22  2  0  0  0  0
 33 32  1  0  0  0  0
 33 28  1  0  0  0  0
 34 35  1  0  0  0  0
 35 29  1  0  0  0  0
 36 34  2  0  0  0  0
 37 34  1  0  0  0  0
 37 35  1  0  0  0  0
 38 39  1  0  0  0  0
 39 41  1  0  0  0  0
 40 41  2  0  0  0  0
 41 42  1  0  0  0  0
 43 31  1  0  0  0  0
 44 46  1  0  0  0  0
 44 43  1  0  0  0  0
 46 45  1  0  0  0  0
 47 46  1  0  0  0  0
 47 49  1  0  0  0  0
 48 47  1  0  0  0  0
 50 47  2  0  0  0  0
 51 53  1  0  0  0  0
 51 46  1  0  0  0  0
 52 53  2  0  0  0  0
 53 57  1  0  0  0  0
 54 55  1  0  0  0  0
 56 57  1  0  0  0  0
 57 54  1  0  0  0  0
 57 55  1  0  0  0  0
 58 59  1  0  0  0  0
 58 64  1  0  0  0  0
 59 60  1  0  0  0  0
 60 61  1  0  0  0  0
 63 60  1  0  0  0  0
 63 62  2  0  0  0  0
 64 65  1  0  0  0  0
 65 66  1  0  0  0  0
 67 68  1  0  0  0  0
 67 66  1  0  0  0  0
M  END
>  <MODEL>
8

>  <REMARK>
 VINA RESULT:      -1.4      2.832     10.476
  Name = 
  19 active torsions:
  status: ('A' for Active; 'I' for Inactive)
    1  A    between atoms: O_2  and  C_3
    2  A    between atoms: O_2  and  C_42
    3  A    between atoms: C_9  and  C_59
    4  A    between atoms: C_10  and  C_29
    5  A    between atoms: C_10  and  C_42
    6  A    between atoms: C_13  and  C_56
    7  A    between atoms: C_13  and  C_58
    8  A    between atoms: C_18  and  C_46
    9  A    between atoms: C_18  and  O_50
   10  A    between atoms: P_25  and  C_68
   11  A    between atoms: C_28  and  O_50
   12  A    between atoms: C_29  and  C_30
   13  A    between atoms: C_29  and  C_56
   14  A    between atoms: C_38  and  C_48
   15  A    between atoms: C_38  and  C_55
   16  A    between atoms: C_44  and  O_60
   17  A    between atoms: C_44  and  C_62
   18  A    between atoms: C_48  and  C_68
   19  A    between atoms: O_60  and  C_68
                            x       y       z     vdW  Elec       q    Type
                         _______ _______ _______ _____ _____    ______ ____

>  <TORSDO>
F 19

$$$$
