=
 OpenBabel11062420493D

 45 49  0  0  1  0  0  0  0  0999 V2000
  187.8120  175.3920  139.9310 O   0  0  0  0  0  0  0  0  0  0  0  0
  188.2590  175.1510  141.0880 C   0  0  0  0  0  0  0  0  0  0  0  0
  189.1310  174.0210  141.2960 N   0  0  0  0  0  0  0  0  0  0  0  0
  191.0070  174.3920  142.8810 C   0  0  0  0  0  3  0  0  0  0  0  0
  191.6600  174.1040  144.0820 C   0  0  0  0  0  3  0  0  0  0  0  0
  189.3690  171.6520  145.5240 F   0  0  0  0  0  0  0  0  0  0  0  0
  189.2480  172.8410  143.4640 C   0  0  0  0  0  3  0  0  0  0  0  0
  189.7880  173.7710  142.5590 C   0  0  0  0  0  0  0  0  0  0  0  0
  191.1090  173.1820  144.9730 C   0  0  0  0  0  3  0  0  0  0  0  0
  189.9000  172.5530  144.6650 C   0  0  0  0  0  0  0  0  0  0  0  0
  189.4310  173.1490  140.1590 C   0  0  0  0  0  2  0  0  0  0  0  0
  193.4880  172.0260  139.6510 N   0  0  0  0  0  2  0  0  0  0  0  0
  192.7970  172.4700  138.4400 C   0  0  0  0  0  2  0  0  0  0  0  0
  192.6700  171.0440  140.3940 C   0  0  2  0  0  3  0  0  0  0  0  0
  190.9190  172.8260  140.1190 C   0  0  1  0  0  3  0  0  0  0  0  0
  191.1600  171.3340  140.3280 C   0  0  0  0  0  2  0  0  0  0  0  0
  191.5330  173.2750  138.7920 C   0  0  0  0  0  2  0  0  0  0  0  0
  194.0930  171.8070  142.3490 C   0  0  0  0  0  3  0  0  0  0  0  0
  193.0980  170.9610  141.8330 C   0  0  0  0  0  0  0  0  0  0  0  0
  193.7580  170.8740  144.5200 N   0  0  0  0  0  0  0  0  0  0  0  0
  192.7810  170.0490  144.0460 C   0  0  0  0  0  3  0  0  0  0  0  0
  194.4200  171.7400  143.7050 C   0  0  0  0  0  0  0  0  0  0  0  0
  192.4350  170.0770  142.6970 C   0  0  0  0  0  3  0  0  0  0  0  0
  195.4920  172.6240  144.2610 C   0  0  0  0  0  2  0  0  0  0  0  0
  195.0110  174.0520  144.5290 C   0  0  0  0  0  3  0  0  0  0  0  0
  195.2150  174.4690  145.9880 C   0  0  0  0  0  2  0  0  0  0  0  0
  195.6220  175.0610  143.5360 C   0  0  0  0  0  2  0  0  0  0  0  0
  195.7360  176.4820  144.1070 C   0  0  0  0  0  2  0  0  0  0  0  0
  194.5790  176.7860  145.0540 C   0  0  0  0  0  2  0  0  0  0  0  0
  194.6030  175.8550  146.2700 C   0  0  0  0  0  2  0  0  0  0  0  0
  187.8970  175.9730  142.1650 O   0  0  0  0  0  0  0  0  0  0  0  0
  188.5420  177.2080  142.4930 C   0  0  1  0  0  3  0  0  0  0  0  0
  186.5630  178.3520  141.4950 C   0  0  0  0  0  1  0  0  0  0  0  0
  188.0780  178.3400  141.5880 C   0  0  0  0  0  2  0  0  0  0  0  0
  188.3330  177.5770  143.9550 C   0  0  0  0  0  2  0  0  0  0  0  0
  187.9130  176.3270  146.1410 C   0  0  1  0  0  3  0  0  0  0  0  0
  187.5050  177.5360  146.9880 C   0  0  0  0  0  2  0  0  0  0  0  0
  185.6080  178.0030  145.4320 C   0  0  0  0  0  2  0  0  0  0  0  0
  185.6220  178.8390  147.6760 O   0  0  0  0  0  1  0  0  0  0  0  0
  185.9990  177.7520  146.8850 C   0  0  2  0  0  3  0  0  0  0  0  0
  186.0030  176.8030  144.5660 C   0  0  0  0  0  2  0  0  0  0  0  0
  187.5060  176.5080  144.6700 C   0  0  1  0  0  3  0  0  0  0  0  0
  189.4000  176.0290  146.2850 C   0  0  0  0  0  2  0  0  0  0  0  0
  189.6260  175.2660  147.4290 O   0  0  0  0  0  0  0  0  0  0  0  0
  190.9470  175.5420  147.7740 C   0  0  0  0  0  1  0  0  0  0  0  0
  1  2  2  0  0  0  0
  2  3  1  0  0  0  0
  2 31  1  0  0  0  0
  3  8  1  0  0  0  0
  4  5  1  0  0  0  0
  5  9  2  0  0  0  0
  7 10  2  0  0  0  0
  8  4  2  0  0  0  0
  8  7  1  0  0  0  0
 10  9  1  0  0  0  0
 10  6  1  0  0  0  0
 11  3  1  0  0  0  0
 12 14  1  0  0  0  0
 13 17  1  0  0  0  0
 13 12  1  0  0  0  0
 14 19  1  1  0  0  0
 15 11  1  6  0  0  0
 15 16  1  0  0  0  0
 16 14  1  0  0  0  0
 17 15  1  0  0  0  0
 18 22  1  0  0  0  0
 19 18  2  0  0  0  0
 19 23  1  0  0  0  0
 21 20  1  0  0  0  0
 22 24  1  0  0  0  0
 22 20  2  0  0  0  0
 23 21  2  0  0  0  0
 24 25  1  0  0  0  0
 25 26  1  0  0  0  0
 26 30  1  0  0  0  0
 27 28  1  0  0  0  0
 27 25  1  0  0  0  0
 28 29  1  0  0  0  0
 29 30  1  0  0  0  0
 31 32  1  0  0  0  0
 32 34  1  6  0  0  0
 32 35  1  0  0  0  0
 33 34  1  0  0  0  0
 36 43  1  6  0  0  0
 36 37  1  0  0  0  0
 38 40  1  0  0  0  0
 40 37  1  0  0  0  0
 40 39  1  1  0  0  0
 41 42  1  0  0  0  0
 41 38  1  0  0  0  0
 42 35  1  1  0  0  0
 42 36  1  0  0  0  0
 43 44  1  0  0  0  0
 44 45  1  0  0  0  0
M  END
>  <MODEL>
1

>  <REMARK>
 VINA RESULT:      -6.9      0.000      0.000
  Name = 
  13 active torsions:
  status: ('A' for Active; 'I' for Inactive)
    1  A    between atoms: C_2  and  C_17
    2  A    between atoms: C_3  and  C_36
    3  A    between atoms: C_4  and  C_18
    4  A    between atoms: C_4  and  N_23
    5  A    between atoms: C_10  and  C_14
    6  A    between atoms: C_10  and  C_15
    7  A    between atoms: C_11  and  O_42
    8  A    between atoms: C_16  and  C_35
    9  A    between atoms: C_16  and  C_43
   10  A    between atoms: N_23  and  C_33
   11  A    between atoms: O_25  and  C_36
   12  A    between atoms: C_35  and  C_41
   13  A    between atoms: C_35  and  O_42
                            x       y       z     vdW  Elec       q    Type
                         _______ _______ _______ _____ _____    ______ ____

>  <TORSDO>
F 13

$$$$
=
 OpenBabel11062420493D

 45 49  0  0  1  0  0  0  0  0999 V2000
  188.9860  173.7330  143.4870 O   0  0  0  0  0  0  0  0  0  0  0  0
  189.9520  174.5180  143.7010 C   0  0  0  0  0  0  0  0  0  0  0  0
  191.2170  173.9900  144.1500 N   0  0  0  0  0  0  0  0  0  0  0  0
  193.1020  175.2570  143.1460 C   0  0  0  0  0  3  0  0  0  0  0  0
  194.2730  176.0060  143.2810 C   0  0  0  0  0  3  0  0  0  0  0  0
  194.5570  176.1630  146.9190 F   0  0  0  0  0  0  0  0  0  0  0  0
  192.9080  175.1230  145.5510 C   0  0  0  0  0  3  0  0  0  0  0  0
  192.3990  174.8110  144.2780 C   0  0  0  0  0  0  0  0  0  0  0  0
  194.7630  176.3130  144.5520 C   0  0  0  0  0  3  0  0  0  0  0  0
  194.0780  175.8740  145.6870 C   0  0  0  0  0  0  0  0  0  0  0  0
  191.3260  172.5510  144.3990 C   0  0  0  0  0  2  0  0  0  0  0  0
  194.7870  170.6260  142.8840 N   0  0  0  0  0  2  0  0  0  0  0  0
  193.5170  169.9490  142.6160 C   0  0  0  0  0  2  0  0  0  0  0  0
  194.8820  171.0260  144.3040 C   0  0  2  0  0  3  0  0  0  0  0  0
  192.6230  172.0100  143.8100 C   0  0  1  0  0  3  0  0  0  0  0  0
  193.5350  171.4660  144.9040 C   0  0  0  0  0  2  0  0  0  0  0  0
  192.3320  170.9200  142.7770 C   0  0  0  0  0  2  0  0  0  0  0  0
  196.3950  172.8480  143.3970 C   0  0  0  0  0  3  0  0  0  0  0  0
  195.8920  172.1240  144.4900 C   0  0  0  0  0  0  0  0  0  0  0  0
  197.6420  174.2310  144.8890 N   0  0  0  0  0  0  0  0  0  0  0  0
  197.1600  173.5510  145.9680 C   0  0  0  0  0  3  0  0  0  0  0  0
  197.2860  173.9000  143.6180 C   0  0  0  0  0  0  0  0  0  0  0  0
  196.2790  172.4870  145.7890 C   0  0  0  0  0  3  0  0  0  0  0  0
  197.8420  174.6650  142.4580 C   0  0  0  0  0  2  0  0  0  0  0  0
  197.1130  174.3740  141.1440 C   0  0  0  0  0  3  0  0  0  0  0  0
  196.6450  175.6530  140.4440 C   0  0  0  0  0  2  0  0  0  0  0  0
  197.9410  173.4630  140.2160 C   0  0  0  0  0  2  0  0  0  0  0  0
  197.6260  173.6650  138.7270 C   0  0  0  0  0  2  0  0  0  0  0  0
  196.1540  174.0090  138.5200 C   0  0  0  0  0  2  0  0  0  0  0  0
  195.7970  175.3360  139.1970 C   0  0  0  0  0  2  0  0  0  0  0  0
  189.7880  175.8980  143.5140 O   0  0  0  0  0  0  0  0  0  0  0  0
  189.3900  176.8130  144.5400 C   0  0  1  0  0  3  0  0  0  0  0  0
  191.1070  178.3080  143.5240 C   0  0  0  0  0  1  0  0  0  0  0  0
  190.4720  177.8450  144.8220 C   0  0  0  0  0  2  0  0  0  0  0  0
  188.0760  177.5000  144.1980 C   0  0  0  0  0  2  0  0  0  0  0  0
  185.8420  176.8100  145.2250 C   0  0  1  0  0  3  0  0  0  0  0  0
  185.0510  178.0650  144.8470 C   0  0  0  0  0  2  0  0  0  0  0  0
  185.5000  177.6350  142.4270 C   0  0  0  0  0  2  0  0  0  0  0  0
  183.6740  179.0130  143.1370 O   0  0  0  0  0  1  0  0  0  0  0  0
  184.4160  177.8790  143.4730 C   0  0  2  0  0  3  0  0  0  0  0  0
  186.3020  176.3800  142.7850 C   0  0  0  0  0  2  0  0  0  0  0  0
  186.9260  176.4930  144.1820 C   0  0  1  0  0  3  0  0  0  0  0  0
  186.4240  176.9270  146.6290 C   0  0  0  0  0  2  0  0  0  0  0  0
  185.6720  177.8240  147.3840 O   0  0  0  0  0  0  0  0  0  0  0  0
  186.6200  178.6370  148.0010 C   0  0  0  0  0  1  0  0  0  0  0  0
  1  2  2  0  0  0  0
  2  3  1  0  0  0  0
  3  8  1  0  0  0  0
  3 11  1  0  0  0  0
  4  5  2  0  0  0  0
  4  8  1  0  0  0  0
  5  9  1  0  0  0  0
  7 10  1  0  0  0  0
  8  7  2  0  0  0  0
  9 10  2  0  0  0  0
 10  6  1  0  0  0  0
 12 14  1  0  0  0  0
 13 17  1  0  0  0  0
 13 12  1  0  0  0  0
 14 19  1  6  0  0  0
 14 16  1  0  0  0  0
 15 11  1  1  0  0  0
 15 16  1  0  0  0  0
 17 15  1  0  0  0  0
 18 22  2  0  0  0  0
 18 19  1  0  0  0  0
 19 23  2  0  0  0  0
 20 21  2  0  0  0  0
 22 20  1  0  0  0  0
 23 21  1  0  0  0  0
 24 22  1  0  0  0  0
 25 24  1  0  0  0  0
 26 25  1  0  0  0  0
 27 25  1  0  0  0  0
 28 27  1  0  0  0  0
 29 28  1  0  0  0  0
 29 30  1  0  0  0  0
 30 26  1  0  0  0  0
 31  2  1  0  0  0  0
 31 32  1  0  0  0  0
 32 35  1  6  0  0  0
 32 34  1  0  0  0  0
 33 34  1  0  0  0  0
 36 43  1  1  0  0  0
 37 36  1  0  0  0  0
 38 41  1  0  0  0  0
 38 40  1  0  0  0  0
 40 39  1  6  0  0  0
 40 37  1  0  0  0  0
 41 42  1  0  0  0  0
 42 35  1  6  0  0  0
 42 36  1  0  0  0  0
 43 44  1  0  0  0  0
 44 45  1  0  0  0  0
M  END
>  <MODEL>
2

>  <REMARK>
 VINA RESULT:      -6.8      2.590      4.406
  Name = 
  13 active torsions:
  status: ('A' for Active; 'I' for Inactive)
    1  A    between atoms: C_2  and  C_17
    2  A    between atoms: C_3  and  C_36
    3  A    between atoms: C_4  and  C_18
    4  A    between atoms: C_4  and  N_23
    5  A    between atoms: C_10  and  C_14
    6  A    between atoms: C_10  and  C_15
    7  A    between atoms: C_11  and  O_42
    8  A    between atoms: C_16  and  C_35
    9  A    between atoms: C_16  and  C_43
   10  A    between atoms: N_23  and  C_33
   11  A    between atoms: O_25  and  C_36
   12  A    between atoms: C_35  and  C_41
   13  A    between atoms: C_35  and  O_42
                            x       y       z     vdW  Elec       q    Type
                         _______ _______ _______ _____ _____    ______ ____

>  <TORSDO>
F 13

$$$$
=
 OpenBabel11062420493D

 45 49  0  0  1  0  0  0  0  0999 V2000
  187.3950  176.4140  140.0500 O   0  0  0  0  0  0  0  0  0  0  0  0
  188.0690  176.1100  141.0740 C   0  0  0  0  0  0  0  0  0  0  0  0
  188.7160  174.8230  141.1480 N   0  0  0  0  0  0  0  0  0  0  0  0
  190.9220  174.9770  142.2770 C   0  0  0  0  0  3  0  0  0  0  0  0
  191.8000  174.5860  143.2910 C   0  0  0  0  0  3  0  0  0  0  0  0
  189.6880  172.2580  145.1510 F   0  0  0  0  0  0  0  0  0  0  0  0
  189.2120  173.5430  143.2020 C   0  0  0  0  0  3  0  0  0  0  0  0
  189.6140  174.4670  142.2220 C   0  0  0  0  0  0  0  0  0  0  0  0
  191.3850  173.6710  144.2600 C   0  0  0  0  0  3  0  0  0  0  0  0
  190.0890  173.1530  144.2170 C   0  0  0  0  0  0  0  0  0  0  0  0
  188.5240  173.8790  140.0450 C   0  0  0  0  0  2  0  0  0  0  0  0
  192.0060  171.9650  138.5640 N   0  0  0  0  0  2  0  0  0  0  0  0
  191.0900  172.4870  137.5490 C   0  0  0  0  0  2  0  0  0  0  0  0
  191.2720  171.1920  139.5880 C   0  0  2  0  0  3  0  0  0  0  0  0
  189.8590  173.2690  139.6340 C   0  0  1  0  0  3  0  0  0  0  0  0
  189.8820  171.7690  139.9070 C   0  0  0  0  0  2  0  0  0  0  0  0
  190.1400  173.5380  138.1540 C   0  0  0  0  0  2  0  0  0  0  0  0
  193.2440  171.8300  141.0500 C   0  0  0  0  0  3  0  0  0  0  0  0
  192.0690  171.0840  140.8590 C   0  0  0  0  0  0  0  0  0  0  0  0
  193.4300  170.9640  143.2670 N   0  0  0  0  0  0  0  0  0  0  0  0
  192.2860  170.2370  143.1100 C   0  0  0  0  0  3  0  0  0  0  0  0
  193.9220  171.7460  142.2680 C   0  0  0  0  0  0  0  0  0  0  0  0
  191.5870  170.2830  141.9050 C   0  0  0  0  0  3  0  0  0  0  0  0
  195.1850  172.5230  142.4750 C   0  0  0  0  0  2  0  0  0  0  0  0
  194.9920  173.7520  143.3670 C   0  0  0  0  0  3  0  0  0  0  0  0
  195.5880  173.5550  144.7640 C   0  0  0  0  0  2  0  0  0  0  0  0
  195.4960  175.0410  142.6870 C   0  0  0  0  0  2  0  0  0  0  0  0
  195.9450  176.1180  143.6850 C   0  0  0  0  0  2  0  0  0  0  0  0
  195.0970  176.0780  144.9530 C   0  0  0  0  0  2  0  0  0  0  0  0
  195.2670  174.7450  145.6880 C   0  0  0  0  0  2  0  0  0  0  0  0
  188.1750  177.0170  142.1380 O   0  0  0  0  0  0  0  0  0  0  0  0
  187.1880  177.1850  143.1600 C   0  0  1  0  0  3  0  0  0  0  0  0
  184.8160  177.8160  142.7230 C   0  0  0  0  0  1  0  0  0  0  0  0
  185.8240  176.6820  142.7110 C   0  0  0  0  0  2  0  0  0  0  0  0
  187.6050  176.5040  144.4560 C   0  0  0  0  0  2  0  0  0  0  0  0
  187.8320  177.1290  146.9220 C   0  0  1  0  0  3  0  0  0  0  0  0
  188.6860  175.9340  147.3540 C   0  0  0  0  0  2  0  0  0  0  0  0
  190.4620  176.5990  145.7280 C   0  0  0  0  0  2  0  0  0  0  0  0
  190.9450  175.1910  147.6040 O   0  0  0  0  0  1  0  0  0  0  0  0
  190.1640  176.2710  147.1880 C   0  0  2  0  0  3  0  0  0  0  0  0
  189.6200  177.7960  145.2750 C   0  0  0  0  0  2  0  0  0  0  0  0
  188.1210  177.5290  145.4660 C   0  0  1  0  0  3  0  0  0  0  0  0
  186.3500  176.8590  147.1520 C   0  0  0  0  0  2  0  0  0  0  0  0
  185.6430  178.0590  147.1690 O   0  0  0  0  0  0  0  0  0  0  0  0
  184.4550  177.7710  146.5000 C   0  0  0  0  0  1  0  0  0  0  0  0
  1  2  2  0  0  0  0
  2  3  1  0  0  0  0
  2 31  1  0  0  0  0
  3  8  1  0  0  0  0
  4  5  1  0  0  0  0
  5  9  2  0  0  0  0
  7 10  2  0  0  0  0
  8  4  2  0  0  0  0
  8  7  1  0  0  0  0
 10  9  1  0  0  0  0
 10  6  1  0  0  0  0
 11  3  1  0  0  0  0
 12 14  1  0  0  0  0
 13 17  1  0  0  0  0
 13 12  1  0  0  0  0
 14 16  1  0  0  0  0
 14 19  1  1  0  0  0
 15 16  1  0  0  0  0
 15 11  1  6  0  0  0
 17 15  1  0  0  0  0
 18 22  1  0  0  0  0
 19 18  2  0  0  0  0
 19 23  1  0  0  0  0
 21 20  1  0  0  0  0
 22 24  1  0  0  0  0
 22 20  2  0  0  0  0
 23 21  2  0  0  0  0
 24 25  1  0  0  0  0
 25 26  1  0  0  0  0
 26 30  1  0  0  0  0
 27 25  1  0  0  0  0
 27 28  1  0  0  0  0
 28 29  1  0  0  0  0
 29 30  1  0  0  0  0
 31 32  1  0  0  0  0
 32 34  1  6  0  0  0
 32 35  1  0  0  0  0
 34 33  1  0  0  0  0
 36 43  1  6  0  0  0
 36 37  1  0  0  0  0
 38 40  1  0  0  0  0
 40 37  1  0  0  0  0
 40 39  1  6  0  0  0
 41 42  1  0  0  0  0
 41 38  1  0  0  0  0
 42 35  1  6  0  0  0
 42 36  1  0  0  0  0
 43 44  1  0  0  0  0
 45 44  1  0  0  0  0
M  END
>  <MODEL>
3

>  <REMARK>
 VINA RESULT:      -6.7      1.158      2.396
  Name = 
  13 active torsions:
  status: ('A' for Active; 'I' for Inactive)
    1  A    between atoms: C_2  and  C_17
    2  A    between atoms: C_3  and  C_36
    3  A    between atoms: C_4  and  C_18
    4  A    between atoms: C_4  and  N_23
    5  A    between atoms: C_10  and  C_14
    6  A    between atoms: C_10  and  C_15
    7  A    between atoms: C_11  and  O_42
    8  A    between atoms: C_16  and  C_35
    9  A    between atoms: C_16  and  C_43
   10  A    between atoms: N_23  and  C_33
   11  A    between atoms: O_25  and  C_36
   12  A    between atoms: C_35  and  C_41
   13  A    between atoms: C_35  and  O_42
                            x       y       z     vdW  Elec       q    Type
                         _______ _______ _______ _____ _____    ______ ____

>  <TORSDO>
F 13

$$$$
=
 OpenBabel11062420493D

 45 49  0  0  1  0  0  0  0  0999 V2000
  191.3710  178.3800  143.7140 O   0  0  0  0  0  0  0  0  0  0  0  0
  191.0610  177.2010  143.3860 C   0  0  0  0  0  0  0  0  0  0  0  0
  191.7890  176.0880  143.9430 N   0  0  0  0  0  0  0  0  0  0  0  0
  191.6900  174.0600  142.5130 C   0  0  0  0  0  3  0  0  0  0  0  0
  191.2620  172.7500  142.2880 C   0  0  0  0  0  3  0  0  0  0  0  0
  189.4990  172.0710  145.4140 F   0  0  0  0  0  0  0  0  0  0  0  0
  190.6500  174.0280  144.6930 C   0  0  0  0  0  3  0  0  0  0  0  0
  191.3970  174.7150  143.7210 C   0  0  0  0  0  0  0  0  0  0  0  0
  190.5240  172.0790  143.2640 C   0  0  0  0  0  3  0  0  0  0  0  0
  190.2220  172.7170  144.4690 C   0  0  0  0  0  0  0  0  0  0  0  0
  192.9130  176.3660  144.8400 C   0  0  0  0  0  2  0  0  0  0  0  0
  196.3450  173.9170  144.3900 N   0  0  0  0  0  2  0  0  0  0  0  0
  195.9050  174.1450  145.7670 C   0  0  0  0  0  2  0  0  0  0  0  0
  196.3970  175.1880  143.6370 C   0  0  2  0  0  3  0  0  0  0  0  0
  194.0670  175.4150  144.5500 C   0  0  1  0  0  3  0  0  0  0  0  0
  195.2830  176.1740  144.0260 C   0  0  0  0  0  2  0  0  0  0  0  0
  194.4430  174.6250  145.8050 C   0  0  0  0  0  2  0  0  0  0  0  0
  195.7320  173.7940  141.6250 C   0  0  0  0  0  3  0  0  0  0  0  0
  196.3470  174.9400  142.1540 C   0  0  0  0  0  0  0  0  0  0  0  0
  196.1510  174.5920  139.4150 N   0  0  0  0  0  0  0  0  0  0  0  0
  196.7440  175.7190  139.9030 C   0  0  0  0  0  3  0  0  0  0  0  0
  195.6530  173.6310  140.2410 C   0  0  0  0  0  0  0  0  0  0  0  0
  196.8540  175.9120  141.2790 C   0  0  0  0  0  3  0  0  0  0  0  0
  195.0160  172.4040  139.6670 C   0  0  0  0  0  2  0  0  0  0  0  0
  193.5030  172.5440  139.4870 C   0  0  0  0  0  3  0  0  0  0  0  0
  193.1390  173.4620  138.3160 C   0  0  0  0  0  2  0  0  0  0  0  0
  192.8050  171.1720  139.4000 C   0  0  0  0  0  2  0  0  0  0  0  0
  191.4980  171.2060  138.5950 C   0  0  0  0  0  2  0  0  0  0  0  0
  190.7770  172.5380  138.7750 C   0  0  0  0  0  2  0  0  0  0  0  0
  191.6190  173.6980  138.2350 C   0  0  0  0  0  2  0  0  0  0  0  0
  190.0200  176.9790  142.4730 O   0  0  0  0  0  0  0  0  0  0  0  0
  188.6370  176.8830  142.8300 C   0  0  1  0  0  3  0  0  0  0  0  0
  188.2530  174.9780  141.2680 C   0  0  0  0  0  1  0  0  0  0  0  0
  188.1220  175.4570  142.7020 C   0  0  0  0  0  2  0  0  0  0  0  0
  188.3840  177.4150  144.2340 C   0  0  0  0  0  2  0  0  0  0  0  0
  187.3770  176.4750  146.3850 C   0  0  1  0  0  3  0  0  0  0  0  0
  187.3050  177.7910  147.1640 C   0  0  0  0  0  2  0  0  0  0  0  0
  185.8170  178.7640  145.4080 C   0  0  0  0  0  2  0  0  0  0  0  0
  185.8890  179.6620  147.6270 O   0  0  0  0  0  1  0  0  0  0  0  0
  185.9670  178.4730  146.8990 C   0  0  2  0  0  3  0  0  0  0  0  0
  185.8820  177.4580  144.6090 C   0  0  0  0  0  2  0  0  0  0  0  0
  187.1920  176.7040  144.8760 C   0  0  1  0  0  3  0  0  0  0  0  0
  188.6680  175.7240  146.6900 C   0  0  0  0  0  2  0  0  0  0  0  0
  189.6070  176.5930  147.2400 O   0  0  0  0  0  0  0  0  0  0  0  0
  190.6350  175.7610  147.6780 C   0  0  0  0  0  1  0  0  0  0  0  0
  2  1  2  0  0  0  0
  2  3  1  0  0  0  0
  3 11  1  0  0  0  0
  4  8  1  0  0  0  0
  5  4  2  0  0  0  0
  5  9  1  0  0  0  0
  8  3  1  0  0  0  0
  8  7  2  0  0  0  0
  9 10  2  0  0  0  0
 10  7  1  0  0  0  0
 10  6  1  0  0  0  0
 12 13  1  0  0  0  0
 13 17  1  0  0  0  0
 14 19  1  6  0  0  0
 14 16  1  0  0  0  0
 14 12  1  0  0  0  0
 15 11  1  1  0  0  0
 15 17  1  0  0  0  0
 16 15  1  0  0  0  0
 18 19  1  0  0  0  0
 20 21  2  0  0  0  0
 20 22  1  0  0  0  0
 21 23  1  0  0  0  0
 22 18  2  0  0  0  0
 23 19  2  0  0  0  0
 24 22  1  0  0  0  0
 25 24  1  0  0  0  0
 26 25  1  0  0  0  0
 27 25  1  0  0  0  0
 28 29  1  0  0  0  0
 28 27  1  0  0  0  0
 30 26  1  0  0  0  0
 30 29  1  0  0  0  0
 31 32  1  0  0  0  0
 31  2  1  0  0  0  0
 32 34  1  1  0  0  0
 32 35  1  0  0  0  0
 33 34  1  0  0  0  0
 36 43  1  6  0  0  0
 36 37  1  0  0  0  0
 38 40  1  0  0  0  0
 40 37  1  0  0  0  0
 40 39  1  1  0  0  0
 41 42  1  0  0  0  0
 41 38  1  0  0  0  0
 42 35  1  1  0  0  0
 42 36  1  0  0  0  0
 43 44  1  0  0  0  0
 44 45  1  0  0  0  0
M  END
>  <MODEL>
4

>  <REMARK>
 VINA RESULT:      -6.6      1.889      4.860
  Name = 
  13 active torsions:
  status: ('A' for Active; 'I' for Inactive)
    1  A    between atoms: C_2  and  C_17
    2  A    between atoms: C_3  and  C_36
    3  A    between atoms: C_4  and  C_18
    4  A    between atoms: C_4  and  N_23
    5  A    between atoms: C_10  and  C_14
    6  A    between atoms: C_10  and  C_15
    7  A    between atoms: C_11  and  O_42
    8  A    between atoms: C_16  and  C_35
    9  A    between atoms: C_16  and  C_43
   10  A    between atoms: N_23  and  C_33
   11  A    between atoms: O_25  and  C_36
   12  A    between atoms: C_35  and  C_41
   13  A    between atoms: C_35  and  O_42
                            x       y       z     vdW  Elec       q    Type
                         _______ _______ _______ _____ _____    ______ ____

>  <TORSDO>
F 13

$$$$
=
 OpenBabel11062420493D

 45 49  0  0  1  0  0  0  0  0999 V2000
  189.0910  177.6780  146.9700 O   0  0  0  0  0  0  0  0  0  0  0  0
  188.8250  176.6310  146.3160 C   0  0  0  0  0  0  0  0  0  0  0  0
  189.8400  176.0270  145.4880 N   0  0  0  0  0  0  0  0  0  0  0  0
  189.7470  173.5460  145.5330 C   0  0  0  0  0  3  0  0  0  0  0  0
  189.6120  172.3220  144.8750 C   0  0  0  0  0  3  0  0  0  0  0  0
  189.0760  173.4550  141.4450 F   0  0  0  0  0  0  0  0  0  0  0  0
  189.4240  174.7090  143.4400 C   0  0  0  0  0  3  0  0  0  0  0  0
  189.6480  174.7570  144.8270 C   0  0  0  0  0  0  0  0  0  0  0  0
  189.3850  172.2900  143.4980 C   0  0  0  0  0  3  0  0  0  0  0  0
  189.2870  173.4840  142.7810 C   0  0  0  0  0  0  0  0  0  0  0  0
  191.1440  176.6860  145.3880 C   0  0  0  0  0  2  0  0  0  0  0  0
  194.5560  174.1840  145.6760 N   0  0  0  0  0  2  0  0  0  0  0  0
  194.6320  175.4470  146.4120 C   0  0  0  0  0  2  0  0  0  0  0  0
  194.0750  174.4070  144.2960 C   0  0  2  0  0  3  0  0  0  0  0  0
  192.2640  175.6600  145.5060 C   0  0  1  0  0  3  0  0  0  0  0  0
  193.0220  175.5240  144.1900 C   0  0  0  0  0  2  0  0  0  0  0  0
  193.2280  176.0420  146.6310 C   0  0  0  0  0  2  0  0  0  0  0  0
  193.4080  172.9710  142.3150 C   0  0  0  0  0  3  0  0  0  0  0  0
  193.5190  173.1410  143.7050 C   0  0  0  0  0  0  0  0  0  0  0  0
  192.6240  170.7420  142.6530 N   0  0  0  0  0  0  0  0  0  0  0  0
  192.7330  170.8780  144.0060 C   0  0  0  0  0  3  0  0  0  0  0  0
  192.9430  171.7570  141.8050 C   0  0  0  0  0  0  0  0  0  0  0  0
  193.1800  172.0780  144.5550 C   0  0  0  0  0  3  0  0  0  0  0  0
  192.8020  171.5730  140.3260 C   0  0  0  0  0  2  0  0  0  0  0  0
  191.4650  172.0830  139.7840 C   0  0  0  0  0  3  0  0  0  0  0  0
  191.6390  172.9720  138.5490 C   0  0  0  0  0  2  0  0  0  0  0  0
  190.4650  170.9330  139.5460 C   0  0  0  0  0  2  0  0  0  0  0  0
  189.4370  171.2400  138.4480 C   0  0  0  0  0  2  0  0  0  0  0  0
  189.0770  172.7220  138.4330 C   0  0  0  0  0  2  0  0  0  0  0  0
  190.2990  173.5830  138.0990 C   0  0  0  0  0  2  0  0  0  0  0  0
  187.5430  176.0660  146.3880 O   0  0  0  0  0  0  0  0  0  0  0  0
  186.3350  176.7570  146.0520 C   0  0  1  0  0  3  0  0  0  0  0  0
  185.4460  178.1730  147.9010 C   0  0  0  0  0  1  0  0  0  0  0  0
  186.3040  178.1550  146.6500 C   0  0  0  0  0  2  0  0  0  0  0  0
  186.1260  176.8180  144.5460 C   0  0  0  0  0  2  0  0  0  0  0  0
  186.9440  178.5950  142.9040 C   0  0  1  0  0  3  0  0  0  0  0  0
  186.5000  177.8980  141.6160 C   0  0  0  0  0  2  0  0  0  0  0  0
  184.1300  177.9220  142.4040 C   0  0  0  0  0  2  0  0  0  0  0  0
  184.6760  177.6970  140.0830 O   0  0  0  0  0  1  0  0  0  0  0  0
  185.0740  178.3130  141.2710 C   0  0  2  0  0  3  0  0  0  0  0  0
  184.5540  178.6130  143.7040 C   0  0  0  0  0  2  0  0  0  0  0  0
  186.0030  178.2670  144.0750 C   0  0  1  0  0  3  0  0  0  0  0  0
  188.3950  178.2680  143.2360 C   0  0  0  0  0  2  0  0  0  0  0  0
  189.1100  178.0280  142.0660 O   0  0  0  0  0  0  0  0  0  0  0  0
  190.4430  178.0110  142.4710 C   0  0  0  0  0  1  0  0  0  0  0  0
  2 31  1  0  0  0  0
  2  1  2  0  0  0  0
  3  2  1  0  0  0  0
  5  4  1  0  0  0  0
  6 10  1  0  0  0  0
  7  8  1  0  0  0  0
  8  3  1  0  0  0  0
  8  4  2  0  0  0  0
  9  5  2  0  0  0  0
 10  7  2  0  0  0  0
 10  9  1  0  0  0  0
 11  3  1  0  0  0  0
 12 13  1  0  0  0  0
 13 17  1  0  0  0  0
 14 19  1  1  0  0  0
 14 12  1  0  0  0  0
 15 11  1  6  0  0  0
 15 17  1  0  0  0  0
 16 14  1  0  0  0  0
 16 15  1  0  0  0  0
 18 19  1  0  0  0  0
 19 23  2  0  0  0  0
 20 21  2  0  0  0  0
 21 23  1  0  0  0  0
 22 18  2  0  0  0  0
 22 20  1  0  0  0  0
 24 22  1  0  0  0  0
 25 24  1  0  0  0  0
 26 25  1  0  0  0  0
 27 25  1  0  0  0  0
 28 27  1  0  0  0  0
 29 28  1  0  0  0  0
 30 29  1  0  0  0  0
 30 26  1  0  0  0  0
 32 35  1  6  0  0  0
 32 31  1  0  0  0  0
 32 34  1  0  0  0  0
 34 33  1  0  0  0  0
 36 43  1  1  0  0  0
 36 42  1  0  0  0  0
 37 36  1  0  0  0  0
 38 41  1  0  0  0  0
 40 39  1  6  0  0  0
 40 37  1  0  0  0  0
 40 38  1  0  0  0  0
 41 42  1  0  0  0  0
 42 35  1  6  0  0  0
 44 45  1  0  0  0  0
 44 43  1  0  0  0  0
M  END
>  <MODEL>
5

>  <REMARK>
 VINA RESULT:      -6.5      1.941      5.509
  Name = 
  13 active torsions:
  status: ('A' for Active; 'I' for Inactive)
    1  A    between atoms: C_2  and  C_17
    2  A    between atoms: C_3  and  C_36
    3  A    between atoms: C_4  and  C_18
    4  A    between atoms: C_4  and  N_23
    5  A    between atoms: C_10  and  C_14
    6  A    between atoms: C_10  and  C_15
    7  A    between atoms: C_11  and  O_42
    8  A    between atoms: C_16  and  C_35
    9  A    between atoms: C_16  and  C_43
   10  A    between atoms: N_23  and  C_33
   11  A    between atoms: O_25  and  C_36
   12  A    between atoms: C_35  and  C_41
   13  A    between atoms: C_35  and  O_42
                            x       y       z     vdW  Elec       q    Type
                         _______ _______ _______ _____ _____    ______ ____

>  <TORSDO>
F 13

$$$$
=
 OpenBabel11062420493D

 45 49  0  0  1  0  0  0  0  0999 V2000
  188.6090  173.6190  142.7650 O   0  0  0  0  0  0  0  0  0  0  0  0
  189.3890  174.3540  143.4320 C   0  0  0  0  0  0  0  0  0  0  0  0
  190.5310  173.7720  144.0930 N   0  0  0  0  0  0  0  0  0  0  0  0
  191.5550  174.7120  146.1500 C   0  0  0  0  0  3  0  0  0  0  0  0
  192.5000  175.5300  146.7740 C   0  0  0  0  0  3  0  0  0  0  0  0
  194.3300  176.7840  143.8720 F   0  0  0  0  0  0  0  0  0  0  0  0
  192.4820  175.2840  143.9940 C   0  0  0  0  0  3  0  0  0  0  0  0
  191.5380  174.5720  144.7520 C   0  0  0  0  0  0  0  0  0  0  0  0
  193.4360  176.2270  146.0080 C   0  0  0  0  0  3  0  0  0  0  0  0
  193.4290  176.1010  144.6170 C   0  0  0  0  0  0  0  0  0  0  0  0
  190.7220  172.3220  144.0120 C   0  0  0  0  0  2  0  0  0  0  0  0
  194.4580  170.9870  142.5150 N   0  0  0  0  0  2  0  0  0  0  0  0
  193.3040  170.1520  142.1760 C   0  0  0  0  0  2  0  0  0  0  0  0
  194.4600  171.3230  143.9540 C   0  0  2  0  0  3  0  0  0  0  0  0
  192.0960  172.0020  143.4380 C   0  0  1  0  0  3  0  0  0  0  0  0
  193.0510  171.5360  144.5330 C   0  0  0  0  0  2  0  0  0  0  0  0
  191.9890  170.9350  142.3470 C   0  0  0  0  0  2  0  0  0  0  0  0
  195.8440  173.3000  143.1760 C   0  0  0  0  0  3  0  0  0  0  0  0
  195.2990  172.5410  144.2240 C   0  0  0  0  0  0  0  0  0  0  0  0
  196.7170  174.8570  144.7590 N   0  0  0  0  0  0  0  0  0  0  0  0
  196.1890  174.1440  145.7950 C   0  0  0  0  0  3  0  0  0  0  0  0
  196.5660  174.4590  143.4670 C   0  0  0  0  0  0  0  0  0  0  0  0
  195.4730  172.9750  145.5470 C   0  0  0  0  0  3  0  0  0  0  0  0
  197.1670  175.2640  142.3570 C   0  0  0  0  0  2  0  0  0  0  0  0
  196.5700  174.9340  140.9880 C   0  0  0  0  0  3  0  0  0  0  0  0
  195.3400  175.7880  140.6690 C   0  0  0  0  0  2  0  0  0  0  0  0
  197.6310  174.9880  139.8700 C   0  0  0  0  0  2  0  0  0  0  0  0
  197.0450  175.3250  138.4910 C   0  0  0  0  0  2  0  0  0  0  0  0
  195.6450  174.7400  138.3330 C   0  0  0  0  0  2  0  0  0  0  0  0
  194.6740  175.3500  139.3500 C   0  0  0  0  0  2  0  0  0  0  0  0
  189.1360  175.7300  143.5390 O   0  0  0  0  0  0  0  0  0  0  0  0
  188.5000  176.3510  144.6610 C   0  0  1  0  0  3  0  0  0  0  0  0
  189.3270  177.5530  146.6830 C   0  0  0  0  0  1  0  0  0  0  0  0
  189.2970  177.5450  145.1660 C   0  0  0  0  0  2  0  0  0  0  0  0
  187.0720  176.7640  144.3370 C   0  0  0  0  0  2  0  0  0  0  0  0
  186.4980  178.5990  142.6560 C   0  0  1  0  0  3  0  0  0  0  0  0
  185.0150  178.2550  142.4830 C   0  0  0  0  0  2  0  0  0  0  0  0
  184.6290  178.6290  144.9220 C   0  0  0  0  0  2  0  0  0  0  0  0
  182.8330  178.7200  143.3410 O   0  0  0  0  0  1  0  0  0  0  0  0
  184.1870  179.0140  143.5130 C   0  0  2  0  0  3  0  0  0  0  0  0
  186.1100  178.9690  145.1190 C   0  0  0  0  0  2  0  0  0  0  0  0
  186.9890  178.2680  144.0750 C   0  0  1  0  0  3  0  0  0  0  0  0
  187.3490  177.9220  141.5900 C   0  0  0  0  0  2  0  0  0  0  0  0
  186.6230  176.9070  140.9720 O   0  0  0  0  0  0  0  0  0  0  0  0
  186.7380  177.1780  139.6100 C   0  0  0  0  0  1  0  0  0  0  0  0
  1  2  2  0  0  0  0
  2 31  1  0  0  0  0
  2  3  1  0  0  0  0
  3  8  1  0  0  0  0
  4  5  1  0  0  0  0
  6 10  1  0  0  0  0
  7 10  2  0  0  0  0
  7  8  1  0  0  0  0
  8  4  2  0  0  0  0
  9  5  2  0  0  0  0
 10  9  1  0  0  0  0
 11  3  1  0  0  0  0
 12 14  1  0  0  0  0
 13 17  1  0  0  0  0
 13 12  1  0  0  0  0
 14 19  1  6  0  0  0
 14 16  1  0  0  0  0
 15 11  1  1  0  0  0
 15 16  1  0  0  0  0
 17 15  1  0  0  0  0
 18 22  2  0  0  0  0
 18 19  1  0  0  0  0
 19 23  2  0  0  0  0
 20 21  2  0  0  0  0
 22 20  1  0  0  0  0
 23 21  1  0  0  0  0
 24 22  1  0  0  0  0
 25 24  1  0  0  0  0
 26 25  1  0  0  0  0
 27 25  1  0  0  0  0
 28 27  1  0  0  0  0
 29 28  1  0  0  0  0
 29 30  1  0  0  0  0
 30 26  1  0  0  0  0
 31 32  1  0  0  0  0
 32 35  1  6  0  0  0
 32 34  1  0  0  0  0
 34 33  1  0  0  0  0
 36 43  1  6  0  0  0
 36 42  1  0  0  0  0
 37 36  1  0  0  0  0
 37 40  1  0  0  0  0
 38 41  1  0  0  0  0
 40 39  1  1  0  0  0
 40 38  1  0  0  0  0
 42 35  1  1  0  0  0
 42 41  1  0  0  0  0
 44 43  1  0  0  0  0
 45 44  1  0  0  0  0
M  END
>  <MODEL>
6

>  <REMARK>
 VINA RESULT:      -6.5      2.504      4.570
  Name = 
  13 active torsions:
  status: ('A' for Active; 'I' for Inactive)
    1  A    between atoms: C_2  and  C_17
    2  A    between atoms: C_3  and  C_36
    3  A    between atoms: C_4  and  C_18
    4  A    between atoms: C_4  and  N_23
    5  A    between atoms: C_10  and  C_14
    6  A    between atoms: C_10  and  C_15
    7  A    between atoms: C_11  and  O_42
    8  A    between atoms: C_16  and  C_35
    9  A    between atoms: C_16  and  C_43
   10  A    between atoms: N_23  and  C_33
   11  A    between atoms: O_25  and  C_36
   12  A    between atoms: C_35  and  C_41
   13  A    between atoms: C_35  and  O_42
                            x       y       z     vdW  Elec       q    Type
                         _______ _______ _______ _____ _____    ______ ____

>  <TORSDO>
F 13

$$$$
=
 OpenBabel11062420493D

 45 49  0  0  1  0  0  0  0  0999 V2000
  190.7060  177.7040  142.6580 O   0  0  0  0  0  0  0  0  0  0  0  0
  191.2470  176.9580  143.5220 C   0  0  0  0  0  0  0  0  0  0  0  0
  192.5830  176.4610  143.3020 N   0  0  0  0  0  0  0  0  0  0  0  0
  194.1910  176.3700  145.1920 C   0  0  0  0  0  3  0  0  0  0  0  0
  194.9300  175.6410  146.1270 C   0  0  0  0  0  3  0  0  0  0  0  0
  193.8260  172.2450  145.3580 F   0  0  0  0  0  0  0  0  0  0  0  0
  193.2020  174.3230  144.3750 C   0  0  0  0  0  3  0  0  0  0  0  0
  193.3110  175.7230  144.3080 C   0  0  0  0  0  0  0  0  0  0  0  0
  194.8070  174.2520  146.1840 C   0  0  0  0  0  3  0  0  0  0  0  0
  193.9390  173.5930  145.3100 C   0  0  0  0  0  0  0  0  0  0  0  0
  193.2560  176.7960  142.0460 C   0  0  0  0  0  2  0  0  0  0  0  0
  196.7530  174.5810  141.1240 N   0  0  0  0  0  2  0  0  0  0  0  0
  196.7740  175.9920  140.7340 C   0  0  0  0  0  2  0  0  0  0  0  0
  195.4920  173.9380  140.7000 C   0  0  2  0  0  3  0  0  0  0  0  0
  194.4970  175.9300  141.8640 C   0  0  1  0  0  3  0  0  0  0  0  0
  194.2710  174.8690  140.7910 C   0  0  0  0  0  2  0  0  0  0  0  0
  195.7070  176.7920  141.5030 C   0  0  0  0  0  2  0  0  0  0  0  0
  193.9210  172.2060  141.6830 C   0  0  0  0  0  3  0  0  0  0  0  0
  195.2260  172.6900  141.4970 C   0  0  0  0  0  0  0  0  0  0  0  0
  194.7920  170.3140  142.8490 N   0  0  0  0  0  0  0  0  0  0  0  0
  196.0700  170.7570  142.6720 C   0  0  0  0  0  3  0  0  0  0  0  0
  193.7220  171.0120  142.3780 C   0  0  0  0  0  0  0  0  0  0  0  0
  196.3090  171.9510  141.9950 C   0  0  0  0  0  3  0  0  0  0  0  0
  192.3340  170.4970  142.5990 C   0  0  0  0  0  2  0  0  0  0  0  0
  191.2550  171.5380  142.2920 C   0  0  0  0  0  3  0  0  0  0  0  0
  190.4350  171.1770  141.0500 C   0  0  0  0  0  2  0  0  0  0  0  0
  190.3670  171.8260  143.5200 C   0  0  0  0  0  2  0  0  0  0  0  0
  188.9520  172.2930  143.1510 C   0  0  0  0  0  2  0  0  0  0  0  0
  188.9660  173.1270  141.8740 C   0  0  0  0  0  2  0  0  0  0  0  0
  189.4470  172.2990  140.6790 C   0  0  0  0  0  2  0  0  0  0  0  0
  190.5440  176.6070  144.6830 O   0  0  0  0  0  0  0  0  0  0  0  0
  189.6200  175.5180  144.7720 C   0  0  1  0  0  3  0  0  0  0  0  0
  190.7450  175.3990  146.9930 C   0  0  0  0  0  1  0  0  0  0  0  0
  189.8960  174.6450  145.9870 C   0  0  0  0  0  2  0  0  0  0  0  0
  188.1780  176.0070  144.7860 C   0  0  0  0  0  2  0  0  0  0  0  0
  187.0940  178.2910  144.4300 C   0  0  1  0  0  3  0  0  0  0  0  0
  185.6530  177.8810  144.7470 C   0  0  0  0  0  2  0  0  0  0  0  0
  186.3460  177.1700  147.0400 C   0  0  0  0  0  2  0  0  0  0  0  0
  184.0670  177.6960  146.5270 O   0  0  0  0  0  1  0  0  0  0  0  0
  185.3870  178.0470  146.2400 C   0  0  2  0  0  3  0  0  0  0  0  0
  187.7950  177.5670  146.7400 C   0  0  0  0  0  2  0  0  0  0  0  0
  188.1050  177.4640  145.2400 C   0  0  1  0  0  3  0  0  0  0  0  0
  187.3710  178.2170  142.9340 C   0  0  0  0  0  2  0  0  0  0  0  0
  186.1880  177.9740  142.2400 O   0  0  0  0  0  0  0  0  0  0  0  0
  186.5910  177.2830  141.0990 C   0  0  0  0  0  1  0  0  0  0  0  0
  1  2  2  0  0  0  0
  2 31  1  0  0  0  0
  3  2  1  0  0  0  0
  3  8  1  0  0  0  0
  4  5  1  0  0  0  0
  5  9  2  0  0  0  0
  7 10  2  0  0  0  0
  8  7  1  0  0  0  0
  8  4  2  0  0  0  0
 10  6  1  0  0  0  0
 10  9  1  0  0  0  0
 11  3  1  0  0  0  0
 13 12  1  0  0  0  0
 13 17  1  0  0  0  0
 14 16  1  0  0  0  0
 14 12  1  0  0  0  0
 14 19  1  1  0  0  0
 15 11  1  6  0  0  0
 16 15  1  0  0  0  0
 17 15  1  0  0  0  0
 18 22  1  0  0  0  0
 19 18  2  0  0  0  0
 19 23  1  0  0  0  0
 21 20  1  0  0  0  0
 22 24  1  0  0  0  0
 22 20  2  0  0  0  0
 23 21  2  0  0  0  0
 25 24  1  0  0  0  0
 25 27  1  0  0  0  0
 26 25  1  0  0  0  0
 28 27  1  0  0  0  0
 29 28  1  0  0  0  0
 30 26  1  0  0  0  0
 30 29  1  0  0  0  0
 31 32  1  0  0  0  0
 32 35  1  1  0  0  0
 32 34  1  0  0  0  0
 34 33  1  0  0  0  0
 36 43  1  6  0  0  0
 36 37  1  0  0  0  0
 36 42  1  0  0  0  0
 37 40  1  0  0  0  0
 40 39  1  6  0  0  0
 40 38  1  0  0  0  0
 41 38  1  0  0  0  0
 42 35  1  6  0  0  0
 42 41  1  0  0  0  0
 44 43  1  0  0  0  0
 45 44  1  0  0  0  0
M  END
>  <MODEL>
7

>  <REMARK>
 VINA RESULT:      -6.5      2.134      4.807
  Name = 
  13 active torsions:
  status: ('A' for Active; 'I' for Inactive)
    1  A    between atoms: C_2  and  C_17
    2  A    between atoms: C_3  and  C_36
    3  A    between atoms: C_4  and  C_18
    4  A    between atoms: C_4  and  N_23
    5  A    between atoms: C_10  and  C_14
    6  A    between atoms: C_10  and  C_15
    7  A    between atoms: C_11  and  O_42
    8  A    between atoms: C_16  and  C_35
    9  A    between atoms: C_16  and  C_43
   10  A    between atoms: N_23  and  C_33
   11  A    between atoms: O_25  and  C_36
   12  A    between atoms: C_35  and  C_41
   13  A    between atoms: C_35  and  O_42
                            x       y       z     vdW  Elec       q    Type
                         _______ _______ _______ _____ _____    ______ ____

>  <TORSDO>
F 13

$$$$
=
 OpenBabel11062420493D

 45 49  0  0  1  0  0  0  0  0999 V2000
  192.7330  175.5480  141.7780 O   0  0  0  0  0  0  0  0  0  0  0  0
  192.0530  175.6650  142.8360 C   0  0  0  0  0  0  0  0  0  0  0  0
  192.5650  175.1370  144.0770 N   0  0  0  0  0  0  0  0  0  0  0  0
  192.3950  176.3060  146.2610 C   0  0  0  0  0  3  0  0  0  0  0  0
  191.7840  176.4760  147.5060 C   0  0  0  0  0  3  0  0  0  0  0  0
  189.1220  173.9830  147.2960 F   0  0  0  0  0  0  0  0  0  0  0  0
  190.8000  174.5770  145.7120 C   0  0  0  0  0  3  0  0  0  0  0  0
  191.9070  175.3590  145.3440 C   0  0  0  0  0  0  0  0  0  0  0  0
  190.6810  175.6950  147.8550 C   0  0  0  0  0  3  0  0  0  0  0  0
  190.1860  174.7470  146.9560 C   0  0  0  0  0  0  0  0  0  0  0  0
  193.8460  174.4280  144.0600 C   0  0  0  0  0  2  0  0  0  0  0  0
  193.6790  170.2240  144.5900 N   0  0  0  0  0  2  0  0  0  0  0  0
  194.5630  170.9440  145.5080 C   0  0  0  0  0  2  0  0  0  0  0  0
  193.9050  170.6560  143.1950 C   0  0  2  0  0  3  0  0  0  0  0  0
  193.6220  172.9300  144.2260 C   0  0  1  0  0  3  0  0  0  0  0  0
  194.2350  172.1530  143.0660 C   0  0  0  0  0  2  0  0  0  0  0  0
  194.2070  172.4420  145.5530 C   0  0  0  0  0  2  0  0  0  0  0  0
  192.2930  171.2070  141.3160 C   0  0  0  0  0  3  0  0  0  0  0  0
  192.7190  170.3320  142.3290 C   0  0  0  0  0  0  0  0  0  0  0  0
  190.6190  169.6350  140.6650 N   0  0  0  0  0  0  0  0  0  0  0  0
  191.0200  168.7630  141.6350 C   0  0  0  0  0  3  0  0  0  0  0  0
  191.2250  170.8420  140.4940 C   0  0  0  0  0  0  0  0  0  0  0  0
  192.0740  169.0960  142.4830 C   0  0  0  0  0  3  0  0  0  0  0  0
  190.7510  171.7750  139.4240 C   0  0  0  0  0  2  0  0  0  0  0  0
  190.7090  171.1240  138.0390 C   0  0  0  0  0  3  0  0  0  0  0  0
  189.8470  171.9160  137.0510 C   0  0  0  0  0  2  0  0  0  0  0  0
  192.1230  170.8420  137.4930 C   0  0  0  0  0  2  0  0  0  0  0  0
  192.1920  170.8330  135.9590 C   0  0  0  0  0  2  0  0  0  0  0  0
  190.9030  170.2850  135.3560 C   0  0  0  0  0  2  0  0  0  0  0  0
  189.7070  171.1770  135.7060 C   0  0  0  0  0  2  0  0  0  0  0  0
  190.8000  176.2940  142.7980 O   0  0  0  0  0  0  0  0  0  0  0  0
  189.6070  175.6930  142.2860 C   0  0  1  0  0  3  0  0  0  0  0  0
  189.0230  173.3150  142.7590 C   0  0  0  0  0  1  0  0  0  0  0  0
  189.8390  174.2450  141.8800 C   0  0  0  0  0  2  0  0  0  0  0  0
  188.4610  175.7880  143.2830 C   0  0  0  0  0  2  0  0  0  0  0  0
  186.8540  177.7720  143.3340 C   0  0  1  0  0  3  0  0  0  0  0  0
  185.7480  177.1130  144.1640 C   0  0  0  0  0  2  0  0  0  0  0  0
  187.3530  176.7560  146.0440 C   0  0  0  0  0  2  0  0  0  0  0  0
  184.9850  176.7740  146.4040 O   0  0  0  0  0  1  0  0  0  0  0  0
  186.0060  177.3530  145.6480 C   0  0  2  0  0  3  0  0  0  0  0  0
  188.4760  177.4050  145.2290 C   0  0  0  0  0  2  0  0  0  0  0  0
  188.2420  177.2360  143.7210 C   0  0  1  0  0  3  0  0  0  0  0  0
  186.5860  177.6240  141.8410 C   0  0  0  0  0  2  0  0  0  0  0  0
  185.7510  178.6490  141.4030 O   0  0  0  0  0  0  0  0  0  0  0  0
  184.9790  178.0630  140.4010 C   0  0  0  0  0  1  0  0  0  0  0  0
  1  2  2  0  0  0  0
  2  3  1  0  0  0  0
  3  8  1  0  0  0  0
  4  5  1  0  0  0  0
  5  9  2  0  0  0  0
  7 10  2  0  0  0  0
  8  7  1  0  0  0  0
  8  4  2  0  0  0  0
 10  6  1  0  0  0  0
 10  9  1  0  0  0  0
 11  3  1  0  0  0  0
 12 13  1  0  0  0  0
 13 17  1  0  0  0  0
 14 19  1  6  0  0  0
 14 12  1  0  0  0  0
 15 11  1  6  0  0  0
 15 17  1  0  0  0  0
 16 14  1  0  0  0  0
 16 15  1  0  0  0  0
 18 19  1  0  0  0  0
 19 23  2  0  0  0  0
 20 21  2  0  0  0  0
 21 23  1  0  0  0  0
 22 20  1  0  0  0  0
 22 18  2  0  0  0  0
 24 22  1  0  0  0  0
 25 24  1  0  0  0  0
 26 25  1  0  0  0  0
 27 25  1  0  0  0  0
 28 27  1  0  0  0  0
 29 30  1  0  0  0  0
 29 28  1  0  0  0  0
 30 26  1  0  0  0  0
 31  2  1  0  0  0  0
 32 34  1  1  0  0  0
 32 31  1  0  0  0  0
 32 35  1  0  0  0  0
 34 33  1  0  0  0  0
 36 43  1  6  0  0  0
 36 42  1  0  0  0  0
 36 37  1  0  0  0  0
 37 40  1  0  0  0  0
 40 38  1  0  0  0  0
 40 39  1  1  0  0  0
 41 38  1  0  0  0  0
 42 35  1  1  0  0  0
 42 41  1  0  0  0  0
 44 43  1  0  0  0  0
 45 44  1  0  0  0  0
M  END
>  <MODEL>
8

>  <REMARK>
 VINA RESULT:      -6.5      2.181      5.709
  Name = 
  13 active torsions:
  status: ('A' for Active; 'I' for Inactive)
    1  A    between atoms: C_2  and  C_17
    2  A    between atoms: C_3  and  C_36
    3  A    between atoms: C_4  and  C_18
    4  A    between atoms: C_4  and  N_23
    5  A    between atoms: C_10  and  C_14
    6  A    between atoms: C_10  and  C_15
    7  A    between atoms: C_11  and  O_42
    8  A    between atoms: C_16  and  C_35
    9  A    between atoms: C_16  and  C_43
   10  A    between atoms: N_23  and  C_33
   11  A    between atoms: O_25  and  C_36
   12  A    between atoms: C_35  and  C_41
   13  A    between atoms: C_35  and  O_42
                            x       y       z     vdW  Elec       q    Type
                         _______ _______ _______ _____ _____    ______ ____

>  <TORSDO>
F 13

$$$$
=
 OpenBabel11062420493D

 45 49  0  0  1  0  0  0  0  0999 V2000
  194.7970  171.0040  141.4990 O   0  0  0  0  0  0  0  0  0  0  0  0
  193.6060  171.2970  141.8030 C   0  0  0  0  0  0  0  0  0  0  0  0
  193.3460  172.1390  142.9450 N   0  0  0  0  0  0  0  0  0  0  0  0
  191.4830  173.7450  142.6100 C   0  0  0  0  0  3  0  0  0  0  0  0
  190.2260  174.2410  142.9620 C   0  0  0  0  0  3  0  0  0  0  0  0
  189.3160  171.9300  145.6400 F   0  0  0  0  0  0  0  0  0  0  0  0
  191.2780  172.0240  144.2920 C   0  0  0  0  0  3  0  0  0  0  0  0
  192.0240  172.6260  143.2640 C   0  0  0  0  0  0  0  0  0  0  0  0
  189.4950  173.6300  143.9810 C   0  0  0  0  0  3  0  0  0  0  0  0
  190.0200  172.5180  144.6440 C   0  0  0  0  0  0  0  0  0  0  0  0
  194.4800  172.5870  143.7570 C   0  0  0  0  0  2  0  0  0  0  0  0
  194.4590  176.6550  144.9510 N   0  0  0  0  0  2  0  0  0  0  0  0
  195.7090  176.1740  144.3600 C   0  0  0  0  0  2  0  0  0  0  0  0
  193.9660  175.7130  145.9790 C   0  0  2  0  0  3  0  0  0  0  0  0
  194.3190  174.0570  144.1220 C   0  0  1  0  0  3  0  0  0  0  0  0
  194.2380  174.2390  145.6350 C   0  0  0  0  0  2  0  0  0  0  0  0
  195.4750  174.8820  143.5550 C   0  0  0  0  0  2  0  0  0  0  0  0
  191.7360  176.8050  145.4620 C   0  0  0  0  0  3  0  0  0  0  0  0
  192.4960  175.9040  146.2270 C   0  0  0  0  0  0  0  0  0  0  0  0
  189.7640  176.1210  146.6190 N   0  0  0  0  0  0  0  0  0  0  0  0
  190.4770  175.2310  147.3670 C   0  0  0  0  0  3  0  0  0  0  0  0
  190.3620  176.9080  145.6840 C   0  0  0  0  0  0  0  0  0  0  0  0
  191.8530  175.1070  147.1860 C   0  0  0  0  0  3  0  0  0  0  0  0
  189.5470  177.8790  144.8870 C   0  0  0  0  0  2  0  0  0  0  0  0
  188.7610  177.2130  143.7550 C   0  0  0  0  0  3  0  0  0  0  0  0
  187.2610  177.1420  144.0520 C   0  0  0  0  0  2  0  0  0  0  0  0
  189.0610  177.8620  142.3890 C   0  0  0  0  0  2  0  0  0  0  0  0
  187.9030  177.7340  141.3880 C   0  0  0  0  0  2  0  0  0  0  0  0
  187.1560  176.4190  141.5800 C   0  0  0  0  0  2  0  0  0  0  0  0
  186.5070  176.3510  142.9670 C   0  0  0  0  0  2  0  0  0  0  0  0
  192.5440  170.7940  141.0380 O   0  0  0  0  0  0  0  0  0  0  0  0
  192.6790  170.2600  139.7170 C   0  0  1  0  0  3  0  0  0  0  0  0
  191.4140  168.8110  138.1300 C   0  0  0  0  0  1  0  0  0  0  0  0
  191.9090  168.9580  139.5570 C   0  0  0  0  0  2  0  0  0  0  0  0
  192.2460  171.2670  138.6600 C   0  0  0  0  0  2  0  0  0  0  0  0
  191.7750  173.7760  138.6850 C   0  0  1  0  0  3  0  0  0  0  0  0
  191.2500  173.8960  137.2510 C   0  0  0  0  0  2  0  0  0  0  0  0
  189.4210  172.2760  137.7710 C   0  0  0  0  0  2  0  0  0  0  0  0
  189.2590  173.8000  135.9300 O   0  0  0  0  0  1  0  0  0  0  0  0
  189.7420  173.6670  137.2330 C   0  0  2  0  0  3  0  0  0  0  0  0
  189.9340  172.1360  139.2070 C   0  0  0  0  0  2  0  0  0  0  0  0
  191.4430  172.4040  139.2920 C   0  0  1  0  0  3  0  0  0  0  0  0
  193.2660  174.0800  138.7530 C   0  0  0  0  0  2  0  0  0  0  0  0
  193.6370  174.3580  140.0670 O   0  0  0  0  0  0  0  0  0  0  0  0
  194.6300  175.3280  139.9490 C   0  0  0  0  0  1  0  0  0  0  0  0
  1  2  2  0  0  0  0
  2  3  1  0  0  0  0
  3  8  1  0  0  0  0
  3 11  1  0  0  0  0
  4  5  2  0  0  0  0
  4  8  1  0  0  0  0
  5  9  1  0  0  0  0
  7 10  1  0  0  0  0
  8  7  2  0  0  0  0
  9 10  2  0  0  0  0
 10  6  1  0  0  0  0
 12 14  1  0  0  0  0
 13 12  1  0  0  0  0
 14 19  1  6  0  0  0
 15 11  1  1  0  0  0
 15 16  1  0  0  0  0
 16 14  1  0  0  0  0
 17 15  1  0  0  0  0
 17 13  1  0  0  0  0
 18 22  2  0  0  0  0
 18 19  1  0  0  0  0
 19 23  2  0  0  0  0
 20 21  2  0  0  0  0
 22 20  1  0  0  0  0
 23 21  1  0  0  0  0
 24 22  1  0  0  0  0
 25 26  1  0  0  0  0
 25 24  1  0  0  0  0
 27 25  1  0  0  0  0
 28 29  1  0  0  0  0
 28 27  1  0  0  0  0
 29 30  1  0  0  0  0
 30 26  1  0  0  0  0
 31  2  1  0  0  0  0
 32 35  1  6  0  0  0
 32 31  1  0  0  0  0
 33 34  1  0  0  0  0
 34 32  1  0  0  0  0
 36 43  1  6  0  0  0
 36 42  1  0  0  0  0
 37 36  1  0  0  0  0
 38 41  1  0  0  0  0
 40 39  1  6  0  0  0
 40 37  1  0  0  0  0
 40 38  1  0  0  0  0
 41 42  1  0  0  0  0
 42 35  1  6  0  0  0
 43 44  1  0  0  0  0
 45 44  1  0  0  0  0
M  END
>  <MODEL>
9

>  <REMARK>
 VINA RESULT:      -6.4      2.928      7.588
  Name = 
  13 active torsions:
  status: ('A' for Active; 'I' for Inactive)
    1  A    between atoms: C_2  and  C_17
    2  A    between atoms: C_3  and  C_36
    3  A    between atoms: C_4  and  C_18
    4  A    between atoms: C_4  and  N_23
    5  A    between atoms: C_10  and  C_14
    6  A    between atoms: C_10  and  C_15
    7  A    between atoms: C_11  and  O_42
    8  A    between atoms: C_16  and  C_35
    9  A    between atoms: C_16  and  C_43
   10  A    between atoms: N_23  and  C_33
   11  A    between atoms: O_25  and  C_36
   12  A    between atoms: C_35  and  C_41
   13  A    between atoms: C_35  and  O_42
                            x       y       z     vdW  Elec       q    Type
                         _______ _______ _______ _____ _____    ______ ____

>  <TORSDO>
F 13

$$$$
