=
 OpenBabel11072408293D

 56 63  0  0  1  0  0  0  0  0999 V2000
  194.2030  173.4590  138.0220 C   0  0  0  0  0  0  0  0  0  0  0  0
  187.9340  173.1750  140.0980 C   0  0  0  0  0  2  0  0  0  0  0  0
  188.7650  173.3590  138.8420 C   0  0  0  0  0  2  0  0  0  0  0  0
  188.4260  174.2250  142.1320 O   0  0  0  0  0  0  0  0  0  0  0  0
  192.2690  172.0750  135.5870 C   0  0  2  0  0  0  0  0  0  0  0  0
  196.1260  175.2330  136.6990 C   0  0  0  0  0  2  0  0  0  0  0  0
  195.9430  175.1660  138.2080 C   0  0  0  0  0  2  0  0  0  0  0  0
  188.8260  173.4310  141.1990 C   0  0  0  0  0  0  0  0  0  0  0  0
  195.5050  169.7530  134.8270 C   0  0  0  0  0  2  0  0  0  0  0  0
  193.7470  171.4940  135.2310 C   0  0  1  0  0  3  0  0  0  0  0  0
  193.2390  169.0900  135.0460 O   0  0  0  0  0  1  0  0  0  0  0  0
  190.8360  172.5140  140.0810 C   0  0  0  0  0  0  0  0  0  0  0  0
  194.5840  174.6330  138.5580 C   0  0  0  0  0  3  0  0  0  0  0  0
  192.1500  173.3350  134.7140 C   0  0  0  0  0  1  0  0  0  0  0  0
  190.5510  172.0450  137.5700 C   0  0  0  0  0  3  0  0  0  0  0  0
  194.7260  171.5140  136.3610 C   0  0  1  0  0  3  0  0  0  0  0  0
  190.3430  172.4270  142.6570 C   0  0  0  0  0  0  0  0  0  0  0  0
  190.1580  172.8470  141.3620 N   0  0  0  0  0  0  0  0  0  0  0  0
  191.9270  172.5750  137.1550 C   0  0  0  0  0  0  0  0  0  0  0  0
  192.2090  172.7430  139.8350 C   0  0  0  0  0  3  0  0  0  0  0  0
  195.7070  173.9240  135.9700 C   0  0  0  0  0  2  0  0  0  0  0  0
  189.5430  171.5230  143.1650 O   0  0  0  0  0  0  0  0  0  0  0  0
  195.8200  170.4480  136.1420 C   0  0  0  0  0  2  0  0  0  0  0  0
  195.1560  172.8780  136.9490 C   0  0  1  0  0  3  0  0  0  0  0  0
  192.8680  172.7840  138.3900 C   0  0  0  0  0  0  0  0  0  0  0  0
  189.9630  172.4110  138.8770 C   0  0  0  0  0  0  0  0  0  0  0  0
  194.0410  170.1000  134.5130 C   0  0  2  0  0  3  0  0  0  0  0  0
  191.0910  174.6720  145.5540 N   0  0  0  0  0  0  0  0  0  0  0  0
  189.5660  172.9250  145.2090 O   0  0  0  0  0  0  0  0  0  0  0  0
  191.2430  173.2400  143.6500 C   0  0  1  0  0  3  0  0  0  0  0  0
  192.1960  175.1700  144.7930 C   0  0  0  0  0  2  0  0  0  0  0  0
  192.0850  174.5490  143.4330 C   0  0  1  0  0  3  0  0  0  0  0  0
  190.5080  173.6210  144.7980 C   0  0  0  0  0  0  0  0  0  0  0  0
  190.2890  175.5000  146.4230 C   0  0  2  0  0  3  0  0  0  0  0  0
  189.8350  176.9250  145.9180 C   0  0  1  0  0  3  0  0  0  0  0  0
  191.1380  176.7240  146.7680 C   0  0  1  0  0  3  0  0  0  0  0  0
  189.5600  176.7870  144.3770 C   0  0  2  0  0  3  0  0  0  0  0  0
  189.1110  178.0340  142.0600 C   0  0  0  0  0  2  0  0  0  0  0  0
  190.4930  177.8500  143.1900 S   0  0  0  0  0  0  0  0  0  0  0  0
  187.8600  177.2770  142.5820 C   0  0  0  0  0  2  0  0  0  0  0  0
  188.1480  177.0660  144.0440 C   0  0  1  0  0  3  0  0  0  0  0  0
  187.2740  176.4100  145.0600 N   0  0  0  0  0  2  0  0  0  0  0  0
  185.9420  177.0100  145.2620 C   0  0  0  0  0  2  0  0  0  0  0  0
  186.1230  178.2620  146.0620 N   0  0  0  0  0  1  0  0  0  0  0  0
  191.5570  177.7500  149.0810 C   0  0  0  0  0  2  0  0  0  0  0  0
  191.3970  175.4830  148.7980 O   0  0  0  0  0  1  0  0  0  0  0  0
  191.3600  176.6930  148.2420 C   0  0  0  0  0  0  0  0  0  0  0  0
  194.2770  175.7450  142.3590 C   0  0  0  0  0  2  0  0  0  0  0  0
  193.0790  175.3240  142.6280 C   0  0  0  0  0  2  0  0  0  0  0  0
  195.7310  175.9500  142.2020 C   0  0  1  0  0  3  0  0  0  0  0  0
  196.1150  177.0160  141.3020 N   0  0  0  0  0  1  0  0  0  0  0  0
  197.9360  175.9560  143.1510 O   0  0  0  0  0  1  0  0  0  0  0  0
  196.5880  176.1270  143.4730 C   0  0  0  0  0  3  0  0  0  0  0  0
  196.2050  175.2210  144.4550 O   0  0  0  0  0  1  0  0  0  0  0  0
  189.7460  171.4940  134.5130 C   0  0  0  0  0  1  0  0  0  0  0  0
  191.1560  171.0720  135.0500 C   0  0  0  0  0  2  0  0  0  0  0  0
  1 25  1  0  0  0  0
  1 13  2  0  0  0  0
  2  8  1  0  0  0  0
  3 26  1  0  0  0  0
  3  2  1  0  0  0  0
  5 14  1  6  0  0  0
  5 19  1  0  0  0  0
  6  7  1  0  0  0  0
  7 13  1  0  0  0  0
  8 18  1  0  0  0  0
  8  4  2  0  0  0  0
  9 23  1  0  0  0  0
 10  5  1  0  0  0  0
 10 16  1  0  0  0  0
 12 18  1  0  0  0  0
 15 26  1  0  0  0  0
 16 24  1  0  0  0  0
 17 22  2  0  0  0  0
 17 30  1  0  0  0  0
 18 17  1  0  0  0  0
 19 15  2  0  0  0  0
 19 25  1  0  0  0  0
 20 12  1  0  0  0  0
 21  6  1  0  0  0  0
 21 24  1  0  0  0  0
 23 16  1  0  0  0  0
 24  1  1  0  0  0  0
 25 20  2  0  0  0  0
 26 12  2  0  0  0  0
 27  9  1  0  0  0  0
 27 11  1  0  0  0  0
 27 10  1  0  0  0  0
 28 34  1  0  0  0  0
 30 33  1  0  0  0  0
 31 28  1  0  0  0  0
 32 30  1  0  0  0  0
 32 31  1  0  0  0  0
 33 29  2  0  0  0  0
 33 28  1  0  0  0  0
 34 36  1  0  0  0  0
 35 34  1  0  0  0  0
 35 36  1  0  0  0  0
 36 47  1  0  0  0  0
 37 35  1  0  0  0  0
 38 40  1  0  0  0  0
 38 39  1  0  0  0  0
 39 37  1  0  0  0  0
 40 41  1  0  0  0  0
 41 37  1  0  0  0  0
 41 42  1  0  0  0  0
 42 43  1  0  0  0  0
 43 44  1  0  0  0  0
 47 46  1  0  0  0  0
 47 45  2  0  0  0  0
 48 49  1  0  0  0  0
 49 32  1  0  0  0  0
 50 48  1  0  0  0  0
 50 53  1  0  0  0  0
 51 50  1  0  0  0  0
 52 53  1  0  0  0  0
 53 54  1  0  0  0  0
 55 56  1  0  0  0  0
 56  5  1  0  0  0  0
M  END
>  <MODEL>
1

>  <REMARK>
 VINA RESULT:      -7.2      0.000      0.000
  Name = 
  10 active torsions:
  status: ('A' for Active; 'I' for Inactive)
    1  A    between atoms: C_3  and  C_32
    2  A    between atoms: C_8  and  C_35
    3  A    between atoms: N_9  and  C_17
    4  A    between atoms: N_13  and  C_28
    5  A    between atoms: N_13  and  C_41
    6  A    between atoms: CA_29  and  C_30
    7  A    between atoms: CA_29  and  C_38
    8  A    between atoms: C_34  and  C_37
    9  A    between atoms: C_40  and  C_42
   10  A    between atoms: C_53  and  C_55
                            x       y       z     vdW  Elec       q    Type
                         _______ _______ _______ _____ _____    ______ ____

>  <TORSDO>
F 10

$$$$
=
 OpenBabel11072408293D

 56 63  0  0  1  0  0  0  0  0999 V2000
  188.2390  175.9050  142.7260 C   0  0  0  0  0  0  0  0  0  0  0  0
  193.6860  172.4440  144.1540 C   0  0  0  0  0  2  0  0  0  0  0  0
  193.0330  173.7910  144.4000 C   0  0  0  0  0  2  0  0  0  0  0  0
  193.7210  171.3930  142.0620 O   0  0  0  0  0  0  0  0  0  0  0  0
  189.3360  176.7580  145.8320 C   0  0  2  0  0  0  0  0  0  0  0  0
  187.3370  178.3680  141.4160 C   0  0  0  0  0  2  0  0  0  0  0  0
  187.4660  177.0330  140.6980 C   0  0  0  0  0  2  0  0  0  0  0  0
  193.0060  171.8810  143.0160 C   0  0  0  0  0  0  0  0  0  0  0  0
  185.4000  177.0700  146.7530 C   0  0  0  0  0  2  0  0  0  0  0  0
  187.7570  177.1440  145.9020 C   0  0  1  0  0  3  0  0  0  0  0  0
  187.1150  175.9840  147.9800 O   0  0  0  0  0  1  0  0  0  0  0  0
  190.8010  172.8700  143.5570 C   0  0  0  0  0  0  0  0  0  0  0  0
  188.4330  176.1340  141.4130 C   0  0  0  0  0  3  0  0  0  0  0  0
  190.0180  178.0750  145.4260 C   0  0  0  0  0  1  0  0  0  0  0  0
  190.8480  174.6560  145.4040 C   0  0  0  0  0  3  0  0  0  0  0  0
  186.8920  176.4620  144.8910 C   0  0  1  0  0  3  0  0  0  0  0  0
  191.1950  170.5580  142.3800 C   0  0  0  0  0  0  0  0  0  0  0  0
  191.5540  171.7960  142.8560 N   0  0  0  0  0  0  0  0  0  0  0  0
  189.8650  175.6130  144.7210 C   0  0  0  0  0  0  0  0  0  0  0  0
  189.6830  173.5360  143.0050 C   0  0  0  0  0  3  0  0  0  0  0  0
  187.1170  178.2240  142.9490 C   0  0  0  0  0  2  0  0  0  0  0  0
  191.4940  169.4860  143.0710 O   0  0  0  0  0  0  0  0  0  0  0  0
  185.4320  176.3970  145.3900 C   0  0  0  0  0  2  0  0  0  0  0  0
  187.1280  176.7540  143.3910 C   0  0  1  0  0  3  0  0  0  0  0  0
  189.1200  174.9270  143.5260 C   0  0  0  0  0  0  0  0  0  0  0  0
  191.5350  173.5990  144.6300 C   0  0  0  0  0  0  0  0  0  0  0  0
  186.8620  177.1300  147.2220 C   0  0  2  0  0  3  0  0  0  0  0  0
  191.6750  169.9150  138.7260 N   0  0  0  0  0  0  0  0  0  0  0  0
  192.6250  169.0120  140.6690 O   0  0  0  0  0  0  0  0  0  0  0  0
  190.7610  170.3610  140.8860 C   0  0  1  0  0  3  0  0  0  0  0  0
  190.5750  170.8020  138.4960 C   0  0  0  0  0  2  0  0  0  0  0  0
  190.2250  171.3920  139.8300 C   0  0  1  0  0  3  0  0  0  0  0  0
  191.8070  169.7740  140.1320 C   0  0  0  0  0  0  0  0  0  0  0  0
  192.8240  169.8370  137.8580 C   0  0  2  0  0  3  0  0  0  0  0  0
  193.5200  171.1720  137.3840 C   0  0  1  0  0  3  0  0  0  0  0  0
  192.4130  170.4660  136.5260 C   0  0  1  0  0  3  0  0  0  0  0  0
  193.4270  172.1760  138.5900 C   0  0  2  0  0  3  0  0  0  0  0  0
  193.7060  174.6910  139.4380 C   0  0  0  0  0  2  0  0  0  0  0  0
  192.5850  173.8020  138.3530 S   0  0  0  0  0  0  0  0  0  0  0  0
  194.7910  173.7440  140.0150 C   0  0  0  0  0  2  0  0  0  0  0  0
  194.7630  172.5560  139.0920 C   0  0  1  0  0  3  0  0  0  0  0  0
  195.6220  171.3370  139.1480 N   0  0  0  0  0  2  0  0  0  0  0  0
  196.9550  171.4470  138.5270 C   0  0  0  0  0  2  0  0  0  0  0  0
  196.8890  172.5280  137.4950 N   0  0  0  0  0  1  0  0  0  0  0  0
  191.5970  169.1020  134.5140 C   0  0  0  0  0  2  0  0  0  0  0  0
  193.5700  168.6040  135.5660 O   0  0  0  0  0  1  0  0  0  0  0  0
  192.4980  169.3910  135.4970 C   0  0  0  0  0  0  0  0  0  0  0  0
  188.7540  173.3450  138.6420 C   0  0  0  0  0  2  0  0  0  0  0  0
  189.2870  172.4990  139.4700 C   0  0  0  0  0  2  0  0  0  0  0  0
  188.2290  174.0850  137.4760 C   0  0  1  0  0  3  0  0  0  0  0  0
  187.4340  175.2530  137.7870 N   0  0  0  0  0  1  0  0  0  0  0  0
  188.5330  175.2120  135.3780 O   0  0  0  0  0  1  0  0  0  0  0  0
  189.2210  174.5180  136.3760 C   0  0  0  0  0  3  0  0  0  0  0  0
  189.8720  173.4140  135.8370 O   0  0  0  0  0  1  0  0  0  0  0  0
  191.1200  177.0940  147.9680 C   0  0  0  0  0  1  0  0  0  0  0  0
  189.8720  176.4280  147.2950 C   0  0  0  0  0  2  0  0  0  0  0  0
  1 24  1  0  0  0  0
  1 25  1  0  0  0  0
  2  3  1  0  0  0  0
  3 26  1  0  0  0  0
  4  8  2  0  0  0  0
  5 14  1  6  0  0  0
  5 10  1  0  0  0  0
  5 56  1  0  0  0  0
  6 21  1  0  0  0  0
  7 13  1  0  0  0  0
  7  6  1  0  0  0  0
  8  2  1  0  0  0  0
  9 27  1  0  0  0  0
 10 27  1  0  0  0  0
 12 26  1  0  0  0  0
 13  1  2  0  0  0  0
 16 23  1  0  0  0  0
 16 10  1  0  0  0  0
 17 18  1  0  0  0  0
 17 22  2  0  0  0  0
 18  8  1  0  0  0  0
 18 12  1  0  0  0  0
 19 15  1  0  0  0  0
 19  5  1  0  0  0  0
 20 25  1  0  0  0  0
 20 12  2  0  0  0  0
 21 24  1  0  0  0  0
 23  9  1  0  0  0  0
 24 16  1  0  0  0  0
 25 19  2  0  0  0  0
 26 15  2  0  0  0  0
 27 11  1  0  0  0  0
 28 33  1  0  0  0  0
 30 17  1  0  0  0  0
 31 28  1  0  0  0  0
 31 32  1  0  0  0  0
 32 30  1  0  0  0  0
 33 29  2  0  0  0  0
 33 30  1  0  0  0  0
 34 28  1  0  0  0  0
 35 34  1  0  0  0  0
 35 37  1  0  0  0  0
 36 35  1  0  0  0  0
 36 34  1  0  0  0  0
 37 41  1  0  0  0  0
 38 40  1  0  0  0  0
 39 37  1  0  0  0  0
 39 38  1  0  0  0  0
 41 42  1  0  0  0  0
 41 40  1  0  0  0  0
 43 42  1  0  0  0  0
 44 43  1  0  0  0  0
 45 47  2  0  0  0  0
 47 46  1  0  0  0  0
 47 36  1  0  0  0  0
 48 49  1  0  0  0  0
 49 32  1  0  0  0  0
 50 51  1  0  0  0  0
 50 48  1  0  0  0  0
 52 53  1  0  0  0  0
 53 50  1  0  0  0  0
 54 53  1  0  0  0  0
 56 55  1  0  0  0  0
M  END
>  <MODEL>
2

>  <REMARK>
 VINA RESULT:      -7.0      3.151     10.263
  Name = 
  10 active torsions:
  status: ('A' for Active; 'I' for Inactive)
    1  A    between atoms: C_3  and  C_32
    2  A    between atoms: C_8  and  C_35
    3  A    between atoms: N_9  and  C_17
    4  A    between atoms: N_13  and  C_28
    5  A    between atoms: N_13  and  C_41
    6  A    between atoms: CA_29  and  C_30
    7  A    between atoms: CA_29  and  C_38
    8  A    between atoms: C_34  and  C_37
    9  A    between atoms: C_40  and  C_42
   10  A    between atoms: C_53  and  C_55
                            x       y       z     vdW  Elec       q    Type
                         _______ _______ _______ _____ _____    ______ ____

>  <TORSDO>
F 10

$$$$
=
 OpenBabel11072408293D

 56 63  0  0  1  0  0  0  0  0999 V2000
  192.1280  170.6010  138.5450 C   0  0  0  0  0  0  0  0  0  0  0  0
  195.1400  173.0750  143.8830 C   0  0  0  0  0  2  0  0  0  0  0  0
  195.1380  171.8610  142.9720 C   0  0  0  0  0  2  0  0  0  0  0  0
  193.1860  174.0960  144.6700 O   0  0  0  0  0  0  0  0  0  0  0  0
  195.3750  169.5820  138.5830 C   0  0  2  0  0  0  0  0  0  0  0  0
  190.5150  168.3250  137.6430 C   0  0  0  0  0  2  0  0  0  0  0  0
  189.9190  169.6150  138.1860 C   0  0  0  0  0  2  0  0  0  0  0  0
  193.8860  173.7430  143.6480 C   0  0  0  0  0  0  0  0  0  0  0  0
  195.1720  169.9580  134.5510 C   0  0  0  0  0  2  0  0  0  0  0  0
  194.9940  169.4750  137.0040 C   0  0  1  0  0  3  0  0  0  0  0  0
  196.8670  170.7360  136.0160 O   0  0  0  0  0  1  0  0  0  0  0  0
  193.7600  173.1510  141.2470 C   0  0  0  0  0  0  0  0  0  0  0  0
  190.9100  170.3370  139.0540 C   0  0  0  0  0  3  0  0  0  0  0  0
  195.1130  168.1660  139.1200 C   0  0  0  0  0  1  0  0  0  0  0  0
  195.4690  171.3900  140.4820 C   0  0  0  0  0  3  0  0  0  0  0  0
  193.8160  170.2920  136.5790 C   0  0  1  0  0  3  0  0  0  0  0  0
  192.8390  175.3560  142.3310 C   0  0  0  0  0  0  0  0  0  0  0  0
  193.3400  174.0760  142.3330 N   0  0  0  0  0  0  0  0  0  0  0  0
  194.5030  170.6150  139.5810 C   0  0  0  0  0  0  0  0  0  0  0  0
  192.8950  172.6850  140.2310 C   0  0  0  0  0  3  0  0  0  0  0  0
  191.9340  168.5110  137.0350 C   0  0  0  0  0  2  0  0  0  0  0  0
  193.6310  176.3620  142.6020 O   0  0  0  0  0  0  0  0  0  0  0  0
  193.9000  170.6100  135.0710 C   0  0  0  0  0  2  0  0  0  0  0  0
  192.4260  169.9590  137.1690 C   0  0  1  0  0  3  0  0  0  0  0  0
  193.1810  171.4140  139.3210 C   0  0  0  0  0  0  0  0  0  0  0  0
  194.9600  172.3100  141.5230 C   0  0  0  0  0  0  0  0  0  0  0  0
  196.0190  169.6480  135.7950 C   0  0  2  0  0  3  0  0  0  0  0  0
  189.4770  175.8370  143.9000 N   0  0  0  0  0  0  0  0  0  0  0  0
  191.6410  176.5480  144.4540 O   0  0  0  0  0  0  0  0  0  0  0  0
  191.2930  175.6190  142.3660 C   0  0  1  0  0  3  0  0  0  0  0  0
  188.9240  175.1950  142.7460 C   0  0  0  0  0  2  0  0  0  0  0  0
  190.0880  174.7080  141.9370 C   0  0  1  0  0  3  0  0  0  0  0  0
  190.8720  175.9650  143.6730 C   0  0  0  0  0  0  0  0  0  0  0  0
  188.9510  175.6620  145.2320 C   0  0  2  0  0  3  0  0  0  0  0  0
  187.8740  176.6840  145.7710 C   0  0  1  0  0  3  0  0  0  0  0  0
  189.4070  176.8730  146.0470 C   0  0  1  0  0  3  0  0  0  0  0  0
  186.9770  177.0760  144.5430 C   0  0  2  0  0  3  0  0  0  0  0  0
  185.9600  179.0390  143.0470 C   0  0  0  0  0  2  0  0  0  0  0  0
  187.5860  178.3370  143.3400 S   0  0  0  0  0  0  0  0  0  0  0  0
  184.8790  178.3150  143.8950 C   0  0  0  0  0  2  0  0  0  0  0  0
  185.6690  177.6180  144.9690 C   0  0  1  0  0  3  0  0  0  0  0  0
  185.1460  176.7870  146.0920 N   0  0  0  0  0  2  0  0  0  0  0  0
  185.1070  177.4290  147.4190 C   0  0  0  0  0  2  0  0  0  0  0  0
  185.6140  178.8290  147.2610 N   0  0  0  0  0  1  0  0  0  0  0  0
  191.0820  177.0720  147.9780 C   0  0  0  0  0  2  0  0  0  0  0  0
  190.3140  175.0320  147.2770 O   0  0  0  0  0  1  0  0  0  0  0  0
  190.2860  176.3560  147.1340 C   0  0  0  0  0  0  0  0  0  0  0  0
  188.9710  173.5530  139.7440 C   0  0  0  0  0  2  0  0  0  0  0  0
  189.4430  173.8160  140.9250 C   0  0  0  0  0  2  0  0  0  0  0  0
  188.6480  173.4800  138.3050 C   0  0  1  0  0  3  0  0  0  0  0  0
  187.8340  174.5620  137.7960 N   0  0  0  0  0  1  0  0  0  0  0  0
  190.1850  174.5500  136.8030 O   0  0  0  0  0  1  0  0  0  0  0  0
  189.8060  173.3010  137.3010 C   0  0  0  0  0  3  0  0  0  0  0  0
  189.4330  172.4570  136.2620 O   0  0  0  0  0  1  0  0  0  0  0  0
  197.9310  168.8500  139.4700 C   0  0  0  0  0  1  0  0  0  0  0  0
  196.9410  169.8200  138.7410 C   0  0  0  0  0  2  0  0  0  0  0  0
  1 13  2  0  0  0  0
  1 25  1  0  0  0  0
  3  2  1  0  0  0  0
  5 56  1  0  0  0  0
  5 14  1  1  0  0  0
  5 19  1  0  0  0  0
  6  7  1  0  0  0  0
  7 13  1  0  0  0  0
  8  2  1  0  0  0  0
  8  4  2  0  0  0  0
  9 23  1  0  0  0  0
  9 27  1  0  0  0  0
 10  5  1  0  0  0  0
 12 26  1  0  0  0  0
 12 18  1  0  0  0  0
 15 26  2  0  0  0  0
 16 10  1  0  0  0  0
 16 24  1  0  0  0  0
 17 18  1  0  0  0  0
 17 30  1  0  0  0  0
 17 22  2  0  0  0  0
 18  8  1  0  0  0  0
 19 15  1  0  0  0  0
 20 12  2  0  0  0  0
 21 24  1  0  0  0  0
 21  6  1  0  0  0  0
 23 16  1  0  0  0  0
 24  1  1  0  0  0  0
 25 19  2  0  0  0  0
 25 20  1  0  0  0  0
 26  3  1  0  0  0  0
 27 11  1  0  0  0  0
 27 10  1  0  0  0  0
 28 34  1  0  0  0  0
 30 33  1  0  0  0  0
 31 28  1  0  0  0  0
 32 30  1  0  0  0  0
 32 31  1  0  0  0  0
 33 28  1  0  0  0  0
 33 29  2  0  0  0  0
 34 35  1  0  0  0  0
 34 36  1  0  0  0  0
 35 36  1  0  0  0  0
 36 47  1  0  0  0  0
 37 41  1  0  0  0  0
 37 35  1  0  0  0  0
 38 39  1  0  0  0  0
 38 40  1  0  0  0  0
 39 37  1  0  0  0  0
 40 41  1  0  0  0  0
 41 42  1  0  0  0  0
 42 43  1  0  0  0  0
 44 43  1  0  0  0  0
 47 46  1  0  0  0  0
 47 45  2  0  0  0  0
 48 49  1  0  0  0  0
 49 32  1  0  0  0  0
 50 48  1  0  0  0  0
 51 50  1  0  0  0  0
 52 53  1  0  0  0  0
 53 50  1  0  0  0  0
 54 53  1  0  0  0  0
 56 55  1  0  0  0  0
M  END
>  <MODEL>
3

>  <REMARK>
 VINA RESULT:      -6.4      2.646      5.242
  Name = 
  10 active torsions:
  status: ('A' for Active; 'I' for Inactive)
    1  A    between atoms: C_3  and  C_32
    2  A    between atoms: C_8  and  C_35
    3  A    between atoms: N_9  and  C_17
    4  A    between atoms: N_13  and  C_28
    5  A    between atoms: N_13  and  C_41
    6  A    between atoms: CA_29  and  C_30
    7  A    between atoms: CA_29  and  C_38
    8  A    between atoms: C_34  and  C_37
    9  A    between atoms: C_40  and  C_42
   10  A    between atoms: C_53  and  C_55
                            x       y       z     vdW  Elec       q    Type
                         _______ _______ _______ _____ _____    ______ ____

>  <TORSDO>
F 10

$$$$
=
 OpenBabel11072408293D

 56 63  0  0  1  0  0  0  0  0999 V2000
  192.5450  170.7490  142.4980 C   0  0  0  0  0  0  0  0  0  0  0  0
  193.0390  175.8410  146.6830 C   0  0  0  0  0  2  0  0  0  0  0  0
  193.2720  174.3440  146.5970 C   0  0  0  0  0  2  0  0  0  0  0  0
  191.1370  176.9000  145.8210 O   0  0  0  0  0  0  0  0  0  0  0  0
  195.1790  170.2390  144.5910 C   0  0  2  0  0  0  0  0  0  0  0  0
  191.2050  168.1660  142.1430 C   0  0  0  0  0  2  0  0  0  0  0  0
  190.6400  169.4830  141.6330 C   0  0  0  0  0  2  0  0  0  0  0  0
  192.1700  176.1670  145.5830 C   0  0  0  0  0  0  0  0  0  0  0  0
  196.9640  168.5540  141.3640 C   0  0  0  0  0  2  0  0  0  0  0  0
  195.5760  169.3260  143.3030 C   0  0  1  0  0  3  0  0  0  0  0  0
  197.8680  170.1310  142.8870 O   0  0  0  0  0  1  0  0  0  0  0  0
  193.0970  174.4580  144.0480 C   0  0  0  0  0  0  0  0  0  0  0  0
  191.2060  170.6400  142.4040 C   0  0  0  0  0  3  0  0  0  0  0  0
  194.4710  169.2520  145.5340 C   0  0  0  0  0  1  0  0  0  0  0  0
  194.6560  172.7460  145.1620 C   0  0  0  0  0  3  0  0  0  0  0  0
  194.8860  169.6960  142.0280 C   0  0  1  0  0  3  0  0  0  0  0  0
  192.1410  176.7970  143.3380 C   0  0  0  0  0  0  0  0  0  0  0  0
  192.3690  175.7470  144.1950 N   0  0  0  0  0  0  0  0  0  0  0  0
  194.1180  171.5280  144.4030 C   0  0  0  0  0  0  0  0  0  0  0  0
  192.7510  173.4620  143.1070 C   0  0  0  0  0  3  0  0  0  0  0  0
  192.7530  168.1790  142.2990 C   0  0  0  0  0  2  0  0  0  0  0  0
  192.8630  177.8850  143.4410 O   0  0  0  0  0  0  0  0  0  0  0  0
  195.7210  169.2360  140.8140 C   0  0  0  0  0  2  0  0  0  0  0  0
  193.3490  169.5490  141.9440 C   0  0  1  0  0  3  0  0  0  0  0  0
  193.2230  171.9480  143.1880 C   0  0  0  0  0  0  0  0  0  0  0  0
  193.8720  173.9980  145.2350 C   0  0  0  0  0  0  0  0  0  0  0  0
  197.0630  168.9910  142.8340 C   0  0  2  0  0  3  0  0  0  0  0  0
  188.5380  177.5340  142.6530 N   0  0  0  0  0  0  0  0  0  0  0  0
  190.2240  178.6520  143.8370 O   0  0  0  0  0  0  0  0  0  0  0  0
  190.8270  176.8750  142.4870 C   0  0  1  0  0  3  0  0  0  0  0  0
  188.5430  176.3960  141.7840 C   0  0  0  0  0  2  0  0  0  0  0  0
  189.8800  175.7400  141.9570 C   0  0  1  0  0  3  0  0  0  0  0  0
  189.8690  177.7060  143.1170 C   0  0  0  0  0  0  0  0  0  0  0  0
  187.4090  177.8990  143.4740 C   0  0  2  0  0  3  0  0  0  0  0  0
  186.9260  176.9030  144.6010 C   0  0  1  0  0  3  0  0  0  0  0  0
  186.2980  176.8950  143.1630 C   0  0  1  0  0  3  0  0  0  0  0  0
  188.2190  176.2230  145.1800 C   0  0  2  0  0  3  0  0  0  0  0  0
  189.3170  174.0330  146.2380 C   0  0  0  0  0  2  0  0  0  0  0  0
  188.6680  174.5180  144.6360 S   0  0  0  0  0  0  0  0  0  0  0  0
  189.1910  175.1910  147.2640 C   0  0  0  0  0  2  0  0  0  0  0  0
  188.1650  176.1070  146.6520 C   0  0  1  0  0  3  0  0  0  0  0  0
  187.6250  177.3780  147.2170 N   0  0  0  0  0  2  0  0  0  0  0  0
  186.3170  177.2880  147.8930 C   0  0  0  0  0  2  0  0  0  0  0  0
  185.5620  178.5450  147.5910 N   0  0  0  0  0  1  0  0  0  0  0  0
  184.9190  177.9160  141.2570 C   0  0  0  0  0  2  0  0  0  0  0  0
  184.3190  178.2110  143.4470 O   0  0  0  0  0  1  0  0  0  0  0  0
  185.1690  177.6710  142.5760 C   0  0  0  0  0  0  0  0  0  0  0  0
  189.7330  173.6620  140.2110 C   0  0  0  0  0  2  0  0  0  0  0  0
  189.7030  174.4310  141.2570 C   0  0  0  0  0  2  0  0  0  0  0  0
  189.9940  172.9970  138.9180 C   0  0  1  0  0  3  0  0  0  0  0  0
  189.8120  171.5620  138.9090 N   0  0  0  0  0  1  0  0  0  0  0  0
  190.1480  174.3530  136.9430 O   0  0  0  0  0  1  0  0  0  0  0  0
  189.2760  173.5320  137.6610 C   0  0  0  0  0  3  0  0  0  0  0  0
  188.1270  174.2330  138.0100 O   0  0  0  0  0  1  0  0  0  0  0  0
  197.1950  169.8890  146.5080 C   0  0  0  0  0  1  0  0  0  0  0  0
  196.5020  170.6910  145.3540 C   0  0  0  0  0  2  0  0  0  0  0  0
  1 25  1  0  0  0  0
  3  2  1  0  0  0  0
  5 56  1  0  0  0  0
  5 14  1  1  0  0  0
  6 21  1  0  0  0  0
  7  6  1  0  0  0  0
  7 13  1  0  0  0  0
  8  4  2  0  0  0  0
  8  2  1  0  0  0  0
  9 27  1  0  0  0  0
 10  5  1  0  0  0  0
 12 18  1  0  0  0  0
 12 26  1  0  0  0  0
 13  1  2  0  0  0  0
 15 26  2  0  0  0  0
 16 10  1  0  0  0  0
 17 22  2  0  0  0  0
 17 18  1  0  0  0  0
 18  8  1  0  0  0  0
 19  5  1  0  0  0  0
 19 15  1  0  0  0  0
 20 25  1  0  0  0  0
 20 12  2  0  0  0  0
 23  9  1  0  0  0  0
 23 16  1  0  0  0  0
 24 16  1  0  0  0  0
 24 21  1  0  0  0  0
 24  1  1  0  0  0  0
 25 19  2  0  0  0  0
 26  3  1  0  0  0  0
 27 11  1  0  0  0  0
 27 10  1  0  0  0  0
 28 33  1  0  0  0  0
 28 34  1  0  0  0  0
 30 33  1  0  0  0  0
 30 17  1  0  0  0  0
 31 32  1  0  0  0  0
 31 28  1  0  0  0  0
 32 30  1  0  0  0  0
 33 29  2  0  0  0  0
 34 35  1  0  0  0  0
 35 37  1  0  0  0  0
 36 34  1  0  0  0  0
 36 35  1  0  0  0  0
 37 41  1  0  0  0  0
 38 40  1  0  0  0  0
 39 37  1  0  0  0  0
 39 38  1  0  0  0  0
 41 42  1  0  0  0  0
 41 40  1  0  0  0  0
 42 43  1  0  0  0  0
 44 43  1  0  0  0  0
 45 47  2  0  0  0  0
 47 36  1  0  0  0  0
 47 46  1  0  0  0  0
 48 49  1  0  0  0  0
 49 32  1  0  0  0  0
 50 48  1  0  0  0  0
 51 50  1  0  0  0  0
 52 53  1  0  0  0  0
 53 54  1  0  0  0  0
 53 50  1  0  0  0  0
 56 55  1  0  0  0  0
M  END
>  <MODEL>
4

>  <REMARK>
 VINA RESULT:      -6.4      3.712      7.181
  Name = 
  10 active torsions:
  status: ('A' for Active; 'I' for Inactive)
    1  A    between atoms: C_3  and  C_32
    2  A    between atoms: C_8  and  C_35
    3  A    between atoms: N_9  and  C_17
    4  A    between atoms: N_13  and  C_28
    5  A    between atoms: N_13  and  C_41
    6  A    between atoms: CA_29  and  C_30
    7  A    between atoms: CA_29  and  C_38
    8  A    between atoms: C_34  and  C_37
    9  A    between atoms: C_40  and  C_42
   10  A    between atoms: C_53  and  C_55
                            x       y       z     vdW  Elec       q    Type
                         _______ _______ _______ _____ _____    ______ ____

>  <TORSDO>
F 10

$$$$
=
 OpenBabel11072408293D

 56 63  0  0  1  0  0  0  0  0999 V2000
  192.3490  170.9740  142.5870 C   0  0  0  0  0  0  0  0  0  0  0  0
  191.7100  175.5610  147.3030 C   0  0  0  0  0  2  0  0  0  0  0  0
  192.2940  174.1820  147.0540 C   0  0  0  0  0  2  0  0  0  0  0  0
  189.5900  176.2150  146.5570 O   0  0  0  0  0  0  0  0  0  0  0  0
  195.0790  170.8940  144.6160 C   0  0  2  0  0  0  0  0  0  0  0  0
  191.6600  168.1970  141.9490 C   0  0  0  0  0  2  0  0  0  0  0  0
  190.7830  169.3860  141.5850 C   0  0  0  0  0  2  0  0  0  0  0  0
  190.7620  175.7820  146.2430 C   0  0  0  0  0  0  0  0  0  0  0  0
  197.1370  170.0420  141.2270 C   0  0  0  0  0  2  0  0  0  0  0  0
  195.6520  170.2470  143.2360 C   0  0  1  0  0  3  0  0  0  0  0  0
  197.6730  171.6190  142.9150 O   0  0  0  0  0  1  0  0  0  0  0  0
  192.0340  174.5210  144.5330 C   0  0  0  0  0  0  0  0  0  0  0  0
  191.0740  170.5570  142.4790 C   0  0  0  0  0  3  0  0  0  0  0  0
  194.6520  169.6720  145.4440 C   0  0  0  0  0  1  0  0  0  0  0  0
  193.9850  173.1260  145.4550 C   0  0  0  0  0  3  0  0  0  0  0  0
  194.8620  170.5720  142.0090 C   0  0  1  0  0  3  0  0  0  0  0  0
  190.5280  176.6220  144.0800 C   0  0  0  0  0  0  0  0  0  0  0  0
  191.0220  175.5730  144.8180 N   0  0  0  0  0  0  0  0  0  0  0  0
  193.7360  171.9030  144.5680 C   0  0  0  0  0  0  0  0  0  0  0  0
  191.9130  173.5760  143.4880 C   0  0  0  0  0  3  0  0  0  0  0  0
  193.1620  168.5660  142.1080 C   0  0  0  0  0  2  0  0  0  0  0  0
  190.9700  177.8350  144.3020 O   0  0  0  0  0  0  0  0  0  0  0  0
  195.7530  170.4590  140.7530 C   0  0  0  0  0  2  0  0  0  0  0  0
  193.4040  170.0690  141.9060 C   0  0  1  0  0  3  0  0  0  0  0  0
  192.7370  172.2210  143.4040 C   0  0  0  0  0  0  0  0  0  0  0  0
  192.9260  174.1370  145.6640 C   0  0  0  0  0  0  0  0  0  0  0  0
  197.1640  170.3310  142.7360 C   0  0  2  0  0  3  0  0  0  0  0  0
  186.8460  176.7210  143.4280 N   0  0  0  0  0  0  0  0  0  0  0  0
  188.3220  178.1140  144.6010 O   0  0  0  0  0  0  0  0  0  0  0  0
  189.2130  176.4710  143.2400 C   0  0  1  0  0  3  0  0  0  0  0  0
  187.0410  175.6030  142.5550 C   0  0  0  0  0  2  0  0  0  0  0  0
  188.4730  175.1890  142.7160 C   0  0  1  0  0  3  0  0  0  0  0  0
  188.1300  177.1210  143.8810 C   0  0  0  0  0  0  0  0  0  0  0  0
  185.6780  176.8820  144.2590 C   0  0  2  0  0  3  0  0  0  0  0  0
  184.5040  177.8140  143.7610 C   0  0  1  0  0  3  0  0  0  0  0  0
  185.6470  178.3470  144.6950 C   0  0  1  0  0  3  0  0  0  0  0  0
  184.4260  177.6380  142.2010 C   0  0  2  0  0  3  0  0  0  0  0  0
  184.8850  178.7080  139.8000 C   0  0  0  0  0  2  0  0  0  0  0  0
  185.8810  178.0960  141.1620 S   0  0  0  0  0  0  0  0  0  0  0  0
  183.3710  178.5870  140.1180 C   0  0  0  0  0  2  0  0  0  0  0  0
  183.3270  178.4320  141.6140 C   0  0  1  0  0  3  0  0  0  0  0  0
  182.1200  178.3010  142.4820 N   0  0  0  0  0  2  0  0  0  0  0  0
  180.8880  178.9440  141.9900 C   0  0  0  0  0  2  0  0  0  0  0  0
  179.8130  177.9020  141.9540 N   0  0  0  0  0  1  0  0  0  0  0  0
  186.0090  179.4320  146.9900 C   0  0  0  0  0  2  0  0  0  0  0  0
  185.7010  177.1720  146.7790 O   0  0  0  0  0  1  0  0  0  0  0  0
  185.7830  178.3590  146.1790 C   0  0  0  0  0  0  0  0  0  0  0  0
  188.8350  173.0970  141.0180 C   0  0  0  0  0  2  0  0  0  0  0  0
  188.5220  173.8700  142.0120 C   0  0  0  0  0  2  0  0  0  0  0  0
  189.4290  172.4350  139.8370 C   0  0  1  0  0  3  0  0  0  0  0  0
  188.5490  172.2900  138.6980 N   0  0  0  0  0  1  0  0  0  0  0  0
  190.5600  173.4980  138.0060 O   0  0  0  0  0  1  0  0  0  0  0  0
  190.7640  172.9800  139.2870 C   0  0  0  0  0  3  0  0  0  0  0  0
  191.7290  171.9810  139.2580 O   0  0  0  0  0  1  0  0  0  0  0  0
  197.1400  170.8510  146.5160 C   0  0  0  0  0  1  0  0  0  0  0  0
  196.2730  171.5680  145.4260 C   0  0  0  0  0  2  0  0  0  0  0  0
  1 25  1  0  0  0  0
  3  2  1  0  0  0  0
  5 56  1  0  0  0  0
  5 14  1  1  0  0  0
  6 21  1  0  0  0  0
  7  6  1  0  0  0  0
  7 13  1  0  0  0  0
  8  4  2  0  0  0  0
  8  2  1  0  0  0  0
  9 27  1  0  0  0  0
 10  5  1  0  0  0  0
 12 18  1  0  0  0  0
 12 26  1  0  0  0  0
 13  1  2  0  0  0  0
 15 26  2  0  0  0  0
 16 10  1  0  0  0  0
 17 22  2  0  0  0  0
 17 18  1  0  0  0  0
 18  8  1  0  0  0  0
 19  5  1  0  0  0  0
 19 15  1  0  0  0  0
 20 12  2  0  0  0  0
 23  9  1  0  0  0  0
 23 16  1  0  0  0  0
 24 16  1  0  0  0  0
 24 21  1  0  0  0  0
 24  1  1  0  0  0  0
 25 20  1  0  0  0  0
 25 19  2  0  0  0  0
 26  3  1  0  0  0  0
 27 11  1  0  0  0  0
 27 10  1  0  0  0  0
 28 33  1  0  0  0  0
 28 34  1  0  0  0  0
 30 33  1  0  0  0  0
 30 17  1  0  0  0  0
 31 32  1  0  0  0  0
 31 28  1  0  0  0  0
 32 30  1  0  0  0  0
 33 29  2  0  0  0  0
 34 36  1  0  0  0  0
 35 34  1  0  0  0  0
 35 36  1  0  0  0  0
 36 47  1  0  0  0  0
 37 35  1  0  0  0  0
 38 40  1  0  0  0  0
 38 39  1  0  0  0  0
 39 37  1  0  0  0  0
 40 41  1  0  0  0  0
 41 37  1  0  0  0  0
 41 42  1  0  0  0  0
 43 42  1  0  0  0  0
 44 43  1  0  0  0  0
 47 46  1  0  0  0  0
 47 45  2  0  0  0  0
 48 49  1  0  0  0  0
 49 32  1  0  0  0  0
 50 48  1  0  0  0  0
 51 50  1  0  0  0  0
 52 53  1  0  0  0  0
 53 50  1  0  0  0  0
 54 53  1  0  0  0  0
 56 55  1  0  0  0  0
M  END
>  <MODEL>
5

>  <REMARK>
 VINA RESULT:      -5.8      3.719      7.107
  Name = 
  10 active torsions:
  status: ('A' for Active; 'I' for Inactive)
    1  A    between atoms: C_3  and  C_32
    2  A    between atoms: C_8  and  C_35
    3  A    between atoms: N_9  and  C_17
    4  A    between atoms: N_13  and  C_28
    5  A    between atoms: N_13  and  C_41
    6  A    between atoms: CA_29  and  C_30
    7  A    between atoms: CA_29  and  C_38
    8  A    between atoms: C_34  and  C_37
    9  A    between atoms: C_40  and  C_42
   10  A    between atoms: C_53  and  C_55
                            x       y       z     vdW  Elec       q    Type
                         _______ _______ _______ _____ _____    ______ ____

>  <TORSDO>
F 10

$$$$
=
 OpenBabel11072408293D

 56 63  0  0  1  0  0  0  0  0999 V2000
  193.9460  173.4670  144.2840 C   0  0  0  0  0  0  0  0  0  0  0  0
  192.3420  172.7190  137.9160 C   0  0  0  0  0  2  0  0  0  0  0  0
  193.5420  172.8760  138.8310 C   0  0  0  0  0  2  0  0  0  0  0  0
  190.3880  173.9920  138.1270 O   0  0  0  0  0  0  0  0  0  0  0  0
  196.3760  171.6790  142.7110 C   0  0  2  0  0  0  0  0  0  0  0  0
  195.2820  175.3060  146.1350 C   0  0  0  0  0  2  0  0  0  0  0  0
  193.7930  175.3560  145.8300 C   0  0  0  0  0  2  0  0  0  0  0  0
  191.2060  173.1640  138.6810 C   0  0  0  0  0  0  0  0  0  0  0  0
  196.6550  169.6470  146.2090 C   0  0  0  0  0  2  0  0  0  0  0  0
  196.5590  171.2250  144.2630 C   0  0  1  0  0  3  0  0  0  0  0  0
  196.5470  168.7740  144.0060 O   0  0  0  0  0  1  0  0  0  0  0  0
  192.0700  172.3640  140.8590 C   0  0  0  0  0  0  0  0  0  0  0  0
  193.4980  174.7180  144.5030 C   0  0  0  0  0  3  0  0  0  0  0  0
  197.3740  172.8360  142.5480 C   0  0  0  0  0  1  0  0  0  0  0  0
  194.5380  171.6470  140.8390 C   0  0  0  0  0  3  0  0  0  0  0  0
  195.3640  171.4470  145.1340 C   0  0  1  0  0  3  0  0  0  0  0  0
  189.5440  172.4570  140.1550 C   0  0  0  0  0  0  0  0  0  0  0  0
  190.8840  172.7390  140.0430 N   0  0  0  0  0  0  0  0  0  0  0  0
  194.8960  172.2780  142.1880 C   0  0  0  0  0  0  0  0  0  0  0  0
  192.2310  172.7120  142.2200 C   0  0  0  0  0  3  0  0  0  0  0  0
  195.9110  173.9020  145.9080 C   0  0  0  0  0  2  0  0  0  0  0  0
  189.0130  171.5240  139.4050 O   0  0  0  0  0  0  0  0  0  0  0  0
  195.3930  170.4850  146.3410 C   0  0  0  0  0  2  0  0  0  0  0  0
  194.8800  172.8950  145.3780 C   0  0  1  0  0  3  0  0  0  0  0  0
  193.6180  172.6930  142.9940 C   0  0  0  0  0  0  0  0  0  0  0  0
  193.3220  172.0650  140.1070 C   0  0  0  0  0  0  0  0  0  0  0  0
  197.1130  169.8110  144.7510 C   0  0  2  0  0  3  0  0  0  0  0  0
  187.5210  175.5720  140.6030 N   0  0  0  0  0  0  0  0  0  0  0  0
  187.9490  174.1660  138.7770 O   0  0  0  0  0  0  0  0  0  0  0  0
  188.5680  173.4450  140.8840 C   0  0  1  0  0  3  0  0  0  0  0  0
  187.8020  175.4700  142.0030 C   0  0  0  0  0  2  0  0  0  0  0  0
  188.7800  174.3430  142.1550 C   0  0  1  0  0  3  0  0  0  0  0  0
  188.0780  174.4220  139.9840 C   0  0  0  0  0  0  0  0  0  0  0  0
  187.4360  176.8300  139.9020 C   0  0  2  0  0  3  0  0  0  0  0  0
  186.2420  177.8100  140.2260 C   0  0  1  0  0  3  0  0  0  0  0  0
  186.1680  176.7740  139.0500 C   0  0  1  0  0  3  0  0  0  0  0  0
  185.9530  177.6680  141.7640 C   0  0  2  0  0  3  0  0  0  0  0  0
  184.7610  178.6870  143.9240 C   0  0  0  0  0  2  0  0  0  0  0  0
  184.2340  177.9150  142.3910 S   0  0  0  0  0  0  0  0  0  0  0  0
  186.3080  178.7910  143.9930 C   0  0  0  0  0  2  0  0  0  0  0  0
  186.7460  178.6260  142.5620 C   0  0  1  0  0  3  0  0  0  0  0  0
  188.1370  178.6670  142.0240 N   0  0  0  0  0  2  0  0  0  0  0  0
  189.2250  178.5380  143.0120 C   0  0  0  0  0  2  0  0  0  0  0  0
  190.3120  177.7200  142.3890 N   0  0  0  0  0  1  0  0  0  0  0  0
  186.2570  176.0410  136.5950 C   0  0  0  0  0  2  0  0  0  0  0  0
  187.4420  177.8550  137.3370 O   0  0  0  0  0  1  0  0  0  0  0  0
  186.5990  176.8650  137.6270 C   0  0  0  0  0  0  0  0  0  0  0  0
  189.3720  175.1350  144.6870 C   0  0  0  0  0  2  0  0  0  0  0  0
  189.2370  174.4850  143.5710 C   0  0  0  0  0  2  0  0  0  0  0  0
  189.2570  176.0310  145.8560 C   0  0  1  0  0  3  0  0  0  0  0  0
  188.0290  176.7910  145.9380 N   0  0  0  0  0  1  0  0  0  0  0  0
  190.8650  175.3890  147.5200 O   0  0  0  0  0  1  0  0  0  0  0  0
  189.4930  175.4360  147.2600 C   0  0  0  0  0  3  0  0  0  0  0  0
  188.9380  174.1660  147.3580 O   0  0  0  0  0  1  0  0  0  0  0  0
  197.9350  170.7100  140.5920 C   0  0  0  0  0  1  0  0  0  0  0  0
  196.8970  170.5210  141.7500 C   0  0  0  0  0  2  0  0  0  0  0  0
  1 13  2  0  0  0  0
  1 24  1  0  0  0  0
  2  8  1  0  0  0  0
  2  3  1  0  0  0  0
  3 26  1  0  0  0  0
  4  8  2  0  0  0  0
  5 14  1  6  0  0  0
  5 10  1  0  0  0  0
  7  6  1  0  0  0  0
  8 18  1  0  0  0  0
  9 23  1  0  0  0  0
 10 27  1  0  0  0  0
 10 16  1  0  0  0  0
 11 27  1  0  0  0  0
 12 20  1  0  0  0  0
 13  7  1  0  0  0  0
 15 19  2  0  0  0  0
 16 24  1  0  0  0  0
 16 23  1  0  0  0  0
 17 30  1  0  0  0  0
 18 17  1  0  0  0  0
 18 12  1  0  0  0  0
 19  5  1  0  0  0  0
 19 25  1  0  0  0  0
 20 25  2  0  0  0  0
 21  6  1  0  0  0  0
 22 17  2  0  0  0  0
 24 21  1  0  0  0  0
 25  1  1  0  0  0  0
 26 15  1  0  0  0  0
 26 12  2  0  0  0  0
 27  9  1  0  0  0  0
 28 31  1  0  0  0  0
 29 33  2  0  0  0  0
 30 32  1  0  0  0  0
 31 32  1  0  0  0  0
 32 49  1  0  0  0  0
 33 28  1  0  0  0  0
 33 30  1  0  0  0  0
 34 35  1  0  0  0  0
 34 28  1  0  0  0  0
 35 37  1  0  0  0  0
 36 34  1  0  0  0  0
 36 35  1  0  0  0  0
 37 39  1  0  0  0  0
 37 41  1  0  0  0  0
 38 40  1  0  0  0  0
 39 38  1  0  0  0  0
 41 40  1  0  0  0  0
 42 41  1  0  0  0  0
 42 43  1  0  0  0  0
 44 43  1  0  0  0  0
 45 47  2  0  0  0  0
 46 47  1  0  0  0  0
 47 36  1  0  0  0  0
 48 50  1  0  0  0  0
 49 48  1  0  0  0  0
 50 51  1  0  0  0  0
 50 53  1  0  0  0  0
 53 54  1  0  0  0  0
 53 52  1  0  0  0  0
 55 56  1  0  0  0  0
 56  5  1  0  0  0  0
M  END
>  <MODEL>
6

>  <REMARK>
 VINA RESULT:      -5.6      3.450      7.226
  Name = 
  10 active torsions:
  status: ('A' for Active; 'I' for Inactive)
    1  A    between atoms: C_3  and  C_32
    2  A    between atoms: C_8  and  C_35
    3  A    between atoms: N_9  and  C_17
    4  A    between atoms: N_13  and  C_28
    5  A    between atoms: N_13  and  C_41
    6  A    between atoms: CA_29  and  C_30
    7  A    between atoms: CA_29  and  C_38
    8  A    between atoms: C_34  and  C_37
    9  A    between atoms: C_40  and  C_42
   10  A    between atoms: C_53  and  C_55
                            x       y       z     vdW  Elec       q    Type
                         _______ _______ _______ _____ _____    ______ ____

>  <TORSDO>
F 10

$$$$
=
 OpenBabel11072408293D

 56 63  0  0  1  0  0  0  0  0999 V2000
  195.0630  173.7700  138.9420 C   0  0  0  0  0  0  0  0  0  0  0  0
  188.5650  173.3380  137.8150 C   0  0  0  0  0  2  0  0  0  0  0  0
  189.9060  173.1900  137.1210 C   0  0  0  0  0  2  0  0  0  0  0  0
  188.0640  175.0890  139.2860 O   0  0  0  0  0  0  0  0  0  0  0  0
  194.4800  171.3660  136.6060 C   0  0  2  0  0  0  0  0  0  0  0  0
  197.4660  175.2280  138.1080 C   0  0  0  0  0  2  0  0  0  0  0  0
  196.5760  175.6650  139.2610 C   0  0  0  0  0  2  0  0  0  0  0  0
  188.8260  174.0860  139.0170 C   0  0  0  0  0  0  0  0  0  0  0  0
  197.5690  169.4100  138.3580 C   0  0  0  0  0  2  0  0  0  0  0  0
  195.9180  170.9140  137.2200 C   0  0  1  0  0  3  0  0  0  0  0  0
  195.4500  168.5490  137.7340 O   0  0  0  0  0  1  0  0  0  0  0  0
  191.0810  173.1320  139.3910 C   0  0  0  0  0  0  0  0  0  0  0  0
  195.1930  175.1000  139.1120 C   0  0  0  0  0  3  0  0  0  0  0  0
  194.8560  172.2130  135.3790 C   0  0  0  0  0  1  0  0  0  0  0  0
  192.0200  171.7840  137.4160 C   0  0  0  0  0  3  0  0  0  0  0  0
  196.2300  171.4650  138.5740 C   0  0  1  0  0  3  0  0  0  0  0  0
  189.4030  173.8790  141.2660 C   0  0  0  0  0  0  0  0  0  0  0  0
  189.8850  173.7910  139.9830 N   0  0  0  0  0  0  0  0  0  0  0  0
  193.4490  172.3260  137.5210 C   0  0  0  0  0  0  0  0  0  0  0  0
  192.4120  173.4550  139.7440 C   0  0  0  0  0  3  0  0  0  0  0  0
  197.3900  173.7020  137.8150 C   0  0  0  0  0  2  0  0  0  0  0  0
  188.4160  173.1040  141.6420 O   0  0  0  0  0  0  0  0  0  0  0  0
  197.2430  170.5560  139.3030 C   0  0  0  0  0  2  0  0  0  0  0  0
  196.3870  172.9950  138.7380 C   0  0  1  0  0  3  0  0  0  0  0  0
  193.6860  173.0840  138.8710 C   0  0  0  0  0  0  0  0  0  0  0  0
  190.8920  172.4940  138.0570 C   0  0  0  0  0  0  0  0  0  0  0  0
  196.4560  169.4140  137.2990 C   0  0  2  0  0  3  0  0  0  0  0  0
  191.3610  175.8370  143.7820 N   0  0  0  0  0  0  0  0  0  0  0  0
  191.9560  174.4380  141.9980 O   0  0  0  0  0  0  0  0  0  0  0  0
  189.7510  175.1060  142.1780 C   0  0  1  0  0  3  0  0  0  0  0  0
  190.1150  176.3930  144.2160 C   0  0  0  0  0  2  0  0  0  0  0  0
  189.0430  175.6580  143.4670 C   0  0  1  0  0  3  0  0  0  0  0  0
  191.0790  175.0150  142.6600 C   0  0  0  0  0  0  0  0  0  0  0  0
  192.4450  175.5260  144.6820 C   0  0  2  0  0  3  0  0  0  0  0  0
  192.4840  174.1070  145.3730 C   0  0  1  0  0  3  0  0  0  0  0  0
  191.8280  175.3500  146.0690 C   0  0  1  0  0  3  0  0  0  0  0  0
  191.9260  173.0810  144.3220 C   0  0  2  0  0  3  0  0  0  0  0  0
  190.8130  170.6940  143.8920 C   0  0  0  0  0  2  0  0  0  0  0  0
  190.3090  172.2480  144.6380 S   0  0  0  0  0  0  0  0  0  0  0  0
  192.2760  170.7700  143.3800 C   0  0  0  0  0  2  0  0  0  0  0  0
  192.8540  171.9520  144.1100 C   0  0  1  0  0  3  0  0  0  0  0  0
  194.2470  172.4810  144.0290 N   0  0  0  0  0  2  0  0  0  0  0  0
  194.8220  172.6060  142.6770 C   0  0  0  0  0  2  0  0  0  0  0  0
  195.4020  173.9800  142.5530 N   0  0  0  0  0  1  0  0  0  0  0  0
  193.6620  176.9450  146.8860 C   0  0  0  0  0  2  0  0  0  0  0  0
  191.6060  176.8860  147.8920 O   0  0  0  0  0  1  0  0  0  0  0  0
  192.4060  176.4150  146.9370 C   0  0  0  0  0  0  0  0  0  0  0  0
  187.0970  176.8820  144.9180 C   0  0  0  0  0  2  0  0  0  0  0  0
  187.7930  176.0800  144.1710 C   0  0  0  0  0  2  0  0  0  0  0  0
  186.5130  178.0200  145.6580 C   0  0  1  0  0  3  0  0  0  0  0  0
  185.9520  179.0710  144.8380 N   0  0  0  0  0  1  0  0  0  0  0  0
  184.3080  178.4560  146.5010 O   0  0  0  0  0  1  0  0  0  0  0  0
  185.4700  177.7220  146.7550 C   0  0  0  0  0  3  0  0  0  0  0  0
  185.9730  178.0320  148.0120 O   0  0  0  0  0  1  0  0  0  0  0  0
  193.8070  169.5770  134.5550 C   0  0  0  0  0  1  0  0  0  0  0  0
  193.7180  170.0910  136.0320 C   0  0  0  0  0  2  0  0  0  0  0  0
  1 13  2  0  0  0  0
  2  8  1  0  0  0  0
  3  2  1  0  0  0  0
  3 26  1  0  0  0  0
  5 14  1  6  0  0  0
  5 10  1  0  0  0  0
  5 19  1  0  0  0  0
  6  7  1  0  0  0  0
  8  4  2  0  0  0  0
  8 18  1  0  0  0  0
  9 23  1  0  0  0  0
 10 27  1  0  0  0  0
 10 16  1  0  0  0  0
 12 20  1  0  0  0  0
 12 18  1  0  0  0  0
 13  7  1  0  0  0  0
 15 19  2  0  0  0  0
 15 26  1  0  0  0  0
 16 24  1  0  0  0  0
 16 23  1  0  0  0  0
 17 22  2  0  0  0  0
 17 30  1  0  0  0  0
 18 17  1  0  0  0  0
 19 25  1  0  0  0  0
 21  6  1  0  0  0  0
 21 24  1  0  0  0  0
 24  1  1  0  0  0  0
 25  1  1  0  0  0  0
 25 20  2  0  0  0  0
 26 12  2  0  0  0  0
 27 11  1  0  0  0  0
 27  9  1  0  0  0  0
 28 31  1  0  0  0  0
 28 34  1  0  0  0  0
 29 33  2  0  0  0  0
 30 33  1  0  0  0  0
 30 32  1  0  0  0  0
 32 49  1  0  0  0  0
 32 31  1  0  0  0  0
 33 28  1  0  0  0  0
 34 35  1  0  0  0  0
 34 36  1  0  0  0  0
 35 36  1  0  0  0  0
 36 47  1  0  0  0  0
 37 39  1  0  0  0  0
 37 35  1  0  0  0  0
 38 39  1  0  0  0  0
 40 38  1  0  0  0  0
 40 41  1  0  0  0  0
 41 37  1  0  0  0  0
 42 41  1  0  0  0  0
 43 42  1  0  0  0  0
 44 43  1  0  0  0  0
 45 47  2  0  0  0  0
 47 46  1  0  0  0  0
 48 50  1  0  0  0  0
 49 48  1  0  0  0  0
 50 53  1  0  0  0  0
 51 50  1  0  0  0  0
 52 53  1  0  0  0  0
 53 54  1  0  0  0  0
 55 56  1  0  0  0  0
 56  5  1  0  0  0  0
M  END
>  <MODEL>
7

>  <REMARK>
 VINA RESULT:      -5.4      2.374      5.286
  Name = 
  10 active torsions:
  status: ('A' for Active; 'I' for Inactive)
    1  A    between atoms: C_3  and  C_32
    2  A    between atoms: C_8  and  C_35
    3  A    between atoms: N_9  and  C_17
    4  A    between atoms: N_13  and  C_28
    5  A    between atoms: N_13  and  C_41
    6  A    between atoms: CA_29  and  C_30
    7  A    between atoms: CA_29  and  C_38
    8  A    between atoms: C_34  and  C_37
    9  A    between atoms: C_40  and  C_42
   10  A    between atoms: C_53  and  C_55
                            x       y       z     vdW  Elec       q    Type
                         _______ _______ _______ _____ _____    ______ ____

>  <TORSDO>
F 10

$$$$
=
 OpenBabel11072408293D

 56 63  0  0  1  0  0  0  0  0999 V2000
  194.6510  173.3790  138.0400 C   0  0  0  0  0  0  0  0  0  0  0  0
  188.1870  172.6530  139.2140 C   0  0  0  0  0  2  0  0  0  0  0  0
  189.1840  172.7780  138.0770 C   0  0  0  0  0  2  0  0  0  0  0  0
  188.2570  173.9830  141.1390 O   0  0  0  0  0  0  0  0  0  0  0  0
  193.2560  171.5130  135.5600 C   0  0  2  0  0  0  0  0  0  0  0  0
  196.5880  175.1860  136.7830 C   0  0  0  0  0  2  0  0  0  0  0  0
  196.1780  175.2780  138.2450 C   0  0  0  0  0  2  0  0  0  0  0  0
  188.8690  173.1340  140.3870 C   0  0  0  0  0  0  0  0  0  0  0  0
  196.7690  169.4880  135.5880 C   0  0  0  0  0  2  0  0  0  0  0  0
  194.8190  171.0600  135.4990 C   0  0  1  0  0  3  0  0  0  0  0  0
  194.5660  168.6100  135.5660 O   0  0  0  0  0  1  0  0  0  0  0  0
  191.1050  172.3180  139.7020 C   0  0  0  0  0  0  0  0  0  0  0  0
  194.8350  174.6430  138.4640 C   0  0  0  0  0  3  0  0  0  0  0  0
  193.1610  172.6400  134.5180 C   0  0  0  0  0  1  0  0  0  0  0  0
  191.2590  171.5280  137.2620 C   0  0  0  0  0  3  0  0  0  0  0  0
  195.6020  171.3220  136.7460 C   0  0  1  0  0  3  0  0  0  0  0  0
  190.2240  172.4820  142.1690 C   0  0  0  0  0  0  0  0  0  0  0  0
  190.2060  172.7240  140.8160 N   0  0  0  0  0  0  0  0  0  0  0  0
  192.6290  172.1540  136.9810 C   0  0  0  0  0  0  0  0  0  0  0  0
  192.4720  172.6670  139.6270 C   0  0  0  0  0  3  0  0  0  0  0  0
  196.4080  173.7620  136.1820 C   0  0  0  0  0  2  0  0  0  0  0  0
  189.4410  171.5620  142.6730 O   0  0  0  0  0  0  0  0  0  0  0  0
  196.8100  170.3640  136.8310 C   0  0  0  0  0  2  0  0  0  0  0  0
  195.8090  172.7840  137.2020 C   0  0  1  0  0  3  0  0  0  0  0  0
  193.3420  172.6100  138.2990 C   0  0  0  0  0  0  0  0  0  0  0  0
  190.4430  171.9790  138.4100 C   0  0  0  0  0  0  0  0  0  0  0  0
  195.3470  169.6330  135.0240 C   0  0  2  0  0  3  0  0  0  0  0  0
  192.8000  173.7690  144.5570 N   0  0  0  0  0  0  0  0  0  0  0  0
  192.9120  172.5980  142.5300 O   0  0  0  0  0  0  0  0  0  0  0  0
  190.8800  173.5020  143.1630 C   0  0  1  0  0  3  0  0  0  0  0  0
  191.7280  174.4040  145.2630 C   0  0  0  0  0  2  0  0  0  0  0  0
  190.4610  173.9340  144.6130 C   0  0  1  0  0  3  0  0  0  0  0  0
  192.2370  173.1710  143.4000 C   0  0  0  0  0  0  0  0  0  0  0  0
  193.9470  173.1890  145.2140 C   0  0  2  0  0  3  0  0  0  0  0  0
  195.3380  173.1870  144.4680 C   0  0  1  0  0  3  0  0  0  0  0  0
  194.3540  171.9670  144.3900 C   0  0  1  0  0  3  0  0  0  0  0  0
  195.4090  174.5270  143.6500 C   0  0  2  0  0  3  0  0  0  0  0  0
  196.9490  176.3000  142.3830 C   0  0  0  0  0  2  0  0  0  0  0  0
  196.4340  174.6010  142.1170 S   0  0  0  0  0  0  0  0  0  0  0  0
  196.3450  176.8670  143.6950 C   0  0  0  0  0  2  0  0  0  0  0  0
  195.9370  175.6400  144.4660 C   0  0  1  0  0  3  0  0  0  0  0  0
  195.3210  175.5790  145.8230 N   0  0  0  0  0  2  0  0  0  0  0  0
  194.5930  176.7820  146.2650 C   0  0  0  0  0  2  0  0  0  0  0  0
  193.5100  176.3410  147.2000 N   0  0  0  0  0  1  0  0  0  0  0  0
  194.9210  170.4390  146.3700 C   0  0  0  0  0  2  0  0  0  0  0  0
  193.2160  169.9310  144.9260 O   0  0  0  0  0  1  0  0  0  0  0  0
  194.1850  170.7770  145.2710 C   0  0  0  0  0  0  0  0  0  0  0  0
  188.7410  175.3090  146.2070 C   0  0  0  0  0  2  0  0  0  0  0  0
  189.4050  174.3960  145.5660 C   0  0  0  0  0  2  0  0  0  0  0  0
  188.0680  176.5360  146.6820 C   0  0  1  0  0  3  0  0  0  0  0  0
  188.9370  177.5360  147.2610 N   0  0  0  0  0  1  0  0  0  0  0  0
  186.5630  178.3780  146.3610 O   0  0  0  0  0  1  0  0  0  0  0  0
  187.1350  177.2840  145.7070 C   0  0  0  0  0  3  0  0  0  0  0  0
  186.1460  176.4370  145.2230 O   0  0  0  0  0  1  0  0  0  0  0  0
  190.8460  170.4960  134.5520 C   0  0  0  0  0  1  0  0  0  0  0  0
  192.3370  170.3360  135.0060 C   0  0  0  0  0  2  0  0  0  0  0  0
  1 25  1  0  0  0  0
  1 13  2  0  0  0  0
  2  8  1  0  0  0  0
  3 26  1  0  0  0  0
  3  2  1  0  0  0  0
  5 14  1  6  0  0  0
  5 19  1  0  0  0  0
  6  7  1  0  0  0  0
  7 13  1  0  0  0  0
  8 18  1  0  0  0  0
  8  4  2  0  0  0  0
  9 23  1  0  0  0  0
 10  5  1  0  0  0  0
 10 16  1  0  0  0  0
 12 18  1  0  0  0  0
 15 26  1  0  0  0  0
 16 23  1  0  0  0  0
 16 24  1  0  0  0  0
 17 22  2  0  0  0  0
 17 30  1  0  0  0  0
 18 17  1  0  0  0  0
 19 15  2  0  0  0  0
 19 25  1  0  0  0  0
 20 12  1  0  0  0  0
 21  6  1  0  0  0  0
 21 24  1  0  0  0  0
 24  1  1  0  0  0  0
 25 20  2  0  0  0  0
 26 12  2  0  0  0  0
 27 10  1  0  0  0  0
 27 11  1  0  0  0  0
 27  9  1  0  0  0  0
 28 34  1  0  0  0  0
 28 31  1  0  0  0  0
 29 33  2  0  0  0  0
 30 33  1  0  0  0  0
 30 32  1  0  0  0  0
 32 31  1  0  0  0  0
 32 49  1  0  0  0  0
 33 28  1  0  0  0  0
 35 34  1  0  0  0  0
 36 35  1  0  0  0  0
 36 34  1  0  0  0  0
 36 47  1  0  0  0  0
 37 41  1  0  0  0  0
 37 35  1  0  0  0  0
 38 40  1  0  0  0  0
 39 38  1  0  0  0  0
 39 37  1  0  0  0  0
 40 41  1  0  0  0  0
 41 42  1  0  0  0  0
 42 43  1  0  0  0  0
 43 44  1  0  0  0  0
 46 47  1  0  0  0  0
 47 45  2  0  0  0  0
 48 50  1  0  0  0  0
 49 48  1  0  0  0  0
 50 51  1  0  0  0  0
 53 52  1  0  0  0  0
 53 50  1  0  0  0  0
 54 53  1  0  0  0  0
 55 56  1  0  0  0  0
 56  5  1  0  0  0  0
M  END
>  <MODEL>
8

>  <REMARK>
 VINA RESULT:      -5.4      2.394      5.014
  Name = 
  10 active torsions:
  status: ('A' for Active; 'I' for Inactive)
    1  A    between atoms: C_3  and  C_32
    2  A    between atoms: C_8  and  C_35
    3  A    between atoms: N_9  and  C_17
    4  A    between atoms: N_13  and  C_28
    5  A    between atoms: N_13  and  C_41
    6  A    between atoms: CA_29  and  C_30
    7  A    between atoms: CA_29  and  C_38
    8  A    between atoms: C_34  and  C_37
    9  A    between atoms: C_40  and  C_42
   10  A    between atoms: C_53  and  C_55
                            x       y       z     vdW  Elec       q    Type
                         _______ _______ _______ _____ _____    ______ ____

>  <TORSDO>
F 10

$$$$
=
 OpenBabel11072408293D

 56 63  0  0  1  0  0  0  0  0999 V2000
  192.3690  170.5600  139.4180 C   0  0  0  0  0  0  0  0  0  0  0  0
  197.7620  173.8060  141.4340 C   0  0  0  0  0  2  0  0  0  0  0  0
  197.3170  172.4670  140.8760 C   0  0  0  0  0  2  0  0  0  0  0  0
  196.6010  174.9500  143.1140 O   0  0  0  0  0  0  0  0  0  0  0  0
  195.0510  169.5370  137.5910 C   0  0  2  0  0  0  0  0  0  0  0  0
  190.7480  168.1840  139.9860 C   0  0  0  0  0  2  0  0  0  0  0  0
  190.4910  169.5470  140.6120 C   0  0  0  0  0  2  0  0  0  0  0  0
  196.5680  174.4390  141.9320 C   0  0  0  0  0  0  0  0  0  0  0  0
  192.4180  169.2880  134.5170 C   0  0  0  0  0  2  0  0  0  0  0  0
  193.8040  169.1900  136.6030 C   0  0  1  0  0  3  0  0  0  0  0  0
  194.5770  170.2710  134.5270 O   0  0  0  0  0  1  0  0  0  0  0  0
  195.0680  173.4850  140.2080 C   0  0  0  0  0  0  0  0  0  0  0  0
  191.7360  170.3860  140.5930 C   0  0  0  0  0  3  0  0  0  0  0  0
  195.2940  168.2220  138.3490 C   0  0  0  0  0  1  0  0  0  0  0  0
  196.1140  171.6150  138.7890 C   0  0  0  0  0  3  0  0  0  0  0  0
  192.5430  169.9400  136.8880 C   0  0  1  0  0  3  0  0  0  0  0  0
  194.7990  175.8370  141.3400 C   0  0  0  0  0  0  0  0  0  0  0  0
  195.3100  174.5700  141.1960 N   0  0  0  0  0  0  0  0  0  0  0  0
  194.8730  170.7170  138.7730 C   0  0  0  0  0  0  0  0  0  0  0  0
  193.8100  172.8740  140.0020 C   0  0  0  0  0  3  0  0  0  0  0  0
  191.4870  168.2640  138.6200 C   0  0  0  0  0  2  0  0  0  0  0  0
  195.5010  176.8680  140.9400 O   0  0  0  0  0  0  0  0  0  0  0  0
  191.6680  170.0210  135.6180 C   0  0  0  0  0  2  0  0  0  0  0  0
  191.8290  169.7110  138.2410 C   0  0  1  0  0  3  0  0  0  0  0  0
  193.5990  171.4760  139.2770 C   0  0  0  0  0  0  0  0  0  0  0  0
  196.2590  172.6880  139.7960 C   0  0  0  0  0  0  0  0  0  0  0  0
  193.8690  169.1680  135.0100 C   0  0  2  0  0  3  0  0  0  0  0  0
  192.8990  175.9230  144.5610 N   0  0  0  0  0  0  0  0  0  0  0  0
  195.1180  176.3980  143.9760 O   0  0  0  0  0  0  0  0  0  0  0  0
  193.5740  176.1130  142.2790 C   0  0  1  0  0  3  0  0  0  0  0  0
  191.7210  175.6510  143.7930 C   0  0  0  0  0  2  0  0  0  0  0  0
  192.1850  175.3910  142.3910 C   0  0  1  0  0  3  0  0  0  0  0  0
  193.9670  176.0800  143.6390 C   0  0  0  0  0  0  0  0  0  0  0  0
  193.1250  175.3870  145.8810 C   0  0  2  0  0  3  0  0  0  0  0  0
  192.8910  173.8460  146.1330 C   0  0  1  0  0  3  0  0  0  0  0  0
  191.7680  174.9080  146.3990 C   0  0  1  0  0  3  0  0  0  0  0  0
  193.3400  173.1060  144.8210 C   0  0  2  0  0  3  0  0  0  0  0  0
  193.4430  170.8070  143.4680 C   0  0  0  0  0  2  0  0  0  0  0  0
  192.1640  171.9590  143.9790 S   0  0  0  0  0  0  0  0  0  0  0  0
  194.8410  171.2750  143.9540 C   0  0  0  0  0  2  0  0  0  0  0  0
  194.5330  172.2630  145.0470 C   0  0  1  0  0  3  0  0  0  0  0  0
  195.5010  173.0150  145.8960 N   0  0  0  0  0  2  0  0  0  0  0  0
  196.8070  172.3700  146.1280 C   0  0  0  0  0  2  0  0  0  0  0  0
  197.7860  172.9650  145.1650 N   0  0  0  0  0  1  0  0  0  0  0  0
  191.0880  177.0440  147.6460 C   0  0  0  0  0  2  0  0  0  0  0  0
  191.5660  175.1100  148.7750 O   0  0  0  0  0  1  0  0  0  0  0  0
  191.4520  175.7300  147.6020 C   0  0  0  0  0  0  0  0  0  0  0  0
  189.6780  174.7550  141.5530 C   0  0  0  0  0  2  0  0  0  0  0  0
  190.9610  174.8400  141.7300 C   0  0  0  0  0  2  0  0  0  0  0  0
  188.2180  174.9640  141.4620 C   0  0  1  0  0  3  0  0  0  0  0  0
  187.4030  173.8990  142.0040 N   0  0  0  0  0  1  0  0  0  0  0  0
  186.3000  176.0770  142.3810 O   0  0  0  0  0  1  0  0  0  0  0  0
  187.6320  176.2810  142.0120 C   0  0  0  0  0  3  0  0  0  0  0  0
  187.7220  177.2950  141.0650 O   0  0  0  0  0  1  0  0  0  0  0  0
  197.2500  168.6610  136.0880 C   0  0  0  0  0  1  0  0  0  0  0  0
  196.3650  169.7850  136.7260 C   0  0  0  0  0  2  0  0  0  0  0  0
  1 13  2  0  0  0  0
  2  8  1  0  0  0  0
  3  2  1  0  0  0  0
  5 14  1  1  0  0  0
  5 19  1  0  0  0  0
  6  7  1  0  0  0  0
  8  4  2  0  0  0  0
  9 27  1  0  0  0  0
  9 23  1  0  0  0  0
 10 16  1  0  0  0  0
 10  5  1  0  0  0  0
 11 27  1  0  0  0  0
 12 18  1  0  0  0  0
 13  7  1  0  0  0  0
 15 26  1  0  0  0  0
 16 24  1  0  0  0  0
 17 30  1  0  0  0  0
 18 17  1  0  0  0  0
 18  8  1  0  0  0  0
 19 15  2  0  0  0  0
 19 25  1  0  0  0  0
 20 12  1  0  0  0  0
 21  6  1  0  0  0  0
 22 17  2  0  0  0  0
 23 16  1  0  0  0  0
 24 21  1  0  0  0  0
 24  1  1  0  0  0  0
 25  1  1  0  0  0  0
 25 20  2  0  0  0  0
 26 12  2  0  0  0  0
 26  3  1  0  0  0  0
 27 10  1  0  0  0  0
 28 34  1  0  0  0  0
 30 32  1  0  0  0  0
 30 33  1  0  0  0  0
 31 28  1  0  0  0  0
 32 31  1  0  0  0  0
 33 29  2  0  0  0  0
 33 28  1  0  0  0  0
 34 35  1  0  0  0  0
 34 36  1  0  0  0  0
 35 36  1  0  0  0  0
 36 47  1  0  0  0  0
 37 41  1  0  0  0  0
 37 35  1  0  0  0  0
 38 40  1  0  0  0  0
 38 39  1  0  0  0  0
 39 37  1  0  0  0  0
 40 41  1  0  0  0  0
 41 42  1  0  0  0  0
 42 43  1  0  0  0  0
 44 43  1  0  0  0  0
 47 45  2  0  0  0  0
 47 46  1  0  0  0  0
 48 49  1  0  0  0  0
 49 32  1  0  0  0  0
 50 48  1  0  0  0  0
 50 51  1  0  0  0  0
 50 53  1  0  0  0  0
 53 52  1  0  0  0  0
 54 53  1  0  0  0  0
 55 56  1  0  0  0  0
 56  5  1  0  0  0  0
M  END
>  <MODEL>
9

>  <REMARK>
 VINA RESULT:      -5.3      2.706      6.439
  Name = 
  10 active torsions:
  status: ('A' for Active; 'I' for Inactive)
    1  A    between atoms: C_3  and  C_32
    2  A    between atoms: C_8  and  C_35
    3  A    between atoms: N_9  and  C_17
    4  A    between atoms: N_13  and  C_28
    5  A    between atoms: N_13  and  C_41
    6  A    between atoms: CA_29  and  C_30
    7  A    between atoms: CA_29  and  C_38
    8  A    between atoms: C_34  and  C_37
    9  A    between atoms: C_40  and  C_42
   10  A    between atoms: C_53  and  C_55
                            x       y       z     vdW  Elec       q    Type
                         _______ _______ _______ _____ _____    ______ ____

>  <TORSDO>
F 10

$$$$
