=
 OpenBabel11062421103D

 33 37  0  0  1  0  0  0  0  0999 V2000
  190.0210  175.2660  143.5940 C   0  0  1  0  0  3  0  0  0  0  0  0
  186.4050  177.4150  143.2050 C   0  0  2  0  0  3  0  0  0  0  0  0
  186.7140  176.2080  142.3470 C   0  0  0  0  0  2  0  0  0  0  0  0
  187.7540  177.9590  143.6840 C   0  0  2  0  0  3  0  0  0  0  0  0
  188.0610  176.5100  141.7260 C   0  0  0  0  0  2  0  0  0  0  0  0
  189.9060  174.2190  145.7110 C   0  0  1  0  0  3  0  0  0  0  0  0
  189.9400  172.8270  143.5280 C   0  0  0  0  0  2  0  0  0  0  0  0
  189.5490  174.1040  142.7400 C   0  0  2  0  0  3  0  0  0  0  0  0
  189.4850  176.7610  144.9770 C   0  0  1  0  0  3  0  0  0  0  0  0
  189.9360  176.7880  143.5070 C   0  0  2  0  0  3  0  0  0  0  0  0
  188.7870  177.4270  142.7030 C   0  0  2  0  0  3  0  0  0  0  0  0
  189.5620  172.8700  145.0390 C   0  0  0  0  0  2  0  0  0  0  0  0
  188.1580  177.4900  145.0780 C   0  0  0  0  0  2  0  0  0  0  0  0
  189.2330  175.2650  144.8560 C   0  0  1  0  0  3  0  0  0  0  0  0
  189.5340  173.6170  140.2660 N   0  0  0  0  0  1  0  0  0  0  0  0
  190.2300  174.0960  141.4090 C   0  0  0  0  0  0  0  0  0  0  0  0
  191.4310  174.4660  141.2970 O   0  0  0  0  0  0  0  0  0  0  0  0
  185.4060  177.0990  144.3170 C   0  0  0  0  0  2  0  0  0  0  0  0
  184.0760  178.4590  145.9740 N   0  0  0  0  0  1  0  0  0  0  0  0
  184.3400  179.1640  143.7750 O   0  0  0  0  0  0  0  0  0  0  0  0
  184.5920  178.3000  144.6580 C   0  0  0  0  0  0  0  0  0  0  0  0
  189.3850  174.2530  147.0070 O   0  0  0  0  0  0  0  0  0  0  0  0
  189.7180  175.4400  147.4700 O   0  0  0  0  0  0  0  0  0  0  0  0
  191.0040  175.3190  147.8290 O   0  0  0  0  0  0  0  0  0  0  0  0
  191.8270  176.4370  147.9400 C   0  0  0  0  0  0  0  0  0  0  0  0
  191.4840  177.3870  148.6900 O   0  0  0  0  0  0  0  0  0  0  0  0
  193.1210  176.5130  147.1950 C   0  0  0  0  0  2  0  0  0  0  0  0
  194.1760  174.7040  143.4130 C   0  0  0  0  0  2  0  0  0  0  0  0
  193.7280  176.7410  144.7980 C   0  0  0  0  0  2  0  0  0  0  0  0
  193.6090  176.1210  143.4080 C   0  0  0  0  0  2  0  0  0  0  0  0
  193.4390  173.8460  144.4370 C   0  0  0  0  0  2  0  0  0  0  0  0
  193.5560  174.4680  145.8250 C   0  0  0  0  0  2  0  0  0  0  0  0
  192.9830  175.8860  145.8180 C   0  0  0  0  0  3  0  0  0  0  0  0
  1 14  1  0  0  0  0
  2  4  1  0  0  0  0
  2 18  1  0  0  0  0
  3  2  1  0  0  0  0
  4 13  1  0  0  0  0
  5  3  1  0  0  0  0
  5 11  1  0  0  0  0
  6 22  1  0  0  0  0
  7 12  1  0  0  0  0
  8  7  1  0  0  0  0
  8  1  1  0  0  0  0
  9 13  1  0  0  0  0
 10  1  1  0  0  0  0
 10  9  1  0  0  0  0
 11 10  1  0  0  0  0
 11  4  1  0  0  0  0
 12  6  1  0  0  0  0
 14  9  1  0  0  0  0
 14  6  1  0  0  0  0
 15 16  1  0  0  0  0
 16  8  1  0  0  0  0
 17 16  2  0  0  0  0
 18 21  1  0  0  0  0
 20 21  2  0  0  0  0
 21 19  1  0  0  0  0
 22 23  1  0  0  0  0
 23 24  1  0  0  0  0
 24 25  1  0  0  0  0
 25 26  2  0  0  0  0
 27 25  1  0  0  0  0
 28 31  1  0  0  0  0
 29 33  1  0  0  0  0
 30 28  1  0  0  0  0
 30 29  1  0  0  0  0
 31 32  1  0  0  0  0
 33 32  1  0  0  0  0
 33 27  1  0  0  0  0
M  END
>  <MODEL>
1

>  <REMARK>
 VINA RESULT:      -7.0      0.000      0.000
  Name = 
  9 active torsions:
  status: ('A' for Active; 'I' for Inactive)
    1  A    between atoms: C_2  and  C_20
    2  A    between atoms: O_4  and  O_11
    3  A    between atoms: O_4  and  C_23
    4  A    between atoms: C_8  and  O_32
    5  A    between atoms: C_10  and  C_23
    6  A    between atoms: C_10  and  C_33
    7  A    between atoms: O_11  and  O_32
    8  A    between atoms: C_12  and  C_26
    9  A    between atoms: C_14  and  C_20
                            x       y       z     vdW  Elec       q    Type
                         _______ _______ _______ _____ _____    ______ ____

>  <TORSDO>
F 9

$$$$
=
 OpenBabel11062421103D

 33 37  0  0  1  0  0  0  0  0999 V2000
  192.0320  176.6760  145.3950 C   0  0  1  0  0  3  0  0  0  0  0  0
  190.0150  174.8880  142.1420 C   0  0  2  0  0  3  0  0  0  0  0  0
  191.0220  174.1260  142.9750 C   0  0  0  0  0  2  0  0  0  0  0  0
  190.3470  176.3720  142.3170 C   0  0  2  0  0  3  0  0  0  0  0  0
  192.2690  174.9840  142.9540 C   0  0  0  0  0  2  0  0  0  0  0  0
  190.3710  177.0490  147.0360 C   0  0  1  0  0  3  0  0  0  0  0  0
  192.3110  175.3830  147.4460 C   0  0  0  0  0  2  0  0  0  0  0  0
  192.5790  175.3620  145.9190 C   0  0  2  0  0  3  0  0  0  0  0  0
  190.4360  177.6540  144.4270 C   0  0  1  0  0  3  0  0  0  0  0  0
  191.8820  177.3250  144.0190 C   0  0  2  0  0  3  0  0  0  0  0  0
  191.7960  176.4220  142.7740 C   0  0  2  0  0  3  0  0  0  0  0  0
  190.8660  175.8200  147.8330 C   0  0  0  0  0  2  0  0  0  0  0  0
  189.5060  177.0800  143.3740 C   0  0  0  0  0  2  0  0  0  0  0  0
  190.5560  176.6740  145.5860 C   0  0  1  0  0  3  0  0  0  0  0  0
  194.6390  173.9650  145.5170 N   0  0  0  0  0  1  0  0  0  0  0  0
  194.0490  175.2490  145.6730 C   0  0  0  0  0  0  0  0  0  0  0  0
  194.7790  176.2770  145.6480 O   0  0  0  0  0  0  0  0  0  0  0  0
  188.5740  174.5050  142.4760 C   0  0  0  0  0  2  0  0  0  0  0  0
  188.6300  173.2480  140.2890 N   0  0  0  0  0  1  0  0  0  0  0  0
  187.2170  172.5980  142.0160 O   0  0  0  0  0  0  0  0  0  0  0  0
  188.1010  173.3940  141.6020 C   0  0  0  0  0  0  0  0  0  0  0  0
  189.0180  177.2770  147.3020 O   0  0  0  0  0  0  0  0  0  0  0  0
  188.3940  176.2460  146.7700 O   0  0  0  0  0  0  0  0  0  0  0  0
  187.2750  176.1120  147.4980 O   0  0  0  0  0  0  0  0  0  0  0  0
  186.2000  176.9810  147.3270 C   0  0  0  0  0  0  0  0  0  0  0  0
  186.0230  177.9150  148.1500 O   0  0  0  0  0  0  0  0  0  0  0  0
  185.2680  176.8290  146.1690 C   0  0  0  0  0  2  0  0  0  0  0  0
  185.5200  178.6230  142.2430 C   0  0  0  0  0  2  0  0  0  0  0  0
  185.5760  176.5980  143.7150 C   0  0  0  0  0  2  0  0  0  0  0  0
  186.1430  177.2450  142.4540 C   0  0  0  0  0  2  0  0  0  0  0  0
  185.7840  179.5110  143.4550 C   0  0  0  0  0  2  0  0  0  0  0  0
  185.2190  178.8630  144.7150 C   0  0  0  0  0  2  0  0  0  0  0  0
  185.8480  177.4840  144.9260 C   0  0  0  0  0  3  0  0  0  0  0  0
  1 14  1  0  0  0  0
  1  8  1  0  0  0  0
  2  4  1  0  0  0  0
  2 18  1  0  0  0  0
  2  3  1  0  0  0  0
  4 11  1  0  0  0  0
  4 13  1  0  0  0  0
  5  3  1  0  0  0  0
  6 22  1  0  0  0  0
  6 12  1  0  0  0  0
  7 12  1  0  0  0  0
  8  7  1  0  0  0  0
  9 14  1  0  0  0  0
 10  9  1  0  0  0  0
 10  1  1  0  0  0  0
 11  5  1  0  0  0  0
 11 10  1  0  0  0  0
 13  9  1  0  0  0  0
 14  6  1  0  0  0  0
 15 16  1  0  0  0  0
 16  8  1  0  0  0  0
 17 16  2  0  0  0  0
 19 21  1  0  0  0  0
 21 20  2  0  0  0  0
 21 18  1  0  0  0  0
 23 22  1  0  0  0  0
 23 24  1  0  0  0  0
 25 24  1  0  0  0  0
 25 26  2  0  0  0  0
 27 25  1  0  0  0  0
 28 30  1  0  0  0  0
 28 31  1  0  0  0  0
 29 33  1  0  0  0  0
 30 29  1  0  0  0  0
 31 32  1  0  0  0  0
 32 33  1  0  0  0  0
 33 27  1  0  0  0  0
M  END
>  <MODEL>
2

>  <REMARK>
 VINA RESULT:      -6.9      2.556      5.814
  Name = 
  9 active torsions:
  status: ('A' for Active; 'I' for Inactive)
    1  A    between atoms: C_2  and  C_20
    2  A    between atoms: O_4  and  O_11
    3  A    between atoms: O_4  and  C_23
    4  A    between atoms: C_8  and  O_32
    5  A    between atoms: C_10  and  C_23
    6  A    between atoms: C_10  and  C_33
    7  A    between atoms: O_11  and  O_32
    8  A    between atoms: C_12  and  C_26
    9  A    between atoms: C_14  and  C_20
                            x       y       z     vdW  Elec       q    Type
                         _______ _______ _______ _____ _____    ______ ____

>  <TORSDO>
F 9

$$$$
=
 OpenBabel11062421103D

 33 37  0  0  1  0  0  0  0  0999 V2000
  190.0160  174.5350  144.3590 C   0  0  1  0  0  3  0  0  0  0  0  0
  194.1950  175.0490  144.7000 C   0  0  2  0  0  3  0  0  0  0  0  0
  193.5910  173.9550  143.8470 C   0  0  0  0  0  2  0  0  0  0  0  0
  193.1330  175.4220  145.7370 C   0  0  2  0  0  3  0  0  0  0  0  0
  192.6540  173.2140  144.7780 C   0  0  0  0  0  2  0  0  0  0  0  0
  189.2450  176.4260  143.1680 C   0  0  1  0  0  3  0  0  0  0  0  0
  189.0780  174.0480  142.1590 C   0  0  0  0  0  2  0  0  0  0  0  0
  190.1200  173.5630  143.1990 C   0  0  2  0  0  3  0  0  0  0  0  0
  190.8350  176.2250  145.3140 C   0  0  1  0  0  3  0  0  0  0  0  0
  190.7480  174.7340  145.6850 C   0  0  2  0  0  3  0  0  0  0  0  0
  192.1970  174.2270  145.8210 C   0  0  2  0  0  3  0  0  0  0  0  0
  189.1210  175.5800  141.8800 C   0  0  0  0  0  2  0  0  0  0  0  0
  192.2940  176.6390  145.3630 C   0  0  0  0  0  2  0  0  0  0  0  0
  190.4540  175.8750  143.8830 C   0  0  1  0  0  3  0  0  0  0  0  0
  189.9770  171.0910  142.7190 N   0  0  0  0  0  1  0  0  0  0  0  0
  189.7870  172.1690  143.6260 C   0  0  0  0  0  0  0  0  0  0  0  0
  189.2970  171.9450  144.7660 O   0  0  0  0  0  0  0  0  0  0  0  0
  194.7190  176.2160  143.8640 C   0  0  0  0  0  2  0  0  0  0  0  0
  196.9210  175.0510  144.2680 N   0  0  0  0  0  1  0  0  0  0  0  0
  196.8310  177.1360  143.2450 O   0  0  0  0  0  0  0  0  0  0  0  0
  196.2050  176.1720  143.7600 C   0  0  0  0  0  0  0  0  0  0  0  0
  189.4550  177.7680  142.8390 O   0  0  0  0  0  0  0  0  0  0  0  0
  188.6080  178.0090  141.8590 O   0  0  0  0  0  0  0  0  0  0  0  0
  187.5930  178.6660  142.4390 O   0  0  0  0  0  0  0  0  0  0  0  0
  186.2710  178.2990  142.2000 C   0  0  0  0  0  0  0  0  0  0  0  0
  185.8160  178.3510  141.0280 O   0  0  0  0  0  0  0  0  0  0  0  0
  185.3930  177.8250  143.3130 C   0  0  0  0  0  2  0  0  0  0  0  0
  186.1460  177.7410  147.5700 C   0  0  0  0  0  2  0  0  0  0  0  0
  185.0450  178.7840  145.5780 C   0  0  0  0  0  2  0  0  0  0  0  0
  185.6810  179.0510  146.9400 C   0  0  0  0  0  2  0  0  0  0  0  0
  187.1430  177.0410  146.6510 C   0  0  0  0  0  2  0  0  0  0  0  0
  186.5080  176.7760  145.2900 C   0  0  0  0  0  2  0  0  0  0  0  0
  186.0470  178.0910  144.6590 C   0  0  0  0  0  3  0  0  0  0  0  0
  1 10  1  0  0  0  0
  2  4  1  0  0  0  0
  3  2  1  0  0  0  0
  3  5  1  0  0  0  0
  4 11  1  0  0  0  0
  5 11  1  0  0  0  0
  6 14  1  0  0  0  0
  7  8  1  0  0  0  0
  8 16  1  0  0  0  0
  8  1  1  0  0  0  0
  9 13  1  0  0  0  0
  9 10  1  0  0  0  0
 10 11  1  0  0  0  0
 12  7  1  0  0  0  0
 12  6  1  0  0  0  0
 13  4  1  0  0  0  0
 14  1  1  0  0  0  0
 14  9  1  0  0  0  0
 15 16  1  0  0  0  0
 16 17  2  0  0  0  0
 18  2  1  0  0  0  0
 20 21  2  0  0  0  0
 21 18  1  0  0  0  0
 21 19  1  0  0  0  0
 22  6  1  0  0  0  0
 23 24  1  0  0  0  0
 23 22  1  0  0  0  0
 25 24  1  0  0  0  0
 25 27  1  0  0  0  0
 26 25  2  0  0  0  0
 27 33  1  0  0  0  0
 29 30  1  0  0  0  0
 30 28  1  0  0  0  0
 31 28  1  0  0  0  0
 32 31  1  0  0  0  0
 33 32  1  0  0  0  0
 33 29  1  0  0  0  0
M  END
>  <MODEL>
3

>  <REMARK>
 VINA RESULT:      -6.7      2.909      7.160
  Name = 
  9 active torsions:
  status: ('A' for Active; 'I' for Inactive)
    1  A    between atoms: C_2  and  C_20
    2  A    between atoms: O_4  and  O_11
    3  A    between atoms: O_4  and  C_23
    4  A    between atoms: C_8  and  O_32
    5  A    between atoms: C_10  and  C_23
    6  A    between atoms: C_10  and  C_33
    7  A    between atoms: O_11  and  O_32
    8  A    between atoms: C_12  and  C_26
    9  A    between atoms: C_14  and  C_20
                            x       y       z     vdW  Elec       q    Type
                         _______ _______ _______ _____ _____    ______ ____

>  <TORSDO>
F 9

$$$$
=
 OpenBabel11062421103D

 33 37  0  0  1  0  0  0  0  0999 V2000
  189.8680  175.1310  143.1730 C   0  0  1  0  0  3  0  0  0  0  0  0
  186.3680  177.4220  143.7550 C   0  0  2  0  0  3  0  0  0  0  0  0
  186.3260  176.0410  143.1400 C   0  0  0  0  0  2  0  0  0  0  0  0
  187.7880  177.9490  143.5330 C   0  0  2  0  0  3  0  0  0  0  0  0
  187.3100  176.1000  141.9910 C   0  0  0  0  0  2  0  0  0  0  0  0
  190.6190  174.5690  145.3430 C   0  0  1  0  0  3  0  0  0  0  0  0
  189.8010  172.7480  143.6950 C   0  0  0  0  0  2  0  0  0  0  0  0
  189.1120  173.8550  142.8570 C   0  0  2  0  0  3  0  0  0  0  0  0
  189.9060  176.9230  144.2810 C   0  0  1  0  0  3  0  0  0  0  0  0
  189.7350  176.6030  142.7860 C   0  0  2  0  0  3  0  0  0  0  0  0
  188.3520  177.1440  142.3730 C   0  0  2  0  0  3  0  0  0  0  0  0
  190.0550  173.1390  145.1810 C   0  0  0  0  0  2  0  0  0  0  0  0
  188.7190  177.7570  144.7240 C   0  0  0  0  0  2  0  0  0  0  0  0
  189.6470  175.4590  144.6070 C   0  0  1  0  0  3  0  0  0  0  0  0
  190.4080  173.7840  140.6940 N   0  0  0  0  0  1  0  0  0  0  0  0
  189.2070  173.5130  141.4040 C   0  0  0  0  0  0  0  0  0  0  0  0
  188.2160  173.0280  140.7910 O   0  0  0  0  0  0  0  0  0  0  0  0
  185.8970  177.4280  145.2080 C   0  0  0  0  0  2  0  0  0  0  0  0
  184.1900  179.0360  144.2780 N   0  0  0  0  0  1  0  0  0  0  0  0
  184.0660  178.2860  146.4740 O   0  0  0  0  0  0  0  0  0  0  0  0
  184.6690  178.2560  145.3680 C   0  0  0  0  0  0  0  0  0  0  0  0
  190.6570  174.9170  146.6960 O   0  0  0  0  0  0  0  0  0  0  0  0
  191.9370  174.9150  147.0060 O   0  0  0  0  0  0  0  0  0  0  0  0
  192.3390  176.1790  146.8060 O   0  0  0  0  0  0  0  0  0  0  0  0
  193.6690  176.4710  146.5140 C   0  0  0  0  0  0  0  0  0  0  0  0
  194.1990  177.5020  147.0040 O   0  0  0  0  0  0  0  0  0  0  0  0
  194.4800  175.5650  145.6450 C   0  0  0  0  0  2  0  0  0  0  0  0
  195.0830  175.7790  141.3690 C   0  0  0  0  0  2  0  0  0  0  0  0
  195.9940  175.8690  143.7000 C   0  0  0  0  0  2  0  0  0  0  0  0
  196.1220  176.4220  142.2830 C   0  0  0  0  0  2  0  0  0  0  0  0
  193.6790  176.0330  141.9090 C   0  0  0  0  0  2  0  0  0  0  0  0
  193.5520  175.4810  143.3250 C   0  0  0  0  0  2  0  0  0  0  0  0
  194.5910  176.1320  144.2390 C   0  0  0  0  0  3  0  0  0  0  0  0
  1 14  1  0  0  0  0
  2 18  1  0  0  0  0
  3  2  1  0  0  0  0
  4  2  1  0  0  0  0
  4 13  1  0  0  0  0
  5 11  1  0  0  0  0
  5  3  1  0  0  0  0
  6 22  1  0  0  0  0
  7 12  1  0  0  0  0
  8  1  1  0  0  0  0
  8  7  1  0  0  0  0
  9 14  1  0  0  0  0
  9 13  1  0  0  0  0
 10  1  1  0  0  0  0
 10  9  1  0  0  0  0
 11 10  1  0  0  0  0
 11  4  1  0  0  0  0
 12  6  1  0  0  0  0
 14  6  1  0  0  0  0
 15 16  1  0  0  0  0
 16  8  1  0  0  0  0
 17 16  2  0  0  0  0
 18 21  1  0  0  0  0
 19 21  1  0  0  0  0
 21 20  2  0  0  0  0
 22 23  1  0  0  0  0
 24 23  1  0  0  0  0
 25 24  1  0  0  0  0
 25 26  2  0  0  0  0
 27 25  1  0  0  0  0
 28 31  1  0  0  0  0
 28 30  1  0  0  0  0
 29 33  1  0  0  0  0
 30 29  1  0  0  0  0
 31 32  1  0  0  0  0
 32 33  1  0  0  0  0
 33 27  1  0  0  0  0
M  END
>  <MODEL>
4

>  <REMARK>
 VINA RESULT:      -6.7      1.520      1.831
  Name = 
  9 active torsions:
  status: ('A' for Active; 'I' for Inactive)
    1  A    between atoms: C_2  and  C_20
    2  A    between atoms: O_4  and  O_11
    3  A    between atoms: O_4  and  C_23
    4  A    between atoms: C_8  and  O_32
    5  A    between atoms: C_10  and  C_23
    6  A    between atoms: C_10  and  C_33
    7  A    between atoms: O_11  and  O_32
    8  A    between atoms: C_12  and  C_26
    9  A    between atoms: C_14  and  C_20
                            x       y       z     vdW  Elec       q    Type
                         _______ _______ _______ _____ _____    ______ ____

>  <TORSDO>
F 9

$$$$
=
 OpenBabel11062421103D

 33 37  0  0  1  0  0  0  0  0999 V2000
  192.6550  174.9080  145.0110 C   0  0  1  0  0  3  0  0  0  0  0  0
  189.1160  176.3770  146.7900 C   0  0  2  0  0  3  0  0  0  0  0  0
  190.3330  177.2530  146.5880 C   0  0  0  0  0  2  0  0  0  0  0  0
  189.6240  174.9320  146.8030 C   0  0  2  0  0  3  0  0  0  0  0  0
  191.4680  176.4920  147.2390 C   0  0  0  0  0  2  0  0  0  0  0  0
  192.0960  174.4920  142.7520 C   0  0  1  0  0  3  0  0  0  0  0  0
  193.8170  176.3180  143.3920 C   0  0  0  0  0  2  0  0  0  0  0  0
  193.2710  176.2840  144.8420 C   0  0  2  0  0  3  0  0  0  0  0  0
  190.8850  173.7660  145.0280 C   0  0  1  0  0  3  0  0  0  0  0  0
  191.8890  174.1840  146.1160 C   0  0  2  0  0  3  0  0  0  0  0  0
  191.1020  175.0160  147.1470 C   0  0  2  0  0  3  0  0  0  0  0  0
  192.8140  175.7920  142.3210 C   0  0  0  0  0  2  0  0  0  0  0  0
  189.5020  174.2150  145.4630 C   0  0  0  0  0  2  0  0  0  0  0  0
  191.4860  174.8080  144.0950 C   0  0  1  0  0  3  0  0  0  0  0  0
  194.8330  177.8180  146.0940 N   0  0  0  0  0  1  0  0  0  0  0  0
  194.3970  176.4970  145.8030 C   0  0  0  0  0  0  0  0  0  0  0  0
  194.9930  175.5150  146.3240 O   0  0  0  0  0  0  0  0  0  0  0  0
  188.0150  176.6650  145.7700 C   0  0  0  0  0  2  0  0  0  0  0  0
  186.7860  177.9640  147.5500 N   0  0  0  0  0  1  0  0  0  0  0  0
  185.6500  176.5800  146.0680 O   0  0  0  0  0  0  0  0  0  0  0  0
  186.7500  177.0610  146.4500 C   0  0  0  0  0  0  0  0  0  0  0  0
  191.0920  174.1750  141.8330 O   0  0  0  0  0  0  0  0  0  0  0  0
  190.9140  172.8770  141.9670 O   0  0  0  0  0  0  0  0  0  0  0  0
  189.7800  172.6170  141.2990 O   0  0  0  0  0  0  0  0  0  0  0  0
  188.8330  173.6150  141.0770 C   0  0  0  0  0  0  0  0  0  0  0  0
  188.5930  173.9890  139.9000 O   0  0  0  0  0  0  0  0  0  0  0  0
  188.0870  174.2300  142.2160 C   0  0  0  0  0  2  0  0  0  0  0  0
  187.1370  178.4190  142.7070 C   0  0  0  0  0  2  0  0  0  0  0  0
  186.4230  176.0200  142.6580 C   0  0  0  0  0  2  0  0  0  0  0  0
  186.0100  177.4560  142.3450 C   0  0  0  0  0  2  0  0  0  0  0  0
  188.4060  178.0570  141.9400 C   0  0  0  0  0  2  0  0  0  0  0  0
  188.8160  176.6210  142.2520 C   0  0  0  0  0  2  0  0  0  0  0  0
  187.6860  175.6580  141.8840 C   0  0  0  0  0  3  0  0  0  0  0  0
  1 10  1  0  0  0  0
  2  4  1  0  0  0  0
  3  2  1  0  0  0  0
  3  5  1  0  0  0  0
  4 11  1  0  0  0  0
  6 14  1  0  0  0  0
  7  8  1  0  0  0  0
  8  1  1  0  0  0  0
  8 16  1  0  0  0  0
  9 13  1  0  0  0  0
  9 10  1  0  0  0  0
 10 11  1  0  0  0  0
 11  5  1  0  0  0  0
 12  6  1  0  0  0  0
 12  7  1  0  0  0  0
 13  4  1  0  0  0  0
 14  1  1  0  0  0  0
 14  9  1  0  0  0  0
 16 15  1  0  0  0  0
 16 17  2  0  0  0  0
 18 21  1  0  0  0  0
 18  2  1  0  0  0  0
 20 21  2  0  0  0  0
 21 19  1  0  0  0  0
 22 23  1  0  0  0  0
 22  6  1  0  0  0  0
 24 23  1  0  0  0  0
 25 24  1  0  0  0  0
 25 27  1  0  0  0  0
 26 25  2  0  0  0  0
 30 29  1  0  0  0  0
 30 28  1  0  0  0  0
 31 32  1  0  0  0  0
 31 28  1  0  0  0  0
 33 27  1  0  0  0  0
 33 32  1  0  0  0  0
 33 29  1  0  0  0  0
M  END
>  <MODEL>
5

>  <REMARK>
 VINA RESULT:      -6.7      2.661      5.904
  Name = 
  9 active torsions:
  status: ('A' for Active; 'I' for Inactive)
    1  A    between atoms: C_2  and  C_20
    2  A    between atoms: O_4  and  O_11
    3  A    between atoms: O_4  and  C_23
    4  A    between atoms: C_8  and  O_32
    5  A    between atoms: C_10  and  C_23
    6  A    between atoms: C_10  and  C_33
    7  A    between atoms: O_11  and  O_32
    8  A    between atoms: C_12  and  C_26
    9  A    between atoms: C_14  and  C_20
                            x       y       z     vdW  Elec       q    Type
                         _______ _______ _______ _____ _____    ______ ____

>  <TORSDO>
F 9

$$$$
=
 OpenBabel11062421103D

 33 37  0  0  1  0  0  0  0  0999 V2000
  191.1600  176.3220  145.3530 C   0  0  1  0  0  3  0  0  0  0  0  0
  195.2930  175.4620  145.2010 C   0  0  2  0  0  3  0  0  0  0  0  0
  194.5260  175.4740  146.5050 C   0  0  0  0  0  2  0  0  0  0  0  0
  194.4960  176.3330  144.2260 C   0  0  2  0  0  3  0  0  0  0  0  0
  193.8460  176.8250  146.5410 C   0  0  0  0  0  2  0  0  0  0  0  0
  190.0990  174.4950  144.2930 C   0  0  1  0  0  3  0  0  0  0  0  0
  189.7420  174.9740  146.8120 C   0  0  0  0  0  2  0  0  0  0  0  0
  191.0070  175.8690  146.7930 C   0  0  2  0  0  3  0  0  0  0  0  0
  192.1490  176.0330  143.5160 C   0  0  1  0  0  3  0  0  0  0  0  0
  192.1780  177.1510  144.5720 C   0  0  2  0  0  3  0  0  0  0  0  0
  193.6270  177.2340  145.0890 C   0  0  2  0  0  3  0  0  0  0  0  0
  189.6910  173.9170  145.6680 C   0  0  0  0  0  2  0  0  0  0  0  0
  193.5710  175.5500  143.3010 C   0  0  0  0  0  2  0  0  0  0  0  0
  191.4510  175.1250  144.5180 C   0  0  1  0  0  3  0  0  0  0  0  0
  191.5670  177.1200  148.9100 N   0  0  0  0  0  1  0  0  0  0  0  0
  190.8080  177.0330  147.7100 C   0  0  0  0  0  0  0  0  0  0  0  0
  189.9430  177.9140  147.4550 O   0  0  0  0  0  0  0  0  0  0  0  0
  195.5860  174.0460  144.7100 C   0  0  0  0  0  2  0  0  0  0  0  0
  197.3020  172.3430  145.4330 N   0  0  0  0  0  1  0  0  0  0  0  0
  197.9190  174.5150  144.8800 O   0  0  0  0  0  0  0  0  0  0  0  0
  196.9980  173.6640  144.9980 C   0  0  0  0  0  0  0  0  0  0  0  0
  190.2020  173.4650  143.3540 O   0  0  0  0  0  0  0  0  0  0  0  0
  189.8150  174.0070  142.2180 O   0  0  0  0  0  0  0  0  0  0  0  0
  188.7020  174.6900  142.5270 O   0  0  0  0  0  0  0  0  0  0  0  0
  188.3150  175.8040  141.7850 C   0  0  0  0  0  0  0  0  0  0  0  0
  187.8900  175.6490  140.6110 O   0  0  0  0  0  0  0  0  0  0  0  0
  188.3800  177.1770  142.3730 C   0  0  0  0  0  2  0  0  0  0  0  0
  185.8770  179.0180  145.3790 C   0  0  0  0  0  2  0  0  0  0  0  0
  187.7940  177.5320  144.7600 C   0  0  0  0  0  2  0  0  0  0  0  0
  186.6590  177.7620  145.7540 C   0  0  0  0  0  2  0  0  0  0  0  0
  185.3210  178.8890  143.9640 C   0  0  0  0  0  2  0  0  0  0  0  0
  186.4560  178.6570  142.9720 C   0  0  0  0  0  2  0  0  0  0  0  0
  187.2350  177.3950  143.3480 C   0  0  0  0  0  3  0  0  0  0  0  0
  1  8  1  0  0  0  0
  2  3  1  0  0  0  0
  3  5  1  0  0  0  0
  4 11  1  0  0  0  0
  4  2  1  0  0  0  0
  6 14  1  0  0  0  0
  6 12  1  0  0  0  0
  8  7  1  0  0  0  0
  8 16  1  0  0  0  0
  9 14  1  0  0  0  0
  9 10  1  0  0  0  0
 10 11  1  0  0  0  0
 10  1  1  0  0  0  0
 11  5  1  0  0  0  0
 12  7  1  0  0  0  0
 13  9  1  0  0  0  0
 13  4  1  0  0  0  0
 14  1  1  0  0  0  0
 16 15  1  0  0  0  0
 17 16  2  0  0  0  0
 18 21  1  0  0  0  0
 18  2  1  0  0  0  0
 20 21  2  0  0  0  0
 21 19  1  0  0  0  0
 22  6  1  0  0  0  0
 23 24  1  0  0  0  0
 23 22  1  0  0  0  0
 25 27  1  0  0  0  0
 25 24  1  0  0  0  0
 26 25  2  0  0  0  0
 27 33  1  0  0  0  0
 28 30  1  0  0  0  0
 29 30  1  0  0  0  0
 31 28  1  0  0  0  0
 32 33  1  0  0  0  0
 32 31  1  0  0  0  0
 33 29  1  0  0  0  0
M  END
>  <MODEL>
6

>  <REMARK>
 VINA RESULT:      -6.7      3.021      7.692
  Name = 
  9 active torsions:
  status: ('A' for Active; 'I' for Inactive)
    1  A    between atoms: C_2  and  C_20
    2  A    between atoms: O_4  and  O_11
    3  A    between atoms: O_4  and  C_23
    4  A    between atoms: C_8  and  O_32
    5  A    between atoms: C_10  and  C_23
    6  A    between atoms: C_10  and  C_33
    7  A    between atoms: O_11  and  O_32
    8  A    between atoms: C_12  and  C_26
    9  A    between atoms: C_14  and  C_20
                            x       y       z     vdW  Elec       q    Type
                         _______ _______ _______ _____ _____    ______ ____

>  <TORSDO>
F 9

$$$$
=
 OpenBabel11062421103D

 33 37  0  0  1  0  0  0  0  0999 V2000
  191.8200  176.3730  144.5700 C   0  0  1  0  0  3  0  0  0  0  0  0
  191.0360  172.5860  142.8700 C   0  0  2  0  0  3  0  0  0  0  0  0
  190.6640  172.9130  144.3000 C   0  0  0  0  0  2  0  0  0  0  0  0
  192.1570  173.5550  142.4850 C   0  0  2  0  0  3  0  0  0  0  0  0
  191.9460  173.4170  144.9270 C   0  0  0  0  0  2  0  0  0  0  0  0
  190.3880  177.8770  143.4400 C   0  0  1  0  0  3  0  0  0  0  0  0
  190.1030  177.4000  145.9690 C   0  0  0  0  0  2  0  0  0  0  0  0
  190.9630  176.1210  145.7960 C   0  0  2  0  0  3  0  0  0  0  0  0
  192.0840  176.0240  142.5090 C   0  0  1  0  0  3  0  0  0  0  0  0
  192.8410  175.5670  143.7680 C   0  0  2  0  0  3  0  0  0  0  0  0
  192.7650  174.0280  143.7960 C   0  0  2  0  0  3  0  0  0  0  0  0
  189.4320  177.8980  144.6550 C   0  0  0  0  0  2  0  0  0  0  0  0
  191.6820  174.7890  141.7250 C   0  0  0  0  0  2  0  0  0  0  0  0
  190.9220  176.4670  143.3870 C   0  0  1  0  0  3  0  0  0  0  0  0
  193.1480  176.3840  147.0280 N   0  0  0  0  0  1  0  0  0  0  0  0
  191.8050  175.9180  147.0150 C   0  0  0  0  0  0  0  0  0  0  0  0
  191.3510  175.2960  148.0150 O   0  0  0  0  0  0  0  0  0  0  0  0
  189.8270  172.5940  141.9370 C   0  0  0  0  0  2  0  0  0  0  0  0
  189.4850  172.0560  139.4960 N   0  0  0  0  0  1  0  0  0  0  0  0
  190.7540  170.6730  140.8670 O   0  0  0  0  0  0  0  0  0  0  0  0
  190.0630  171.7210  140.7520 C   0  0  0  0  0  0  0  0  0  0  0  0
  189.6800  178.1650  142.2700 O   0  0  0  0  0  0  0  0  0  0  0  0
  188.7670  177.2190  142.1910 O   0  0  0  0  0  0  0  0  0  0  0  0
  187.8430  177.7070  141.3500 O   0  0  0  0  0  0  0  0  0  0  0  0
  186.4860  177.6460  141.6600 C   0  0  0  0  0  0  0  0  0  0  0  0
  185.6640  178.3060  140.9740 O   0  0  0  0  0  0  0  0  0  0  0  0
  185.9950  176.7910  142.7830 C   0  0  0  0  0  2  0  0  0  0  0  0
  184.4370  178.2260  146.5520 C   0  0  0  0  0  2  0  0  0  0  0  0
  184.4850  178.3020  144.0500 C   0  0  0  0  0  2  0  0  0  0  0  0
  184.3110  179.1240  145.3240 C   0  0  0  0  0  2  0  0  0  0  0  0
  185.7940  177.5280  146.5570 C   0  0  0  0  0  2  0  0  0  0  0  0
  185.9670  176.7080  145.2820 C   0  0  0  0  0  2  0  0  0  0  0  0
  185.8450  177.6110  144.0540 C   0  0  0  0  0  3  0  0  0  0  0  0
  1  8  1  0  0  0  0
  2  3  1  0  0  0  0
  3  5  1  0  0  0  0
  4  2  1  0  0  0  0
  4 11  1  0  0  0  0
  6 12  1  0  0  0  0
  8  7  1  0  0  0  0
  8 16  1  0  0  0  0
  9 14  1  0  0  0  0
  9 10  1  0  0  0  0
 10 11  1  0  0  0  0
 10  1  1  0  0  0  0
 11  5  1  0  0  0  0
 12  7  1  0  0  0  0
 13  4  1  0  0  0  0
 13  9  1  0  0  0  0
 14  6  1  0  0  0  0
 14  1  1  0  0  0  0
 16 15  1  0  0  0  0
 16 17  2  0  0  0  0
 18  2  1  0  0  0  0
 19 21  1  0  0  0  0
 21 20  2  0  0  0  0
 21 18  1  0  0  0  0
 22  6  1  0  0  0  0
 23 22  1  0  0  0  0
 24 25  1  0  0  0  0
 24 23  1  0  0  0  0
 25 27  1  0  0  0  0
 26 25  2  0  0  0  0
 27 33  1  0  0  0  0
 28 31  1  0  0  0  0
 29 33  1  0  0  0  0
 29 30  1  0  0  0  0
 30 28  1  0  0  0  0
 32 31  1  0  0  0  0
 33 32  1  0  0  0  0
M  END
>  <MODEL>
7

>  <REMARK>
 VINA RESULT:      -6.5      2.489      7.202
  Name = 
  9 active torsions:
  status: ('A' for Active; 'I' for Inactive)
    1  A    between atoms: C_2  and  C_20
    2  A    between atoms: O_4  and  O_11
    3  A    between atoms: O_4  and  C_23
    4  A    between atoms: C_8  and  O_32
    5  A    between atoms: C_10  and  C_23
    6  A    between atoms: C_10  and  C_33
    7  A    between atoms: O_11  and  O_32
    8  A    between atoms: C_12  and  C_26
    9  A    between atoms: C_14  and  C_20
                            x       y       z     vdW  Elec       q    Type
                         _______ _______ _______ _____ _____    ______ ____

>  <TORSDO>
F 9

$$$$
=
 OpenBabel11062421103D

 33 37  0  0  1  0  0  0  0  0999 V2000
  194.3340  174.7870  144.0740 C   0  0  1  0  0  3  0  0  0  0  0  0
  196.5460  171.3240  145.0560 C   0  0  2  0  0  3  0  0  0  0  0  0
  197.2050  172.6770  144.9030 C   0  0  0  0  0  2  0  0  0  0  0  0
  195.2410  171.3890  144.2580 C   0  0  2  0  0  3  0  0  0  0  0  0
  196.7750  173.1640  143.5360 C   0  0  0  0  0  2  0  0  0  0  0  0
  192.9810  175.2240  145.9620 C   0  0  1  0  0  3  0  0  0  0  0  0
  194.8480  176.8680  145.2430 C   0  0  0  0  0  2  0  0  0  0  0  0
  195.4750  175.7370  144.3870 C   0  0  2  0  0  3  0  0  0  0  0  0
  193.3720  172.9770  144.5590 C   0  0  1  0  0  3  0  0  0  0  0  0
  194.1960  173.4490  143.3490 C   0  0  2  0  0  3  0  0  0  0  0  0
  195.4220  172.5200  143.2580 C   0  0  2  0  0  3  0  0  0  0  0  0
  193.9350  176.3600  146.3990 C   0  0  0  0  0  2  0  0  0  0  0  0
  194.0100  171.7100  145.0990 C   0  0  0  0  0  2  0  0  0  0  0  0
  193.8760  174.1750  145.3510 C   0  0  1  0  0  3  0  0  0  0  0  0
  197.3960  176.7920  143.1400 N   0  0  0  0  0  1  0  0  0  0  0  0
  196.0550  176.3200  143.1380 C   0  0  0  0  0  0  0  0  0  0  0  0
  195.3540  176.4390  142.0970 O   0  0  0  0  0  0  0  0  0  0  0  0
  196.3880  170.9150  146.5190 C   0  0  0  0  0  2  0  0  0  0  0  0
  196.0980  168.6700  147.6330 N   0  0  0  0  0  1  0  0  0  0  0  0
  197.8180  169.0480  146.1160 O   0  0  0  0  0  0  0  0  0  0  0  0
  196.8120  169.5010  146.7260 C   0  0  0  0  0  0  0  0  0  0  0  0
  192.3220  174.7000  147.0770 O   0  0  0  0  0  0  0  0  0  0  0  0
  191.6180  175.7060  147.5540 O   0  0  0  0  0  0  0  0  0  0  0  0
  190.3600  175.4590  147.1590 O   0  0  0  0  0  0  0  0  0  0  0  0
  189.4750  176.5010  146.8890 C   0  0  0  0  0  0  0  0  0  0  0  0
  189.7470  177.6630  147.2880 O   0  0  0  0  0  0  0  0  0  0  0  0
  188.2200  176.2600  146.1150 C   0  0  0  0  0  2  0  0  0  0  0  0
  184.6530  178.6870  145.8370 C   0  0  0  0  0  2  0  0  0  0  0  0
  186.7820  177.8310  144.8370 C   0  0  0  0  0  2  0  0  0  0  0  0
  185.8330  179.0230  144.9300 C   0  0  0  0  0  2  0  0  0  0  0  0
  185.1510  178.3000  147.2270 C   0  0  0  0  0  2  0  0  0  0  0  0
  186.1010  177.1110  147.1330 C   0  0  0  0  0  2  0  0  0  0  0  0
  187.2850  177.4530  146.2270 C   0  0  0  0  0  3  0  0  0  0  0  0
  1  8  1  0  0  0  0
  1 14  1  0  0  0  0
  2 18  1  0  0  0  0
  3  2  1  0  0  0  0
  4  2  1  0  0  0  0
  4 13  1  0  0  0  0
  5  3  1  0  0  0  0
  6 12  1  0  0  0  0
  6 22  1  0  0  0  0
  7 12  1  0  0  0  0
  8  7  1  0  0  0  0
  9 13  1  0  0  0  0
  9 14  1  0  0  0  0
 10  1  1  0  0  0  0
 10  9  1  0  0  0  0
 11 10  1  0  0  0  0
 11  5  1  0  0  0  0
 11  4  1  0  0  0  0
 14  6  1  0  0  0  0
 16 15  1  0  0  0  0
 16  8  1  0  0  0  0
 17 16  2  0  0  0  0
 18 21  1  0  0  0  0
 20 21  2  0  0  0  0
 21 19  1  0  0  0  0
 22 23  1  0  0  0  0
 24 23  1  0  0  0  0
 25 24  1  0  0  0  0
 25 26  2  0  0  0  0
 27 33  1  0  0  0  0
 27 25  1  0  0  0  0
 28 31  1  0  0  0  0
 29 30  1  0  0  0  0
 29 33  1  0  0  0  0
 30 28  1  0  0  0  0
 32 31  1  0  0  0  0
 33 32  1  0  0  0  0
M  END
>  <MODEL>
8

>  <REMARK>
 VINA RESULT:      -6.2      3.875      8.484
  Name = 
  9 active torsions:
  status: ('A' for Active; 'I' for Inactive)
    1  A    between atoms: C_2  and  C_20
    2  A    between atoms: O_4  and  O_11
    3  A    between atoms: O_4  and  C_23
    4  A    between atoms: C_8  and  O_32
    5  A    between atoms: C_10  and  C_23
    6  A    between atoms: C_10  and  C_33
    7  A    between atoms: O_11  and  O_32
    8  A    between atoms: C_12  and  C_26
    9  A    between atoms: C_14  and  C_20
                            x       y       z     vdW  Elec       q    Type
                         _______ _______ _______ _____ _____    ______ ____

>  <TORSDO>
F 9

$$$$
=
 OpenBabel11062421103D

 33 37  0  0  1  0  0  0  0  0999 V2000
  189.7860  172.9670  142.8980 C   0  0  1  0  0  3  0  0  0  0  0  0
  193.1780  174.7360  144.6890 C   0  0  2  0  0  3  0  0  0  0  0  0
  193.2490  174.0570  143.3390 C   0  0  0  0  0  2  0  0  0  0  0  0
  191.9610  174.1430  145.4050 C   0  0  2  0  0  3  0  0  0  0  0  0
  192.6740  172.6760  143.5710 C   0  0  0  0  0  2  0  0  0  0  0  0
  188.3520  174.7660  142.3540 C   0  0  1  0  0  3  0  0  0  0  0  0
  189.4230  173.3010  140.5070 C   0  0  0  0  0  2  0  0  0  0  0  0
  190.4540  172.7930  141.5470 C   0  0  2  0  0  3  0  0  0  0  0  0
  189.6140  174.1480  144.6340 C   0  0  1  0  0  3  0  0  0  0  0  0
  190.1950  172.7510  144.3540 C   0  0  2  0  0  3  0  0  0  0  0  0
  191.6890  172.8110  144.7260 C   0  0  2  0  0  3  0  0  0  0  0  0
  188.7750  174.6700  140.8690 C   0  0  0  0  0  2  0  0  0  0  0  0
  190.6960  174.9860  145.2890 C   0  0  0  0  0  2  0  0  0  0  0  0
  189.5950  174.4230  143.1380 C   0  0  1  0  0  3  0  0  0  0  0  0
  191.6020  171.0130  140.1780 N   0  0  0  0  0  1  0  0  0  0  0  0
  190.7680  171.3560  141.2770 C   0  0  0  0  0  0  0  0  0  0  0  0
  190.2640  170.4430  141.9860 O   0  0  0  0  0  0  0  0  0  0  0  0
  193.1810  176.2590  144.5760 C   0  0  0  0  0  2  0  0  0  0  0  0
  193.9650  176.9130  146.8840 N   0  0  0  0  0  1  0  0  0  0  0  0
  195.2650  177.3390  145.0050 O   0  0  0  0  0  0  0  0  0  0  0  0
  194.2020  176.8590  145.4820 C   0  0  0  0  0  0  0  0  0  0  0  0
  187.9440  176.0700  142.6510 O   0  0  0  0  0  0  0  0  0  0  0  0
  187.7000  176.6190  141.4790 O   0  0  0  0  0  0  0  0  0  0  0  0
  187.3320  177.8770  141.7610 O   0  0  0  0  0  0  0  0  0  0  0  0
  186.1120  178.1470  142.3780 C   0  0  0  0  0  0  0  0  0  0  0  0
  185.0720  177.5680  141.9710 O   0  0  0  0  0  0  0  0  0  0  0  0
  186.0280  179.0990  143.5270 C   0  0  0  0  0  2  0  0  0  0  0  0
  186.1610  177.7720  147.6390 C   0  0  0  0  0  2  0  0  0  0  0  0
  186.8680  177.5210  145.2510 C   0  0  0  0  0  2  0  0  0  0  0  0
  186.5360  176.7780  146.5420 C   0  0  0  0  0  2  0  0  0  0  0  0
  184.9720  178.6190  147.1980 C   0  0  0  0  0  2  0  0  0  0  0  0
  185.3040  179.3590  145.9060 C   0  0  0  0  0  2  0  0  0  0  0  0
  185.6750  178.3610  144.8080 C   0  0  0  0  0  3  0  0  0  0  0  0
  1 14  1  0  0  0  0
  1 10  1  0  0  0  0
  2  4  1  0  0  0  0
  3  5  1  0  0  0  0
  3  2  1  0  0  0  0
  5 11  1  0  0  0  0
  6 22  1  0  0  0  0
  6 14  1  0  0  0  0
  7 12  1  0  0  0  0
  7  8  1  0  0  0  0
  8  1  1  0  0  0  0
  9 13  1  0  0  0  0
 10  9  1  0  0  0  0
 10 11  1  0  0  0  0
 11  4  1  0  0  0  0
 12  6  1  0  0  0  0
 13  4  1  0  0  0  0
 14  9  1  0  0  0  0
 15 16  1  0  0  0  0
 16  8  1  0  0  0  0
 16 17  2  0  0  0  0
 18  2  1  0  0  0  0
 18 21  1  0  0  0  0
 20 21  2  0  0  0  0
 21 19  1  0  0  0  0
 23 24  1  0  0  0  0
 23 22  1  0  0  0  0
 24 25  1  0  0  0  0
 25 27  1  0  0  0  0
 26 25  2  0  0  0  0
 27 33  1  0  0  0  0
 29 30  1  0  0  0  0
 30 28  1  0  0  0  0
 31 28  1  0  0  0  0
 32 31  1  0  0  0  0
 33 29  1  0  0  0  0
 33 32  1  0  0  0  0
M  END
>  <MODEL>
9

>  <REMARK>
 VINA RESULT:      -6.2      3.058      6.800
  Name = 
  9 active torsions:
  status: ('A' for Active; 'I' for Inactive)
    1  A    between atoms: C_2  and  C_20
    2  A    between atoms: O_4  and  O_11
    3  A    between atoms: O_4  and  C_23
    4  A    between atoms: C_8  and  O_32
    5  A    between atoms: C_10  and  C_23
    6  A    between atoms: C_10  and  C_33
    7  A    between atoms: O_11  and  O_32
    8  A    between atoms: C_12  and  C_26
    9  A    between atoms: C_14  and  C_20
                            x       y       z     vdW  Elec       q    Type
                         _______ _______ _______ _____ _____    ______ ____

>  <TORSDO>
F 9

$$$$
