=
 OpenBabel11062420593D

 31 33  0  0  1  0  0  0  0  0999 V2000
  187.8400  176.2630  146.5330 C   0  0  0  0  0  3  0  0  0  0  0  0
  190.0690  177.5320  145.2140 C   0  0  0  0  0  2  0  0  0  0  0  0
  188.6390  177.6620  144.6470 C   0  0  0  0  0  2  0  0  0  0  0  0
  189.0780  176.0940  147.0060 C   0  0  0  0  0  3  0  0  0  0  0  0
  187.5300  177.4780  145.7000 C   0  0  1  0  0  3  0  0  0  0  0  0
  190.1230  177.1260  146.6970 C   0  0  1  0  0  3  0  0  0  0  0  0
  185.2050  178.5210  145.5150 C   0  0  1  0  0  3  0  0  0  0  0  0
  184.0320  178.6260  144.6440 N   0  0  0  0  0  0  0  0  0  0  0  0
  184.7590  178.2940  146.8790 N   0  0  0  0  0  1  0  0  0  0  0  0
  183.7250  177.8370  140.5010 O   0  0  0  0  0  0  0  0  0  0  0  0
  182.8980  178.5470  142.5810 N   0  0  0  0  0  2  0  0  0  0  0  0
  185.3210  177.8130  142.8030 C   0  0  0  0  0  3  0  0  0  0  0  0
  186.1420  177.3850  145.0480 C   0  0  1  0  0  3  0  0  0  0  0  0
  184.0730  178.3460  143.3770 C   0  0  0  0  0  0  0  0  0  0  0  0
  182.7650  178.2890  141.1780 C   0  0  0  0  0  0  0  0  0  0  0  0
  186.2770  177.4130  143.5850 N   0  0  0  0  0  0  0  0  0  0  0  0
  181.4530  178.5330  140.5140 C   0  0  0  0  0  2  0  0  0  0  0  0
  180.5970  179.4800  141.3420 C   0  0  1  0  0  3  0  0  0  0  0  0
  180.0990  180.5660  140.5130 N   0  0  0  0  0  1  0  0  0  0  0  0
  179.6890  177.3690  142.0110 F   0  0  0  0  0  0  0  0  0  0  0  0
  179.4310  178.7280  141.9640 C   0  0  0  0  0  2  0  0  0  0  0  0
  191.5040  176.5880  147.0540 C   0  0  0  0  0  2  0  0  0  0  0  0
  192.3760  173.4450  142.2700 O   0  0  0  0  0  0  0  0  0  0  0  0
  193.2350  176.4390  145.3700 C   0  0  0  0  0  3  0  0  0  0  0  0
  195.6370  176.7160  144.0640 Cl  0  0  0  0  0  0  0  0  0  0  0  0
  191.2890  174.5250  144.0650 C   0  0  0  0  0  2  0  0  0  0  0  0
  192.4720  174.2950  143.1910 C   0  0  0  0  0  0  0  0  0  0  0  0
  192.1830  175.8440  145.9380 C   0  0  0  0  0  0  0  0  0  0  0  0
  194.0710  175.9560  144.2480 C   0  0  0  0  0  0  0  0  0  0  0  0
  193.7350  175.0400  143.3290 C   0  0  0  0  0  3  0  0  0  0  0  0
  191.7110  174.4880  145.5160 C   0  0  0  0  0  2  0  0  0  0  0  0
  1  4  2  0  0  0  0
  2  6  1  0  0  0  0
  3  2  1  0  0  0  0
  5  3  1  6  0  0  0
  5  1  1  0  0  0  0
  6  4  1  0  0  0  0
  6 22  1  6  0  0  0
  7  9  1  1  0  0  0
  8  7  1  0  0  0  0
 10 15  2  0  0  0  0
 11 14  1  0  0  0  0
 12 14  1  0  0  0  0
 12 16  2  0  0  0  0
 13 16  1  6  0  0  0
 13  7  1  0  0  0  0
 13  5  1  0  0  0  0
 14  8  2  0  0  0  0
 15 11  1  0  0  0  0
 17 15  1  0  0  0  0
 17 18  1  0  0  0  0
 18 19  1  6  0  0  0
 18 21  1  0  0  0  0
 21 20  1  0  0  0  0
 23 27  2  0  0  0  0
 24 28  2  0  0  0  0
 25 29  1  0  0  0  0
 26 31  1  0  0  0  0
 27 30  1  0  0  0  0
 27 26  1  0  0  0  0
 28 22  1  0  0  0  0
 29 24  1  0  0  0  0
 30 29  2  0  0  0  0
 31 28  1  0  0  0  0
M  END
>  <MODEL>
1

>  <REMARK>
 VINA RESULT:      -7.9      0.000      0.000
  Name = 
  6 active torsions:
  status: ('A' for Active; 'I' for Inactive)
    1  A    between atoms: C_14  and  C_27
    2  A    between atoms: C_18  and  C_20
    3  A    between atoms: C_18  and  C_28
    4  A    between atoms: C_20  and  C_31
    5  A    between atoms: C_23  and  C_24
    6  A    between atoms: C_27  and  C_30
                            x       y       z     vdW  Elec       q    Type
                         _______ _______ _______ _____ _____    ______ ____

>  <TORSDO>
F 6

$$$$
=
 OpenBabel11062420593D

 31 33  0  0  1  0  0  0  0  0999 V2000
  188.1010  176.0290  146.6600 C   0  0  0  0  0  3  0  0  0  0  0  0
  190.4070  177.2440  145.4250 C   0  0  0  0  0  2  0  0  0  0  0  0
  189.0100  177.3710  144.7820 C   0  0  0  0  0  2  0  0  0  0  0  0
  189.3120  175.8630  147.2010 C   0  0  0  0  0  3  0  0  0  0  0  0
  187.8470  177.2240  145.7810 C   0  0  1  0  0  3  0  0  0  0  0  0
  190.3820  176.8770  146.9190 C   0  0  1  0  0  3  0  0  0  0  0  0
  185.4870  178.1820  145.5690 C   0  0  1  0  0  3  0  0  0  0  0  0
  184.3490  178.3070  144.6550 N   0  0  0  0  0  0  0  0  0  0  0  0
  184.9950  177.8320  146.8900 N   0  0  0  0  0  1  0  0  0  0  0  0
  184.2540  177.8280  140.4540 O   0  0  0  0  0  0  0  0  0  0  0  0
  183.3090  178.3400  142.5420 N   0  0  0  0  0  2  0  0  0  0  0  0
  185.7510  177.6920  142.8190 C   0  0  0  0  0  3  0  0  0  0  0  0
  186.4930  177.1250  145.0600 C   0  0  1  0  0  3  0  0  0  0  0  0
  184.4570  178.1270  143.3740 C   0  0  0  0  0  0  0  0  0  0  0  0
  183.2470  178.1870  141.1190 C   0  0  0  0  0  0  0  0  0  0  0  0
  186.6890  177.2720  143.6120 N   0  0  0  0  0  0  0  0  0  0  0  0
  181.9550  178.4280  140.4160 C   0  0  0  0  0  2  0  0  0  0  0  0
  180.9070  178.9630  141.3810 C   0  0  1  0  0  3  0  0  0  0  0  0
  180.2930  180.1670  140.8420 N   0  0  0  0  0  1  0  0  0  0  0  0
  178.5740  178.4660  141.5740 F   0  0  0  0  0  0  0  0  0  0  0  0
  179.8410  177.9100  141.6390 C   0  0  0  0  0  2  0  0  0  0  0  0
  191.7370  176.3380  147.3610 C   0  0  0  0  0  2  0  0  0  0  0  0
  196.2090  175.6780  143.7420 O   0  0  0  0  0  0  0  0  0  0  0  0
  192.6440  174.5250  146.0410 C   0  0  0  0  0  3  0  0  0  0  0  0
  192.8950  172.1270  144.7240 Cl  0  0  0  0  0  0  0  0  0  0  0  0
  194.8310  176.5340  145.4580 C   0  0  0  0  0  2  0  0  0  0  0  0
  195.2160  175.4740  144.4850 C   0  0  0  0  0  0  0  0  0  0  0  0
  192.6010  175.8470  146.2340 C   0  0  0  0  0  0  0  0  0  0  0  0
  193.4210  173.7680  145.0340 C   0  0  0  0  0  0  0  0  0  0  0  0
  194.5110  174.1840  144.3760 C   0  0  0  0  0  3  0  0  0  0  0  0
  193.3480  176.8040  145.3590 C   0  0  0  0  0  2  0  0  0  0  0  0
  1  4  2  0  0  0  0
  2  6  1  0  0  0  0
  3  2  1  0  0  0  0
  5  3  1  6  0  0  0
  5  1  1  0  0  0  0
  6  4  1  0  0  0  0
  6 22  1  6  0  0  0
  7  9  1  1  0  0  0
  8  7  1  0  0  0  0
 10 15  2  0  0  0  0
 11 14  1  0  0  0  0
 12 14  1  0  0  0  0
 12 16  2  0  0  0  0
 13 16  1  6  0  0  0
 13  7  1  0  0  0  0
 13  5  1  0  0  0  0
 14  8  2  0  0  0  0
 15 11  1  0  0  0  0
 17 15  1  0  0  0  0
 17 18  1  0  0  0  0
 18 19  1  6  0  0  0
 18 21  1  0  0  0  0
 20 21  1  0  0  0  0
 23 27  2  0  0  0  0
 24 28  2  0  0  0  0
 25 29  1  0  0  0  0
 27 26  1  0  0  0  0
 28 22  1  0  0  0  0
 29 24  1  0  0  0  0
 30 27  1  0  0  0  0
 30 29  2  0  0  0  0
 31 26  1  0  0  0  0
 31 28  1  0  0  0  0
M  END
>  <MODEL>
2

>  <REMARK>
 VINA RESULT:      -7.8      1.553      1.876
  Name = 
  6 active torsions:
  status: ('A' for Active; 'I' for Inactive)
    1  A    between atoms: C_14  and  C_27
    2  A    between atoms: C_18  and  C_20
    3  A    between atoms: C_18  and  C_28
    4  A    between atoms: C_20  and  C_31
    5  A    between atoms: C_23  and  C_24
    6  A    between atoms: C_27  and  C_30
                            x       y       z     vdW  Elec       q    Type
                         _______ _______ _______ _____ _____    ______ ____

>  <TORSDO>
F 6

$$$$
=
 OpenBabel11062420593D

 31 33  0  0  1  0  0  0  0  0999 V2000
  186.1080  178.5750  144.9860 C   0  0  0  0  0  3  0  0  0  0  0  0
  187.6930  176.2150  144.4990 C   0  0  0  0  0  2  0  0  0  0  0  0
  186.7430  176.7640  143.4140 C   0  0  0  0  0  2  0  0  0  0  0  0
  186.8840  178.0820  145.9560 C   0  0  0  0  0  3  0  0  0  0  0  0
  186.4420  178.2680  143.5500 C   0  0  1  0  0  3  0  0  0  0  0  0
  188.0690  177.2400  145.5840 C   0  0  1  0  0  3  0  0  0  0  0  0
  185.2440  177.8140  141.3390 C   0  0  1  0  0  3  0  0  0  0  0  0
  183.9800  178.0170  140.6260 N   0  0  0  0  0  0  0  0  0  0  0  0
  186.3450  178.0980  140.4360 N   0  0  0  0  0  1  0  0  0  0  0  0
  180.1740  178.9830  142.1950 O   0  0  0  0  0  0  0  0  0  0  0  0
  181.6660  178.4270  140.4690 N   0  0  0  0  0  2  0  0  0  0  0  0
  182.8990  178.5570  142.6880 C   0  0  0  0  0  3  0  0  0  0  0  0
  185.3200  178.7080  142.5960 C   0  0  1  0  0  3  0  0  0  0  0  0
  182.8730  178.3180  141.2340 C   0  0  0  0  0  0  0  0  0  0  0  0
  180.3640  178.7520  140.9720 C   0  0  0  0  0  0  0  0  0  0  0  0
  184.0330  178.6930  143.3040 N   0  0  0  0  0  0  0  0  0  0  0  0
  179.2190  178.8470  140.0230 C   0  0  0  0  0  2  0  0  0  0  0  0
  178.6610  180.2620  139.9910 C   0  0  1  0  0  3  0  0  0  0  0  0
  179.7400  181.2290  139.8690 N   0  0  0  0  0  1  0  0  0  0  0  0
  178.1780  181.3270  137.9030 F   0  0  0  0  0  0  0  0  0  0  0  0
  177.6920  180.4210  138.8300 C   0  0  0  0  0  2  0  0  0  0  0  0
  188.6130  176.5340  146.8210 C   0  0  0  0  0  2  0  0  0  0  0  0
  192.1660  172.5570  144.5650 O   0  0  0  0  0  0  0  0  0  0  0  0
  191.0040  176.3140  146.5280 C   0  0  0  0  0  3  0  0  0  0  0  0
  193.7120  176.7170  146.7700 Cl  0  0  0  0  0  0  0  0  0  0  0  0
  190.2190  173.8120  145.0190 C   0  0  0  0  0  2  0  0  0  0  0  0
  191.6920  173.6060  145.0710 C   0  0  0  0  0  0  0  0  0  0  0  0
  189.8260  175.6860  146.5630 C   0  0  0  0  0  0  0  0  0  0  0  0
  192.3450  175.7420  146.2730 C   0  0  0  0  0  0  0  0  0  0  0  0
  192.6250  174.5870  145.6550 C   0  0  0  0  0  3  0  0  0  0  0  0
  189.7090  174.2040  146.3870 C   0  0  0  0  0  2  0  0  0  0  0  0
  1  4  2  0  0  0  0
  2  6  1  0  0  0  0
  3  2  1  0  0  0  0
  5  3  1  1  0  0  0
  5  1  1  0  0  0  0
  6  4  1  0  0  0  0
  6 22  1  1  0  0  0
  7  9  1  6  0  0  0
  7 13  1  0  0  0  0
  8 14  2  0  0  0  0
  8  7  1  0  0  0  0
 11 15  1  0  0  0  0
 11 14  1  0  0  0  0
 12 16  2  0  0  0  0
 13 16  1  1  0  0  0
 13  5  1  0  0  0  0
 14 12  1  0  0  0  0
 15 10  2  0  0  0  0
 17 15  1  0  0  0  0
 18 19  1  6  0  0  0
 18 17  1  0  0  0  0
 20 21  1  0  0  0  0
 21 18  1  0  0  0  0
 23 27  2  0  0  0  0
 24 28  2  0  0  0  0
 26 27  1  0  0  0  0
 26 31  1  0  0  0  0
 27 30  1  0  0  0  0
 28 22  1  0  0  0  0
 29 24  1  0  0  0  0
 29 25  1  0  0  0  0
 30 29  2  0  0  0  0
 31 28  1  0  0  0  0
M  END
>  <MODEL>
3

>  <REMARK>
 VINA RESULT:      -7.7      2.171      3.153
  Name = 
  6 active torsions:
  status: ('A' for Active; 'I' for Inactive)
    1  A    between atoms: C_14  and  C_27
    2  A    between atoms: C_18  and  C_20
    3  A    between atoms: C_18  and  C_28
    4  A    between atoms: C_20  and  C_31
    5  A    between atoms: C_23  and  C_24
    6  A    between atoms: C_27  and  C_30
                            x       y       z     vdW  Elec       q    Type
                         _______ _______ _______ _____ _____    ______ ____

>  <TORSDO>
F 6

$$$$
=
 OpenBabel11062420593D

 31 33  0  0  1  0  0  0  0  0999 V2000
  188.6650  178.0630  143.4250 C   0  0  0  0  0  3  0  0  0  0  0  0
  188.1100  177.1020  146.0870 C   0  0  0  0  0  2  0  0  0  0  0  0
  186.9640  177.5580  145.1580 C   0  0  0  0  0  2  0  0  0  0  0  0
  189.6730  177.7250  144.2360 C   0  0  0  0  0  3  0  0  0  0  0  0
  187.3020  177.4670  143.6590 C   0  0  1  0  0  3  0  0  0  0  0  0
  189.4160  176.7560  145.3520 C   0  0  1  0  0  3  0  0  0  0  0  0
  185.9690  177.3750  141.4810 C   0  0  1  0  0  3  0  0  0  0  0  0
  184.7260  177.8210  140.8470 N   0  0  0  0  0  0  0  0  0  0  0  0
  187.0670  177.5610  140.5490 N   0  0  0  0  0  1  0  0  0  0  0  0
  181.1730  179.2230  142.6630 O   0  0  0  0  0  0  0  0  0  0  0  0
  182.4980  178.5860  140.8320 N   0  0  0  0  0  2  0  0  0  0  0  0
  183.8160  178.3530  142.9920 C   0  0  0  0  0  3  0  0  0  0  0  0
  186.2270  178.1450  142.7950 C   0  0  1  0  0  3  0  0  0  0  0  0
  183.7010  178.2360  141.5280 C   0  0  0  0  0  0  0  0  0  0  0  0
  181.2810  179.0620  141.4190 C   0  0  0  0  0  0  0  0  0  0  0  0
  184.9800  178.2690  143.5610 N   0  0  0  0  0  0  0  0  0  0  0  0
  180.1300  179.4030  140.5360 C   0  0  0  0  0  2  0  0  0  0  0  0
  179.3950  178.1450  140.0980 C   0  0  1  0  0  3  0  0  0  0  0  0
  178.8060  177.4780  141.2480 N   0  0  0  0  0  1  0  0  0  0  0  0
  178.3870  179.8250  138.7240 F   0  0  0  0  0  0  0  0  0  0  0  0
  178.3100  178.4920  139.0900 C   0  0  0  0  0  2  0  0  0  0  0  0
  190.5920  176.7590  146.3220 C   0  0  0  0  0  2  0  0  0  0  0  0
  196.0080  174.7820  145.7820 O   0  0  0  0  0  0  0  0  0  0  0  0
  191.6160  174.6840  145.6170 C   0  0  0  0  0  3  0  0  0  0  0  0
  191.9770  172.1950  144.5100 Cl  0  0  0  0  0  0  0  0  0  0  0  0
  194.1600  176.0710  146.4880 C   0  0  0  0  0  2  0  0  0  0  0  0
  194.7550  174.8760  145.8290 C   0  0  0  0  0  0  0  0  0  0  0  0
  191.7900  175.9900  145.8410 C   0  0  0  0  0  0  0  0  0  0  0  0
  192.6140  173.6870  145.1680 C   0  0  0  0  0  0  0  0  0  0  0  0
  193.9470  173.7820  145.2600 C   0  0  0  0  0  3  0  0  0  0  0  0
  193.0990  176.6720  145.5970 C   0  0  0  0  0  2  0  0  0  0  0  0
  1  4  2  0  0  0  0
  3  2  1  0  0  0  0
  4  6  1  0  0  0  0
  5  1  1  1  0  0  0
  5  3  1  0  0  0  0
  6  2  1  0  0  0  0
  6 22  1  1  0  0  0
  7  9  1  6  0  0  0
  7 13  1  0  0  0  0
  8  7  1  0  0  0  0
  8 14  2  0  0  0  0
 11 15  1  0  0  0  0
 11 14  1  0  0  0  0
 12 16  2  0  0  0  0
 13 16  1  1  0  0  0
 13  5  1  0  0  0  0
 14 12  1  0  0  0  0
 15 10  2  0  0  0  0
 17 15  1  0  0  0  0
 18 17  1  0  0  0  0
 18 19  1  1  0  0  0
 20 21  1  0  0  0  0
 21 18  1  0  0  0  0
 23 27  2  0  0  0  0
 24 28  2  0  0  0  0
 25 29  1  0  0  0  0
 27 26  1  0  0  0  0
 28 22  1  0  0  0  0
 29 30  2  0  0  0  0
 29 24  1  0  0  0  0
 30 27  1  0  0  0  0
 31 28  1  0  0  0  0
 31 26  1  0  0  0  0
M  END
>  <MODEL>
4

>  <REMARK>
 VINA RESULT:      -7.6      2.331      3.197
  Name = 
  6 active torsions:
  status: ('A' for Active; 'I' for Inactive)
    1  A    between atoms: C_14  and  C_27
    2  A    between atoms: C_18  and  C_20
    3  A    between atoms: C_18  and  C_28
    4  A    between atoms: C_20  and  C_31
    5  A    between atoms: C_23  and  C_24
    6  A    between atoms: C_27  and  C_30
                            x       y       z     vdW  Elec       q    Type
                         _______ _______ _______ _____ _____    ______ ____

>  <TORSDO>
F 6

$$$$
=
 OpenBabel11062420593D

 31 33  0  0  1  0  0  0  0  0999 V2000
  187.0710  177.7750  144.5530 C   0  0  0  0  0  3  0  0  0  0  0  0
  188.4440  175.4390  143.5630 C   0  0  0  0  0  2  0  0  0  0  0  0
  187.4320  176.1940  142.6750 C   0  0  0  0  0  2  0  0  0  0  0  0
  187.9020  177.1010  145.3530 C   0  0  0  0  0  3  0  0  0  0  0  0
  187.2440  177.6730  143.0600 C   0  0  1  0  0  3  0  0  0  0  0  0
  188.9890  176.2670  144.7400 C   0  0  1  0  0  3  0  0  0  0  0  0
  185.7340  177.5450  141.0030 C   0  0  1  0  0  3  0  0  0  0  0  0
  184.4200  177.9380  140.4850 N   0  0  0  0  0  0  0  0  0  0  0  0
  186.7370  177.7990  139.9840 N   0  0  0  0  0  1  0  0  0  0  0  0
  180.9740  179.1340  142.6240 O   0  0  0  0  0  0  0  0  0  0  0  0
  182.1660  178.5900  140.6750 N   0  0  0  0  0  2  0  0  0  0  0  0
  183.6750  178.3930  142.7100 C   0  0  0  0  0  3  0  0  0  0  0  0
  186.0670  178.3080  142.3040 C   0  0  1  0  0  3  0  0  0  0  0  0
  183.4400  178.2910  141.2590 C   0  0  0  0  0  0  0  0  0  0  0  0
  180.9820  178.9970  141.3730 C   0  0  0  0  0  0  0  0  0  0  0  0
  184.8860  178.3580  143.1760 N   0  0  0  0  0  0  0  0  0  0  0  0
  179.7440  179.2930  140.5970 C   0  0  0  0  0  2  0  0  0  0  0  0
  179.0860  178.0060  140.1190 C   0  0  1  0  0  3  0  0  0  0  0  0
  178.4400  177.3260  141.2310 N   0  0  0  0  0  1  0  0  0  0  0  0
  178.1910  179.6130  138.5890 F   0  0  0  0  0  0  0  0  0  0  0  0
  178.0650  178.3080  139.0330 C   0  0  0  0  0  2  0  0  0  0  0  0
  189.6020  175.3560  145.7970 C   0  0  0  0  0  2  0  0  0  0  0  0
  194.5930  173.6690  143.3950 O   0  0  0  0  0  0  0  0  0  0  0  0
  191.9210  176.0190  145.9760 C   0  0  0  0  0  3  0  0  0  0  0  0
  194.2450  177.1670  146.8880 Cl  0  0  0  0  0  0  0  0  0  0  0  0
  192.2830  174.0190  143.7340 C   0  0  0  0  0  2  0  0  0  0  0  0
  193.7140  174.2910  144.0440 C   0  0  0  0  0  0  0  0  0  0  0  0
  191.0620  175.0700  145.5920 C   0  0  0  0  0  0  0  0  0  0  0  0
  193.3980  176.0200  145.8720 C   0  0  0  0  0  0  0  0  0  0  0  0
  194.1490  175.2770  145.0490 C   0  0  0  0  0  3  0  0  0  0  0  0
  191.5210  173.7680  145.0140 C   0  0  0  0  0  2  0  0  0  0  0  0
  1  4  2  0  0  0  0
  2  6  1  0  0  0  0
  3  2  1  0  0  0  0
  5  3  1  1  0  0  0
  5  1  1  0  0  0  0
  6  4  1  0  0  0  0
  6 22  1  1  0  0  0
  7  9  1  6  0  0  0
  7 13  1  0  0  0  0
  8  7  1  0  0  0  0
  8 14  2  0  0  0  0
 11 14  1  0  0  0  0
 11 15  1  0  0  0  0
 12 16  2  0  0  0  0
 13  5  1  0  0  0  0
 13 16  1  1  0  0  0
 14 12  1  0  0  0  0
 15 10  2  0  0  0  0
 17 15  1  0  0  0  0
 18 17  1  0  0  0  0
 18 19  1  1  0  0  0
 20 21  1  0  0  0  0
 21 18  1  0  0  0  0
 23 27  2  0  0  0  0
 26 27  1  0  0  0  0
 26 31  1  0  0  0  0
 27 30  1  0  0  0  0
 28 22  1  0  0  0  0
 28 24  2  0  0  0  0
 29 24  1  0  0  0  0
 29 25  1  0  0  0  0
 30 29  2  0  0  0  0
 31 28  1  0  0  0  0
M  END
>  <MODEL>
5

>  <REMARK>
 VINA RESULT:      -7.3      2.126      2.925
  Name = 
  6 active torsions:
  status: ('A' for Active; 'I' for Inactive)
    1  A    between atoms: C_14  and  C_27
    2  A    between atoms: C_18  and  C_20
    3  A    between atoms: C_18  and  C_28
    4  A    between atoms: C_20  and  C_31
    5  A    between atoms: C_23  and  C_24
    6  A    between atoms: C_27  and  C_30
                            x       y       z     vdW  Elec       q    Type
                         _______ _______ _______ _____ _____    ______ ____

>  <TORSDO>
F 6

$$$$
=
 OpenBabel11062420593D

 31 33  0  0  1  0  0  0  0  0999 V2000
  188.9900  175.9450  143.3070 C   0  0  0  0  0  3  0  0  0  0  0  0
  190.2250  177.9160  145.0140 C   0  0  0  0  0  2  0  0  0  0  0  0
  188.6930  177.8830  144.8270 C   0  0  0  0  0  2  0  0  0  0  0  0
  190.3220  175.9940  143.4140 C   0  0  0  0  0  3  0  0  0  0  0  0
  188.1430  176.5040  144.4200 C   0  0  1  0  0  3  0  0  0  0  0  0
  190.9320  176.6010  144.6440 C   0  0  1  0  0  3  0  0  0  0  0  0
  185.8950  177.6440  144.8440 C   0  0  1  0  0  3  0  0  0  0  0  0
  184.6000  177.9490  144.2300 N   0  0  0  0  0  0  0  0  0  0  0  0
  185.6760  177.1850  146.2050 N   0  0  0  0  0  1  0  0  0  0  0  0
  183.5360  177.9470  140.1380 O   0  0  0  0  0  0  0  0  0  0  0  0
  183.1280  178.2910  142.4250 N   0  0  0  0  0  2  0  0  0  0  0  0
  185.4980  177.4440  142.0740 C   0  0  0  0  0  3  0  0  0  0  0  0
  186.6600  176.5810  144.0230 C   0  0  1  0  0  3  0  0  0  0  0  0
  184.4050  177.9060  142.9480 C   0  0  0  0  0  0  0  0  0  0  0  0
  182.7380  178.3000  141.0460 C   0  0  0  0  0  0  0  0  0  0  0  0
  186.5440  176.8730  142.5890 N   0  0  0  0  0  0  0  0  0  0  0  0
  181.3520  178.7090  140.6830 C   0  0  0  0  0  2  0  0  0  0  0  0
  180.3410  178.1030  141.6460 C   0  0  1  0  0  3  0  0  0  0  0  0
  179.8990  179.1020  142.6070 N   0  0  0  0  0  1  0  0  0  0  0  0
  179.3130  177.7290  139.5180 F   0  0  0  0  0  0  0  0  0  0  0  0
  179.1460  177.5560  140.8820 C   0  0  0  0  0  2  0  0  0  0  0  0
  192.4210  176.8390  144.4200 C   0  0  0  0  0  2  0  0  0  0  0  0
  194.2120  171.4940  145.7410 O   0  0  0  0  0  0  0  0  0  0  0  0
  194.5000  175.6150  144.2400 C   0  0  0  0  0  3  0  0  0  0  0  0
  197.1650  175.0300  143.9160 Cl  0  0  0  0  0  0  0  0  0  0  0  0
  192.7990  173.3090  145.2110 C   0  0  0  0  0  2  0  0  0  0  0  0
  194.1410  172.6710  145.3050 C   0  0  0  0  0  0  0  0  0  0  0  0
  193.2960  175.6840  144.8170 C   0  0  0  0  0  0  0  0  0  0  0  0
  195.5490  174.5870  144.4210 C   0  0  0  0  0  0  0  0  0  0  0  0
  195.3840  173.3380  144.8790 C   0  0  0  0  0  3  0  0  0  0  0  0
  192.8420  174.6850  145.8340 C   0  0  0  0  0  2  0  0  0  0  0  0
  1  4  2  0  0  0  0
  3  2  1  0  0  0  0
  4  6  1  0  0  0  0
  5  1  1  6  0  0  0
  5  3  1  0  0  0  0
  6 22  1  6  0  0  0
  6  2  1  0  0  0  0
  7  9  1  1  0  0  0
  8  7  1  0  0  0  0
 10 15  2  0  0  0  0
 11 14  1  0  0  0  0
 12 16  2  0  0  0  0
 12 14  1  0  0  0  0
 13 16  1  6  0  0  0
 13  5  1  0  0  0  0
 13  7  1  0  0  0  0
 14  8  2  0  0  0  0
 15 11  1  0  0  0  0
 17 15  1  0  0  0  0
 17 18  1  0  0  0  0
 18 19  1  1  0  0  0
 20 21  1  0  0  0  0
 21 18  1  0  0  0  0
 22 28  1  0  0  0  0
 24 29  1  0  0  0  0
 24 28  2  0  0  0  0
 25 29  1  0  0  0  0
 26 27  1  0  0  0  0
 26 31  1  0  0  0  0
 27 23  2  0  0  0  0
 28 31  1  0  0  0  0
 29 30  2  0  0  0  0
 30 27  1  0  0  0  0
M  END
>  <MODEL>
6

>  <REMARK>
 VINA RESULT:      -7.2      1.710      2.043
  Name = 
  6 active torsions:
  status: ('A' for Active; 'I' for Inactive)
    1  A    between atoms: C_14  and  C_27
    2  A    between atoms: C_18  and  C_20
    3  A    between atoms: C_18  and  C_28
    4  A    between atoms: C_20  and  C_31
    5  A    between atoms: C_23  and  C_24
    6  A    between atoms: C_27  and  C_30
                            x       y       z     vdW  Elec       q    Type
                         _______ _______ _______ _____ _____    ______ ____

>  <TORSDO>
F 6

$$$$
=
 OpenBabel11062420593D

 31 33  0  0  1  0  0  0  0  0999 V2000
  188.1310  175.7680  143.3680 C   0  0  0  0  0  3  0  0  0  0  0  0
  189.7980  177.9400  142.4610 C   0  0  0  0  0  2  0  0  0  0  0  0
  188.2670  178.1120  142.5690 C   0  0  0  0  0  2  0  0  0  0  0  0
  189.4470  175.5840  143.2270 C   0  0  0  0  0  3  0  0  0  0  0  0
  187.6020  177.1620  143.5810 C   0  0  1  0  0  3  0  0  0  0  0  0
  190.3600  176.7740  143.2910 C   0  0  1  0  0  3  0  0  0  0  0  0
  185.4820  178.4490  144.1950 C   0  0  1  0  0  3  0  0  0  0  0  0
  184.0880  178.6710  143.8020 N   0  0  0  0  0  0  0  0  0  0  0  0
  185.5450  178.2910  145.6380 N   0  0  0  0  0  1  0  0  0  0  0  0
  182.2160  177.8630  140.0970 O   0  0  0  0  0  0  0  0  0  0  0  0
  182.2780  178.6870  142.2950 N   0  0  0  0  0  2  0  0  0  0  0  0
  184.5320  177.6960  141.6650 C   0  0  0  0  0  3  0  0  0  0  0  0
  186.0690  177.2120  143.4810 C   0  0  1  0  0  3  0  0  0  0  0  0
  183.6370  178.3710  142.6220 C   0  0  0  0  0  0  0  0  0  0  0  0
  181.6180  178.4270  141.0510 C   0  0  0  0  0  0  0  0  0  0  0  0
  185.6640  177.2050  142.0690 N   0  0  0  0  0  0  0  0  0  0  0  0
  180.1840  178.8030  140.8940 C   0  0  0  0  0  2  0  0  0  0  0  0
  179.3070  177.9950  141.8390 C   0  0  1  0  0  3  0  0  0  0  0  0
  178.6690  178.8710  142.8090 N   0  0  0  0  0  1  0  0  0  0  0  0
  178.6420  177.0590  139.7390 F   0  0  0  0  0  0  0  0  0  0  0  0
  178.2490  177.2350  141.0550 C   0  0  0  0  0  2  0  0  0  0  0  0
  191.7500  176.3880  142.7980 C   0  0  0  0  0  2  0  0  0  0  0  0
  196.4970  174.5750  145.5740 O   0  0  0  0  0  0  0  0  0  0  0  0
  192.5760  176.4950  145.0690 C   0  0  0  0  0  3  0  0  0  0  0  0
  192.6830  176.8270  147.7950 Cl  0  0  0  0  0  0  0  0  0  0  0  0
  195.0450  175.2510  143.8400 C   0  0  0  0  0  2  0  0  0  0  0  0
  195.4070  175.1270  145.2790 C   0  0  0  0  0  0  0  0  0  0  0  0
  192.6730  175.8980  143.8780 C   0  0  0  0  0  0  0  0  0  0  0  0
  193.3650  176.2370  146.2940 C   0  0  0  0  0  0  0  0  0  0  0  0
  194.5680  175.6510  146.3710 C   0  0  0  0  0  3  0  0  0  0  0  0
  193.6270  174.7730  143.6270 C   0  0  0  0  0  2  0  0  0  0  0  0
  1  5  1  0  0  0  0
  2  3  1  0  0  0  0
  2  6  1  0  0  0  0
  4  6  1  0  0  0  0
  4  1  2  0  0  0  0
  5  3  1  6  0  0  0
  6 22  1  6  0  0  0
  7  9  1  1  0  0  0
  8  7  1  0  0  0  0
 10 15  2  0  0  0  0
 11 14  1  0  0  0  0
 12 16  2  0  0  0  0
 12 14  1  0  0  0  0
 13 16  1  6  0  0  0
 13  5  1  0  0  0  0
 13  7  1  0  0  0  0
 14  8  2  0  0  0  0
 15 11  1  0  0  0  0
 17 15  1  0  0  0  0
 17 18  1  0  0  0  0
 18 19  1  1  0  0  0
 20 21  1  0  0  0  0
 21 18  1  0  0  0  0
 22 28  1  0  0  0  0
 24 29  1  0  0  0  0
 26 27  1  0  0  0  0
 27 23  2  0  0  0  0
 27 30  1  0  0  0  0
 28 24  2  0  0  0  0
 29 30  2  0  0  0  0
 29 25  1  0  0  0  0
 31 26  1  0  0  0  0
 31 28  1  0  0  0  0
M  END
>  <MODEL>
7

>  <REMARK>
 VINA RESULT:      -7.2      2.191      2.685
  Name = 
  6 active torsions:
  status: ('A' for Active; 'I' for Inactive)
    1  A    between atoms: C_14  and  C_27
    2  A    between atoms: C_18  and  C_20
    3  A    between atoms: C_18  and  C_28
    4  A    between atoms: C_20  and  C_31
    5  A    between atoms: C_23  and  C_24
    6  A    between atoms: C_27  and  C_30
                            x       y       z     vdW  Elec       q    Type
                         _______ _______ _______ _____ _____    ______ ____

>  <TORSDO>
F 6

$$$$
=
 OpenBabel11062420593D

 31 33  0  0  1  0  0  0  0  0999 V2000
  193.5140  176.5170  145.9900 C   0  0  0  0  0  3  0  0  0  0  0  0
  193.7570  173.6800  145.5280 C   0  0  0  0  0  2  0  0  0  0  0  0
  192.3960  174.3920  145.3680 C   0  0  0  0  0  2  0  0  0  0  0  0
  194.6880  175.9070  146.1870 C   0  0  0  0  0  3  0  0  0  0  0  0
  192.5110  175.8950  145.0560 C   0  0  1  0  0  3  0  0  0  0  0  0
  194.9710  174.6230  145.4650 C   0  0  1  0  0  3  0  0  0  0  0  0
  190.3020  176.3710  143.8630 C   0  0  1  0  0  3  0  0  0  0  0  0
  188.9000  176.7350  144.0890 N   0  0  0  0  0  0  0  0  0  0  0  0
  190.8200  177.1560  142.7560 N   0  0  0  0  0  1  0  0  0  0  0  0
  186.6250  176.4500  147.6420 O   0  0  0  0  0  0  0  0  0  0  0  0
  186.9250  176.9120  145.3590 N   0  0  0  0  0  2  0  0  0  0  0  0
  189.1160  176.1510  146.3960 C   0  0  0  0  0  3  0  0  0  0  0  0
  191.1450  176.5940  145.1380 C   0  0  1  0  0  3  0  0  0  0  0  0
  188.3190  176.6000  145.2420 C   0  0  0  0  0  0  0  0  0  0  0  0
  186.1290  176.8250  146.5470 C   0  0  0  0  0  0  0  0  0  0  0  0
  190.4120  176.1160  146.3170 N   0  0  0  0  0  0  0  0  0  0  0  0
  184.6910  177.2160  146.4910 C   0  0  0  0  0  2  0  0  0  0  0  0
  184.5470  178.7240  146.3520 C   0  0  1  0  0  3  0  0  0  0  0  0
  185.6180  179.4020  147.0660 N   0  0  0  0  0  1  0  0  0  0  0  0
  185.6520  179.9460  144.6150 F   0  0  0  0  0  0  0  0  0  0  0  0
  184.5710  179.1230  144.8840 C   0  0  0  0  0  2  0  0  0  0  0  0
  196.2010  173.9510  146.0660 C   0  0  0  0  0  2  0  0  0  0  0  0
  196.3800  168.3950  144.4480 O   0  0  0  0  0  0  0  0  0  0  0  0
  196.8450  172.7490  144.0680 C   0  0  0  0  0  3  0  0  0  0  0  0
  197.9370  172.1530  141.6180 Cl  0  0  0  0  0  0  0  0  0  0  0  0
  195.7950  170.3660  145.6080 C   0  0  0  0  0  2  0  0  0  0  0  0
  196.4180  169.6510  144.4600 C   0  0  0  0  0  0  0  0  0  0  0  0
  196.6040  172.6770  145.3800 C   0  0  0  0  0  0  0  0  0  0  0  0
  197.2300  171.6600  143.1420 C   0  0  0  0  0  0  0  0  0  0  0  0
  197.0460  170.3460  143.3220 C   0  0  0  0  0  3  0  0  0  0  0  0
  196.7540  171.4010  146.1480 C   0  0  0  0  0  2  0  0  0  0  0  0
  1  4  2  0  0  0  0
  3  2  1  0  0  0  0
  5 13  1  0  0  0  0
  5  3  1  1  0  0  0
  5  1  1  0  0  0  0
  6  2  1  0  0  0  0
  6 22  1  1  0  0  0
  6  4  1  0  0  0  0
  7  9  1  6  0  0  0
  7  8  1  0  0  0  0
  7 13  1  0  0  0  0
  8 14  2  0  0  0  0
 11 15  1  0  0  0  0
 13 16  1  1  0  0  0
 14 11  1  0  0  0  0
 14 12  1  0  0  0  0
 15 10  2  0  0  0  0
 16 12  2  0  0  0  0
 17 15  1  0  0  0  0
 18 17  1  0  0  0  0
 18 19  1  1  0  0  0
 20 21  1  0  0  0  0
 21 18  1  0  0  0  0
 23 27  2  0  0  0  0
 24 28  2  0  0  0  0
 25 29  1  0  0  0  0
 26 31  1  0  0  0  0
 27 26  1  0  0  0  0
 28 22  1  0  0  0  0
 28 31  1  0  0  0  0
 29 30  2  0  0  0  0
 29 24  1  0  0  0  0
 30 27  1  0  0  0  0
M  END
>  <MODEL>
8

>  <REMARK>
 VINA RESULT:      -7.1      3.934      6.015
  Name = 
  6 active torsions:
  status: ('A' for Active; 'I' for Inactive)
    1  A    between atoms: C_14  and  C_27
    2  A    between atoms: C_18  and  C_20
    3  A    between atoms: C_18  and  C_28
    4  A    between atoms: C_20  and  C_31
    5  A    between atoms: C_23  and  C_24
    6  A    between atoms: C_27  and  C_30
                            x       y       z     vdW  Elec       q    Type
                         _______ _______ _______ _____ _____    ______ ____

>  <TORSDO>
F 6

$$$$
=
 OpenBabel11062420593D

 31 33  0  0  1  0  0  0  0  0999 V2000
  192.9540  173.8310  145.5450 C   0  0  0  0  0  3  0  0  0  0  0  0
  195.0060  175.8500  145.7250 C   0  0  0  0  0  2  0  0  0  0  0  0
  193.5260  176.2050  145.9830 C   0  0  0  0  0  2  0  0  0  0  0  0
  194.2230  173.5180  145.2650 C   0  0  0  0  0  3  0  0  0  0  0  0
  192.6670  175.0100  146.4370 C   0  0  1  0  0  3  0  0  0  0  0  0
  195.3250  174.3500  145.8520 C   0  0  1  0  0  3  0  0  0  0  0  0
  190.9230  176.8100  146.9310 C   0  0  1  0  0  3  0  0  0  0  0  0
  189.5580  177.2410  146.6140 N   0  0  0  0  0  0  0  0  0  0  0  0
  191.1320  176.9250  148.3640 N   0  0  0  0  0  1  0  0  0  0  0  0
  187.1240  176.1450  143.3350 O   0  0  0  0  0  0  0  0  0  0  0  0
  187.6130  177.3470  145.2920 N   0  0  0  0  0  2  0  0  0  0  0  0
  189.5420  175.8000  144.7080 C   0  0  0  0  0  3  0  0  0  0  0  0
  191.1710  175.3630  146.4540 C   0  0  1  0  0  3  0  0  0  0  0  0
  188.9160  176.8200  145.5670 C   0  0  0  0  0  0  0  0  0  0  0  0
  186.7660  176.9960  144.1910 C   0  0  0  0  0  0  0  0  0  0  0  0
  190.6010  175.1680  145.1140 N   0  0  0  0  0  0  0  0  0  0  0  0
  185.4220  177.6300  144.0740 C   0  0  0  0  0  2  0  0  0  0  0  0
  185.3020  178.8180  145.0160 C   0  0  1  0  0  3  0  0  0  0  0  0
  185.2230  180.0570  144.2590 N   0  0  0  0  0  1  0  0  0  0  0  0
  184.2830  177.7260  146.8860 F   0  0  0  0  0  0  0  0  0  0  0  0
  184.0700  178.6710  145.8960 C   0  0  0  0  0  2  0  0  0  0  0  0
  196.6450  174.0240  145.1620 C   0  0  0  0  0  2  0  0  0  0  0  0
  196.2390  168.2540  145.4280 O   0  0  0  0  0  0  0  0  0  0  0  0
  196.8100  172.2010  143.5810 C   0  0  0  0  0  3  0  0  0  0  0  0
  197.3490  170.7640  141.3020 Cl  0  0  0  0  0  0  0  0  0  0  0  0
  195.9930  170.5380  145.9730 C   0  0  0  0  0  2  0  0  0  0  0  0
  196.3350  169.4410  145.0250 C   0  0  0  0  0  0  0  0  0  0  0  0
  196.8400  172.5640  144.8660 C   0  0  0  0  0  0  0  0  0  0  0  0
  196.9480  170.8450  143.0040 C   0  0  0  0  0  0  0  0  0  0  0  0
  196.7470  169.6780  143.6310 C   0  0  0  0  0  3  0  0  0  0  0  0
  197.0880  171.5790  145.9660 C   0  0  0  0  0  2  0  0  0  0  0  0
  2  6  1  0  0  0  0
  2  3  1  0  0  0  0
  3  5  1  0  0  0  0
  4  1  2  0  0  0  0
  4  6  1  0  0  0  0
  5  1  1  6  0  0  0
  5 13  1  0  0  0  0
  6 22  1  6  0  0  0
  7  9  1  1  0  0  0
  8  7  1  0  0  0  0
 10 15  2  0  0  0  0
 11 14  1  0  0  0  0
 12 16  2  0  0  0  0
 12 14  1  0  0  0  0
 13 16  1  6  0  0  0
 13  7  1  0  0  0  0
 14  8  2  0  0  0  0
 15 11  1  0  0  0  0
 17 15  1  0  0  0  0
 17 18  1  0  0  0  0
 18 19  1  6  0  0  0
 18 21  1  0  0  0  0
 21 20  1  0  0  0  0
 24 28  2  0  0  0  0
 25 29  1  0  0  0  0
 27 23  2  0  0  0  0
 27 26  1  0  0  0  0
 28 22  1  0  0  0  0
 28 31  1  0  0  0  0
 29 24  1  0  0  0  0
 29 30  2  0  0  0  0
 30 27  1  0  0  0  0
 31 26  1  0  0  0  0
M  END
>  <MODEL>
9

>  <REMARK>
 VINA RESULT:      -6.9      4.065      5.930
  Name = 
  6 active torsions:
  status: ('A' for Active; 'I' for Inactive)
    1  A    between atoms: C_14  and  C_27
    2  A    between atoms: C_18  and  C_20
    3  A    between atoms: C_18  and  C_28
    4  A    between atoms: C_20  and  C_31
    5  A    between atoms: C_23  and  C_24
    6  A    between atoms: C_27  and  C_30
                            x       y       z     vdW  Elec       q    Type
                         _______ _______ _______ _____ _____    ______ ____

>  <TORSDO>
F 6

$$$$
