=
 OpenBabel11062419553D

 28 30  0  0  1  0  0  0  0  0999 V2000
  192.5240  175.5520  145.9670 C   0  0  0  0  0  0  0  0  0  0  0  0
  193.5850  174.8750  145.8820 O   0  0  0  0  0  0  0  0  0  0  0  0
  191.7610  175.8180  144.7730 N   0  0  0  0  0  0  0  0  0  0  0  0
  188.5760  176.6450  143.7620 C   0  0  1  0  0  3  0  0  0  0  0  0
  189.2940  177.7370  143.0010 C   0  0  0  0  0  2  0  0  0  0  0  0
  189.3800  176.4110  145.0300 C   0  0  0  0  0  2  0  0  0  0  0  0
  190.7550  177.5690  143.3570 C   0  0  0  0  0  2  0  0  0  0  0  0
  190.7840  176.9100  144.7290 C   0  0  2  0  0  3  0  0  0  0  0  0
  185.9190  179.1000  144.4270 C   0  0  0  0  0  2  0  0  0  0  0  0
  186.3000  176.7910  141.7670 O   0  0  0  0  0  0  0  0  0  0  0  0
  185.7180  178.7680  142.9550 C   0  0  1  0  0  3  0  0  0  0  0  0
  186.3700  177.4460  142.7960 C   0  0  0  0  0  0  0  0  0  0  0  0
  186.9840  178.1510  144.9770 C   0  0  0  0  0  2  0  0  0  0  0  0
  187.1000  176.9840  144.0100 C   0  0  2  0  0  3  0  0  0  0  0  0
  184.3510  178.6640  142.6870 O   0  0  0  0  0  0  0  0  0  0  0  0
  183.7250  178.9720  143.8950 C   0  0  0  0  0  1  0  0  0  0  0  0
  191.1340  175.3020  148.0420 N   0  0  0  0  0  1  0  0  0  0  0  0
  192.1060  176.0320  147.3010 C   0  0  0  0  0  0  0  0  0  0  0  0
  192.5760  177.0930  147.7880 O   0  0  0  0  0  0  0  0  0  0  0  0
  192.0470  175.0470  143.5600 C   0  0  0  0  0  2  0  0  0  0  0  0
  190.3540  173.9160  142.0920 C   0  0  0  0  0  3  0  0  0  0  0  0
  189.6890  172.1400  144.1470 C   0  0  0  0  0  3  0  0  0  0  0  0
  190.9970  174.0100  143.3310 C   0  0  0  0  0  0  0  0  0  0  0  0
  189.0500  172.0460  142.9070 C   0  0  0  0  0  3  0  0  0  0  0  0
  189.3810  172.9340  141.8800 C   0  0  0  0  0  0  0  0  0  0  0  0
  190.6610  173.1220  144.3590 C   0  0  0  0  0  3  0  0  0  0  0  0
  188.1960  172.7600  139.5810 N   0  0  0  0  0  0  0  0  0  0  0  0
  188.7250  172.8380  140.6080 C   0  0  0  0  0  0  0  0  0  0  0  0
  1 18  1  0  0  0  0
  2  1  2  0  0  0  0
  3  1  1  0  0  0  0
  4  5  1  1  0  0  0
  4 14  1  0  0  0  0
  4  6  1  0  0  0  0
  5  7  1  0  0  0  0
  7  8  1  0  0  0  0
  8  3  1  6  0  0  0
  8  6  1  0  0  0  0
  9 13  1  0  0  0  0
 10 12  2  0  0  0  0
 11 15  1  1  0  0  0
 11  9  1  0  0  0  0
 12 11  1  0  0  0  0
 12 14  1  0  0  0  0
 14 13  1  1  0  0  0
 15 16  1  0  0  0  0
 18 19  2  0  0  0  0
 18 17  1  0  0  0  0
 20  3  1  0  0  0  0
 21 23  1  0  0  0  0
 22 26  1  0  0  0  0
 23 20  1  0  0  0  0
 23 26  2  0  0  0  0
 24 22  2  0  0  0  0
 25 21  2  0  0  0  0
 25 24  1  0  0  0  0
 27 28  3  0  0  0  0
 28 25  1  0  0  0  0
M  END
>  <MODEL>
1

>  <REMARK>
 VINA RESULT:      -6.3      0.000      0.000
  Name = 
  7 active torsions:
  status: ('A' for Active; 'I' for Inactive)
    1  A    between atoms: C_1  and  C_9
    2  A    between atoms: O_3  and  C_12
    3  A    between atoms: C_8  and  C_14
    4  A    between atoms: C_13  and  C_17
    5  A    between atoms: C_14  and  N_25
    6  A    between atoms: C_22  and  N_25
    7  A    between atoms: C_26  and  C_27
                            x       y       z     vdW  Elec       q    Type
                         _______ _______ _______ _____ _____    ______ ____

>  <TORSDO>
F 7

$$$$
=
 OpenBabel11062419553D

 28 30  0  0  1  0  0  0  0  0999 V2000
  188.4260  175.7200  142.0540 C   0  0  0  0  0  0  0  0  0  0  0  0
  187.3810  176.3760  141.7880 O   0  0  0  0  0  0  0  0  0  0  0  0
  189.4700  176.3430  142.8290 N   0  0  0  0  0  0  0  0  0  0  0  0
  192.1570  175.5690  144.8370 C   0  0  1  0  0  3  0  0  0  0  0  0
  192.8940  176.5040  143.9040 C   0  0  0  0  0  2  0  0  0  0  0  0
  191.0850  174.8910  144.0000 C   0  0  0  0  0  2  0  0  0  0  0  0
  191.8630  176.9370  142.8850 C   0  0  0  0  0  2  0  0  0  0  0  0
  190.8370  175.8140  142.8170 C   0  0  2  0  0  3  0  0  0  0  0  0
  194.9230  173.1470  144.7530 C   0  0  0  0  0  2  0  0  0  0  0  0
  194.5840  176.1850  146.5420 O   0  0  0  0  0  0  0  0  0  0  0  0
  195.5760  174.3920  145.3340 C   0  0  1  0  0  3  0  0  0  0  0  0
  194.4370  175.1720  145.8760 C   0  0  0  0  0  0  0  0  0  0  0  0
  193.4220  173.4150  144.6470 C   0  0  0  0  0  2  0  0  0  0  0  0
  193.1030  174.5950  145.5510 C   0  0  2  0  0  3  0  0  0  0  0  0
  196.4400  174.0230  146.3680 O   0  0  0  0  0  0  0  0  0  0  0  0
  196.8400  172.7240  146.0520 C   0  0  0  0  0  1  0  0  0  0  0  0
  188.8250  174.0840  140.1930 N   0  0  0  0  0  1  0  0  0  0  0  0
  188.5220  174.3300  141.5620 C   0  0  0  0  0  0  0  0  0  0  0  0
  188.3160  173.3520  142.3280 O   0  0  0  0  0  0  0  0  0  0  0  0
  189.1750  177.5810  143.5530 C   0  0  0  0  0  2  0  0  0  0  0  0
  186.9950  177.9300  144.7490 C   0  0  0  0  0  3  0  0  0  0  0  0
  187.7860  176.1930  146.7940 C   0  0  0  0  0  3  0  0  0  0  0  0
  188.2530  177.3200  144.6990 C   0  0  0  0  0  0  0  0  0  0  0  0
  186.5270  176.8010  146.8390 C   0  0  0  0  0  3  0  0  0  0  0  0
  186.1320  177.6700  145.8180 C   0  0  0  0  0  0  0  0  0  0  0  0
  188.6480  176.4530  145.7250 C   0  0  0  0  0  3  0  0  0  0  0  0
  183.7990  178.7960  145.9030 N   0  0  0  0  0  0  0  0  0  0  0  0
  184.8410  178.2930  145.8650 C   0  0  0  0  0  0  0  0  0  0  0  0
  1  3  1  0  0  0  0
  2  1  2  0  0  0  0
  3 20  1  0  0  0  0
  4  5  1  6  0  0  0
  4 14  1  0  0  0  0
  6  4  1  0  0  0  0
  7  5  1  0  0  0  0
  8  3  1  1  0  0  0
  8  7  1  0  0  0  0
  8  6  1  0  0  0  0
  9 11  1  0  0  0  0
 11 12  1  0  0  0  0
 11 15  1  1  0  0  0
 12 10  2  0  0  0  0
 13  9  1  0  0  0  0
 14 13  1  6  0  0  0
 14 12  1  0  0  0  0
 16 15  1  0  0  0  0
 17 18  1  0  0  0  0
 18  1  1  0  0  0  0
 18 19  2  0  0  0  0
 20 23  1  0  0  0  0
 21 25  1  0  0  0  0
 22 24  1  0  0  0  0
 23 21  2  0  0  0  0
 23 26  1  0  0  0  0
 25 28  1  0  0  0  0
 25 24  2  0  0  0  0
 26 22  2  0  0  0  0
 28 27  3  0  0  0  0
M  END
>  <MODEL>
2

>  <REMARK>
 VINA RESULT:      -6.2      2.739      7.586
  Name = 
  7 active torsions:
  status: ('A' for Active; 'I' for Inactive)
    1  A    between atoms: C_1  and  C_9
    2  A    between atoms: O_3  and  C_12
    3  A    between atoms: C_8  and  C_14
    4  A    between atoms: C_13  and  C_17
    5  A    between atoms: C_14  and  N_25
    6  A    between atoms: C_22  and  N_25
    7  A    between atoms: C_26  and  C_27
                            x       y       z     vdW  Elec       q    Type
                         _______ _______ _______ _____ _____    ______ ____

>  <TORSDO>
F 7

$$$$
=
 OpenBabel11062419553D

 28 30  0  0  1  0  0  0  0  0999 V2000
  193.2940  175.4460  145.1150 C   0  0  0  0  0  0  0  0  0  0  0  0
  194.2050  174.6210  144.8290 O   0  0  0  0  0  0  0  0  0  0  0  0
  192.3820  175.8720  144.0830 N   0  0  0  0  0  0  0  0  0  0  0  0
  189.1710  177.0950  144.2980 C   0  0  1  0  0  3  0  0  0  0  0  0
  189.6060  177.9430  143.1240 C   0  0  0  0  0  2  0  0  0  0  0  0
  190.4070  176.8890  145.1570 C   0  0  0  0  0  2  0  0  0  0  0  0
  191.0550  177.5750  142.8900 C   0  0  0  0  0  2  0  0  0  0  0  0
  191.5950  177.1010  144.2320 C   0  0  2  0  0  3  0  0  0  0  0  0
  185.5880  177.8970  144.5180 C   0  0  0  0  0  2  0  0  0  0  0  0
  187.6520  175.9890  146.6750 O   0  0  0  0  0  0  0  0  0  0  0  0
  185.7350  176.7190  145.4710 C   0  0  1  0  0  3  0  0  0  0  0  0
  187.1750  176.7210  145.8200 C   0  0  0  0  0  0  0  0  0  0  0  0
  186.9900  178.3050  144.0640 C   0  0  0  0  0  2  0  0  0  0  0  0
  187.9820  177.7080  145.0490 C   0  0  2  0  0  3  0  0  0  0  0  0
  184.9640  176.9490  146.6130 O   0  0  0  0  0  0  0  0  0  0  0  0
  184.3150  178.1600  146.3680 C   0  0  0  0  0  1  0  0  0  0  0  0
  194.0100  177.0170  146.9360 N   0  0  0  0  0  1  0  0  0  0  0  0
  193.2000  175.9280  146.5090 C   0  0  0  0  0  0  0  0  0  0  0  0
  192.4320  175.3740  147.3380 O   0  0  0  0  0  0  0  0  0  0  0  0
  192.3240  175.1180  142.8290 C   0  0  0  0  0  2  0  0  0  0  0  0
  190.4260  173.9650  141.6600 C   0  0  0  0  0  3  0  0  0  0  0  0
  189.7460  172.6040  144.0060 C   0  0  0  0  0  3  0  0  0  0  0  0
  191.1650  174.1770  142.8280 C   0  0  0  0  0  0  0  0  0  0  0  0
  189.0110  172.3910  142.8360 C   0  0  0  0  0  3  0  0  0  0  0  0
  189.3500  173.0720  141.6630 C   0  0  0  0  0  0  0  0  0  0  0  0
  190.8220  173.4970  144.0030 C   0  0  0  0  0  3  0  0  0  0  0  0
  187.9860  172.6770  139.4940 N   0  0  0  0  0  0  0  0  0  0  0  0
  188.5950  172.8530  140.4630 C   0  0  0  0  0  0  0  0  0  0  0  0
  1 18  1  0  0  0  0
  2  1  2  0  0  0  0
  3  1  1  0  0  0  0
  4  5  1  6  0  0  0
  4 14  1  0  0  0  0
  4  6  1  0  0  0  0
  7  5  1  0  0  0  0
  7  8  1  0  0  0  0
  8  3  1  6  0  0  0
  8  6  1  0  0  0  0
  9 11  1  0  0  0  0
 11 12  1  0  0  0  0
 11 15  1  1  0  0  0
 12 10  2  0  0  0  0
 13  9  1  0  0  0  0
 14 13  1  6  0  0  0
 14 12  1  0  0  0  0
 16 15  1  0  0  0  0
 18 17  1  0  0  0  0
 18 19  2  0  0  0  0
 20  3  1  0  0  0  0
 21 25  2  0  0  0  0
 21 23  1  0  0  0  0
 23 20  1  0  0  0  0
 23 26  2  0  0  0  0
 24 22  2  0  0  0  0
 25 24  1  0  0  0  0
 26 22  1  0  0  0  0
 27 28  3  0  0  0  0
 28 25  1  0  0  0  0
M  END
>  <MODEL>
3

>  <REMARK>
 VINA RESULT:      -6.2      1.754      1.934
  Name = 
  7 active torsions:
  status: ('A' for Active; 'I' for Inactive)
    1  A    between atoms: C_1  and  C_9
    2  A    between atoms: O_3  and  C_12
    3  A    between atoms: C_8  and  C_14
    4  A    between atoms: C_13  and  C_17
    5  A    between atoms: C_14  and  N_25
    6  A    between atoms: C_22  and  N_25
    7  A    between atoms: C_26  and  C_27
                            x       y       z     vdW  Elec       q    Type
                         _______ _______ _______ _____ _____    ______ ____

>  <TORSDO>
F 7

$$$$
=
 OpenBabel11062419553D

 28 30  0  0  1  0  0  0  0  0999 V2000
  192.0610  173.5430  142.2320 C   0  0  0  0  0  0  0  0  0  0  0  0
  192.7100  172.5310  142.6150 O   0  0  0  0  0  0  0  0  0  0  0  0
  190.7710  173.8150  142.8160 N   0  0  0  0  0  0  0  0  0  0  0  0
  188.2340  176.0750  143.3700 C   0  0  1  0  0  3  0  0  0  0  0  0
  187.4470  175.1370  142.4820 C   0  0  0  0  0  2  0  0  0  0  0  0
  189.6710  176.0220  142.8770 C   0  0  0  0  0  2  0  0  0  0  0  0
  188.4290  174.0580  142.0820 C   0  0  0  0  0  2  0  0  0  0  0  0
  189.8100  174.6960  142.1460 C   0  0  2  0  0  3  0  0  0  0  0  0
  185.5580  178.4390  142.4890 C   0  0  0  0  0  2  0  0  0  0  0  0
  186.8410  177.4970  145.6540 O   0  0  0  0  0  0  0  0  0  0  0  0
  185.3070  178.1730  143.9670 C   0  0  1  0  0  3  0  0  0  0  0  0
  186.6160  177.6920  144.4690 C   0  0  0  0  0  0  0  0  0  0  0  0
  186.8760  177.7640  142.1120 C   0  0  0  0  0  2  0  0  0  0  0  0
  187.6340  177.4870  143.4010 C   0  0  2  0  0  3  0  0  0  0  0  0
  184.9600  179.3680  144.6000 O   0  0  0  0  0  0  0  0  0  0  0  0
  183.9280  179.0230  145.4730 C   0  0  0  0  0  1  0  0  0  0  0  0
  193.3760  175.5840  141.5950 N   0  0  0  0  0  1  0  0  0  0  0  0
  192.6670  174.4130  141.2030 C   0  0  0  0  0  0  0  0  0  0  0  0
  192.5470  174.1530  139.9770 O   0  0  0  0  0  0  0  0  0  0  0  0
  190.3850  173.1150  144.0440 C   0  0  0  0  0  2  0  0  0  0  0  0
  191.7590  174.7100  145.4120 C   0  0  0  0  0  3  0  0  0  0  0  0
  189.7020  174.9410  147.2930 C   0  0  0  0  0  3  0  0  0  0  0  0
  190.5690  173.9950  145.2360 C   0  0  0  0  0  0  0  0  0  0  0  0
  190.8900  175.6580  147.4640 C   0  0  0  0  0  3  0  0  0  0  0  0
  191.9190  175.5410  146.5240 C   0  0  0  0  0  0  0  0  0  0  0  0
  189.5420  174.1100  146.1800 C   0  0  0  0  0  3  0  0  0  0  0  0
  194.1230  176.8690  146.8420 N   0  0  0  0  0  0  0  0  0  0  0  0
  193.1390  176.2760  146.7000 C   0  0  0  0  0  0  0  0  0  0  0  0
  1  2  2  0  0  0  0
  1  3  1  0  0  0  0
  3 20  1  0  0  0  0
  4  5  1  6  0  0  0
  4 14  1  0  0  0  0
  6  4  1  0  0  0  0
  7  8  1  0  0  0  0
  7  5  1  0  0  0  0
  8  3  1  1  0  0  0
  8  6  1  0  0  0  0
  9 11  1  0  0  0  0
 11 12  1  0  0  0  0
 11 15  1  1  0  0  0
 12 10  2  0  0  0  0
 13  9  1  0  0  0  0
 14 13  1  6  0  0  0
 14 12  1  0  0  0  0
 15 16  1  0  0  0  0
 18 17  1  0  0  0  0
 18  1  1  0  0  0  0
 19 18  2  0  0  0  0
 20 23  1  0  0  0  0
 21 25  1  0  0  0  0
 22 24  1  0  0  0  0
 23 21  2  0  0  0  0
 23 26  1  0  0  0  0
 25 28  1  0  0  0  0
 25 24  2  0  0  0  0
 26 22  2  0  0  0  0
 28 27  3  0  0  0  0
M  END
>  <MODEL>
4

>  <REMARK>
 VINA RESULT:      -6.1      2.376      4.558
  Name = 
  7 active torsions:
  status: ('A' for Active; 'I' for Inactive)
    1  A    between atoms: C_1  and  C_9
    2  A    between atoms: O_3  and  C_12
    3  A    between atoms: C_8  and  C_14
    4  A    between atoms: C_13  and  C_17
    5  A    between atoms: C_14  and  N_25
    6  A    between atoms: C_22  and  N_25
    7  A    between atoms: C_26  and  C_27
                            x       y       z     vdW  Elec       q    Type
                         _______ _______ _______ _____ _____    ______ ____

>  <TORSDO>
F 7

$$$$
=
 OpenBabel11062419553D

 28 30  0  0  1  0  0  0  0  0999 V2000
  191.3390  175.9620  146.6730 C   0  0  0  0  0  0  0  0  0  0  0  0
  191.0620  176.4620  147.7980 O   0  0  0  0  0  0  0  0  0  0  0  0
  190.4280  175.0150  146.0790 N   0  0  0  0  0  0  0  0  0  0  0  0
  189.7060  173.9230  142.8950 C   0  0  1  0  0  3  0  0  0  0  0  0
  189.6950  172.5630  143.5570 C   0  0  0  0  0  2  0  0  0  0  0  0
  190.7340  174.7530  143.6460 C   0  0  0  0  0  2  0  0  0  0  0  0
  190.0450  172.8280  145.0050 C   0  0  0  0  0  2  0  0  0  0  0  0
  190.8690  174.1080  145.0160 C   0  0  2  0  0  3  0  0  0  0  0  0
  189.4990  172.0830  139.7180 C   0  0  0  0  0  2  0  0  0  0  0  0
  188.1770  175.2390  140.6360 O   0  0  0  0  0  0  0  0  0  0  0  0
  188.3850  173.1120  139.5910 C   0  0  1  0  0  3  0  0  0  0  0  0
  188.7700  174.1740  140.5510 C   0  0  0  0  0  0  0  0  0  0  0  0
  190.2830  172.4010  140.9910 C   0  0  0  0  0  2  0  0  0  0  0  0
  189.9560  173.8320  141.3840 C   0  0  2  0  0  3  0  0  0  0  0  0
  188.3710  173.6220  138.2910 O   0  0  0  0  0  0  0  0  0  0  0  0
  189.1560  172.7370  137.5510 C   0  0  0  0  0  1  0  0  0  0  0  0
  193.8430  175.9270  146.5000 N   0  0  0  0  0  1  0  0  0  0  0  0
  192.5890  176.3870  146.0080 C   0  0  0  0  0  0  0  0  0  0  0  0
  192.5690  177.1730  145.0250 O   0  0  0  0  0  0  0  0  0  0  0  0
  189.0740  174.8930  146.6260 C   0  0  0  0  0  2  0  0  0  0  0  0
  188.1710  176.4570  144.8820 C   0  0  0  0  0  3  0  0  0  0  0  0
  186.6940  177.8350  146.8150 C   0  0  0  0  0  3  0  0  0  0  0  0
  188.2330  176.0580  146.2220 C   0  0  0  0  0  0  0  0  0  0  0  0
  186.6320  178.2290  145.4750 C   0  0  0  0  0  3  0  0  0  0  0  0
  187.3710  177.5410  144.5090 C   0  0  0  0  0  0  0  0  0  0  0  0
  187.4950  176.7510  147.1880 C   0  0  0  0  0  3  0  0  0  0  0  0
  187.2550  178.2710  142.0240 N   0  0  0  0  0  0  0  0  0  0  0  0
  187.3070  177.9450  143.1330 C   0  0  0  0  0  0  0  0  0  0  0  0
  1  2  2  0  0  0  0
  3 20  1  0  0  0  0
  3  1  1  0  0  0  0
  4  5  1  1  0  0  0
  4  6  1  0  0  0  0
  5  7  1  0  0  0  0
  6  8  1  0  0  0  0
  7  8  1  0  0  0  0
  8  3  1  1  0  0  0
  9 13  1  0  0  0  0
 11 15  1  6  0  0  0
 11  9  1  0  0  0  0
 11 12  1  0  0  0  0
 12 10  2  0  0  0  0
 12 14  1  0  0  0  0
 14 13  1  1  0  0  0
 14  4  1  0  0  0  0
 16 15  1  0  0  0  0
 18 17  1  0  0  0  0
 18  1  1  0  0  0  0
 19 18  2  0  0  0  0
 21 23  1  0  0  0  0
 22 26  1  0  0  0  0
 23 20  1  0  0  0  0
 23 26  2  0  0  0  0
 24 22  2  0  0  0  0
 25 21  2  0  0  0  0
 25 24  1  0  0  0  0
 27 28  3  0  0  0  0
 28 25  1  0  0  0  0
M  END
>  <MODEL>
5

>  <REMARK>
 VINA RESULT:      -6.0      2.257      5.427
  Name = 
  7 active torsions:
  status: ('A' for Active; 'I' for Inactive)
    1  A    between atoms: C_1  and  C_9
    2  A    between atoms: O_3  and  C_12
    3  A    between atoms: C_8  and  C_14
    4  A    between atoms: C_13  and  C_17
    5  A    between atoms: C_14  and  N_25
    6  A    between atoms: C_22  and  N_25
    7  A    between atoms: C_26  and  C_27
                            x       y       z     vdW  Elec       q    Type
                         _______ _______ _______ _____ _____    ______ ____

>  <TORSDO>
F 7

$$$$
=
 OpenBabel11062419553D

 28 30  0  0  1  0  0  0  0  0999 V2000
  192.1200  172.9370  142.9040 C   0  0  0  0  0  0  0  0  0  0  0  0
  193.1290  172.1800  142.9290 O   0  0  0  0  0  0  0  0  0  0  0  0
  191.6310  173.4990  144.1390 N   0  0  0  0  0  0  0  0  0  0  0  0
  189.7660  176.1670  145.2570 C   0  0  1  0  0  3  0  0  0  0  0  0
  189.0290  175.0970  146.0320 C   0  0  0  0  0  2  0  0  0  0  0  0
  190.2230  175.5170  143.9620 C   0  0  0  0  0  2  0  0  0  0  0  0
  189.6920  173.7970  145.6330 C   0  0  0  0  0  2  0  0  0  0  0  0
  190.2650  174.0220  144.2410 C   0  0  2  0  0  3  0  0  0  0  0  0
  186.7540  177.8320  143.9610 C   0  0  0  0  0  2  0  0  0  0  0  0
  188.0180  177.6160  147.2630 O   0  0  0  0  0  0  0  0  0  0  0  0
  186.4780  177.7390  145.4550 C   0  0  1  0  0  3  0  0  0  0  0  0
  187.8240  177.5910  146.0570 C   0  0  0  0  0  0  0  0  0  0  0  0
  188.1910  177.3700  143.7240 C   0  0  0  0  0  2  0  0  0  0  0  0
  188.9170  177.4300  145.0580 C   0  0  2  0  0  3  0  0  0  0  0  0
  185.8850  178.9260  145.8910 O   0  0  0  0  0  0  0  0  0  0  0  0
  184.5520  178.5910  146.1360 C   0  0  0  0  0  1  0  0  0  0  0  0
  190.5160  172.3270  141.0730 N   0  0  0  0  0  1  0  0  0  0  0  0
  191.4910  173.2210  141.5970 C   0  0  0  0  0  0  0  0  0  0  0  0
  191.8220  174.2310  140.9220 O   0  0  0  0  0  0  0  0  0  0  0  0
  192.4820  173.4460  145.3300 C   0  0  0  0  0  2  0  0  0  0  0  0
  194.2910  175.0230  144.5930 C   0  0  0  0  0  3  0  0  0  0  0  0
  193.6580  176.7910  146.6660 C   0  0  0  0  0  3  0  0  0  0  0  0
  193.2570  174.7120  145.4850 C   0  0  0  0  0  0  0  0  0  0  0  0
  194.6870  177.1010  145.7720 C   0  0  0  0  0  3  0  0  0  0  0  0
  195.0040  176.2160  144.7360 C   0  0  0  0  0  0  0  0  0  0  0  0
  192.9440  175.5970  146.5230 C   0  0  0  0  0  3  0  0  0  0  0  0
  196.9130  176.7910  143.0790 N   0  0  0  0  0  0  0  0  0  0  0  0
  196.0610  176.5340  143.8190 C   0  0  0  0  0  0  0  0  0  0  0  0
  1  2  2  0  0  0  0
  1  3  1  0  0  0  0
  3 20  1  0  0  0  0
  4  6  1  6  0  0  0
  4  5  1  0  0  0  0
  6  8  1  0  0  0  0
  7  5  1  0  0  0  0
  8  3  1  1  0  0  0
  8  7  1  0  0  0  0
  9 11  1  0  0  0  0
 11 15  1  1  0  0  0
 11 12  1  0  0  0  0
 12 10  2  0  0  0  0
 13  9  1  0  0  0  0
 14 13  1  6  0  0  0
 14  4  1  0  0  0  0
 14 12  1  0  0  0  0
 15 16  1  0  0  0  0
 17 18  1  0  0  0  0
 18  1  1  0  0  0  0
 19 18  2  0  0  0  0
 20 23  1  0  0  0  0
 21 25  2  0  0  0  0
 21 23  1  0  0  0  0
 23 26  2  0  0  0  0
 24 22  2  0  0  0  0
 25 24  1  0  0  0  0
 26 22  1  0  0  0  0
 27 28  3  0  0  0  0
 28 25  1  0  0  0  0
M  END
>  <MODEL>
6

>  <REMARK>
 VINA RESULT:      -6.0      2.643      5.092
  Name = 
  7 active torsions:
  status: ('A' for Active; 'I' for Inactive)
    1  A    between atoms: C_1  and  C_9
    2  A    between atoms: O_3  and  C_12
    3  A    between atoms: C_8  and  C_14
    4  A    between atoms: C_13  and  C_17
    5  A    between atoms: C_14  and  N_25
    6  A    between atoms: C_22  and  N_25
    7  A    between atoms: C_26  and  C_27
                            x       y       z     vdW  Elec       q    Type
                         _______ _______ _______ _____ _____    ______ ____

>  <TORSDO>
F 7

$$$$
=
 OpenBabel11062419553D

 28 30  0  0  1  0  0  0  0  0999 V2000
  193.5560  176.1520  144.5810 C   0  0  0  0  0  0  0  0  0  0  0  0
  194.5270  175.7640  143.8750 O   0  0  0  0  0  0  0  0  0  0  0  0
  192.2680  176.3430  143.9620 N   0  0  0  0  0  0  0  0  0  0  0  0
  188.9170  176.4730  144.7410 C   0  0  1  0  0  3  0  0  0  0  0  0
  188.9730  177.7760  143.9760 C   0  0  0  0  0  2  0  0  0  0  0  0
  190.2720  176.3140  145.4110 C   0  0  0  0  0  2  0  0  0  0  0  0
  190.4220  177.9310  143.5690 C   0  0  0  0  0  2  0  0  0  0  0  0
  191.2370  177.1660  144.6020 C   0  0  2  0  0  3  0  0  0  0  0  0
  186.6860  178.0980  147.1700 C   0  0  0  0  0  2  0  0  0  0  0  0
  185.9540  176.4670  144.1130 O   0  0  0  0  0  0  0  0  0  0  0  0
  185.8220  178.0070  145.9210 C   0  0  1  0  0  3  0  0  0  0  0  0
  186.4510  176.9190  145.1330 C   0  0  0  0  0  0  0  0  0  0  0  0
  187.9790  177.3300  146.9000 C   0  0  0  0  0  2  0  0  0  0  0  0
  187.7290  176.4180  145.7100 C   0  0  2  0  0  3  0  0  0  0  0  0
  184.5220  177.6480  146.2810 O   0  0  0  0  0  0  0  0  0  0  0  0
  183.7150  178.6670  145.7710 C   0  0  0  0  0  1  0  0  0  0  0  0
  194.5660  177.4940  146.4450 N   0  0  0  0  0  1  0  0  0  0  0  0
  193.7870  176.3810  146.0230 C   0  0  0  0  0  0  0  0  0  0  0  0
  193.3280  175.5910  146.8890 O   0  0  0  0  0  0  0  0  0  0  0  0
  192.0320  175.7900  142.6260 C   0  0  0  0  0  2  0  0  0  0  0  0
  192.0510  173.3510  143.2210 C   0  0  0  0  0  3  0  0  0  0  0  0
  189.3960  173.0790  142.3850 C   0  0  0  0  0  3  0  0  0  0  0  0
  191.3620  174.4590  142.7140 C   0  0  0  0  0  0  0  0  0  0  0  0
  190.0860  171.9750  142.8950 C   0  0  0  0  0  3  0  0  0  0  0  0
  191.4130  172.1110  143.3120 C   0  0  0  0  0  0  0  0  0  0  0  0
  190.0340  174.3190  142.2930 C   0  0  0  0  0  3  0  0  0  0  0  0
  192.6920  170.0630  144.2590 N   0  0  0  0  0  0  0  0  0  0  0  0
  192.1210  170.9770  143.8360 C   0  0  0  0  0  0  0  0  0  0  0  0
  1 18  1  0  0  0  0
  2  1  2  0  0  0  0
  3  1  1  0  0  0  0
  4  5  1  1  0  0  0
  4  6  1  0  0  0  0
  4 14  1  0  0  0  0
  7  5  1  0  0  0  0
  7  8  1  0  0  0  0
  8  3  1  6  0  0  0
  8  6  1  0  0  0  0
 10 12  2  0  0  0  0
 11 15  1  1  0  0  0
 11  9  1  0  0  0  0
 12 14  1  0  0  0  0
 12 11  1  0  0  0  0
 13  9  1  0  0  0  0
 14 13  1  1  0  0  0
 16 15  1  0  0  0  0
 18 17  1  0  0  0  0
 18 19  2  0  0  0  0
 20 23  1  0  0  0  0
 20  3  1  0  0  0  0
 21 25  1  0  0  0  0
 22 24  1  0  0  0  0
 23 21  2  0  0  0  0
 24 25  2  0  0  0  0
 25 28  1  0  0  0  0
 26 22  2  0  0  0  0
 26 23  1  0  0  0  0
 28 27  3  0  0  0  0
M  END
>  <MODEL>
7

>  <REMARK>
 VINA RESULT:      -6.0      2.204      2.655
  Name = 
  7 active torsions:
  status: ('A' for Active; 'I' for Inactive)
    1  A    between atoms: C_1  and  C_9
    2  A    between atoms: O_3  and  C_12
    3  A    between atoms: C_8  and  C_14
    4  A    between atoms: C_13  and  C_17
    5  A    between atoms: C_14  and  N_25
    6  A    between atoms: C_22  and  N_25
    7  A    between atoms: C_26  and  C_27
                            x       y       z     vdW  Elec       q    Type
                         _______ _______ _______ _____ _____    ______ ____

>  <TORSDO>
F 7

$$$$
=
 OpenBabel11062419553D

 28 30  0  0  1  0  0  0  0  0999 V2000
  186.2990  177.2700  144.4460 C   0  0  0  0  0  0  0  0  0  0  0  0
  185.4660  176.9690  143.5480 O   0  0  0  0  0  0  0  0  0  0  0  0
  187.7080  177.2330  144.1410 N   0  0  0  0  0  0  0  0  0  0  0  0
  191.0010  176.4770  144.7990 C   0  0  1  0  0  3  0  0  0  0  0  0
  190.3940  175.5120  145.7940 C   0  0  0  0  0  2  0  0  0  0  0  0
  190.0620  177.6700  144.7360 C   0  0  0  0  0  2  0  0  0  0  0  0
  188.9000  175.7270  145.6880 C   0  0  0  0  0  2  0  0  0  0  0  0
  188.7100  177.1590  145.2080 C   0  0  2  0  0  3  0  0  0  0  0  0
  194.1680  175.7210  146.5100 C   0  0  0  0  0  2  0  0  0  0  0  0
  193.4830  176.2580  143.0770 O   0  0  0  0  0  0  0  0  0  0  0  0
  194.4780  175.3940  145.0570 C   0  0  1  0  0  3  0  0  0  0  0  0
  193.4690  176.1670  144.2950 C   0  0  0  0  0  0  0  0  0  0  0  0
  192.7830  176.3670  146.5570 C   0  0  0  0  0  2  0  0  0  0  0  0
  192.4510  176.8380  145.1500 C   0  0  2  0  0  3  0  0  0  0  0  0
  195.7630  175.8420  144.7440 O   0  0  0  0  0  0  0  0  0  0  0  0
  196.5270  174.6810  144.6240 C   0  0  0  0  0  1  0  0  0  0  0  0
  185.7120  179.0350  146.1310 N   0  0  0  0  0  1  0  0  0  0  0  0
  185.7840  177.6590  145.7760 C   0  0  0  0  0  0  0  0  0  0  0  0
  185.4290  176.7910  146.6160 O   0  0  0  0  0  0  0  0  0  0  0  0
  188.1300  177.1650  142.7400 C   0  0  0  0  0  2  0  0  0  0  0  0
  189.7970  175.4340  142.0130 C   0  0  0  0  0  3  0  0  0  0  0  0
  187.8160  173.4590  142.0140 C   0  0  0  0  0  3  0  0  0  0  0  0
  188.4820  175.7640  142.3600 C   0  0  0  0  0  0  0  0  0  0  0  0
  189.1320  173.1310  141.6730 C   0  0  0  0  0  3  0  0  0  0  0  0
  190.1220  174.1180  141.6710 C   0  0  0  0  0  0  0  0  0  0  0  0
  187.4920  174.7750  142.3570 C   0  0  0  0  0  3  0  0  0  0  0  0
  192.5600  173.5090  141.0370 N   0  0  0  0  0  0  0  0  0  0  0  0
  191.4710  173.7810  141.3200 C   0  0  0  0  0  0  0  0  0  0  0  0
  1 18  1  0  0  0  0
  2  1  2  0  0  0  0
  3  1  1  0  0  0  0
  4  6  1  1  0  0  0
  4 14  1  0  0  0  0
  4  5  1  0  0  0  0
  6  8  1  0  0  0  0
  7  5  1  0  0  0  0
  8  3  1  6  0  0  0
  8  7  1  0  0  0  0
  9 13  1  0  0  0  0
 10 12  2  0  0  0  0
 11 15  1  6  0  0  0
 11  9  1  0  0  0  0
 12 11  1  0  0  0  0
 12 14  1  0  0  0  0
 14 13  1  1  0  0  0
 16 15  1  0  0  0  0
 18 17  1  0  0  0  0
 18 19  2  0  0  0  0
 20  3  1  0  0  0  0
 21 23  1  0  0  0  0
 22 26  1  0  0  0  0
 23 20  1  0  0  0  0
 24 22  2  0  0  0  0
 25 24  1  0  0  0  0
 25 21  2  0  0  0  0
 26 23  2  0  0  0  0
 27 28  3  0  0  0  0
 28 25  1  0  0  0  0
M  END
>  <MODEL>
8

>  <REMARK>
 VINA RESULT:      -5.8      2.589      6.260
  Name = 
  7 active torsions:
  status: ('A' for Active; 'I' for Inactive)
    1  A    between atoms: C_1  and  C_9
    2  A    between atoms: O_3  and  C_12
    3  A    between atoms: C_8  and  C_14
    4  A    between atoms: C_13  and  C_17
    5  A    between atoms: C_14  and  N_25
    6  A    between atoms: C_22  and  N_25
    7  A    between atoms: C_26  and  C_27
                            x       y       z     vdW  Elec       q    Type
                         _______ _______ _______ _____ _____    ______ ____

>  <TORSDO>
F 7

$$$$
=
 OpenBabel11062419553D

 28 30  0  0  1  0  0  0  0  0999 V2000
  191.3920  173.5720  141.7150 C   0  0  0  0  0  0  0  0  0  0  0  0
  192.5890  173.4410  141.3380 O   0  0  0  0  0  0  0  0  0  0  0  0
  191.0270  174.7150  142.5150 N   0  0  0  0  0  0  0  0  0  0  0  0
  189.2220  176.5290  144.8180 C   0  0  1  0  0  3  0  0  0  0  0  0
  189.3270  175.2590  145.6330 C   0  0  0  0  0  2  0  0  0  0  0  0
  189.1670  176.0970  143.3620 C   0  0  0  0  0  2  0  0  0  0  0  0
  190.0760  174.2860  144.7500 C   0  0  0  0  0  2  0  0  0  0  0  0
  189.7990  174.7140  143.3160 C   0  0  2  0  0  3  0  0  0  0  0  0
  185.7400  176.8850  145.9440 C   0  0  0  0  0  2  0  0  0  0  0  0
  188.7650  177.9090  147.4750 O   0  0  0  0  0  0  0  0  0  0  0  0
  186.5370  177.1170  147.2200 C   0  0  1  0  0  3  0  0  0  0  0  0
  187.8800  177.5140  146.7320 C   0  0  0  0  0  0  0  0  0  0  0  0
  186.7310  176.7960  144.7840 C   0  0  0  0  0  2  0  0  0  0  0  0
  188.0420  177.4060  145.2560 C   0  0  2  0  0  3  0  0  0  0  0  0
  185.9600  178.1630  147.9430 O   0  0  0  0  0  0  0  0  0  0  0  0
  184.7720  178.4500  147.2700 C   0  0  0  0  0  1  0  0  0  0  0  0
  189.5710  172.7800  140.1800 N   0  0  0  0  0  1  0  0  0  0  0  0
  190.4130  172.5440  141.3030 C   0  0  0  0  0  0  0  0  0  0  0  0
  190.2900  171.4680  141.9450 O   0  0  0  0  0  0  0  0  0  0  0  0
  191.9550  175.8450  142.6050 C   0  0  0  0  0  2  0  0  0  0  0  0
  193.6180  174.6480  144.0550 C   0  0  0  0  0  3  0  0  0  0  0  0
  193.5210  176.7060  145.9460 C   0  0  0  0  0  3  0  0  0  0  0  0
  192.7850  175.7520  143.8420 C   0  0  0  0  0  0  0  0  0  0  0  0
  194.3560  175.6030  146.1540 C   0  0  0  0  0  3  0  0  0  0  0  0
  194.4030  174.5740  145.2090 C   0  0  0  0  0  0  0  0  0  0  0  0
  192.7360  176.7800  144.7910 C   0  0  0  0  0  3  0  0  0  0  0  0
  195.9500  172.5300  145.5950 N   0  0  0  0  0  0  0  0  0  0  0  0
  195.2590  173.4420  145.4230 C   0  0  0  0  0  0  0  0  0  0  0  0
  1  3  1  0  0  0  0
  2  1  2  0  0  0  0
  3 20  1  0  0  0  0
  4  6  1  6  0  0  0
  4 14  1  0  0  0  0
  4  5  1  0  0  0  0
  7  5  1  0  0  0  0
  8  3  1  6  0  0  0
  8  6  1  0  0  0  0
  8  7  1  0  0  0  0
  9 11  1  0  0  0  0
 11 15  1  1  0  0  0
 12 11  1  0  0  0  0
 12 10  2  0  0  0  0
 13  9  1  0  0  0  0
 14 13  1  6  0  0  0
 14 12  1  0  0  0  0
 16 15  1  0  0  0  0
 17 18  1  0  0  0  0
 18  1  1  0  0  0  0
 18 19  2  0  0  0  0
 20 23  1  0  0  0  0
 21 25  1  0  0  0  0
 22 24  1  0  0  0  0
 23 21  2  0  0  0  0
 23 26  1  0  0  0  0
 25 28  1  0  0  0  0
 25 24  2  0  0  0  0
 26 22  2  0  0  0  0
 28 27  3  0  0  0  0
M  END
>  <MODEL>
9

>  <REMARK>
 VINA RESULT:      -5.7      2.816      5.182
  Name = 
  7 active torsions:
  status: ('A' for Active; 'I' for Inactive)
    1  A    between atoms: C_1  and  C_9
    2  A    between atoms: O_3  and  C_12
    3  A    between atoms: C_8  and  C_14
    4  A    between atoms: C_13  and  C_17
    5  A    between atoms: C_14  and  N_25
    6  A    between atoms: C_22  and  N_25
    7  A    between atoms: C_26  and  C_27
                            x       y       z     vdW  Elec       q    Type
                         _______ _______ _______ _____ _____    ______ ____

>  <TORSDO>
F 7

$$$$
