=
 OpenBabel11062421173D

 56 61  0  0  1  0  0  0  0  0999 V2000
  185.1980  177.6860  142.9720 C   0  0  0  0  0  2  0  0  0  0  0  0
  187.5910  177.2460  142.1540 C   0  0  0  0  0  2  0  0  0  0  0  0
  189.2130  176.3300  143.9180 C   0  0  0  0  0  0  0  0  0  0  0  0
  185.8000  178.9660  143.3280 N   0  0  0  0  0  2  0  0  0  0  0  0
  188.1020  177.1240  143.5580 C   0  0  0  0  0  0  0  0  0  0  0  0
  188.5400  177.5650  145.9890 S   0  0  0  0  0  0  0  0  0  0  0  0
  186.1070  176.8910  142.0310 C   0  0  0  0  0  2  0  0  0  0  0  0
  186.4270  178.8180  144.6380 C   0  0  0  0  0  2  0  0  0  0  0  0
  187.6160  177.8920  144.6240 C   0  0  0  0  0  0  0  0  0  0  0  0
  189.5840  176.4750  145.2470 C   0  0  0  0  0  0  0  0  0  0  0  0
  190.7200  175.7580  145.9080 C   0  0  1  0  0  3  0  0  0  0  0  0
  191.7310  176.7550  146.4520 C   0  0  1  0  0  3  0  0  0  0  0  0
  192.3510  176.2690  147.5850 C   0  0  0  0  0  2  0  0  0  0  0  0
  193.1010  176.1840  146.2980 N   0  0  0  0  0  0  0  0  0  0  0  0
  196.3300  174.6340  145.2910 C   0  0  0  0  0  0  0  0  0  0  0  0
  194.3390  176.2660  144.1950 C   0  0  0  0  0  3  0  0  0  0  0  0
  195.2200  175.0010  146.0520 C   0  0  0  0  0  3  0  0  0  0  0  0
  197.3050  173.8450  145.8870 O   0  0  0  0  0  1  0  0  0  0  0  0
  196.4460  175.0730  143.9510 C   0  0  0  0  0  0  0  0  0  0  0  0
  194.2250  175.8120  145.5080 C   0  0  0  0  0  0  0  0  0  0  0  0
  195.4450  175.9000  143.4100 C   0  0  0  0  0  0  0  0  0  0  0  0
  195.5670  176.3440  142.0870 O   0  0  0  0  0  0  0  0  0  0  0  0
  194.8820  175.7300  141.0030 C   0  0  0  0  0  1  0  0  0  0  0  0
  197.5610  174.7210  143.1140 N   0  0  0  0  0  2  0  0  0  0  0  0
  197.7200  173.4770  142.3750 C   0  0  0  0  0  3  0  0  0  0  0  0
  197.9410  173.7900  140.9090 C   0  0  0  0  0  1  0  0  0  0  0  0
  196.4660  172.6350  142.5180 C   0  0  0  0  0  1  0  0  0  0  0  0
  189.3760  174.0470  146.3310 C   0  0  0  0  0  1  0  0  0  0  0  0
  190.2410  174.9520  146.9450 O   0  0  0  0  0  0  0  0  0  0  0  0
  189.9140  175.4740  143.0600 O   0  0  0  0  0  0  0  0  0  0  0  0
  189.4950  174.1470  142.7710 C   0  0  0  0  0  2  0  0  0  0  0  0
  191.8430  173.7070  143.4450 O   0  0  0  0  0  0  0  0  0  0  0  0
  192.8540  172.2850  140.2130 C   0  0  0  0  0  2  0  0  0  0  0  0
  191.1220  172.2010  138.2760 C   0  0  2  0  0  0  0  0  0  0  0  0
  192.7810  171.5020  143.7420 C   0  0  1  0  0  3  0  0  0  0  0  0
  189.7640  173.7180  139.9350 C   0  0  0  0  0  2  0  0  0  0  0  0
  191.9640  172.6420  144.3560 C   0  0  0  0  0  2  0  0  0  0  0  0
  191.6410  173.5450  137.7560 C   0  0  0  0  0  1  0  0  0  0  0  0
  192.2490  171.9730  141.5850 C   0  0  1  0  0  3  0  0  0  0  0  0
  191.8580  170.2000  139.4850 O   0  0  0  0  0  1  0  0  0  0  0  0
  193.3120  171.9080  142.5090 O   0  0  0  0  0  0  0  0  0  0  0  0
  189.8110  171.7010  142.3210 C   0  0  0  0  0  1  0  0  0  0  0  0
  189.8780  172.3950  139.1650 C   0  0  0  0  0  2  0  0  0  0  0  0
  192.2420  171.4780  139.0640 C   0  0  2  0  0  3  0  0  0  0  0  0
  190.8970  173.1520  142.1360 P   0  0  0  0  0  0  0  0  0  0  0  0
  190.9230  174.0330  140.6690 O   0  0  0  0  0  0  0  0  0  0  0  0
  194.7580  170.8340  145.4050 C   0  0  0  0  0  0  0  0  0  0  0  0
  193.8670  171.1360  144.6510 C   0  0  0  0  0  0  0  0  0  0  0  0
  195.8350  170.4650  146.3220 C   0  0  0  0  0  3  0  0  0  0  0  0
  197.1540  170.4570  145.5760 C   0  0  0  0  0  1  0  0  0  0  0  0
  195.5670  169.0860  146.8850 C   0  0  0  0  0  1  0  0  0  0  0  0
  190.1600  170.1270  137.4020 O   0  0  0  0  0  1  0  0  0  0  0  0
  190.6890  171.3700  137.0420 C   0  0  2  0  0  3  0  0  0  0  0  0
  192.8330  170.6010  136.3180 O   0  0  0  0  0  1  0  0  0  0  0  0
  191.7650  171.1900  136.0100 C   0  0  0  0  0  0  0  0  0  0  0  0
  191.5880  171.6620  134.7160 O   0  0  0  0  0  0  0  0  0  0  0  0
  1  4  1  0  0  0  0
  2  5  1  0  0  0  0
  3 10  2  0  0  0  0
  4  8  1  0  0  0  0
  5  3  1  0  0  0  0
  5  9  2  0  0  0  0
  7  2  1  0  0  0  0
  7  1  1  0  0  0  0
  9  8  1  0  0  0  0
  9  6  1  0  0  0  0
 10 11  1  0  0  0  0
 10  6  1  0  0  0  0
 11 29  1  1  0  0  0
 12 11  1  6  0  0  0
 12 13  1  0  0  0  0
 14 12  1  0  0  0  0
 14 13  1  0  0  0  0
 15 18  1  0  0  0  0
 15 17  1  0  0  0  0
 16 20  1  0  0  0  0
 19 15  2  0  0  0  0
 20 17  2  0  0  0  0
 20 14  1  0  0  0  0
 21 19  1  0  0  0  0
 21 16  2  0  0  0  0
 22 21  1  0  0  0  0
 23 22  1  0  0  0  0
 24 19  1  0  0  0  0
 25 27  1  0  0  0  0
 25 24  1  0  0  0  0
 26 25  1  0  0  0  0
 28 29  1  0  0  0  0
 30  3  1  0  0  0  0
 31 30  1  0  0  0  0
 32 37  1  0  0  0  0
 34 38  1  6  0  0  0
 34 44  1  0  0  0  0
 34 43  1  0  0  0  0
 35 37  1  0  0  0  0
 35 48  1  1  0  0  0
 36 46  1  0  0  0  0
 39 33  1  6  0  0  0
 39 45  1  0  0  0  0
 39 41  1  0  0  0  0
 41 35  1  0  0  0  0
 43 36  1  0  0  0  0
 44 40  1  1  0  0  0
 44 33  1  0  0  0  0
 45 42  1  0  0  0  0
 45 31  1  0  0  0  0
 45 32  1  0  0  0  0
 46 45  1  0  0  0  0
 47 49  1  0  0  0  0
 48 47  3  0  0  0  0
 49 51  1  0  0  0  0
 50 49  1  0  0  0  0
 53 52  1  1  0  0  0
 53 34  1  0  0  0  0
 55 54  1  0  0  0  0
 55 53  1  0  0  0  0
 56 55  2  0  0  0  0
M  END
>  <MODEL>
1

>  <REMARK>
 VINA RESULT:      -7.0      0.000      0.000
  Name = 
  14 active torsions:
  status: ('A' for Active; 'I' for Inactive)
    1  A    between atoms: C_1  and  C_18
    2  A    between atoms: C_2  and  O_33
    3  A    between atoms: C_2  and  P_47
    4  A    between atoms: C_5  and  O_33
    5  A    between atoms: C_6  and  N_7
    6  A    between atoms: N_7  and  C_37
    7  A    between atoms: C_12  and  C_23
    8  A    between atoms: C_13  and  C_20
    9  A    between atoms: C_15  and  C_54
   10  A    between atoms: C_18  and  C_51
   11  A    between atoms: C_18  and  O_52
   12  A    between atoms: C_23  and  C_43
   13  A    between atoms: N_34  and  C_40
   14  A    between atoms: O_35  and  C_41
                            x       y       z     vdW  Elec       q    Type
                         _______ _______ _______ _____ _____    ______ ____

>  <TORSDO>
F 14

$$$$
=
 OpenBabel11062421173D

 56 61  0  0  1  0  0  0  0  0999 V2000
  192.8420  176.4100  146.8830 C   0  0  0  0  0  2  0  0  0  0  0  0
  192.0910  175.3520  144.6690 C   0  0  0  0  0  2  0  0  0  0  0  0
  192.9650  172.9810  144.2220 C   0  0  0  0  0  0  0  0  0  0  0  0
  193.9720  176.8010  146.0480 N   0  0  0  0  0  2  0  0  0  0  0  0
  193.1230  174.2690  144.7780 C   0  0  0  0  0  0  0  0  0  0  0  0
  195.2970  173.0670  145.1270 S   0  0  0  0  0  0  0  0  0  0  0  0
  191.6730  175.9100  146.0310 C   0  0  0  0  0  2  0  0  0  0  0  0
  194.9230  175.6940  146.0320 C   0  0  0  0  0  2  0  0  0  0  0  0
  194.3980  174.4740  145.3190 C   0  0  0  0  0  0  0  0  0  0  0  0
  194.1000  172.1920  144.3330 C   0  0  0  0  0  0  0  0  0  0  0  0
  194.2230  170.7840  143.8380 C   0  0  1  0  0  3  0  0  0  0  0  0
  195.5800  170.5690  143.1860 C   0  0  1  0  0  3  0  0  0  0  0  0
  195.5160  169.5950  142.2110 C   0  0  0  0  0  2  0  0  0  0  0  0
  195.5070  171.0190  141.7650 N   0  0  0  0  0  0  0  0  0  0  0  0
  195.5420  172.6930  138.4420 C   0  0  0  0  0  0  0  0  0  0  0  0
  195.2210  173.3620  141.1400 C   0  0  0  0  0  3  0  0  0  0  0  0
  195.6010  171.7060  139.4260 C   0  0  0  0  0  3  0  0  0  0  0  0
  195.7340  172.3170  137.1200 O   0  0  0  0  0  1  0  0  0  0  0  0
  195.3010  174.0400  138.8050 C   0  0  0  0  0  0  0  0  0  0  0  0
  195.4390  172.0360  140.7710 C   0  0  0  0  0  0  0  0  0  0  0  0
  195.1500  174.3690  140.1640 C   0  0  0  0  0  0  0  0  0  0  0  0
  194.9240  175.7040  140.5220 O   0  0  0  0  0  0  0  0  0  0  0  0
  195.8840  176.4880  141.2180 C   0  0  0  0  0  1  0  0  0  0  0  0
  195.2210  175.1000  137.8360 N   0  0  0  0  0  2  0  0  0  0  0  0
  194.0000  175.6410  137.2560 C   0  0  0  0  0  3  0  0  0  0  0  0
  192.9290  174.5690  137.2560 C   0  0  0  0  0  1  0  0  0  0  0  0
  194.2640  176.0770  135.8270 C   0  0  0  0  0  1  0  0  0  0  0  0
  193.0000  169.0630  144.5110 C   0  0  0  0  0  1  0  0  0  0  0  0
  194.0560  169.8870  144.8970 O   0  0  0  0  0  0  0  0  0  0  0  0
  191.8060  172.5000  143.6010 O   0  0  0  0  0  0  0  0  0  0  0  0
  191.8060  171.8880  142.3180 C   0  0  0  0  0  2  0  0  0  0  0  0
  189.4940  172.6930  142.7310 O   0  0  0  0  0  0  0  0  0  0  0  0
  188.4260  172.4420  139.2250 C   0  0  0  0  0  2  0  0  0  0  0  0
  190.0990  171.5210  137.4610 C   0  0  2  0  0  0  0  0  0  0  0  0
  188.6330  174.8090  141.9510 C   0  0  1  0  0  3  0  0  0  0  0  0
  191.4620  170.9250  139.6250 C   0  0  0  0  0  2  0  0  0  0  0  0
  189.4330  174.0670  143.0240 C   0  0  0  0  0  2  0  0  0  0  0  0
  189.5250  170.1150  137.6520 C   0  0  0  0  0  1  0  0  0  0  0  0
  189.0830  173.3450  140.2740 C   0  0  1  0  0  3  0  0  0  0  0  0
  189.4610  173.8850  137.5770 O   0  0  0  0  0  1  0  0  0  0  0  0
  188.0510  173.8870  141.0680 O   0  0  0  0  0  0  0  0  0  0  0  0
  191.5490  173.8350  140.7590 C   0  0  0  0  0  1  0  0  0  0  0  0
  191.3640  171.7230  138.3190 C   0  0  0  0  0  2  0  0  0  0  0  0
  189.0270  172.5770  137.8220 C   0  0  2  0  0  3  0  0  0  0  0  0
  190.4150  172.5170  141.3030 P   0  0  0  0  0  0  0  0  0  0  0  0
  190.3170  171.0460  140.4360 O   0  0  0  0  0  0  0  0  0  0  0  0
  186.7290  176.2700  143.1170 C   0  0  0  0  0  0  0  0  0  0  0  0
  187.5870  175.6080  142.5890 C   0  0  0  0  0  0  0  0  0  0  0  0
  185.6920  177.0760  143.7600 C   0  0  0  0  0  3  0  0  0  0  0  0
  184.8180  177.7140  142.7010 C   0  0  0  0  0  1  0  0  0  0  0  0
  186.3410  178.1580  144.5970 C   0  0  0  0  0  1  0  0  0  0  0  0
  189.4360  171.4710  135.1060 O   0  0  0  0  0  1  0  0  0  0  0  0
  190.5190  171.6440  135.9740 C   0  0  2  0  0  3  0  0  0  0  0  0
  191.4000  169.5720  135.1720 O   0  0  0  0  0  0  0  0  0  0  0  0
  191.6480  170.7380  135.5740 C   0  0  0  0  0  0  0  0  0  0  0  0
  192.9630  171.1790  135.6380 O   0  0  0  0  0  1  0  0  0  0  0  0
  2  5  1  0  0  0  0
  2  7  1  0  0  0  0
  3 10  2  0  0  0  0
  3  5  1  0  0  0  0
  4  1  1  0  0  0  0
  5  9  2  0  0  0  0
  6  9  1  0  0  0  0
  7  1  1  0  0  0  0
  8  4  1  0  0  0  0
  9  8  1  0  0  0  0
 10  6  1  0  0  0  0
 11 10  1  0  0  0  0
 11 29  1  1  0  0  0
 12 11  1  1  0  0  0
 13 12  1  0  0  0  0
 14 13  1  0  0  0  0
 14 12  1  0  0  0  0
 15 19  2  0  0  0  0
 15 17  1  0  0  0  0
 17 20  2  0  0  0  0
 18 15  1  0  0  0  0
 19 21  1  0  0  0  0
 20 16  1  0  0  0  0
 20 14  1  0  0  0  0
 21 22  1  0  0  0  0
 21 16  2  0  0  0  0
 22 23  1  0  0  0  0
 24 19  1  0  0  0  0
 25 26  1  0  0  0  0
 25 24  1  0  0  0  0
 27 25  1  0  0  0  0
 28 29  1  0  0  0  0
 30  3  1  0  0  0  0
 31 30  1  0  0  0  0
 32 37  1  0  0  0  0
 34 38  1  1  0  0  0
 34 44  1  0  0  0  0
 34 43  1  0  0  0  0
 35 48  1  1  0  0  0
 35 37  1  0  0  0  0
 36 46  1  0  0  0  0
 39 33  1  6  0  0  0
 39 41  1  0  0  0  0
 39 45  1  0  0  0  0
 41 35  1  0  0  0  0
 42 45  1  0  0  0  0
 43 36  1  0  0  0  0
 44 40  1  1  0  0  0
 44 33  1  0  0  0  0
 45 31  1  0  0  0  0
 45 32  1  0  0  0  0
 46 45  1  0  0  0  0
 47 49  1  0  0  0  0
 48 47  3  0  0  0  0
 49 51  1  0  0  0  0
 50 49  1  0  0  0  0
 53 52  1  6  0  0  0
 53 34  1  0  0  0  0
 54 55  2  0  0  0  0
 55 56  1  0  0  0  0
 55 53  1  0  0  0  0
M  END
>  <MODEL>
2

>  <REMARK>
 VINA RESULT:      -6.2      2.608      6.389
  Name = 
  14 active torsions:
  status: ('A' for Active; 'I' for Inactive)
    1  A    between atoms: C_1  and  C_18
    2  A    between atoms: C_2  and  O_33
    3  A    between atoms: C_2  and  P_47
    4  A    between atoms: C_5  and  O_33
    5  A    between atoms: C_6  and  N_7
    6  A    between atoms: N_7  and  C_37
    7  A    between atoms: C_12  and  C_23
    8  A    between atoms: C_13  and  C_20
    9  A    between atoms: C_15  and  C_54
   10  A    between atoms: C_18  and  C_51
   11  A    between atoms: C_18  and  O_52
   12  A    between atoms: C_23  and  C_43
   13  A    between atoms: N_34  and  C_40
   14  A    between atoms: O_35  and  C_41
                            x       y       z     vdW  Elec       q    Type
                         _______ _______ _______ _____ _____    ______ ____

>  <TORSDO>
F 14

$$$$
=
 OpenBabel11062421173D

 56 61  0  0  1  0  0  0  0  0999 V2000
  185.0340  177.6580  143.2540 C   0  0  0  0  0  2  0  0  0  0  0  0
  187.1610  176.5250  142.3720 C   0  0  0  0  0  2  0  0  0  0  0  0
  188.8670  175.8290  144.1580 C   0  0  0  0  0  0  0  0  0  0  0  0
  185.8870  178.8340  143.1390 N   0  0  0  0  0  2  0  0  0  0  0  0
  187.8600  176.7000  143.6880 C   0  0  0  0  0  0  0  0  0  0  0  0
  188.7420  177.7060  145.8100 S   0  0  0  0  0  0  0  0  0  0  0  0
  185.6380  176.4620  142.5150 C   0  0  0  0  0  2  0  0  0  0  0  0
  186.6790  178.9340  144.3620 C   0  0  0  0  0  2  0  0  0  0  0  0
  187.6810  177.8180  144.5110 C   0  0  0  0  0  0  0  0  0  0  0  0
  189.4600  176.2620  145.3350 C   0  0  0  0  0  0  0  0  0  0  0  0
  190.5520  175.5420  146.0650 C   0  0  1  0  0  3  0  0  0  0  0  0
  191.8380  176.3530  146.0290 C   0  0  1  0  0  3  0  0  0  0  0  0
  192.3820  176.4820  147.2900 C   0  0  0  0  0  2  0  0  0  0  0  0
  192.9800  175.4590  146.3810 N   0  0  0  0  0  0  0  0  0  0  0  0
  196.1740  173.6350  145.8210 C   0  0  0  0  0  0  0  0  0  0  0  0
  193.4210  173.1460  145.7350 C   0  0  0  0  0  3  0  0  0  0  0  0
  195.2660  174.6520  146.1200 C   0  0  0  0  0  3  0  0  0  0  0  0
  197.5300  173.9330  145.8510 O   0  0  0  0  0  1  0  0  0  0  0  0
  195.7040  172.3430  145.4890 C   0  0  0  0  0  0  0  0  0  0  0  0
  193.8940  174.4110  146.0800 C   0  0  0  0  0  0  0  0  0  0  0  0
  194.3180  172.1070  145.4390 C   0  0  0  0  0  0  0  0  0  0  0  0
  193.8540  170.8310  145.0990 O   0  0  0  0  0  0  0  0  0  0  0  0
  192.9460  170.6010  144.0290 C   0  0  0  0  0  1  0  0  0  0  0  0
  196.5890  171.2520  145.1800 N   0  0  0  0  0  2  0  0  0  0  0  0
  197.3290  171.0730  143.9400 C   0  0  0  0  0  3  0  0  0  0  0  0
  196.4030  171.3150  142.7650 C   0  0  0  0  0  1  0  0  0  0  0  0
  197.8630  169.6550  143.8640 C   0  0  0  0  0  1  0  0  0  0  0  0
  189.1270  174.3910  147.3130 C   0  0  0  0  0  1  0  0  0  0  0  0
  190.1720  175.3110  147.3900 O   0  0  0  0  0  0  0  0  0  0  0  0
  189.2720  174.6420  143.5370 O   0  0  0  0  0  0  0  0  0  0  0  0
  188.8310  174.2510  142.2430 C   0  0  0  0  0  2  0  0  0  0  0  0
  191.0600  175.2720  141.8530 O   0  0  0  0  0  0  0  0  0  0  0  0
  191.6300  173.6020  138.6310 C   0  0  0  0  0  2  0  0  0  0  0  0
  189.7710  172.0640  137.6640 C   0  0  2  0  0  0  0  0  0  0  0  0
  193.1410  174.0470  141.8860 C   0  0  1  0  0  3  0  0  0  0  0  0
  188.3920  173.1410  139.6210 C   0  0  0  0  0  2  0  0  0  0  0  0
  192.0580  174.7580  142.7010 C   0  0  0  0  0  2  0  0  0  0  0  0
  189.2140  173.2430  136.8620 C   0  0  0  0  0  1  0  0  0  0  0  0
  191.7890  173.4840  140.1500 C   0  0  1  0  0  3  0  0  0  0  0  0
  191.8680  171.1920  138.5850 O   0  0  0  0  0  1  0  0  0  0  0  0
  192.9150  174.2500  140.5170 O   0  0  0  0  0  0  0  0  0  0  0  0
  190.3520  172.2870  141.8990 C   0  0  0  0  0  1  0  0  0  0  0  0
  189.0050  171.8850  138.9890 C   0  0  0  0  0  2  0  0  0  0  0  0
  191.2790  172.2830  137.9360 C   0  0  2  0  0  3  0  0  0  0  0  0
  190.2630  173.9410  141.1410 P   0  0  0  0  0  0  0  0  0  0  0  0
  189.3080  174.2030  139.7450 O   0  0  0  0  0  0  0  0  0  0  0  0
  195.5330  175.0180  142.5600 C   0  0  0  0  0  0  0  0  0  0  0  0
  194.4540  174.5770  142.2530 C   0  0  0  0  0  0  0  0  0  0  0  0
  196.8400  175.5540  142.9370 C   0  0  0  0  0  3  0  0  0  0  0  0
  197.0030  176.9430  142.3570 C   0  0  0  0  0  1  0  0  0  0  0  0
  197.9290  174.6520  142.3960 C   0  0  0  0  0  1  0  0  0  0  0  0
  189.5000  169.6320  137.6030 O   0  0  0  0  0  1  0  0  0  0  0  0
  189.5410  170.7870  136.8150 C   0  0  2  0  0  3  0  0  0  0  0  0
  190.5680  171.4520  134.7610 O   0  0  0  0  0  0  0  0  0  0  0  0
  190.5220  170.6070  135.6930 C   0  0  0  0  0  0  0  0  0  0  0  0
  191.3850  169.5190  135.6770 O   0  0  0  0  0  1  0  0  0  0  0  0
  2  7  1  0  0  0  0
  2  5  1  0  0  0  0
  3 10  2  0  0  0  0
  4  1  1  0  0  0  0
  4  8  1  0  0  0  0
  5  3  1  0  0  0  0
  5  9  2  0  0  0  0
  7  1  1  0  0  0  0
  8  9  1  0  0  0  0
  9  6  1  0  0  0  0
 10  6  1  0  0  0  0
 10 11  1  0  0  0  0
 11 29  1  1  0  0  0
 12 11  1  1  0  0  0
 12 14  1  0  0  0  0
 12 13  1  0  0  0  0
 14 13  1  0  0  0  0
 15 18  1  0  0  0  0
 15 17  1  0  0  0  0
 16 20  1  0  0  0  0
 19 15  2  0  0  0  0
 20 17  2  0  0  0  0
 20 14  1  0  0  0  0
 21 19  1  0  0  0  0
 21 16  2  0  0  0  0
 22 21  1  0  0  0  0
 23 22  1  0  0  0  0
 24 19  1  0  0  0  0
 25 24  1  0  0  0  0
 26 25  1  0  0  0  0
 27 25  1  0  0  0  0
 28 29  1  0  0  0  0
 30  3  1  0  0  0  0
 31 30  1  0  0  0  0
 32 37  1  0  0  0  0
 34 38  1  6  0  0  0
 34 44  1  0  0  0  0
 34 43  1  0  0  0  0
 35 48  1  1  0  0  0
 35 37  1  0  0  0  0
 36 46  1  0  0  0  0
 39 33  1  6  0  0  0
 39 41  1  0  0  0  0
 39 45  1  0  0  0  0
 41 35  1  0  0  0  0
 43 36  1  0  0  0  0
 44 40  1  1  0  0  0
 44 33  1  0  0  0  0
 45 32  1  0  0  0  0
 45 42  1  0  0  0  0
 45 31  1  0  0  0  0
 46 45  1  0  0  0  0
 47 49  1  0  0  0  0
 48 47  3  0  0  0  0
 50 49  1  0  0  0  0
 51 49  1  0  0  0  0
 53 52  1  1  0  0  0
 53 34  1  0  0  0  0
 54 55  2  0  0  0  0
 55 53  1  0  0  0  0
 56 55  1  0  0  0  0
M  END
>  <MODEL>
3

>  <REMARK>
 VINA RESULT:      -6.1      1.539      2.873
  Name = 
  14 active torsions:
  status: ('A' for Active; 'I' for Inactive)
    1  A    between atoms: C_1  and  C_18
    2  A    between atoms: C_2  and  O_33
    3  A    between atoms: C_2  and  P_47
    4  A    between atoms: C_5  and  O_33
    5  A    between atoms: C_6  and  N_7
    6  A    between atoms: N_7  and  C_37
    7  A    between atoms: C_12  and  C_23
    8  A    between atoms: C_13  and  C_20
    9  A    between atoms: C_15  and  C_54
   10  A    between atoms: C_18  and  C_51
   11  A    between atoms: C_18  and  O_52
   12  A    between atoms: C_23  and  C_43
   13  A    between atoms: N_34  and  C_40
   14  A    between atoms: O_35  and  C_41
                            x       y       z     vdW  Elec       q    Type
                         _______ _______ _______ _____ _____    ______ ____

>  <TORSDO>
F 14

$$$$
=
 OpenBabel11062421173D

 56 61  0  0  1  0  0  0  0  0999 V2000
  187.5150  176.8550  136.0070 C   0  0  0  0  0  2  0  0  0  0  0  0
  187.1170  175.2390  137.9600 C   0  0  0  0  0  2  0  0  0  0  0  0
  189.1920  173.9850  138.8010 C   0  0  0  0  0  0  0  0  0  0  0  0
  187.2920  175.6310  135.2470 N   0  0  0  0  0  2  0  0  0  0  0  0
  188.4530  174.5870  137.7590 C   0  0  0  0  0  0  0  0  0  0  0  0
  190.4470  173.5030  136.6880 S   0  0  0  0  0  0  0  0  0  0  0  0
  187.0850  176.6870  137.4660 C   0  0  0  0  0  2  0  0  0  0  0  0
  188.5610  174.9140  135.1660 C   0  0  0  0  0  2  0  0  0  0  0  0
  189.0310  174.3900  136.4990 C   0  0  0  0  0  0  0  0  0  0  0  0
  190.3320  173.3320  138.3570 C   0  0  0  0  0  0  0  0  0  0  0  0
  191.3070  172.6080  139.2340 C   0  0  1  0  0  3  0  0  0  0  0  0
  190.8790  171.1620  139.4230 C   0  0  1  0  0  3  0  0  0  0  0  0
  191.6160  170.3140  138.6220 C   0  0  0  0  0  2  0  0  0  0  0  0
  191.9970  170.4080  140.0620 N   0  0  0  0  0  0  0  0  0  0  0  0
  193.0620  169.0270  143.3490 C   0  0  0  0  0  0  0  0  0  0  0  0
  194.1410  170.4960  141.2270 C   0  0  0  0  0  3  0  0  0  0  0  0
  192.2760  169.3500  142.2420 C   0  0  0  0  0  3  0  0  0  0  0  0
  192.4750  168.3200  144.3890 O   0  0  0  0  0  1  0  0  0  0  0  0
  194.4180  169.4270  143.3940 C   0  0  0  0  0  0  0  0  0  0  0  0
  192.8120  170.0810  141.1820 C   0  0  0  0  0  0  0  0  0  0  0  0
  194.9510  170.1730  142.3280 C   0  0  0  0  0  0  0  0  0  0  0  0
  196.2900  170.5790  142.3800 O   0  0  0  0  0  0  0  0  0  0  0  0
  197.0430  170.9020  141.2180 C   0  0  0  0  0  1  0  0  0  0  0  0
  195.2810  169.1170  144.5030 N   0  0  0  0  0  2  0  0  0  0  0  0
  195.3350  169.8260  145.7720 C   0  0  0  0  0  3  0  0  0  0  0  0
  196.7600  170.2660  146.0400 C   0  0  0  0  0  1  0  0  0  0  0  0
  194.8830  168.9060  146.8910 C   0  0  0  0  0  1  0  0  0  0  0  0
  193.0830  173.9150  139.0040 C   0  0  0  0  0  1  0  0  0  0  0  0
  192.5860  172.6560  138.6710 O   0  0  0  0  0  0  0  0  0  0  0  0
  188.8500  174.0050  140.1580 O   0  0  0  0  0  0  0  0  0  0  0  0
  189.7230  173.5600  141.1870 C   0  0  0  0  0  2  0  0  0  0  0  0
  188.6830  175.7510  141.7200 O   0  0  0  0  0  0  0  0  0  0  0  0
  191.3840  176.8680  143.9450 C   0  0  0  0  0  2  0  0  0  0  0  0
  193.4580  175.3360  144.2750 C   0  0  2  0  0  0  0  0  0  0  0  0
  187.8060  176.3470  143.8890 C   0  0  1  0  0  3  0  0  0  0  0  0
  192.3450  174.0430  142.2790 C   0  0  0  0  0  2  0  0  0  0  0  0
  187.5570  175.6370  142.5560 C   0  0  0  0  0  2  0  0  0  0  0  0
  194.1850  176.0800  143.1520 C   0  0  0  0  0  1  0  0  0  0  0  0
  190.0630  176.0960  143.8660 C   0  0  1  0  0  3  0  0  0  0  0  0
  191.7670  175.6730  146.0170 O   0  0  0  0  0  1  0  0  0  0  0  0
  189.0210  177.0460  143.8370 O   0  0  0  0  0  0  0  0  0  0  0  0
  189.5960  173.5840  143.6910 C   0  0  0  0  0  1  0  0  0  0  0  0
  192.7940  174.0490  143.7470 C   0  0  0  0  0  2  0  0  0  0  0  0
  192.4010  176.2660  144.9190 C   0  0  2  0  0  3  0  0  0  0  0  0
  189.9500  174.8690  142.4510 P   0  0  0  0  0  0  0  0  0  0  0  0
  191.5570  175.1570  141.9360 O   0  0  0  0  0  0  0  0  0  0  0  0
  185.8110  178.0520  144.3710 C   0  0  0  0  0  0  0  0  0  0  0  0
  186.7110  177.2800  144.1560 C   0  0  0  0  0  0  0  0  0  0  0  0
  184.7190  178.9900  144.6260 C   0  0  0  0  0  3  0  0  0  0  0  0
  184.0750  178.6660  145.9580 C   0  0  0  0  0  1  0  0  0  0  0  0
  183.6860  178.8730  143.5260 C   0  0  0  0  0  1  0  0  0  0  0  0
  194.8350  175.9500  146.2040 O   0  0  0  0  0  1  0  0  0  0  0  0
  194.5310  174.9160  145.3120 C   0  0  2  0  0  3  0  0  0  0  0  0
  196.8240  175.0900  144.6600 O   0  0  0  0  0  1  0  0  0  0  0  0
  195.7930  174.3700  144.7090 C   0  0  0  0  0  0  0  0  0  0  0  0
  195.8350  173.0750  144.2100 O   0  0  0  0  0  0  0  0  0  0  0  0
  1  7  1  0  0  0  0
  3 30  1  0  0  0  0
  4  1  1  0  0  0  0
  5  2  1  0  0  0  0
  5  3  1  0  0  0  0
  6 10  1  0  0  0  0
  7  2  1  0  0  0  0
  8  4  1  0  0  0  0
  8  9  1  0  0  0  0
  9  6  1  0  0  0  0
  9  5  2  0  0  0  0
 10  3  2  0  0  0  0
 10 11  1  0  0  0  0
 11 29  1  6  0  0  0
 12 11  1  6  0  0  0
 12 14  1  0  0  0  0
 13 12  1  0  0  0  0
 13 14  1  0  0  0  0
 14 20  1  0  0  0  0
 15 19  1  0  0  0  0
 15 18  1  0  0  0  0
 16 21  1  0  0  0  0
 17 15  2  0  0  0  0
 19 24  1  0  0  0  0
 20 16  2  0  0  0  0
 20 17  1  0  0  0  0
 21 22  1  0  0  0  0
 21 19  2  0  0  0  0
 23 22  1  0  0  0  0
 24 25  1  0  0  0  0
 25 26  1  0  0  0  0
 25 27  1  0  0  0  0
 29 28  1  0  0  0  0
 30 31  1  0  0  0  0
 31 45  1  0  0  0  0
 32 45  1  0  0  0  0
 32 37  1  0  0  0  0
 33 44  1  0  0  0  0
 34 38  1  6  0  0  0
 34 44  1  0  0  0  0
 34 53  1  0  0  0  0
 35 48  1  6  0  0  0
 36 43  1  0  0  0  0
 37 35  1  0  0  0  0
 39 33  1  6  0  0  0
 41 39  1  0  0  0  0
 41 35  1  0  0  0  0
 43 34  1  0  0  0  0
 44 40  1  1  0  0  0
 45 42  1  0  0  0  0
 45 39  1  0  0  0  0
 46 36  1  0  0  0  0
 46 45  1  0  0  0  0
 47 49  1  0  0  0  0
 48 47  3  0  0  0  0
 49 50  1  0  0  0  0
 51 49  1  0  0  0  0
 53 52  1  6  0  0  0
 54 55  1  0  0  0  0
 55 53  1  0  0  0  0
 56 55  2  0  0  0  0
M  END
>  <MODEL>
4

>  <REMARK>
 VINA RESULT:      -5.6      3.159      7.977
  Name = 
  14 active torsions:
  status: ('A' for Active; 'I' for Inactive)
    1  A    between atoms: C_1  and  C_18
    2  A    between atoms: C_2  and  O_33
    3  A    between atoms: C_2  and  P_47
    4  A    between atoms: C_5  and  O_33
    5  A    between atoms: C_6  and  N_7
    6  A    between atoms: N_7  and  C_37
    7  A    between atoms: C_12  and  C_23
    8  A    between atoms: C_13  and  C_20
    9  A    between atoms: C_15  and  C_54
   10  A    between atoms: C_18  and  C_51
   11  A    between atoms: C_18  and  O_52
   12  A    between atoms: C_23  and  C_43
   13  A    between atoms: N_34  and  C_40
   14  A    between atoms: O_35  and  C_41
                            x       y       z     vdW  Elec       q    Type
                         _______ _______ _______ _____ _____    ______ ____

>  <TORSDO>
F 14

$$$$
=
 OpenBabel11062421173D

 56 61  0  0  1  0  0  0  0  0999 V2000
  191.3060  176.7740  147.3950 C   0  0  0  0  0  2  0  0  0  0  0  0
  192.6640  175.4960  145.6310 C   0  0  0  0  0  2  0  0  0  0  0  0
  191.2910  174.3710  143.7780 C   0  0  0  0  0  0  0  0  0  0  0  0
  191.2690  175.4460  147.9960 N   0  0  0  0  0  2  0  0  0  0  0  0
  191.4370  174.8060  145.1130 C   0  0  0  0  0  0  0  0  0  0  0  0
  189.2720  173.5430  145.0050 S   0  0  0  0  0  0  0  0  0  0  0  0
  192.3540  176.8470  146.2810 C   0  0  0  0  0  2  0  0  0  0  0  0
  190.1600  174.7120  147.3940 C   0  0  0  0  0  2  0  0  0  0  0  0
  190.3770  174.4030  145.9350 C   0  0  0  0  0  0  0  0  0  0  0  0
  190.1310  173.6420  143.5630 C   0  0  0  0  0  0  0  0  0  0  0  0
  189.7110  173.0580  142.2490 C   0  0  1  0  0  3  0  0  0  0  0  0
  189.5260  174.1570  141.2150 C   0  0  1  0  0  3  0  0  0  0  0  0
  188.3640  173.9740  140.4940 C   0  0  0  0  0  2  0  0  0  0  0  0
  188.3420  174.9810  141.5960 N   0  0  0  0  0  0  0  0  0  0  0  0
  187.7670  177.4900  144.2820 C   0  0  0  0  0  0  0  0  0  0  0  0
  186.3670  176.2950  142.1750 C   0  0  0  0  0  3  0  0  0  0  0  0
  188.3900  176.5440  143.4670 C   0  0  0  0  0  3  0  0  0  0  0  0
  188.4940  178.0350  145.3320 O   0  0  0  0  0  1  0  0  0  0  0  0
  186.4250  177.8630  144.0350 C   0  0  0  0  0  0  0  0  0  0  0  0
  187.6950  175.9480  142.4150 C   0  0  0  0  0  0  0  0  0  0  0  0
  185.7250  177.2510  142.9790 C   0  0  0  0  0  0  0  0  0  0  0  0
  184.3930  177.6130  142.7430 O   0  0  0  0  0  0  0  0  0  0  0  0
  184.0290  178.7580  141.9840 C   0  0  0  0  0  1  0  0  0  0  0  0
  185.7320  178.8380  144.8330 N   0  0  0  0  0  2  0  0  0  0  0  0
  185.0720  178.5900  146.1070 C   0  0  0  0  0  3  0  0  0  0  0  0
  186.0150  178.9520  147.2370 C   0  0  0  0  0  1  0  0  0  0  0  0
  184.7090  177.1210  146.2170 C   0  0  0  0  0  1  0  0  0  0  0  0
  190.1300  170.8880  142.0830 C   0  0  0  0  0  1  0  0  0  0  0  0
  190.6700  172.1420  141.8030 O   0  0  0  0  0  0  0  0  0  0  0  0
  192.1980  174.6130  142.7400 O   0  0  0  0  0  0  0  0  0  0  0  0
  193.4650  175.2260  142.9390 C   0  0  0  0  0  2  0  0  0  0  0  0
  195.0460  173.7380  144.1440 O   0  0  0  0  0  0  0  0  0  0  0  0
  197.3120  173.2830  141.2890 C   0  0  0  0  0  2  0  0  0  0  0  0
  196.8090  174.5380  139.0690 C   0  0  2  0  0  0  0  0  0  0  0  0
  195.3410  171.3910  143.6590 C   0  0  1  0  0  3  0  0  0  0  0  0
  195.0600  175.7580  140.6000 C   0  0  0  0  0  2  0  0  0  0  0  0
  194.5190  172.4570  144.3880 C   0  0  0  0  0  2  0  0  0  0  0  0
  197.7250  175.6830  139.5100 C   0  0  0  0  0  1  0  0  0  0  0  0
  196.0560  172.7560  141.9890 C   0  0  1  0  0  3  0  0  0  0  0  0
  196.5050  172.1190  139.3240 O   0  0  0  0  0  1  0  0  0  0  0  0
  196.4800  171.9780  143.0870 O   0  0  0  0  0  0  0  0  0  0  0  0
  193.5730  173.1660  141.5140 C   0  0  0  0  0  1  0  0  0  0  0  0
  195.3350  174.8520  139.3920 C   0  0  0  0  0  2  0  0  0  0  0  0
  197.2460  173.2230  139.7600 C   0  0  2  0  0  3  0  0  0  0  0  0
  194.8170  174.0750  142.4850 P   0  0  0  0  0  0  0  0  0  0  0  0
  195.7210  175.3390  141.7690 O   0  0  0  0  0  0  0  0  0  0  0  0
  196.0720  169.4950  145.3870 C   0  0  0  0  0  0  0  0  0  0  0  0
  195.7450  170.3530  144.6070 C   0  0  0  0  0  0  0  0  0  0  0  0
  196.4660  168.4510  146.3320 C   0  0  0  0  0  3  0  0  0  0  0  0
  195.6660  168.5970  147.6100 C   0  0  0  0  0  1  0  0  0  0  0  0
  197.9410  168.5830  146.6430 C   0  0  0  0  0  1  0  0  0  0  0  0
  197.8380  175.3490  137.0010 O   0  0  0  0  0  1  0  0  0  0  0  0
  196.9340  174.4210  137.5280 C   0  0  2  0  0  3  0  0  0  0  0  0
  194.9280  173.4700  136.6410 O   0  0  0  0  0  1  0  0  0  0  0  0
  195.6270  174.5050  136.7940 C   0  0  0  0  0  0  0  0  0  0  0  0
  195.1780  175.7180  136.2890 O   0  0  0  0  0  0  0  0  0  0  0  0
  1  4  1  0  0  0  0
  2  7  1  0  0  0  0
  3  5  1  0  0  0  0
  5  2  1  0  0  0  0
  5  9  2  0  0  0  0
  6  9  1  0  0  0  0
  7  1  1  0  0  0  0
  8  4  1  0  0  0  0
  9  8  1  0  0  0  0
 10  3  2  0  0  0  0
 10  6  1  0  0  0  0
 11 29  1  6  0  0  0
 11 10  1  0  0  0  0
 12 14  1  0  0  0  0
 12 11  1  1  0  0  0
 13 12  1  0  0  0  0
 13 14  1  0  0  0  0
 14 20  1  0  0  0  0
 15 18  1  0  0  0  0
 16 20  2  0  0  0  0
 16 21  1  0  0  0  0
 17 15  2  0  0  0  0
 19 15  1  0  0  0  0
 19 24  1  0  0  0  0
 20 17  1  0  0  0  0
 21 19  2  0  0  0  0
 22 21  1  0  0  0  0
 23 22  1  0  0  0  0
 24 25  1  0  0  0  0
 25 27  1  0  0  0  0
 25 26  1  0  0  0  0
 29 28  1  0  0  0  0
 30 31  1  0  0  0  0
 30  3  1  0  0  0  0
 32 37  1  0  0  0  0
 34 43  1  0  0  0  0
 34 38  1  1  0  0  0
 34 44  1  0  0  0  0
 35 37  1  0  0  0  0
 35 48  1  1  0  0  0
 36 46  1  0  0  0  0
 39 33  1  1  0  0  0
 39 45  1  0  0  0  0
 39 41  1  0  0  0  0
 41 35  1  0  0  0  0
 42 45  1  0  0  0  0
 43 36  1  0  0  0  0
 44 40  1  1  0  0  0
 44 33  1  0  0  0  0
 45 31  1  0  0  0  0
 45 32  1  0  0  0  0
 46 45  1  0  0  0  0
 47 49  1  0  0  0  0
 48 47  3  0  0  0  0
 49 51  1  0  0  0  0
 49 50  1  0  0  0  0
 53 52  1  6  0  0  0
 53 34  1  0  0  0  0
 54 55  1  0  0  0  0
 55 53  1  0  0  0  0
 56 55  2  0  0  0  0
M  END
>  <MODEL>
5

>  <REMARK>
 VINA RESULT:      -5.6      2.663      6.975
  Name = 
  14 active torsions:
  status: ('A' for Active; 'I' for Inactive)
    1  A    between atoms: C_1  and  C_18
    2  A    between atoms: C_2  and  O_33
    3  A    between atoms: C_2  and  P_47
    4  A    between atoms: C_5  and  O_33
    5  A    between atoms: C_6  and  N_7
    6  A    between atoms: N_7  and  C_37
    7  A    between atoms: C_12  and  C_23
    8  A    between atoms: C_13  and  C_20
    9  A    between atoms: C_15  and  C_54
   10  A    between atoms: C_18  and  C_51
   11  A    between atoms: C_18  and  O_52
   12  A    between atoms: C_23  and  C_43
   13  A    between atoms: N_34  and  C_40
   14  A    between atoms: O_35  and  C_41
                            x       y       z     vdW  Elec       q    Type
                         _______ _______ _______ _____ _____    ______ ____

>  <TORSDO>
F 14

$$$$
=
 OpenBabel11062421173D

 56 61  0  0  1  0  0  0  0  0999 V2000
  191.8250  176.7860  148.0960 C   0  0  0  0  0  2  0  0  0  0  0  0
  192.9220  175.5640  146.1240 C   0  0  0  0  0  2  0  0  0  0  0  0
  191.4790  175.3480  144.0130 C   0  0  0  0  0  0  0  0  0  0  0  0
  191.3370  175.4380  148.3630 N   0  0  0  0  0  2  0  0  0  0  0  0
  191.6080  175.4170  145.4180 C   0  0  0  0  0  0  0  0  0  0  0  0
  189.1910  174.9400  144.9430 S   0  0  0  0  0  0  0  0  0  0  0  0
  192.9570  176.7700  147.0660 C   0  0  0  0  0  2  0  0  0  0  0  0
  190.1300  175.2320  147.5680 C   0  0  0  0  0  2  0  0  0  0  0  0
  190.3970  175.1940  146.0850 C   0  0  0  0  0  0  0  0  0  0  0  0
  190.1850  175.0790  143.5930 C   0  0  0  0  0  0  0  0  0  0  0  0
  189.7510  174.9520  142.1660 C   0  0  1  0  0  3  0  0  0  0  0  0
  189.2350  173.5480  141.8910 C   0  0  1  0  0  3  0  0  0  0  0  0
  188.1020  173.5770  141.1050 C   0  0  0  0  0  2  0  0  0  0  0  0
  189.3970  173.2530  140.4380 N   0  0  0  0  0  0  0  0  0  0  0  0
  191.7640  171.4740  138.1840 C   0  0  0  0  0  0  0  0  0  0  0  0
  190.2050  173.7980  138.1990 C   0  0  0  0  0  3  0  0  0  0  0  0
  190.9730  171.7870  139.2900 C   0  0  0  0  0  3  0  0  0  0  0  0
  192.5410  170.3250  138.2330 O   0  0  0  0  0  1  0  0  0  0  0  0
  191.7670  172.3250  137.0530 C   0  0  0  0  0  0  0  0  0  0  0  0
  190.1940  172.9430  139.3000 C   0  0  0  0  0  0  0  0  0  0  0  0
  190.9870  173.4960  137.0720 C   0  0  0  0  0  0  0  0  0  0  0  0
  191.0010  174.3440  135.9570 O   0  0  0  0  0  0  0  0  0  0  0  0
  191.5930  175.6360  135.9790 C   0  0  0  0  0  1  0  0  0  0  0  0
  192.5530  172.0520  135.8800 N   0  0  0  0  0  2  0  0  0  0  0  0
  193.9460  172.4210  135.6770 C   0  0  0  0  0  3  0  0  0  0  0  0
  194.5320  172.9060  136.9870 C   0  0  0  0  0  1  0  0  0  0  0  0
  194.0340  173.5370  134.6520 C   0  0  0  0  0  1  0  0  0  0  0  0
  189.3540  177.1310  142.0830 C   0  0  0  0  0  1  0  0  0  0  0  0
  188.7520  175.8890  141.8830 O   0  0  0  0  0  0  0  0  0  0  0  0
  192.5190  175.5160  143.0920 O   0  0  0  0  0  0  0  0  0  0  0  0
  193.8940  175.4690  143.4520 C   0  0  0  0  0  2  0  0  0  0  0  0
  194.3570  175.0640  141.0460 O   0  0  0  0  0  0  0  0  0  0  0  0
  195.3700  171.5610  141.4900 C   0  0  0  0  0  2  0  0  0  0  0  0
  195.2670  170.5110  143.8660 C   0  0  2  0  0  0  0  0  0  0  0  0
  196.5600  174.6930  140.1310 C   0  0  1  0  0  3  0  0  0  0  0  0
  193.9840  172.7440  144.3810 C   0  0  0  0  0  2  0  0  0  0  0  0
  195.5180  175.7150  140.5920 C   0  0  0  0  0  2  0  0  0  0  0  0
  193.8610  169.9820  143.5700 C   0  0  0  0  0  1  0  0  0  0  0  0
  195.8530  173.0150  141.4880 C   0  0  1  0  0  3  0  0  0  0  0  0
  197.3780  171.0720  142.7550 O   0  0  0  0  0  1  0  0  0  0  0  0
  196.0020  173.4070  140.1410 O   0  0  0  0  0  0  0  0  0  0  0  0
  196.2630  174.6500  143.4150 C   0  0  0  0  0  1  0  0  0  0  0  0
  195.2050  171.8480  144.6300 C   0  0  0  0  0  2  0  0  0  0  0  0
  196.0510  170.6800  142.5430 C   0  0  2  0  0  3  0  0  0  0  0  0
  194.7770  174.2040  142.4610 P   0  0  0  0  0  0  0  0  0  0  0  0
  193.7310  172.9680  143.0150 O   0  0  0  0  0  0  0  0  0  0  0  0
  197.3710  175.2970  137.6620 C   0  0  0  0  0  0  0  0  0  0  0  0
  197.0040  175.0270  138.7780 C   0  0  0  0  0  0  0  0  0  0  0  0
  197.8150  175.6190  136.3060 C   0  0  0  0  0  3  0  0  0  0  0  0
  196.8200  176.5590  135.6580 C   0  0  0  0  0  1  0  0  0  0  0  0
  197.9120  174.3470  135.4920 C   0  0  0  0  0  1  0  0  0  0  0  0
  195.5450  168.1680  144.5190 O   0  0  0  0  0  1  0  0  0  0  0  0
  195.9580  169.4770  144.7910 C   0  0  2  0  0  3  0  0  0  0  0  0
  194.7790  169.3910  146.8690 O   0  0  0  0  0  0  0  0  0  0  0  0
  195.8130  169.7650  146.2580 C   0  0  0  0  0  0  0  0  0  0  0  0
  196.8140  170.4360  146.9470 O   0  0  0  0  0  1  0  0  0  0  0  0
  1  4  1  0  0  0  0
  2  7  1  0  0  0  0
  3  5  1  0  0  0  0
  5  9  2  0  0  0  0
  5  2  1  0  0  0  0
  6  9  1  0  0  0  0
  7  1  1  0  0  0  0
  8  4  1  0  0  0  0
  9  8  1  0  0  0  0
 10  3  2  0  0  0  0
 10  6  1  0  0  0  0
 11 29  1  1  0  0  0
 11 10  1  0  0  0  0
 12 11  1  6  0  0  0
 13 12  1  0  0  0  0
 14 13  1  0  0  0  0
 14 12  1  0  0  0  0
 15 18  1  0  0  0  0
 15 17  1  0  0  0  0
 16 20  1  0  0  0  0
 17 20  2  0  0  0  0
 19 21  1  0  0  0  0
 19 15  2  0  0  0  0
 20 14  1  0  0  0  0
 21 16  2  0  0  0  0
 22 23  1  0  0  0  0
 22 21  1  0  0  0  0
 24 19  1  0  0  0  0
 25 24  1  0  0  0  0
 25 26  1  0  0  0  0
 27 25  1  0  0  0  0
 29 28  1  0  0  0  0
 30 31  1  0  0  0  0
 30  3  1  0  0  0  0
 32 45  1  0  0  0  0
 33 44  1  0  0  0  0
 34 38  1  6  0  0  0
 34 43  1  0  0  0  0
 34 53  1  0  0  0  0
 35 48  1  6  0  0  0
 35 41  1  0  0  0  0
 35 37  1  0  0  0  0
 36 43  1  0  0  0  0
 37 32  1  0  0  0  0
 39 33  1  6  0  0  0
 39 45  1  0  0  0  0
 41 39  1  0  0  0  0
 44 40  1  1  0  0  0
 44 34  1  0  0  0  0
 45 46  1  0  0  0  0
 45 42  1  0  0  0  0
 45 31  1  0  0  0  0
 46 36  1  0  0  0  0
 47 48  3  0  0  0  0
 49 47  1  0  0  0  0
 50 49  1  0  0  0  0
 51 49  1  0  0  0  0
 53 52  1  1  0  0  0
 53 55  1  0  0  0  0
 55 54  2  0  0  0  0
 55 56  1  0  0  0  0
M  END
>  <MODEL>
6

>  <REMARK>
 VINA RESULT:      -5.3      2.962      7.452
  Name = 
  14 active torsions:
  status: ('A' for Active; 'I' for Inactive)
    1  A    between atoms: C_1  and  C_18
    2  A    between atoms: C_2  and  O_33
    3  A    between atoms: C_2  and  P_47
    4  A    between atoms: C_5  and  O_33
    5  A    between atoms: C_6  and  N_7
    6  A    between atoms: N_7  and  C_37
    7  A    between atoms: C_12  and  C_23
    8  A    between atoms: C_13  and  C_20
    9  A    between atoms: C_15  and  C_54
   10  A    between atoms: C_18  and  C_51
   11  A    between atoms: C_18  and  O_52
   12  A    between atoms: C_23  and  C_43
   13  A    between atoms: N_34  and  C_40
   14  A    between atoms: O_35  and  C_41
                            x       y       z     vdW  Elec       q    Type
                         _______ _______ _______ _____ _____    ______ ____

>  <TORSDO>
F 14

$$$$
=
 OpenBabel11062421173D

 56 61  0  0  1  0  0  0  0  0999 V2000
  185.4230  179.0440  147.5720 C   0  0  0  0  0  2  0  0  0  0  0  0
  186.9850  177.1030  146.9550 C   0  0  0  0  0  2  0  0  0  0  0  0
  187.6050  176.9260  144.4720 C   0  0  0  0  0  0  0  0  0  0  0  0
  184.4200  178.0470  147.2190 N   0  0  0  0  0  2  0  0  0  0  0  0
  186.6910  177.2640  145.4940 C   0  0  0  0  0  0  0  0  0  0  0  0
  185.4740  177.5610  143.3190 S   0  0  0  0  0  0  0  0  0  0  0  0
  186.8030  178.4020  147.7430 C   0  0  0  0  0  2  0  0  0  0  0  0
  184.2270  178.0970  145.7720 C   0  0  0  0  0  2  0  0  0  0  0  0
  185.4340  177.6330  144.9980 C   0  0  0  0  0  0  0  0  0  0  0  0
  187.0670  177.0350  143.1980 C   0  0  0  0  0  0  0  0  0  0  0  0
  187.8010  176.7450  141.9250 C   0  0  1  0  0  3  0  0  0  0  0  0
  187.1470  175.5880  141.1870 C   0  0  1  0  0  3  0  0  0  0  0  0
  187.6560  175.4570  139.9120 C   0  0  0  0  0  2  0  0  0  0  0  0
  188.1680  174.5240  140.9580 N   0  0  0  0  0  0  0  0  0  0  0  0
  189.9070  172.1540  143.2400 C   0  0  0  0  0  0  0  0  0  0  0  0
  189.7570  172.7260  140.5050 C   0  0  0  0  0  3  0  0  0  0  0  0
  189.0850  173.1820  142.7770 C   0  0  0  0  0  3  0  0  0  0  0  0
  189.9690  171.9250  144.6080 O   0  0  0  0  0  1  0  0  0  0  0  0
  190.6580  171.3820  142.3220 C   0  0  0  0  0  0  0  0  0  0  0  0
  189.0060  173.4690  141.4150 C   0  0  0  0  0  0  0  0  0  0  0  0
  190.5840  171.6820  140.9500 C   0  0  0  0  0  0  0  0  0  0  0  0
  191.3370  170.9250  140.0440 O   0  0  0  0  0  0  0  0  0  0  0  0
  190.9580  170.7480  138.6850 C   0  0  0  0  0  1  0  0  0  0  0  0
  191.5150  170.3040  142.7360 N   0  0  0  0  0  2  0  0  0  0  0  0
  192.9470  170.3940  142.9830 C   0  0  0  0  0  3  0  0  0  0  0  0
  193.6530  169.2760  142.2440 C   0  0  0  0  0  1  0  0  0  0  0  0
  193.2180  170.2530  144.4700 C   0  0  0  0  0  1  0  0  0  0  0  0
  188.8530  178.6700  141.6070 C   0  0  0  0  0  1  0  0  0  0  0  0
  187.8160  177.8810  141.1100 O   0  0  0  0  0  0  0  0  0  0  0  0
  188.9260  176.5080  144.6670 O   0  0  0  0  0  0  0  0  0  0  0  0
  190.0430  177.3810  144.5610 C   0  0  0  0  0  2  0  0  0  0  0  0
  191.2110  177.9190  146.6850 O   0  0  0  0  0  0  0  0  0  0  0  0
  194.2060  175.9330  145.9270 C   0  0  0  0  0  2  0  0  0  0  0  0
  194.3640  174.7150  143.6350 C   0  0  2  0  0  0  0  0  0  0  0  0
  191.6390  176.3200  148.4430 C   0  0  1  0  0  3  0  0  0  0  0  0
  192.2440  176.1840  143.1410 C   0  0  0  0  0  2  0  0  0  0  0  0
  190.6390  177.2870  147.8040 C   0  0  0  0  0  2  0  0  0  0  0  0
  195.1110  175.9170  143.0490 C   0  0  0  0  0  1  0  0  0  0  0  0
  192.8030  175.9000  146.5380 C   0  0  1  0  0  3  0  0  0  0  0  0
  194.0040  173.5250  145.7480 O   0  0  0  0  0  1  0  0  0  0  0  0
  192.8930  176.4590  147.8300 O   0  0  0  0  0  0  0  0  0  0  0  0
  190.5630  175.1400  145.5580 C   0  0  0  0  0  1  0  0  0  0  0  0
  192.8590  174.7880  143.3110 C   0  0  0  0  0  2  0  0  0  0  0  0
  194.5850  174.6580  145.1660 C   0  0  2  0  0  3  0  0  0  0  0  0
  191.4710  176.7170  145.4990 P   0  0  0  0  0  0  0  0  0  0  0  0
  192.5400  177.0540  144.2060 O   0  0  0  0  0  0  0  0  0  0  0  0
  191.8470  176.8590  151.0480 C   0  0  0  0  0  0  0  0  0  0  0  0
  191.7530  176.6120  149.8720 C   0  0  0  0  0  0  0  0  0  0  0  0
  191.9590  177.1620  152.4740 C   0  0  0  0  0  3  0  0  0  0  0  0
  192.0060  175.8710  153.2640 C   0  0  0  0  0  1  0  0  0  0  0  0
  190.7600  177.9770  152.9110 C   0  0  0  0  0  1  0  0  0  0  0  0
  196.2320  173.1560  143.3660 O   0  0  0  0  0  1  0  0  0  0  0  0
  194.9300  173.4470  142.9470 C   0  0  2  0  0  3  0  0  0  0  0  0
  193.8360  173.0780  140.8530 O   0  0  0  0  0  1  0  0  0  0  0  0
  194.8700  173.4800  141.4460 C   0  0  0  0  0  0  0  0  0  0  0  0
  195.9450  173.9570  140.7080 O   0  0  0  0  0  0  0  0  0  0  0  0
  1  7  1  0  0  0  0
  2  7  1  0  0  0  0
  3 30  1  0  0  0  0
  3  5  1  0  0  0  0
  4  1  1  0  0  0  0
  5  2  1  0  0  0  0
  6  9  1  0  0  0  0
  8  4  1  0  0  0  0
  9  5  2  0  0  0  0
  9  8  1  0  0  0  0
 10  6  1  0  0  0  0
 10  3  2  0  0  0  0
 11 29  1  6  0  0  0
 11 10  1  0  0  0  0
 12 11  1  1  0  0  0
 13 14  1  0  0  0  0
 13 12  1  0  0  0  0
 14 12  1  0  0  0  0
 14 20  1  0  0  0  0
 15 18  1  0  0  0  0
 16 21  2  0  0  0  0
 16 20  1  0  0  0  0
 17 15  1  0  0  0  0
 19 24  1  0  0  0  0
 19 15  2  0  0  0  0
 20 17  2  0  0  0  0
 21 19  1  0  0  0  0
 22 21  1  0  0  0  0
 23 22  1  0  0  0  0
 24 25  1  0  0  0  0
 25 27  1  0  0  0  0
 26 25  1  0  0  0  0
 29 28  1  0  0  0  0
 31 30  1  0  0  0  0
 31 45  1  0  0  0  0
 32 37  1  0  0  0  0
 34 38  1  6  0  0  0
 34 44  1  0  0  0  0
 35 48  1  1  0  0  0
 36 43  1  0  0  0  0
 36 46  1  0  0  0  0
 37 35  1  0  0  0  0
 39 33  1  6  0  0  0
 39 41  1  0  0  0  0
 41 35  1  0  0  0  0
 43 34  1  0  0  0  0
 44 40  1  1  0  0  0
 44 33  1  0  0  0  0
 45 42  1  0  0  0  0
 45 39  1  0  0  0  0
 45 32  1  0  0  0  0
 46 45  1  0  0  0  0
 47 49  1  0  0  0  0
 48 47  3  0  0  0  0
 49 51  1  0  0  0  0
 49 50  1  0  0  0  0
 53 52  1  6  0  0  0
 53 34  1  0  0  0  0
 54 55  1  0  0  0  0
 55 53  1  0  0  0  0
 56 55  2  0  0  0  0
M  END
>  <MODEL>
7

>  <REMARK>
 VINA RESULT:      -5.2      2.820      6.556
  Name = 
  14 active torsions:
  status: ('A' for Active; 'I' for Inactive)
    1  A    between atoms: C_1  and  C_18
    2  A    between atoms: C_2  and  O_33
    3  A    between atoms: C_2  and  P_47
    4  A    between atoms: C_5  and  O_33
    5  A    between atoms: C_6  and  N_7
    6  A    between atoms: N_7  and  C_37
    7  A    between atoms: C_12  and  C_23
    8  A    between atoms: C_13  and  C_20
    9  A    between atoms: C_15  and  C_54
   10  A    between atoms: C_18  and  C_51
   11  A    between atoms: C_18  and  O_52
   12  A    between atoms: C_23  and  C_43
   13  A    between atoms: N_34  and  C_40
   14  A    between atoms: O_35  and  C_41
                            x       y       z     vdW  Elec       q    Type
                         _______ _______ _______ _____ _____    ______ ____

>  <TORSDO>
F 14

$$$$
=
 OpenBabel11062421173D

 56 61  0  0  1  0  0  0  0  0999 V2000
  187.2100  178.7130  147.9830 C   0  0  0  0  0  2  0  0  0  0  0  0
  187.6610  176.6380  146.5420 C   0  0  0  0  0  2  0  0  0  0  0  0
  186.8930  176.7970  144.0990 C   0  0  0  0  0  0  0  0  0  0  0  0
  185.9340  178.0290  148.1620 N   0  0  0  0  0  2  0  0  0  0  0  0
  186.7380  177.1230  145.4640 C   0  0  0  0  0  0  0  0  0  0  0  0
  184.7400  178.0620  144.2730 S   0  0  0  0  0  0  0  0  0  0  0  0
  188.2560  177.7790  147.3700 C   0  0  0  0  0  2  0  0  0  0  0  0
  185.0730  178.3840  147.0380 C   0  0  0  0  0  2  0  0  0  0  0  0
  185.5580  177.8300  145.7230 C   0  0  0  0  0  0  0  0  0  0  0  0
  185.8490  177.2480  143.3060 C   0  0  0  0  0  0  0  0  0  0  0  0
  185.7440  177.0520  141.8240 C   0  0  1  0  0  3  0  0  0  0  0  0
  185.4010  178.3650  141.1390 C   0  0  1  0  0  3  0  0  0  0  0  0
  185.0240  178.1590  139.8270 C   0  0  0  0  0  2  0  0  0  0  0  0
  183.9410  178.3780  140.8300 N   0  0  0  0  0  0  0  0  0  0  0  0
  180.9100  179.1420  142.8490 C   0  0  0  0  0  0  0  0  0  0  0  0
  181.5700  178.0120  140.3760 C   0  0  0  0  0  3  0  0  0  0  0  0
  182.2440  179.0410  142.4520 C   0  0  0  0  0  3  0  0  0  0  0  0
  180.6330  179.6850  144.0960 O   0  0  0  0  0  1  0  0  0  0  0  0
  179.8800  178.6870  141.9920 C   0  0  0  0  0  0  0  0  0  0  0  0
  182.5760  178.4800  141.2190 C   0  0  0  0  0  0  0  0  0  0  0  0
  180.2210  178.1120  140.7540 C   0  0  0  0  0  0  0  0  0  0  0  0
  179.2010  177.6520  139.9110 O   0  0  0  0  0  0  0  0  0  0  0  0
  178.6470  178.4430  138.8680 C   0  0  0  0  0  1  0  0  0  0  0  0
  178.4880  178.7720  142.3400 N   0  0  0  0  0  2  0  0  0  0  0  0
  177.7730  177.8780  143.2390 C   0  0  0  0  0  3  0  0  0  0  0  0
  178.0400  178.2910  144.6720 C   0  0  0  0  0  1  0  0  0  0  0  0
  178.2580  176.4550  143.0350 C   0  0  0  0  0  1  0  0  0  0  0  0
  187.5860  177.6520  140.7460 C   0  0  0  0  0  1  0  0  0  0  0  0
  186.9490  176.5530  141.3200 O   0  0  0  0  0  0  0  0  0  0  0  0
  187.9650  176.0850  143.5490 O   0  0  0  0  0  0  0  0  0  0  0  0
  188.5010  174.9070  144.1360 C   0  0  0  0  0  2  0  0  0  0  0  0
  189.0060  173.2400  142.3670 O   0  0  0  0  0  0  0  0  0  0  0  0
  192.6390  173.2770  142.9050 C   0  0  0  0  0  2  0  0  0  0  0  0
  193.6170  174.7610  144.8040 C   0  0  2  0  0  0  0  0  0  0  0  0
  190.1650  173.7480  140.3110 C   0  0  1  0  0  3  0  0  0  0  0  0
  191.0750  174.9700  145.4280 C   0  0  0  0  0  2  0  0  0  0  0  0
  188.8340  173.7460  141.0670 C   0  0  0  0  0  2  0  0  0  0  0  0
  193.5690  173.5670  145.7600 C   0  0  0  0  0  1  0  0  0  0  0  0
  191.4760  173.9350  142.1570 C   0  0  1  0  0  3  0  0  0  0  0  0
  193.8760  175.3060  142.4280 O   0  0  0  0  0  1  0  0  0  0  0  0
  191.1450  173.0950  141.0730 O   0  0  0  0  0  0  0  0  0  0  0  0
  190.1540  176.0710  142.6530 C   0  0  0  0  0  1  0  0  0  0  0  0
  192.3700  175.6530  144.9690 C   0  0  0  0  0  2  0  0  0  0  0  0
  193.7320  174.2580  143.3440 C   0  0  2  0  0  3  0  0  0  0  0  0
  189.9870  174.3480  143.2200 P   0  0  0  0  0  0  0  0  0  0  0  0
  190.7460  173.8340  144.6650 O   0  0  0  0  0  0  0  0  0  0  0  0
  189.8670  172.4980  137.9730 C   0  0  0  0  0  0  0  0  0  0  0  0
  189.9980  173.0640  139.0300 C   0  0  0  0  0  0  0  0  0  0  0  0
  189.7120  171.8100  136.6930 C   0  0  0  0  0  3  0  0  0  0  0  0
  189.8660  170.3170  136.8980 C   0  0  0  0  0  1  0  0  0  0  0  0
  190.7710  172.2970  135.7270 C   0  0  0  0  0  1  0  0  0  0  0  0
  195.8250  174.8520  145.8560 O   0  0  0  0  0  1  0  0  0  0  0  0
  194.8530  175.6100  145.1950 C   0  0  2  0  0  3  0  0  0  0  0  0
  193.9540  176.7250  147.1100 O   0  0  0  0  0  1  0  0  0  0  0  0
  194.5290  176.8390  145.9970 C   0  0  0  0  0  0  0  0  0  0  0  0
  194.8660  178.0990  145.5220 O   0  0  0  0  0  0  0  0  0  0  0  0
  1  4  1  0  0  0  0
  2  7  1  0  0  0  0
  3  5  1  0  0  0  0
  5  9  2  0  0  0  0
  5  2  1  0  0  0  0
  6  9  1  0  0  0  0
  7  1  1  0  0  0  0
  8  4  1  0  0  0  0
  9  8  1  0  0  0  0
 10  3  2  0  0  0  0
 10  6  1  0  0  0  0
 11 29  1  6  0  0  0
 11 10  1  0  0  0  0
 12 11  1  1  0  0  0
 13 14  1  0  0  0  0
 13 12  1  0  0  0  0
 14 12  1  0  0  0  0
 14 20  1  0  0  0  0
 15 18  1  0  0  0  0
 16 21  2  0  0  0  0
 16 20  1  0  0  0  0
 17 15  1  0  0  0  0
 19 24  1  0  0  0  0
 19 15  2  0  0  0  0
 20 17  2  0  0  0  0
 21 19  1  0  0  0  0
 22 21  1  0  0  0  0
 23 22  1  0  0  0  0
 24 25  1  0  0  0  0
 25 26  1  0  0  0  0
 27 25  1  0  0  0  0
 28 29  1  0  0  0  0
 30  3  1  0  0  0  0
 30 31  1  0  0  0  0
 32 45  1  0  0  0  0
 33 44  1  0  0  0  0
 34 43  1  0  0  0  0
 34 53  1  0  0  0  0
 34 38  1  1  0  0  0
 35 48  1  6  0  0  0
 35 37  1  0  0  0  0
 35 41  1  0  0  0  0
 37 32  1  0  0  0  0
 39 33  1  1  0  0  0
 39 45  1  0  0  0  0
 41 39  1  0  0  0  0
 42 45  1  0  0  0  0
 43 36  1  0  0  0  0
 44 40  1  6  0  0  0
 44 34  1  0  0  0  0
 45 31  1  0  0  0  0
 45 46  1  0  0  0  0
 46 36  1  0  0  0  0
 47 48  3  0  0  0  0
 49 50  1  0  0  0  0
 49 47  1  0  0  0  0
 51 49  1  0  0  0  0
 53 52  1  1  0  0  0
 53 55  1  0  0  0  0
 55 54  1  0  0  0  0
 56 55  2  0  0  0  0
M  END
>  <MODEL>
8

>  <REMARK>
 VINA RESULT:      -5.2      3.891     10.376
  Name = 
  14 active torsions:
  status: ('A' for Active; 'I' for Inactive)
    1  A    between atoms: C_1  and  C_18
    2  A    between atoms: C_2  and  O_33
    3  A    between atoms: C_2  and  P_47
    4  A    between atoms: C_5  and  O_33
    5  A    between atoms: C_6  and  N_7
    6  A    between atoms: N_7  and  C_37
    7  A    between atoms: C_12  and  C_23
    8  A    between atoms: C_13  and  C_20
    9  A    between atoms: C_15  and  C_54
   10  A    between atoms: C_18  and  C_51
   11  A    between atoms: C_18  and  O_52
   12  A    between atoms: C_23  and  C_43
   13  A    between atoms: N_34  and  C_40
   14  A    between atoms: O_35  and  C_41
                            x       y       z     vdW  Elec       q    Type
                         _______ _______ _______ _____ _____    ______ ____

>  <TORSDO>
F 14

$$$$
=
 OpenBabel11062421173D

 56 61  0  0  1  0  0  0  0  0999 V2000
  192.6940  176.6360  147.1590 C   0  0  0  0  0  2  0  0  0  0  0  0
  191.9230  174.5440  145.8890 C   0  0  0  0  0  2  0  0  0  0  0  0
  190.1060  174.9300  144.1180 C   0  0  0  0  0  0  0  0  0  0  0  0
  191.5600  176.2650  147.9980 N   0  0  0  0  0  2  0  0  0  0  0  0
  190.7170  175.2540  145.3490 C   0  0  0  0  0  0  0  0  0  0  0  0
  188.6440  176.6580  145.1880 S   0  0  0  0  0  0  0  0  0  0  0  0
  193.0760  175.4970  146.2110 C   0  0  0  0  0  2  0  0  0  0  0  0
  190.3550  176.8350  147.4010 C   0  0  0  0  0  2  0  0  0  0  0  0
  189.9990  176.2110  146.0770 C   0  0  0  0  0  0  0  0  0  0  0  0
  188.9300  175.6290  143.8890 C   0  0  0  0  0  0  0  0  0  0  0  0
  188.0710  175.4940  142.6690 C   0  0  1  0  0  3  0  0  0  0  0  0
  188.1310  176.7640  141.8360 C   0  0  1  0  0  3  0  0  0  0  0  0
  187.8090  176.5120  140.5180 C   0  0  0  0  0  2  0  0  0  0  0  0
  186.7510  177.1080  141.3850 N   0  0  0  0  0  0  0  0  0  0  0  0
  183.1850  178.0170  140.8350 C   0  0  0  0  0  0  0  0  0  0  0  0
  185.1020  178.1290  142.8690 C   0  0  0  0  0  3  0  0  0  0  0  0
  184.4770  177.5410  140.6140 C   0  0  0  0  0  3  0  0  0  0  0  0
  182.2750  177.9660  139.7870 O   0  0  0  0  0  1  0  0  0  0  0  0
  182.8320  178.5460  142.1000 C   0  0  0  0  0  0  0  0  0  0  0  0
  185.4340  177.5930  141.6270 C   0  0  0  0  0  0  0  0  0  0  0  0
  183.8050  178.6070  143.1140 C   0  0  0  0  0  0  0  0  0  0  0  0
  183.4580  179.1410  144.3610 O   0  0  0  0  0  0  0  0  0  0  0  0
  184.0690  178.7240  145.5750 C   0  0  0  0  0  1  0  0  0  0  0  0
  181.5150  179.0440  142.3910 N   0  0  0  0  0  2  0  0  0  0  0  0
  180.3260  178.8540  141.5740 C   0  0  0  0  0  3  0  0  0  0  0  0
  179.9930  180.1510  140.8650 C   0  0  0  0  0  1  0  0  0  0  0  0
  179.1570  178.4590  142.4580 C   0  0  0  0  0  1  0  0  0  0  0  0
  187.4740  173.4580  142.0280 C   0  0  0  0  0  1  0  0  0  0  0  0
  188.4930  174.4020  141.9040 O   0  0  0  0  0  0  0  0  0  0  0  0
  190.5880  173.9990  143.1910 O   0  0  0  0  0  0  0  0  0  0  0  0
  190.7760  172.6230  143.4930 C   0  0  0  0  0  2  0  0  0  0  0  0
  190.7910  171.3410  141.3670 O   0  0  0  0  0  0  0  0  0  0  0  0
  194.2670  170.2000  141.6940 C   0  0  0  0  0  2  0  0  0  0  0  0
  195.6130  170.8530  143.8210 C   0  0  2  0  0  0  0  0  0  0  0  0
  192.0760  171.9570  139.4180 C   0  0  1  0  0  3  0  0  0  0  0  0
  193.2370  171.6360  144.6190 C   0  0  0  0  0  2  0  0  0  0  0  0
  190.7930  172.1640  140.2270 C   0  0  0  0  0  2  0  0  0  0  0  0
  195.2030  169.5350  144.4840 C   0  0  0  0  0  1  0  0  0  0  0  0
  193.3590  171.3210  141.1810 C   0  0  1  0  0  3  0  0  0  0  0  0
  196.0520  171.8370  141.6200 O   0  0  0  0  0  1  0  0  0  0  0  0
  192.8090  170.8900  139.9550 O   0  0  0  0  0  0  0  0  0  0  0  0
  192.7180  173.5710  142.2220 C   0  0  0  0  0  1  0  0  0  0  0  0
  194.6820  172.0020  144.2540 C   0  0  0  0  0  2  0  0  0  0  0  0
  195.5940  170.6920  142.2820 C   0  0  2  0  0  3  0  0  0  0  0  0
  192.0430  171.8880  142.3920 P   0  0  0  0  0  0  0  0  0  0  0  0
  192.5980  170.8540  143.6380 O   0  0  0  0  0  0  0  0  0  0  0  0
  191.4530  171.4340  136.8770 C   0  0  0  0  0  0  0  0  0  0  0  0
  191.7320  171.6680  138.0260 C   0  0  0  0  0  0  0  0  0  0  0  0
  191.1190  171.1510  135.4810 C   0  0  0  0  0  3  0  0  0  0  0  0
  189.6880  171.5650  135.2100 C   0  0  0  0  0  1  0  0  0  0  0  0
  191.2740  169.6690  135.2160 C   0  0  0  0  0  1  0  0  0  0  0  0
  197.5080  170.2540  145.2510 O   0  0  0  0  0  1  0  0  0  0  0  0
  197.0390  171.1920  144.3250 C   0  0  2  0  0  3  0  0  0  0  0  0
  197.1730  172.7560  146.1280 O   0  0  0  0  0  1  0  0  0  0  0  0
  197.1830  172.5790  144.8830 C   0  0  0  0  0  0  0  0  0  0  0  0
  197.3340  173.6680  144.0350 O   0  0  0  0  0  0  0  0  0  0  0  0
  1  4  1  0  0  0  0
  2  7  1  0  0  0  0
  3  5  1  0  0  0  0
  5  2  1  0  0  0  0
  5  9  2  0  0  0  0
  6  9  1  0  0  0  0
  7  1  1  0  0  0  0
  8  4  1  0  0  0  0
  9  8  1  0  0  0  0
 10  3  2  0  0  0  0
 10  6  1  0  0  0  0
 11 29  1  6  0  0  0
 11 10  1  0  0  0  0
 12 11  1  1  0  0  0
 13 14  1  0  0  0  0
 13 12  1  0  0  0  0
 14 20  1  0  0  0  0
 14 12  1  0  0  0  0
 15 19  1  0  0  0  0
 16 21  1  0  0  0  0
 17 15  2  0  0  0  0
 17 20  1  0  0  0  0
 18 15  1  0  0  0  0
 19 24  1  0  0  0  0
 19 21  2  0  0  0  0
 20 16  2  0  0  0  0
 21 22  1  0  0  0  0
 22 23  1  0  0  0  0
 25 24  1  0  0  0  0
 25 27  1  0  0  0  0
 26 25  1  0  0  0  0
 29 28  1  0  0  0  0
 30 31  1  0  0  0  0
 30  3  1  0  0  0  0
 32 45  1  0  0  0  0
 33 44  1  0  0  0  0
 34 43  1  0  0  0  0
 34 53  1  0  0  0  0
 34 38  1  1  0  0  0
 35 48  1  6  0  0  0
 35 41  1  0  0  0  0
 35 37  1  0  0  0  0
 37 32  1  0  0  0  0
 39 33  1  1  0  0  0
 39 45  1  0  0  0  0
 41 39  1  0  0  0  0
 42 45  1  0  0  0  0
 43 36  1  0  0  0  0
 44 40  1  6  0  0  0
 44 34  1  0  0  0  0
 45 31  1  0  0  0  0
 45 46  1  0  0  0  0
 46 36  1  0  0  0  0
 47 48  3  0  0  0  0
 49 47  1  0  0  0  0
 50 49  1  0  0  0  0
 51 49  1  0  0  0  0
 53 55  1  0  0  0  0
 53 52  1  1  0  0  0
 55 54  1  0  0  0  0
 56 55  2  0  0  0  0
M  END
>  <MODEL>
9

>  <REMARK>
 VINA RESULT:      -5.1      2.730      9.303
  Name = 
  14 active torsions:
  status: ('A' for Active; 'I' for Inactive)
    1  A    between atoms: C_1  and  C_18
    2  A    between atoms: C_2  and  O_33
    3  A    between atoms: C_2  and  P_47
    4  A    between atoms: C_5  and  O_33
    5  A    between atoms: C_6  and  N_7
    6  A    between atoms: N_7  and  C_37
    7  A    between atoms: C_12  and  C_23
    8  A    between atoms: C_13  and  C_20
    9  A    between atoms: C_15  and  C_54
   10  A    between atoms: C_18  and  C_51
   11  A    between atoms: C_18  and  O_52
   12  A    between atoms: C_23  and  C_43
   13  A    between atoms: N_34  and  C_40
   14  A    between atoms: O_35  and  C_41
                            x       y       z     vdW  Elec       q    Type
                         _______ _______ _______ _____ _____    ______ ____

>  <TORSDO>
F 14

$$$$
