=
 OpenBabel11062418313D

 54 58  0  0  1  0  0  0  0  0999 V2000
  190.1870  173.5520  139.9780 C   0  0  0  0  0  0  0  0  0  0  0  0
  190.6400  172.0570  138.1050 C   0  0  0  0  0  0  0  0  0  0  0  0
  188.2620  172.3180  138.9090 C   0  0  0  0  0  1  0  0  0  0  0  0
  192.0010  172.3840  138.1990 C   0  0  0  0  0  3  0  0  0  0  0  0
  189.7230  172.6480  139.0000 C   0  0  0  0  0  0  0  0  0  0  0  0
  192.4630  173.2530  139.1900 C   0  0  0  0  0  0  0  0  0  0  0  0
  191.5500  173.8490  140.0640 C   0  0  0  0  0  3  0  0  0  0  0  0
  190.1640  171.1030  137.0270 C   0  0  1  0  0  3  0  0  0  0  0  0
  191.2990  170.4130  136.2880 C   0  0  0  0  0  2  0  0  0  0  0  0
  190.4920  169.6210  137.2970 C   0  0  1  0  0  3  0  0  0  0  0  0
  191.3600  169.3570  138.5260 C   0  0  0  0  0  2  0  0  0  0  0  0
  190.5920  168.5480  139.5580 C   0  0  0  0  0  2  0  0  0  0  0  0
  192.7920  168.1660  140.3510 F   0  0  0  0  0  0  0  0  0  0  0  0
  191.4690  168.2060  140.7520 C   0  0  1  0  0  3  0  0  0  0  0  0
  190.3550  170.2120  141.7480 O   0  0  0  0  0  0  0  0  0  0  0  0
  192.0710  169.1640  142.8480 O   0  0  0  0  0  1  0  0  0  0  0  0
  191.3160  169.2110  141.8440 C   0  0  0  0  0  0  0  0  0  0  0  0
  194.6940  172.7770  140.2610 N   0  0  0  0  0  0  0  0  0  0  0  0
  194.2490  174.0650  140.5150 O   0  0  0  0  0  0  0  0  0  0  0  0
  193.9380  173.5630  139.2870 C   0  0  2  0  0  3  0  0  0  0  0  0
  193.8850  171.8960  141.1060 C   0  0  0  0  0  2  0  0  0  0  0  0
  194.7480  171.2840  142.1960 C   0  0  0  0  0  2  0  0  0  0  0  0
  194.6450  172.0750  143.4130 N   0  0  0  0  0  2  0  0  0  0  0  0
  195.9540  171.3050  145.5680 S   0  0  0  0  0  0  0  0  0  0  0  0
  195.7250  172.3320  144.3200 C   0  0  0  0  0  0  0  0  0  0  0  0
  196.6580  173.4030  144.1350 N   0  0  0  0  0  2  0  0  0  0  0  0
  196.5480  174.4260  143.1080 C   0  0  0  0  0  2  0  0  0  0  0  0
  196.4350  175.8020  143.7540 C   0  0  1  0  0  3  0  0  0  0  0  0
  196.9690  176.8250  142.8660 N   0  0  0  0  0  2  0  0  0  0  0  0
  196.2400  176.7260  141.6120 C   0  0  0  0  0  1  0  0  0  0  0  0
  194.9970  176.1360  144.1610 C   0  0  0  0  0  2  0  0  0  0  0  0
  194.8360  176.3190  145.6350 C   0  0  0  0  0  0  0  0  0  0  0  0
  194.6690  177.5920  146.1660 O   0  0  0  0  0  0  0  0  0  0  0  0
  194.8360  175.3170  146.3940 O   0  0  0  0  0  1  0  0  0  0  0  0
  189.2550  174.2450  140.9270 C   0  0  0  0  0  2  0  0  0  0  0  0
  189.9340  175.7020  144.3410 O   0  0  0  0  0  0  0  0  0  0  0  0
  189.6400  173.0970  143.1520 C   0  0  0  0  0  2  0  0  0  0  0  0
  189.3180  175.5830  143.0730 C   0  0  1  0  0  3  0  0  0  0  0  0
  190.1660  173.2860  144.5730 C   0  0  0  0  0  0  0  0  0  0  0  0
  189.7640  172.1880  145.3340 O   0  0  0  0  0  1  0  0  0  0  0  0
  189.5820  174.5960  145.1560 C   0  0  1  0  0  3  0  0  0  0  0  0
  189.8620  174.3600  142.3240 C   0  0  2  0  0  3  0  0  0  0  0  0
  191.5610  173.3450  144.5520 O   0  0  0  0  0  1  0  0  0  0  0  0
  186.2900  178.6830  142.0750 N   0  0  0  0  0  0  0  0  0  0  0  0
  185.3340  177.9170  142.4840 C   0  0  0  0  0  0  0  0  0  0  0  0
  187.0380  176.6590  142.8050 C   0  0  0  0  0  0  0  0  0  0  0  0
  183.9100  178.3400  142.4650 C   0  0  0  0  0  1  0  0  0  0  0  0
  185.7580  176.6470  142.9510 N   0  0  0  0  0  0  0  0  0  0  0  0
  187.5330  177.9450  142.2410 C   0  0  0  0  0  2  0  0  0  0  0  0
  187.8590  175.5530  143.1830 N   0  0  0  0  0  2  0  0  0  0  0  0
  190.0210  174.8600  146.6070 C   0  0  2  0  0  3  0  0  0  0  0  0
  188.9700  174.5940  147.4860 O   0  0  0  0  0  1  0  0  0  0  0  0
  189.3290  177.0950  147.1120 O   0  0  0  0  0  1  0  0  0  0  0  0
  190.4390  176.3110  146.7950 C   0  0  0  0  0  2  0  0  0  0  0  0
  1  7  1  0  0  0  0
  1 35  1  0  0  0  0
  2  4  2  0  0  0  0
  2  5  1  0  0  0  0
  3  5  1  0  0  0  0
  4  6  1  0  0  0  0
  5  1  2  0  0  0  0
  6  7  2  0  0  0  0
  8 10  1  0  0  0  0
  8  2  1  1  0  0  0
  9  8  1  0  0  0  0
  9 10  1  0  0  0  0
 10 11  1  1  0  0  0
 11 12  1  0  0  0  0
 12 14  1  0  0  0  0
 14 13  1  6  0  0  0
 14 17  1  0  0  0  0
 15 17  2  0  0  0  0
 17 16  1  0  0  0  0
 18 19  1  0  0  0  0
 18 21  1  0  0  0  0
 20  6  1  1  0  0  0
 20 18  1  0  0  0  0
 20 19  1  0  0  0  0
 21 22  1  0  0  0  0
 22 23  1  0  0  0  0
 23 25  1  0  0  0  0
 25 24  2  0  0  0  0
 26 25  1  0  0  0  0
 27 26  1  0  0  0  0
 28 27  1  6  0  0  0
 28 31  1  0  0  0  0
 29 28  1  0  0  0  0
 30 29  1  0  0  0  0
 31 32  1  0  0  0  0
 32 33  2  0  0  0  0
 32 34  1  0  0  0  0
 36 41  1  0  0  0  0
 37 39  1  0  0  0  0
 38 50  1  1  0  0  0
 38 36  1  0  0  0  0
 39 41  1  0  0  0  0
 39 40  1  0  0  0  0
 41 51  1  1  0  0  0
 42 35  1  6  0  0  0
 42 38  1  0  0  0  0
 42 37  1  0  0  0  0
 43 39  1  0  0  0  0
 44 49  1  0  0  0  0
 44 45  2  0  0  0  0
 45 48  1  0  0  0  0
 46 48  2  0  0  0  0
 46 50  1  0  0  0  0
 47 45  1  0  0  0  0
 49 46  1  0  0  0  0
 51 54  1  0  0  0  0
 51 52  1  1  0  0  0
 54 53  1  0  0  0  0
M  END
>  <MODEL>
1

>  <REMARK>
 VINA RESULT:      -5.7      0.000      0.000
  Name = 
  21 active torsions:
  status: ('A' for Active; 'I' for Inactive)
    1  A    between atoms: C_1  and  C_35
    2  A    between atoms: C_2  and  C_6
    3  A    between atoms: C_5  and  C_8
    4  A    between atoms: C_5  and  C_48
    5  A    between atoms: N_12  and  C_38
    6  A    between atoms: N_12  and  C_44
    7  A    between atoms: C_17  and  C_41
    8  A    between atoms: C_17  and  C_51
    9  A    between atoms: N_18  and  C_42
   10  A    between atoms: C_19  and  N_31
   11  A    between atoms: C_21  and  C_43
   12  A    between atoms: C_21  and  C_47
   13  A    between atoms: C_23  and  C_37
   14  A    between atoms: C_23  and  C_47
   15  A    between atoms: N_27  and  C_48
   16  A    between atoms: C_35  and  C_46
   17  A    between atoms: N_36  and  C_44
   18  A    between atoms: N_36  and  C_54
   19  A    between atoms: C_38  and  C_42
   20  A    between atoms: C_45  and  C_50
   21  A    between atoms: C_48  and  C_54
                            x       y       z     vdW  Elec       q    Type
                         _______ _______ _______ _____ _____    ______ ____

>  <TORSDO>
F 21

$$$$
=
 OpenBabel11062418313D

 54 58  0  0  1  0  0  0  0  0999 V2000
  191.6190  171.3130  141.9120 C   0  0  0  0  0  0  0  0  0  0  0  0
  190.9790  171.5970  139.5750 C   0  0  0  0  0  0  0  0  0  0  0  0
  193.2230  170.5720  140.1100 C   0  0  0  0  0  1  0  0  0  0  0  0
  189.7600  172.1470  139.9960 C   0  0  0  0  0  3  0  0  0  0  0  0
  191.9170  171.1730  140.5410 C   0  0  0  0  0  0  0  0  0  0  0  0
  189.4800  172.3160  141.3540 C   0  0  0  0  0  0  0  0  0  0  0  0
  190.4040  171.8800  142.3080 C   0  0  0  0  0  3  0  0  0  0  0  0
  191.2640  171.4320  138.0950 C   0  0  1  0  0  3  0  0  0  0  0  0
  190.4530  172.3700  137.2170 C   0  0  0  0  0  2  0  0  0  0  0  0
  191.9250  172.6570  137.4330 C   0  0  1  0  0  3  0  0  0  0  0  0
  192.0620  173.8890  138.3260 C   0  0  0  0  0  2  0  0  0  0  0  0
  193.5000  174.3810  138.3420 C   0  0  0  0  0  2  0  0  0  0  0  0
  195.0110  173.0740  139.6170 F   0  0  0  0  0  0  0  0  0  0  0  0
  194.1450  174.1500  139.7000 C   0  0  1  0  0  3  0  0  0  0  0  0
  196.1480  175.6460  139.6170 O   0  0  0  0  0  0  0  0  0  0  0  0
  194.4080  176.1030  141.0370 O   0  0  0  0  0  1  0  0  0  0  0  0
  194.8990  175.3550  140.1530 C   0  0  0  0  0  0  0  0  0  0  0  0
  188.1640  174.3980  141.8900 N   0  0  0  0  0  0  0  0  0  0  0  0
  188.2970  173.5600  142.9850 O   0  0  0  0  0  0  0  0  0  0  0  0
  188.1710  172.9400  141.7780 C   0  0  2  0  0  3  0  0  0  0  0  0
  189.4700  175.0380  141.7110 C   0  0  0  0  0  2  0  0  0  0  0  0
  189.6010  176.2240  142.6510 C   0  0  0  0  0  2  0  0  0  0  0  0
  189.0090  177.4060  142.0440 N   0  0  0  0  0  2  0  0  0  0  0  0
  186.7450  177.6960  140.7250 S   0  0  0  0  0  0  0  0  0  0  0  0
  187.6190  177.7510  142.1020 C   0  0  0  0  0  0  0  0  0  0  0  0
  186.9470  178.0660  143.3280 N   0  0  0  0  0  2  0  0  0  0  0  0
  185.8200  177.3220  143.8660 C   0  0  0  0  0  2  0  0  0  0  0  0
  186.1920  176.7180  145.2160 C   0  0  1  0  0  3  0  0  0  0  0  0
  187.4970  177.1980  145.6450 N   0  0  0  0  0  2  0  0  0  0  0  0
  188.0090  176.2420  146.6130 C   0  0  0  0  0  1  0  0  0  0  0  0
  185.1340  176.9950  146.2880 C   0  0  0  0  0  2  0  0  0  0  0  0
  184.7860  178.4430  146.4020 C   0  0  0  0  0  0  0  0  0  0  0  0
  185.6230  179.3090  147.0950 O   0  0  0  0  0  1  0  0  0  0  0  0
  183.7410  178.8810  145.8570 O   0  0  0  0  0  0  0  0  0  0  0  0
  192.5550  170.8390  142.9830 C   0  0  0  0  0  2  0  0  0  0  0  0
  195.1550  173.5720  143.0950 O   0  0  0  0  0  0  0  0  0  0  0  0
  194.9950  170.7540  143.6600 C   0  0  0  0  0  2  0  0  0  0  0  0
  193.8870  172.9700  143.2730 C   0  0  1  0  0  3  0  0  0  0  0  0
  196.3280  171.4930  143.5950 C   0  0  0  0  0  0  0  0  0  0  0  0
  197.2050  170.8880  144.4960 O   0  0  0  0  0  1  0  0  0  0  0  0
  196.1000  172.9780  143.9710 C   0  0  1  0  0  3  0  0  0  0  0  0
  193.9280  171.4950  142.8560 C   0  0  2  0  0  3  0  0  0  0  0  0
  196.8560  171.3960  142.3050 O   0  0  0  0  0  1  0  0  0  0  0  0
  192.2720  176.5660  145.3320 N   0  0  0  0  0  0  0  0  0  0  0  0
  192.1360  175.9050  146.4340 C   0  0  0  0  0  0  0  0  0  0  0  0
  192.9060  174.3860  145.1330 C   0  0  0  0  0  0  0  0  0  0  0  0
  191.6160  176.5280  147.6780 C   0  0  0  0  0  1  0  0  0  0  0  0
  192.5230  174.5430  146.3540 N   0  0  0  0  0  0  0  0  0  0  0  0
  192.8010  175.6420  144.3400 C   0  0  0  0  0  2  0  0  0  0  0  0
  193.3980  173.1390  144.6420 N   0  0  0  0  0  2  0  0  0  0  0  0
  197.3960  173.8070  143.9750 C   0  0  2  0  0  3  0  0  0  0  0  0
  197.7080  174.2100  145.2740 O   0  0  0  0  0  1  0  0  0  0  0  0
  196.6370  176.0720  143.8450 O   0  0  0  0  0  1  0  0  0  0  0  0
  197.2490  175.0540  143.1150 C   0  0  0  0  0  2  0  0  0  0  0  0
  1  7  1  0  0  0  0
  1 35  1  0  0  0  0
  2  4  2  0  0  0  0
  2  5  1  0  0  0  0
  3  5  1  0  0  0  0
  4  6  1  0  0  0  0
  5  1  2  0  0  0  0
  6  7  2  0  0  0  0
  8  2  1  1  0  0  0
  9 10  1  0  0  0  0
  9  8  1  0  0  0  0
 10  8  1  0  0  0  0
 10 11  1  1  0  0  0
 11 12  1  0  0  0  0
 12 14  1  0  0  0  0
 14 13  1  6  0  0  0
 14 17  1  0  0  0  0
 15 17  2  0  0  0  0
 17 16  1  0  0  0  0
 18 19  1  0  0  0  0
 20  6  1  6  0  0  0
 20 18  1  0  0  0  0
 20 19  1  0  0  0  0
 21 18  1  0  0  0  0
 21 22  1  0  0  0  0
 23 25  1  0  0  0  0
 23 22  1  0  0  0  0
 24 25  2  0  0  0  0
 25 26  1  0  0  0  0
 26 27  1  0  0  0  0
 28 27  1  6  0  0  0
 28 29  1  0  0  0  0
 28 31  1  0  0  0  0
 29 30  1  0  0  0  0
 31 32  1  0  0  0  0
 32 33  1  0  0  0  0
 34 32  2  0  0  0  0
 36 38  1  0  0  0  0
 36 41  1  0  0  0  0
 38 50  1  1  0  0  0
 39 37  1  0  0  0  0
 39 41  1  0  0  0  0
 39 40  1  0  0  0  0
 41 51  1  6  0  0  0
 42 35  1  1  0  0  0
 42 38  1  0  0  0  0
 42 37  1  0  0  0  0
 43 39  1  0  0  0  0
 44 45  2  0  0  0  0
 45 47  1  0  0  0  0
 46 48  2  0  0  0  0
 48 45  1  0  0  0  0
 49 46  1  0  0  0  0
 49 44  1  0  0  0  0
 50 46  1  0  0  0  0
 51 52  1  1  0  0  0
 54 53  1  0  0  0  0
 54 51  1  0  0  0  0
M  END
>  <MODEL>
2

>  <REMARK>
 VINA RESULT:      -5.6      3.102      7.330
  Name = 
  21 active torsions:
  status: ('A' for Active; 'I' for Inactive)
    1  A    between atoms: C_1  and  C_35
    2  A    between atoms: C_2  and  C_6
    3  A    between atoms: C_5  and  C_8
    4  A    between atoms: C_5  and  C_48
    5  A    between atoms: N_12  and  C_38
    6  A    between atoms: N_12  and  C_44
    7  A    between atoms: C_17  and  C_41
    8  A    between atoms: C_17  and  C_51
    9  A    between atoms: N_18  and  C_42
   10  A    between atoms: C_19  and  N_31
   11  A    between atoms: C_21  and  C_43
   12  A    between atoms: C_21  and  C_47
   13  A    between atoms: C_23  and  C_37
   14  A    between atoms: C_23  and  C_47
   15  A    between atoms: N_27  and  C_48
   16  A    between atoms: C_35  and  C_46
   17  A    between atoms: N_36  and  C_44
   18  A    between atoms: N_36  and  C_54
   19  A    between atoms: C_38  and  C_42
   20  A    between atoms: C_45  and  C_50
   21  A    between atoms: C_48  and  C_54
                            x       y       z     vdW  Elec       q    Type
                         _______ _______ _______ _____ _____    ______ ____

>  <TORSDO>
F 21

$$$$
=
 OpenBabel11062418313D

 54 58  0  0  1  0  0  0  0  0999 V2000
  191.1770  175.0750  143.3920 C   0  0  0  0  0  0  0  0  0  0  0  0
  192.7020  173.6840  144.6930 C   0  0  0  0  0  0  0  0  0  0  0  0
  192.9840  176.1910  144.7550 C   0  0  0  0  0  1  0  0  0  0  0  0
  192.0200  172.5460  144.2370 C   0  0  0  0  0  3  0  0  0  0  0  0
  192.2750  174.9610  144.2700 C   0  0  0  0  0  0  0  0  0  0  0  0
  190.9550  172.6590  143.3410 C   0  0  0  0  0  0  0  0  0  0  0  0
  190.5250  173.9250  142.9370 C   0  0  0  0  0  3  0  0  0  0  0  0
  193.8620  173.5360  145.6580 C   0  0  1  0  0  3  0  0  0  0  0  0
  194.4190  172.1240  145.7190 C   0  0  0  0  0  2  0  0  0  0  0  0
  195.2070  173.1920  144.9890 C   0  0  1  0  0  3  0  0  0  0  0  0
  195.1390  172.9160  143.4880 C   0  0  0  0  0  2  0  0  0  0  0  0
  196.2110  173.7030  142.7520 C   0  0  0  0  0  2  0  0  0  0  0  0
  196.9290  175.9230  142.3360 F   0  0  0  0  0  0  0  0  0  0  0  0
  195.8020  175.1560  142.5720 C   0  0  1  0  0  3  0  0  0  0  0  0
  194.9010  174.4430  140.3500 O   0  0  0  0  0  0  0  0  0  0  0  0
  194.0120  176.2500  141.4430 O   0  0  0  0  0  1  0  0  0  0  0  0
  194.8510  175.3140  141.4320 C   0  0  0  0  0  0  0  0  0  0  0  0
  190.8250  170.8040  141.6390 N   0  0  0  0  0  0  0  0  0  0  0  0
  189.7080  171.6240  141.6150 O   0  0  0  0  0  0  0  0  0  0  0  0
  190.2600  171.4130  142.8420 C   0  0  2  0  0  3  0  0  0  0  0  0
  191.9010  171.5690  141.0060 C   0  0  0  0  0  2  0  0  0  0  0  0
  192.8800  170.6270  140.3260 C   0  0  0  0  0  2  0  0  0  0  0  0
  192.7610  170.7450  138.8810 N   0  0  0  0  0  2  0  0  0  0  0  0
  190.6470  169.3190  138.2100 S   0  0  0  0  0  0  0  0  0  0  0  0
  191.5280  170.6920  138.1510 C   0  0  0  0  0  0  0  0  0  0  0  0
  190.9980  171.8160  137.4370 N   0  0  0  0  0  2  0  0  0  0  0  0
  191.4840  173.1790  137.5660 C   0  0  0  0  0  2  0  0  0  0  0  0
  190.4200  174.1590  137.0830 C   0  0  1  0  0  3  0  0  0  0  0  0
  190.7170  174.6050  135.7310 N   0  0  0  0  0  2  0  0  0  0  0  0
  189.6580  174.1000  134.8710 C   0  0  0  0  0  1  0  0  0  0  0  0
  189.0090  173.5690  137.1620 C   0  0  0  0  0  2  0  0  0  0  0  0
  188.1970  174.1450  138.2760 C   0  0  0  0  0  0  0  0  0  0  0  0
  187.4310  175.2850  138.0630 O   0  0  0  0  0  0  0  0  0  0  0  0
  188.1950  173.5880  139.4030 O   0  0  0  0  0  1  0  0  0  0  0  0
  190.6500  176.4050  142.9440 C   0  0  0  0  0  2  0  0  0  0  0  0
  187.1850  176.2790  144.4330 O   0  0  0  0  0  0  0  0  0  0  0  0
  188.5660  177.7220  142.3600 C   0  0  0  0  0  2  0  0  0  0  0  0
  188.6000  176.2940  144.4220 C   0  0  1  0  0  3  0  0  0  0  0  0
  187.0480  177.7780  142.5150 C   0  0  0  0  0  0  0  0  0  0  0  0
  186.6170  179.0400  142.1060 O   0  0  0  0  0  1  0  0  0  0  0  0
  186.6840  177.5330  144.0000 C   0  0  1  0  0  3  0  0  0  0  0  0
  189.1240  176.4470  142.9890 C   0  0  2  0  0  3  0  0  0  0  0  0
  186.4580  176.8050  141.7050 O   0  0  0  0  0  1  0  0  0  0  0  0
  190.8890  175.9100  148.2150 N   0  0  0  0  0  0  0  0  0  0  0  0
  190.9190  177.1940  148.3560 C   0  0  0  0  0  0  0  0  0  0  0  0
  189.8580  177.0060  146.5040 C   0  0  0  0  0  0  0  0  0  0  0  0
  191.5670  177.8530  149.5190 C   0  0  0  0  0  1  0  0  0  0  0  0
  190.2840  177.9150  147.3120 N   0  0  0  0  0  0  0  0  0  0  0  0
  190.1810  175.6310  146.9740 C   0  0  0  0  0  2  0  0  0  0  0  0
  189.1360  177.3230  145.3140 N   0  0  0  0  0  2  0  0  0  0  0  0
  185.1710  177.6090  144.2720 C   0  0  2  0  0  3  0  0  0  0  0  0
  184.5870  178.5940  143.4750 O   0  0  0  0  0  1  0  0  0  0  0  0
  184.8090  176.7880  146.4900 O   0  0  0  0  0  1  0  0  0  0  0  0
  184.8960  177.9530  145.7280 C   0  0  0  0  0  2  0  0  0  0  0  0
  1  5  1  0  0  0  0
  4  2  1  0  0  0  0
  5  2  2  0  0  0  0
  5  3  1  0  0  0  0
  6  4  2  0  0  0  0
  7  6  1  0  0  0  0
  7  1  2  0  0  0  0
  8  2  1  6  0  0  0
  8  9  1  0  0  0  0
 10 11  1  6  0  0  0
 10  8  1  0  0  0  0
 10  9  1  0  0  0  0
 12 11  1  0  0  0  0
 14 13  1  6  0  0  0
 14 12  1  0  0  0  0
 15 17  2  0  0  0  0
 17 16  1  0  0  0  0
 17 14  1  0  0  0  0
 18 20  1  0  0  0  0
 19 18  1  0  0  0  0
 19 20  1  0  0  0  0
 20  6  1  6  0  0  0
 21 18  1  0  0  0  0
 22 21  1  0  0  0  0
 23 22  1  0  0  0  0
 25 24  2  0  0  0  0
 25 23  1  0  0  0  0
 26 27  1  0  0  0  0
 26 25  1  0  0  0  0
 28 31  1  6  0  0  0
 28 27  1  0  0  0  0
 29 28  1  0  0  0  0
 30 29  1  0  0  0  0
 31 32  1  0  0  0  0
 32 34  1  0  0  0  0
 33 32  2  0  0  0  0
 35  1  1  0  0  0  0
 37 39  1  0  0  0  0
 37 42  1  0  0  0  0
 38 36  1  0  0  0  0
 38 50  1  1  0  0  0
 39 41  1  0  0  0  0
 40 39  1  0  0  0  0
 41 51  1  6  0  0  0
 41 36  1  0  0  0  0
 42 35  1  1  0  0  0
 42 38  1  0  0  0  0
 43 39  1  0  0  0  0
 44 45  2  0  0  0  0
 45 47  1  0  0  0  0
 46 49  1  0  0  0  0
 46 48  2  0  0  0  0
 48 45  1  0  0  0  0
 49 44  1  0  0  0  0
 50 46  1  0  0  0  0
 51 52  1  6  0  0  0
 51 54  1  0  0  0  0
 54 53  1  0  0  0  0
M  END
>  <MODEL>
3

>  <REMARK>
 VINA RESULT:      -5.5      3.472      7.128
  Name = 
  21 active torsions:
  status: ('A' for Active; 'I' for Inactive)
    1  A    between atoms: C_1  and  C_35
    2  A    between atoms: C_2  and  C_6
    3  A    between atoms: C_5  and  C_8
    4  A    between atoms: C_5  and  C_48
    5  A    between atoms: N_12  and  C_38
    6  A    between atoms: N_12  and  C_44
    7  A    between atoms: C_17  and  C_41
    8  A    between atoms: C_17  and  C_51
    9  A    between atoms: N_18  and  C_42
   10  A    between atoms: C_19  and  N_31
   11  A    between atoms: C_21  and  C_43
   12  A    between atoms: C_21  and  C_47
   13  A    between atoms: C_23  and  C_37
   14  A    between atoms: C_23  and  C_47
   15  A    between atoms: N_27  and  C_48
   16  A    between atoms: C_35  and  C_46
   17  A    between atoms: N_36  and  C_44
   18  A    between atoms: N_36  and  C_54
   19  A    between atoms: C_38  and  C_42
   20  A    between atoms: C_45  and  C_50
   21  A    between atoms: C_48  and  C_54
                            x       y       z     vdW  Elec       q    Type
                         _______ _______ _______ _____ _____    ______ ____

>  <TORSDO>
F 21

$$$$
=
 OpenBabel11062418313D

 54 58  0  0  1  0  0  0  0  0999 V2000
  190.5850  173.8240  142.6630 C   0  0  0  0  0  0  0  0  0  0  0  0
  190.9320  171.6420  141.6280 C   0  0  0  0  0  0  0  0  0  0  0  0
  189.3180  171.8330  143.5590 C   0  0  0  0  0  1  0  0  0  0  0  0
  191.8370  172.2330  140.7330 C   0  0  0  0  0  3  0  0  0  0  0  0
  190.2970  172.4450  142.6000 C   0  0  0  0  0  0  0  0  0  0  0  0
  192.1450  173.5930  140.8190 C   0  0  0  0  0  0  0  0  0  0  0  0
  191.5020  174.3870  141.7720 C   0  0  0  0  0  3  0  0  0  0  0  0
  190.6200  170.1630  141.5210 C   0  0  1  0  0  3  0  0  0  0  0  0
  191.6290  169.3920  140.6880 C   0  0  0  0  0  2  0  0  0  0  0  0
  191.6560  169.2430  142.1950 C   0  0  1  0  0  3  0  0  0  0  0  0
  192.8990  169.9450  142.7390 C   0  0  0  0  0  2  0  0  0  0  0  0
  192.8030  170.1110  144.2460 C   0  0  0  0  0  2  0  0  0  0  0  0
  194.2020  170.2030  146.1560 F   0  0  0  0  0  0  0  0  0  0  0  0
  194.1210  170.5930  144.8320 C   0  0  1  0  0  3  0  0  0  0  0  0
  195.8310  170.7340  143.0120 O   0  0  0  0  0  0  0  0  0  0  0  0
  195.7600  168.9180  144.4080 O   0  0  0  0  0  1  0  0  0  0  0  0
  195.2840  170.0350  144.0810 C   0  0  0  0  0  0  0  0  0  0  0  0
  194.5360  174.2150  140.3190 N   0  0  0  0  0  0  0  0  0  0  0  0
  193.7050  175.3220  140.3890 O   0  0  0  0  0  0  0  0  0  0  0  0
  193.1470  174.1960  139.8620 C   0  0  2  0  0  3  0  0  0  0  0  0
  194.7390  173.7750  141.7010 C   0  0  0  0  0  2  0  0  0  0  0  0
  195.7420  174.6810  142.3940 C   0  0  0  0  0  2  0  0  0  0  0  0
  196.3900  173.9630  143.4810 N   0  0  0  0  0  2  0  0  0  0  0  0
  196.8070  173.1690  145.9610 S   0  0  0  0  0  0  0  0  0  0  0  0
  196.1610  174.2040  144.8760 C   0  0  0  0  0  0  0  0  0  0  0  0
  195.4580  175.3540  145.3610 N   0  0  0  0  0  2  0  0  0  0  0  0
  194.5650  175.3530  146.5080 C   0  0  0  0  0  2  0  0  0  0  0  0
  193.4490  176.3700  146.2990 C   0  0  1  0  0  3  0  0  0  0  0  0
  193.7030  177.1660  145.1080 N   0  0  0  0  0  2  0  0  0  0  0  0
  192.5200  177.0690  144.2680 C   0  0  0  0  0  1  0  0  0  0  0  0
  192.0690  175.7110  146.2260 C   0  0  0  0  0  2  0  0  0  0  0  0
  191.2100  176.0220  147.4080 C   0  0  0  0  0  0  0  0  0  0  0  0
  191.5320  177.0860  148.2420 O   0  0  0  0  0  1  0  0  0  0  0  0
  190.1870  175.3300  147.6400 O   0  0  0  0  0  0  0  0  0  0  0  0
  189.9080  174.7340  143.6440 C   0  0  0  0  0  2  0  0  0  0  0  0
  186.6100  176.5480  143.3800 O   0  0  0  0  0  0  0  0  0  0  0  0
  189.2580  176.7640  142.2750 C   0  0  0  0  0  2  0  0  0  0  0  0
  187.6840  175.8800  144.0140 C   0  0  1  0  0  3  0  0  0  0  0  0
  188.0820  177.5670  141.7260 C   0  0  0  0  0  0  0  0  0  0  0  0
  188.5710  178.7880  141.2590 O   0  0  0  0  0  1  0  0  0  0  0  0
  187.0520  177.7900  142.8600 C   0  0  1  0  0  3  0  0  0  0  0  0
  188.7660  175.5100  142.9930 C   0  0  2  0  0  3  0  0  0  0  0  0
  187.4940  176.8720  140.6670 O   0  0  0  0  0  1  0  0  0  0  0  0
  185.6050  178.0400  147.2990 N   0  0  0  0  0  0  0  0  0  0  0  0
  186.7310  178.4630  147.7680 C   0  0  0  0  0  0  0  0  0  0  0  0
  187.3910  177.2910  146.1000 C   0  0  0  0  0  0  0  0  0  0  0  0
  186.8180  179.3410  148.9640 C   0  0  0  0  0  1  0  0  0  0  0  0
  187.8710  178.0220  147.0470 N   0  0  0  0  0  0  0  0  0  0  0  0
  185.9050  177.2170  146.1370 C   0  0  0  0  0  2  0  0  0  0  0  0
  188.2250  176.6640  145.1250 N   0  0  0  0  0  2  0  0  0  0  0  0
  185.8400  178.6300  142.4190 C   0  0  2  0  0  3  0  0  0  0  0  0
  185.6390  179.6900  143.3020 O   0  0  0  0  0  1  0  0  0  0  0  0
  183.8780  177.9960  141.2040 O   0  0  0  0  0  1  0  0  0  0  0  0
  184.5730  177.7870  142.3960 C   0  0  0  0  0  2  0  0  0  0  0  0
  1 35  1  0  0  0  0
  2  5  2  0  0  0  0
  4  6  2  0  0  0  0
  4  2  1  0  0  0  0
  5  1  1  0  0  0  0
  5  3  1  0  0  0  0
  6  7  1  0  0  0  0
  7  1  2  0  0  0  0
  8  2  1  1  0  0  0
  8 10  1  0  0  0  0
  9  8  1  0  0  0  0
  9 10  1  0  0  0  0
 10 11  1  1  0  0  0
 11 12  1  0  0  0  0
 12 14  1  0  0  0  0
 14 13  1  1  0  0  0
 15 17  2  0  0  0  0
 17 16  1  0  0  0  0
 17 14  1  0  0  0  0
 18 19  1  0  0  0  0
 18 21  1  0  0  0  0
 20 18  1  0  0  0  0
 20 19  1  0  0  0  0
 20  6  1  1  0  0  0
 21 22  1  0  0  0  0
 22 23  1  0  0  0  0
 23 25  1  0  0  0  0
 25 26  1  0  0  0  0
 25 24  2  0  0  0  0
 26 27  1  0  0  0  0
 28 31  1  6  0  0  0
 28 27  1  0  0  0  0
 29 28  1  0  0  0  0
 30 29  1  0  0  0  0
 31 32  1  0  0  0  0
 32 34  2  0  0  0  0
 32 33  1  0  0  0  0
 36 38  1  0  0  0  0
 37 42  1  0  0  0  0
 38 50  1  1  0  0  0
 39 37  1  0  0  0  0
 39 41  1  0  0  0  0
 40 39  1  0  0  0  0
 41 51  1  6  0  0  0
 41 36  1  0  0  0  0
 42 35  1  1  0  0  0
 42 38  1  0  0  0  0
 43 39  1  0  0  0  0
 44 45  2  0  0  0  0
 45 47  1  0  0  0  0
 46 49  1  0  0  0  0
 46 48  2  0  0  0  0
 48 45  1  0  0  0  0
 49 44  1  0  0  0  0
 50 46  1  0  0  0  0
 51 52  1  1  0  0  0
 53 54  1  0  0  0  0
 54 51  1  0  0  0  0
M  END
>  <MODEL>
4

>  <REMARK>
 VINA RESULT:      -5.4      2.885      4.509
  Name = 
  21 active torsions:
  status: ('A' for Active; 'I' for Inactive)
    1  A    between atoms: C_1  and  C_35
    2  A    between atoms: C_2  and  C_6
    3  A    between atoms: C_5  and  C_8
    4  A    between atoms: C_5  and  C_48
    5  A    between atoms: N_12  and  C_38
    6  A    between atoms: N_12  and  C_44
    7  A    between atoms: C_17  and  C_41
    8  A    between atoms: C_17  and  C_51
    9  A    between atoms: N_18  and  C_42
   10  A    between atoms: C_19  and  N_31
   11  A    between atoms: C_21  and  C_43
   12  A    between atoms: C_21  and  C_47
   13  A    between atoms: C_23  and  C_37
   14  A    between atoms: C_23  and  C_47
   15  A    between atoms: N_27  and  C_48
   16  A    between atoms: C_35  and  C_46
   17  A    between atoms: N_36  and  C_44
   18  A    between atoms: N_36  and  C_54
   19  A    between atoms: C_38  and  C_42
   20  A    between atoms: C_45  and  C_50
   21  A    between atoms: C_48  and  C_54
                            x       y       z     vdW  Elec       q    Type
                         _______ _______ _______ _____ _____    ______ ____

>  <TORSDO>
F 21

$$$$
=
 OpenBabel11062418313D

 54 58  0  0  1  0  0  0  0  0999 V2000
  192.6210  175.1530  143.0380 C   0  0  0  0  0  0  0  0  0  0  0  0
  193.5310  172.9110  142.7300 C   0  0  0  0  0  0  0  0  0  0  0  0
  192.1340  173.3900  144.7760 C   0  0  0  0  0  1  0  0  0  0  0  0
  194.1150  173.3360  141.5270 C   0  0  0  0  0  3  0  0  0  0  0  0
  192.7740  173.8270  143.4920 C   0  0  0  0  0  0  0  0  0  0  0  0
  193.9900  174.6580  141.0960 C   0  0  0  0  0  0  0  0  0  0  0  0
  193.2260  175.5570  141.8450 C   0  0  0  0  0  3  0  0  0  0  0  0
  193.6890  171.4730  143.1820 C   0  0  1  0  0  3  0  0  0  0  0  0
  194.8950  170.7780  142.5730 C   0  0  0  0  0  2  0  0  0  0  0  0
  194.9510  171.2050  144.0250 C   0  0  1  0  0  3  0  0  0  0  0  0
  195.9130  172.3840  144.1570 C   0  0  0  0  0  2  0  0  0  0  0  0
  195.7280  173.0760  145.4970 C   0  0  0  0  0  2  0  0  0  0  0  0
  196.9700  174.6830  144.2770 F   0  0  0  0  0  0  0  0  0  0  0  0
  196.3140  174.4800  145.4770 C   0  0  1  0  0  3  0  0  0  0  0  0
  195.2220  176.6290  144.8090 O   0  0  0  0  0  0  0  0  0  0  0  0
  194.3830  175.3830  146.5400 O   0  0  0  0  0  1  0  0  0  0  0  0
  195.2500  175.5130  145.6390 C   0  0  0  0  0  0  0  0  0  0  0  0
  193.9190  174.8110  138.5810 N   0  0  0  0  0  0  0  0  0  0  0  0
  194.9610  174.0180  139.0340 O   0  0  0  0  0  0  0  0  0  0  0  0
  194.6560  175.0940  139.8120 C   0  0  2  0  0  3  0  0  0  0  0  0
  192.7010  174.0170  138.7590 C   0  0  0  0  0  2  0  0  0  0  0  0
  192.0300  173.7850  137.4160 C   0  0  0  0  0  2  0  0  0  0  0  0
  190.5860  173.8820  137.5600 N   0  0  0  0  0  2  0  0  0  0  0  0
  189.4590  172.2060  135.8640 S   0  0  0  0  0  0  0  0  0  0  0  0
  189.6660  172.7980  137.3710 C   0  0  0  0  0  0  0  0  0  0  0  0
  188.9820  172.1610  138.4570 N   0  0  0  0  0  2  0  0  0  0  0  0
  189.1270  172.5310  139.8550 C   0  0  0  0  0  2  0  0  0  0  0  0
  190.3400  171.8290  140.4560 C   0  0  1  0  0  3  0  0  0  0  0  0
  190.2070  171.7360  141.9020 N   0  0  0  0  0  2  0  0  0  0  0  0
  189.1500  172.6530  142.2960 C   0  0  0  0  0  1  0  0  0  0  0  0
  190.5720  170.4450  139.8440 C   0  0  0  0  0  2  0  0  0  0  0  0
  191.8740  170.3400  139.1180 C   0  0  0  0  0  0  0  0  0  0  0  0
  191.8920  170.0540  137.7580 O   0  0  0  0  0  0  0  0  0  0  0  0
  192.9530  170.5250  139.7360 O   0  0  0  0  0  1  0  0  0  0  0  0
  191.7920  176.1580  143.7810 C   0  0  0  0  0  2  0  0  0  0  0  0
  188.0410  175.9130  144.1110 O   0  0  0  0  0  0  0  0  0  0  0  0
  189.9520  177.3160  142.4790 C   0  0  0  0  0  2  0  0  0  0  0  0
  189.3840  176.0100  144.5430 C   0  0  1  0  0  3  0  0  0  0  0  0
  188.4630  177.2920  142.1450 C   0  0  0  0  0  0  0  0  0  0  0  0
  188.1370  178.5010  141.5310 O   0  0  0  0  0  1  0  0  0  0  0  0
  187.6560  177.1090  143.4540 C   0  0  1  0  0  3  0  0  0  0  0  0
  190.3300  176.1130  143.3400 C   0  0  2  0  0  3  0  0  0  0  0  0
  188.1980  176.2420  141.2620 O   0  0  0  0  0  1  0  0  0  0  0  0
  191.4170  176.1240  148.4970 N   0  0  0  0  0  0  0  0  0  0  0  0
  191.1040  177.3680  148.6510 C   0  0  0  0  0  0  0  0  0  0  0  0
  190.2630  176.9650  146.7210 C   0  0  0  0  0  0  0  0  0  0  0  0
  191.4730  178.1390  149.8650 C   0  0  0  0  0  1  0  0  0  0  0  0
  190.3800  177.9300  147.5680 N   0  0  0  0  0  0  0  0  0  0  0  0
  190.8960  175.7060  147.2040 C   0  0  0  0  0  2  0  0  0  0  0  0
  189.5700  177.1170  145.4820 N   0  0  0  0  0  2  0  0  0  0  0  0
  186.1330  177.1130  143.2300 C   0  0  2  0  0  3  0  0  0  0  0  0
  185.6950  178.3980  142.9100 O   0  0  0  0  0  1  0  0  0  0  0  0
  185.0970  177.7590  145.2880 O   0  0  0  0  0  1  0  0  0  0  0  0
  185.3980  176.6600  144.4830 C   0  0  0  0  0  2  0  0  0  0  0  0
  1  5  1  0  0  0  0
  1 35  1  0  0  0  0
  2  5  2  0  0  0  0
  4  2  1  0  0  0  0
  5  3  1  0  0  0  0
  6  4  2  0  0  0  0
  6  7  1  0  0  0  0
  7  1  2  0  0  0  0
  8  2  1  6  0  0  0
  8 10  1  0  0  0  0
  9  8  1  0  0  0  0
  9 10  1  0  0  0  0
 10 11  1  6  0  0  0
 11 12  1  0  0  0  0
 14 13  1  6  0  0  0
 14 12  1  0  0  0  0
 14 17  1  0  0  0  0
 15 17  2  0  0  0  0
 17 16  1  0  0  0  0
 18 21  1  0  0  0  0
 18 19  1  0  0  0  0
 18 20  1  0  0  0  0
 19 20  1  0  0  0  0
 20  6  1  1  0  0  0
 22 23  1  0  0  0  0
 22 21  1  0  0  0  0
 24 25  2  0  0  0  0
 25 23  1  0  0  0  0
 25 26  1  0  0  0  0
 26 27  1  0  0  0  0
 27 28  1  0  0  0  0
 28 31  1  6  0  0  0
 28 29  1  0  0  0  0
 29 30  1  0  0  0  0
 32 34  1  0  0  0  0
 32 31  1  0  0  0  0
 33 32  2  0  0  0  0
 36 38  1  0  0  0  0
 37 42  1  0  0  0  0
 38 50  1  1  0  0  0
 39 37  1  0  0  0  0
 39 41  1  0  0  0  0
 40 39  1  0  0  0  0
 41 51  1  6  0  0  0
 41 36  1  0  0  0  0
 42 35  1  1  0  0  0
 42 38  1  0  0  0  0
 43 39  1  0  0  0  0
 44 45  2  0  0  0  0
 45 47  1  0  0  0  0
 46 49  1  0  0  0  0
 46 48  2  0  0  0  0
 48 45  1  0  0  0  0
 49 44  1  0  0  0  0
 50 46  1  0  0  0  0
 51 52  1  1  0  0  0
 51 54  1  0  0  0  0
 54 53  1  0  0  0  0
M  END
>  <MODEL>
5

>  <REMARK>
 VINA RESULT:      -5.4      3.386      6.923
  Name = 
  21 active torsions:
  status: ('A' for Active; 'I' for Inactive)
    1  A    between atoms: C_1  and  C_35
    2  A    between atoms: C_2  and  C_6
    3  A    between atoms: C_5  and  C_8
    4  A    between atoms: C_5  and  C_48
    5  A    between atoms: N_12  and  C_38
    6  A    between atoms: N_12  and  C_44
    7  A    between atoms: C_17  and  C_41
    8  A    between atoms: C_17  and  C_51
    9  A    between atoms: N_18  and  C_42
   10  A    between atoms: C_19  and  N_31
   11  A    between atoms: C_21  and  C_43
   12  A    between atoms: C_21  and  C_47
   13  A    between atoms: C_23  and  C_37
   14  A    between atoms: C_23  and  C_47
   15  A    between atoms: N_27  and  C_48
   16  A    between atoms: C_35  and  C_46
   17  A    between atoms: N_36  and  C_44
   18  A    between atoms: N_36  and  C_54
   19  A    between atoms: C_38  and  C_42
   20  A    between atoms: C_45  and  C_50
   21  A    between atoms: C_48  and  C_54
                            x       y       z     vdW  Elec       q    Type
                         _______ _______ _______ _____ _____    ______ ____

>  <TORSDO>
F 21

$$$$
=
 OpenBabel11062418313D

 54 58  0  0  1  0  0  0  0  0999 V2000
  189.0760  174.1810  142.8760 C   0  0  0  0  0  0  0  0  0  0  0  0
  188.5820  176.5440  142.5270 C   0  0  0  0  0  0  0  0  0  0  0  0
  188.1910  174.9240  140.6320 C   0  0  0  0  0  1  0  0  0  0  0  0
  188.9840  176.8020  143.8470 C   0  0  0  0  0  3  0  0  0  0  0  0
  188.6260  175.2210  142.0370 C   0  0  0  0  0  0  0  0  0  0  0  0
  189.4610  175.7750  144.6640 C   0  0  0  0  0  0  0  0  0  0  0  0
  189.4870  174.4640  144.1810 C   0  0  0  0  0  3  0  0  0  0  0  0
  188.0770  177.6760  141.6560 C   0  0  1  0  0  3  0  0  0  0  0  0
  186.9660  177.2580  140.7060 C   0  0  0  0  0  2  0  0  0  0  0  0
  186.6160  178.0860  141.9260 C   0  0  1  0  0  3  0  0  0  0  0  0
  185.8630  177.2040  142.9210 C   0  0  0  0  0  2  0  0  0  0  0  0
  185.1320  178.0580  143.9440 C   0  0  0  0  0  2  0  0  0  0  0  0
  185.9050  180.1110  144.8390 F   0  0  0  0  0  0  0  0  0  0  0  0
  186.1080  178.7440  144.8870 C   0  0  1  0  0  3  0  0  0  0  0  0
  184.8310  178.6770  147.0370 O   0  0  0  0  0  1  0  0  0  0  0  0
  186.7870  177.5060  146.8060 O   0  0  0  0  0  0  0  0  0  0  0  0
  185.9300  178.2680  146.2900 C   0  0  0  0  0  0  0  0  0  0  0  0
  191.3380  176.3870  146.2320 N   0  0  0  0  0  0  0  0  0  0  0  0
  190.7920  175.1450  146.5190 O   0  0  0  0  0  0  0  0  0  0  0  0
  189.9160  176.0870  146.0710 C   0  0  2  0  0  3  0  0  0  0  0  0
  192.1480  176.2030  145.0270 C   0  0  0  0  0  2  0  0  0  0  0  0
  193.5590  176.7130  145.2650 C   0  0  0  0  0  2  0  0  0  0  0  0
  194.4710  175.5920  145.4330 N   0  0  0  0  0  2  0  0  0  0  0  0
  196.0560  176.4690  143.5180 S   0  0  0  0  0  0  0  0  0  0  0  0
  195.6420  175.3590  144.6400 C   0  0  0  0  0  0  0  0  0  0  0  0
  196.5070  174.2340  144.8420 N   0  0  0  0  0  2  0  0  0  0  0  0
  196.2790  173.1830  145.8200 C   0  0  0  0  0  2  0  0  0  0  0  0
  196.4200  171.8160  145.1580 C   0  0  1  0  0  3  0  0  0  0  0  0
  197.3730  171.8800  144.0600 N   0  0  0  0  0  2  0  0  0  0  0  0
  196.9680  170.8830  143.0820 C   0  0  0  0  0  1  0  0  0  0  0  0
  196.8160  170.7250  146.1560 C   0  0  0  0  0  2  0  0  0  0  0  0
  195.7330  169.7210  146.3820 C   0  0  0  0  0  0  0  0  0  0  0  0
  195.9940  168.5660  147.1100 O   0  0  0  0  0  1  0  0  0  0  0  0
  194.5800  169.9290  145.9260 O   0  0  0  0  0  0  0  0  0  0  0  0
  189.1020  172.7510  142.4260 C   0  0  0  0  0  2  0  0  0  0  0  0
  192.0320  170.8990  140.9350 O   0  0  0  0  0  0  0  0  0  0  0  0
  191.5610  173.3560  142.3590 C   0  0  0  0  0  2  0  0  0  0  0  0
  190.7190  171.4190  141.0080 C   0  0  1  0  0  3  0  0  0  0  0  0
  192.9680  172.8130  142.1220 C   0  0  0  0  0  0  0  0  0  0  0  0
  193.8360  173.8980  141.9940 O   0  0  0  0  0  1  0  0  0  0  0  0
  192.9670  171.9610  140.8290 C   0  0  1  0  0  3  0  0  0  0  0  0
  190.5320  172.2300  142.2960 C   0  0  2  0  0  3  0  0  0  0  0  0
  193.3600  172.0350  143.2140 O   0  0  0  0  0  1  0  0  0  0  0  0
  189.8210  170.0930  136.8590 N   0  0  0  0  0  0  0  0  0  0  0  0
  189.6880  171.3170  136.4690 C   0  0  0  0  0  0  0  0  0  0  0  0
  190.1160  171.5890  138.5510 C   0  0  0  0  0  0  0  0  0  0  0  0
  189.3740  171.6770  135.0620 C   0  0  0  0  0  1  0  0  0  0  0  0
  189.8680  172.2830  137.4930 N   0  0  0  0  0  0  0  0  0  0  0  0
  190.1240  170.1250  138.2820 C   0  0  0  0  0  2  0  0  0  0  0  0
  190.3790  172.1970  139.8160 N   0  0  0  0  0  2  0  0  0  0  0  0
  194.3550  171.3970  140.4760 C   0  0  2  0  0  3  0  0  0  0  0  0
  194.7800  171.8960  139.2440 O   0  0  0  0  0  1  0  0  0  0  0  0
  194.1830  169.4800  139.0540 O   0  0  0  0  0  1  0  0  0  0  0  0
  194.3200  169.8780  140.3840 C   0  0  0  0  0  2  0  0  0  0  0  0
  1  7  1  0  0  0  0
  2  4  2  0  0  0  0
  3  5  1  0  0  0  0
  4  6  1  0  0  0  0
  5  2  1  0  0  0  0
  5  1  2  0  0  0  0
  7  6  2  0  0  0  0
  8 10  1  0  0  0  0
  8  2  1  1  0  0  0
  9  8  1  0  0  0  0
  9 10  1  0  0  0  0
 10 11  1  1  0  0  0
 11 12  1  0  0  0  0
 12 14  1  0  0  0  0
 14 13  1  1  0  0  0
 14 17  1  0  0  0  0
 17 16  2  0  0  0  0
 17 15  1  0  0  0  0
 18 19  1  0  0  0  0
 20  6  1  6  0  0  0
 20 18  1  0  0  0  0
 20 19  1  0  0  0  0
 21 22  1  0  0  0  0
 21 18  1  0  0  0  0
 22 23  1  0  0  0  0
 24 25  2  0  0  0  0
 25 26  1  0  0  0  0
 25 23  1  0  0  0  0
 26 27  1  0  0  0  0
 28 27  1  1  0  0  0
 28 31  1  0  0  0  0
 29 28  1  0  0  0  0
 30 29  1  0  0  0  0
 31 32  1  0  0  0  0
 32 33  1  0  0  0  0
 34 32  2  0  0  0  0
 35  1  1  0  0  0  0
 36 38  1  0  0  0  0
 38 50  1  6  0  0  0
 38 42  1  0  0  0  0
 39 37  1  0  0  0  0
 39 43  1  0  0  0  0
 40 39  1  0  0  0  0
 41 51  1  1  0  0  0
 41 36  1  0  0  0  0
 41 39  1  0  0  0  0
 42 37  1  0  0  0  0
 42 35  1  6  0  0  0
 44 49  1  0  0  0  0
 45 44  2  0  0  0  0
 45 48  1  0  0  0  0
 46 50  1  0  0  0  0
 47 45  1  0  0  0  0
 48 46  2  0  0  0  0
 49 46  1  0  0  0  0
 51 52  1  6  0  0  0
 53 54  1  0  0  0  0
 54 51  1  0  0  0  0
M  END
>  <MODEL>
6

>  <REMARK>
 VINA RESULT:      -5.3      3.342      7.721
  Name = 
  21 active torsions:
  status: ('A' for Active; 'I' for Inactive)
    1  A    between atoms: C_1  and  C_35
    2  A    between atoms: C_2  and  C_6
    3  A    between atoms: C_5  and  C_8
    4  A    between atoms: C_5  and  C_48
    5  A    between atoms: N_12  and  C_38
    6  A    between atoms: N_12  and  C_44
    7  A    between atoms: C_17  and  C_41
    8  A    between atoms: C_17  and  C_51
    9  A    between atoms: N_18  and  C_42
   10  A    between atoms: C_19  and  N_31
   11  A    between atoms: C_21  and  C_43
   12  A    between atoms: C_21  and  C_47
   13  A    between atoms: C_23  and  C_37
   14  A    between atoms: C_23  and  C_47
   15  A    between atoms: N_27  and  C_48
   16  A    between atoms: C_35  and  C_46
   17  A    between atoms: N_36  and  C_44
   18  A    between atoms: N_36  and  C_54
   19  A    between atoms: C_38  and  C_42
   20  A    between atoms: C_45  and  C_50
   21  A    between atoms: C_48  and  C_54
                            x       y       z     vdW  Elec       q    Type
                         _______ _______ _______ _____ _____    ______ ____

>  <TORSDO>
F 21

$$$$
=
 OpenBabel11062418313D

 54 58  0  0  1  0  0  0  0  0999 V2000
  191.5400  174.5030  143.1210 C   0  0  0  0  0  0  0  0  0  0  0  0
  192.1320  175.5960  145.2200 C   0  0  0  0  0  0  0  0  0  0  0  0
  192.9880  173.2640  144.7740 C   0  0  0  0  0  1  0  0  0  0  0  0
  191.4020  176.7240  144.8150 C   0  0  0  0  0  3  0  0  0  0  0  0
  192.2050  174.4760  144.3640 C   0  0  0  0  0  0  0  0  0  0  0  0
  190.7170  176.7360  143.5980 C   0  0  0  0  0  0  0  0  0  0  0  0
  190.8050  175.6320  142.7460 C   0  0  0  0  0  3  0  0  0  0  0  0
  192.8590  175.6030  146.5490 C   0  0  1  0  0  3  0  0  0  0  0  0
  194.1990  174.8860  146.5080 C   0  0  0  0  0  2  0  0  0  0  0  0
  194.1780  176.4000  146.5510 C   0  0  1  0  0  3  0  0  0  0  0  0
  194.6190  176.9380  145.1900 C   0  0  0  0  0  2  0  0  0  0  0  0
  195.6980  176.0530  144.5900 C   0  0  0  0  0  2  0  0  0  0  0  0
  194.2770  176.4400  142.7340 F   0  0  0  0  0  0  0  0  0  0  0  0
  195.4370  175.7910  143.1150 C   0  0  1  0  0  3  0  0  0  0  0  0
  197.8310  176.4530  142.8260 O   0  0  0  0  0  1  0  0  0  0  0  0
  196.3790  176.5260  141.0540 O   0  0  0  0  0  0  0  0  0  0  0  0
  196.5700  176.2700  142.2710 C   0  0  0  0  0  0  0  0  0  0  0  0
  188.5110  177.7130  142.8680 N   0  0  0  0  0  0  0  0  0  0  0  0
  189.4990  177.8610  141.9080 O   0  0  0  0  0  0  0  0  0  0  0  0
  189.9140  177.9530  143.2020 C   0  0  2  0  0  3  0  0  0  0  0  0
  188.1180  176.3030  142.8290 C   0  0  0  0  0  2  0  0  0  0  0  0
  186.6580  176.1800  142.4260 C   0  0  0  0  0  2  0  0  0  0  0  0
  186.2740  177.3160  141.6030 N   0  0  0  0  0  2  0  0  0  0  0  0
  183.9230  178.2660  140.8790 S   0  0  0  0  0  0  0  0  0  0  0  0
  185.1980  178.2170  141.8960 C   0  0  0  0  0  0  0  0  0  0  0  0
  185.1580  179.0190  143.0840 N   0  0  0  0  0  2  0  0  0  0  0  0
  184.6070  178.5830  144.3560 C   0  0  0  0  0  2  0  0  0  0  0  0
  185.7220  178.4410  145.3850 C   0  0  1  0  0  3  0  0  0  0  0  0
  185.3730  179.1410  146.6120 N   0  0  0  0  0  2  0  0  0  0  0  0
  184.0810  178.6320  147.0430 C   0  0  0  0  0  1  0  0  0  0  0  0
  186.0610  176.9760  145.6760 C   0  0  0  0  0  2  0  0  0  0  0  0
  187.2540  176.8180  146.5610 C   0  0  0  0  0  0  0  0  0  0  0  0
  188.4170  177.5320  146.2970 O   0  0  0  0  0  0  0  0  0  0  0  0
  187.2000  176.0500  147.5550 O   0  0  0  0  0  1  0  0  0  0  0  0
  191.6180  173.3620  142.1510 C   0  0  0  0  0  2  0  0  0  0  0  0
  191.0870  173.7540  138.4350 O   0  0  0  0  0  0  0  0  0  0  0  0
  189.5650  172.9230  140.7320 C   0  0  0  0  0  2  0  0  0  0  0  0
  191.7640  173.3990  139.6250 C   0  0  1  0  0  3  0  0  0  0  0  0
  188.9120  173.1850  139.3780 C   0  0  0  0  0  0  0  0  0  0  0  0
  187.8230  172.3220  139.2480 O   0  0  0  0  0  1  0  0  0  0  0  0
  189.9500  172.9250  138.2600 C   0  0  1  0  0  3  0  0  0  0  0  0
  190.8850  173.6820  140.8500 C   0  0  2  0  0  3  0  0  0  0  0  0
  188.4610  174.5060  139.3230 O   0  0  0  0  0  1  0  0  0  0  0  0
  195.7010  171.6960  138.4520 N   0  0  0  0  0  0  0  0  0  0  0  0
  195.2700  170.4950  138.6520 C   0  0  0  0  0  0  0  0  0  0  0  0
  193.5440  171.6480  139.1830 C   0  0  0  0  0  0  0  0  0  0  0  0
  196.1160  169.2950  138.4240 C   0  0  0  0  0  1  0  0  0  0  0  0
  193.9270  170.4200  139.1050 N   0  0  0  0  0  0  0  0  0  0  0  0
  194.6110  172.6030  138.7760 C   0  0  0  0  0  2  0  0  0  0  0  0
  192.2240  172.0100  139.5900 N   0  0  0  0  0  2  0  0  0  0  0  0
  189.3770  173.1240  136.8450 C   0  0  2  0  0  3  0  0  0  0  0  0
  190.1120  172.3840  135.9180 O   0  0  0  0  0  1  0  0  0  0  0  0
  190.1080  174.7210  135.2200 O   0  0  0  0  0  1  0  0  0  0  0  0
  189.4340  174.5870  136.4340 C   0  0  0  0  0  2  0  0  0  0  0  0
  1  5  1  0  0  0  0
  4  2  1  0  0  0  0
  5  3  1  0  0  0  0
  5  2  2  0  0  0  0
  6  4  2  0  0  0  0
  7  1  2  0  0  0  0
  7  6  1  0  0  0  0
  8  2  1  6  0  0  0
  8 10  1  0  0  0  0
  9  8  1  0  0  0  0
  9 10  1  0  0  0  0
 10 11  1  6  0  0  0
 12 11  1  0  0  0  0
 14 13  1  6  0  0  0
 14 12  1  0  0  0  0
 16 17  2  0  0  0  0
 17 15  1  0  0  0  0
 17 14  1  0  0  0  0
 18 20  1  0  0  0  0
 19 18  1  0  0  0  0
 19 20  1  0  0  0  0
 20  6  1  1  0  0  0
 21 18  1  0  0  0  0
 22 21  1  0  0  0  0
 23 25  1  0  0  0  0
 23 22  1  0  0  0  0
 24 25  2  0  0  0  0
 25 26  1  0  0  0  0
 26 27  1  0  0  0  0
 28 27  1  6  0  0  0
 28 31  1  0  0  0  0
 28 29  1  0  0  0  0
 29 30  1  0  0  0  0
 31 32  1  0  0  0  0
 32 34  1  0  0  0  0
 33 32  2  0  0  0  0
 35  1  1  0  0  0  0
 36 38  1  0  0  0  0
 37 42  1  0  0  0  0
 38 50  1  6  0  0  0
 38 42  1  0  0  0  0
 39 37  1  0  0  0  0
 40 39  1  0  0  0  0
 41 51  1  6  0  0  0
 41 36  1  0  0  0  0
 41 39  1  0  0  0  0
 42 35  1  1  0  0  0
 43 39  1  0  0  0  0
 44 45  2  0  0  0  0
 44 49  1  0  0  0  0
 45 48  1  0  0  0  0
 46 50  1  0  0  0  0
 47 45  1  0  0  0  0
 48 46  2  0  0  0  0
 49 46  1  0  0  0  0
 51 52  1  6  0  0  0
 53 54  1  0  0  0  0
 54 51  1  0  0  0  0
M  END
>  <MODEL>
7

>  <REMARK>
 VINA RESULT:      -5.2      3.787      9.369
  Name = 
  21 active torsions:
  status: ('A' for Active; 'I' for Inactive)
    1  A    between atoms: C_1  and  C_35
    2  A    between atoms: C_2  and  C_6
    3  A    between atoms: C_5  and  C_8
    4  A    between atoms: C_5  and  C_48
    5  A    between atoms: N_12  and  C_38
    6  A    between atoms: N_12  and  C_44
    7  A    between atoms: C_17  and  C_41
    8  A    between atoms: C_17  and  C_51
    9  A    between atoms: N_18  and  C_42
   10  A    between atoms: C_19  and  N_31
   11  A    between atoms: C_21  and  C_43
   12  A    between atoms: C_21  and  C_47
   13  A    between atoms: C_23  and  C_37
   14  A    between atoms: C_23  and  C_47
   15  A    between atoms: N_27  and  C_48
   16  A    between atoms: C_35  and  C_46
   17  A    between atoms: N_36  and  C_44
   18  A    between atoms: N_36  and  C_54
   19  A    between atoms: C_38  and  C_42
   20  A    between atoms: C_45  and  C_50
   21  A    between atoms: C_48  and  C_54
                            x       y       z     vdW  Elec       q    Type
                         _______ _______ _______ _____ _____    ______ ____

>  <TORSDO>
F 21

$$$$
=
 OpenBabel11062418313D

 54 58  0  0  1  0  0  0  0  0999 V2000
  192.0000  173.5770  143.3910 C   0  0  0  0  0  0  0  0  0  0  0  0
  193.6240  174.2470  145.0840 C   0  0  0  0  0  0  0  0  0  0  0  0
  193.4430  171.8070  144.4660 C   0  0  0  0  0  1  0  0  0  0  0  0
  193.2160  175.5800  144.9190 C   0  0  0  0  0  3  0  0  0  0  0  0
  193.0130  173.2370  144.3110 C   0  0  0  0  0  0  0  0  0  0  0  0
  192.1900  175.9110  144.0320 C   0  0  0  0  0  0  0  0  0  0  0  0
  191.5990  174.9090  143.2570 C   0  0  0  0  0  3  0  0  0  0  0  0
  194.7340  173.9110  146.0610 C   0  0  1  0  0  3  0  0  0  0  0  0
  195.8400  173.0680  145.4500 C   0  0  0  0  0  2  0  0  0  0  0  0
  196.0990  174.5370  145.7140 C   0  0  1  0  0  3  0  0  0  0  0  0
  196.1600  175.2750  144.3780 C   0  0  0  0  0  2  0  0  0  0  0  0
  196.8860  174.4390  143.3380 C   0  0  0  0  0  2  0  0  0  0  0  0
  194.8670  174.6700  142.1200 F   0  0  0  0  0  0  0  0  0  0  0  0
  196.2380  174.5790  141.9690 C   0  0  1  0  0  3  0  0  0  0  0  0
  197.9400  175.7510  140.5600 O   0  0  0  0  0  0  0  0  0  0  0  0
  196.0740  176.8580  141.2970 O   0  0  0  0  0  1  0  0  0  0  0  0
  196.7370  175.7910  141.2550 C   0  0  0  0  0  0  0  0  0  0  0  0
  190.5640  177.7310  144.6630 N   0  0  0  0  0  0  0  0  0  0  0  0
  190.5230  177.4300  143.3110 O   0  0  0  0  0  0  0  0  0  0  0  0
  191.7500  177.3500  143.8980 C   0  0  2  0  0  3  0  0  0  0  0  0
  189.8860  176.6250  145.3430 C   0  0  0  0  0  2  0  0  0  0  0  0
  189.3250  177.0970  146.6730 C   0  0  0  0  0  2  0  0  0  0  0  0
  188.0310  176.4770  146.9140 N   0  0  0  0  0  2  0  0  0  0  0  0
  186.2990  178.2960  147.7160 S   0  0  0  0  0  0  0  0  0  0  0  0
  186.7630  177.1090  146.6970 C   0  0  0  0  0  0  0  0  0  0  0  0
  185.9210  176.7990  145.5790 N   0  0  0  0  0  2  0  0  0  0  0  0
  185.0210  177.7420  144.9370 C   0  0  0  0  0  2  0  0  0  0  0  0
  185.3930  177.9000  143.4670 C   0  0  1  0  0  3  0  0  0  0  0  0
  185.4610  179.3090  143.1090 N   0  0  0  0  0  2  0  0  0  0  0  0
  185.1600  180.0710  144.3100 C   0  0  0  0  0  1  0  0  0  0  0  0
  186.7050  177.1900  143.1210 C   0  0  0  0  0  2  0  0  0  0  0  0
  187.2140  177.5370  141.7600 C   0  0  0  0  0  0  0  0  0  0  0  0
  188.2670  178.4330  141.6170 O   0  0  0  0  0  1  0  0  0  0  0  0
  186.6990  177.0060  140.7440 O   0  0  0  0  0  0  0  0  0  0  0  0
  191.3470  172.5540  142.5110 C   0  0  0  0  0  2  0  0  0  0  0  0
  191.3120  173.6330  138.8950 O   0  0  0  0  0  0  0  0  0  0  0  0
  189.4440  172.6280  140.8410 C   0  0  0  0  0  2  0  0  0  0  0  0
  191.7990  172.9980  140.0620 C   0  0  1  0  0  3  0  0  0  0  0  0
  188.9900  173.1970  139.4990 C   0  0  0  0  0  0  0  0  0  0  0  0
  187.8380  172.5160  139.1060 O   0  0  0  0  0  1  0  0  0  0  0  0
  190.1210  172.9990  138.4600 C   0  0  1  0  0  3  0  0  0  0  0  0
  190.8150  173.1800  141.2240 C   0  0  2  0  0  3  0  0  0  0  0  0
  188.6960  174.5550  139.6420 O   0  0  0  0  0  1  0  0  0  0  0  0
  195.7150  170.9160  139.7330 N   0  0  0  0  0  0  0  0  0  0  0  0
  195.1260  169.7930  139.4880 C   0  0  0  0  0  0  0  0  0  0  0  0
  193.4430  171.0940  139.7490 C   0  0  0  0  0  0  0  0  0  0  0  0
  195.8770  168.5380  139.2310 C   0  0  0  0  0  1  0  0  0  0  0  0
  193.7090  169.8610  139.4850 N   0  0  0  0  0  0  0  0  0  0  0  0
  194.6730  171.9130  139.9320 C   0  0  0  0  0  2  0  0  0  0  0  0
  192.1050  171.5880  139.8200 N   0  0  0  0  0  2  0  0  0  0  0  0
  189.7470  173.5050  137.0550 C   0  0  2  0  0  3  0  0  0  0  0  0
  189.6720  172.4370  136.1610 O   0  0  0  0  0  1  0  0  0  0  0  0
  191.4620  173.9390  135.4440 O   0  0  0  0  0  1  0  0  0  0  0  0
  190.7860  174.4870  136.5350 C   0  0  0  0  0  2  0  0  0  0  0  0
  1  5  1  0  0  0  0
  4  2  1  0  0  0  0
  5  3  1  0  0  0  0
  5  2  2  0  0  0  0
  6  4  2  0  0  0  0
  7  1  2  0  0  0  0
  7  6  1  0  0  0  0
  8  2  1  6  0  0  0
  9 10  1  0  0  0  0
  9  8  1  0  0  0  0
 10 11  1  6  0  0  0
 10  8  1  0  0  0  0
 12 11  1  0  0  0  0
 14 13  1  1  0  0  0
 14 12  1  0  0  0  0
 15 17  2  0  0  0  0
 17 16  1  0  0  0  0
 17 14  1  0  0  0  0
 18 21  1  0  0  0  0
 19 20  1  0  0  0  0
 19 18  1  0  0  0  0
 20  6  1  1  0  0  0
 20 18  1  0  0  0  0
 21 22  1  0  0  0  0
 22 23  1  0  0  0  0
 25 23  1  0  0  0  0
 25 24  2  0  0  0  0
 26 25  1  0  0  0  0
 27 26  1  0  0  0  0
 28 31  1  1  0  0  0
 28 27  1  0  0  0  0
 29 28  1  0  0  0  0
 29 30  1  0  0  0  0
 32 31  1  0  0  0  0
 33 32  1  0  0  0  0
 34 32  2  0  0  0  0
 35  1  1  0  0  0  0
 36 38  1  0  0  0  0
 37 42  1  0  0  0  0
 38 50  1  6  0  0  0
 38 42  1  0  0  0  0
 39 43  1  0  0  0  0
 39 37  1  0  0  0  0
 40 39  1  0  0  0  0
 41 51  1  6  0  0  0
 41 36  1  0  0  0  0
 41 39  1  0  0  0  0
 42 35  1  1  0  0  0
 44 49  1  0  0  0  0
 45 44  2  0  0  0  0
 46 50  1  0  0  0  0
 46 49  1  0  0  0  0
 47 45  1  0  0  0  0
 48 45  1  0  0  0  0
 48 46  2  0  0  0  0
 51 52  1  6  0  0  0
 53 54  1  0  0  0  0
 54 51  1  0  0  0  0
M  END
>  <MODEL>
8

>  <REMARK>
 VINA RESULT:      -5.2      3.544      9.009
  Name = 
  21 active torsions:
  status: ('A' for Active; 'I' for Inactive)
    1  A    between atoms: C_1  and  C_35
    2  A    between atoms: C_2  and  C_6
    3  A    between atoms: C_5  and  C_8
    4  A    between atoms: C_5  and  C_48
    5  A    between atoms: N_12  and  C_38
    6  A    between atoms: N_12  and  C_44
    7  A    between atoms: C_17  and  C_41
    8  A    between atoms: C_17  and  C_51
    9  A    between atoms: N_18  and  C_42
   10  A    between atoms: C_19  and  N_31
   11  A    between atoms: C_21  and  C_43
   12  A    between atoms: C_21  and  C_47
   13  A    between atoms: C_23  and  C_37
   14  A    between atoms: C_23  and  C_47
   15  A    between atoms: N_27  and  C_48
   16  A    between atoms: C_35  and  C_46
   17  A    between atoms: N_36  and  C_44
   18  A    between atoms: N_36  and  C_54
   19  A    between atoms: C_38  and  C_42
   20  A    between atoms: C_45  and  C_50
   21  A    between atoms: C_48  and  C_54
                            x       y       z     vdW  Elec       q    Type
                         _______ _______ _______ _____ _____    ______ ____

>  <TORSDO>
F 21

$$$$
=
 OpenBabel11062418313D

 54 58  0  0  1  0  0  0  0  0999 V2000
  192.7400  174.4170  145.5360 C   0  0  0  0  0  0  0  0  0  0  0  0
  195.0300  173.5820  145.4530 C   0  0  0  0  0  0  0  0  0  0  0  0
  194.6150  175.9220  146.3010 C   0  0  0  0  0  1  0  0  0  0  0  0
  194.5470  172.3640  144.9500 C   0  0  0  0  0  3  0  0  0  0  0  0
  194.1190  174.6170  145.7520 C   0  0  0  0  0  0  0  0  0  0  0  0
  193.1840  172.1810  144.7050 C   0  0  0  0  0  0  0  0  0  0  0  0
  192.2830  173.2020  145.0170 C   0  0  0  0  0  3  0  0  0  0  0  0
  196.5150  173.7610  145.7020 C   0  0  1  0  0  3  0  0  0  0  0  0
  197.3730  172.7100  145.0180 C   0  0  0  0  0  2  0  0  0  0  0  0
  197.3340  174.1110  144.4440 C   0  0  1  0  0  3  0  0  0  0  0  0
  196.5570  174.0850  143.1290 C   0  0  0  0  0  2  0  0  0  0  0  0
  196.9780  175.2410  142.2370 C   0  0  0  0  0  2  0  0  0  0  0  0
  196.3570  177.3830  141.4370 F   0  0  0  0  0  0  0  0  0  0  0  0
  195.8910  176.3030  142.1630 C   0  0  1  0  0  3  0  0  0  0  0  0
  194.5780  175.6640  140.1320 O   0  0  0  0  0  0  0  0  0  0  0  0
  193.6760  175.4290  142.2250 O   0  0  0  0  0  1  0  0  0  0  0  0
  194.6570  175.7700  141.5160 C   0  0  0  0  0  0  0  0  0  0  0  0
  192.8290  170.7150  142.6850 N   0  0  0  0  0  0  0  0  0  0  0  0
  191.6370  171.0690  143.2980 O   0  0  0  0  0  0  0  0  0  0  0  0
  192.6960  170.8700  144.1330 C   0  0  2  0  0  3  0  0  0  0  0  0
  193.2880  171.9100  141.9750 C   0  0  0  0  0  2  0  0  0  0  0  0
  194.3970  171.5440  141.0030 C   0  0  0  0  0  2  0  0  0  0  0  0
  194.3580  172.4300  139.8500 N   0  0  0  0  0  2  0  0  0  0  0  0
  194.2360  170.6670  137.8930 S   0  0  0  0  0  0  0  0  0  0  0  0
  193.8090  172.0890  138.5700 C   0  0  0  0  0  0  0  0  0  0  0  0
  192.8420  172.9040  137.8960 N   0  0  0  0  0  2  0  0  0  0  0  0
  191.6500  173.4570  138.5190 C   0  0  0  0  0  2  0  0  0  0  0  0
  190.4120  173.0480  137.7280 C   0  0  1  0  0  3  0  0  0  0  0  0
  190.7920  172.2780  136.5540 N   0  0  0  0  0  2  0  0  0  0  0  0
  189.6850  171.3840  136.2510 C   0  0  0  0  0  1  0  0  0  0  0  0
  189.4070  172.2710  138.5840 C   0  0  0  0  0  2  0  0  0  0  0  0
  190.0140  171.7050  139.8260 C   0  0  0  0  0  0  0  0  0  0  0  0
  190.8100  170.5680  139.7580 O   0  0  0  0  0  0  0  0  0  0  0  0
  189.8170  172.2680  140.9330 O   0  0  0  0  0  1  0  0  0  0  0  0
  191.7210  175.4630  145.8760 C   0  0  0  0  0  2  0  0  0  0  0  0
  188.2400  175.7870  144.4550 O   0  0  0  0  0  0  0  0  0  0  0  0
  190.9090  176.6250  143.7770 C   0  0  0  0  0  2  0  0  0  0  0  0
  189.2460  175.7720  145.4490 C   0  0  1  0  0  3  0  0  0  0  0  0
  189.7460  176.7480  142.7960 C   0  0  0  0  0  0  0  0  0  0  0  0
  189.9680  177.8710  141.9980 O   0  0  0  0  0  1  0  0  0  0  0  0
  188.4280  176.8980  143.5940 C   0  0  1  0  0  3  0  0  0  0  0  0
  190.6250  175.5430  144.8160 C   0  0  2  0  0  3  0  0  0  0  0  0
  189.6950  175.6110  141.9850 O   0  0  0  0  0  1  0  0  0  0  0  0
  185.8620  177.7300  147.5680 N   0  0  0  0  0  0  0  0  0  0  0  0
  186.6320  178.6860  147.9680 C   0  0  0  0  0  0  0  0  0  0  0  0
  188.0180  177.4660  146.8800 C   0  0  0  0  0  0  0  0  0  0  0  0
  186.1350  179.8200  148.7900 C   0  0  0  0  0  1  0  0  0  0  0  0
  187.9840  178.5620  147.5580 N   0  0  0  0  0  0  0  0  0  0  0  0
  186.6840  176.8090  146.7970 C   0  0  0  0  0  2  0  0  0  0  0  0
  189.2140  176.9850  146.2680 N   0  0  0  0  0  2  0  0  0  0  0  0
  187.1920  177.0700  142.6930 C   0  0  2  0  0  3  0  0  0  0  0  0
  186.9150  178.4250  142.5070 O   0  0  0  0  0  1  0  0  0  0  0  0
  185.0160  177.3870  143.6370 O   0  0  0  0  0  1  0  0  0  0  0  0
  185.9670  176.4180  143.3160 C   0  0  0  0  0  2  0  0  0  0  0  0
  1  5  1  0  0  0  0
  1 35  1  0  0  0  0
  2  5  2  0  0  0  0
  4  2  1  0  0  0  0
  5  3  1  0  0  0  0
  6  4  2  0  0  0  0
  6  7  1  0  0  0  0
  7  1  2  0  0  0  0
  8  2  1  6  0  0  0
  9  8  1  0  0  0  0
 10 11  1  6  0  0  0
 10  9  1  0  0  0  0
 10  8  1  0  0  0  0
 12 11  1  0  0  0  0
 14 13  1  6  0  0  0
 14 12  1  0  0  0  0
 15 17  2  0  0  0  0
 17 14  1  0  0  0  0
 17 16  1  0  0  0  0
 18 19  1  0  0  0  0
 18 20  1  0  0  0  0
 19 20  1  0  0  0  0
 20  6  1  6  0  0  0
 21 18  1  0  0  0  0
 22 21  1  0  0  0  0
 23 22  1  0  0  0  0
 24 25  2  0  0  0  0
 25 23  1  0  0  0  0
 26 27  1  0  0  0  0
 26 25  1  0  0  0  0
 28 27  1  1  0  0  0
 28 31  1  0  0  0  0
 29 28  1  0  0  0  0
 30 29  1  0  0  0  0
 31 32  1  0  0  0  0
 32 34  1  0  0  0  0
 33 32  2  0  0  0  0
 36 38  1  0  0  0  0
 37 42  1  0  0  0  0
 38 50  1  6  0  0  0
 39 41  1  0  0  0  0
 39 37  1  0  0  0  0
 40 39  1  0  0  0  0
 41 51  1  6  0  0  0
 41 36  1  0  0  0  0
 42 38  1  0  0  0  0
 42 35  1  1  0  0  0
 43 39  1  0  0  0  0
 44 45  2  0  0  0  0
 45 47  1  0  0  0  0
 46 48  2  0  0  0  0
 48 45  1  0  0  0  0
 49 46  1  0  0  0  0
 49 44  1  0  0  0  0
 50 46  1  0  0  0  0
 51 52  1  1  0  0  0
 51 54  1  0  0  0  0
 54 53  1  0  0  0  0
M  END
>  <MODEL>
9

>  <REMARK>
 VINA RESULT:      -5.1      3.086      6.965
  Name = 
  21 active torsions:
  status: ('A' for Active; 'I' for Inactive)
    1  A    between atoms: C_1  and  C_35
    2  A    between atoms: C_2  and  C_6
    3  A    between atoms: C_5  and  C_8
    4  A    between atoms: C_5  and  C_48
    5  A    between atoms: N_12  and  C_38
    6  A    between atoms: N_12  and  C_44
    7  A    between atoms: C_17  and  C_41
    8  A    between atoms: C_17  and  C_51
    9  A    between atoms: N_18  and  C_42
   10  A    between atoms: C_19  and  N_31
   11  A    between atoms: C_21  and  C_43
   12  A    between atoms: C_21  and  C_47
   13  A    between atoms: C_23  and  C_37
   14  A    between atoms: C_23  and  C_47
   15  A    between atoms: N_27  and  C_48
   16  A    between atoms: C_35  and  C_46
   17  A    between atoms: N_36  and  C_44
   18  A    between atoms: N_36  and  C_54
   19  A    between atoms: C_38  and  C_42
   20  A    between atoms: C_45  and  C_50
   21  A    between atoms: C_48  and  C_54
                            x       y       z     vdW  Elec       q    Type
                         _______ _______ _______ _____ _____    ______ ____

>  <TORSDO>
F 21

$$$$
