=
 OpenBabel11072409273D

 40 45  0  0  1  0  0  0  0  0999 V2000
  189.1870  176.7530  144.6000 C   0  0  0  0  0  3  0  0  0  0  0  0
  189.9870  177.4210  146.7510 N   0  0  0  0  0  0  0  0  0  0  0  0
  187.8750  176.8200  145.0700 C   0  0  0  0  0  0  0  0  0  0  0  0
  187.6360  177.1980  146.3980 C   0  0  0  0  0  3  0  0  0  0  0  0
  188.7170  177.4960  147.2300 C   0  0  0  0  0  3  0  0  0  0  0  0
  190.2470  177.0670  145.4620 C   0  0  0  0  0  0  0  0  0  0  0  0
  191.6650  176.9720  145.0010 C   0  0  2  0  0  3  0  0  0  0  0  0
  191.9210  177.9040  143.9940 O   0  0  0  0  0  1  0  0  0  0  0  0
  194.0270  175.1500  140.2610 C   0  0  0  0  0  2  0  0  0  0  0  0
  192.0220  175.2920  144.4010 P   0  0  2  0  0  4  0  0  0  0  0  0
  194.0620  174.6090  143.2460 C   0  0  1  0  0  3  0  0  0  0  0  0
  195.2070  175.2160  142.4970 C   0  0  0  0  0  0  0  0  0  0  0  0
  193.8190  174.9430  144.7180 C   0  0  1  0  0  0  0  0  0  0  0  0
  194.4230  176.0840  145.2480 O   0  0  0  0  0  1  0  0  0  0  0  0
  192.1230  174.2870  141.7540 C   0  0  0  0  0  2  0  0  0  0  0  0
  195.2010  175.2390  141.0890 O   0  0  0  0  0  0  0  0  0  0  0  0
  192.3450  173.5240  139.3930 C   0  0  0  0  0  1  0  0  0  0  0  0
  193.1160  173.9630  140.6180 C   0  0  1  0  0  3  0  0  0  0  0  0
  192.7700  175.2170  142.7630 C   0  0  1  0  0  3  0  0  0  0  0  0
  196.2450  175.5770  143.1130 O   0  0  0  0  0  0  0  0  0  0  0  0
  192.9130  174.2070  145.5820 C   0  0  0  0  0  2  0  0  0  0  0  0
  186.7980  176.5220  144.1780 N   0  0  0  0  0  2  0  0  0  0  0  0
  185.7850  177.2780  139.5000 O   0  0  0  0  0  1  0  0  0  0  0  0
  186.4610  176.9510  141.7780 C   0  0  2  0  0  3  0  0  0  0  0  0
  183.6420  178.8000  140.3110 O   0  0  0  0  0  0  0  0  0  0  0  0
  183.9930  178.1780  142.5590 C   0  0  0  0  0  3  0  0  0  0  0  0
  184.8340  177.7660  143.5080 C   0  0  0  0  0  3  0  0  0  0  0  0
  184.4310  178.3070  141.1600 C   0  0  0  0  0  0  0  0  0  0  0  0
  185.8220  177.8990  140.7490 C   0  0  2  0  0  3  0  0  0  0  0  0
  186.2780  177.4800  143.2100 C   0  0  1  0  0  3  0  0  0  0  0  0
  187.9370  176.6810  141.4480 C   0  0  0  0  0  2  0  0  0  0  0  0
  188.7750  173.0080  141.7740 C   0  0  0  0  0  0  0  0  0  0  0  0
  188.2070  175.2500  141.1020 C   0  0  0  0  0  0  0  0  0  0  0  0
  188.2050  174.8500  139.8020 N   0  0  0  0  0  0  0  0  0  0  0  0
  188.7660  172.6170  140.4340 C   0  0  0  0  0  3  0  0  0  0  0  0
  188.4730  173.5610  139.4470 C   0  0  0  0  0  0  0  0  0  0  0  0
  188.4920  174.3310  142.1130 C   0  0  0  0  0  3  0  0  0  0  0  0
  189.0890  172.0180  142.8370 C   0  0  0  0  0  1  0  0  0  0  0  0
  188.4600  173.1690  138.1080 O   0  0  0  0  0  0  0  0  0  0  0  0
  188.9840  173.9940  137.0770 C   0  0  0  0  0  1  0  0  0  0  0  0
  1  3  2  0  0  0  0
  1  6  1  0  0  0  0
  2  5  1  0  0  0  0
  3  4  1  0  0  0  0
  4  5  2  0  0  0  0
  6  2  2  0  0  0  0
  7  8  1  6  0  0  0
  7  6  1  0  0  0  0
  9 18  1  0  0  0  0
  9 16  1  0  0  0  0
 10 13  1  0  0  0  0
 10  7  1  1  0  0  0
 10 21  1  0  0  0  0
 11 12  1  6  0  0  0
 11 13  1  0  0  0  0
 12 20  2  0  0  0  0
 13 14  1  1  0  0  0
 13 21  1  0  0  0  0
 16 12  1  0  0  0  0
 18 17  1  6  0  0  0
 18 15  1  0  0  0  0
 19 15  1  6  0  0  0
 19 11  1  0  0  0  0
 19 10  1  0  0  0  0
 22  3  1  0  0  0  0
 24 31  1  6  0  0  0
 24 30  1  0  0  0  0
 25 28  2  0  0  0  0
 26 27  2  0  0  0  0
 28 26  1  0  0  0  0
 29 23  1  6  0  0  0
 29 28  1  0  0  0  0
 29 24  1  0  0  0  0
 30 27  1  0  0  0  0
 30 22  1  1  0  0  0
 32 37  1  0  0  0  0
 32 38  1  0  0  0  0
 33 31  1  0  0  0  0
 33 37  2  0  0  0  0
 34 33  1  0  0  0  0
 35 32  2  0  0  0  0
 36 34  2  0  0  0  0
 36 35  1  0  0  0  0
 39 36  1  0  0  0  0
 40 39  1  0  0  0  0
M  END
>  <MODEL>
1

>  <REMARK>
 VINA RESULT:      -7.9      0.000      0.000
  Name = 
  7 active torsions:
  status: ('A' for Active; 'I' for Inactive)
    1  A    between atoms: C_4  and  C_23
    2  A    between atoms: P_6  and  C_27
    3  A    between atoms: O_7  and  C_16
    4  A    between atoms: C_8  and  C_23
    5  A    between atoms: N_10  and  C_21
    6  A    between atoms: N_10  and  C_39
    7  A    between atoms: C_27  and  C_31
                            x       y       z     vdW  Elec       q    Type
                         _______ _______ _______ _____ _____    ______ ____

>  <TORSDO>
F 7

$$$$
=
 OpenBabel11072409273D

 40 45  0  0  1  0  0  0  0  0999 V2000
  190.6350  176.5750  143.4380 C   0  0  0  0  0  3  0  0  0  0  0  0
  190.9050  174.3480  142.6140 N   0  0  0  0  0  0  0  0  0  0  0  0
  189.2590  176.4860  143.2210 C   0  0  0  0  0  0  0  0  0  0  0  0
  188.7180  175.3040  142.6970 C   0  0  0  0  0  3  0  0  0  0  0  0
  189.5670  174.2380  142.3960 C   0  0  0  0  0  3  0  0  0  0  0  0
  191.4550  175.4810  143.1320 C   0  0  0  0  0  0  0  0  0  0  0  0
  192.9350  175.5540  143.3200 C   0  0  2  0  0  3  0  0  0  0  0  0
  193.5990  174.8960  142.2830 O   0  0  0  0  0  1  0  0  0  0  0  0
  196.3350  171.2930  144.6040 C   0  0  0  0  0  2  0  0  0  0  0  0
  193.4040  174.8270  144.9210 P   0  0  2  0  0  4  0  0  0  0  0  0
  195.6530  174.0990  145.5350 C   0  0  1  0  0  3  0  0  0  0  0  0
  196.9500  173.7300  144.8870 C   0  0  0  0  0  0  0  0  0  0  0  0
  195.0700  175.5050  145.3880 C   0  0  1  0  0  0  0  0  0  0  0  0
  195.5440  176.3140  144.3540 O   0  0  0  0  0  1  0  0  0  0  0  0
  194.1210  172.1640  145.5710 C   0  0  0  0  0  2  0  0  0  0  0  0
  197.2790  172.3770  144.6770 O   0  0  0  0  0  0  0  0  0  0  0  0
  194.8890  169.8380  146.0250 C   0  0  0  0  0  1  0  0  0  0  0  0
  195.3510  171.2590  145.7870 C   0  0  1  0  0  3  0  0  0  0  0  0
  194.5190  173.4160  144.8120 C   0  0  1  0  0  3  0  0  0  0  0  0
  197.8160  174.6150  144.6570 O   0  0  0  0  0  0  0  0  0  0  0  0
  193.9760  176.0220  146.1910 C   0  0  0  0  0  2  0  0  0  0  0  0
  188.4260  177.5980  143.5580 N   0  0  0  0  0  2  0  0  0  0  0  0
  184.3880  177.9160  146.2210 O   0  0  0  0  0  1  0  0  0  0  0  0
  186.3630  177.9350  144.8570 C   0  0  2  0  0  3  0  0  0  0  0  0
  185.7820  176.7640  148.2930 O   0  0  0  0  0  0  0  0  0  0  0  0
  187.6330  176.3640  146.8870 C   0  0  0  0  0  3  0  0  0  0  0  0
  188.3320  176.7000  145.8030 C   0  0  0  0  0  3  0  0  0  0  0  0
  186.3620  177.0320  147.2070 C   0  0  0  0  0  0  0  0  0  0  0  0
  185.7760  178.0590  146.2740 C   0  0  2  0  0  3  0  0  0  0  0  0
  187.8950  177.8160  144.8980 C   0  0  1  0  0  3  0  0  0  0  0  0
  185.8990  179.0930  143.9590 C   0  0  0  0  0  2  0  0  0  0  0  0
  185.3660  177.8940  140.4120 C   0  0  0  0  0  0  0  0  0  0  0  0
  185.2320  178.6260  142.7020 C   0  0  0  0  0  0  0  0  0  0  0  0
  183.8750  178.5550  142.6370 N   0  0  0  0  0  0  0  0  0  0  0  0
  183.9720  177.8250  140.3650 C   0  0  0  0  0  3  0  0  0  0  0  0
  183.2310  178.1610  141.5010 C   0  0  0  0  0  0  0  0  0  0  0  0
  186.0020  178.2950  141.5860 C   0  0  0  0  0  3  0  0  0  0  0  0
  186.1700  177.5450  139.2120 C   0  0  0  0  0  1  0  0  0  0  0  0
  181.8380  178.0870  141.4550 O   0  0  0  0  0  0  0  0  0  0  0  0
  181.0140  179.1710  141.8610 C   0  0  0  0  0  1  0  0  0  0  0  0
  2  6  1  0  0  0  0
  3  1  1  0  0  0  0
  3 22  1  0  0  0  0
  4  3  2  0  0  0  0
  5  2  2  0  0  0  0
  5  4  1  0  0  0  0
  6  7  1  0  0  0  0
  6  1  2  0  0  0  0
  7  8  1  6  0  0  0
  9 16  1  0  0  0  0
  9 18  1  0  0  0  0
 10  7  1  6  0  0  0
 10 13  1  0  0  0  0
 10 21  1  0  0  0  0
 11 12  1  6  0  0  0
 13 14  1  6  0  0  0
 13 11  1  0  0  0  0
 13 21  1  0  0  0  0
 15 18  1  0  0  0  0
 16 12  1  0  0  0  0
 18 17  1  6  0  0  0
 19 10  1  0  0  0  0
 19 11  1  0  0  0  0
 19 15  1  1  0  0  0
 20 12  2  0  0  0  0
 24 31  1  6  0  0  0
 24 30  1  0  0  0  0
 24 29  1  0  0  0  0
 26 28  1  0  0  0  0
 27 26  2  0  0  0  0
 28 25  2  0  0  0  0
 29 23  1  6  0  0  0
 29 28  1  0  0  0  0
 30 22  1  6  0  0  0
 30 27  1  0  0  0  0
 32 37  1  0  0  0  0
 33 31  1  0  0  0  0
 34 33  1  0  0  0  0
 35 32  2  0  0  0  0
 35 36  1  0  0  0  0
 36 34  2  0  0  0  0
 37 33  2  0  0  0  0
 38 32  1  0  0  0  0
 39 36  1  0  0  0  0
 39 40  1  0  0  0  0
M  END
>  <MODEL>
2

>  <REMARK>
 VINA RESULT:      -7.6      2.699      5.270
  Name = 
  7 active torsions:
  status: ('A' for Active; 'I' for Inactive)
    1  A    between atoms: C_4  and  C_23
    2  A    between atoms: P_6  and  C_27
    3  A    between atoms: O_7  and  C_16
    4  A    between atoms: C_8  and  C_23
    5  A    between atoms: N_10  and  C_21
    6  A    between atoms: N_10  and  C_39
    7  A    between atoms: C_27  and  C_31
                            x       y       z     vdW  Elec       q    Type
                         _______ _______ _______ _____ _____    ______ ____

>  <TORSDO>
F 7

$$$$
=
 OpenBabel11072409273D

 40 45  0  0  1  0  0  0  0  0999 V2000
  192.2080  176.7540  143.1060 C   0  0  0  0  0  3  0  0  0  0  0  0
  190.5290  175.3890  142.0930 N   0  0  0  0  0  0  0  0  0  0  0  0
  193.1820  175.8210  142.7440 C   0  0  0  0  0  0  0  0  0  0  0  0
  192.8040  174.6660  142.0460 C   0  0  0  0  0  3  0  0  0  0  0  0
  191.4600  174.4670  141.7280 C   0  0  0  0  0  3  0  0  0  0  0  0
  190.8690  176.5240  142.7620 C   0  0  0  0  0  0  0  0  0  0  0  0
  189.7980  177.4850  143.1640 C   0  0  2  0  0  3  0  0  0  0  0  0
  190.2260  178.2880  144.2230 O   0  0  0  0  0  1  0  0  0  0  0  0
  184.7870  179.2980  144.8900 C   0  0  0  0  0  2  0  0  0  0  0  0
  188.2880  176.5860  143.6340 P   0  0  2  0  0  4  0  0  0  0  0  0
  186.0130  177.2370  143.0310 C   0  0  1  0  0  3  0  0  0  0  0  0
  185.2560  178.4380  142.5580 C   0  0  0  0  0  0  0  0  0  0  0  0
  187.1280  176.6230  142.1830 C   0  0  1  0  0  0  0  0  0  0  0  0
  187.6880  177.3970  141.1650 O   0  0  0  0  0  1  0  0  0  0  0  0
  186.2580  177.2770  145.4860 C   0  0  0  0  0  2  0  0  0  0  0  0
  184.5380  179.2300  143.4740 O   0  0  0  0  0  0  0  0  0  0  0  0
  184.4440  178.0350  147.0150 C   0  0  0  0  0  1  0  0  0  0  0  0
  184.8560  177.9160  145.5640 C   0  0  1  0  0  3  0  0  0  0  0  0
  186.9210  177.6320  144.1680 C   0  0  1  0  0  3  0  0  0  0  0  0
  185.1380  178.6660  141.3250 O   0  0  0  0  0  0  0  0  0  0  0  0
  187.7190  175.3210  142.4330 C   0  0  0  0  0  2  0  0  0  0  0  0
  194.5490  176.0740  143.0770 N   0  0  0  0  0  2  0  0  0  0  0  0
  195.1640  172.0870  145.7630 O   0  0  0  0  0  1  0  0  0  0  0  0
  194.9000  174.1600  144.5830 C   0  0  2  0  0  3  0  0  0  0  0  0
  196.7640  171.1010  143.7560 O   0  0  0  0  0  0  0  0  0  0  0  0
  196.2150  172.9200  142.3600 C   0  0  0  0  0  3  0  0  0  0  0  0
  195.8150  174.1880  142.2460 C   0  0  0  0  0  3  0  0  0  0  0  0
  196.2830  172.2620  143.6740 C   0  0  0  0  0  0  0  0  0  0  0  0
  195.8280  172.9780  144.9180 C   0  0  2  0  0  3  0  0  0  0  0  0
  195.4840  175.0210  143.4510 C   0  0  1  0  0  3  0  0  0  0  0  0
  194.5840  174.9930  145.8350 C   0  0  0  0  0  2  0  0  0  0  0  0
  190.8700  174.2790  145.7950 C   0  0  0  0  0  0  0  0  0  0  0  0
  193.1170  175.0810  146.1230 C   0  0  0  0  0  0  0  0  0  0  0  0
  192.6380  176.0730  146.9210 N   0  0  0  0  0  0  0  0  0  0  0  0
  190.3980  175.3020  146.6190 C   0  0  0  0  0  3  0  0  0  0  0  0
  191.3060  176.2020  147.1840 C   0  0  0  0  0  0  0  0  0  0  0  0
  192.2370  174.1640  145.5450 C   0  0  0  0  0  3  0  0  0  0  0  0
  189.9180  173.3160  145.1820 C   0  0  0  0  0  1  0  0  0  0  0  0
  190.8340  177.2210  148.0110 O   0  0  0  0  0  0  0  0  0  0  0  0
  191.5660  177.6730  149.1410 C   0  0  0  0  0  1  0  0  0  0  0  0
  2  6  2  0  0  0  0
  3 22  1  0  0  0  0
  3  1  2  0  0  0  0
  4  3  1  0  0  0  0
  5  4  2  0  0  0  0
  5  2  1  0  0  0  0
  6  1  1  0  0  0  0
  6  7  1  0  0  0  0
  7  8  1  1  0  0  0
  9 18  1  0  0  0  0
 10  7  1  6  0  0  0
 10 19  1  0  0  0  0
 11 12  1  6  0  0  0
 11 19  1  0  0  0  0
 12 16  1  0  0  0  0
 13 14  1  6  0  0  0
 13 21  1  0  0  0  0
 13 11  1  0  0  0  0
 13 10  1  0  0  0  0
 15 18  1  0  0  0  0
 16  9  1  0  0  0  0
 18 17  1  1  0  0  0
 19 15  1  1  0  0  0
 20 12  2  0  0  0  0
 21 10  1  0  0  0  0
 24 29  1  0  0  0  0
 24 31  1  1  0  0  0
 26 28  1  0  0  0  0
 27 26  2  0  0  0  0
 27 30  1  0  0  0  0
 28 25  2  0  0  0  0
 28 29  1  0  0  0  0
 29 23  1  1  0  0  0
 30 22  1  6  0  0  0
 30 24  1  0  0  0  0
 31 33  1  0  0  0  0
 32 35  2  0  0  0  0
 33 34  1  0  0  0  0
 34 36  2  0  0  0  0
 35 36  1  0  0  0  0
 36 39  1  0  0  0  0
 37 32  1  0  0  0  0
 37 33  2  0  0  0  0
 38 32  1  0  0  0  0
 39 40  1  0  0  0  0
M  END
>  <MODEL>
3

>  <REMARK>
 VINA RESULT:      -7.5      2.684      8.962
  Name = 
  7 active torsions:
  status: ('A' for Active; 'I' for Inactive)
    1  A    between atoms: C_4  and  C_23
    2  A    between atoms: P_6  and  C_27
    3  A    between atoms: O_7  and  C_16
    4  A    between atoms: C_8  and  C_23
    5  A    between atoms: N_10  and  C_21
    6  A    between atoms: N_10  and  C_39
    7  A    between atoms: C_27  and  C_31
                            x       y       z     vdW  Elec       q    Type
                         _______ _______ _______ _____ _____    ______ ____

>  <TORSDO>
F 7

$$$$
=
 OpenBabel11072409273D

 40 45  0  0  1  0  0  0  0  0999 V2000
  190.7980  176.0880  145.3380 C   0  0  0  0  0  3  0  0  0  0  0  0
  192.2860  176.1420  147.2060 N   0  0  0  0  0  0  0  0  0  0  0  0
  189.7410  175.7680  146.1910 C   0  0  0  0  0  0  0  0  0  0  0  0
  189.9800  175.6410  147.5660 C   0  0  0  0  0  3  0  0  0  0  0  0
  191.2720  175.8330  148.0570 C   0  0  0  0  0  3  0  0  0  0  0  0
  192.0810  176.2820  145.8680 C   0  0  0  0  0  0  0  0  0  0  0  0
  193.2410  176.5920  144.9780 C   0  0  2  0  0  3  0  0  0  0  0  0
  192.8520  177.4370  143.9370 O   0  0  0  0  0  1  0  0  0  0  0  0
  193.6390  174.6840  139.7270 C   0  0  0  0  0  2  0  0  0  0  0  0
  193.9460  175.0560  144.3040 P   0  0  2  0  0  4  0  0  0  0  0  0
  195.2840  174.8920  142.2680 C   0  0  1  0  0  3  0  0  0  0  0  0
  195.5700  175.6740  141.0240 C   0  0  0  0  0  0  0  0  0  0  0  0
  195.6400  175.4480  143.6470 C   0  0  1  0  0  0  0  0  0  0  0  0
  195.8760  176.8180  143.7700 O   0  0  0  0  0  1  0  0  0  0  0  0
  193.2160  173.5710  142.0030 C   0  0  0  0  0  2  0  0  0  0  0  0
  194.9000  175.3700  139.8240 O   0  0  0  0  0  0  0  0  0  0  0  0
  192.6100  172.4160  139.8820 C   0  0  0  0  0  1  0  0  0  0  0  0
  193.5960  173.3670  140.5230 C   0  0  1  0  0  3  0  0  0  0  0  0
  193.7970  174.8760  142.5170 C   0  0  1  0  0  3  0  0  0  0  0  0
  196.5130  176.5100  141.0060 O   0  0  0  0  0  0  0  0  0  0  0  0
  195.6470  174.6580  144.8660 C   0  0  0  0  0  2  0  0  0  0  0  0
  188.4310  175.5960  145.6460 N   0  0  0  0  0  2  0  0  0  0  0  0
  185.7040  177.4330  142.0850 O   0  0  0  0  0  1  0  0  0  0  0  0
  187.2010  176.5960  143.7640 C   0  0  2  0  0  3  0  0  0  0  0  0
  184.0390  178.4530  144.0210 O   0  0  0  0  0  0  0  0  0  0  0  0
  185.2220  177.3090  145.7090 C   0  0  0  0  0  3  0  0  0  0  0  0
  186.3620  176.7550  146.1240 C   0  0  0  0  0  3  0  0  0  0  0  0
  185.0920  177.8430  144.3440 C   0  0  0  0  0  0  0  0  0  0  0  0
  186.2180  177.7070  143.3540 C   0  0  2  0  0  3  0  0  0  0  0  0
  187.5820  176.7120  145.2490 C   0  0  1  0  0  3  0  0  0  0  0  0
  188.4380  176.5810  142.8520 C   0  0  0  0  0  2  0  0  0  0  0  0
  189.1690  172.9990  141.8850 C   0  0  0  0  0  0  0  0  0  0  0  0
  188.5570  175.3230  142.0500 C   0  0  0  0  0  0  0  0  0  0  0  0
  188.2360  175.3230  140.7280 N   0  0  0  0  0  0  0  0  0  0  0  0
  188.8310  173.0200  140.5300 C   0  0  0  0  0  3  0  0  0  0  0  0
  188.3580  174.2040  139.9590 C   0  0  0  0  0  0  0  0  0  0  0  0
  189.0300  174.1550  142.6520 C   0  0  0  0  0  3  0  0  0  0  0  0
  189.6780  171.7490  142.5070 C   0  0  0  0  0  1  0  0  0  0  0  0
  188.0160  174.2220  138.6070 O   0  0  0  0  0  0  0  0  0  0  0  0
  188.9040  173.7590  137.6000 C   0  0  0  0  0  1  0  0  0  0  0  0
  1  6  2  0  0  0  0
  1  3  1  0  0  0  0
  2  5  2  0  0  0  0
  3  4  2  0  0  0  0
  4  5  1  0  0  0  0
  6  2  1  0  0  0  0
  7  8  1  6  0  0  0
  7  6  1  0  0  0  0
  9 16  1  0  0  0  0
  9 18  1  0  0  0  0
 10 21  1  0  0  0  0
 10  7  1  1  0  0  0
 11 12  1  6  0  0  0
 11 19  1  0  0  0  0
 11 13  1  0  0  0  0
 13 14  1  1  0  0  0
 13 10  1  0  0  0  0
 13 21  1  0  0  0  0
 16 12  1  0  0  0  0
 18 17  1  6  0  0  0
 18 15  1  0  0  0  0
 19 15  1  1  0  0  0
 19 10  1  0  0  0  0
 20 12  2  0  0  0  0
 22  3  1  0  0  0  0
 24 31  1  6  0  0  0
 24 30  1  0  0  0  0
 25 28  2  0  0  0  0
 26 27  2  0  0  0  0
 28 26  1  0  0  0  0
 29 23  1  6  0  0  0
 29 24  1  0  0  0  0
 29 28  1  0  0  0  0
 30 22  1  1  0  0  0
 30 27  1  0  0  0  0
 32 38  1  0  0  0  0
 32 37  1  0  0  0  0
 33 37  2  0  0  0  0
 33 31  1  0  0  0  0
 34 33  1  0  0  0  0
 35 32  2  0  0  0  0
 36 35  1  0  0  0  0
 36 34  2  0  0  0  0
 39 36  1  0  0  0  0
 40 39  1  0  0  0  0
M  END
>  <MODEL>
4

>  <REMARK>
 VINA RESULT:      -7.5      1.594      2.056
  Name = 
  7 active torsions:
  status: ('A' for Active; 'I' for Inactive)
    1  A    between atoms: C_4  and  C_23
    2  A    between atoms: P_6  and  C_27
    3  A    between atoms: O_7  and  C_16
    4  A    between atoms: C_8  and  C_23
    5  A    between atoms: N_10  and  C_21
    6  A    between atoms: N_10  and  C_39
    7  A    between atoms: C_27  and  C_31
                            x       y       z     vdW  Elec       q    Type
                         _______ _______ _______ _____ _____    ______ ____

>  <TORSDO>
F 7

$$$$
=
 OpenBabel11072409273D

 40 45  0  0  1  0  0  0  0  0999 V2000
  192.8930  176.8730  143.0930 C   0  0  0  0  0  3  0  0  0  0  0  0
  191.4380  175.3120  142.0190 N   0  0  0  0  0  0  0  0  0  0  0  0
  193.9670  176.0040  142.8980 C   0  0  0  0  0  0  0  0  0  0  0  0
  193.7530  174.7790  142.2510 C   0  0  0  0  0  3  0  0  0  0  0  0
  192.4690  174.4490  141.8160 C   0  0  0  0  0  3  0  0  0  0  0  0
  191.6190  176.5120  142.6360 C   0  0  0  0  0  0  0  0  0  0  0  0
  190.4410  177.4050  142.8580 C   0  0  2  0  0  3  0  0  0  0  0  0
  190.7300  178.3710  143.8240 O   0  0  0  0  0  1  0  0  0  0  0  0
  186.0060  178.7100  146.0200 C   0  0  0  0  0  2  0  0  0  0  0  0
  188.9950  176.4260  143.3680 P   0  0  2  0  0  4  0  0  0  0  0  0
  186.6960  177.2440  143.4550 C   0  0  1  0  0  3  0  0  0  0  0  0
  185.9460  178.5390  143.4980 C   0  0  0  0  0  0  0  0  0  0  0  0
  187.5770  176.8830  142.2580 C   0  0  1  0  0  0  0  0  0  0  0  0
  187.9780  177.9060  141.3970 O   0  0  0  0  0  1  0  0  0  0  0  0
  187.4230  176.5880  145.7200 C   0  0  0  0  0  2  0  0  0  0  0  0
  185.4790  179.0480  144.7240 O   0  0  0  0  0  0  0  0  0  0  0  0
  186.0020  176.9040  147.7420 C   0  0  0  0  0  1  0  0  0  0  0  0
  186.1110  177.1940  146.2610 C   0  0  1  0  0  3  0  0  0  0  0  0
  187.8360  177.2930  144.4410 C   0  0  1  0  0  3  0  0  0  0  0  0
  185.6030  179.1060  142.4270 O   0  0  0  0  0  0  0  0  0  0  0  0
  188.1150  175.5570  142.0130 C   0  0  0  0  0  2  0  0  0  0  0  0
  195.2690  176.3890  143.3460 N   0  0  0  0  0  2  0  0  0  0  0  0
  195.9190  172.3820  145.9930 O   0  0  0  0  0  1  0  0  0  0  0  0
  195.6000  174.4620  144.8400 C   0  0  2  0  0  3  0  0  0  0  0  0
  197.9400  171.6860  144.2630 O   0  0  0  0  0  0  0  0  0  0  0  0
  197.4080  173.4910  142.8420 C   0  0  0  0  0  3  0  0  0  0  0  0
  196.8790  174.7060  142.6940 C   0  0  0  0  0  3  0  0  0  0  0  0
  197.3380  172.7850  144.1300 C   0  0  0  0  0  0  0  0  0  0  0  0
  196.5980  173.3840  145.2970 C   0  0  2  0  0  3  0  0  0  0  0  0
  196.2520  175.4370  143.8460 C   0  0  1  0  0  3  0  0  0  0  0  0
  194.9790  175.1930  146.0410 C   0  0  0  0  0  2  0  0  0  0  0  0
  191.3500  175.9580  146.7790 C   0  0  0  0  0  0  0  0  0  0  0  0
  193.4860  175.0950  146.0760 C   0  0  0  0  0  0  0  0  0  0  0  0
  192.8590  174.0310  145.5060 N   0  0  0  0  0  0  0  0  0  0  0  0
  190.7250  174.8600  146.1850 C   0  0  0  0  0  3  0  0  0  0  0  0
  191.5030  173.8940  145.5420 C   0  0  0  0  0  0  0  0  0  0  0  0
  192.7380  176.0800  146.7240 C   0  0  0  0  0  3  0  0  0  0  0  0
  190.5390  176.9930  147.4700 C   0  0  0  0  0  1  0  0  0  0  0  0
  190.8770  172.7990  144.9450 O   0  0  0  0  0  0  0  0  0  0  0  0
  191.5770  171.9060  144.0910 C   0  0  0  0  0  1  0  0  0  0  0  0
  2  6  1  0  0  0  0
  3  1  1  0  0  0  0
  3 22  1  0  0  0  0
  4  3  2  0  0  0  0
  5  2  2  0  0  0  0
  5  4  1  0  0  0  0
  6  7  1  0  0  0  0
  6  1  2  0  0  0  0
  7  8  1  1  0  0  0
  9 18  1  0  0  0  0
 10  7  1  6  0  0  0
 10 19  1  0  0  0  0
 11 12  1  6  0  0  0
 11 19  1  0  0  0  0
 12 16  1  0  0  0  0
 13 14  1  6  0  0  0
 13 10  1  0  0  0  0
 13 11  1  0  0  0  0
 15 18  1  0  0  0  0
 16  9  1  0  0  0  0
 18 17  1  1  0  0  0
 19 15  1  1  0  0  0
 20 12  2  0  0  0  0
 21 13  1  0  0  0  0
 21 10  1  0  0  0  0
 24 29  1  0  0  0  0
 24 31  1  1  0  0  0
 26 28  1  0  0  0  0
 27 26  2  0  0  0  0
 27 30  1  0  0  0  0
 28 25  2  0  0  0  0
 28 29  1  0  0  0  0
 29 23  1  6  0  0  0
 30 22  1  6  0  0  0
 30 24  1  0  0  0  0
 31 33  1  0  0  0  0
 32 38  1  0  0  0  0
 33 37  2  0  0  0  0
 34 36  2  0  0  0  0
 34 33  1  0  0  0  0
 35 32  2  0  0  0  0
 36 35  1  0  0  0  0
 37 32  1  0  0  0  0
 39 36  1  0  0  0  0
 40 39  1  0  0  0  0
M  END
>  <MODEL>
5

>  <REMARK>
 VINA RESULT:      -7.5      2.835      8.845
  Name = 
  7 active torsions:
  status: ('A' for Active; 'I' for Inactive)
    1  A    between atoms: C_4  and  C_23
    2  A    between atoms: P_6  and  C_27
    3  A    between atoms: O_7  and  C_16
    4  A    between atoms: C_8  and  C_23
    5  A    between atoms: N_10  and  C_21
    6  A    between atoms: N_10  and  C_39
    7  A    between atoms: C_27  and  C_31
                            x       y       z     vdW  Elec       q    Type
                         _______ _______ _______ _____ _____    ______ ____

>  <TORSDO>
F 7

$$$$
=
 OpenBabel11072409273D

 40 45  0  0  1  0  0  0  0  0999 V2000
  192.0210  175.8150  144.0780 C   0  0  0  0  0  3  0  0  0  0  0  0
  190.5240  176.7420  145.6930 N   0  0  0  0  0  0  0  0  0  0  0  0
  192.9240  175.5040  145.0960 C   0  0  0  0  0  0  0  0  0  0  0  0
  192.6020  175.8210  146.4230 C   0  0  0  0  0  3  0  0  0  0  0  0
  191.3860  176.4470  146.7020 C   0  0  0  0  0  3  0  0  0  0  0  0
  190.8060  176.4360  144.3970 C   0  0  0  0  0  0  0  0  0  0  0  0
  189.8330  176.8140  143.3280 C   0  0  2  0  0  3  0  0  0  0  0  0
  189.7810  178.2000  143.1740 O   0  0  0  0  0  1  0  0  0  0  0  0
  185.0800  179.4130  144.7520 C   0  0  0  0  0  2  0  0  0  0  0  0
  188.1790  176.1680  143.7250 P   0  0  2  0  0  4  0  0  0  0  0  0
  186.0670  177.1490  142.9890 C   0  0  1  0  0  3  0  0  0  0  0  0
  185.5320  178.4430  142.4600 C   0  0  0  0  0  0  0  0  0  0  0  0
  187.1170  176.3530  142.2120 C   0  0  1  0  0  0  0  0  0  0  0  0
  187.8430  177.0090  141.2170 O   0  0  0  0  0  1  0  0  0  0  0  0
  186.1860  177.2030  145.4540 C   0  0  0  0  0  2  0  0  0  0  0  0
  184.8980  179.3550  143.3250 O   0  0  0  0  0  0  0  0  0  0  0  0
  184.4330  178.2630  146.8700 C   0  0  0  0  0  1  0  0  0  0  0  0
  184.8980  178.0510  145.4460 C   0  0  1  0  0  3  0  0  0  0  0  0
  186.9640  177.4230  144.1690 C   0  0  1  0  0  3  0  0  0  0  0  0
  185.5160  178.6590  141.2200 O   0  0  0  0  0  0  0  0  0  0  0  0
  187.4850  174.9800  142.5110 C   0  0  0  0  0  2  0  0  0  0  0  0
  194.1510  174.8490  144.7660 N   0  0  0  0  0  2  0  0  0  0  0  0
  194.8870  170.0590  144.6890 O   0  0  0  0  0  1  0  0  0  0  0  0
  194.3500  172.3960  144.7820 C   0  0  2  0  0  3  0  0  0  0  0  0
  197.1860  170.4890  146.1350 O   0  0  0  0  0  0  0  0  0  0  0  0
  196.9490  172.8240  145.9070 C   0  0  0  0  0  3  0  0  0  0  0  0
  196.1480  173.8740  145.7200 C   0  0  0  0  0  3  0  0  0  0  0  0
  196.4240  171.4510  145.8490 C   0  0  0  0  0  0  0  0  0  0  0  0
  194.9830  171.1920  145.5000 C   0  0  2  0  0  3  0  0  0  0  0  0
  194.6700  173.7100  145.5130 C   0  0  1  0  0  3  0  0  0  0  0  0
  192.8380  172.1990  144.5880 C   0  0  0  0  0  2  0  0  0  0  0  0
  192.9690  172.5370  140.8240 C   0  0  0  0  0  0  0  0  0  0  0  0
  192.4170  172.2850  143.1540 C   0  0  0  0  0  0  0  0  0  0  0  0
  191.0950  172.2610  142.8290 N   0  0  0  0  0  0  0  0  0  0  0  0
  191.6090  172.5080  140.5110 C   0  0  0  0  0  3  0  0  0  0  0  0
  190.6720  172.3650  141.5370 C   0  0  0  0  0  0  0  0  0  0  0  0
  193.3780  172.4230  142.1520 C   0  0  0  0  0  3  0  0  0  0  0  0
  193.9790  172.6920  139.7450 C   0  0  0  0  0  1  0  0  0  0  0  0
  189.3130  172.3310  141.2230 O   0  0  0  0  0  0  0  0  0  0  0  0
  188.8330  172.6500  139.9260 C   0  0  0  0  0  1  0  0  0  0  0  0
  1  6  2  0  0  0  0
  1  3  1  0  0  0  0
  2  5  2  0  0  0  0
  3  4  2  0  0  0  0
  4  5  1  0  0  0  0
  6  2  1  0  0  0  0
  7  8  1  1  0  0  0
  7  6  1  0  0  0  0
  9 18  1  0  0  0  0
 10  7  1  6  0  0  0
 10 19  1  0  0  0  0
 11 12  1  6  0  0  0
 11 19  1  0  0  0  0
 12 16  1  0  0  0  0
 13 14  1  6  0  0  0
 13 21  1  0  0  0  0
 13 11  1  0  0  0  0
 13 10  1  0  0  0  0
 16  9  1  0  0  0  0
 18 15  1  0  0  0  0
 18 17  1  1  0  0  0
 19 15  1  1  0  0  0
 20 12  2  0  0  0  0
 21 10  1  0  0  0  0
 22  3  1  0  0  0  0
 24 31  1  1  0  0  0
 24 29  1  0  0  0  0
 24 30  1  0  0  0  0
 27 26  2  0  0  0  0
 28 26  1  0  0  0  0
 28 25  2  0  0  0  0
 29 23  1  6  0  0  0
 29 28  1  0  0  0  0
 30 22  1  6  0  0  0
 30 27  1  0  0  0  0
 32 37  1  0  0  0  0
 33 31  1  0  0  0  0
 34 33  1  0  0  0  0
 35 32  2  0  0  0  0
 35 36  1  0  0  0  0
 36 34  2  0  0  0  0
 37 33  2  0  0  0  0
 38 32  1  0  0  0  0
 39 36  1  0  0  0  0
 40 39  1  0  0  0  0
M  END
>  <MODEL>
6

>  <REMARK>
 VINA RESULT:      -7.4      2.811      8.348
  Name = 
  7 active torsions:
  status: ('A' for Active; 'I' for Inactive)
    1  A    between atoms: C_4  and  C_23
    2  A    between atoms: P_6  and  C_27
    3  A    between atoms: O_7  and  C_16
    4  A    between atoms: C_8  and  C_23
    5  A    between atoms: N_10  and  C_21
    6  A    between atoms: N_10  and  C_39
    7  A    between atoms: C_27  and  C_31
                            x       y       z     vdW  Elec       q    Type
                         _______ _______ _______ _____ _____    ______ ____

>  <TORSDO>
F 7

$$$$
=
 OpenBabel11072409273D

 40 45  0  0  1  0  0  0  0  0999 V2000
  191.0440  175.7820  145.5400 C   0  0  0  0  0  3  0  0  0  0  0  0
  192.5140  176.5520  147.2590 N   0  0  0  0  0  0  0  0  0  0  0  0
  189.9460  176.0820  146.3470 C   0  0  0  0  0  0  0  0  0  0  0  0
  190.1550  176.6260  147.6210 C   0  0  0  0  0  3  0  0  0  0  0  0
  191.4600  176.8540  148.0630 C   0  0  0  0  0  3  0  0  0  0  0  0
  192.3390  176.0320  146.0130 C   0  0  0  0  0  0  0  0  0  0  0  0
  193.5370  175.6910  145.1880 C   0  0  2  0  0  3  0  0  0  0  0  0
  193.8770  176.7540  144.3480 O   0  0  0  0  0  1  0  0  0  0  0  0
  194.1790  174.6420  139.7230 C   0  0  0  0  0  2  0  0  0  0  0  0
  193.2190  174.1950  144.2030 P   0  0  2  0  0  4  0  0  0  0  0  0
  194.6590  173.3440  142.4240 C   0  0  1  0  0  3  0  0  0  0  0  0
  195.7550  173.8140  141.5190 C   0  0  0  0  0  0  0  0  0  0  0  0
  194.8420  173.3290  143.9420 C   0  0  1  0  0  0  0  0  0  0  0  0
  195.8680  174.0980  144.4940 O   0  0  0  0  0  1  0  0  0  0  0  0
  192.4520  173.9300  141.4880 C   0  0  0  0  0  2  0  0  0  0  0  0
  195.4660  174.2080  140.1990 O   0  0  0  0  0  0  0  0  0  0  0  0
  191.9320  173.7860  139.0560 C   0  0  0  0  0  1  0  0  0  0  0  0
  193.0370  173.6750  140.0830 C   0  0  1  0  0  3  0  0  0  0  0  0
  193.5510  174.3660  142.4400 C   0  0  1  0  0  3  0  0  0  0  0  0
  196.9580  173.7240  141.8840 O   0  0  0  0  0  0  0  0  0  0  0  0
  193.9510  172.6470  144.8630 C   0  0  0  0  0  2  0  0  0  0  0  0
  188.6270  175.8460  145.8480 N   0  0  0  0  0  2  0  0  0  0  0  0
  185.6400  177.4350  142.3780 O   0  0  0  0  0  1  0  0  0  0  0  0
  187.2580  176.7210  144.0000 C   0  0  2  0  0  3  0  0  0  0  0  0
  184.0640  178.5040  144.3620 O   0  0  0  0  0  0  0  0  0  0  0  0
  185.3790  177.4750  146.0260 C   0  0  0  0  0  3  0  0  0  0  0  0
  186.5580  176.9720  146.3970 C   0  0  0  0  0  3  0  0  0  0  0  0
  185.1520  177.9380  144.6490 C   0  0  0  0  0  0  0  0  0  0  0  0
  186.2210  177.7840  143.5990 C   0  0  2  0  0  3  0  0  0  0  0  0
  187.7230  176.9190  145.4510 C   0  0  1  0  0  3  0  0  0  0  0  0
  188.4380  176.6940  143.0160 C   0  0  0  0  0  2  0  0  0  0  0  0
  188.4510  174.0540  140.3080 C   0  0  0  0  0  0  0  0  0  0  0  0
  188.5840  175.3800  142.3140 C   0  0  0  0  0  0  0  0  0  0  0  0
  188.9180  174.2640  143.0180 N   0  0  0  0  0  0  0  0  0  0  0  0
  188.7970  172.9220  141.0480 C   0  0  0  0  0  3  0  0  0  0  0  0
  189.0330  173.0450  142.4190 C   0  0  0  0  0  0  0  0  0  0  0  0
  188.3440  175.2910  140.9420 C   0  0  0  0  0  3  0  0  0  0  0  0
  188.1920  173.9410  138.8490 C   0  0  0  0  0  1  0  0  0  0  0  0
  189.3840  171.9140  143.1570 O   0  0  0  0  0  0  0  0  0  0  0  0
  189.8790  172.0060  144.4850 C   0  0  0  0  0  1  0  0  0  0  0  0
  1  6  2  0  0  0  0
  1  3  1  0  0  0  0
  2  5  2  0  0  0  0
  3  4  2  0  0  0  0
  4  5  1  0  0  0  0
  6  2  1  0  0  0  0
  7  8  1  6  0  0  0
  7  6  1  0  0  0  0
  9 18  1  0  0  0  0
  9 16  1  0  0  0  0
 10 21  1  0  0  0  0
 10  7  1  1  0  0  0
 11 12  1  6  0  0  0
 11 19  1  0  0  0  0
 11 13  1  0  0  0  0
 12 20  2  0  0  0  0
 13 10  1  0  0  0  0
 13 14  1  1  0  0  0
 13 21  1  0  0  0  0
 16 12  1  0  0  0  0
 18 17  1  6  0  0  0
 18 15  1  0  0  0  0
 19 15  1  6  0  0  0
 19 10  1  0  0  0  0
 22  3  1  0  0  0  0
 24 31  1  6  0  0  0
 24 30  1  0  0  0  0
 25 28  2  0  0  0  0
 26 27  2  0  0  0  0
 28 26  1  0  0  0  0
 29 23  1  6  0  0  0
 29 24  1  0  0  0  0
 29 28  1  0  0  0  0
 30 22  1  1  0  0  0
 30 27  1  0  0  0  0
 32 37  1  0  0  0  0
 32 35  2  0  0  0  0
 33 31  1  0  0  0  0
 33 34  1  0  0  0  0
 35 36  1  0  0  0  0
 36 34  2  0  0  0  0
 36 39  1  0  0  0  0
 37 33  2  0  0  0  0
 38 32  1  0  0  0  0
 39 40  1  0  0  0  0
M  END
>  <MODEL>
7

>  <REMARK>
 VINA RESULT:      -7.4      1.911      2.816
  Name = 
  7 active torsions:
  status: ('A' for Active; 'I' for Inactive)
    1  A    between atoms: C_4  and  C_23
    2  A    between atoms: P_6  and  C_27
    3  A    between atoms: O_7  and  C_16
    4  A    between atoms: C_8  and  C_23
    5  A    between atoms: N_10  and  C_21
    6  A    between atoms: N_10  and  C_39
    7  A    between atoms: C_27  and  C_31
                            x       y       z     vdW  Elec       q    Type
                         _______ _______ _______ _____ _____    ______ ____

>  <TORSDO>
F 7

$$$$
=
 OpenBabel11072409273D

 40 45  0  0  1  0  0  0  0  0999 V2000
  192.0070  175.3050  144.1900 C   0  0  0  0  0  3  0  0  0  0  0  0
  191.1350  176.5710  146.0200 N   0  0  0  0  0  0  0  0  0  0  0  0
  192.9430  174.7190  145.0440 C   0  0  0  0  0  0  0  0  0  0  0  0
  192.9560  175.0750  146.4000 C   0  0  0  0  0  3  0  0  0  0  0  0
  192.0350  176.0120  146.8710 C   0  0  0  0  0  3  0  0  0  0  0  0
  191.0920  176.2360  144.7010 C   0  0  0  0  0  0  0  0  0  0  0  0
  190.1000  176.9060  143.8070 C   0  0  2  0  0  3  0  0  0  0  0  0
  190.0980  178.2870  144.0190 O   0  0  0  0  0  1  0  0  0  0  0  0
  185.2110  179.4150  144.8940 C   0  0  0  0  0  2  0  0  0  0  0  0
  188.4360  176.2290  144.0940 P   0  0  2  0  0  4  0  0  0  0  0  0
  186.3600  177.1660  143.2120 C   0  0  1  0  0  3  0  0  0  0  0  0
  185.8370  178.4480  142.6420 C   0  0  0  0  0  0  0  0  0  0  0  0
  187.4750  176.3890  142.5110 C   0  0  1  0  0  0  0  0  0  0  0  0
  188.2550  177.0570  141.5650 O   0  0  0  0  0  1  0  0  0  0  0  0
  186.3100  177.2300  145.6790 C   0  0  0  0  0  2  0  0  0  0  0  0
  185.1280  179.3500  143.4580 O   0  0  0  0  0  0  0  0  0  0  0  0
  184.4450  178.2600  146.9680 C   0  0  0  0  0  1  0  0  0  0  0  0
  185.0090  178.0530  145.5800 C   0  0  1  0  0  3  0  0  0  0  0  0
  187.1690  177.4610  144.4490 C   0  0  1  0  0  3  0  0  0  0  0  0
  185.9010  178.6600  141.4030 O   0  0  0  0  0  0  0  0  0  0  0  0
  187.8490  175.0250  142.8400 C   0  0  0  0  0  2  0  0  0  0  0  0
  193.8560  173.7520  144.5210 N   0  0  0  0  0  2  0  0  0  0  0  0
  195.1400  174.6090  139.9270 O   0  0  0  0  0  1  0  0  0  0  0  0
  194.5240  174.0050  142.1660 C   0  0  2  0  0  3  0  0  0  0  0  0
  196.9330  176.4650  140.8780 O   0  0  0  0  0  0  0  0  0  0  0  0
  196.0860  176.2310  143.0660 C   0  0  0  0  0  3  0  0  0  0  0  0
  195.4630  175.4750  143.9710 C   0  0  0  0  0  3  0  0  0  0  0  0
  196.2480  175.7730  141.6770 C   0  0  0  0  0  0  0  0  0  0  0  0
  195.6450  174.4710  141.2210 C   0  0  2  0  0  3  0  0  0  0  0  0
  194.9610  174.0990  143.6370 C   0  0  1  0  0  3  0  0  0  0  0  0
  194.0350  172.5950  141.8000 C   0  0  0  0  0  2  0  0  0  0  0  0
  190.7150  172.8180  140.0020 C   0  0  0  0  0  0  0  0  0  0  0  0
  192.5660  172.5400  141.5180 C   0  0  0  0  0  0  0  0  0  0  0  0
  191.6920  172.2290  142.5140 N   0  0  0  0  0  0  0  0  0  0  0  0
  189.8350  172.4940  141.0370 C   0  0  0  0  0  3  0  0  0  0  0  0
  190.3460  172.1960  142.3030 C   0  0  0  0  0  0  0  0  0  0  0  0
  192.0890  172.8400  140.2410 C   0  0  0  0  0  3  0  0  0  0  0  0
  190.1900  173.1420  138.6510 C   0  0  0  0  0  1  0  0  0  0  0  0
  189.4660  171.8670  143.3350 O   0  0  0  0  0  0  0  0  0  0  0  0
  189.6880  172.2850  144.6740 C   0  0  0  0  0  1  0  0  0  0  0  0
  1  6  2  0  0  0  0
  1  3  1  0  0  0  0
  2  5  2  0  0  0  0
  3  4  2  0  0  0  0
  4  5  1  0  0  0  0
  6  2  1  0  0  0  0
  7  8  1  1  0  0  0
  7  6  1  0  0  0  0
  9 18  1  0  0  0  0
 10  7  1  1  0  0  0
 10 19  1  0  0  0  0
 11 12  1  6  0  0  0
 11 19  1  0  0  0  0
 12 16  1  0  0  0  0
 13 14  1  6  0  0  0
 13 21  1  0  0  0  0
 13 11  1  0  0  0  0
 13 10  1  0  0  0  0
 16  9  1  0  0  0  0
 18 15  1  0  0  0  0
 18 17  1  1  0  0  0
 19 15  1  1  0  0  0
 20 12  2  0  0  0  0
 21 10  1  0  0  0  0
 22  3  1  0  0  0  0
 24 31  1  6  0  0  0
 24 30  1  0  0  0  0
 25 28  2  0  0  0  0
 26 27  2  0  0  0  0
 28 26  1  0  0  0  0
 29 23  1  6  0  0  0
 29 28  1  0  0  0  0
 29 24  1  0  0  0  0
 30 27  1  0  0  0  0
 30 22  1  1  0  0  0
 32 37  1  0  0  0  0
 32 35  2  0  0  0  0
 33 31  1  0  0  0  0
 33 34  1  0  0  0  0
 35 36  1  0  0  0  0
 36 34  2  0  0  0  0
 36 39  1  0  0  0  0
 37 33  2  0  0  0  0
 38 32  1  0  0  0  0
 39 40  1  0  0  0  0
M  END
>  <MODEL>
8

>  <REMARK>
 VINA RESULT:      -7.3      2.343      7.738
  Name = 
  7 active torsions:
  status: ('A' for Active; 'I' for Inactive)
    1  A    between atoms: C_4  and  C_23
    2  A    between atoms: P_6  and  C_27
    3  A    between atoms: O_7  and  C_16
    4  A    between atoms: C_8  and  C_23
    5  A    between atoms: N_10  and  C_21
    6  A    between atoms: N_10  and  C_39
    7  A    between atoms: C_27  and  C_31
                            x       y       z     vdW  Elec       q    Type
                         _______ _______ _______ _____ _____    ______ ____

>  <TORSDO>
F 7

$$$$
=
 OpenBabel11072409273D

 40 45  0  0  1  0  0  0  0  0999 V2000
  191.1530  174.4690  142.0130 C   0  0  0  0  0  3  0  0  0  0  0  0
  190.8760  173.2240  139.9920 N   0  0  0  0  0  0  0  0  0  0  0  0
  189.7670  174.5200  142.1690 C   0  0  0  0  0  0  0  0  0  0  0  0
  188.9430  173.9070  141.2170 C   0  0  0  0  0  3  0  0  0  0  0  0
  189.5230  173.2590  140.1250 C   0  0  0  0  0  3  0  0  0  0  0  0
  191.7000  173.8030  140.9080 C   0  0  0  0  0  0  0  0  0  0  0  0
  193.1780  173.7590  140.6930 C   0  0  2  0  0  3  0  0  0  0  0  0
  193.7240  172.6020  141.2510 O   0  0  0  0  0  1  0  0  0  0  0  0
  195.3830  174.6750  145.7590 C   0  0  0  0  0  2  0  0  0  0  0  0
  193.9640  175.2320  141.4160 P   0  0  2  0  0  4  0  0  0  0  0  0
  195.9560  175.2170  142.8300 C   0  0  1  0  0  3  0  0  0  0  0  0
  196.7510  174.2700  143.6720 C   0  0  0  0  0  0  0  0  0  0  0  0
  195.8050  174.9980  141.3240 C   0  0  1  0  0  0  0  0  0  0  0  0
  196.0830  173.7310  140.8070 O   0  0  0  0  0  1  0  0  0  0  0  0
  194.0450  176.1170  144.1070 C   0  0  0  0  0  2  0  0  0  0  0  0
  196.5630  174.2300  145.0660 O   0  0  0  0  0  0  0  0  0  0  0  0
  194.1990  176.7390  146.5140 C   0  0  0  0  0  1  0  0  0  0  0  0
  194.9400  176.0950  145.3630 C   0  0  1  0  0  3  0  0  0  0  0  0
  194.4880  175.0440  143.1300 C   0  0  1  0  0  3  0  0  0  0  0  0
  197.6920  173.6070  143.1600 O   0  0  0  0  0  0  0  0  0  0  0  0
  195.2900  175.9950  140.4020 C   0  0  0  0  0  2  0  0  0  0  0  0
  189.2170  175.1810  143.3120 N   0  0  0  0  0  2  0  0  0  0  0  0
  189.2270  177.9070  147.3190 O   0  0  0  0  0  1  0  0  0  0  0  0
  189.2440  176.7120  145.2380 C   0  0  2  0  0  3  0  0  0  0  0  0
  191.0660  176.1610  148.3830 O   0  0  0  0  0  0  0  0  0  0  0  0
  190.8220  174.7080  146.5420 C   0  0  0  0  0  3  0  0  0  0  0  0
  190.5050  174.5420  145.2570 C   0  0  0  0  0  3  0  0  0  0  0  0
  190.6580  176.0130  147.2000 C   0  0  0  0  0  0  0  0  0  0  0  0
  190.0530  177.1780  146.4610 C   0  0  2  0  0  3  0  0  0  0  0  0
  190.0330  175.6870  144.4070 C   0  0  1  0  0  3  0  0  0  0  0  0
  188.7800  177.9060  144.3890 C   0  0  0  0  0  2  0  0  0  0  0  0
  185.1200  178.1710  145.3040 C   0  0  0  0  0  0  0  0  0  0  0  0
  187.2910  177.9980  144.2740 C   0  0  0  0  0  0  0  0  0  0  0  0
  186.6960  177.9290  143.0520 N   0  0  0  0  0  0  0  0  0  0  0  0
  184.5290  178.1010  144.0410 C   0  0  0  0  0  3  0  0  0  0  0  0
  185.3400  177.9810  142.9100 C   0  0  0  0  0  0  0  0  0  0  0  0
  186.5090  178.1210  145.4240 C   0  0  0  0  0  3  0  0  0  0  0  0
  184.2730  178.2940  146.5180 C   0  0  0  0  0  1  0  0  0  0  0  0
  184.7490  177.9160  141.6480 O   0  0  0  0  0  0  0  0  0  0  0  0
  185.5200  177.9020  140.4560 C   0  0  0  0  0  1  0  0  0  0  0  0
  1  3  1  0  0  0  0
  2  5  2  0  0  0  0
  2  6  1  0  0  0  0
  3 22  1  0  0  0  0
  4  3  2  0  0  0  0
  5  4  1  0  0  0  0
  6  1  2  0  0  0  0
  7  6  1  0  0  0  0
  7  8  1  1  0  0  0
 10  7  1  6  0  0  0
 10 19  1  0  0  0  0
 11 19  1  0  0  0  0
 11 12  1  1  0  0  0
 12 16  1  0  0  0  0
 13 14  1  6  0  0  0
 13 10  1  0  0  0  0
 13 11  1  0  0  0  0
 15 18  1  0  0  0  0
 16  9  1  0  0  0  0
 18  9  1  0  0  0  0
 18 17  1  1  0  0  0
 19 15  1  1  0  0  0
 20 12  2  0  0  0  0
 21 13  1  0  0  0  0
 21 10  1  0  0  0  0
 24 31  1  6  0  0  0
 24 29  1  0  0  0  0
 26 28  1  0  0  0  0
 27 26  2  0  0  0  0
 28 25  2  0  0  0  0
 29 28  1  0  0  0  0
 29 23  1  1  0  0  0
 30 22  1  6  0  0  0
 30 24  1  0  0  0  0
 30 27  1  0  0  0  0
 32 37  1  0  0  0  0
 32 38  1  0  0  0  0
 33 31  1  0  0  0  0
 33 37  2  0  0  0  0
 34 33  1  0  0  0  0
 35 32  2  0  0  0  0
 36 34  2  0  0  0  0
 36 35  1  0  0  0  0
 39 36  1  0  0  0  0
 40 39  1  0  0  0  0
M  END
>  <MODEL>
9

>  <REMARK>
 VINA RESULT:      -7.3      2.228      6.075
  Name = 
  7 active torsions:
  status: ('A' for Active; 'I' for Inactive)
    1  A    between atoms: C_4  and  C_23
    2  A    between atoms: P_6  and  C_27
    3  A    between atoms: O_7  and  C_16
    4  A    between atoms: C_8  and  C_23
    5  A    between atoms: N_10  and  C_21
    6  A    between atoms: N_10  and  C_39
    7  A    between atoms: C_27  and  C_31
                            x       y       z     vdW  Elec       q    Type
                         _______ _______ _______ _____ _____    ______ ____

>  <TORSDO>
F 7

$$$$
