=
 OpenBabel11062421533D

 37 39  0  0  1  0  0  0  0  0999 V2000
  187.4000  175.3520  142.4200 C   0  0  0  0  0  2  0  0  0  0  0  0
  186.9930  176.6680  143.1000 C   0  0  2  0  0  3  0  0  0  0  0  0
  186.8070  177.8390  142.1180 C   0  0  1  0  0  3  0  0  0  0  0  0
  187.5990  177.6860  140.9750 O   0  0  0  0  0  1  0  0  0  0  0  0
  183.0690  178.3870  142.4350 C   0  0  0  0  0  3  0  0  0  0  0  0
  183.6210  178.1470  140.1240 N   0  0  0  0  0  0  0  0  0  0  0  0
  182.6840  178.3310  141.0950 C   0  0  0  0  0  0  0  0  0  0  0  0
  185.3670  178.0540  141.7560 C   0  0  0  0  0  0  0  0  0  0  0  0
  184.4190  178.2440  142.7650 C   0  0  0  0  0  3  0  0  0  0  0  0
  181.2530  178.4840  140.7260 C   0  0  0  0  0  1  0  0  0  0  0  0
  184.9390  178.0020  140.4230 C   0  0  0  0  0  3  0  0  0  0  0  0
  187.9020  177.0250  144.2880 C   0  0  2  0  0  3  0  0  0  0  0  0
  186.5950  177.6030  147.6110 O   0  0  0  0  0  0  0  0  0  0  0  0
  187.5500  177.7290  146.7190 C   0  0  0  0  0  3  0  0  0  0  0  0
  187.0950  177.1770  145.5440 C   0  0  0  0  0  0  0  0  0  0  0  0
  185.5560  176.9940  147.0840 C   0  0  0  0  0  3  0  0  0  0  0  0
  185.8210  176.6900  145.7610 C   0  0  0  0  0  3  0  0  0  0  0  0
  188.5950  178.2120  144.0320 O   0  0  0  0  0  0  0  0  0  0  0  0
  189.9460  177.8730  144.1300 C   0  0  0  0  0  1  0  0  0  0  0  0
  188.8690  175.0250  142.6160 C   0  0  0  0  0  2  0  0  0  0  0  0
  189.0780  173.5350  142.4430 C   0  0  0  0  0  2  0  0  0  0  0  0
  191.5490  173.3160  142.0110 C   0  0  0  0  0  0  0  0  0  0  0  0
  191.4060  173.8060  140.8590 O   0  0  0  0  0  0  0  0  0  0  0  0
  192.8440  172.9030  142.4370 N   0  0  0  0  0  1  0  0  0  0  0  0
  190.4170  173.1660  142.8830 N   0  0  0  0  0  0  0  0  0  0  0  0
  190.5720  172.5930  144.2130 C   0  0  0  0  0  2  0  0  0  0  0  0
  190.7720  175.2670  147.6130 C   0  0  0  0  0  2  0  0  0  0  0  0
  191.5730  175.6980  146.3920 C   0  0  2  0  0  3  0  0  0  0  0  0
  189.3950  174.8070  147.1530 C   0  0  0  0  0  2  0  0  0  0  0  0
  191.8050  174.4900  145.4750 C   0  0  0  0  0  2  0  0  0  0  0  0
  189.4950  173.7610  146.0750 C   0  0  0  0  0  3  0  0  0  0  0  0
  190.5550  173.6700  145.2530 C   0  0  0  0  0  0  0  0  0  0  0  0
  192.8960  176.2970  146.8410 C   0  0  0  0  0  2  0  0  0  0  0  0
  194.0640  175.5010  146.2860 C   0  0  0  0  0  2  0  0  0  0  0  0
  194.9460  177.8510  145.6990 C   0  0  0  0  0  1  0  0  0  0  0  0
  194.9460  176.3810  145.4630 C   0  0  0  0  0  0  0  0  0  0  0  0
  195.6540  175.9050  144.5910 O   0  0  0  0  0  0  0  0  0  0  0  0
  1 20  1  0  0  0  0
  2  1  1  6  0  0  0
  2 12  1  0  0  0  0
  3  4  1  6  0  0  0
  3  2  1  0  0  0  0
  5  9  1  0  0  0  0
  6 11  2  0  0  0  0
  6  7  1  0  0  0  0
  7  5  2  0  0  0  0
  8  3  1  0  0  0  0
  8  9  2  0  0  0  0
 10  7  1  0  0  0  0
 11  8  1  0  0  0  0
 12 18  1  6  0  0  0
 12 15  1  0  0  0  0
 14 13  1  0  0  0  0
 15 17  1  0  0  0  0
 15 14  2  0  0  0  0
 16 13  1  0  0  0  0
 17 16  2  0  0  0  0
 18 19  1  0  0  0  0
 21 20  1  0  0  0  0
 21 25  1  0  0  0  0
 22 24  1  0  0  0  0
 22 25  1  0  0  0  0
 23 22  2  0  0  0  0
 25 26  1  0  0  0  0
 26 32  1  0  0  0  0
 28 33  1  1  0  0  0
 28 27  1  0  0  0  0
 29 27  1  0  0  0  0
 30 28  1  0  0  0  0
 31 29  1  0  0  0  0
 32 30  1  0  0  0  0
 32 31  2  0  0  0  0
 34 33  1  0  0  0  0
 36 35  1  0  0  0  0
 36 34  1  0  0  0  0
 37 36  2  0  0  0  0
M  END
>  <MODEL>
1

>  <REMARK>
 VINA RESULT:      -6.9      0.000      0.000
  Name = 
  14 active torsions:
  status: ('A' for Active; 'I' for Inactive)
    1  A    between atoms: C_1  and  C_2
    2  A    between atoms: C_1  and  C_17
    3  A    between atoms: C_2  and  C_36
    4  A    between atoms: C_2  and  C_37
    5  A    between atoms: C_7  and  C_23
    6  A    between atoms: C_12  and  C_13
    7  A    between atoms: C_12  and  C_23
    8  A    between atoms: C_19  and  C_36
    9  A    between atoms: N_25  and  C_28
   10  A    between atoms: N_25  and  C_32
   11  A    between atoms: O_27  and  C_36
   12  A    between atoms: C_28  and  C_35
   13  A    between atoms: C_32  and  C_34
   14  A    between atoms: C_35  and  C_37
                            x       y       z     vdW  Elec       q    Type
                         _______ _______ _______ _____ _____    ______ ____

>  <TORSDO>
F 14

$$$$
=
 OpenBabel11062421533D

 37 39  0  0  1  0  0  0  0  0999 V2000
  189.4790  173.9700  144.3640 C   0  0  0  0  0  2  0  0  0  0  0  0
  190.4770  173.7110  143.2250 C   0  0  2  0  0  3  0  0  0  0  0  0
  190.0580  172.5640  142.2850 C   0  0  1  0  0  3  0  0  0  0  0  0
  188.9920  171.8280  142.8130 O   0  0  0  0  0  1  0  0  0  0  0  0
  188.3720  174.3590  139.4030 C   0  0  0  0  0  3  0  0  0  0  0  0
  190.1200  172.9790  138.5370 N   0  0  0  0  0  0  0  0  0  0  0  0
  189.0990  173.8540  138.3230 C   0  0  0  0  0  0  0  0  0  0  0  0
  189.7500  173.0490  140.9000 C   0  0  0  0  0  0  0  0  0  0  0  0
  188.7000  173.9490  140.6980 C   0  0  0  0  0  3  0  0  0  0  0  0
  188.7660  174.2810  136.9390 C   0  0  0  0  0  1  0  0  0  0  0  0
  190.4530  172.5650  139.7890 C   0  0  0  0  0  3  0  0  0  0  0  0
  191.9240  173.5720  143.7260 C   0  0  2  0  0  3  0  0  0  0  0  0
  193.7040  176.0040  141.7270 O   0  0  0  0  0  0  0  0  0  0  0  0
  192.7460  175.1170  141.8650 C   0  0  0  0  0  3  0  0  0  0  0  0
  192.7860  174.6630  143.1620 C   0  0  0  0  0  0  0  0  0  0  0  0
  194.3650  176.1410  142.8550 C   0  0  0  0  0  3  0  0  0  0  0  0
  193.8260  175.3000  143.8110 C   0  0  0  0  0  3  0  0  0  0  0  0
  192.4490  172.3270  143.3630 O   0  0  0  0  0  0  0  0  0  0  0  0
  192.9200  171.7690  144.5530 C   0  0  0  0  0  1  0  0  0  0  0  0
  190.1580  174.0930  145.7150 C   0  0  0  0  0  2  0  0  0  0  0  0
  189.2150  174.7670  146.6910 C   0  0  0  0  0  2  0  0  0  0  0  0
  190.9510  176.0850  147.9520 C   0  0  0  0  0  0  0  0  0  0  0  0
  191.5390  175.0210  148.2830 O   0  0  0  0  0  0  0  0  0  0  0  0
  191.4580  177.3340  148.4120 N   0  0  0  0  0  1  0  0  0  0  0  0
  189.7760  176.0390  147.1270 N   0  0  0  0  0  0  0  0  0  0  0  0
  189.0850  177.2640  146.7460 C   0  0  0  0  0  2  0  0  0  0  0  0
  189.4310  177.2440  142.4300 C   0  0  0  0  0  2  0  0  0  0  0  0
  188.1000  177.7410  142.9790 C   0  0  2  0  0  3  0  0  0  0  0  0
  190.5570  177.8880  143.2280 C   0  0  0  0  0  2  0  0  0  0  0  0
  187.9300  177.2640  144.4270 C   0  0  0  0  0  2  0  0  0  0  0  0
  190.3760  177.6740  144.7070 C   0  0  0  0  0  3  0  0  0  0  0  0
  189.1700  177.4750  145.2660 C   0  0  0  0  0  0  0  0  0  0  0  0
  186.9690  177.2250  142.1040 C   0  0  0  0  0  2  0  0  0  0  0  0
  185.7650  176.8480  142.9480 C   0  0  0  0  0  2  0  0  0  0  0  0
  184.2690  178.6740  143.9840 C   0  0  0  0  0  1  0  0  0  0  0  0
  184.6880  177.8720  142.8020 C   0  0  0  0  0  0  0  0  0  0  0  0
  184.1400  178.0430  141.7250 O   0  0  0  0  0  0  0  0  0  0  0  0
  1 20  1  0  0  0  0
  2 12  1  0  0  0  0
  2  1  1  1  0  0  0
  3  4  1  1  0  0  0
  3  2  1  0  0  0  0
  5  9  1  0  0  0  0
  6 11  2  0  0  0  0
  7  6  1  0  0  0  0
  7  5  2  0  0  0  0
  8  3  1  0  0  0  0
  9  8  2  0  0  0  0
 10  7  1  0  0  0  0
 11  8  1  0  0  0  0
 12 18  1  6  0  0  0
 13 14  1  0  0  0  0
 13 16  1  0  0  0  0
 14 15  2  0  0  0  0
 15 12  1  0  0  0  0
 15 17  1  0  0  0  0
 16 17  2  0  0  0  0
 18 19  1  0  0  0  0
 20 21  1  0  0  0  0
 21 25  1  0  0  0  0
 22 23  2  0  0  0  0
 22 24  1  0  0  0  0
 25 22  1  0  0  0  0
 26 25  1  0  0  0  0
 27 28  1  0  0  0  0
 27 29  1  0  0  0  0
 28 33  1  6  0  0  0
 28 30  1  0  0  0  0
 29 31  1  0  0  0  0
 30 32  1  0  0  0  0
 31 32  2  0  0  0  0
 32 26  1  0  0  0  0
 33 34  1  0  0  0  0
 36 34  1  0  0  0  0
 36 35  1  0  0  0  0
 37 36  2  0  0  0  0
M  END
>  <MODEL>
2

>  <REMARK>
 VINA RESULT:      -6.7      2.920      7.216
  Name = 
  14 active torsions:
  status: ('A' for Active; 'I' for Inactive)
    1  A    between atoms: C_1  and  C_2
    2  A    between atoms: C_1  and  C_17
    3  A    between atoms: C_2  and  C_36
    4  A    between atoms: C_2  and  C_37
    5  A    between atoms: C_7  and  C_23
    6  A    between atoms: C_12  and  C_13
    7  A    between atoms: C_12  and  C_23
    8  A    between atoms: C_19  and  C_36
    9  A    between atoms: N_25  and  C_28
   10  A    between atoms: N_25  and  C_32
   11  A    between atoms: O_27  and  C_36
   12  A    between atoms: C_28  and  C_35
   13  A    between atoms: C_32  and  C_34
   14  A    between atoms: C_35  and  C_37
                            x       y       z     vdW  Elec       q    Type
                         _______ _______ _______ _____ _____    ______ ____

>  <TORSDO>
F 14

$$$$
=
 OpenBabel11062421533D

 37 39  0  0  1  0  0  0  0  0999 V2000
  191.3280  177.7750  144.3020 C   0  0  0  0  0  2  0  0  0  0  0  0
  191.6740  176.5470  145.1560 C   0  0  2  0  0  3  0  0  0  0  0  0
  192.1330  175.3300  144.3310 C   0  0  1  0  0  3  0  0  0  0  0  0
  192.2190  175.6320  142.9680 O   0  0  0  0  0  1  0  0  0  0  0  0
  195.4510  174.9900  146.1330 C   0  0  0  0  0  3  0  0  0  0  0  0
  195.0620  173.0120  144.8510 N   0  0  0  0  0  0  0  0  0  0  0  0
  195.8590  173.7320  145.6880 C   0  0  0  0  0  0  0  0  0  0  0  0
  193.4200  174.7510  144.8400 C   0  0  0  0  0  0  0  0  0  0  0  0
  194.2250  175.5020  145.7020 C   0  0  0  0  0  3  0  0  0  0  0  0
  197.1600  173.1710  146.1390 C   0  0  0  0  0  1  0  0  0  0  0  0
  193.8670  173.4940  144.4170 C   0  0  0  0  0  3  0  0  0  0  0  0
  190.5680  176.1990  146.1670 C   0  0  2  0  0  3  0  0  0  0  0  0
  190.4260  178.5460  148.9140 O   0  0  0  0  0  0  0  0  0  0  0  0
  189.9170  178.0370  147.8160 C   0  0  0  0  0  3  0  0  0  0  0  0
  190.7300  177.0000  147.4250 C   0  0  0  0  0  0  0  0  0  0  0  0
  191.5230  177.9050  149.2480 C   0  0  0  0  0  3  0  0  0  0  0  0
  191.7730  176.9060  148.3250 C   0  0  0  0  0  3  0  0  0  0  0  0
  190.6000  174.8350  146.4750 O   0  0  0  0  0  0  0  0  0  0  0  0
  189.3140  174.5330  146.9260 C   0  0  0  0  0  1  0  0  0  0  0  0
  189.8560  177.8310  143.9320 C   0  0  0  0  0  2  0  0  0  0  0  0
  189.7150  177.7620  142.4250 C   0  0  0  0  0  2  0  0  0  0  0  0
  188.2290  175.7330  142.5400 C   0  0  0  0  0  0  0  0  0  0  0  0
  189.0530  175.1540  143.2960 O   0  0  0  0  0  0  0  0  0  0  0  0
  187.0450  175.0470  142.1440 N   0  0  0  0  0  1  0  0  0  0  0  0
  188.4850  177.0670  142.0720 N   0  0  0  0  0  0  0  0  0  0  0  0
  187.5410  177.7410  141.1900 C   0  0  0  0  0  2  0  0  0  0  0  0
  184.0820  178.4820  143.6880 C   0  0  0  0  0  2  0  0  0  0  0  0
  185.2570  179.4290  143.8960 C   0  0  2  0  0  3  0  0  0  0  0  0
  183.8530  178.3130  142.1920 C   0  0  0  0  0  2  0  0  0  0  0  0
  186.5360  178.7970  143.3310 C   0  0  0  0  0  2  0  0  0  0  0  0
  185.1160  177.9010  141.4840 C   0  0  0  0  0  3  0  0  0  0  0  0
  186.3390  178.1960  141.9580 C   0  0  0  0  0  0  0  0  0  0  0  0
  185.4100  179.7270  145.3780 C   0  0  0  0  0  2  0  0  0  0  0  0
  184.8160  178.6080  146.2160 C   0  0  0  0  0  2  0  0  0  0  0  0
  186.6290  176.7740  146.2280 C   0  0  0  0  0  1  0  0  0  0  0  0
  185.8970  177.8650  146.9300 C   0  0  0  0  0  0  0  0  0  0  0  0
  186.1740  178.1370  148.0870 O   0  0  0  0  0  0  0  0  0  0  0  0
  2  1  1  6  0  0  0
  2 12  1  0  0  0  0
  3  4  1  6  0  0  0
  3  8  1  0  0  0  0
  3  2  1  0  0  0  0
  6  7  1  0  0  0  0
  7  5  2  0  0  0  0
  7 10  1  0  0  0  0
  8  9  2  0  0  0  0
  9  5  1  0  0  0  0
 11  8  1  0  0  0  0
 11  6  2  0  0  0  0
 12 18  1  1  0  0  0
 12 15  1  0  0  0  0
 13 16  1  0  0  0  0
 14 13  1  0  0  0  0
 15 14  2  0  0  0  0
 15 17  1  0  0  0  0
 17 16  2  0  0  0  0
 18 19  1  0  0  0  0
 20  1  1  0  0  0  0
 21 20  1  0  0  0  0
 22 23  2  0  0  0  0
 24 22  1  0  0  0  0
 25 21  1  0  0  0  0
 25 22  1  0  0  0  0
 26 32  1  0  0  0  0
 26 25  1  0  0  0  0
 27 28  1  0  0  0  0
 28 33  1  1  0  0  0
 29 27  1  0  0  0  0
 30 28  1  0  0  0  0
 31 32  2  0  0  0  0
 31 29  1  0  0  0  0
 32 30  1  0  0  0  0
 33 34  1  0  0  0  0
 34 36  1  0  0  0  0
 35 36  1  0  0  0  0
 36 37  2  0  0  0  0
M  END
>  <MODEL>
3

>  <REMARK>
 VINA RESULT:      -6.6      2.311      8.122
  Name = 
  14 active torsions:
  status: ('A' for Active; 'I' for Inactive)
    1  A    between atoms: C_1  and  C_2
    2  A    between atoms: C_1  and  C_17
    3  A    between atoms: C_2  and  C_36
    4  A    between atoms: C_2  and  C_37
    5  A    between atoms: C_7  and  C_23
    6  A    between atoms: C_12  and  C_13
    7  A    between atoms: C_12  and  C_23
    8  A    between atoms: C_19  and  C_36
    9  A    between atoms: N_25  and  C_28
   10  A    between atoms: N_25  and  C_32
   11  A    between atoms: O_27  and  C_36
   12  A    between atoms: C_28  and  C_35
   13  A    between atoms: C_32  and  C_34
   14  A    between atoms: C_35  and  C_37
                            x       y       z     vdW  Elec       q    Type
                         _______ _______ _______ _____ _____    ______ ____

>  <TORSDO>
F 14

$$$$
=
 OpenBabel11062421533D

 37 39  0  0  1  0  0  0  0  0999 V2000
  194.3650  174.1510  142.4080 C   0  0  0  0  0  2  0  0  0  0  0  0
  194.9430  173.8670  143.8020 C   0  0  2  0  0  3  0  0  0  0  0  0
  195.3770  175.1360  144.5600 C   0  0  1  0  0  3  0  0  0  0  0  0
  195.6690  176.1870  143.6850 O   0  0  0  0  0  1  0  0  0  0  0  0
  192.3610  175.0890  146.8570 C   0  0  0  0  0  3  0  0  0  0  0  0
  193.4580  177.2020  147.0650 N   0  0  0  0  0  0  0  0  0  0  0  0
  192.4390  176.3680  147.4120 C   0  0  0  0  0  0  0  0  0  0  0  0
  194.3710  175.5530  145.5920 C   0  0  0  0  0  0  0  0  0  0  0  0
  193.3330  174.6830  145.9390 C   0  0  0  0  0  3  0  0  0  0  0  0
  191.4150  176.8150  148.3920 C   0  0  0  0  0  1  0  0  0  0  0  0
  194.4110  176.8270  146.1710 C   0  0  0  0  0  3  0  0  0  0  0  0
  196.0340  172.7830  143.7810 C   0  0  2  0  0  3  0  0  0  0  0  0
  196.1550  170.1990  146.3070 O   0  0  0  0  0  0  0  0  0  0  0  0
  196.7580  171.0620  145.5230 C   0  0  0  0  0  3  0  0  0  0  0  0
  195.7850  171.7600  144.8490 C   0  0  0  0  0  0  0  0  0  0  0  0
  194.8510  170.2930  146.1720 C   0  0  0  0  0  3  0  0  0  0  0  0
  194.5530  171.2740  145.2430 C   0  0  0  0  0  3  0  0  0  0  0  0
  197.2960  173.3580  143.9700 O   0  0  0  0  0  0  0  0  0  0  0  0
  197.9400  173.2340  142.7370 C   0  0  0  0  0  1  0  0  0  0  0  0
  193.4010  173.0720  141.9470 C   0  0  0  0  0  2  0  0  0  0  0  0
  192.2220  173.0140  142.8970 C   0  0  0  0  0  2  0  0  0  0  0  0
  190.0680  172.2470  141.8450 C   0  0  0  0  0  0  0  0  0  0  0  0
  190.2970  171.0610  142.2050 O   0  0  0  0  0  0  0  0  0  0  0  0
  188.8900  172.5320  141.0950 N   0  0  0  0  0  1  0  0  0  0  0  0
  190.9880  173.2980  142.1770 N   0  0  0  0  0  0  0  0  0  0  0  0
  190.7350  174.6700  141.7580 C   0  0  0  0  0  2  0  0  0  0  0  0
  189.9000  177.5880  144.8460 C   0  0  0  0  0  2  0  0  0  0  0  0
  189.5690  176.1440  145.2010 C   0  0  2  0  0  3  0  0  0  0  0  0
  191.2730  177.6250  144.1890 C   0  0  0  0  0  2  0  0  0  0  0  0
  189.4570  175.3100  143.9180 C   0  0  0  0  0  2  0  0  0  0  0  0
  191.3560  176.6660  143.0320 C   0  0  0  0  0  3  0  0  0  0  0  0
  190.5890  175.5640  142.9490 C   0  0  0  0  0  0  0  0  0  0  0  0
  188.2690  176.1020  145.9880 C   0  0  0  0  0  2  0  0  0  0  0  0
  187.7890  177.5070  146.3090 C   0  0  0  0  0  2  0  0  0  0  0  0
  185.2940  176.8570  146.2590 C   0  0  0  0  0  1  0  0  0  0  0  0
  186.4090  177.7170  145.7760 C   0  0  0  0  0  0  0  0  0  0  0  0
  186.1950  178.5780  144.9380 O   0  0  0  0  0  0  0  0  0  0  0  0
  2  1  1  6  0  0  0
  2  3  1  0  0  0  0
  3  4  1  6  0  0  0
  3  8  1  0  0  0  0
  5  7  1  0  0  0  0
  6  7  2  0  0  0  0
  7 10  1  0  0  0  0
  8  9  1  0  0  0  0
  8 11  2  0  0  0  0
  9  5  2  0  0  0  0
 11  6  1  0  0  0  0
 12  2  1  0  0  0  0
 12 18  1  1  0  0  0
 12 15  1  0  0  0  0
 14 13  1  0  0  0  0
 15 17  1  0  0  0  0
 15 14  2  0  0  0  0
 16 13  1  0  0  0  0
 17 16  2  0  0  0  0
 19 18  1  0  0  0  0
 20  1  1  0  0  0  0
 20 21  1  0  0  0  0
 22 25  1  0  0  0  0
 22 23  2  0  0  0  0
 24 22  1  0  0  0  0
 25 21  1  0  0  0  0
 26 25  1  0  0  0  0
 26 32  1  0  0  0  0
 27 28  1  0  0  0  0
 28 33  1  6  0  0  0
 29 27  1  0  0  0  0
 30 28  1  0  0  0  0
 31 29  1  0  0  0  0
 32 31  2  0  0  0  0
 32 30  1  0  0  0  0
 33 34  1  0  0  0  0
 36 35  1  0  0  0  0
 36 34  1  0  0  0  0
 37 36  2  0  0  0  0
M  END
>  <MODEL>
4

>  <REMARK>
 VINA RESULT:      -6.6      3.084      8.315
  Name = 
  14 active torsions:
  status: ('A' for Active; 'I' for Inactive)
    1  A    between atoms: C_1  and  C_2
    2  A    between atoms: C_1  and  C_17
    3  A    between atoms: C_2  and  C_36
    4  A    between atoms: C_2  and  C_37
    5  A    between atoms: C_7  and  C_23
    6  A    between atoms: C_12  and  C_13
    7  A    between atoms: C_12  and  C_23
    8  A    between atoms: C_19  and  C_36
    9  A    between atoms: N_25  and  C_28
   10  A    between atoms: N_25  and  C_32
   11  A    between atoms: O_27  and  C_36
   12  A    between atoms: C_28  and  C_35
   13  A    between atoms: C_32  and  C_34
   14  A    between atoms: C_35  and  C_37
                            x       y       z     vdW  Elec       q    Type
                         _______ _______ _______ _____ _____    ______ ____

>  <TORSDO>
F 14

$$$$
=
 OpenBabel11062421533D

 37 39  0  0  1  0  0  0  0  0999 V2000
  192.3010  172.5130  144.5870 C   0  0  0  0  0  2  0  0  0  0  0  0
  191.6570  172.9840  143.2730 C   0  0  2  0  0  3  0  0  0  0  0  0
  190.1210  172.8830  143.2680 C   0  0  1  0  0  3  0  0  0  0  0  0
  189.6250  172.4720  144.5100 O   0  0  0  0  0  1  0  0  0  0  0  0
  187.4840  175.3590  142.1340 C   0  0  0  0  0  3  0  0  0  0  0  0
  189.6200  176.4280  142.0820 N   0  0  0  0  0  0  0  0  0  0  0  0
  188.2760  176.4780  141.8700 C   0  0  0  0  0  0  0  0  0  0  0  0
  189.4690  174.1570  142.8180 C   0  0  0  0  0  0  0  0  0  0  0  0
  188.0870  174.1910  142.6070 C   0  0  0  0  0  3  0  0  0  0  0  0
  187.6500  177.7290  141.3680 C   0  0  0  0  0  1  0  0  0  0  0  0
  190.2270  175.3000  142.5390 C   0  0  0  0  0  3  0  0  0  0  0  0
  192.3020  172.3390  142.0350 C   0  0  2  0  0  3  0  0  0  0  0  0
  193.5840  174.7680  139.6820 O   0  0  0  0  0  0  0  0  0  0  0  0
  192.5990  174.0380  140.1500 C   0  0  0  0  0  3  0  0  0  0  0  0
  193.0720  173.3590  141.2480 C   0  0  0  0  0  0  0  0  0  0  0  0
  194.6670  174.5920  140.4060 C   0  0  0  0  0  3  0  0  0  0  0  0
  194.4000  173.6920  141.4220 C   0  0  0  0  0  3  0  0  0  0  0  0
  191.3220  171.7630  141.2200 O   0  0  0  0  0  0  0  0  0  0  0  0
  191.8170  170.4980  140.8960 C   0  0  0  0  0  1  0  0  0  0  0  0
  193.1170  173.6030  145.2580 C   0  0  0  0  0  2  0  0  0  0  0  0
  192.7160  174.9500  144.6920 C   0  0  0  0  0  2  0  0  0  0  0  0
  194.3790  176.7720  145.1970 C   0  0  0  0  0  0  0  0  0  0  0  0
  194.9790  176.5450  144.1130 O   0  0  0  0  0  0  0  0  0  0  0  0
  194.8780  177.7780  146.0730 N   0  0  0  0  0  1  0  0  0  0  0  0
  193.2090  176.0180  145.5520 N   0  0  0  0  0  0  0  0  0  0  0  0
  192.5130  176.2680  146.8070 C   0  0  0  0  0  2  0  0  0  0  0  0
  188.1900  176.0360  146.8420 C   0  0  0  0  0  2  0  0  0  0  0  0
  188.8050  176.6170  145.5750 C   0  0  2  0  0  3  0  0  0  0  0  0
  188.9690  174.7880  147.2330 C   0  0  0  0  0  2  0  0  0  0  0  0
  190.2400  177.0770  145.8630 C   0  0  0  0  0  2  0  0  0  0  0  0
  190.4450  175.0690  147.3320 C   0  0  0  0  0  3  0  0  0  0  0  0
  191.0410  176.0570  146.6420 C   0  0  0  0  0  0  0  0  0  0  0  0
  187.9540  177.7770  145.0860 C   0  0  0  0  0  2  0  0  0  0  0  0
  186.4800  177.5060  145.3350 C   0  0  0  0  0  2  0  0  0  0  0  0
  185.5050  179.6460  144.2790 C   0  0  0  0  0  1  0  0  0  0  0  0
  185.7340  178.7910  145.4760 C   0  0  0  0  0  0  0  0  0  0  0  0
  185.3240  179.1510  146.5680 O   0  0  0  0  0  0  0  0  0  0  0  0
  1 20  1  0  0  0  0
  2  1  1  1  0  0  0
  3  2  1  0  0  0  0
  3  4  1  1  0  0  0
  5  9  1  0  0  0  0
  6 11  2  0  0  0  0
  7  6  1  0  0  0  0
  7  5  2  0  0  0  0
  8  3  1  0  0  0  0
  9  8  2  0  0  0  0
 10  7  1  0  0  0  0
 11  8  1  0  0  0  0
 12 18  1  6  0  0  0
 12  2  1  0  0  0  0
 13 14  1  0  0  0  0
 13 16  1  0  0  0  0
 14 15  2  0  0  0  0
 15 17  1  0  0  0  0
 15 12  1  0  0  0  0
 16 17  2  0  0  0  0
 19 18  1  0  0  0  0
 21 20  1  0  0  0  0
 21 25  1  0  0  0  0
 22 25  1  0  0  0  0
 22 24  1  0  0  0  0
 23 22  2  0  0  0  0
 25 26  1  0  0  0  0
 27 29  1  0  0  0  0
 28 33  1  1  0  0  0
 28 30  1  0  0  0  0
 28 27  1  0  0  0  0
 29 31  1  0  0  0  0
 30 32  1  0  0  0  0
 32 26  1  0  0  0  0
 32 31  2  0  0  0  0
 33 34  1  0  0  0  0
 34 36  1  0  0  0  0
 35 36  1  0  0  0  0
 36 37  2  0  0  0  0
M  END
>  <MODEL>
5

>  <REMARK>
 VINA RESULT:      -6.6      2.657      6.808
  Name = 
  14 active torsions:
  status: ('A' for Active; 'I' for Inactive)
    1  A    between atoms: C_1  and  C_2
    2  A    between atoms: C_1  and  C_17
    3  A    between atoms: C_2  and  C_36
    4  A    between atoms: C_2  and  C_37
    5  A    between atoms: C_7  and  C_23
    6  A    between atoms: C_12  and  C_13
    7  A    between atoms: C_12  and  C_23
    8  A    between atoms: C_19  and  C_36
    9  A    between atoms: N_25  and  C_28
   10  A    between atoms: N_25  and  C_32
   11  A    between atoms: O_27  and  C_36
   12  A    between atoms: C_28  and  C_35
   13  A    between atoms: C_32  and  C_34
   14  A    between atoms: C_35  and  C_37
                            x       y       z     vdW  Elec       q    Type
                         _______ _______ _______ _____ _____    ______ ____

>  <TORSDO>
F 14

$$$$
=
 OpenBabel11062421533D

 37 39  0  0  1  0  0  0  0  0999 V2000
  190.9270  173.2200  144.4760 C   0  0  0  0  0  2  0  0  0  0  0  0
  191.9300  174.2890  144.9360 C   0  0  2  0  0  3  0  0  0  0  0  0
  193.2520  173.7060  145.4690 C   0  0  1  0  0  3  0  0  0  0  0  0
  193.2830  172.3120  145.3610 O   0  0  0  0  0  1  0  0  0  0  0  0
  195.4550  175.4360  142.9150 C   0  0  0  0  0  3  0  0  0  0  0  0
  196.7950  174.8050  144.7890 N   0  0  0  0  0  0  0  0  0  0  0  0
  196.6940  175.3710  143.5550 C   0  0  0  0  0  0  0  0  0  0  0  0
  194.4510  174.3270  144.8170 C   0  0  0  0  0  0  0  0  0  0  0  0
  194.3290  174.9060  143.5500 C   0  0  0  0  0  3  0  0  0  0  0  0
  197.9010  175.9310  142.8940 C   0  0  0  0  0  1  0  0  0  0  0  0
  195.7120  174.2820  145.4240 C   0  0  0  0  0  3  0  0  0  0  0  0
  191.3020  175.3160  145.8930 C   0  0  2  0  0  3  0  0  0  0  0  0
  189.6790  178.1290  144.3020 O   0  0  0  0  0  0  0  0  0  0  0  0
  189.6500  177.1050  145.1230 C   0  0  0  0  0  3  0  0  0  0  0  0
  190.9120  176.5600  145.1520 C   0  0  0  0  0  0  0  0  0  0  0  0
  190.8820  178.2700  143.7920 C   0  0  0  0  0  3  0  0  0  0  0  0
  191.7150  177.2870  144.2950 C   0  0  0  0  0  3  0  0  0  0  0  0
  192.2010  175.6430  146.9140 O   0  0  0  0  0  0  0  0  0  0  0  0
  191.4180  175.7550  148.0650 C   0  0  0  0  0  1  0  0  0  0  0  0
  190.8900  173.0690  142.9660 C   0  0  0  0  0  2  0  0  0  0  0  0
  190.3680  174.3500  142.3460 C   0  0  0  0  0  2  0  0  0  0  0  0
  189.3990  173.6760  140.1220 C   0  0  0  0  0  0  0  0  0  0  0  0
  190.5560  173.5480  139.6400 O   0  0  0  0  0  0  0  0  0  0  0  0
  188.2670  173.4450  139.2890 N   0  0  0  0  0  1  0  0  0  0  0  0
  189.2220  174.0590  141.4950 N   0  0  0  0  0  0  0  0  0  0  0  0
  187.8880  174.2170  142.0590 C   0  0  0  0  0  2  0  0  0  0  0  0
  186.3590  178.2680  142.0470 C   0  0  0  0  0  2  0  0  0  0  0  0
  186.5000  177.6240  143.4200 C   0  0  2  0  0  3  0  0  0  0  0  0
  187.6220  177.9850  141.2460 C   0  0  0  0  0  2  0  0  0  0  0  0
  186.5830  176.1000  143.2690 C   0  0  0  0  0  2  0  0  0  0  0  0
  187.9360  176.5130  141.2120 C   0  0  0  0  0  3  0  0  0  0  0  0
  187.5360  175.6670  142.1780 C   0  0  0  0  0  0  0  0  0  0  0  0
  185.3150  178.0170  144.2860 C   0  0  0  0  0  2  0  0  0  0  0  0
  185.7740  178.8090  145.4980 C   0  0  0  0  0  2  0  0  0  0  0  0
  186.2700  177.0190  147.2860 C   0  0  0  0  0  1  0  0  0  0  0  0
  185.3930  178.0990  146.7560 C   0  0  0  0  0  0  0  0  0  0  0  0
  184.3630  178.3890  147.3420 O   0  0  0  0  0  0  0  0  0  0  0  0
  2  1  1  1  0  0  0
  2  3  1  0  0  0  0
  2 12  1  0  0  0  0
  3  4  1  6  0  0  0
  5  9  2  0  0  0  0
  5  7  1  0  0  0  0
  6 11  1  0  0  0  0
  7  6  2  0  0  0  0
  8 11  2  0  0  0  0
  8  3  1  0  0  0  0
  9  8  1  0  0  0  0
 10  7  1  0  0  0  0
 12 18  1  1  0  0  0
 13 14  1  0  0  0  0
 14 15  2  0  0  0  0
 15 12  1  0  0  0  0
 16 17  2  0  0  0  0
 16 13  1  0  0  0  0
 17 15  1  0  0  0  0
 18 19  1  0  0  0  0
 20  1  1  0  0  0  0
 21 20  1  0  0  0  0
 22 25  1  0  0  0  0
 23 22  2  0  0  0  0
 24 22  1  0  0  0  0
 25 26  1  0  0  0  0
 25 21  1  0  0  0  0
 26 32  1  0  0  0  0
 27 28  1  0  0  0  0
 28 33  1  1  0  0  0
 29 27  1  0  0  0  0
 30 28  1  0  0  0  0
 31 29  1  0  0  0  0
 31 32  2  0  0  0  0
 32 30  1  0  0  0  0
 33 34  1  0  0  0  0
 34 36  1  0  0  0  0
 36 35  1  0  0  0  0
 36 37  2  0  0  0  0
M  END
>  <MODEL>
6

>  <REMARK>
 VINA RESULT:      -6.5      2.466      8.058
  Name = 
  14 active torsions:
  status: ('A' for Active; 'I' for Inactive)
    1  A    between atoms: C_1  and  C_2
    2  A    between atoms: C_1  and  C_17
    3  A    between atoms: C_2  and  C_36
    4  A    between atoms: C_2  and  C_37
    5  A    between atoms: C_7  and  C_23
    6  A    between atoms: C_12  and  C_13
    7  A    between atoms: C_12  and  C_23
    8  A    between atoms: C_19  and  C_36
    9  A    between atoms: N_25  and  C_28
   10  A    between atoms: N_25  and  C_32
   11  A    between atoms: O_27  and  C_36
   12  A    between atoms: C_28  and  C_35
   13  A    between atoms: C_32  and  C_34
   14  A    between atoms: C_35  and  C_37
                            x       y       z     vdW  Elec       q    Type
                         _______ _______ _______ _____ _____    ______ ____

>  <TORSDO>
F 14

$$$$
=
 OpenBabel11062421533D

 37 39  0  0  1  0  0  0  0  0999 V2000
  191.4750  174.1170  142.5380 C   0  0  0  0  0  2  0  0  0  0  0  0
  190.2430  173.9960  141.6290 C   0  0  2  0  0  3  0  0  0  0  0  0
  188.9110  173.9310  142.4000 C   0  0  1  0  0  3  0  0  0  0  0  0
  189.0920  173.4680  143.7070 O   0  0  0  0  0  1  0  0  0  0  0  0
  188.2130  177.6470  142.1270 C   0  0  0  0  0  3  0  0  0  0  0  0
  186.1990  176.5280  142.7590 N   0  0  0  0  0  0  0  0  0  0  0  0
  186.8610  177.6830  142.4740 C   0  0  0  0  0  0  0  0  0  0  0  0
  188.1810  175.2420  142.3850 C   0  0  0  0  0  0  0  0  0  0  0  0
  188.8750  176.4180  142.0870 C   0  0  0  0  0  3  0  0  0  0  0  0
  186.1410  178.9820  142.5200 C   0  0  0  0  0  1  0  0  0  0  0  0
  186.8260  175.3210  142.7290 C   0  0  0  0  0  3  0  0  0  0  0  0
  190.3840  172.8730  140.5870 C   0  0  2  0  0  3  0  0  0  0  0  0
  188.1670  173.3800  137.7760 O   0  0  0  0  0  0  0  0  0  0  0  0
  188.3770  172.9890  139.0110 C   0  0  0  0  0  3  0  0  0  0  0  0
  189.6940  173.2480  139.3090 C   0  0  0  0  0  0  0  0  0  0  0  0
  189.2720  173.8660  137.2560 C   0  0  0  0  0  3  0  0  0  0  0  0
  190.2880  173.8010  138.1920 C   0  0  0  0  0  3  0  0  0  0  0  0
  189.8410  171.6810  141.0790 O   0  0  0  0  0  0  0  0  0  0  0  0
  190.8920  170.7620  141.0470 C   0  0  0  0  0  1  0  0  0  0  0  0
  192.5330  175.0410  141.9640 C   0  0  0  0  0  2  0  0  0  0  0  0
  192.5180  176.3530  142.7210 C   0  0  0  0  0  2  0  0  0  0  0  0
  194.6690  175.5900  143.7820 C   0  0  0  0  0  0  0  0  0  0  0  0
  195.0400  175.0740  142.6950 O   0  0  0  0  0  0  0  0  0  0  0  0
  195.5080  175.4790  144.9290 N   0  0  0  0  0  1  0  0  0  0  0  0
  193.4100  176.2760  143.8690 N   0  0  0  0  0  0  0  0  0  0  0  0
  192.9700  176.8690  145.1250 C   0  0  0  0  0  2  0  0  0  0  0  0
  189.2050  175.5760  146.8280 C   0  0  0  0  0  2  0  0  0  0  0  0
  189.0970  176.5230  145.6410 C   0  0  2  0  0  3  0  0  0  0  0  0
  190.2410  174.5080  146.5050 C   0  0  0  0  0  2  0  0  0  0  0  0
  190.4290  177.2580  145.4440 C   0  0  0  0  0  2  0  0  0  0  0  0
  191.5480  175.1190  146.0770 C   0  0  0  0  0  3  0  0  0  0  0  0
  191.6260  176.3370  145.5140 C   0  0  0  0  0  0  0  0  0  0  0  0
  187.9650  177.5090  145.8820 C   0  0  0  0  0  2  0  0  0  0  0  0
  186.6980  176.7820  146.2970 C   0  0  0  0  0  2  0  0  0  0  0  0
  185.5390  178.7940  147.4180 C   0  0  0  0  0  1  0  0  0  0  0  0
  185.5530  177.7380  146.3680 C   0  0  0  0  0  0  0  0  0  0  0  0
  184.6230  177.6490  145.5820 O   0  0  0  0  0  0  0  0  0  0  0  0
  2  3  1  0  0  0  0
  2  1  1  1  0  0  0
  3  4  1  1  0  0  0
  5  7  1  0  0  0  0
  7 10  1  0  0  0  0
  7  6  2  0  0  0  0
  8  3  1  0  0  0  0
  8 11  2  0  0  0  0
  9  5  2  0  0  0  0
  9  8  1  0  0  0  0
 11  6  1  0  0  0  0
 12 18  1  1  0  0  0
 12  2  1  0  0  0  0
 13 14  1  0  0  0  0
 14 15  2  0  0  0  0
 15 12  1  0  0  0  0
 16 13  1  0  0  0  0
 16 17  2  0  0  0  0
 17 15  1  0  0  0  0
 19 18  1  0  0  0  0
 20  1  1  0  0  0  0
 20 21  1  0  0  0  0
 21 25  1  0  0  0  0
 22 25  1  0  0  0  0
 22 24  1  0  0  0  0
 23 22  2  0  0  0  0
 25 26  1  0  0  0  0
 26 32  1  0  0  0  0
 28 33  1  1  0  0  0
 28 27  1  0  0  0  0
 29 27  1  0  0  0  0
 30 32  1  0  0  0  0
 30 28  1  0  0  0  0
 31 29  1  0  0  0  0
 32 31  2  0  0  0  0
 33 34  1  0  0  0  0
 34 36  1  0  0  0  0
 36 35  1  0  0  0  0
 37 36  2  0  0  0  0
M  END
>  <MODEL>
7

>  <REMARK>
 VINA RESULT:      -6.4      2.487      6.175
  Name = 
  14 active torsions:
  status: ('A' for Active; 'I' for Inactive)
    1  A    between atoms: C_1  and  C_2
    2  A    between atoms: C_1  and  C_17
    3  A    between atoms: C_2  and  C_36
    4  A    between atoms: C_2  and  C_37
    5  A    between atoms: C_7  and  C_23
    6  A    between atoms: C_12  and  C_13
    7  A    between atoms: C_12  and  C_23
    8  A    between atoms: C_19  and  C_36
    9  A    between atoms: N_25  and  C_28
   10  A    between atoms: N_25  and  C_32
   11  A    between atoms: O_27  and  C_36
   12  A    between atoms: C_28  and  C_35
   13  A    between atoms: C_32  and  C_34
   14  A    between atoms: C_35  and  C_37
                            x       y       z     vdW  Elec       q    Type
                         _______ _______ _______ _____ _____    ______ ____

>  <TORSDO>
F 14

$$$$
=
 OpenBabel11062421533D

 37 39  0  0  1  0  0  0  0  0999 V2000
  188.9980  175.7280  144.0390 C   0  0  0  0  0  2  0  0  0  0  0  0
  187.8150  176.6680  144.3160 C   0  0  2  0  0  3  0  0  0  0  0  0
  187.7970  177.9190  143.4180 C   0  0  1  0  0  3  0  0  0  0  0  0
  188.8930  177.9470  142.5480 O   0  0  0  0  0  1  0  0  0  0  0  0
  184.0970  178.2880  142.6790 C   0  0  0  0  0  3  0  0  0  0  0  0
  185.2780  178.0590  140.6150 N   0  0  0  0  0  0  0  0  0  0  0  0
  184.1020  178.2040  141.2850 C   0  0  0  0  0  0  0  0  0  0  0  0
  186.5060  178.0620  142.6670 C   0  0  0  0  0  0  0  0  0  0  0  0
  185.3080  178.2120  143.3710 C   0  0  0  0  0  3  0  0  0  0  0  0
  182.8230  178.2850  140.5320 C   0  0  0  0  0  1  0  0  0  0  0  0
  186.4660  177.9800  141.2700 C   0  0  0  0  0  3  0  0  0  0  0  0
  187.6630  177.0040  145.8090 C   0  0  2  0  0  3  0  0  0  0  0  0
  190.8550  176.4600  147.4200 O   0  0  0  0  0  0  0  0  0  0  0  0
  190.0150  177.2390  146.7780 C   0  0  0  0  0  3  0  0  0  0  0  0
  188.8560  176.5260  146.5830 C   0  0  0  0  0  0  0  0  0  0  0  0
  190.3100  175.2850  147.6400 C   0  0  0  0  0  3  0  0  0  0  0  0
  189.0290  175.2650  147.1190 C   0  0  0  0  0  3  0  0  0  0  0  0
  186.5040  176.4160  146.3260 O   0  0  0  0  0  0  0  0  0  0  0  0
  185.9000  177.4140  147.0930 C   0  0  0  0  0  1  0  0  0  0  0  0
  188.6420  174.6140  143.0710 C   0  0  0  0  0  2  0  0  0  0  0  0
  189.8720  174.2300  142.2740 C   0  0  0  0  0  2  0  0  0  0  0  0
  190.3540  171.9510  141.3200 C   0  0  0  0  0  0  0  0  0  0  0  0
  190.3200  172.4170  140.1500 O   0  0  0  0  0  0  0  0  0  0  0  0
  190.5810  170.5570  141.5090 N   0  0  0  0  0  1  0  0  0  0  0  0
  190.1570  172.8130  142.4520 N   0  0  0  0  0  0  0  0  0  0  0  0
  190.1870  172.2800  143.8080 C   0  0  0  0  0  2  0  0  0  0  0  0
  194.3020  172.9770  144.9620 C   0  0  0  0  0  2  0  0  0  0  0  0
  193.2580  173.7570  145.7510 C   0  0  2  0  0  3  0  0  0  0  0  0
  193.8360  171.5330  144.8360 C   0  0  0  0  0  2  0  0  0  0  0  0
  191.9410  173.7950  144.9660 C   0  0  0  0  0  2  0  0  0  0  0  0
  192.4430  171.4510  144.2730 C   0  0  0  0  0  3  0  0  0  0  0  0
  191.5490  172.4470  144.4060 C   0  0  0  0  0  0  0  0  0  0  0  0
  193.7710  175.1630  146.0150 C   0  0  0  0  0  2  0  0  0  0  0  0
  193.3170  176.1150  144.9220 C   0  0  0  0  0  2  0  0  0  0  0  0
  194.2090  176.0060  142.5060 C   0  0  0  0  0  1  0  0  0  0  0  0
  194.4200  176.3420  143.9410 C   0  0  0  0  0  0  0  0  0  0  0  0
  195.4950  176.7850  144.3100 O   0  0  0  0  0  0  0  0  0  0  0  0
  2  1  1  1  0  0  0
  2 12  1  0  0  0  0
  3  4  1  6  0  0  0
  3  2  1  0  0  0  0
  5  9  1  0  0  0  0
  6 11  2  0  0  0  0
  6  7  1  0  0  0  0
  7  5  2  0  0  0  0
  8  9  2  0  0  0  0
  8  3  1  0  0  0  0
 10  7  1  0  0  0  0
 11  8  1  0  0  0  0
 12 18  1  1  0  0  0
 12 15  1  0  0  0  0
 13 16  1  0  0  0  0
 14 13  1  0  0  0  0
 15 14  2  0  0  0  0
 15 17  1  0  0  0  0
 17 16  2  0  0  0  0
 18 19  1  0  0  0  0
 20  1  1  0  0  0  0
 21 25  1  0  0  0  0
 21 20  1  0  0  0  0
 22 24  1  0  0  0  0
 22 25  1  0  0  0  0
 23 22  2  0  0  0  0
 25 26  1  0  0  0  0
 26 32  1  0  0  0  0
 27 28  1  0  0  0  0
 28 33  1  6  0  0  0
 29 27  1  0  0  0  0
 30 28  1  0  0  0  0
 31 32  2  0  0  0  0
 31 29  1  0  0  0  0
 32 30  1  0  0  0  0
 34 33  1  0  0  0  0
 35 36  1  0  0  0  0
 36 37  2  0  0  0  0
 36 34  1  0  0  0  0
M  END
>  <MODEL>
8

>  <REMARK>
 VINA RESULT:      -6.3      1.724      2.719
  Name = 
  14 active torsions:
  status: ('A' for Active; 'I' for Inactive)
    1  A    between atoms: C_1  and  C_2
    2  A    between atoms: C_1  and  C_17
    3  A    between atoms: C_2  and  C_36
    4  A    between atoms: C_2  and  C_37
    5  A    between atoms: C_7  and  C_23
    6  A    between atoms: C_12  and  C_13
    7  A    between atoms: C_12  and  C_23
    8  A    between atoms: C_19  and  C_36
    9  A    between atoms: N_25  and  C_28
   10  A    between atoms: N_25  and  C_32
   11  A    between atoms: O_27  and  C_36
   12  A    between atoms: C_28  and  C_35
   13  A    between atoms: C_32  and  C_34
   14  A    between atoms: C_35  and  C_37
                            x       y       z     vdW  Elec       q    Type
                         _______ _______ _______ _____ _____    ______ ____

>  <TORSDO>
F 14

$$$$
=
 OpenBabel11062421533D

 37 39  0  0  1  0  0  0  0  0999 V2000
  190.2850  177.0560  142.9220 C   0  0  0  0  0  2  0  0  0  0  0  0
  190.9920  175.6930  142.9300 C   0  0  2  0  0  3  0  0  0  0  0  0
  192.4530  175.7520  142.4450 C   0  0  1  0  0  3  0  0  0  0  0  0
  192.8980  177.0700  142.3050 O   0  0  0  0  0  1  0  0  0  0  0  0
  194.4310  174.6140  145.4730 C   0  0  0  0  0  3  0  0  0  0  0  0
  195.0060  173.2320  143.6100 N   0  0  0  0  0  0  0  0  0  0  0  0
  195.1710  173.5680  144.9200 C   0  0  0  0  0  0  0  0  0  0  0  0
  193.3750  174.9580  143.3230 C   0  0  0  0  0  0  0  0  0  0  0  0
  193.5310  175.3140  144.6660 C   0  0  0  0  0  3  0  0  0  0  0  0
  196.1320  172.8110  145.7640 C   0  0  0  0  0  1  0  0  0  0  0  0
  194.1380  173.9030  142.8070 C   0  0  0  0  0  3  0  0  0  0  0  0
  190.1740  174.5980  142.2240 C   0  0  2  0  0  3  0  0  0  0  0  0
  188.9460  171.7150  144.0280 O   0  0  0  0  0  0  0  0  0  0  0  0
  188.9570  172.4760  142.9590 C   0  0  0  0  0  3  0  0  0  0  0  0
  189.8980  173.4580  143.1600 C   0  0  0  0  0  0  0  0  0  0  0  0
  189.8160  172.1540  144.9100 C   0  0  0  0  0  3  0  0  0  0  0  0
  190.4530  173.2760  144.4110 C   0  0  0  0  0  3  0  0  0  0  0  0
  190.8600  174.1250  141.1010 O   0  0  0  0  0  0  0  0  0  0  0  0
  189.9000  174.0620  140.0880 C   0  0  0  0  0  1  0  0  0  0  0  0
  188.8230  176.9520  142.5260 C   0  0  0  0  0  2  0  0  0  0  0  0
  188.3510  178.2900  141.9940 C   0  0  0  0  0  2  0  0  0  0  0  0
  185.9630  177.7150  141.4410 C   0  0  0  0  0  0  0  0  0  0  0  0
  186.3480  176.9030  140.5580 O   0  0  0  0  0  0  0  0  0  0  0  0
  184.5670  177.9120  141.6460 N   0  0  0  0  0  1  0  0  0  0  0  0
  186.9210  178.4410  142.2270 N   0  0  0  0  0  0  0  0  0  0  0  0
  186.4850  179.3880  143.2460 C   0  0  0  0  0  2  0  0  0  0  0  0
  185.2420  176.8260  146.5070 C   0  0  0  0  0  2  0  0  0  0  0  0
  186.7030  177.2560  146.5310 C   0  0  2  0  0  3  0  0  0  0  0  0
  184.3820  178.0420  146.1940 C   0  0  0  0  0  2  0  0  0  0  0  0
  187.1230  177.7350  145.1360 C   0  0  0  0  0  2  0  0  0  0  0  0
  184.8450  178.7380  144.9430 C   0  0  0  0  0  3  0  0  0  0  0  0
  186.1150  178.6690  144.5050 C   0  0  0  0  0  0  0  0  0  0  0  0
  187.5660  176.0900  146.9850 C   0  0  0  0  0  2  0  0  0  0  0  0
  188.7190  175.8670  146.0220 C   0  0  0  0  0  2  0  0  0  0  0  0
  190.6650  175.2850  147.6100 C   0  0  0  0  0  1  0  0  0  0  0  0
  190.0130  176.2370  146.6690 C   0  0  0  0  0  0  0  0  0  0  0  0
  190.5300  177.3190  146.4430 O   0  0  0  0  0  0  0  0  0  0  0  0
  2  1  1  6  0  0  0
  3  4  1  1  0  0  0
  3  2  1  0  0  0  0
  3  8  1  0  0  0  0
  6  7  2  0  0  0  0
  7  5  1  0  0  0  0
  7 10  1  0  0  0  0
  8  9  1  0  0  0  0
  9  5  2  0  0  0  0
 11  8  2  0  0  0  0
 11  6  1  0  0  0  0
 12 18  1  6  0  0  0
 12  2  1  0  0  0  0
 12 15  1  0  0  0  0
 13 16  1  0  0  0  0
 14 15  2  0  0  0  0
 14 13  1  0  0  0  0
 15 17  1  0  0  0  0
 17 16  2  0  0  0  0
 19 18  1  0  0  0  0
 20  1  1  0  0  0  0
 21 25  1  0  0  0  0
 21 20  1  0  0  0  0
 22 24  1  0  0  0  0
 22 25  1  0  0  0  0
 23 22  2  0  0  0  0
 25 26  1  0  0  0  0
 26 32  1  0  0  0  0
 27 28  1  0  0  0  0
 28 33  1  6  0  0  0
 29 27  1  0  0  0  0
 30 28  1  0  0  0  0
 31 29  1  0  0  0  0
 32 31  2  0  0  0  0
 32 30  1  0  0  0  0
 34 36  1  0  0  0  0
 34 33  1  0  0  0  0
 36 35  1  0  0  0  0
 37 36  2  0  0  0  0
M  END
>  <MODEL>
9

>  <REMARK>
 VINA RESULT:      -6.3      2.233      7.576
  Name = 
  14 active torsions:
  status: ('A' for Active; 'I' for Inactive)
    1  A    between atoms: C_1  and  C_2
    2  A    between atoms: C_1  and  C_17
    3  A    between atoms: C_2  and  C_36
    4  A    between atoms: C_2  and  C_37
    5  A    between atoms: C_7  and  C_23
    6  A    between atoms: C_12  and  C_13
    7  A    between atoms: C_12  and  C_23
    8  A    between atoms: C_19  and  C_36
    9  A    between atoms: N_25  and  C_28
   10  A    between atoms: N_25  and  C_32
   11  A    between atoms: O_27  and  C_36
   12  A    between atoms: C_28  and  C_35
   13  A    between atoms: C_32  and  C_34
   14  A    between atoms: C_35  and  C_37
                            x       y       z     vdW  Elec       q    Type
                         _______ _______ _______ _____ _____    ______ ____

>  <TORSDO>
F 14

$$$$
