=
 OpenBabel11072409063D

 47 49  0  0  1  0  0  0  0  0999 V2000
  189.7950  177.6940  142.6930 C   0  0  0  0  0  2  0  0  0  0  0  0
  190.6330  177.4410  143.9330 C   0  0  0  0  0  2  0  0  0  0  0  0
  191.4570  176.1750  143.7570 C   0  0  0  0  0  2  0  0  0  0  0  0
  192.9420  176.4850  143.8320 C   0  0  0  0  0  2  0  0  0  0  0  0
  193.5420  175.9240  145.0780 C   0  0  0  0  0  0  0  0  0  0  0  0
  191.9820  175.1610  147.0170 C   0  0  0  0  0  3  0  0  0  0  0  0
  192.7650  175.5270  146.0460 C   0  0  0  0  0  0  0  0  0  0  0  0
  195.3130  175.9670  145.3310 S   0  0  0  0  0  0  0  0  0  0  0  0
  195.6310  174.8710  143.9410 C   0  0  0  0  0  0  0  0  0  0  0  0
  195.0080  173.8250  143.8480 O   0  0  0  0  0  0  0  0  0  0  0  0
  196.6230  176.3240  140.7560 O   0  0  0  0  0  1  0  0  0  0  0  0
  196.6090  175.2610  142.8750 C   0  0  2  0  0  3  0  0  0  0  0  0
  197.0480  176.7020  143.0580 C   0  0  0  0  0  2  0  0  0  0  0  0
  196.0140  176.3580  142.0090 C   0  0  1  0  0  3  0  0  0  0  0  0
  190.5380  174.9110  146.7470 C   0  0  0  0  0  2  0  0  0  0  0  0
  190.2360  177.2570  147.4710 N   0  0  0  0  0  1  0  0  0  0  0  0
  189.6180  175.9400  147.4100 C   0  0  1  0  0  3  0  0  0  0  0  0
  188.1970  175.6240  145.5060 F   0  0  0  0  0  0  0  0  0  0  0  0
  188.1970  176.0010  146.8370 C   0  0  2  0  0  3  0  0  0  0  0  0
  187.4070  177.6380  147.0390 S   0  0  0  0  0  0  0  0  0  0  0  0
  186.0730  177.2710  145.8540 C   0  0  0  0  0  2  0  0  0  0  0  0
  184.7140  177.3180  146.5380 C   0  0  0  0  0  2  0  0  0  0  0  0
  184.8850  179.1400  145.3030 C   0  0  0  0  0  1  0  0  0  0  0  0
  184.0050  178.4510  146.1360 O   0  0  0  0  0  0  0  0  0  0  0  0
  188.3270  177.4960  143.0270 C   0  0  0  0  0  2  0  0  0  0  0  0
  187.6330  176.7250  141.9150 C   0  0  1  0  0  3  0  0  0  0  0  0
  184.3210  178.5900  140.3830 O   0  0  0  0  0  0  0  0  0  0  0  0
  186.9650  177.7080  140.9660 C   0  0  2  0  0  3  0  0  0  0  0  0
  184.6450  177.3580  142.5870 O   0  0  0  0  0  0  0  0  0  0  0  0
  186.6360  178.8850  141.6680 N   0  0  0  0  0  2  0  0  0  0  0  0
  185.2450  177.8330  141.2940 S   0  0  0  0  0  0  0  0  0  0  0  0
  188.5770  175.9620  141.2210 O   0  0  0  0  0  0  0  0  0  0  0  0
  187.8670  175.2270  140.3850 O   0  0  0  0  0  0  0  0  0  0  0  0
  188.6800  174.1320  140.0830 C   0  0  2  0  0  3  0  0  0  0  0  0
  188.6230  173.8570  138.5910 C   0  0  0  0  0  2  0  0  0  0  0  0
  189.5490  172.4740  136.7550 C   0  0  0  0  0  1  0  0  0  0  0  0
  189.4170  172.6100  138.2600 C   0  0  0  0  0  2  0  0  0  0  0  0
  188.1910  172.9170  140.8620 C   0  0  0  0  0  2  0  0  0  0  0  0
  189.9750  172.9290  144.2020 C   0  0  0  0  0  3  0  0  0  0  0  0
  189.0740  173.2460  143.1830 C   0  0  0  0  0  3  0  0  0  0  0  0
  189.1330  172.5680  141.9590 C   0  0  0  0  0  0  0  0  0  0  0  0
  190.9380  171.9380  143.9970 C   0  0  0  0  0  3  0  0  0  0  0  0
  191.0000  171.2510  142.7760 C   0  0  0  0  0  0  0  0  0  0  0  0
  190.0920  171.5680  141.7630 C   0  0  0  0  0  3  0  0  0  0  0  0
  191.9800  170.2370  142.5440 N   0  0  0  0  0  2  0  0  0  0  0  0
  192.6940  169.5460  143.6070 C   0  0  0  0  0  2  0  0  0  0  0  0
  192.9410  168.1660  143.2210 N   0  0  0  0  0  1  0  0  0  0  0  0
  1 25  1  0  0  0  0
  1  2  1  0  0  0  0
  3  4  1  0  0  0  0
  3  2  1  0  0  0  0
  4  5  1  0  0  0  0
  5  8  1  0  0  0  0
  5  7  2  0  0  0  0
  7  6  2  0  0  0  0
  9  8  1  0  0  0  0
 10  9  2  0  0  0  0
 12 13  1  0  0  0  0
 12  9  1  1  0  0  0
 14 11  1  6  0  0  0
 14 12  1  0  0  0  0
 14 13  1  0  0  0  0
 15  6  1  0  0  0  0
 15 17  1  0  0  0  0
 17 16  1  6  0  0  0
 19 18  1  6  0  0  0
 19 20  1  0  0  0  0
 19 17  1  0  0  0  0
 21 22  1  0  0  0  0
 21 20  1  0  0  0  0
 23 24  1  0  0  0  0
 24 22  1  0  0  0  0
 26 25  1  1  0  0  0
 27 31  2  0  0  0  0
 28 31  1  0  0  0  0
 28 30  1  0  0  0  0
 28 26  1  1  0  0  0
 31 30  1  0  0  0  0
 31 29  2  0  0  0  0
 32 26  1  0  0  0  0
 33 32  1  0  0  0  0
 34 35  1  6  0  0  0
 34 33  1  0  0  0  0
 34 38  1  0  0  0  0
 36 37  1  0  0  0  0
 37 35  1  0  0  0  0
 38 41  1  0  0  0  0
 40 39  2  0  0  0  0
 41 40  1  0  0  0  0
 42 39  1  0  0  0  0
 43 42  2  0  0  0  0
 44 41  2  0  0  0  0
 44 43  1  0  0  0  0
 45 43  1  0  0  0  0
 45 46  1  0  0  0  0
 47 46  1  0  0  0  0
M  END
>  <MODEL>
1

>  <REMARK>
 VINA RESULT:      -5.4      0.000      0.000
  Name = 
  26 active torsions:
  status: ('A' for Active; 'I' for Inactive)
    1  A    between atoms: C_2  and  S_17
    2  A    between atoms: C_2  and  C_44
    3  A    between atoms: C_3  and  C_14
    4  A    between atoms: C_3  and  C_18
    5  A    between atoms: C_7  and  N_26
    6  A    between atoms: C_9  and  C_16
    7  A    between atoms: C_9  and  S_17
    8  A    between atoms: O_10  and  C_19
    9  A    between atoms: O_10  and  O_38
   10  A    between atoms: C_11  and  C_12
   11  A    between atoms: C_12  and  C_19
   12  A    between atoms: C_13  and  C_24
   13  A    between atoms: C_13  and  C_30
   14  A    between atoms: C_13  and  O_38
   15  A    between atoms: S_15  and  C_27
   16  A    between atoms: S_15  and  C_35
   17  A    between atoms: C_18  and  C_35
   18  A    between atoms: C_19  and  C_42
   19  A    between atoms: C_22  and  C_27
   20  A    between atoms: C_22  and  O_41
   21  A    between atoms: N_26  and  C_31
   22  A    between atoms: C_28  and  C_44
   23  A    between atoms: C_28  and  C_45
   24  A    between atoms: C_29  and  C_30
   25  A    between atoms: C_29  and  C_45
   26  A    between atoms: C_33  and  C_42
                            x       y       z     vdW  Elec       q    Type
                         _______ _______ _______ _____ _____    ______ ____

>  <TORSDO>
F 26

$$$$
=
 OpenBabel11072409063D

 47 49  0  0  1  0  0  0  0  0999 V2000
  191.2980  172.7660  143.5830 C   0  0  0  0  0  2  0  0  0  0  0  0
  189.9090  172.4890  144.1310 C   0  0  0  0  0  2  0  0  0  0  0  0
  188.9400  172.2330  142.9880 C   0  0  0  0  0  2  0  0  0  0  0  0
  189.6770  172.1710  141.6610 C   0  0  0  0  0  2  0  0  0  0  0  0
  189.0610  173.0950  140.6650 C   0  0  0  0  0  0  0  0  0  0  0  0
  188.2330  175.4400  141.4350 C   0  0  0  0  0  3  0  0  0  0  0  0
  188.6580  174.2750  141.0420 C   0  0  0  0  0  0  0  0  0  0  0  0
  188.6970  172.5290  139.0060 S   0  0  0  0  0  0  0  0  0  0  0  0
  190.3180  171.7750  138.8090 C   0  0  0  0  0  0  0  0  0  0  0  0
  190.4230  170.5590  138.8600 O   0  0  0  0  0  0  0  0  0  0  0  0
  193.1540  172.9110  136.8330 O   0  0  0  0  0  1  0  0  0  0  0  0
  191.5210  172.6230  138.5260 C   0  0  2  0  0  3  0  0  0  0  0  0
  191.1370  173.8240  137.6830 C   0  0  0  0  0  2  0  0  0  0  0  0
  191.8040  172.6320  137.0340 C   0  0  1  0  0  3  0  0  0  0  0  0
  188.7180  176.0060  142.7250 C   0  0  0  0  0  2  0  0  0  0  0  0
  188.5250  178.1410  141.4910 N   0  0  0  0  0  1  0  0  0  0  0  0
  188.5580  177.5260  142.8100 C   0  0  1  0  0  3  0  0  0  0  0  0
  187.7930  178.0460  145.0210 F   0  0  0  0  0  0  0  0  0  0  0  0
  187.4020  178.0070  143.6950 C   0  0  2  0  0  3  0  0  0  0  0  0
  185.8830  177.0070  143.5040 S   0  0  0  0  0  0  0  0  0  0  0  0
  185.1050  178.1930  142.3610 C   0  0  0  0  0  2  0  0  0  0  0  0
  183.6010  178.2580  142.5890 C   0  0  0  0  0  2  0  0  0  0  0  0
  183.9310  178.3290  140.4060 C   0  0  0  0  0  1  0  0  0  0  0  0
  182.9240  178.2760  141.3690 O   0  0  0  0  0  0  0  0  0  0  0  0
  192.3190  171.9590  144.3650 C   0  0  0  0  0  2  0  0  0  0  0  0
  193.7270  172.4290  144.0330 C   0  0  1  0  0  3  0  0  0  0  0  0
  197.2580  171.2100  145.7200 O   0  0  0  0  0  0  0  0  0  0  0  0
  194.7220  171.3490  144.4320 C   0  0  2  0  0  3  0  0  0  0  0  0
  195.9570  173.3790  146.0090 O   0  0  0  0  0  0  0  0  0  0  0  0
  194.5980  171.0860  145.8110 N   0  0  0  0  0  2  0  0  0  0  0  0
  196.0470  172.0250  145.3640 S   0  0  0  0  0  0  0  0  0  0  0  0
  193.8210  172.6780  142.6600 O   0  0  0  0  0  0  0  0  0  0  0  0
  194.6980  173.6590  142.5550 O   0  0  0  0  0  0  0  0  0  0  0  0
  193.9310  174.8220  142.4450 C   0  0  2  0  0  3  0  0  0  0  0  0
  193.8390  175.2290  140.9860 C   0  0  0  0  0  2  0  0  0  0  0  0
  195.3320  174.5170  139.1410 C   0  0  0  0  0  1  0  0  0  0  0  0
  195.2290  175.3630  140.3950 C   0  0  0  0  0  2  0  0  0  0  0  0
  194.5850  175.9300  143.2620 C   0  0  0  0  0  2  0  0  0  0  0  0
  193.8610  176.6910  146.9000 C   0  0  0  0  0  3  0  0  0  0  0  0
  194.5520  176.4980  145.7010 C   0  0  0  0  0  3  0  0  0  0  0  0
  193.8530  176.1590  144.5370 C   0  0  0  0  0  0  0  0  0  0  0  0
  192.4730  176.5410  146.9370 C   0  0  0  0  0  3  0  0  0  0  0  0
  191.7660  176.2080  145.7730 C   0  0  0  0  0  0  0  0  0  0  0  0
  192.4610  176.0220  144.5760 C   0  0  0  0  0  3  0  0  0  0  0  0
  190.3450  176.0460  145.7880 N   0  0  0  0  0  2  0  0  0  0  0  0
  189.5560  175.9560  147.0080 C   0  0  0  0  0  2  0  0  0  0  0  0
  189.3370  174.5610  147.3530 N   0  0  0  0  0  1  0  0  0  0  0  0
  1  2  1  0  0  0  0
  1 25  1  0  0  0  0
  3  2  1  0  0  0  0
  4  3  1  0  0  0  0
  5  7  2  0  0  0  0
  5  4  1  0  0  0  0
  6 15  1  0  0  0  0
  7  6  2  0  0  0  0
  8  5  1  0  0  0  0
  9 10  2  0  0  0  0
  9  8  1  0  0  0  0
 12  9  1  6  0  0  0
 13 12  1  0  0  0  0
 14 11  1  1  0  0  0
 14 13  1  0  0  0  0
 14 12  1  0  0  0  0
 15 17  1  0  0  0  0
 17 16  1  6  0  0  0
 17 19  1  0  0  0  0
 19 18  1  1  0  0  0
 20 19  1  0  0  0  0
 21 22  1  0  0  0  0
 21 20  1  0  0  0  0
 23 24  1  0  0  0  0
 24 22  1  0  0  0  0
 26 25  1  6  0  0  0
 28 26  1  1  0  0  0
 28 31  1  0  0  0  0
 28 30  1  0  0  0  0
 31 27  2  0  0  0  0
 31 30  1  0  0  0  0
 31 29  2  0  0  0  0
 32 26  1  0  0  0  0
 33 32  1  0  0  0  0
 34 35  1  6  0  0  0
 34 33  1  0  0  0  0
 34 38  1  0  0  0  0
 36 37  1  0  0  0  0
 37 35  1  0  0  0  0
 38 41  1  0  0  0  0
 39 42  1  0  0  0  0
 40 39  2  0  0  0  0
 41 44  2  0  0  0  0
 41 40  1  0  0  0  0
 43 45  1  0  0  0  0
 43 42  2  0  0  0  0
 44 43  1  0  0  0  0
 45 46  1  0  0  0  0
 46 47  1  0  0  0  0
M  END
>  <MODEL>
2

>  <REMARK>
 VINA RESULT:      -5.2      2.608      7.339
  Name = 
  26 active torsions:
  status: ('A' for Active; 'I' for Inactive)
    1  A    between atoms: C_2  and  S_17
    2  A    between atoms: C_2  and  C_44
    3  A    between atoms: C_3  and  C_14
    4  A    between atoms: C_3  and  C_18
    5  A    between atoms: C_7  and  N_26
    6  A    between atoms: C_9  and  C_16
    7  A    between atoms: C_9  and  S_17
    8  A    between atoms: O_10  and  C_19
    9  A    between atoms: O_10  and  O_38
   10  A    between atoms: C_11  and  C_12
   11  A    between atoms: C_12  and  C_19
   12  A    between atoms: C_13  and  C_24
   13  A    between atoms: C_13  and  C_30
   14  A    between atoms: C_13  and  O_38
   15  A    between atoms: S_15  and  C_27
   16  A    between atoms: S_15  and  C_35
   17  A    between atoms: C_18  and  C_35
   18  A    between atoms: C_19  and  C_42
   19  A    between atoms: C_22  and  C_27
   20  A    between atoms: C_22  and  O_41
   21  A    between atoms: N_26  and  C_31
   22  A    between atoms: C_28  and  C_44
   23  A    between atoms: C_28  and  C_45
   24  A    between atoms: C_29  and  C_30
   25  A    between atoms: C_29  and  C_45
   26  A    between atoms: C_33  and  C_42
                            x       y       z     vdW  Elec       q    Type
                         _______ _______ _______ _____ _____    ______ ____

>  <TORSDO>
F 26

$$$$
=
 OpenBabel11072409063D

 47 49  0  0  1  0  0  0  0  0999 V2000
  189.5670  177.2100  143.1100 C   0  0  0  0  0  2  0  0  0  0  0  0
  190.9670  177.7950  143.1520 C   0  0  0  0  0  2  0  0  0  0  0  0
  191.6980  177.3110  144.3940 C   0  0  0  0  0  2  0  0  0  0  0  0
  191.4330  175.8330  144.6320 C   0  0  0  0  0  2  0  0  0  0  0  0
  192.6520  175.0210  144.3450 C   0  0  0  0  0  0  0  0  0  0  0  0
  192.8940  173.8490  142.0340 C   0  0  0  0  0  3  0  0  0  0  0  0
  192.7850  174.4440  143.1850 C   0  0  0  0  0  0  0  0  0  0  0  0
  193.8370  174.6770  145.6420 S   0  0  0  0  0  0  0  0  0  0  0  0
  195.1300  175.6390  144.8430 C   0  0  0  0  0  0  0  0  0  0  0  0
  194.9810  176.8430  144.7050 O   0  0  0  0  0  0  0  0  0  0  0  0
  197.1990  173.6210  142.6320 O   0  0  0  0  0  1  0  0  0  0  0  0
  196.4020  174.9820  144.4020 C   0  0  2  0  0  3  0  0  0  0  0  0
  197.1370  175.8620  143.4080 C   0  0  0  0  0  2  0  0  0  0  0  0
  196.3350  174.6780  142.9160 C   0  0  1  0  0  3  0  0  0  0  0  0
  192.0510  174.2940  140.8890 C   0  0  0  0  0  2  0  0  0  0  0  0
  192.4850  173.5610  138.5670 N   0  0  0  0  0  1  0  0  0  0  0  0
  191.8550  173.2060  139.8300 C   0  0  1  0  0  3  0  0  0  0  0  0
  193.3010  171.3180  139.5380 F   0  0  0  0  0  0  0  0  0  0  0  0
  192.2330  171.7900  140.2790 C   0  0  2  0  0  3  0  0  0  0  0  0
  190.8350  170.6130  140.2090 S   0  0  0  0  0  0  0  0  0  0  0  0
  190.8880  170.2630  141.9960 C   0  0  0  0  0  2  0  0  0  0  0  0
  192.2950  170.4550  142.5440 C   0  0  0  0  0  2  0  0  0  0  0  0
  193.3210  170.9710  144.4310 C   0  0  0  0  0  1  0  0  0  0  0  0
  192.3360  170.1380  143.9030 O   0  0  0  0  0  0  0  0  0  0  0  0
  189.3520  176.5090  141.7800 C   0  0  0  0  0  2  0  0  0  0  0  0
  187.8840  176.1520  141.6050 C   0  0  1  0  0  3  0  0  0  0  0  0
  187.1770  172.1640  142.2290 O   0  0  0  0  0  0  0  0  0  0  0  0
  187.5440  174.9750  142.5050 C   0  0  2  0  0  3  0  0  0  0  0  0
  188.3690  173.3450  140.3150 O   0  0  0  0  0  0  0  0  0  0  0  0
  188.7220  174.2580  142.8010 N   0  0  0  0  0  2  0  0  0  0  0  0
  187.6440  173.4590  141.6270 S   0  0  0  0  0  0  0  0  0  0  0  0
  187.0950  177.2550  141.9460 O   0  0  0  0  0  0  0  0  0  0  0  0
  185.9490  176.7370  142.3490 O   0  0  0  0  0  0  0  0  0  0  0  0
  185.0680  177.8190  142.4260 C   0  0  2  0  0  3  0  0  0  0  0  0
  184.7960  178.3480  141.0300 C   0  0  0  0  0  2  0  0  0  0  0  0
  182.3600  178.4990  141.4590 C   0  0  0  0  0  1  0  0  0  0  0  0
  183.4260  177.8990  140.5620 C   0  0  0  0  0  2  0  0  0  0  0  0
  185.6920  178.9080  143.2910 C   0  0  0  0  0  2  0  0  0  0  0  0
  184.7640  178.2950  146.9110 C   0  0  0  0  0  3  0  0  0  0  0  0
  184.6770  178.6760  145.5700 C   0  0  0  0  0  3  0  0  0  0  0  0
  185.7690  178.4840  144.7150 C   0  0  0  0  0  0  0  0  0  0  0  0
  185.9430  177.7270  147.3990 C   0  0  0  0  0  3  0  0  0  0  0  0
  187.0390  177.5260  146.5480 C   0  0  0  0  0  0  0  0  0  0  0  0
  186.9440  177.9040  145.2060 C   0  0  0  0  0  3  0  0  0  0  0  0
  188.2560  176.9500  147.0270 N   0  0  0  0  0  2  0  0  0  0  0  0
  189.4730  177.7130  147.2610 C   0  0  0  0  0  2  0  0  0  0  0  0
  190.5080  176.8410  147.7920 N   0  0  0  0  0  1  0  0  0  0  0  0
  1  2  1  0  0  0  0
  2  3  1  0  0  0  0
  3  4  1  0  0  0  0
  5  4  1  0  0  0  0
  5  8  1  0  0  0  0
  6  7  2  0  0  0  0
  7  5  2  0  0  0  0
  9  8  1  0  0  0  0
 10  9  2  0  0  0  0
 12  9  1  6  0  0  0
 13 12  1  0  0  0  0
 14 11  1  1  0  0  0
 14 13  1  0  0  0  0
 14 12  1  0  0  0  0
 15  6  1  0  0  0  0
 17 16  1  6  0  0  0
 17 19  1  0  0  0  0
 17 15  1  0  0  0  0
 19 18  1  6  0  0  0
 20 19  1  0  0  0  0
 20 21  1  0  0  0  0
 21 22  1  0  0  0  0
 22 24  1  0  0  0  0
 24 23  1  0  0  0  0
 25  1  1  0  0  0  0
 26 25  1  1  0  0  0
 26 32  1  0  0  0  0
 28 26  1  6  0  0  0
 28 30  1  0  0  0  0
 29 31  2  0  0  0  0
 31 27  2  0  0  0  0
 31 28  1  0  0  0  0
 31 30  1  0  0  0  0
 32 33  1  0  0  0  0
 33 34  1  0  0  0  0
 34 35  1  6  0  0  0
 34 38  1  0  0  0  0
 37 35  1  0  0  0  0
 37 36  1  0  0  0  0
 38 41  1  0  0  0  0
 39 42  1  0  0  0  0
 40 39  2  0  0  0  0
 41 44  2  0  0  0  0
 41 40  1  0  0  0  0
 43 45  1  0  0  0  0
 43 42  2  0  0  0  0
 44 43  1  0  0  0  0
 45 46  1  0  0  0  0
 46 47  1  0  0  0  0
M  END
>  <MODEL>
3

>  <REMARK>
 VINA RESULT:      -5.1      3.100      6.766
  Name = 
  26 active torsions:
  status: ('A' for Active; 'I' for Inactive)
    1  A    between atoms: C_2  and  S_17
    2  A    between atoms: C_2  and  C_44
    3  A    between atoms: C_3  and  C_14
    4  A    between atoms: C_3  and  C_18
    5  A    between atoms: C_7  and  N_26
    6  A    between atoms: C_9  and  C_16
    7  A    between atoms: C_9  and  S_17
    8  A    between atoms: O_10  and  C_19
    9  A    between atoms: O_10  and  O_38
   10  A    between atoms: C_11  and  C_12
   11  A    between atoms: C_12  and  C_19
   12  A    between atoms: C_13  and  C_24
   13  A    between atoms: C_13  and  C_30
   14  A    between atoms: C_13  and  O_38
   15  A    between atoms: S_15  and  C_27
   16  A    between atoms: S_15  and  C_35
   17  A    between atoms: C_18  and  C_35
   18  A    between atoms: C_19  and  C_42
   19  A    between atoms: C_22  and  C_27
   20  A    between atoms: C_22  and  O_41
   21  A    between atoms: N_26  and  C_31
   22  A    between atoms: C_28  and  C_44
   23  A    between atoms: C_28  and  C_45
   24  A    between atoms: C_29  and  C_30
   25  A    between atoms: C_29  and  C_45
   26  A    between atoms: C_33  and  C_42
                            x       y       z     vdW  Elec       q    Type
                         _______ _______ _______ _____ _____    ______ ____

>  <TORSDO>
F 26

$$$$
=
 OpenBabel11072409063D

 47 49  0  0  1  0  0  0  0  0999 V2000
  191.7030  171.8690  143.1110 C   0  0  0  0  0  2  0  0  0  0  0  0
  190.4110  171.9590  143.9010 C   0  0  0  0  0  2  0  0  0  0  0  0
  189.2400  172.2020  142.9620 C   0  0  0  0  0  2  0  0  0  0  0  0
  189.6700  172.0320  141.5140 C   0  0  0  0  0  2  0  0  0  0  0  0
  188.9530  172.9960  140.6280 C   0  0  0  0  0  0  0  0  0  0  0  0
  188.1620  175.2790  141.5970 C   0  0  0  0  0  3  0  0  0  0  0  0
  188.5680  174.1460  141.1040 C   0  0  0  0  0  0  0  0  0  0  0  0
  188.4510  172.5110  138.9800 S   0  0  0  0  0  0  0  0  0  0  0  0
  189.8830  173.2850  138.2160 C   0  0  0  0  0  0  0  0  0  0  0  0
  189.7300  174.2850  137.5320 O   0  0  0  0  0  0  0  0  0  0  0  0
  193.3920  172.7290  137.4270 O   0  0  0  0  0  1  0  0  0  0  0  0
  191.2590  172.7460  138.4630 C   0  0  2  0  0  3  0  0  0  0  0  0
  192.1290  173.7950  139.1290 C   0  0  0  0  0  2  0  0  0  0  0  0
  192.2720  173.5300  137.6470 C   0  0  1  0  0  3  0  0  0  0  0  0
  188.7520  175.7850  142.8680 C   0  0  0  0  0  2  0  0  0  0  0  0
  188.6180  177.9770  141.7290 N   0  0  0  0  0  1  0  0  0  0  0  0
  188.6360  177.3040  143.0200 C   0  0  1  0  0  3  0  0  0  0  0  0
  186.8250  176.6950  144.4660 F   0  0  0  0  0  0  0  0  0  0  0  0
  187.4960  177.7790  143.9280 C   0  0  2  0  0  3  0  0  0  0  0  0
  186.3250  178.9050  143.0880 S   0  0  0  0  0  0  0  0  0  0  0  0
  184.8610  177.9390  143.5800 C   0  0  0  0  0  2  0  0  0  0  0  0
  184.0520  178.6810  144.6350 C   0  0  0  0  0  2  0  0  0  0  0  0
  184.7300  178.1080  146.6570 C   0  0  0  0  0  1  0  0  0  0  0  0
  184.8790  179.0930  145.6810 O   0  0  0  0  0  0  0  0  0  0  0  0
  192.3770  170.5380  143.3950 C   0  0  0  0  0  2  0  0  0  0  0  0
  193.8150  170.7590  143.8380 C   0  0  1  0  0  3  0  0  0  0  0  0
  196.0870  168.1660  146.0530 O   0  0  0  0  0  0  0  0  0  0  0  0
  194.4850  169.4110  144.0550 C   0  0  2  0  0  3  0  0  0  0  0  0
  194.8270  170.2640  146.7550 O   0  0  0  0  0  0  0  0  0  0  0  0
  193.7100  168.6430  144.9480 N   0  0  0  0  0  2  0  0  0  0  0  0
  195.2040  169.3140  145.6530 S   0  0  0  0  0  0  0  0  0  0  0  0
  194.4990  171.4760  142.8510 O   0  0  0  0  0  0  0  0  0  0  0  0
  195.4760  172.0870  143.4950 O   0  0  0  0  0  0  0  0  0  0  0  0
  195.0010  173.3780  143.7370 C   0  0  2  0  0  3  0  0  0  0  0  0
  195.6440  174.3440  142.7580 C   0  0  0  0  0  2  0  0  0  0  0  0
  194.4110  176.2870  141.8390 C   0  0  0  0  0  1  0  0  0  0  0  0
  194.6290  174.7910  141.7250 C   0  0  0  0  0  2  0  0  0  0  0  0
  195.3390  173.7750  145.1690 C   0  0  0  0  0  2  0  0  0  0  0  0
  193.8240  176.8210  146.8320 C   0  0  0  0  0  3  0  0  0  0  0  0
  194.7650  175.9310  146.3080 C   0  0  0  0  0  3  0  0  0  0  0  0
  194.3420  174.7380  145.7090 C   0  0  0  0  0  0  0  0  0  0  0  0
  192.4630  176.5170  146.7630 C   0  0  0  0  0  3  0  0  0  0  0  0
  192.0320  175.3270  146.1590 C   0  0  0  0  0  0  0  0  0  0  0  0
  192.9760  174.4430  145.6320 C   0  0  0  0  0  3  0  0  0  0  0  0
  190.6440  174.9950  146.0810 N   0  0  0  0  0  2  0  0  0  0  0  0
  189.7830  174.8410  147.2450 C   0  0  0  0  0  2  0  0  0  0  0  0
  188.4630  175.3770  146.9580 N   0  0  0  0  0  1  0  0  0  0  0  0
  1 25  1  0  0  0  0
  1  2  1  0  0  0  0
  3  2  1  0  0  0  0
  4  3  1  0  0  0  0
  5  7  2  0  0  0  0
  5  4  1  0  0  0  0
  6 15  1  0  0  0  0
  7  6  2  0  0  0  0
  8  5  1  0  0  0  0
  9  8  1  0  0  0  0
 10  9  2  0  0  0  0
 12  9  1  6  0  0  0
 12 13  1  0  0  0  0
 14 11  1  1  0  0  0
 14 12  1  0  0  0  0
 14 13  1  0  0  0  0
 15 17  1  0  0  0  0
 17 16  1  6  0  0  0
 17 19  1  0  0  0  0
 19 18  1  6  0  0  0
 20 21  1  0  0  0  0
 20 19  1  0  0  0  0
 21 22  1  0  0  0  0
 22 24  1  0  0  0  0
 24 23  1  0  0  0  0
 26 25  1  6  0  0  0
 28 26  1  1  0  0  0
 28 30  1  0  0  0  0
 28 31  1  0  0  0  0
 30 31  1  0  0  0  0
 31 27  2  0  0  0  0
 31 29  2  0  0  0  0
 32 33  1  0  0  0  0
 32 26  1  0  0  0  0
 33 34  1  0  0  0  0
 34 35  1  6  0  0  0
 34 38  1  0  0  0  0
 37 36  1  0  0  0  0
 37 35  1  0  0  0  0
 38 41  1  0  0  0  0
 40 39  2  0  0  0  0
 41 40  1  0  0  0  0
 42 39  1  0  0  0  0
 43 42  2  0  0  0  0
 44 41  2  0  0  0  0
 44 43  1  0  0  0  0
 45 43  1  0  0  0  0
 45 46  1  0  0  0  0
 47 46  1  0  0  0  0
M  END
>  <MODEL>
4

>  <REMARK>
 VINA RESULT:      -4.9      2.586      7.608
  Name = 
  26 active torsions:
  status: ('A' for Active; 'I' for Inactive)
    1  A    between atoms: C_2  and  S_17
    2  A    between atoms: C_2  and  C_44
    3  A    between atoms: C_3  and  C_14
    4  A    between atoms: C_3  and  C_18
    5  A    between atoms: C_7  and  N_26
    6  A    between atoms: C_9  and  C_16
    7  A    between atoms: C_9  and  S_17
    8  A    between atoms: O_10  and  C_19
    9  A    between atoms: O_10  and  O_38
   10  A    between atoms: C_11  and  C_12
   11  A    between atoms: C_12  and  C_19
   12  A    between atoms: C_13  and  C_24
   13  A    between atoms: C_13  and  C_30
   14  A    between atoms: C_13  and  O_38
   15  A    between atoms: S_15  and  C_27
   16  A    between atoms: S_15  and  C_35
   17  A    between atoms: C_18  and  C_35
   18  A    between atoms: C_19  and  C_42
   19  A    between atoms: C_22  and  C_27
   20  A    between atoms: C_22  and  O_41
   21  A    between atoms: N_26  and  C_31
   22  A    between atoms: C_28  and  C_44
   23  A    between atoms: C_28  and  C_45
   24  A    between atoms: C_29  and  C_30
   25  A    between atoms: C_29  and  C_45
   26  A    between atoms: C_33  and  C_42
                            x       y       z     vdW  Elec       q    Type
                         _______ _______ _______ _____ _____    ______ ____

>  <TORSDO>
F 26

$$$$
=
 OpenBabel11072409063D

 47 49  0  0  1  0  0  0  0  0999 V2000
  190.4180  177.7230  144.6730 C   0  0  0  0  0  2  0  0  0  0  0  0
  191.3780  177.7570  143.4980 C   0  0  0  0  0  2  0  0  0  0  0  0
  192.5660  176.8480  143.7700 C   0  0  0  0  0  2  0  0  0  0  0  0
  193.0490  176.1960  142.4840 C   0  0  0  0  0  2  0  0  0  0  0  0
  194.4290  175.6540  142.6470 C   0  0  0  0  0  0  0  0  0  0  0  0
  195.2690  173.7890  141.0360 C   0  0  0  0  0  3  0  0  0  0  0  0
  194.8600  174.7310  141.8350 C   0  0  0  0  0  0  0  0  0  0  0  0
  195.4260  176.1210  144.0580 S   0  0  0  0  0  0  0  0  0  0  0  0
  195.3290  174.4800  144.7870 C   0  0  0  0  0  0  0  0  0  0  0  0
  196.3080  173.7500  144.7520 O   0  0  0  0  0  0  0  0  0  0  0  0
  191.9460  173.1500  144.9470 O   0  0  0  0  0  1  0  0  0  0  0  0
  194.0800  174.0310  145.4830 C   0  0  2  0  0  3  0  0  0  0  0  0
  194.1060  172.5300  145.7050 C   0  0  0  0  0  2  0  0  0  0  0  0
  193.2880  173.1100  144.5720 C   0  0  1  0  0  3  0  0  0  0  0  0
  194.5590  173.5530  139.7490 C   0  0  0  0  0  2  0  0  0  0  0  0
  192.1200  173.8680  139.4800 N   0  0  0  0  0  1  0  0  0  0  0  0
  193.1610  172.9570  139.9360 C   0  0  1  0  0  3  0  0  0  0  0  0
  193.2140  170.5960  140.3430 F   0  0  0  0  0  0  0  0  0  0  0  0
  192.9760  171.5460  139.3660 C   0  0  2  0  0  3  0  0  0  0  0  0
  194.0100  171.2220  137.8930 S   0  0  0  0  0  0  0  0  0  0  0  0
  192.7330  171.7940  136.7260 C   0  0  0  0  0  2  0  0  0  0  0  0
  193.3510  172.1630  135.3850 C   0  0  0  0  0  2  0  0  0  0  0  0
  191.1800  172.5340  135.2250 C   0  0  0  0  0  1  0  0  0  0  0  0
  192.3760  172.6600  134.5200 O   0  0  0  0  0  0  0  0  0  0  0  0
  189.8990  176.3080  144.8610 C   0  0  0  0  0  2  0  0  0  0  0  0
  188.8430  175.9910  143.8130 C   0  0  1  0  0  3  0  0  0  0  0  0
  188.2330  172.9980  141.0800 O   0  0  0  0  0  0  0  0  0  0  0  0
  189.0470  174.5700  143.3120 C   0  0  2  0  0  3  0  0  0  0  0  0
  187.9750  175.5200  140.8460 O   0  0  0  0  0  0  0  0  0  0  0  0
  190.0150  174.5700  142.2870 N   0  0  0  0  0  2  0  0  0  0  0  0
  188.3370  174.3530  141.7210 S   0  0  0  0  0  0  0  0  0  0  0  0
  187.5720  176.1160  144.3820 O   0  0  0  0  0  0  0  0  0  0  0  0
  187.0160  177.1310  143.7460 O   0  0  0  0  0  0  0  0  0  0  0  0
  186.4620  177.9300  144.7490 C   0  0  2  0  0  3  0  0  0  0  0  0
  185.4840  177.1050  145.5670 C   0  0  0  0  0  2  0  0  0  0  0  0
  185.3380  178.4640  147.6340 C   0  0  0  0  0  1  0  0  0  0  0  0
  184.5960  178.0170  146.3890 C   0  0  0  0  0  2  0  0  0  0  0  0
  185.7460  179.1120  144.1070 C   0  0  0  0  0  2  0  0  0  0  0  0
  185.3180  178.1990  140.4570 C   0  0  0  0  0  3  0  0  0  0  0  0
  185.9130  178.5430  141.6730 C   0  0  0  0  0  3  0  0  0  0  0  0
  185.1210  178.7230  142.8130 C   0  0  0  0  0  0  0  0  0  0  0  0
  183.9320  178.0390  140.3790 C   0  0  0  0  0  3  0  0  0  0  0  0
  183.1340  178.2130  141.5190 C   0  0  0  0  0  0  0  0  0  0  0  0
  183.7350  178.5510  142.7330 C   0  0  0  0  0  3  0  0  0  0  0  0
  181.7140  178.0590  141.4610 N   0  0  0  0  0  2  0  0  0  0  0  0
  180.7720  179.1160  141.8000 C   0  0  0  0  0  2  0  0  0  0  0  0
  180.4300  179.8740  140.6080 N   0  0  0  0  0  1  0  0  0  0  0  0
  1 25  1  0  0  0  0
  2  3  1  0  0  0  0
  2  1  1  0  0  0  0
  4  5  1  0  0  0  0
  4  3  1  0  0  0  0
  5  8  1  0  0  0  0
  6  7  2  0  0  0  0
  7  5  2  0  0  0  0
  8  9  1  0  0  0  0
 10  9  2  0  0  0  0
 12  9  1  6  0  0  0
 12 13  1  0  0  0  0
 14 11  1  1  0  0  0
 14 12  1  0  0  0  0
 14 13  1  0  0  0  0
 15 17  1  0  0  0  0
 15  6  1  0  0  0  0
 17 16  1  6  0  0  0
 19 17  1  0  0  0  0
 19 18  1  1  0  0  0
 20 19  1  0  0  0  0
 21 20  1  0  0  0  0
 22 21  1  0  0  0  0
 24 23  1  0  0  0  0
 24 22  1  0  0  0  0
 26 32  1  0  0  0  0
 26 25  1  1  0  0  0
 27 31  2  0  0  0  0
 28 26  1  6  0  0  0
 29 31  2  0  0  0  0
 30 28  1  0  0  0  0
 31 30  1  0  0  0  0
 31 28  1  0  0  0  0
 33 32  1  0  0  0  0
 33 34  1  0  0  0  0
 34 38  1  6  0  0  0
 34 35  1  0  0  0  0
 35 37  1  0  0  0  0
 37 36  1  0  0  0  0
 39 40  1  0  0  0  0
 40 41  2  0  0  0  0
 41 38  1  0  0  0  0
 42 39  2  0  0  0  0
 42 43  1  0  0  0  0
 43 44  2  0  0  0  0
 44 41  1  0  0  0  0
 45 43  1  0  0  0  0
 45 46  1  0  0  0  0
 47 46  1  0  0  0  0
M  END
>  <MODEL>
5

>  <REMARK>
 VINA RESULT:      -4.9      3.564      8.486
  Name = 
  26 active torsions:
  status: ('A' for Active; 'I' for Inactive)
    1  A    between atoms: C_2  and  S_17
    2  A    between atoms: C_2  and  C_44
    3  A    between atoms: C_3  and  C_14
    4  A    between atoms: C_3  and  C_18
    5  A    between atoms: C_7  and  N_26
    6  A    between atoms: C_9  and  C_16
    7  A    between atoms: C_9  and  S_17
    8  A    between atoms: O_10  and  C_19
    9  A    between atoms: O_10  and  O_38
   10  A    between atoms: C_11  and  C_12
   11  A    between atoms: C_12  and  C_19
   12  A    between atoms: C_13  and  C_24
   13  A    between atoms: C_13  and  C_30
   14  A    between atoms: C_13  and  O_38
   15  A    between atoms: S_15  and  C_27
   16  A    between atoms: S_15  and  C_35
   17  A    between atoms: C_18  and  C_35
   18  A    between atoms: C_19  and  C_42
   19  A    between atoms: C_22  and  C_27
   20  A    between atoms: C_22  and  O_41
   21  A    between atoms: N_26  and  C_31
   22  A    between atoms: C_28  and  C_44
   23  A    between atoms: C_28  and  C_45
   24  A    between atoms: C_29  and  C_30
   25  A    between atoms: C_29  and  C_45
   26  A    between atoms: C_33  and  C_42
                            x       y       z     vdW  Elec       q    Type
                         _______ _______ _______ _____ _____    ______ ____

>  <TORSDO>
F 26

$$$$
=
 OpenBabel11072409063D

 47 49  0  0  1  0  0  0  0  0999 V2000
  189.0670  173.4820  141.7660 C   0  0  0  0  0  2  0  0  0  0  0  0
  189.1870  172.2180  142.5970 C   0  0  0  0  0  2  0  0  0  0  0  0
  190.5730  172.1300  143.2150 C   0  0  0  0  0  2  0  0  0  0  0  0
  191.5670  172.9690  142.4280 C   0  0  0  0  0  2  0  0  0  0  0  0
  192.5180  172.1020  141.6740 C   0  0  0  0  0  0  0  0  0  0  0  0
  191.6480  170.6960  139.6630 C   0  0  0  0  0  3  0  0  0  0  0  0
  192.0910  171.4070  140.6580 C   0  0  0  0  0  0  0  0  0  0  0  0
  194.1900  171.8610  142.2660 S   0  0  0  0  0  0  0  0  0  0  0  0
  193.7990  170.2660  143.0000 C   0  0  0  0  0  0  0  0  0  0  0  0
  193.8100  169.2660  142.2990 O   0  0  0  0  0  0  0  0  0  0  0  0
  194.6020  169.4270  146.4480 O   0  0  0  0  0  1  0  0  0  0  0  0
  193.5200  170.1530  144.4670 C   0  0  2  0  0  3  0  0  0  0  0  0
  194.0500  171.3690  145.2030 C   0  0  0  0  0  2  0  0  0  0  0  0
  194.8290  170.0730  145.2340 C   0  0  1  0  0  3  0  0  0  0  0  0
  190.3470  171.0450  139.0270 C   0  0  0  0  0  2  0  0  0  0  0  0
  189.6480  171.2470  136.6630 N   0  0  0  0  0  1  0  0  0  0  0  0
  190.5090  171.7930  137.7010 C   0  0  1  0  0  3  0  0  0  0  0  0
  189.1370  173.7320  137.3820 F   0  0  0  0  0  0  0  0  0  0  0  0
  190.3890  173.3190  137.8000 C   0  0  2  0  0  3  0  0  0  0  0  0
  191.6960  174.2070  136.8810 S   0  0  0  0  0  0  0  0  0  0  0  0
  192.7840  172.7480  136.7870 C   0  0  0  0  0  2  0  0  0  0  0  0
  194.2160  173.1160  137.1510 C   0  0  0  0  0  2  0  0  0  0  0  0
  195.2550  171.8000  138.5890 C   0  0  0  0  0  1  0  0  0  0  0  0
  194.4350  172.9250  138.5160 O   0  0  0  0  0  0  0  0  0  0  0  0
  188.4730  174.5910  142.6160 C   0  0  0  0  0  2  0  0  0  0  0  0
  189.0300  175.9390  142.1870 C   0  0  1  0  0  3  0  0  0  0  0  0
  186.1080  178.1110  140.3050 O   0  0  0  0  0  0  0  0  0  0  0  0
  187.9090  176.9680  142.1910 C   0  0  2  0  0  3  0  0  0  0  0  0
  187.2710  175.9590  139.6010 O   0  0  0  0  0  0  0  0  0  0  0  0
  186.6660  176.3040  142.1810 N   0  0  0  0  0  2  0  0  0  0  0  0
  187.1200  177.0480  140.6250 S   0  0  0  0  0  0  0  0  0  0  0  0
  190.0360  176.3290  143.0760 O   0  0  0  0  0  0  0  0  0  0  0  0
  189.5670  177.4180  143.6590 O   0  0  0  0  0  0  0  0  0  0  0  0
  189.9730  177.3200  144.9920 C   0  0  2  0  0  3  0  0  0  0  0  0
  191.4250  176.8810  145.0460 C   0  0  0  0  0  2  0  0  0  0  0  0
  192.2870  174.6360  145.6420 C   0  0  0  0  0  1  0  0  0  0  0  0
  191.6290  175.8930  146.1770 C   0  0  0  0  0  2  0  0  0  0  0  0
  189.0890  176.3070  145.7100 C   0  0  0  0  0  2  0  0  0  0  0  0
  185.9310  177.0340  147.6690 C   0  0  0  0  0  3  0  0  0  0  0  0
  187.1480  176.4660  147.2850 C   0  0  0  0  0  3  0  0  0  0  0  0
  187.8040  176.9240  146.1370 C   0  0  0  0  0  0  0  0  0  0  0  0
  185.3680  178.0580  146.9030 C   0  0  0  0  0  3  0  0  0  0  0  0
  186.0230  178.5260  145.7550 C   0  0  0  0  0  0  0  0  0  0  0  0
  187.2420  177.9580  145.3790 C   0  0  0  0  0  3  0  0  0  0  0  0
  185.4630  179.5700  144.9550 N   0  0  0  0  0  2  0  0  0  0  0  0
  185.1490  179.4240  143.5410 C   0  0  0  0  0  2  0  0  0  0  0  0
  184.1270  178.4060  143.3640 N   0  0  0  0  0  1  0  0  0  0  0  0
  1  2  1  0  0  0  0
  1 25  1  0  0  0  0
  2  3  1  0  0  0  0
  4  3  1  0  0  0  0
  5  8  1  0  0  0  0
  5  4  1  0  0  0  0
  6  7  2  0  0  0  0
  7  5  2  0  0  0  0
  8  9  1  0  0  0  0
 10  9  2  0  0  0  0
 12  9  1  6  0  0  0
 12 13  1  0  0  0  0
 12 14  1  0  0  0  0
 13 14  1  0  0  0  0
 14 11  1  1  0  0  0
 15  6  1  0  0  0  0
 17 16  1  6  0  0  0
 17 19  1  0  0  0  0
 17 15  1  0  0  0  0
 19 18  1  6  0  0  0
 20 19  1  0  0  0  0
 21 20  1  0  0  0  0
 21 22  1  0  0  0  0
 22 24  1  0  0  0  0
 24 23  1  0  0  0  0
 26 25  1  1  0  0  0
 26 32  1  0  0  0  0
 27 31  2  0  0  0  0
 28 26  1  6  0  0  0
 29 31  2  0  0  0  0
 30 28  1  0  0  0  0
 31 30  1  0  0  0  0
 31 28  1  0  0  0  0
 32 33  1  0  0  0  0
 33 34  1  0  0  0  0
 34 35  1  6  0  0  0
 34 38  1  0  0  0  0
 35 37  1  0  0  0  0
 36 37  1  0  0  0  0
 38 41  1  0  0  0  0
 40 39  1  0  0  0  0
 41 40  2  0  0  0  0
 42 39  2  0  0  0  0
 43 42  1  0  0  0  0
 44 43  2  0  0  0  0
 44 41  1  0  0  0  0
 45 43  1  0  0  0  0
 46 45  1  0  0  0  0
 47 46  1  0  0  0  0
M  END
>  <MODEL>
6

>  <REMARK>
 VINA RESULT:      -4.8      3.428      8.113
  Name = 
  26 active torsions:
  status: ('A' for Active; 'I' for Inactive)
    1  A    between atoms: C_2  and  S_17
    2  A    between atoms: C_2  and  C_44
    3  A    between atoms: C_3  and  C_14
    4  A    between atoms: C_3  and  C_18
    5  A    between atoms: C_7  and  N_26
    6  A    between atoms: C_9  and  C_16
    7  A    between atoms: C_9  and  S_17
    8  A    between atoms: O_10  and  C_19
    9  A    between atoms: O_10  and  O_38
   10  A    between atoms: C_11  and  C_12
   11  A    between atoms: C_12  and  C_19
   12  A    between atoms: C_13  and  C_24
   13  A    between atoms: C_13  and  C_30
   14  A    between atoms: C_13  and  O_38
   15  A    between atoms: S_15  and  C_27
   16  A    between atoms: S_15  and  C_35
   17  A    between atoms: C_18  and  C_35
   18  A    between atoms: C_19  and  C_42
   19  A    between atoms: C_22  and  C_27
   20  A    between atoms: C_22  and  O_41
   21  A    between atoms: N_26  and  C_31
   22  A    between atoms: C_28  and  C_44
   23  A    between atoms: C_28  and  C_45
   24  A    between atoms: C_29  and  C_30
   25  A    between atoms: C_29  and  C_45
   26  A    between atoms: C_33  and  C_42
                            x       y       z     vdW  Elec       q    Type
                         _______ _______ _______ _____ _____    ______ ____

>  <TORSDO>
F 26

$$$$
=
 OpenBabel11072409063D

 47 49  0  0  1  0  0  0  0  0999 V2000
  188.3130  174.6620  141.2030 C   0  0  0  0  0  2  0  0  0  0  0  0
  187.8420  176.0770  140.9230 C   0  0  0  0  0  2  0  0  0  0  0  0
  188.6530  177.0690  141.7410 C   0  0  0  0  0  2  0  0  0  0  0  0
  187.7420  178.0800  142.4180 C   0  0  0  0  0  2  0  0  0  0  0  0
  186.9600  177.4420  143.5160 C   0  0  0  0  0  0  0  0  0  0  0  0
  188.2170  176.2050  145.4310 C   0  0  0  0  0  3  0  0  0  0  0  0
  187.5840  176.8340  144.4840 C   0  0  0  0  0  0  0  0  0  0  0  0
  185.1760  177.3390  143.4170 S   0  0  0  0  0  0  0  0  0  0  0  0
  184.9430  178.3520  144.8840 C   0  0  0  0  0  0  0  0  0  0  0  0
  184.8780  179.5660  144.7690 O   0  0  0  0  0  0  0  0  0  0  0  0
  186.0420  177.2700  148.1800 O   0  0  0  0  0  1  0  0  0  0  0  0
  184.7710  177.7140  146.2290 C   0  0  2  0  0  3  0  0  0  0  0  0
  184.4330  178.7600  147.2740 C   0  0  0  0  0  2  0  0  0  0  0  0
  185.8430  178.2190  147.1780 C   0  0  1  0  0  3  0  0  0  0  0  0
  189.6670  176.4650  145.6500 C   0  0  0  0  0  2  0  0  0  0  0  0
  189.5630  174.8140  147.4890 N   0  0  0  0  0  1  0  0  0  0  0  0
  190.1400  176.0770  147.0530 C   0  0  1  0  0  3  0  0  0  0  0  0
  192.0030  177.1030  148.1590 F   0  0  0  0  0  0  0  0  0  0  0  0
  191.6600  176.1120  147.2570 C   0  0  2  0  0  3  0  0  0  0  0  0
  192.5920  176.3150  145.6970 S   0  0  0  0  0  0  0  0  0  0  0  0
  194.2150  176.2680  146.5230 C   0  0  0  0  0  2  0  0  0  0  0  0
  195.0970  175.1820  145.9230 C   0  0  0  0  0  2  0  0  0  0  0  0
  196.7240  174.8970  144.4570 C   0  0  0  0  0  1  0  0  0  0  0  0
  195.4990  175.5380  144.6350 O   0  0  0  0  0  0  0  0  0  0  0  0
  189.4480  174.6980  142.2120 C   0  0  0  0  0  2  0  0  0  0  0  0
  190.4940  173.6490  141.8650 C   0  0  1  0  0  3  0  0  0  0  0  0
  192.6640  171.4980  144.5950 O   0  0  0  0  0  0  0  0  0  0  0  0
  190.6000  172.6520  143.0080 C   0  0  2  0  0  3  0  0  0  0  0  0
  193.2770  173.5960  143.2900 O   0  0  0  0  0  0  0  0  0  0  0  0
  190.7840  173.3480  144.2200 N   0  0  0  0  0  2  0  0  0  0  0  0
  192.2500  172.5440  143.5990 S   0  0  0  0  0  0  0  0  0  0  0  0
  190.1160  172.9890  140.6910 O   0  0  0  0  0  0  0  0  0  0  0  0
  191.2510  172.5690  140.1620 O   0  0  0  0  0  0  0  0  0  0  0  0
  190.9170  172.1520  138.8710 C   0  0  2  0  0  3  0  0  0  0  0  0
  189.4080  172.0270  138.7560 C   0  0  0  0  0  2  0  0  0  0  0  0
  189.4730  174.0350  137.3060 C   0  0  0  0  0  1  0  0  0  0  0  0
  188.9350  172.6240  137.4450 C   0  0  0  0  0  2  0  0  0  0  0  0
  191.5800  170.8070  138.5940 C   0  0  0  0  0  2  0  0  0  0  0  0
  191.3110  168.8630  141.8320 C   0  0  0  0  0  3  0  0  0  0  0  0
  190.9630  169.4890  140.6330 C   0  0  0  0  0  3  0  0  0  0  0  0
  191.9470  170.1190  139.8610 C   0  0  0  0  0  0  0  0  0  0  0  0
  192.6390  168.8700  142.2630 C   0  0  0  0  0  3  0  0  0  0  0  0
  193.6310  169.4940  141.4920 C   0  0  0  0  0  0  0  0  0  0  0  0
  193.2790  170.1130  140.2910 C   0  0  0  0  0  3  0  0  0  0  0  0
  194.9960  169.5160  141.9150 N   0  0  0  0  0  2  0  0  0  0  0  0
  195.4110  169.7300  143.2940 C   0  0  0  0  0  2  0  0  0  0  0  0
  195.9190  171.0830  143.4520 N   0  0  0  0  0  1  0  0  0  0  0  0
  1 25  1  0  0  0  0
  2  1  1  0  0  0  0
  2  3  1  0  0  0  0
  3  4  1  0  0  0  0
  4  5  1  0  0  0  0
  5  7  2  0  0  0  0
  6 15  1  0  0  0  0
  7  6  2  0  0  0  0
  8  5  1  0  0  0  0
  8  9  1  0  0  0  0
 10  9  2  0  0  0  0
 12  9  1  6  0  0  0
 12 14  1  0  0  0  0
 12 13  1  0  0  0  0
 14 13  1  0  0  0  0
 14 11  1  1  0  0  0
 15 17  1  0  0  0  0
 17 19  1  0  0  0  0
 17 16  1  6  0  0  0
 19 18  1  1  0  0  0
 20 21  1  0  0  0  0
 20 19  1  0  0  0  0
 22 21  1  0  0  0  0
 23 24  1  0  0  0  0
 24 22  1  0  0  0  0
 26 25  1  1  0  0  0
 28 26  1  6  0  0  0
 28 31  1  0  0  0  0
 28 30  1  0  0  0  0
 29 31  2  0  0  0  0
 31 30  1  0  0  0  0
 31 27  2  0  0  0  0
 32 26  1  0  0  0  0
 33 32  1  0  0  0  0
 34 38  1  1  0  0  0
 34 33  1  0  0  0  0
 35 34  1  0  0  0  0
 36 37  1  0  0  0  0
 37 35  1  0  0  0  0
 38 41  1  0  0  0  0
 39 42  1  0  0  0  0
 40 39  2  0  0  0  0
 41 44  2  0  0  0  0
 41 40  1  0  0  0  0
 43 45  1  0  0  0  0
 43 42  2  0  0  0  0
 44 43  1  0  0  0  0
 45 46  1  0  0  0  0
 46 47  1  0  0  0  0
M  END
>  <MODEL>
7

>  <REMARK>
 VINA RESULT:      -4.8      2.503      7.133
  Name = 
  26 active torsions:
  status: ('A' for Active; 'I' for Inactive)
    1  A    between atoms: C_2  and  S_17
    2  A    between atoms: C_2  and  C_44
    3  A    between atoms: C_3  and  C_14
    4  A    between atoms: C_3  and  C_18
    5  A    between atoms: C_7  and  N_26
    6  A    between atoms: C_9  and  C_16
    7  A    between atoms: C_9  and  S_17
    8  A    between atoms: O_10  and  C_19
    9  A    between atoms: O_10  and  O_38
   10  A    between atoms: C_11  and  C_12
   11  A    between atoms: C_12  and  C_19
   12  A    between atoms: C_13  and  C_24
   13  A    between atoms: C_13  and  C_30
   14  A    between atoms: C_13  and  O_38
   15  A    between atoms: S_15  and  C_27
   16  A    between atoms: S_15  and  C_35
   17  A    between atoms: C_18  and  C_35
   18  A    between atoms: C_19  and  C_42
   19  A    between atoms: C_22  and  C_27
   20  A    between atoms: C_22  and  O_41
   21  A    between atoms: N_26  and  C_31
   22  A    between atoms: C_28  and  C_44
   23  A    between atoms: C_28  and  C_45
   24  A    between atoms: C_29  and  C_30
   25  A    between atoms: C_29  and  C_45
   26  A    between atoms: C_33  and  C_42
                            x       y       z     vdW  Elec       q    Type
                         _______ _______ _______ _____ _____    ______ ____

>  <TORSDO>
F 26

$$$$
=
 OpenBabel11072409063D

 47 49  0  0  1  0  0  0  0  0999 V2000
  191.2040  172.5060  143.2220 C   0  0  0  0  0  2  0  0  0  0  0  0
  190.0370  171.6430  142.7790 C   0  0  0  0  0  2  0  0  0  0  0  0
  190.5440  170.4370  142.0050 C   0  0  0  0  0  2  0  0  0  0  0  0
  192.0270  170.5780  141.7010 C   0  0  0  0  0  2  0  0  0  0  0  0
  192.2990  170.3520  140.2520 C   0  0  0  0  0  0  0  0  0  0  0  0
  194.5420  171.1830  139.2260 C   0  0  0  0  0  3  0  0  0  0  0  0
  193.4260  170.7530  139.7360 C   0  0  0  0  0  0  0  0  0  0  0  0
  191.0180  169.7100  139.1790 S   0  0  0  0  0  0  0  0  0  0  0  0
  190.8310  171.2750  138.3110 C   0  0  0  0  0  0  0  0  0  0  0  0
  191.4510  171.4630  137.2770 O   0  0  0  0  0  0  0  0  0  0  0  0
  189.8230  174.0680  140.4140 O   0  0  0  0  0  1  0  0  0  0  0  0
  189.8800  172.3150  138.8190 C   0  0  2  0  0  3  0  0  0  0  0  0
  190.1000  173.6320  138.0980 C   0  0  0  0  0  2  0  0  0  0  0  0
  190.6540  173.4340  139.4920 C   0  0  1  0  0  3  0  0  0  0  0  0
  195.6870  171.5070  140.1220 C   0  0  0  0  0  2  0  0  0  0  0  0
  195.8470  172.0970  142.5190 N   0  0  0  0  0  1  0  0  0  0  0  0
  195.3210  172.5050  141.2250 C   0  0  1  0  0  3  0  0  0  0  0  0
  196.1640  174.6000  142.0270 F   0  0  0  0  0  0  0  0  0  0  0  0
  195.6490  173.9690  140.9090 C   0  0  2  0  0  3  0  0  0  0  0  0
  194.2220  174.9010  140.2470 S   0  0  0  0  0  0  0  0  0  0  0  0
  194.8800  174.9300  138.5480 C   0  0  0  0  0  2  0  0  0  0  0  0
  196.4010  174.9850  138.5570 C   0  0  0  0  0  2  0  0  0  0  0  0
  195.9330  173.7520  136.7860 C   0  0  0  0  0  1  0  0  0  0  0  0
  196.9290  173.9920  137.7310 O   0  0  0  0  0  0  0  0  0  0  0  0
  191.0610  172.8290  144.6990 C   0  0  0  0  0  2  0  0  0  0  0  0
  191.5900  174.2260  144.9860 C   0  0  1  0  0  3  0  0  0  0  0  0
  194.4770  176.7070  143.4700 O   0  0  0  0  0  0  0  0  0  0  0  0
  192.6260  174.5940  143.9360 C   0  0  2  0  0  3  0  0  0  0  0  0
  193.5370  176.5230  145.8280 O   0  0  0  0  0  0  0  0  0  0  0  0
  193.9130  174.2830  144.4210 N   0  0  0  0  0  2  0  0  0  0  0  0
  193.5260  176.0240  144.4110 S   0  0  0  0  0  0  0  0  0  0  0  0
  190.5310  175.1390  144.9490 O   0  0  0  0  0  0  0  0  0  0  0  0
  190.0640  175.1640  146.1840 O   0  0  0  0  0  0  0  0  0  0  0  0
  189.3280  176.3480  146.2710 C   0  0  2  0  0  3  0  0  0  0  0  0
  190.0610  177.3330  147.1630 C   0  0  0  0  0  2  0  0  0  0  0  0
  191.6040  177.5460  149.0900 C   0  0  0  0  0  1  0  0  0  0  0  0
  191.0610  176.6010  148.0350 C   0  0  0  0  0  2  0  0  0  0  0  0
  187.9510  176.0380  146.8470 C   0  0  0  0  0  2  0  0  0  0  0  0
  185.5590  178.9730  146.7850 C   0  0  0  0  0  3  0  0  0  0  0  0
  186.5240  178.0630  147.2210 C   0  0  0  0  0  3  0  0  0  0  0  0
  186.9400  177.0250  146.3800 C   0  0  0  0  0  0  0  0  0  0  0  0
  185.0060  178.8440  145.5090 C   0  0  0  0  0  3  0  0  0  0  0  0
  185.4220  177.8100  144.6580 C   0  0  0  0  0  0  0  0  0  0  0  0
  186.3920  176.9060  145.0970 C   0  0  0  0  0  3  0  0  0  0  0  0
  184.8660  177.6560  143.3490 N   0  0  0  0  0  2  0  0  0  0  0  0
  185.1510  178.5560  142.2410 C   0  0  0  0  0  2  0  0  0  0  0  0
  185.6460  177.7980  141.1040 N   0  0  0  0  0  1  0  0  0  0  0  0
  1 25  1  0  0  0  0
  2  1  1  0  0  0  0
  3  2  1  0  0  0  0
  4  3  1  0  0  0  0
  5  4  1  0  0  0  0
  6  7  2  0  0  0  0
  6 15  1  0  0  0  0
  7  5  2  0  0  0  0
  8  5  1  0  0  0  0
  9  8  1  0  0  0  0
 10  9  2  0  0  0  0
 12  9  1  6  0  0  0
 12 14  1  0  0  0  0
 13 12  1  0  0  0  0
 13 14  1  0  0  0  0
 14 11  1  1  0  0  0
 15 17  1  0  0  0  0
 17 16  1  1  0  0  0
 19 17  1  0  0  0  0
 19 18  1  1  0  0  0
 20 19  1  0  0  0  0
 21 22  1  0  0  0  0
 21 20  1  0  0  0  0
 23 24  1  0  0  0  0
 24 22  1  0  0  0  0
 26 25  1  6  0  0  0
 27 31  2  0  0  0  0
 28 31  1  0  0  0  0
 28 30  1  0  0  0  0
 28 26  1  1  0  0  0
 31 30  1  0  0  0  0
 31 29  2  0  0  0  0
 32 26  1  0  0  0  0
 32 33  1  0  0  0  0
 33 34  1  0  0  0  0
 34 38  1  1  0  0  0
 34 35  1  0  0  0  0
 35 37  1  0  0  0  0
 37 36  1  0  0  0  0
 39 40  1  0  0  0  0
 41 38  1  0  0  0  0
 41 40  2  0  0  0  0
 42 39  2  0  0  0  0
 43 44  2  0  0  0  0
 43 42  1  0  0  0  0
 44 41  1  0  0  0  0
 45 43  1  0  0  0  0
 46 45  1  0  0  0  0
 47 46  1  0  0  0  0
M  END
>  <MODEL>
8

>  <REMARK>
 VINA RESULT:      -4.7      3.590      9.153
  Name = 
  26 active torsions:
  status: ('A' for Active; 'I' for Inactive)
    1  A    between atoms: C_2  and  S_17
    2  A    between atoms: C_2  and  C_44
    3  A    between atoms: C_3  and  C_14
    4  A    between atoms: C_3  and  C_18
    5  A    between atoms: C_7  and  N_26
    6  A    between atoms: C_9  and  C_16
    7  A    between atoms: C_9  and  S_17
    8  A    between atoms: O_10  and  C_19
    9  A    between atoms: O_10  and  O_38
   10  A    between atoms: C_11  and  C_12
   11  A    between atoms: C_12  and  C_19
   12  A    between atoms: C_13  and  C_24
   13  A    between atoms: C_13  and  C_30
   14  A    between atoms: C_13  and  O_38
   15  A    between atoms: S_15  and  C_27
   16  A    between atoms: S_15  and  C_35
   17  A    between atoms: C_18  and  C_35
   18  A    between atoms: C_19  and  C_42
   19  A    between atoms: C_22  and  C_27
   20  A    between atoms: C_22  and  O_41
   21  A    between atoms: N_26  and  C_31
   22  A    between atoms: C_28  and  C_44
   23  A    between atoms: C_28  and  C_45
   24  A    between atoms: C_29  and  C_30
   25  A    between atoms: C_29  and  C_45
   26  A    between atoms: C_33  and  C_42
                            x       y       z     vdW  Elec       q    Type
                         _______ _______ _______ _____ _____    ______ ____

>  <TORSDO>
F 26

$$$$
=
 OpenBabel11072409063D

 47 49  0  0  1  0  0  0  0  0999 V2000
  189.1330  178.0690  142.8180 C   0  0  0  0  0  2  0  0  0  0  0  0
  190.1580  176.9590  142.9590 C   0  0  0  0  0  2  0  0  0  0  0  0
  191.3470  177.4470  143.7710 C   0  0  0  0  0  2  0  0  0  0  0  0
  192.3980  176.3560  143.8960 C   0  0  0  0  0  2  0  0  0  0  0  0
  193.2540  176.5750  145.0980 C   0  0  0  0  0  0  0  0  0  0  0  0
  195.8270  176.2250  144.9170 C   0  0  0  0  0  3  0  0  0  0  0  0
  194.5440  176.4150  145.0100 C   0  0  0  0  0  0  0  0  0  0  0  0
  192.5100  176.8680  146.7000 S   0  0  0  0  0  0  0  0  0  0  0  0
  191.6610  175.2830  146.6990 C   0  0  0  0  0  0  0  0  0  0  0  0
  192.2640  174.2810  146.3490 O   0  0  0  0  0  0  0  0  0  0  0  0
  188.1030  176.0470  146.6430 O   0  0  0  0  0  1  0  0  0  0  0  0
  190.2440  175.1810  147.1770 C   0  0  2  0  0  3  0  0  0  0  0  0
  189.4870  174.1390  146.3750 C   0  0  0  0  0  2  0  0  0  0  0  0
  189.2960  175.6080  146.0710 C   0  0  1  0  0  3  0  0  0  0  0  0
  196.4760  176.2030  143.5760 C   0  0  0  0  0  2  0  0  0  0  0  0
  197.8090  174.3060  144.4380 N   0  0  0  0  0  1  0  0  0  0  0  0
  197.1600  174.8690  143.2630 C   0  0  1  0  0  3  0  0  0  0  0  0
  194.9460  174.2190  142.6140 F   0  0  0  0  0  0  0  0  0  0  0  0
  196.2750  173.8400  142.5500 C   0  0  2  0  0  3  0  0  0  0  0  0
  196.4880  172.1400  143.1880 S   0  0  0  0  0  0  0  0  0  0  0  0
  194.7110  171.7530  143.0840 C   0  0  0  0  0  2  0  0  0  0  0  0
  194.4950  170.2880  142.7300 C   0  0  0  0  0  2  0  0  0  0  0  0
  193.9610  170.5310  144.8590 C   0  0  0  0  0  1  0  0  0  0  0  0
  194.0350  169.5810  143.8420 O   0  0  0  0  0  0  0  0  0  0  0  0
  187.9870  177.5900  141.9450 C   0  0  0  0  0  2  0  0  0  0  0  0
  187.0830  176.6520  142.7300 C   0  0  1  0  0  3  0  0  0  0  0  0
  184.0830  178.7180  144.6090 O   0  0  0  0  0  0  0  0  0  0  0  0
  185.6780  177.2330  142.7750 C   0  0  2  0  0  3  0  0  0  0  0  0
  186.5900  178.6860  145.0530 O   0  0  0  0  0  0  0  0  0  0  0  0
  185.7370  178.6180  142.5220 N   0  0  0  0  0  2  0  0  0  0  0  0
  185.4370  178.1900  144.2270 S   0  0  0  0  0  0  0  0  0  0  0  0
  187.0600  175.4000  142.1070 O   0  0  0  0  0  0  0  0  0  0  0  0
  187.8630  174.6460  142.8360 O   0  0  0  0  0  0  0  0  0  0  0  0
  188.2960  173.6370  141.9730 C   0  0  2  0  0  3  0  0  0  0  0  0
  188.6280  172.3940  142.7790 C   0  0  0  0  0  2  0  0  0  0  0  0
  190.7680  171.1450  142.7280 C   0  0  0  0  0  1  0  0  0  0  0  0
  190.0860  172.4170  143.1940 C   0  0  0  0  0  2  0  0  0  0  0  0
  189.5280  174.1200  141.2170 C   0  0  0  0  0  2  0  0  0  0  0  0
  188.3900  173.7570  137.6240 C   0  0  0  0  0  3  0  0  0  0  0  0
  188.4450  174.1650  138.9590 C   0  0  0  0  0  3  0  0  0  0  0  0
  189.4760  173.7080  139.7880 C   0  0  0  0  0  0  0  0  0  0  0  0
  189.3620  172.8910  137.1190 C   0  0  0  0  0  3  0  0  0  0  0  0
  190.4010  172.4340  137.9420 C   0  0  0  0  0  0  0  0  0  0  0  0
  190.4550  172.8500  139.2750 C   0  0  0  0  0  3  0  0  0  0  0  0
  191.4050  171.5440  137.4470 N   0  0  0  0  0  2  0  0  0  0  0  0
  192.5230  171.0640  138.2450 C   0  0  0  0  0  2  0  0  0  0  0  0
  192.4840  169.6140  138.3280 N   0  0  0  0  0  1  0  0  0  0  0  0
  1  2  1  0  0  0  0
  2  3  1  0  0  0  0
  3  4  1  0  0  0  0
  4  5  1  0  0  0  0
  5  8  1  0  0  0  0
  6  7  2  0  0  0  0
  7  5  2  0  0  0  0
  9  8  1  0  0  0  0
 10  9  2  0  0  0  0
 12  9  1  6  0  0  0
 13 12  1  0  0  0  0
 14 13  1  0  0  0  0
 14 11  1  1  0  0  0
 14 12  1  0  0  0  0
 15  6  1  0  0  0  0
 17 15  1  0  0  0  0
 17 16  1  1  0  0  0
 19 18  1  1  0  0  0
 19 20  1  0  0  0  0
 19 17  1  0  0  0  0
 21 20  1  0  0  0  0
 22 21  1  0  0  0  0
 22 24  1  0  0  0  0
 24 23  1  0  0  0  0
 25  1  1  0  0  0  0
 26 25  1  6  0  0  0
 28 26  1  1  0  0  0
 28 31  1  0  0  0  0
 30 28  1  0  0  0  0
 30 31  1  0  0  0  0
 31 27  2  0  0  0  0
 31 29  2  0  0  0  0
 32 26  1  0  0  0  0
 32 33  1  0  0  0  0
 34 38  1  1  0  0  0
 34 35  1  0  0  0  0
 34 33  1  0  0  0  0
 35 37  1  0  0  0  0
 36 37  1  0  0  0  0
 39 40  1  0  0  0  0
 40 41  2  0  0  0  0
 41 38  1  0  0  0  0
 42 39  2  0  0  0  0
 42 43  1  0  0  0  0
 43 44  2  0  0  0  0
 44 41  1  0  0  0  0
 45 43  1  0  0  0  0
 45 46  1  0  0  0  0
 46 47  1  0  0  0  0
M  END
>  <MODEL>
9

>  <REMARK>
 VINA RESULT:      -4.6      2.735      6.278
  Name = 
  26 active torsions:
  status: ('A' for Active; 'I' for Inactive)
    1  A    between atoms: C_2  and  S_17
    2  A    between atoms: C_2  and  C_44
    3  A    between atoms: C_3  and  C_14
    4  A    between atoms: C_3  and  C_18
    5  A    between atoms: C_7  and  N_26
    6  A    between atoms: C_9  and  C_16
    7  A    between atoms: C_9  and  S_17
    8  A    between atoms: O_10  and  C_19
    9  A    between atoms: O_10  and  O_38
   10  A    between atoms: C_11  and  C_12
   11  A    between atoms: C_12  and  C_19
   12  A    between atoms: C_13  and  C_24
   13  A    between atoms: C_13  and  C_30
   14  A    between atoms: C_13  and  O_38
   15  A    between atoms: S_15  and  C_27
   16  A    between atoms: S_15  and  C_35
   17  A    between atoms: C_18  and  C_35
   18  A    between atoms: C_19  and  C_42
   19  A    between atoms: C_22  and  C_27
   20  A    between atoms: C_22  and  O_41
   21  A    between atoms: N_26  and  C_31
   22  A    between atoms: C_28  and  C_44
   23  A    between atoms: C_28  and  C_45
   24  A    between atoms: C_29  and  C_30
   25  A    between atoms: C_29  and  C_45
   26  A    between atoms: C_33  and  C_42
                            x       y       z     vdW  Elec       q    Type
                         _______ _______ _______ _____ _____    ______ ____

>  <TORSDO>
F 26

$$$$
