=
 OpenBabel11062422453D

 29 31  0  0  1  0  0  0  0  0999 V2000
  189.8310  174.8810  142.9630 C   0  0  2  0  0  3  0  0  0  0  0  0
  189.8330  175.3520  145.4810 C   0  0  2  0  0  0  0  0  0  0  0  0
  190.7320  176.5410  145.2390 C   0  0  0  0  0  0  0  0  0  0  0  0
  190.3050  177.1600  142.8080 C   0  0  0  0  0  2  0  0  0  0  0  0
  190.5030  174.0210  145.2140 C   0  0  0  0  0  2  0  0  0  0  0  0
  190.4570  177.5020  144.2160 N   0  0  0  0  0  2  0  0  0  0  0  0
  189.3340  174.4630  144.3440 C   0  0  2  0  0  3  0  0  0  0  0  0
  191.6860  176.7570  146.0330 O   0  0  0  0  0  0  0  0  0  0  0  0
  189.2530  176.1760  142.6270 N   0  0  0  0  0  2  0  0  0  0  0  0
  188.1290  174.4920  138.4390 C   0  0  0  0  0  1  0  0  0  0  0  0
  188.5850  173.6350  139.6010 C   0  0  1  0  0  3  0  0  0  0  0  0
  191.6790  172.4490  141.6190 C   0  0  0  0  0  1  0  0  0  0  0  0
  188.8980  172.5740  142.4740 C   0  0  0  0  0  1  0  0  0  0  0  0
  190.2940  173.0830  139.3330 S   0  0  0  0  0  0  0  0  0  0  0  0
  188.5310  174.4380  140.8850 C   0  0  0  0  0  2  0  0  0  0  0  0
  190.7730  173.5250  141.0330 C   0  0  1  0  0  3  0  0  0  0  0  0
  189.5200  173.8360  141.8690 C   0  0  1  0  0  0  0  0  0  0  0  0
  188.9010  175.3670  146.6880 C   0  0  0  0  0  2  0  0  0  0  0  0
  188.1070  176.6640  146.8090 C   0  0  0  0  0  2  0  0  0  0  0  0
  186.6810  176.3860  146.8830 N   0  0  0  0  0  2  0  0  0  0  0  0
  185.8140  177.7670  146.2940 S   0  0  0  0  0  0  0  0  0  0  0  0
  184.3450  177.5430  146.5250 O   0  0  0  0  0  0  0  0  0  0  0  0
  186.2430  178.9980  147.0430 O   0  0  0  0  0  0  0  0  0  0  0  0
  185.9830  176.6640  143.8240 C   0  0  0  0  0  1  0  0  0  0  0  0
  187.3950  178.4750  144.3590 F   0  0  0  0  0  0  0  0  0  0  0  0
  186.1090  177.9970  144.5430 C   0  0  2  0  0  0  0  0  0  0  0  0
  183.9870  178.5400  143.3280 O   0  0  0  0  0  0  0  0  0  0  0  0
  185.1290  178.9860  143.9820 C   0  0  0  0  0  0  0  0  0  0  0  0
  185.3540  180.2240  144.0550 O   0  0  0  0  0  1  0  0  0  0  0  0
  1  9  1  6  0  0  0
  1  7  1  0  0  0  0
  2 18  1  1  0  0  0
  3  2  1  0  0  0  0
  3  8  2  0  0  0  0
  4  6  1  0  0  0  0
  5  2  1  0  0  0  0
  6  3  1  0  0  0  0
  7  5  1  1  0  0  0
  7  2  1  0  0  0  0
  9  4  1  0  0  0  0
 11 10  1  6  0  0  0
 11 15  1  0  0  0  0
 14 11  1  0  0  0  0
 14 16  1  0  0  0  0
 15 17  1  0  0  0  0
 16 12  1  1  0  0  0
 16 17  1  0  0  0  0
 17 13  1  1  0  0  0
 17  1  1  0  0  0  0
 18 19  1  0  0  0  0
 19 20  1  0  0  0  0
 21 22  2  0  0  0  0
 21 20  1  0  0  0  0
 21 23  2  0  0  0  0
 25 26  1  0  0  0  0
 26 24  1  6  0  0  0
 26 21  1  0  0  0  0
 27 28  2  0  0  0  0
 28 29  1  0  0  0  0
 28 26  1  0  0  0  0
M  END
>  <MODEL>
1

>  <REMARK>
 VINA RESULT:      -6.7      0.000      0.000
  Name = 
  7 active torsions:
  status: ('A' for Active; 'I' for Inactive)
    1  A    between atoms: C_2  and  C_24
    2  A    between atoms: C_3  and  C_20
    3  A    between atoms: C_6  and  C_20
    4  A    between atoms: C_6  and  N_28
    5  A    between atoms: S_15  and  C_26
    6  A    between atoms: S_15  and  N_28
    7  A    between atoms: C_21  and  C_26
                            x       y       z     vdW  Elec       q    Type
                         _______ _______ _______ _____ _____    ______ ____

>  <TORSDO>
F 7

$$$$
=
 OpenBabel11062422453D

 29 31  0  0  1  0  0  0  0  0999 V2000
  189.9700  174.2710  143.3670 C   0  0  2  0  0  3  0  0  0  0  0  0
  188.0350  175.4560  142.1770 C   0  0  2  0  0  0  0  0  0  0  0  0
  188.2320  174.5450  140.9890 C   0  0  0  0  0  0  0  0  0  0  0  0
  189.3990  172.5010  141.9580 C   0  0  0  0  0  2  0  0  0  0  0  0
  189.1740  176.4310  142.3890 C   0  0  0  0  0  2  0  0  0  0  0  0
  188.3720  173.1290  141.1360 N   0  0  0  0  0  2  0  0  0  0  0  0
  188.8990  175.3570  143.4320 C   0  0  2  0  0  3  0  0  0  0  0  0
  188.1560  175.0290  139.8290 O   0  0  0  0  0  0  0  0  0  0  0  0
  189.3170  172.9680  143.3310 N   0  0  0  0  0  2  0  0  0  0  0  0
  193.7530  176.8520  144.9590 C   0  0  0  0  0  1  0  0  0  0  0  0
  192.9470  175.6150  145.2980 C   0  0  1  0  0  3  0  0  0  0  0  0
  189.5500  174.3490  146.6760 C   0  0  0  0  0  1  0  0  0  0  0  0
  191.4410  172.9520  144.9570 C   0  0  0  0  0  1  0  0  0  0  0  0
  191.7460  175.9960  146.6060 S   0  0  0  0  0  0  0  0  0  0  0  0
  192.1950  175.1390  144.0720 C   0  0  0  0  0  2  0  0  0  0  0  0
  190.4040  175.1570  145.7070 C   0  0  1  0  0  3  0  0  0  0  0  0
  190.9810  174.3500  144.5320 C   0  0  1  0  0  0  0  0  0  0  0  0
  186.6460  176.0270  142.4450 C   0  0  0  0  0  2  0  0  0  0  0  0
  186.4390  177.4030  141.8220 C   0  0  0  0  0  2  0  0  0  0  0  0
  186.8230  178.4510  142.7570 N   0  0  0  0  0  2  0  0  0  0  0  0
  185.5200  178.7060  143.8720 S   0  0  0  0  0  0  0  0  0  0  0  0
  185.3970  180.1810  144.1330 O   0  0  0  0  0  0  0  0  0  0  0  0
  184.2330  178.2070  143.2770 O   0  0  0  0  0  0  0  0  0  0  0  0
  187.3330  177.7870  145.6640 C   0  0  0  0  0  1  0  0  0  0  0  0
  185.3450  176.5650  145.3320 F   0  0  0  0  0  0  0  0  0  0  0  0
  185.8360  177.8560  145.4160 C   0  0  2  0  0  0  0  0  0  0  0  0
  185.8950  179.3560  147.4210 O   0  0  0  0  0  1  0  0  0  0  0  0
  185.1540  178.5710  146.5460 C   0  0  0  0  0  0  0  0  0  0  0  0
  183.9160  178.4310  146.7390 O   0  0  0  0  0  0  0  0  0  0  0  0
  1  9  1  1  0  0  0
  1  7  1  0  0  0  0
  1 17  1  0  0  0  0
  2  5  1  0  0  0  0
  2 18  1  1  0  0  0
  2  7  1  0  0  0  0
  3  6  1  0  0  0  0
  3  2  1  0  0  0  0
  4  9  1  0  0  0  0
  6  4  1  0  0  0  0
  7  5  1  6  0  0  0
  8  3  2  0  0  0  0
 11 10  1  6  0  0  0
 11 14  1  0  0  0  0
 15 17  1  0  0  0  0
 15 11  1  0  0  0  0
 16 14  1  0  0  0  0
 16 12  1  1  0  0  0
 17 13  1  1  0  0  0
 17 16  1  0  0  0  0
 19 18  1  0  0  0  0
 19 20  1  0  0  0  0
 20 21  1  0  0  0  0
 21 22  2  0  0  0  0
 21 26  1  0  0  0  0
 23 21  2  0  0  0  0
 25 26  1  0  0  0  0
 26 24  1  1  0  0  0
 26 28  1  0  0  0  0
 28 29  2  0  0  0  0
 28 27  1  0  0  0  0
M  END
>  <MODEL>
2

>  <REMARK>
 VINA RESULT:      -6.6      2.702      4.747
  Name = 
  7 active torsions:
  status: ('A' for Active; 'I' for Inactive)
    1  A    between atoms: C_2  and  C_24
    2  A    between atoms: C_3  and  C_20
    3  A    between atoms: C_6  and  C_20
    4  A    between atoms: C_6  and  N_28
    5  A    between atoms: S_15  and  C_26
    6  A    between atoms: S_15  and  N_28
    7  A    between atoms: C_21  and  C_26
                            x       y       z     vdW  Elec       q    Type
                         _______ _______ _______ _____ _____    ______ ____

>  <TORSDO>
F 7

$$$$
=
 OpenBabel11062422453D

 29 31  0  0  1  0  0  0  0  0999 V2000
  192.3980  175.6730  144.2870 C   0  0  2  0  0  3  0  0  0  0  0  0
  190.0570  176.5490  143.7240 C   0  0  2  0  0  0  0  0  0  0  0  0
  189.6590  176.3610  145.1690 C   0  0  0  0  0  0  0  0  0  0  0  0
  191.8670  176.4140  146.4340 C   0  0  0  0  0  2  0  0  0  0  0  0
  190.3030  175.2490  142.9880 C   0  0  0  0  0  2  0  0  0  0  0  0
  190.4810  176.8210  146.2460 N   0  0  0  0  0  2  0  0  0  0  0  0
  191.4570  176.2150  143.2140 C   0  0  2  0  0  3  0  0  0  0  0  0
  188.5220  175.8900  145.4330 O   0  0  0  0  0  0  0  0  0  0  0  0
  192.6610  176.7270  145.2590 N   0  0  0  0  0  2  0  0  0  0  0  0
  196.0670  176.8560  141.3460 C   0  0  0  0  0  1  0  0  0  0  0  0
  195.5370  175.6900  142.1540 C   0  0  1  0  0  3  0  0  0  0  0  0
  195.0670  174.3010  145.7450 C   0  0  0  0  0  1  0  0  0  0  0  0
  193.5720  173.6350  143.3360 C   0  0  0  0  0  1  0  0  0  0  0  0
  196.4350  175.5660  143.7280 S   0  0  0  0  0  0  0  0  0  0  0  0
  194.0660  175.8950  142.4500 C   0  0  0  0  0  2  0  0  0  0  0  0
  194.8900  175.3640  144.6680 C   0  0  1  0  0  3  0  0  0  0  0  0
  193.7160  175.1150  143.7070 C   0  0  1  0  0  0  0  0  0  0  0  0
  189.3580  177.6270  142.9020 C   0  0  0  0  0  2  0  0  0  0  0  0
  188.2200  177.0780  142.0490 C   0  0  0  0  0  2  0  0  0  0  0  0
  187.1490  178.0560  141.9330 N   0  0  0  0  0  2  0  0  0  0  0  0
  185.8550  177.5930  142.9900 S   0  0  0  0  0  0  0  0  0  0  0  0
  184.5540  177.7780  142.2610 O   0  0  0  0  0  0  0  0  0  0  0  0
  185.9990  176.1450  143.3700 O   0  0  0  0  0  0  0  0  0  0  0  0
  185.5810  180.0520  144.0970 C   0  0  0  0  0  1  0  0  0  0  0  0
  187.1020  178.5340  145.0650 F   0  0  0  0  0  0  0  0  0  0  0  0
  185.8560  178.6040  144.4680 C   0  0  2  0  0  0  0  0  0  0  0  0
  185.0780  176.9960  146.2240 O   0  0  0  0  0  1  0  0  0  0  0  0
  184.8170  178.1070  145.4310 C   0  0  0  0  0  0  0  0  0  0  0  0
  183.6870  178.6610  145.4960 O   0  0  0  0  0  0  0  0  0  0  0  0
  1  9  1  1  0  0  0
  2 18  1  6  0  0  0
  2  3  1  0  0  0  0
  3  8  2  0  0  0  0
  3  6  1  0  0  0  0
  5  2  1  0  0  0  0
  6  4  1  0  0  0  0
  7  5  1  6  0  0  0
  7  2  1  0  0  0  0
  7  1  1  0  0  0  0
  9  4  1  0  0  0  0
 11 10  1  6  0  0  0
 11 15  1  0  0  0  0
 11 14  1  0  0  0  0
 14 16  1  0  0  0  0
 15 17  1  0  0  0  0
 16 12  1  1  0  0  0
 17 13  1  6  0  0  0
 17  1  1  0  0  0  0
 17 16  1  0  0  0  0
 19 18  1  0  0  0  0
 20 19  1  0  0  0  0
 20 21  1  0  0  0  0
 21 23  2  0  0  0  0
 21 26  1  0  0  0  0
 22 21  2  0  0  0  0
 26 24  1  6  0  0  0
 26 25  1  0  0  0  0
 26 28  1  0  0  0  0
 28 29  2  0  0  0  0
 28 27  1  0  0  0  0
M  END
>  <MODEL>
3

>  <REMARK>
 VINA RESULT:      -6.5      3.118      4.484
  Name = 
  7 active torsions:
  status: ('A' for Active; 'I' for Inactive)
    1  A    between atoms: C_2  and  C_24
    2  A    between atoms: C_3  and  C_20
    3  A    between atoms: C_6  and  C_20
    4  A    between atoms: C_6  and  N_28
    5  A    between atoms: S_15  and  C_26
    6  A    between atoms: S_15  and  N_28
    7  A    between atoms: C_21  and  C_26
                            x       y       z     vdW  Elec       q    Type
                         _______ _______ _______ _____ _____    ______ ____

>  <TORSDO>
F 7

$$$$
=
 OpenBabel11062422453D

 29 31  0  0  1  0  0  0  0  0999 V2000
  189.5820  176.5820  143.3110 C   0  0  2  0  0  3  0  0  0  0  0  0
  187.6630  177.6480  141.9900 C   0  0  2  0  0  0  0  0  0  0  0  0
  187.4660  176.3420  141.2580 C   0  0  0  0  0  0  0  0  0  0  0  0
  188.4600  174.5960  142.8210 C   0  0  0  0  0  2  0  0  0  0  0  0
  188.9640  178.3450  141.6480 C   0  0  0  0  0  2  0  0  0  0  0  0
  187.4030  175.0900  141.9470 N   0  0  0  0  0  2  0  0  0  0  0  0
  188.7360  177.8280  143.0620 C   0  0  2  0  0  3  0  0  0  0  0  0
  187.2360  176.3650  140.0200 O   0  0  0  0  0  0  0  0  0  0  0  0
  188.7340  175.5450  143.8860 N   0  0  0  0  0  2  0  0  0  0  0  0
  191.3640  175.6170  147.7160 C   0  0  0  0  0  1  0  0  0  0  0  0
  191.6730  176.4260  146.4740 C   0  0  1  0  0  3  0  0  0  0  0  0
  192.8560  176.2100  142.7860 C   0  0  0  0  0  1  0  0  0  0  0  0
  191.2850  178.3030  144.0650 C   0  0  0  0  0  1  0  0  0  0  0  0
  192.8950  175.5540  145.4530 S   0  0  0  0  0  0  0  0  0  0  0  0
  190.4110  176.6220  145.6600 C   0  0  0  0  0  2  0  0  0  0  0  0
  191.9290  175.8400  143.9370 C   0  0  1  0  0  3  0  0  0  0  0  0
  190.8070  176.8550  144.2110 C   0  0  1  0  0  0  0  0  0  0  0  0
  186.4680  178.5780  142.1720 C   0  0  0  0  0  2  0  0  0  0  0  0
  185.2180  177.8510  142.6550 C   0  0  0  0  0  2  0  0  0  0  0  0
  185.4150  177.3320  144.0000 N   0  0  0  0  0  2  0  0  0  0  0  0
  185.0120  178.5760  145.1400 S   0  0  0  0  0  0  0  0  0  0  0  0
  185.9400  179.7380  144.9250 O   0  0  0  0  0  0  0  0  0  0  0  0
  183.5980  179.0340  144.9180 O   0  0  0  0  0  0  0  0  0  0  0  0
  184.8570  176.4940  146.8680 C   0  0  0  0  0  1  0  0  0  0  0  0
  184.3090  178.6530  147.6390 F   0  0  0  0  0  0  0  0  0  0  0  0
  185.1920  177.9750  146.8170 C   0  0  2  0  0  0  0  0  0  0  0  0
  186.8280  179.0460  148.3830 O   0  0  0  0  0  1  0  0  0  0  0  0
  186.5950  178.2080  147.2990 C   0  0  0  0  0  0  0  0  0  0  0  0
  187.5730  177.6870  146.6990 O   0  0  0  0  0  0  0  0  0  0  0  0
  1  9  1  1  0  0  0
  1 17  1  0  0  0  0
  2 18  1  1  0  0  0
  2  7  1  0  0  0  0
  3  6  1  0  0  0  0
  3  2  1  0  0  0  0
  4  9  1  0  0  0  0
  5  2  1  0  0  0  0
  6  4  1  0  0  0  0
  7  5  1  6  0  0  0
  7  1  1  0  0  0  0
  8  3  2  0  0  0  0
 11 10  1  1  0  0  0
 14 11  1  0  0  0  0
 15 11  1  0  0  0  0
 16 12  1  6  0  0  0
 16 17  1  0  0  0  0
 16 14  1  0  0  0  0
 17 13  1  6  0  0  0
 17 15  1  0  0  0  0
 18 19  1  0  0  0  0
 19 20  1  0  0  0  0
 20 21  1  0  0  0  0
 21 26  1  0  0  0  0
 22 21  2  0  0  0  0
 23 21  2  0  0  0  0
 26 24  1  1  0  0  0
 26 28  1  0  0  0  0
 26 25  1  0  0  0  0
 28 27  1  0  0  0  0
 29 28  2  0  0  0  0
M  END
>  <MODEL>
4

>  <REMARK>
 VINA RESULT:      -6.4      2.750      4.990
  Name = 
  7 active torsions:
  status: ('A' for Active; 'I' for Inactive)
    1  A    between atoms: C_2  and  C_24
    2  A    between atoms: C_3  and  C_20
    3  A    between atoms: C_6  and  C_20
    4  A    between atoms: C_6  and  N_28
    5  A    between atoms: S_15  and  C_26
    6  A    between atoms: S_15  and  N_28
    7  A    between atoms: C_21  and  C_26
                            x       y       z     vdW  Elec       q    Type
                         _______ _______ _______ _____ _____    ______ ____

>  <TORSDO>
F 7

$$$$
=
 OpenBabel11062422453D

 29 31  0  0  1  0  0  0  0  0999 V2000
  190.6170  174.5810  144.8560 C   0  0  2  0  0  3  0  0  0  0  0  0
  189.7890  176.3980  146.4610 C   0  0  2  0  0  0  0  0  0  0  0  0
  191.1390  176.3890  147.1390 C   0  0  0  0  0  0  0  0  0  0  0  0
  192.7160  175.4590  145.3710 C   0  0  0  0  0  2  0  0  0  0  0  0
  188.9930  175.1280  146.6780 C   0  0  0  0  0  2  0  0  0  0  0  0
  192.3590  176.4330  146.3940 N   0  0  0  0  0  2  0  0  0  0  0  0
  189.4650  175.4900  145.2770 C   0  0  2  0  0  3  0  0  0  0  0  0
  191.1920  176.4600  148.3940 O   0  0  0  0  0  0  0  0  0  0  0  0
  191.7000  175.4040  144.3340 N   0  0  0  0  0  2  0  0  0  0  0  0
  188.5380  174.0860  140.5040 C   0  0  0  0  0  1  0  0  0  0  0  0
  189.0700  173.2560  141.6540 C   0  0  1  0  0  3  0  0  0  0  0  0
  192.2930  172.0610  143.4510 C   0  0  0  0  0  1  0  0  0  0  0  0
  189.5950  172.2820  144.5270 C   0  0  0  0  0  1  0  0  0  0  0  0
  190.7380  172.6530  141.2660 S   0  0  0  0  0  0  0  0  0  0  0  0
  189.1390  174.1010  142.9090 C   0  0  0  0  0  2  0  0  0  0  0  0
  191.3650  173.1390  142.9040 C   0  0  1  0  0  3  0  0  0  0  0  0
  190.1940  173.5080  143.8280 C   0  0  1  0  0  0  0  0  0  0  0  0
  188.9640  177.6800  146.4800 C   0  0  0  0  0  2  0  0  0  0  0  0
  187.5760  177.4850  147.0820 C   0  0  0  0  0  2  0  0  0  0  0  0
  186.6940  178.5760  146.6960 N   0  0  0  0  0  2  0  0  0  0  0  0
  185.2920  177.9110  145.9210 S   0  0  0  0  0  0  0  0  0  0  0  0
  185.3210  176.4170  146.0840 O   0  0  0  0  0  0  0  0  0  0  0  0
  184.0470  178.4470  146.5700 O   0  0  0  0  0  0  0  0  0  0  0  0
  185.5860  179.7950  143.9960 C   0  0  0  0  0  1  0  0  0  0  0  0
  184.0260  178.0610  143.6590 F   0  0  0  0  0  0  0  0  0  0  0  0
  185.2830  178.3170  144.1780 C   0  0  2  0  0  0  0  0  0  0  0  0
  187.6170  177.9130  143.3620 O   0  0  0  0  0  1  0  0  0  0  0  0
  186.2980  177.4840  143.4500 C   0  0  0  0  0  0  0  0  0  0  0  0
  185.9560  176.4160  142.8740 O   0  0  0  0  0  0  0  0  0  0  0  0
  1  9  1  6  0  0  0
  1  7  1  0  0  0  0
  2 18  1  1  0  0  0
  2  5  1  0  0  0  0
  2  3  1  0  0  0  0
  3  8  2  0  0  0  0
  4  6  1  0  0  0  0
  6  3  1  0  0  0  0
  7  2  1  0  0  0  0
  7  5  1  1  0  0  0
  9  4  1  0  0  0  0
 11 10  1  6  0  0  0
 11 15  1  0  0  0  0
 14 11  1  0  0  0  0
 14 16  1  0  0  0  0
 15 17  1  0  0  0  0
 16 12  1  1  0  0  0
 16 17  1  0  0  0  0
 17 13  1  1  0  0  0
 17  1  1  0  0  0  0
 18 19  1  0  0  0  0
 20 19  1  0  0  0  0
 21 22  2  0  0  0  0
 21 23  2  0  0  0  0
 21 20  1  0  0  0  0
 25 26  1  0  0  0  0
 26 24  1  6  0  0  0
 26 21  1  0  0  0  0
 27 28  1  0  0  0  0
 28 26  1  0  0  0  0
 29 28  2  0  0  0  0
M  END
>  <MODEL>
5

>  <REMARK>
 VINA RESULT:      -6.4      1.865      2.414
  Name = 
  7 active torsions:
  status: ('A' for Active; 'I' for Inactive)
    1  A    between atoms: C_2  and  C_24
    2  A    between atoms: C_3  and  C_20
    3  A    between atoms: C_6  and  C_20
    4  A    between atoms: C_6  and  N_28
    5  A    between atoms: S_15  and  C_26
    6  A    between atoms: S_15  and  N_28
    7  A    between atoms: C_21  and  C_26
                            x       y       z     vdW  Elec       q    Type
                         _______ _______ _______ _____ _____    ______ ____

>  <TORSDO>
F 7

$$$$
=
 OpenBabel11062422453D

 29 31  0  0  1  0  0  0  0  0999 V2000
  192.3270  175.0270  145.2520 C   0  0  2  0  0  3  0  0  0  0  0  0
  189.7680  175.0620  145.3750 C   0  0  2  0  0  0  0  0  0  0  0  0
  189.8610  175.3190  146.8600 C   0  0  0  0  0  0  0  0  0  0  0  0
  192.1690  176.3440  147.1710 C   0  0  0  0  0  2  0  0  0  0  0  0
  190.2370  173.6810  144.9670 C   0  0  0  0  0  2  0  0  0  0  0  0
  190.7310  176.3160  147.4030 N   0  0  0  0  0  2  0  0  0  0  0  0
  191.0060  174.9080  144.4950 C   0  0  2  0  0  3  0  0  0  0  0  0
  189.0690  174.7200  147.6340 O   0  0  0  0  0  0  0  0  0  0  0  0
  192.4620  176.3910  145.7490 N   0  0  0  0  0  2  0  0  0  0  0  0
  196.4990  176.7820  143.5140 C   0  0  0  0  0  1  0  0  0  0  0  0
  195.6290  175.5440  143.4550 C   0  0  1  0  0  3  0  0  0  0  0  0
  194.4250  172.4410  145.4460 C   0  0  0  0  0  1  0  0  0  0  0  0
  193.1280  173.7680  143.2010 C   0  0  0  0  0  1  0  0  0  0  0  0
  196.2770  174.2750  144.5800 S   0  0  0  0  0  0  0  0  0  0  0  0
  194.2150  175.8890  143.8750 C   0  0  0  0  0  2  0  0  0  0  0  0
  194.6220  173.9400  145.2600 C   0  0  1  0  0  3  0  0  0  0  0  0
  193.5490  174.6270  144.3980 C   0  0  1  0  0  0  0  0  0  0  0  0
  188.5490  175.5730  144.6140 C   0  0  0  0  0  2  0  0  0  0  0  0
  187.7270  176.5770  145.4150 C   0  0  0  0  0  2  0  0  0  0  0  0
  187.7370  177.8800  144.7660 N   0  0  0  0  0  2  0  0  0  0  0  0
  186.3040  178.0320  143.8010 S   0  0  0  0  0  0  0  0  0  0  0  0
  186.6920  178.5740  142.4530 O   0  0  0  0  0  0  0  0  0  0  0  0
  185.6670  176.6820  143.6170 O   0  0  0  0  0  0  0  0  0  0  0  0
  183.7920  179.0450  143.8760 C   0  0  0  0  0  1  0  0  0  0  0  0
  185.5980  180.4450  144.4500 F   0  0  0  0  0  0  0  0  0  0  0  0
  185.1370  179.1460  144.5750 C   0  0  2  0  0  0  0  0  0  0  0  0
  185.8240  179.4100  146.9700 O   0  0  0  0  0  1  0  0  0  0  0  0
  184.9930  178.8100  146.0310 C   0  0  0  0  0  0  0  0  0  0  0  0
  184.1540  177.9500  146.4100 O   0  0  0  0  0  0  0  0  0  0  0  0
  1  9  1  6  0  0  0
  2 18  1  6  0  0  0
  2  3  1  0  0  0  0
  3  6  1  0  0  0  0
  3  8  2  0  0  0  0
  4  6  1  0  0  0  0
  5  2  1  0  0  0  0
  7  5  1  1  0  0  0
  7  1  1  0  0  0  0
  7  2  1  0  0  0  0
  9  4  1  0  0  0  0
 11 10  1  1  0  0  0
 11 15  1  0  0  0  0
 11 14  1  0  0  0  0
 14 16  1  0  0  0  0
 15 17  1  0  0  0  0
 16 12  1  6  0  0  0
 17 13  1  6  0  0  0
 17  1  1  0  0  0  0
 17 16  1  0  0  0  0
 18 19  1  0  0  0  0
 20 19  1  0  0  0  0
 21 26  1  0  0  0  0
 21 20  1  0  0  0  0
 22 21  2  0  0  0  0
 23 21  2  0  0  0  0
 25 26  1  0  0  0  0
 26 24  1  6  0  0  0
 26 28  1  0  0  0  0
 28 29  2  0  0  0  0
 28 27  1  0  0  0  0
M  END
>  <MODEL>
6

>  <REMARK>
 VINA RESULT:      -6.4      3.145      4.467
  Name = 
  7 active torsions:
  status: ('A' for Active; 'I' for Inactive)
    1  A    between atoms: C_2  and  C_24
    2  A    between atoms: C_3  and  C_20
    3  A    between atoms: C_6  and  C_20
    4  A    between atoms: C_6  and  N_28
    5  A    between atoms: S_15  and  C_26
    6  A    between atoms: S_15  and  N_28
    7  A    between atoms: C_21  and  C_26
                            x       y       z     vdW  Elec       q    Type
                         _______ _______ _______ _____ _____    ______ ____

>  <TORSDO>
F 7

$$$$
=
 OpenBabel11062422453D

 29 31  0  0  1  0  0  0  0  0999 V2000
  188.3840  176.8850  144.7400 C   0  0  2  0  0  3  0  0  0  0  0  0
  190.5460  175.8200  143.8720 C   0  0  2  0  0  0  0  0  0  0  0  0
  191.3290  176.6440  144.8670 C   0  0  0  0  0  0  0  0  0  0  0  0
  189.6360  177.2020  146.6830 C   0  0  0  0  0  2  0  0  0  0  0  0
  189.9090  176.6430  142.7720 C   0  0  0  0  0  2  0  0  0  0  0  0
  190.9450  176.7370  146.2410 N   0  0  0  0  0  2  0  0  0  0  0  0
  189.0250  175.9010  143.7660 C   0  0  2  0  0  3  0  0  0  0  0  0
  192.4140  177.1690  144.5040 O   0  0  0  0  0  0  0  0  0  0  0  0
  188.5780  176.3950  146.0990 N   0  0  0  0  0  2  0  0  0  0  0  0
  184.2750  178.3180  146.8790 C   0  0  0  0  0  1  0  0  0  0  0  0
  184.7890  177.7860  145.5580 C   0  0  1  0  0  3  0  0  0  0  0  0
  186.8370  178.6740  142.3860 C   0  0  0  0  0  1  0  0  0  0  0  0
  186.3180  176.0460  143.5300 C   0  0  0  0  0  1  0  0  0  0  0  0
  185.0140  179.1520  144.3830 S   0  0  0  0  0  0  0  0  0  0  0  0
  186.1230  177.0980  145.7640 C   0  0  0  0  0  2  0  0  0  0  0  0
  186.6590  178.5460  143.8940 C   0  0  1  0  0  3  0  0  0  0  0  0
  186.8870  177.1310  144.4510 C   0  0  1  0  0  0  0  0  0  0  0  0
  191.1120  174.4780  143.4200 C   0  0  0  0  0  2  0  0  0  0  0  0
  192.2150  173.9590  144.3360 C   0  0  0  0  0  2  0  0  0  0  0  0
  193.4960  173.9630  143.6470 N   0  0  0  0  0  2  0  0  0  0  0  0
  194.6810  173.2200  144.6720 S   0  0  0  0  0  0  0  0  0  0  0  0
  193.9670  172.4410  145.7410 O   0  0  0  0  0  0  0  0  0  0  0  0
  195.5320  172.2760  143.8680 O   0  0  0  0  0  0  0  0  0  0  0  0
  196.8850  173.7870  146.1430 C   0  0  0  0  0  1  0  0  0  0  0  0
  194.9800  175.1560  146.3780 F   0  0  0  0  0  0  0  0  0  0  0  0
  195.7200  174.4610  145.4370 C   0  0  2  0  0  0  0  0  0  0  0  0
  197.3240  175.0850  143.6170 O   0  0  0  0  0  0  0  0  0  0  0  0
  196.2250  175.4200  144.3990 C   0  0  0  0  0  0  0  0  0  0  0  0
  195.6910  176.5530  144.2580 O   0  0  0  0  0  1  0  0  0  0  0  0
  1  9  1  1  0  0  0
  2 18  1  6  0  0  0
  2  3  1  0  0  0  0
  3  6  1  0  0  0  0
  5  2  1  0  0  0  0
  6  4  1  0  0  0  0
  7  5  1  6  0  0  0
  7  2  1  0  0  0  0
  7  1  1  0  0  0  0
  8  3  2  0  0  0  0
  9  4  1  0  0  0  0
 11 15  1  0  0  0  0
 11 10  1  1  0  0  0
 14 11  1  0  0  0  0
 16 12  1  6  0  0  0
 16 14  1  0  0  0  0
 16 17  1  0  0  0  0
 17 13  1  6  0  0  0
 17  1  1  0  0  0  0
 17 15  1  0  0  0  0
 18 19  1  0  0  0  0
 20 19  1  0  0  0  0
 20 21  1  0  0  0  0
 21 26  1  0  0  0  0
 21 22  2  0  0  0  0
 23 21  2  0  0  0  0
 26 24  1  1  0  0  0
 26 25  1  0  0  0  0
 27 28  2  0  0  0  0
 28 26  1  0  0  0  0
 29 28  1  0  0  0  0
M  END
>  <MODEL>
7

>  <REMARK>
 VINA RESULT:      -6.4      4.203      7.760
  Name = 
  7 active torsions:
  status: ('A' for Active; 'I' for Inactive)
    1  A    between atoms: C_2  and  C_24
    2  A    between atoms: C_3  and  C_20
    3  A    between atoms: C_6  and  C_20
    4  A    between atoms: C_6  and  N_28
    5  A    between atoms: S_15  and  C_26
    6  A    between atoms: S_15  and  N_28
    7  A    between atoms: C_21  and  C_26
                            x       y       z     vdW  Elec       q    Type
                         _______ _______ _______ _____ _____    ______ ____

>  <TORSDO>
F 7

$$$$
=
 OpenBabel11062422453D

 29 31  0  0  1  0  0  0  0  0999 V2000
  192.8470  175.3480  144.7020 C   0  0  2  0  0  3  0  0  0  0  0  0
  190.6240  176.6190  144.7750 C   0  0  2  0  0  0  0  0  0  0  0  0
  189.9490  175.4390  144.1160 C   0  0  0  0  0  0  0  0  0  0  0  0
  191.4640  173.4690  144.6640 C   0  0  0  0  0  2  0  0  0  0  0  0
  191.5950  177.3460  143.8680 C   0  0  0  0  0  2  0  0  0  0  0  0
  190.1530  174.0990  144.5720 N   0  0  0  0  0  2  0  0  0  0  0  0
  192.1150  176.6250  145.1040 C   0  0  2  0  0  3  0  0  0  0  0  0
  189.0950  175.6500  143.2150 O   0  0  0  0  0  0  0  0  0  0  0  0
  192.3500  174.2450  145.5150 N   0  0  0  0  0  2  0  0  0  0  0  0
  196.7900  172.8150  145.9480 C   0  0  0  0  0  1  0  0  0  0  0  0
  196.3730  174.2070  145.5230 C   0  0  1  0  0  3  0  0  0  0  0  0
  195.1680  176.3580  142.5280 C   0  0  0  0  0  1  0  0  0  0  0  0
  194.7840  176.8410  145.3750 C   0  0  0  0  0  1  0  0  0  0  0  0
  196.7080  174.4430  143.7540 S   0  0  0  0  0  0  0  0  0  0  0  0
  194.8900  174.3970  145.7650 C   0  0  0  0  0  2  0  0  0  0  0  0
  195.0620  175.1670  143.4720 C   0  0  1  0  0  3  0  0  0  0  0  0
  194.3820  175.4710  144.8170 C   0  0  1  0  0  0  0  0  0  0  0  0
  189.8020  177.5230  145.6870 C   0  0  0  0  0  2  0  0  0  0  0  0
  188.5160  176.8640  146.1740 C   0  0  0  0  0  2  0  0  0  0  0  0
  187.7120  177.8090  146.9340 N   0  0  0  0  0  2  0  0  0  0  0  0
  186.0960  177.7980  146.3060 S   0  0  0  0  0  0  0  0  0  0  0  0
  185.5290  176.4150  146.4730 O   0  0  0  0  0  0  0  0  0  0  0  0
  185.2430  178.7700  147.0720 O   0  0  0  0  0  0  0  0  0  0  0  0
  185.7410  177.0120  143.7360 C   0  0  0  0  0  1  0  0  0  0  0  0
  187.3550  178.6650  144.2060 F   0  0  0  0  0  0  0  0  0  0  0  0
  186.0910  178.2340  144.5700 C   0  0  2  0  0  0  0  0  0  0  0  0
  183.7620  179.0340  144.1120 O   0  0  0  0  0  0  0  0  0  0  0  0
  185.1030  179.3360  144.3190 C   0  0  0  0  0  0  0  0  0  0  0  0
  185.4840  180.5350  144.2470 O   0  0  0  0  0  1  0  0  0  0  0  0
  1 17  1  0  0  0  0
  1  7  1  0  0  0  0
  1  9  1  1  0  0  0
  2  7  1  0  0  0  0
  2 18  1  1  0  0  0
  3  6  1  0  0  0  0
  3  2  1  0  0  0  0
  4  9  1  0  0  0  0
  5  2  1  0  0  0  0
  6  4  1  0  0  0  0
  7  5  1  6  0  0  0
  8  3  2  0  0  0  0
 11 15  1  0  0  0  0
 11 10  1  6  0  0  0
 14 11  1  0  0  0  0
 16 12  1  6  0  0  0
 16 14  1  0  0  0  0
 16 17  1  0  0  0  0
 17 13  1  1  0  0  0
 17 15  1  0  0  0  0
 18 19  1  0  0  0  0
 19 20  1  0  0  0  0
 21 22  2  0  0  0  0
 21 20  1  0  0  0  0
 21 23  2  0  0  0  0
 25 26  1  0  0  0  0
 26 24  1  6  0  0  0
 26 21  1  0  0  0  0
 27 28  2  0  0  0  0
 28 26  1  0  0  0  0
 29 28  1  0  0  0  0
M  END
>  <MODEL>
8

>  <REMARK>
 VINA RESULT:      -6.3      3.227      4.687
  Name = 
  7 active torsions:
  status: ('A' for Active; 'I' for Inactive)
    1  A    between atoms: C_2  and  C_24
    2  A    between atoms: C_3  and  C_20
    3  A    between atoms: C_6  and  C_20
    4  A    between atoms: C_6  and  N_28
    5  A    between atoms: S_15  and  C_26
    6  A    between atoms: S_15  and  N_28
    7  A    between atoms: C_21  and  C_26
                            x       y       z     vdW  Elec       q    Type
                         _______ _______ _______ _____ _____    ______ ____

>  <TORSDO>
F 7

$$$$
=
 OpenBabel11062422453D

 29 31  0  0  1  0  0  0  0  0999 V2000
  192.4450  175.0470  145.2910 C   0  0  2  0  0  3  0  0  0  0  0  0
  189.8860  175.1300  145.3810 C   0  0  2  0  0  0  0  0  0  0  0  0
  189.9580  175.1580  146.8900 C   0  0  0  0  0  0  0  0  0  0  0  0
  192.2850  176.0640  147.3850 C   0  0  0  0  0  2  0  0  0  0  0  0
  190.3300  173.8150  144.7760 C   0  0  0  0  0  2  0  0  0  0  0  0
  190.8420  176.0390  147.5890 N   0  0  0  0  0  2  0  0  0  0  0  0
  191.1370  175.0780  144.5060 C   0  0  2  0  0  3  0  0  0  0  0  0
  189.1380  174.4700  147.5520 O   0  0  0  0  0  0  0  0  0  0  0  0
  192.6040  176.3160  145.9910 N   0  0  0  0  0  2  0  0  0  0  0  0
  194.7210  176.5790  141.2930 C   0  0  0  0  0  1  0  0  0  0  0  0
  194.7830  175.4800  142.3330 C   0  0  1  0  0  3  0  0  0  0  0  0
  195.6800  174.6780  146.0210 C   0  0  0  0  0  1  0  0  0  0  0  0
  193.8800  173.2380  144.2400 C   0  0  0  0  0  1  0  0  0  0  0  0
  196.0500  175.8690  143.5740 S   0  0  0  0  0  0  0  0  0  0  0  0
  193.4440  175.3550  143.0300 C   0  0  0  0  0  2  0  0  0  0  0  0
  194.9280  175.4530  144.9450 C   0  0  1  0  0  3  0  0  0  0  0  0
  193.6740  174.7480  144.4040 C   0  0  1  0  0  0  0  0  0  0  0  0
  188.6930  175.7820  144.6890 C   0  0  0  0  0  2  0  0  0  0  0  0
  187.7500  176.4790  145.6630 C   0  0  0  0  0  2  0  0  0  0  0  0
  187.6670  177.9010  145.3660 N   0  0  0  0  0  2  0  0  0  0  0  0
  185.9950  178.3530  145.2730 S   0  0  0  0  0  0  0  0  0  0  0  0
  185.1560  177.1220  145.4710 O   0  0  0  0  0  0  0  0  0  0  0  0
  185.6730  179.3420  146.3590 O   0  0  0  0  0  0  0  0  0  0  0  0
  186.6380  178.5940  142.6520 C   0  0  0  0  0  1  0  0  0  0  0  0
  185.7110  180.4510  143.7690 F   0  0  0  0  0  0  0  0  0  0  0  0
  185.6240  179.0730  143.6770 C   0  0  2  0  0  0  0  0  0  0  0  0
  184.0420  177.9350  142.1030 O   0  0  0  0  0  0  0  0  0  0  0  0
  184.2350  178.6930  143.2520 C   0  0  0  0  0  0  0  0  0  0  0  0
  183.2330  179.0950  143.9020 O   0  0  0  0  0  1  0  0  0  0  0  0
  1  9  1  6  0  0  0
  2 18  1  6  0  0  0
  2  3  1  0  0  0  0
  3  8  2  0  0  0  0
  3  6  1  0  0  0  0
  4  6  1  0  0  0  0
  5  2  1  0  0  0  0
  7  5  1  1  0  0  0
  7  1  1  0  0  0  0
  7  2  1  0  0  0  0
  9  4  1  0  0  0  0
 11 10  1  6  0  0  0
 11 15  1  0  0  0  0
 11 14  1  0  0  0  0
 14 16  1  0  0  0  0
 15 17  1  0  0  0  0
 16 12  1  1  0  0  0
 17 13  1  6  0  0  0
 17 16  1  0  0  0  0
 17  1  1  0  0  0  0
 18 19  1  0  0  0  0
 20 19  1  0  0  0  0
 21 20  1  0  0  0  0
 21 22  2  0  0  0  0
 21 23  2  0  0  0  0
 26 24  1  6  0  0  0
 26 25  1  0  0  0  0
 26 21  1  0  0  0  0
 27 28  2  0  0  0  0
 28 26  1  0  0  0  0
 28 29  1  0  0  0  0
M  END
>  <MODEL>
9

>  <REMARK>
 VINA RESULT:      -6.3      3.074      3.985
  Name = 
  7 active torsions:
  status: ('A' for Active; 'I' for Inactive)
    1  A    between atoms: C_2  and  C_24
    2  A    between atoms: C_3  and  C_20
    3  A    between atoms: C_6  and  C_20
    4  A    between atoms: C_6  and  N_28
    5  A    between atoms: S_15  and  C_26
    6  A    between atoms: S_15  and  N_28
    7  A    between atoms: C_21  and  C_26
                            x       y       z     vdW  Elec       q    Type
                         _______ _______ _______ _____ _____    ______ ____

>  <TORSDO>
F 7

$$$$
