=
 OpenBabel11062423083D

 28 32  0  0  1  0  0  0  0  0999 V2000
  189.2330  175.9770  141.5730 C   0  0  0  0  0  2  0  0  0  0  0  0
  184.7130  178.3700  144.0090 C   0  0  0  0  0  0  0  0  0  0  0  0
  191.2630  176.6010  144.5630 C   0  0  0  0  0  0  0  0  0  0  0  0
  189.1380  176.9950  145.8730 O   0  0  0  0  0  0  0  0  0  0  0  0
  187.0630  177.7310  146.8790 C   0  0  0  0  0  0  0  0  0  0  0  0
  187.8050  175.8830  141.0640 C   0  0  0  0  0  2  0  0  0  0  0  0
  190.4950  176.6490  145.8400 C   0  0  0  0  0  0  0  0  0  0  0  0
  187.4400  177.1460  140.3030 C   0  0  1  0  0  3  0  0  0  0  0  0
  184.5230  178.7970  146.4910 C   0  0  0  0  0  3  0  0  0  0  0  0
  191.1650  176.4320  146.9820 C   0  0  0  0  0  3  0  0  0  0  0  0
  183.7810  178.2490  141.3590 C   0  0  0  0  0  0  0  0  0  0  0  0
  182.9140  178.6290  142.3950 C   0  0  0  0  0  3  0  0  0  0  0  0
  188.4090  177.1210  147.0990 C   0  0  0  0  0  2  0  0  0  0  0  0
  183.3100  178.1730  140.0540 O   0  0  0  0  0  1  0  0  0  0  0  0
  185.0640  178.7240  147.7390 N   0  0  0  0  0  0  0  0  0  0  0  0
  186.4550  176.9260  139.3610 C   0  0  0  0  0  2  0  0  0  0  0  0
  190.7230  176.5120  143.3820 N   0  0  0  0  0  0  0  0  0  0  0  0
  185.5650  178.0150  142.9620 C   0  0  0  0  0  3  0  0  0  0  0  0
  186.3060  178.2040  147.9530 C   0  0  0  0  0  3  0  0  0  0  0  0
  185.1180  177.9510  141.6530 C   0  0  0  0  0  0  0  0  0  0  0  0
  183.3770  178.6870  143.7190 C   0  0  0  0  0  3  0  0  0  0  0  0
  189.3130  176.3930  143.0380 C   0  0  0  0  0  2  0  0  0  0  0  0
  193.3330  176.4660  145.7530 C   0  0  0  0  0  3  0  0  0  0  0  0
  186.5160  177.7930  145.6040 C   0  0  0  0  0  3  0  0  0  0  0  0
  186.0390  177.5040  140.6700 N   0  0  0  0  0  0  0  0  0  0  0  0
  185.2450  178.3330  145.3850 C   0  0  0  0  0  0  0  0  0  0  0  0
  192.6150  176.0360  147.0020 C   0  0  0  0  0  2  0  0  0  0  0  0
  192.6920  176.6700  144.6420 N   0  0  0  0  0  0  0  0  0  0  0  0
  1 22  1  0  0  0  0
  2 26  1  0  0  0  0
  3 28  1  0  0  0  0
  3  7  1  0  0  0  0
  4 13  1  0  0  0  0
  5 13  1  0  0  0  0
  5 19  1  0  0  0  0
  6  1  1  0  0  0  0
  7  4  1  0  0  0  0
  7 10  2  0  0  0  0
  8 16  1  6  0  0  0
  8 25  1  0  0  0  0
  8  6  1  0  0  0  0
  9 15  1  0  0  0  0
 10 27  1  0  0  0  0
 11 20  2  0  0  0  0
 11 12  1  0  0  0  0
 12 21  2  0  0  0  0
 14 11  1  0  0  0  0
 15 19  2  0  0  0  0
 16 25  1  0  0  0  0
 17  3  2  0  0  0  0
 18  2  2  0  0  0  0
 20 18  1  0  0  0  0
 21  2  1  0  0  0  0
 22 17  1  0  0  0  0
 23 27  1  0  0  0  0
 24  5  2  0  0  0  0
 25 20  1  0  0  0  0
 26 24  1  0  0  0  0
 26  9  2  0  0  0  0
 28 23  2  0  0  0  0
M  END
>  <MODEL>
1

>  <REMARK>
 VINA RESULT:      -8.6      0.000      0.000
  Name = 
  0 active torsions:
  status: ('A' for Active; 'I' for Inactive)
                            x       y       z     vdW  Elec       q    Type
                         _______ _______ _______ _____ _____    ______ ____

>  <TORSDO>
F 0

$$$$
=
 OpenBabel11062423083D

 28 32  0  0  1  0  0  0  0  0999 V2000
  190.3660  174.2340  144.3330 C   0  0  0  0  0  2  0  0  0  0  0  0
  186.0550  177.9000  144.0840 C   0  0  0  0  0  0  0  0  0  0  0  0
  189.6250  173.0240  140.9510 C   0  0  0  0  0  0  0  0  0  0  0  0
  188.2120  175.0840  140.5690 O   0  0  0  0  0  0  0  0  0  0  0  0
  186.5920  176.8810  140.5010 C   0  0  0  0  0  0  0  0  0  0  0  0
  190.1300  175.3830  145.2990 C   0  0  0  0  0  2  0  0  0  0  0  0
  188.9760  174.0250  140.0590 C   0  0  0  0  0  0  0  0  0  0  0  0
  189.0830  174.9910  146.3270 C   0  0  1  0  0  3  0  0  0  0  0  0
  184.9120  178.5730  141.9340 C   0  0  0  0  0  3  0  0  0  0  0  0
  189.0690  173.8370  138.7340 C   0  0  0  0  0  3  0  0  0  0  0  0
  186.6030  178.0410  146.8380 C   0  0  0  0  0  0  0  0  0  0  0  0
  185.6880  178.9310  146.2550 C   0  0  0  0  0  3  0  0  0  0  0  0
  187.5180  176.0060  139.7210 C   0  0  0  0  0  2  0  0  0  0  0  0
  186.8830  178.1270  148.1960 O   0  0  0  0  0  1  0  0  0  0  0  0
  184.8050  178.4690  140.5800 N   0  0  0  0  0  0  0  0  0  0  0  0
  189.2250  175.6830  147.5130 C   0  0  0  0  0  2  0  0  0  0  0  0
  189.8600  173.2100  142.2180 N   0  0  0  0  0  0  0  0  0  0  0  0
  186.9450  177.0100  144.6870 C   0  0  0  0  0  3  0  0  0  0  0  0
  185.6190  177.6490  139.8570 C   0  0  0  0  0  3  0  0  0  0  0  0
  187.2240  177.0700  146.0420 C   0  0  0  0  0  0  0  0  0  0  0  0
  185.4150  178.8640  144.8790 C   0  0  0  0  0  3  0  0  0  0  0  0
  189.6060  174.3970  143.0210 C   0  0  0  0  0  2  0  0  0  0  0  0
  190.0870  171.5910  139.0930 C   0  0  0  0  0  3  0  0  0  0  0  0
  186.7150  176.9870  141.8800 C   0  0  0  0  0  3  0  0  0  0  0  0
  188.2010  176.1740  146.5470 N   0  0  0  0  0  0  0  0  0  0  0  0
  185.8760  177.8250  142.6210 C   0  0  0  0  0  0  0  0  0  0  0  0
  189.8920  172.7320  138.1340 C   0  0  0  0  0  2  0  0  0  0  0  0
  190.0050  171.7670  140.3770 N   0  0  0  0  0  0  0  0  0  0  0  0
  1  6  1  0  0  0  0
  2 18  2  0  0  0  0
  2 21  1  0  0  0  0
  3 17  2  0  0  0  0
  5 24  1  0  0  0  0
  7  4  1  0  0  0  0
  7  3  1  0  0  0  0
  8  6  1  6  0  0  0
  8 25  1  0  0  0  0
  8 16  1  0  0  0  0
  9 26  1  0  0  0  0
 10  7  2  0  0  0  0
 11 14  1  0  0  0  0
 12 11  1  0  0  0  0
 13  5  1  0  0  0  0
 13  4  1  0  0  0  0
 15  9  2  0  0  0  0
 17 22  1  0  0  0  0
 18 20  1  0  0  0  0
 19  5  2  0  0  0  0
 19 15  1  0  0  0  0
 20 25  1  0  0  0  0
 20 11  2  0  0  0  0
 21 12  2  0  0  0  0
 22  1  1  0  0  0  0
 23 28  2  0  0  0  0
 24 26  2  0  0  0  0
 25 16  1  0  0  0  0
 26  2  1  0  0  0  0
 27 10  1  0  0  0  0
 27 23  1  0  0  0  0
 28  3  1  0  0  0  0
M  END
>  <MODEL>
2

>  <REMARK>
 VINA RESULT:      -8.0      2.792      6.148
  Name = 
  0 active torsions:
  status: ('A' for Active; 'I' for Inactive)
                            x       y       z     vdW  Elec       q    Type
                         _______ _______ _______ _____ _____    ______ ____

>  <TORSDO>
F 0

$$$$
=
 OpenBabel11062423083D

 28 32  0  0  1  0  0  0  0  0999 V2000
  185.9100  177.9470  140.3510 C   0  0  0  0  0  2  0  0  0  0  0  0
  189.5350  173.6250  140.8720 C   0  0  0  0  0  0  0  0  0  0  0  0
  185.3110  177.9720  143.9700 C   0  0  0  0  0  0  0  0  0  0  0  0
  187.3970  176.5810  144.2830 O   0  0  0  0  0  0  0  0  0  0  0  0
  189.1670  174.9330  144.3820 C   0  0  0  0  0  0  0  0  0  0  0  0
  186.8680  177.4670  139.2750 C   0  0  0  0  0  2  0  0  0  0  0  0
  186.4490  177.4780  144.7940 C   0  0  0  0  0  0  0  0  0  0  0  0
  186.2940  176.2490  138.5730 C   0  0  1  0  0  3  0  0  0  0  0  0
  190.5690  172.9220  143.0660 C   0  0  0  0  0  3  0  0  0  0  0  0
  186.4990  177.8510  146.0820 C   0  0  0  0  0  3  0  0  0  0  0  0
  189.1910  173.5870  138.0820 C   0  0  0  0  0  0  0  0  0  0  0  0
  190.1640  172.7740  138.6840 C   0  0  0  0  0  3  0  0  0  0  0  0
  188.4500  176.0380  145.0870 C   0  0  0  0  0  2  0  0  0  0  0  0
  189.0380  173.5770  136.7000 O   0  0  0  0  0  1  0  0  0  0  0  0
  190.7050  173.1010  144.4100 N   0  0  0  0  0  0  0  0  0  0  0  0
  186.7680  176.1130  137.2830 C   0  0  0  0  0  2  0  0  0  0  0  0
  185.2720  177.9330  142.6690 N   0  0  0  0  0  0  0  0  0  0  0  0
  188.5580  174.4090  140.2560 C   0  0  0  0  0  3  0  0  0  0  0  0
  190.0300  174.0810  145.0750 C   0  0  0  0  0  3  0  0  0  0  0  0
  188.3800  174.4000  138.8830 C   0  0  0  0  0  0  0  0  0  0  0  0
  190.3390  172.7940  140.0760 C   0  0  0  0  0  3  0  0  0  0  0  0
  186.2970  177.4670  141.7460 C   0  0  0  0  0  2  0  0  0  0  0  0
  184.2310  178.8690  145.9060 C   0  0  0  0  0  3  0  0  0  0  0  0
  189.0290  174.7650  143.0100 C   0  0  0  0  0  3  0  0  0  0  0  0
  187.4150  175.2910  138.3450 N   0  0  0  0  0  0  0  0  0  0  0  0
  189.7170  173.7550  142.3300 C   0  0  0  0  0  0  0  0  0  0  0  0
  185.5220  178.8270  146.6750 C   0  0  0  0  0  2  0  0  0  0  0  0
  184.1770  178.5170  144.6570 N   0  0  0  0  0  0  0  0  0  0  0  0
  1 22  1  0  0  0  0
  2 26  1  0  0  0  0
  3 28  1  0  0  0  0
  3  7  1  0  0  0  0
  4  7  1  0  0  0  0
  4 13  1  0  0  0  0
  5 19  1  0  0  0  0
  5 13  1  0  0  0  0
  6  1  1  0  0  0  0
  7 10  2  0  0  0  0
  8 16  1  6  0  0  0
  8  6  1  0  0  0  0
  9 15  1  0  0  0  0
 10 27  1  0  0  0  0
 11 12  2  0  0  0  0
 11 20  1  0  0  0  0
 12 21  1  0  0  0  0
 14 11  1  0  0  0  0
 15 19  2  0  0  0  0
 16 25  1  0  0  0  0
 17  3  2  0  0  0  0
 18  2  1  0  0  0  0
 20 18  2  0  0  0  0
 21  2  2  0  0  0  0
 22 17  1  0  0  0  0
 23 27  1  0  0  0  0
 24  5  2  0  0  0  0
 25  8  1  0  0  0  0
 25 20  1  0  0  0  0
 26 24  1  0  0  0  0
 26  9  2  0  0  0  0
 28 23  2  0  0  0  0
M  END
>  <MODEL>
3

>  <REMARK>
 VINA RESULT:      -7.9      2.858      6.355
  Name = 
  0 active torsions:
  status: ('A' for Active; 'I' for Inactive)
                            x       y       z     vdW  Elec       q    Type
                         _______ _______ _______ _____ _____    ______ ____

>  <TORSDO>
F 0

$$$$
=
 OpenBabel11062423083D

 28 32  0  0  1  0  0  0  0  0999 V2000
  186.8330  176.3500  141.9640 C   0  0  0  0  0  2  0  0  0  0  0  0
  191.9160  174.4210  143.5610 C   0  0  0  0  0  0  0  0  0  0  0  0
  186.0210  177.2750  145.4190 C   0  0  0  0  0  0  0  0  0  0  0  0
  188.4730  177.0940  146.0000 O   0  0  0  0  0  0  0  0  0  0  0  0
  190.7670  176.4940  146.4850 C   0  0  0  0  0  0  0  0  0  0  0  0
  187.9810  176.0100  141.0280 C   0  0  0  0  0  2  0  0  0  0  0  0
  187.1980  177.6100  146.2680 C   0  0  0  0  0  0  0  0  0  0  0  0
  188.0390  174.5100  140.7990 C   0  0  1  0  0  3  0  0  0  0  0  0
  192.9890  174.9750  145.7790 C   0  0  0  0  0  3  0  0  0  0  0  0
  186.9890  178.3590  147.3610 C   0  0  0  0  0  3  0  0  0  0  0  0
  191.8250  173.3460  140.9640 C   0  0  0  0  0  0  0  0  0  0  0  0
  193.0060  173.2700  141.7190 C   0  0  0  0  0  3  0  0  0  0  0  0
  189.5960  177.3450  146.8530 C   0  0  0  0  0  2  0  0  0  0  0  0
  191.7920  172.8300  139.6750 O   0  0  0  0  0  1  0  0  0  0  0  0
  192.9360  175.6150  146.9800 N   0  0  0  0  0  0  0  0  0  0  0  0
  188.6170  174.1840  139.5880 C   0  0  0  0  0  2  0  0  0  0  0  0
  186.0970  176.8070  144.2060 N   0  0  0  0  0  0  0  0  0  0  0  0
  190.7440  174.4670  142.8040 C   0  0  0  0  0  3  0  0  0  0  0  0
  191.8600  176.3670  147.3470 C   0  0  0  0  0  3  0  0  0  0  0  0
  190.6870  173.9420  141.5230 C   0  0  0  0  0  0  0  0  0  0  0  0
  193.0540  173.8090  143.0140 C   0  0  0  0  0  3  0  0  0  0  0  0
  187.2870  176.5580  143.4050 C   0  0  0  0  0  2  0  0  0  0  0  0
  184.5230  178.1900  147.0430 C   0  0  0  0  0  3  0  0  0  0  0  0
  190.8150  175.8530  145.2550 C   0  0  0  0  0  3  0  0  0  0  0  0
  189.4750  174.1080  140.8040 N   0  0  0  0  0  0  0  0  0  0  0  0
  191.9180  175.0770  144.8830 C   0  0  0  0  0  0  0  0  0  0  0  0
  185.6470  178.9550  147.6840 C   0  0  0  0  0  2  0  0  0  0  0  0
  184.7160  177.4680  145.9810 N   0  0  0  0  0  0  0  0  0  0  0  0
  1 22  1  0  0  0  0
  2 26  1  0  0  0  0
  3 28  1  0  0  0  0
  3  7  1  0  0  0  0
  4  7  1  0  0  0  0
  4 13  1  0  0  0  0
  5 13  1  0  0  0  0
  5 19  1  0  0  0  0
  6  1  1  0  0  0  0
  7 10  2  0  0  0  0
  8 16  1  6  0  0  0
  8 25  1  0  0  0  0
  8  6  1  0  0  0  0
  9 15  1  0  0  0  0
 10 27  1  0  0  0  0
 11 20  2  0  0  0  0
 11 12  1  0  0  0  0
 12 21  2  0  0  0  0
 14 11  1  0  0  0  0
 15 19  2  0  0  0  0
 16 25  1  0  0  0  0
 17  3  2  0  0  0  0
 18  2  2  0  0  0  0
 20 18  1  0  0  0  0
 21  2  1  0  0  0  0
 22 17  1  0  0  0  0
 23 27  1  0  0  0  0
 24  5  2  0  0  0  0
 25 20  1  0  0  0  0
 26 24  1  0  0  0  0
 26  9  2  0  0  0  0
 28 23  2  0  0  0  0
M  END
>  <MODEL>
4

>  <REMARK>
 VINA RESULT:      -7.8      2.640      6.614
  Name = 
  0 active torsions:
  status: ('A' for Active; 'I' for Inactive)
                            x       y       z     vdW  Elec       q    Type
                         _______ _______ _______ _____ _____    ______ ____

>  <TORSDO>
F 0

$$$$
=
 OpenBabel11062423083D

 28 32  0  0  1  0  0  0  0  0999 V2000
  188.1270  174.8780  140.8170 C   0  0  0  0  0  2  0  0  0  0  0  0
  191.7720  173.7920  145.0160 C   0  0  0  0  0  0  0  0  0  0  0  0
  186.1450  177.0530  143.0050 C   0  0  0  0  0  0  0  0  0  0  0  0
  188.0960  177.1480  144.6090 O   0  0  0  0  0  0  0  0  0  0  0  0
  189.8770  176.8160  146.2130 C   0  0  0  0  0  0  0  0  0  0  0  0
  189.4870  174.2200  140.6550 C   0  0  0  0  0  2  0  0  0  0  0  0
  186.9170  177.7080  144.0990 C   0  0  0  0  0  0  0  0  0  0  0  0
  189.4000  172.7490  141.0220 C   0  0  1  0  0  3  0  0  0  0  0  0
  191.9320  175.1750  147.1230 C   0  0  0  0  0  3  0  0  0  0  0  0
  186.4030  178.8180  144.6500 C   0  0  0  0  0  3  0  0  0  0  0  0
  192.5700  171.7960  143.2030 C   0  0  0  0  0  0  0  0  0  0  0  0
  193.3200  172.0350  144.3650 C   0  0  0  0  0  3  0  0  0  0  0  0
  188.8040  177.7260  145.7110 C   0  0  0  0  0  2  0  0  0  0  0  0
  192.9800  170.8210  142.3020 O   0  0  0  0  0  1  0  0  0  0  0  0
  191.4990  176.2290  147.8700 N   0  0  0  0  0  0  0  0  0  0  0  0
  190.3590  171.9890  140.3810 C   0  0  0  0  0  2  0  0  0  0  0  0
  186.6300  176.1550  142.1980 N   0  0  0  0  0  0  0  0  0  0  0  0
  191.0270  173.5240  143.8670 C   0  0  0  0  0  3  0  0  0  0  0  0
  190.4960  177.0480  147.4440 C   0  0  0  0  0  3  0  0  0  0  0  0
  191.4100  172.5450  142.9660 C   0  0  0  0  0  0  0  0  0  0  0  0
  192.9240  173.0320  145.2700 C   0  0  0  0  0  3  0  0  0  0  0  0
  187.9880  175.6330  142.1340 C   0  0  0  0  0  2  0  0  0  0  0  0
  184.2800  178.5020  143.3830 C   0  0  0  0  0  3  0  0  0  0  0  0
  190.3170  175.7500  145.4390 C   0  0  0  0  0  3  0  0  0  0  0  0
  190.6320  172.4010  141.7880 N   0  0  0  0  0  0  0  0  0  0  0  0
  191.3420  174.9070  145.8810 C   0  0  0  0  0  0  0  0  0  0  0  0
  185.1540  179.4720  144.1280 C   0  0  0  0  0  2  0  0  0  0  0  0
  184.7720  177.4290  142.8400 N   0  0  0  0  0  0  0  0  0  0  0  0
  1 22  1  0  0  0  0
  2 21  1  0  0  0  0
  2 26  1  0  0  0  0
  3  7  1  0  0  0  0
  4 13  1  0  0  0  0
  5 19  1  0  0  0  0
  6  1  1  0  0  0  0
  6  8  1  0  0  0  0
  7  4  1  0  0  0  0
  7 10  2  0  0  0  0
  8 16  1  6  0  0  0
  8 25  1  0  0  0  0
  9 15  1  0  0  0  0
 11 12  1  0  0  0  0
 12 21  2  0  0  0  0
 13  5  1  0  0  0  0
 14 11  1  0  0  0  0
 16 25  1  0  0  0  0
 17  3  2  0  0  0  0
 18  2  2  0  0  0  0
 19 15  2  0  0  0  0
 20 11  2  0  0  0  0
 20 18  1  0  0  0  0
 22 17  1  0  0  0  0
 23 27  1  0  0  0  0
 24 26  1  0  0  0  0
 24  5  2  0  0  0  0
 25 20  1  0  0  0  0
 26  9  2  0  0  0  0
 27 10  1  0  0  0  0
 28  3  1  0  0  0  0
 28 23  2  0  0  0  0
M  END
>  <MODEL>
5

>  <REMARK>
 VINA RESULT:      -7.8      3.054      7.129
  Name = 
  0 active torsions:
  status: ('A' for Active; 'I' for Inactive)
                            x       y       z     vdW  Elec       q    Type
                         _______ _______ _______ _____ _____    ______ ____

>  <TORSDO>
F 0

$$$$
=
 OpenBabel11062423083D

 28 32  0  0  1  0  0  0  0  0999 V2000
  191.0580  176.4480  147.4410 C   0  0  0  0  0  2  0  0  0  0  0  0
  192.0650  174.5690  142.1910 C   0  0  0  0  0  0  0  0  0  0  0  0
  187.6850  177.5250  146.4840 C   0  0  0  0  0  0  0  0  0  0  0  0
  187.8570  176.0840  144.4150 O   0  0  0  0  0  0  0  0  0  0  0  0
  188.3260  174.9910  142.3070 C   0  0  0  0  0  0  0  0  0  0  0  0
  192.2180  175.5560  147.0310 C   0  0  0  0  0  2  0  0  0  0  0  0
  187.0740  176.7460  145.3710 C   0  0  0  0  0  0  0  0  0  0  0  0
  193.3220  176.3910  146.4060 C   0  0  1  0  0  3  0  0  0  0  0  0
  190.2520  174.1550  140.4820 C   0  0  0  0  0  3  0  0  0  0  0  0
  185.7380  176.7640  145.2530 C   0  0  0  0  0  3  0  0  0  0  0  0
  194.6870  174.4970  143.2030 C   0  0  0  0  0  0  0  0  0  0  0  0
  194.4010  173.9450  141.9450 C   0  0  0  0  0  3  0  0  0  0  0  0
  187.2830  175.3980  143.2960 C   0  0  0  0  0  2  0  0  0  0  0  0
  195.9820  174.4420  143.7060 O   0  0  0  0  0  1  0  0  0  0  0  0
  188.9320  174.1650  140.1450 N   0  0  0  0  0  0  0  0  0  0  0  0
  194.5660  175.8070  146.5430 C   0  0  0  0  0  2  0  0  0  0  0  0
  188.9130  177.3850  146.8930 N   0  0  0  0  0  0  0  0  0  0  0  0
  192.3740  175.1320  143.4310 C   0  0  0  0  0  3  0  0  0  0  0  0
  187.9710  174.5680  141.0240 C   0  0  0  0  0  3  0  0  0  0  0  0
  193.6610  175.1020  143.9400 C   0  0  0  0  0  0  0  0  0  0  0  0
  193.0920  173.9780  141.4390 C   0  0  0  0  0  3  0  0  0  0  0  0
  189.9230  176.4480  146.4220 C   0  0  0  0  0  2  0  0  0  0  0  0
  185.5760  178.5180  147.0160 C   0  0  0  0  0  3  0  0  0  0  0  0
  189.6690  174.9760  142.6630 C   0  0  0  0  0  3  0  0  0  0  0  0
  193.8600  175.6300  145.2420 N   0  0  0  0  0  0  0  0  0  0  0  0
  190.6540  174.5680  141.7580 C   0  0  0  0  0  0  0  0  0  0  0  0
  184.8500  177.4390  146.2610 C   0  0  0  0  0  2  0  0  0  0  0  0
  186.8690  178.5030  147.1410 N   0  0  0  0  0  0  0  0  0  0  0  0
  2 18  1  0  0  0  0
  3 17  2  0  0  0  0
  3 28  1  0  0  0  0
  4  7  1  0  0  0  0
  5 24  1  0  0  0  0
  5 13  1  0  0  0  0
  6  1  1  0  0  0  0
  7  3  1  0  0  0  0
  8 16  1  1  0  0  0
  8  6  1  0  0  0  0
  9 26  1  0  0  0  0
 10  7  2  0  0  0  0
 10 27  1  0  0  0  0
 11 14  1  0  0  0  0
 11 20  1  0  0  0  0
 12 11  2  0  0  0  0
 13  4  1  0  0  0  0
 15  9  2  0  0  0  0
 15 19  1  0  0  0  0
 18 20  2  0  0  0  0
 19  5  2  0  0  0  0
 20 25  1  0  0  0  0
 21 12  1  0  0  0  0
 21  2  2  0  0  0  0
 22 17  1  0  0  0  0
 22  1  1  0  0  0  0
 23 28  2  0  0  0  0
 25  8  1  0  0  0  0
 25 16  1  0  0  0  0
 26  2  1  0  0  0  0
 26 24  2  0  0  0  0
 27 23  1  0  0  0  0
M  END
>  <MODEL>
6

>  <REMARK>
 VINA RESULT:      -7.5      2.742      8.083
  Name = 
  0 active torsions:
  status: ('A' for Active; 'I' for Inactive)
                            x       y       z     vdW  Elec       q    Type
                         _______ _______ _______ _____ _____    ______ ____

>  <TORSDO>
F 0

$$$$
=
 OpenBabel11062423083D

 28 32  0  0  1  0  0  0  0  0999 V2000
  189.7960  174.4620  145.4890 C   0  0  0  0  0  2  0  0  0  0  0  0
  186.1860  177.8540  142.7410 C   0  0  0  0  0  0  0  0  0  0  0  0
  189.9440  172.1800  142.6220 C   0  0  0  0  0  0  0  0  0  0  0  0
  188.9450  173.9960  141.1770 O   0  0  0  0  0  0  0  0  0  0  0  0
  187.6290  175.6740  140.0330 C   0  0  0  0  0  0  0  0  0  0  0  0
  189.4190  175.8720  145.9100 C   0  0  0  0  0  2  0  0  0  0  0  0
  189.7000  172.8220  141.3000 C   0  0  0  0  0  0  0  0  0  0  0  0
  188.0800  175.8600  146.6270 C   0  0  1  0  0  3  0  0  0  0  0  0
  185.8050  177.7650  140.2460 C   0  0  0  0  0  3  0  0  0  0  0  0
  190.1550  172.1940  140.2050 C   0  0  0  0  0  3  0  0  0  0  0  0
  185.9180  178.9190  145.3300 C   0  0  0  0  0  0  0  0  0  0  0  0
  185.3200  179.5640  144.2360 C   0  0  0  0  0  3  0  0  0  0  0  0
  188.6380  174.5800  139.9060 C   0  0  0  0  0  2  0  0  0  0  0  0
  185.7980  179.4600  146.6040 O   0  0  0  0  0  1  0  0  0  0  0  0
  186.0860  177.2070  139.0350 N   0  0  0  0  0  0  0  0  0  0  0  0
  187.9460  176.9130  147.5100 C   0  0  0  0  0  2  0  0  0  0  0  0
  189.8180  172.7830  143.7680 N   0  0  0  0  0  0  0  0  0  0  0  0
  186.7550  177.2160  143.8440 C   0  0  0  0  0  3  0  0  0  0  0  0
  186.9780  176.1840  138.9060 C   0  0  0  0  0  3  0  0  0  0  0  0
  186.6310  177.7310  145.1240 C   0  0  0  0  0  0  0  0  0  0  0  0
  185.4540  179.0350  142.9430 C   0  0  0  0  0  3  0  0  0  0  0  0
  189.4760  174.1750  144.0260 C   0  0  0  0  0  2  0  0  0  0  0  0
  190.7640  170.1970  141.5650 C   0  0  0  0  0  3  0  0  0  0  0  0
  187.3550  176.2420  141.2700 C   0  0  0  0  0  3  0  0  0  0  0  0
  187.3120  177.0530  146.1680 N   0  0  0  0  0  0  0  0  0  0  0  0
  186.4350  177.2870  141.4010 C   0  0  0  0  0  0  0  0  0  0  0  0
  190.9880  170.9450  140.2810 C   0  0  0  0  0  2  0  0  0  0  0  0
  190.3310  170.7990  142.6310 N   0  0  0  0  0  0  0  0  0  0  0  0
  1  6  1  0  0  0  0
  2 21  2  0  0  0  0
  2 18  1  0  0  0  0
  3 28  1  0  0  0  0
  3 17  2  0  0  0  0
  4  7  1  0  0  0  0
  5 24  1  0  0  0  0
  7  3  1  0  0  0  0
  8  6  1  6  0  0  0
  8 16  1  0  0  0  0
  9 26  1  0  0  0  0
 10 27  1  0  0  0  0
 10  7  2  0  0  0  0
 11 14  1  0  0  0  0
 12 11  2  0  0  0  0
 13  5  1  0  0  0  0
 13  4  1  0  0  0  0
 15  9  2  0  0  0  0
 17 22  1  0  0  0  0
 18 20  2  0  0  0  0
 19 15  1  0  0  0  0
 19  5  2  0  0  0  0
 20 11  1  0  0  0  0
 20 25  1  0  0  0  0
 21 12  1  0  0  0  0
 22  1  1  0  0  0  0
 23 28  2  0  0  0  0
 24 26  2  0  0  0  0
 25  8  1  0  0  0  0
 25 16  1  0  0  0  0
 26  2  1  0  0  0  0
 27 23  1  0  0  0  0
M  END
>  <MODEL>
7

>  <REMARK>
 VINA RESULT:      -7.4      3.002      6.008
  Name = 
  0 active torsions:
  status: ('A' for Active; 'I' for Inactive)
                            x       y       z     vdW  Elec       q    Type
                         _______ _______ _______ _____ _____    ______ ____

>  <TORSDO>
F 0

$$$$
=
 OpenBabel11062423083D

 28 32  0  0  1  0  0  0  0  0999 V2000
  190.6570  176.6560  146.6240 C   0  0  0  0  0  2  0  0  0  0  0  0
  192.5500  174.0370  141.9700 C   0  0  0  0  0  0  0  0  0  0  0  0
  187.5740  177.6420  144.9000 C   0  0  0  0  0  0  0  0  0  0  0  0
  188.0690  175.9200  143.1170 O   0  0  0  0  0  0  0  0  0  0  0  0
  188.8790  174.5320  141.3070 C   0  0  0  0  0  0  0  0  0  0  0  0
  191.8340  175.6950  146.5700 C   0  0  0  0  0  2  0  0  0  0  0  0
  187.1500  176.7230  143.8060 C   0  0  0  0  0  0  0  0  0  0  0  0
  193.0700  176.4160  146.0610 C   0  0  1  0  0  3  0  0  0  0  0  0
  191.0760  173.4160  140.0160 C   0  0  0  0  0  3  0  0  0  0  0  0
  185.8620  176.7470  143.4330 C   0  0  0  0  0  3  0  0  0  0  0  0
  194.9300  174.0650  143.4670 C   0  0  0  0  0  0  0  0  0  0  0  0
  194.8620  173.3460  142.2640 C   0  0  0  0  0  3  0  0  0  0  0  0
  187.6870  175.0930  142.0130 C   0  0  0  0  0  2  0  0  0  0  0  0
  196.1040  174.0600  144.2120 O   0  0  0  0  0  1  0  0  0  0  0  0
  189.8440  173.4000  139.4340 N   0  0  0  0  0  0  0  0  0  0  0  0
  194.2400  175.8360  146.5130 C   0  0  0  0  0  2  0  0  0  0  0  0
  188.6960  177.5410  145.5520 N   0  0  0  0  0  0  0  0  0  0  0  0
  192.6450  174.7640  143.1580 C   0  0  0  0  0  3  0  0  0  0  0  0
  188.7530  173.9390  140.0490 C   0  0  0  0  0  3  0  0  0  0  0  0
  193.8110  174.7850  143.9040 C   0  0  0  0  0  0  0  0  0  0  0  0
  193.6740  173.3290  141.5170 C   0  0  0  0  0  3  0  0  0  0  0  0
  189.7350  176.5300  145.4150 C   0  0  0  0  0  2  0  0  0  0  0  0
  185.4470  178.7350  144.8770 C   0  0  0  0  0  3  0  0  0  0  0  0
  190.1280  174.5460  141.9130 C   0  0  0  0  0  3  0  0  0  0  0  0
  193.7840  175.4880  145.1370 N   0  0  0  0  0  0  0  0  0  0  0  0
  191.2470  173.9980  141.2780 C   0  0  0  0  0  0  0  0  0  0  0  0
  184.8300  177.5720  144.1500 C   0  0  0  0  0  2  0  0  0  0  0  0
  186.6910  178.7160  145.2480 N   0  0  0  0  0  0  0  0  0  0  0  0
  2 18  1  0  0  0  0
  3 28  1  0  0  0  0
  3 17  2  0  0  0  0
  4  7  1  0  0  0  0
  5 24  1  0  0  0  0
  5 13  1  0  0  0  0
  6  1  1  0  0  0  0
  7  3  1  0  0  0  0
  8 16  1  1  0  0  0
  8  6  1  0  0  0  0
  9 26  1  0  0  0  0
 10  7  2  0  0  0  0
 10 27  1  0  0  0  0
 11 20  1  0  0  0  0
 11 14  1  0  0  0  0
 12 11  2  0  0  0  0
 13  4  1  0  0  0  0
 15  9  2  0  0  0  0
 15 19  1  0  0  0  0
 18 20  2  0  0  0  0
 19  5  2  0  0  0  0
 20 25  1  0  0  0  0
 21  2  2  0  0  0  0
 21 12  1  0  0  0  0
 22 17  1  0  0  0  0
 22  1  1  0  0  0  0
 23 28  2  0  0  0  0
 25  8  1  0  0  0  0
 25 16  1  0  0  0  0
 26 24  2  0  0  0  0
 26  2  1  0  0  0  0
 27 23  1  0  0  0  0
M  END
>  <MODEL>
8

>  <REMARK>
 VINA RESULT:      -7.4      3.024      8.468
  Name = 
  0 active torsions:
  status: ('A' for Active; 'I' for Inactive)
                            x       y       z     vdW  Elec       q    Type
                         _______ _______ _______ _____ _____    ______ ____

>  <TORSDO>
F 0

$$$$
=
 OpenBabel11062423083D

 28 32  0  0  1  0  0  0  0  0999 V2000
  189.4780  174.4140  146.3830 C   0  0  0  0  0  2  0  0  0  0  0  0
  188.7960  174.7960  140.7720 C   0  0  0  0  0  0  0  0  0  0  0  0
  187.6940  177.5780  146.8870 C   0  0  0  0  0  0  0  0  0  0  0  0
  186.7860  177.3930  144.5360 O   0  0  0  0  0  0  0  0  0  0  0  0
  186.3310  177.2790  142.1610 C   0  0  0  0  0  0  0  0  0  0  0  0
  189.7170  173.2910  145.3880 C   0  0  0  0  0  2  0  0  0  0  0  0
  186.6850  177.8990  145.8380 C   0  0  0  0  0  0  0  0  0  0  0  0
  191.0770  173.4590  144.7320 C   0  0  1  0  0  3  0  0  0  0  0  0
  187.1320  176.3410  139.6670 C   0  0  0  0  0  3  0  0  0  0  0  0
  185.7090  178.7650  146.1520 C   0  0  0  0  0  3  0  0  0  0  0  0
  190.7080  172.7370  140.8510 C   0  0  0  0  0  0  0  0  0  0  0  0
  190.0880  173.0770  139.6390 C   0  0  0  0  0  3  0  0  0  0  0  0
  185.8670  177.7560  143.4990 C   0  0  0  0  0  2  0  0  0  0  0  0
  191.6390  171.7050  140.8870 O   0  0  0  0  0  1  0  0  0  0  0  0
  186.1570  177.2860  139.7750 N   0  0  0  0  0  0  0  0  0  0  0  0
  191.6020  172.2580  144.2950 C   0  0  0  0  0  2  0  0  0  0  0  0
  188.5160  176.5700  146.8330 N   0  0  0  0  0  0  0  0  0  0  0  0
  189.4400  174.4580  141.9630 C   0  0  0  0  0  3  0  0  0  0  0  0
  185.7460  177.7590  140.9870 C   0  0  0  0  0  3  0  0  0  0  0  0
  190.3830  173.4440  142.0150 C   0  0  0  0  0  0  0  0  0  0  0  0
  189.1310  174.1040  139.5980 C   0  0  0  0  0  3  0  0  0  0  0  0
  188.6120  175.5340  145.8160 C   0  0  0  0  0  2  0  0  0  0  0  0
  186.8270  179.2870  148.3170 C   0  0  0  0  0  3  0  0  0  0  0  0
  187.3200  176.3090  142.0620 C   0  0  0  0  0  3  0  0  0  0  0  0
  190.9240  173.1220  143.2870 N   0  0  0  0  0  0  0  0  0  0  0  0
  187.7440  175.8300  140.8180 C   0  0  0  0  0  0  0  0  0  0  0  0
  185.5410  179.3210  147.5390 C   0  0  0  0  0  2  0  0  0  0  0  0
  187.7720  178.4470  148.0240 N   0  0  0  0  0  0  0  0  0  0  0  0
  2 26  1  0  0  0  0
  2 18  1  0  0  0  0
  3 28  1  0  0  0  0
  4  7  1  0  0  0  0
  5 13  1  0  0  0  0
  6  1  1  0  0  0  0
  7 10  2  0  0  0  0
  7  3  1  0  0  0  0
  8 16  1  1  0  0  0
  8  6  1  0  0  0  0
  9 15  2  0  0  0  0
  9 26  1  0  0  0  0
 10 27  1  0  0  0  0
 11 14  1  0  0  0  0
 11 20  1  0  0  0  0
 12 11  2  0  0  0  0
 13  4  1  0  0  0  0
 15 19  1  0  0  0  0
 17  3  2  0  0  0  0
 18 20  2  0  0  0  0
 19  5  2  0  0  0  0
 20 25  1  0  0  0  0
 21 12  1  0  0  0  0
 21  2  2  0  0  0  0
 22  1  1  0  0  0  0
 22 17  1  0  0  0  0
 24  5  1  0  0  0  0
 25 16  1  0  0  0  0
 25  8  1  0  0  0  0
 26 24  2  0  0  0  0
 27 23  1  0  0  0  0
 28 23  2  0  0  0  0
M  END
>  <MODEL>
9

>  <REMARK>
 VINA RESULT:      -7.4      2.747      6.600
  Name = 
  0 active torsions:
  status: ('A' for Active; 'I' for Inactive)
                            x       y       z     vdW  Elec       q    Type
                         _______ _______ _______ _____ _____    ______ ____

>  <TORSDO>
F 0

$$$$
