=
 OpenBabel11072409163D

 39 38  0  0  1  0  0  0  0  0999 V2000
  190.0320  175.8940  145.9360 C   0  0  1  0  0  3  0  0  0  0  0  0
  189.5240  177.7940  147.3130 O   0  0  0  0  0  0  0  0  0  0  0  0
  189.1290  176.9830  146.4310 C   0  0  0  0  0  0  0  0  0  0  0  0
  187.8030  177.0750  145.9150 N   0  0  0  0  0  2  0  0  0  0  0  0
  186.9290  178.0910  146.3360 N   0  0  0  0  0  2  0  0  0  0  0  0
  185.4810  176.5470  145.3250 O   0  0  0  0  0  1  0  0  0  0  0  0
  185.6200  177.8830  145.7140 C   0  0  1  0  0  0  0  0  0  0  0  0
  184.5160  178.2180  146.7140 C   0  0  0  0  0  1  0  0  0  0  0  0
  185.5320  178.7530  144.4800 C   0  0  0  0  0  0  0  0  0  0  0  0
  185.6700  179.9620  144.5920 O   0  0  0  0  0  0  0  0  0  0  0  0
  185.2420  178.1910  143.1180 C   0  0  0  0  0  2  0  0  0  0  0  0
  186.2850  178.5700  142.1800 N   0  0  0  0  0  2  0  0  0  0  0  0
  190.1140  177.2840  142.6800 C   0  0  0  0  0  1  0  0  0  0  0  0
  187.6040  178.1290  142.3500 C   0  0  0  0  0  0  0  0  0  0  0  0
  188.7390  177.7480  142.4990 C   0  0  0  0  0  0  0  0  0  0  0  0
  192.3090  175.5750  146.9360 C   0  0  0  0  0  3  0  0  0  0  0  0
  190.9840  175.3980  146.9920 C   0  0  0  0  0  3  0  0  0  0  0  0
  192.9830  176.2880  145.8090 C   0  0  0  0  0  2  0  0  0  0  0  0
  194.4560  176.4530  146.1230 C   0  0  0  0  0  2  0  0  0  0  0  0
  195.1320  175.0940  146.2250 C   0  0  0  0  0  2  0  0  0  0  0  0
  194.6940  174.1680  145.0920 C   0  0  1  0  0  3  0  0  0  0  0  0
  195.1660  174.6640  142.6030 N   0  0  0  0  0  0  0  0  0  0  0  0
  193.3080  175.0380  141.2080 O   0  0  0  0  0  0  0  0  0  0  0  0
  196.8310  173.9690  144.0820 O   0  0  0  0  0  0  0  0  0  0  0  0
  193.7750  174.9430  142.3740 C   0  0  0  0  0  3  0  0  0  0  0  0
  195.6190  174.2610  143.9080 C   0  0  0  0  0  0  0  0  0  0  0  0
  197.4380  175.7170  139.6980 C   0  0  0  0  0  1  0  0  0  0  0  0
  196.0920  174.6490  141.5410 N   0  0  0  0  0  2  0  0  0  0  0  0
  196.5420  176.9470  141.5220 O   0  0  0  0  0  0  0  0  0  0  0  0
  196.6580  175.8270  140.9580 C   0  0  0  0  0  0  0  0  0  0  0  0
  194.6150  172.8520  145.5490 O   0  0  0  0  0  0  0  0  0  0  0  0
  193.4180  172.3610  145.0250 C   0  0  0  0  0  1  0  0  0  0  0  0
  189.2460  174.7520  145.2940 C   0  0  0  0  0  2  0  0  0  0  0  0
  189.8900  173.3890  145.5290 C   0  0  0  0  0  2  0  0  0  0  0  0
  189.5610  172.5020  144.4680 O   0  0  0  0  0  0  0  0  0  0  0  0
  189.7010  172.8590  143.1250 C   0  0  0  0  0  0  0  0  0  0  0  0
  190.8380  173.1320  142.6490 O   0  0  0  0  0  0  0  0  0  0  0  0
  188.1400  174.0300  141.6550 C   0  0  0  0  0  2  0  0  0  0  0  0
  188.5050  172.9180  142.2790 C   0  0  0  0  0  3  0  0  0  0  0  0
  1 33  1  1  0  0  0
  1  3  1  0  0  0  0
  1 17  1  0  0  0  0
  3  2  2  0  0  0  0
  4  5  1  0  0  0  0
  4  3  1  0  0  0  0
  6  7  1  0  0  0  0
  7  5  1  0  0  0  0
  7  8  1  1  0  0  0
  9 10  2  0  0  0  0
  9  7  1  0  0  0  0
 11  9  1  0  0  0  0
 12 14  1  0  0  0  0
 12 11  1  0  0  0  0
 14 15  3  0  0  0  0
 15 13  1  0  0  0  0
 16 17  2  0  0  0  0
 18 19  1  0  0  0  0
 18 16  1  0  0  0  0
 19 20  1  0  0  0  0
 21 31  1  0  0  0  0
 21 20  1  1  0  0  0
 22 26  1  0  0  0  0
 23 25  2  0  0  0  0
 25 22  1  0  0  0  0
 26 24  2  0  0  0  0
 26 21  1  0  0  0  0
 27 30  1  0  0  0  0
 28 22  1  0  0  0  0
 30 29  2  0  0  0  0
 30 28  1  0  0  0  0
 32 31  1  0  0  0  0
 33 34  1  0  0  0  0
 35 34  1  0  0  0  0
 36 35  1  0  0  0  0
 37 36  2  0  0  0  0
 38 39  2  0  0  0  0
 39 36  1  0  0  0  0
M  END
>  <MODEL>
1

>  <REMARK>
 VINA RESULT:      -5.6      0.000      0.000
  Name = 
  20 active torsions:
  status: ('A' for Active; 'I' for Inactive)
    1  A    between atoms: O_3  and  C_11
    2  A    between atoms: O_3  and  C_12
    3  A    between atoms: N_4  and  N_13
    4  A    between atoms: C_7  and  C_20
    5  A    between atoms: C_7  and  C_35
    6  A    between atoms: C_10  and  O_17
    7  A    between atoms: C_10  and  C_26
    8  A    between atoms: C_10  and  C_39
    9  A    between atoms: C_11  and  C_19
   10  A    between atoms: C_12  and  C_38
   11  A    between atoms: N_14  and  C_24
   12  A    between atoms: N_14  and  N_36
   13  A    between atoms: N_16  and  C_22
   14  A    between atoms: N_16  and  C_27
   15  A    between atoms: C_22  and  C_28
   16  A    between atoms: C_24  and  C_28
   17  A    between atoms: C_26  and  C_35
   18  A    between atoms: C_29  and  C_32
   19  A    between atoms: C_32  and  C_33
   20  A    between atoms: C_32  and  C_38
                            x       y       z     vdW  Elec       q    Type
                         _______ _______ _______ _____ _____    ______ ____

>  <TORSDO>
F 20

$$$$
=
 OpenBabel11072409163D

 39 38  0  0  1  0  0  0  0  0999 V2000
  190.9180  176.3990  144.6600 C   0  0  1  0  0  3  0  0  0  0  0  0
  189.1970  177.4570  145.9590 O   0  0  0  0  0  0  0  0  0  0  0  0
  189.6370  177.1620  144.8140 C   0  0  0  0  0  0  0  0  0  0  0  0
  188.9020  177.5260  143.6480 N   0  0  0  0  0  2  0  0  0  0  0  0
  187.7060  178.2580  143.7440 N   0  0  0  0  0  2  0  0  0  0  0  0
  187.3230  177.8750  141.4620 O   0  0  0  0  0  1  0  0  0  0  0  0
  186.7620  177.7650  142.7380 C   0  0  1  0  0  0  0  0  0  0  0  0
  186.4450  176.2970  143.0070 C   0  0  0  0  0  1  0  0  0  0  0  0
  185.5160  178.6210  142.7900 C   0  0  0  0  0  0  0  0  0  0  0  0
  184.6480  178.4590  141.9450 O   0  0  0  0  0  0  0  0  0  0  0  0
  185.3190  179.6940  143.8200 C   0  0  0  0  0  2  0  0  0  0  0  0
  184.5160  179.1970  144.9240 N   0  0  0  0  0  2  0  0  0  0  0  0
  186.1430  176.7850  147.7710 C   0  0  0  0  0  1  0  0  0  0  0  0
  185.0750  178.3670  145.9060 C   0  0  0  0  0  0  0  0  0  0  0  0
  185.5560  177.6520  146.7490 C   0  0  0  0  0  0  0  0  0  0  0  0
  191.9740  175.4080  146.7070 C   0  0  0  0  0  3  0  0  0  0  0  0
  191.0900  175.3290  145.7050 C   0  0  0  0  0  3  0  0  0  0  0  0
  192.8870  176.5760  146.8900 C   0  0  0  0  0  2  0  0  0  0  0  0
  194.2900  176.1940  146.4620 C   0  0  0  0  0  2  0  0  0  0  0  0
  194.6120  176.7970  145.1020 C   0  0  0  0  0  2  0  0  0  0  0  0
  195.6870  175.9910  144.3770 C   0  0  1  0  0  3  0  0  0  0  0  0
  195.5260  173.4190  144.5330 N   0  0  0  0  0  0  0  0  0  0  0  0
  197.0020  172.3360  146.0120 O   0  0  0  0  0  0  0  0  0  0  0  0
  194.3780  174.6520  142.9190 O   0  0  0  0  0  0  0  0  0  0  0  0
  196.4660  173.4060  145.6190 C   0  0  0  0  0  3  0  0  0  0  0  0
  195.1620  174.6610  143.9050 C   0  0  0  0  0  0  0  0  0  0  0  0
  193.5100  170.2230  143.8820 C   0  0  0  0  0  1  0  0  0  0  0  0
  195.0420  172.2200  143.9730 N   0  0  0  0  0  2  0  0  0  0  0  0
  192.9710  172.2110  145.0640 O   0  0  0  0  0  0  0  0  0  0  0  0
  193.8150  171.5960  144.3610 C   0  0  0  0  0  0  0  0  0  0  0  0
  196.1970  176.7250  143.3040 O   0  0  0  0  0  0  0  0  0  0  0  0
  197.4830  176.2210  143.1040 C   0  0  0  0  0  1  0  0  0  0  0  0
  191.0850  175.8480  143.2450 C   0  0  0  0  0  2  0  0  0  0  0  0
  190.8110  174.3500  143.1610 C   0  0  0  0  0  2  0  0  0  0  0  0
  189.4130  174.1120  143.0640 O   0  0  0  0  0  0  0  0  0  0  0  0
  188.8800  173.1060  142.2540 C   0  0  0  0  0  0  0  0  0  0  0  0
  188.9080  171.9010  142.6260 O   0  0  0  0  0  0  0  0  0  0  0  0
  189.0420  173.7140  139.8940 C   0  0  0  0  0  2  0  0  0  0  0  0
  188.2940  173.4740  140.9610 C   0  0  0  0  0  3  0  0  0  0  0  0
  1 33  1  6  0  0  0
  1  3  1  0  0  0  0
  1 17  1  0  0  0  0
  3  2  2  0  0  0  0
  4  5  1  0  0  0  0
  4  3  1  0  0  0  0
  6  7  1  0  0  0  0
  7  9  1  0  0  0  0
  7  8  1  1  0  0  0
  7  5  1  0  0  0  0
  9 11  1  0  0  0  0
 10  9  2  0  0  0  0
 11 12  1  0  0  0  0
 12 14  1  0  0  0  0
 14 15  3  0  0  0  0
 15 13  1  0  0  0  0
 16 18  1  0  0  0  0
 17 16  2  0  0  0  0
 19 18  1  0  0  0  0
 20 19  1  0  0  0  0
 21 20  1  6  0  0  0
 22 25  1  0  0  0  0
 24 26  2  0  0  0  0
 25 23  2  0  0  0  0
 26 21  1  0  0  0  0
 26 22  1  0  0  0  0
 27 30  1  0  0  0  0
 28 30  1  0  0  0  0
 28 22  1  0  0  0  0
 30 29  2  0  0  0  0
 31 21  1  0  0  0  0
 32 31  1  0  0  0  0
 34 33  1  0  0  0  0
 35 34  1  0  0  0  0
 36 37  2  0  0  0  0
 36 35  1  0  0  0  0
 38 39  2  0  0  0  0
 39 36  1  0  0  0  0
M  END
>  <MODEL>
2

>  <REMARK>
 VINA RESULT:      -5.5      1.922      3.694
  Name = 
  20 active torsions:
  status: ('A' for Active; 'I' for Inactive)
    1  A    between atoms: O_3  and  C_11
    2  A    between atoms: O_3  and  C_12
    3  A    between atoms: N_4  and  N_13
    4  A    between atoms: C_7  and  C_20
    5  A    between atoms: C_7  and  C_35
    6  A    between atoms: C_10  and  O_17
    7  A    between atoms: C_10  and  C_26
    8  A    between atoms: C_10  and  C_39
    9  A    between atoms: C_11  and  C_19
   10  A    between atoms: C_12  and  C_38
   11  A    between atoms: N_14  and  C_24
   12  A    between atoms: N_14  and  N_36
   13  A    between atoms: N_16  and  C_22
   14  A    between atoms: N_16  and  C_27
   15  A    between atoms: C_22  and  C_28
   16  A    between atoms: C_24  and  C_28
   17  A    between atoms: C_26  and  C_35
   18  A    between atoms: C_29  and  C_32
   19  A    between atoms: C_32  and  C_33
   20  A    between atoms: C_32  and  C_38
                            x       y       z     vdW  Elec       q    Type
                         _______ _______ _______ _____ _____    ______ ____

>  <TORSDO>
F 20

$$$$
=
 OpenBabel11072409163D

 39 38  0  0  1  0  0  0  0  0999 V2000
  189.2450  175.2560  145.5330 C   0  0  1  0  0  3  0  0  0  0  0  0
  189.2060  177.5590  144.8520 O   0  0  0  0  0  0  0  0  0  0  0  0
  188.6500  176.6320  145.5030 C   0  0  0  0  0  0  0  0  0  0  0  0
  187.4610  176.8910  146.2460 N   0  0  0  0  0  2  0  0  0  0  0  0
  186.8570  178.1600  146.2310 N   0  0  0  0  0  2  0  0  0  0  0  0
  185.0730  176.6580  145.9800 O   0  0  0  0  0  1  0  0  0  0  0  0
  185.4020  177.9970  146.2120 C   0  0  1  0  0  0  0  0  0  0  0  0
  184.8200  178.4160  147.5590 C   0  0  0  0  0  1  0  0  0  0  0  0
  184.8420  178.8310  145.0820 C   0  0  0  0  0  0  0  0  0  0  0  0
  183.6300  178.9110  144.9450 O   0  0  0  0  0  0  0  0  0  0  0  0
  185.7200  179.5380  144.0910 C   0  0  0  0  0  2  0  0  0  0  0  0
  185.6740  178.8680  142.8020 N   0  0  0  0  0  2  0  0  0  0  0  0
  187.2900  175.1640  142.3140 C   0  0  0  0  0  1  0  0  0  0  0  0
  186.2300  177.5930  142.6320 C   0  0  0  0  0  0  0  0  0  0  0  0
  186.7100  176.4960  142.4880 C   0  0  0  0  0  0  0  0  0  0  0  0
  190.5310  173.9420  143.8280 C   0  0  0  0  0  3  0  0  0  0  0  0
  190.3440  175.0720  144.5210 C   0  0  0  0  0  3  0  0  0  0  0  0
  189.6600  172.7400  143.9930 C   0  0  0  0  0  2  0  0  0  0  0  0
  189.5380  172.0170  142.6660 C   0  0  0  0  0  2  0  0  0  0  0  0
  190.6970  171.0490  142.4830 C   0  0  0  0  0  2  0  0  0  0  0  0
  191.5370  171.4110  141.2600 C   0  0  1  0  0  3  0  0  0  0  0  0
  193.1010  173.4110  140.7920 N   0  0  0  0  0  0  0  0  0  0  0  0
  192.9440  174.4290  138.6770 O   0  0  0  0  0  0  0  0  0  0  0  0
  193.3050  172.0760  142.6940 O   0  0  0  0  0  0  0  0  0  0  0  0
  192.4470  173.6550  139.5370 C   0  0  0  0  0  3  0  0  0  0  0  0
  192.6880  172.3100  141.6220 C   0  0  0  0  0  0  0  0  0  0  0  0
  195.4190  176.2220  141.9890 C   0  0  0  0  0  1  0  0  0  0  0  0
  194.2370  174.1490  141.1790 N   0  0  0  0  0  2  0  0  0  0  0  0
  193.0980  175.8460  142.3210 O   0  0  0  0  0  0  0  0  0  0  0  0
  194.1780  175.4200  141.8340 C   0  0  0  0  0  0  0  0  0  0  0  0
  191.9990  170.2520  140.6330 O   0  0  0  0  0  0  0  0  0  0  0  0
  190.8460  169.5960  140.1990 C   0  0  0  0  0  1  0  0  0  0  0  0
  189.6910  174.8610  146.9400 C   0  0  0  0  0  2  0  0  0  0  0  0
  190.8290  175.7330  147.4630 C   0  0  0  0  0  2  0  0  0  0  0  0
  192.0680  175.0450  147.3460 O   0  0  0  0  0  0  0  0  0  0  0  0
  193.1740  175.6030  146.7010 C   0  0  0  0  0  0  0  0  0  0  0  0
  193.5250  176.7910  146.9410 O   0  0  0  0  0  0  0  0  0  0  0  0
  195.2190  174.9520  145.5340 C   0  0  0  0  0  2  0  0  0  0  0  0
  193.9190  174.7870  145.7370 C   0  0  0  0  0  3  0  0  0  0  0  0
  1 17  1  6  0  0  0
  1 33  1  0  0  0  0
  2  3  2  0  0  0  0
  3  1  1  0  0  0  0
  3  4  1  0  0  0  0
  5  4  1  0  0  0  0
  6  7  1  0  0  0  0
  7  5  1  0  0  0  0
  7  8  1  1  0  0  0
  9  7  1  0  0  0  0
 10  9  2  0  0  0  0
 11  9  1  0  0  0  0
 12 11  1  0  0  0  0
 13 15  1  0  0  0  0
 14 12  1  0  0  0  0
 15 14  3  0  0  0  0
 16 18  1  0  0  0  0
 16 17  2  0  0  0  0
 19 18  1  0  0  0  0
 20 19  1  0  0  0  0
 21 26  1  0  0  0  0
 21 20  1  1  0  0  0
 22 28  1  0  0  0  0
 22 26  1  0  0  0  0
 23 25  2  0  0  0  0
 25 22  1  0  0  0  0
 26 24  2  0  0  0  0
 28 30  1  0  0  0  0
 30 27  1  0  0  0  0
 30 29  2  0  0  0  0
 31 21  1  0  0  0  0
 32 31  1  0  0  0  0
 33 34  1  0  0  0  0
 35 34  1  0  0  0  0
 36 37  2  0  0  0  0
 36 35  1  0  0  0  0
 38 39  2  0  0  0  0
 39 36  1  0  0  0  0
M  END
>  <MODEL>
3

>  <REMARK>
 VINA RESULT:      -5.4      2.070      3.978
  Name = 
  20 active torsions:
  status: ('A' for Active; 'I' for Inactive)
    1  A    between atoms: O_3  and  C_11
    2  A    between atoms: O_3  and  C_12
    3  A    between atoms: N_4  and  N_13
    4  A    between atoms: C_7  and  C_20
    5  A    between atoms: C_7  and  C_35
    6  A    between atoms: C_10  and  O_17
    7  A    between atoms: C_10  and  C_26
    8  A    between atoms: C_10  and  C_39
    9  A    between atoms: C_11  and  C_19
   10  A    between atoms: C_12  and  C_38
   11  A    between atoms: N_14  and  C_24
   12  A    between atoms: N_14  and  N_36
   13  A    between atoms: N_16  and  C_22
   14  A    between atoms: N_16  and  C_27
   15  A    between atoms: C_22  and  C_28
   16  A    between atoms: C_24  and  C_28
   17  A    between atoms: C_26  and  C_35
   18  A    between atoms: C_29  and  C_32
   19  A    between atoms: C_32  and  C_33
   20  A    between atoms: C_32  and  C_38
                            x       y       z     vdW  Elec       q    Type
                         _______ _______ _______ _____ _____    ______ ____

>  <TORSDO>
F 20

$$$$
=
 OpenBabel11072409163D

 39 38  0  0  1  0  0  0  0  0999 V2000
  189.0880  176.7580  142.2660 C   0  0  1  0  0  3  0  0  0  0  0  0
  190.3520  178.4710  143.3790 O   0  0  0  0  0  0  0  0  0  0  0  0
  190.0700  177.2450  143.2900 C   0  0  0  0  0  0  0  0  0  0  0  0
  190.7060  176.2990  144.1460 N   0  0  0  0  0  2  0  0  0  0  0  0
  191.6180  176.7110  145.1320 N   0  0  0  0  0  2  0  0  0  0  0  0
  191.4480  174.4250  145.6300 O   0  0  0  0  0  1  0  0  0  0  0  0
  191.6840  175.6900  146.1790 C   0  0  1  0  0  0  0  0  0  0  0  0
  193.0710  175.6940  146.8160 C   0  0  0  0  0  1  0  0  0  0  0  0
  190.6050  175.9780  147.1980 C   0  0  0  0  0  0  0  0  0  0  0  0
  190.7730  176.8820  148.0030 O   0  0  0  0  0  0  0  0  0  0  0  0
  189.3440  175.1690  147.2870 C   0  0  0  0  0  2  0  0  0  0  0  0
  188.3420  175.6860  146.3700 N   0  0  0  0  0  2  0  0  0  0  0  0
  185.4830  178.2890  147.6420 C   0  0  0  0  0  1  0  0  0  0  0  0
  187.3590  176.5840  146.8080 C   0  0  0  0  0  0  0  0  0  0  0  0
  186.5110  177.3550  147.1840 C   0  0  0  0  0  0  0  0  0  0  0  0
  188.2390  174.4150  142.5430 C   0  0  0  0  0  3  0  0  0  0  0  0
  188.1400  175.7230  142.8100 C   0  0  0  0  0  3  0  0  0  0  0  0
  189.3090  173.8470  141.6700 C   0  0  0  0  0  2  0  0  0  0  0  0
  189.5120  172.3830  142.0040 C   0  0  0  0  0  2  0  0  0  0  0  0
  190.7690  172.2000  142.8420 C   0  0  0  0  0  2  0  0  0  0  0  0
  192.0140  172.6510  142.0830 C   0  0  1  0  0  3  0  0  0  0  0  0
  193.6870  174.3860  143.0090 N   0  0  0  0  0  0  0  0  0  0  0  0
  193.8940  176.4140  141.8340 O   0  0  0  0  0  0  0  0  0  0  0  0
  193.5510  172.2090  143.8360 O   0  0  0  0  0  0  0  0  0  0  0  0
  193.2460  175.3550  142.0440 C   0  0  0  0  0  3  0  0  0  0  0  0
  193.1180  173.0650  143.0190 C   0  0  0  0  0  0  0  0  0  0  0  0
  197.1710  174.4930  144.6070 C   0  0  0  0  0  1  0  0  0  0  0  0
  194.7660  174.6550  143.8730 N   0  0  0  0  0  2  0  0  0  0  0  0
  196.4780  174.1250  142.3660 O   0  0  0  0  0  0  0  0  0  0  0  0
  196.1350  174.3930  143.5470 C   0  0  0  0  0  0  0  0  0  0  0  0
  192.4510  171.6350  141.2300 O   0  0  0  0  0  0  0  0  0  0  0  0
  192.7670  172.2830  140.0340 C   0  0  0  0  0  1  0  0  0  0  0  0
  188.3490  177.9140  141.5940 C   0  0  0  0  0  2  0  0  0  0  0  0
  186.9650  177.5130  141.0900 C   0  0  0  0  0  2  0  0  0  0  0  0
  186.0120  178.5130  141.4260 O   0  0  0  0  0  0  0  0  0  0  0  0
  185.2380  178.4470  142.5870 C   0  0  0  0  0  0  0  0  0  0  0  0
  184.0910  177.9200  142.5640 O   0  0  0  0  0  0  0  0  0  0  0  0
  185.2140  180.0400  144.4380 C   0  0  0  0  0  2  0  0  0  0  0  0
  185.7780  179.0050  143.8310 C   0  0  0  0  0  3  0  0  0  0  0  0
  1 33  1  1  0  0  0
  1 17  1  0  0  0  0
  1  3  1  0  0  0  0
  3  2  2  0  0  0  0
  3  4  1  0  0  0  0
  4  5  1  0  0  0  0
  5  7  1  0  0  0  0
  6  7  1  0  0  0  0
  7  8  1  1  0  0  0
  7  9  1  0  0  0  0
  9 11  1  0  0  0  0
  9 10  2  0  0  0  0
 12 14  1  0  0  0  0
 12 11  1  0  0  0  0
 14 15  3  0  0  0  0
 15 13  1  0  0  0  0
 16 17  2  0  0  0  0
 18 19  1  0  0  0  0
 18 16  1  0  0  0  0
 19 20  1  0  0  0  0
 21 20  1  1  0  0  0
 21 26  1  0  0  0  0
 22 26  1  0  0  0  0
 22 28  1  0  0  0  0
 23 25  2  0  0  0  0
 25 22  1  0  0  0  0
 26 24  2  0  0  0  0
 29 30  2  0  0  0  0
 30 28  1  0  0  0  0
 30 27  1  0  0  0  0
 31 21  1  0  0  0  0
 32 31  1  0  0  0  0
 34 35  1  0  0  0  0
 34 33  1  0  0  0  0
 35 36  1  0  0  0  0
 36 39  1  0  0  0  0
 37 36  2  0  0  0  0
 39 38  2  0  0  0  0
M  END
>  <MODEL>
4

>  <REMARK>
 VINA RESULT:      -5.3      2.161      5.524
  Name = 
  20 active torsions:
  status: ('A' for Active; 'I' for Inactive)
    1  A    between atoms: O_3  and  C_11
    2  A    between atoms: O_3  and  C_12
    3  A    between atoms: N_4  and  N_13
    4  A    between atoms: C_7  and  C_20
    5  A    between atoms: C_7  and  C_35
    6  A    between atoms: C_10  and  O_17
    7  A    between atoms: C_10  and  C_26
    8  A    between atoms: C_10  and  C_39
    9  A    between atoms: C_11  and  C_19
   10  A    between atoms: C_12  and  C_38
   11  A    between atoms: N_14  and  C_24
   12  A    between atoms: N_14  and  N_36
   13  A    between atoms: N_16  and  C_22
   14  A    between atoms: N_16  and  C_27
   15  A    between atoms: C_22  and  C_28
   16  A    between atoms: C_24  and  C_28
   17  A    between atoms: C_26  and  C_35
   18  A    between atoms: C_29  and  C_32
   19  A    between atoms: C_32  and  C_33
   20  A    between atoms: C_32  and  C_38
                            x       y       z     vdW  Elec       q    Type
                         _______ _______ _______ _____ _____    ______ ____

>  <TORSDO>
F 20

$$$$
=
 OpenBabel11072409163D

 39 38  0  0  1  0  0  0  0  0999 V2000
  189.4360  175.3500  145.1970 C   0  0  1  0  0  3  0  0  0  0  0  0
  189.5230  177.7490  145.2570 O   0  0  0  0  0  0  0  0  0  0  0  0
  188.8650  176.7010  145.5060 C   0  0  0  0  0  0  0  0  0  0  0  0
  187.5790  176.7890  146.1150 N   0  0  0  0  0  2  0  0  0  0  0  0
  186.9970  178.0350  146.4050 N   0  0  0  0  0  2  0  0  0  0  0  0
  185.1880  176.6340  145.8900 O   0  0  0  0  0  1  0  0  0  0  0  0
  185.5540  177.9540  146.1730 C   0  0  1  0  0  0  0  0  0  0  0  0
  184.8060  178.4090  147.4240 C   0  0  0  0  0  1  0  0  0  0  0  0
  185.2110  178.8140  144.9780 C   0  0  0  0  0  0  0  0  0  0  0  0
  185.5990  179.9720  144.9460 O   0  0  0  0  0  0  0  0  0  0  0  0
  184.3730  178.3110  143.8390 C   0  0  0  0  0  2  0  0  0  0  0  0
  184.9780  178.6670  142.5670 N   0  0  0  0  0  2  0  0  0  0  0  0
  188.9450  178.0480  141.8950 C   0  0  0  0  0  1  0  0  0  0  0  0
  186.3440  178.4550  142.3330 C   0  0  0  0  0  0  0  0  0  0  0  0
  187.5190  178.2720  142.1350 C   0  0  0  0  0  0  0  0  0  0  0  0
  190.2900  174.8890  142.8840 C   0  0  0  0  0  3  0  0  0  0  0  0
  190.4790  175.3890  144.1120 C   0  0  0  0  0  3  0  0  0  0  0  0
  189.0140  174.2350  142.4660 C   0  0  0  0  0  2  0  0  0  0  0  0
  188.9630  174.1450  140.9540 C   0  0  0  0  0  2  0  0  0  0  0  0
  188.8200  172.6950  140.5140 C   0  0  0  0  0  2  0  0  0  0  0  0
  190.1420  172.1400  139.9890 C   0  0  1  0  0  3  0  0  0  0  0  0
  192.1930  171.9510  141.5450 N   0  0  0  0  0  0  0  0  0  0  0  0
  193.9880  173.4180  141.1430 O   0  0  0  0  0  0  0  0  0  0  0  0
  190.4480  170.4030  141.5750 O   0  0  0  0  0  0  0  0  0  0  0  0
  192.7830  173.1140  140.9420 C   0  0  0  0  0  3  0  0  0  0  0  0
  190.9280  171.4540  141.0740 C   0  0  0  0  0  0  0  0  0  0  0  0
  193.7510  170.7450  144.8360 C   0  0  0  0  0  1  0  0  0  0  0  0
  192.8890  171.1980  142.5120 N   0  0  0  0  0  2  0  0  0  0  0  0
  191.9130  172.1850  144.3980 O   0  0  0  0  0  0  0  0  0  0  0  0
  192.8050  171.4360  143.9210 C   0  0  0  0  0  0  0  0  0  0  0  0
  189.9090  171.2660  138.9250 O   0  0  0  0  0  0  0  0  0  0  0  0
  189.4810  172.0820  137.8770 C   0  0  0  0  0  1  0  0  0  0  0  0
  189.9450  174.6470  146.4530 C   0  0  0  0  0  2  0  0  0  0  0  0
  190.8590  175.5340  147.2940 C   0  0  0  0  0  2  0  0  0  0  0  0
  192.1830  175.0170  147.2910 O   0  0  0  0  0  0  0  0  0  0  0  0
  193.2210  175.6290  146.5850 C   0  0  0  0  0  0  0  0  0  0  0  0
  193.6360  176.7740  146.9160 O   0  0  0  0  0  0  0  0  0  0  0  0
  194.9570  174.2500  145.5580 C   0  0  0  0  0  2  0  0  0  0  0  0
  193.8180  174.9210  145.4480 C   0  0  0  0  0  3  0  0  0  0  0  0
  1 17  1  6  0  0  0
  1  3  1  0  0  0  0
  1 33  1  0  0  0  0
  2  3  2  0  0  0  0
  3  4  1  0  0  0  0
  4  5  1  0  0  0  0
  6  7  1  0  0  0  0
  7  5  1  0  0  0  0
  7  8  1  1  0  0  0
  9  7  1  0  0  0  0
 10  9  2  0  0  0  0
 11  9  1  0  0  0  0
 12 11  1  0  0  0  0
 13 15  1  0  0  0  0
 14 12  1  0  0  0  0
 15 14  3  0  0  0  0
 16 17  2  0  0  0  0
 18 16  1  0  0  0  0
 19 18  1  0  0  0  0
 20 19  1  0  0  0  0
 21 20  1  1  0  0  0
 21 26  1  0  0  0  0
 22 28  1  0  0  0  0
 25 23  2  0  0  0  0
 25 22  1  0  0  0  0
 26 22  1  0  0  0  0
 26 24  2  0  0  0  0
 28 30  1  0  0  0  0
 30 29  2  0  0  0  0
 30 27  1  0  0  0  0
 31 21  1  0  0  0  0
 32 31  1  0  0  0  0
 33 34  1  0  0  0  0
 35 34  1  0  0  0  0
 36 37  2  0  0  0  0
 36 35  1  0  0  0  0
 39 38  2  0  0  0  0
 39 36  1  0  0  0  0
M  END
>  <MODEL>
5

>  <REMARK>
 VINA RESULT:      -5.3      2.223      4.855
  Name = 
  20 active torsions:
  status: ('A' for Active; 'I' for Inactive)
    1  A    between atoms: O_3  and  C_11
    2  A    between atoms: O_3  and  C_12
    3  A    between atoms: N_4  and  N_13
    4  A    between atoms: C_7  and  C_20
    5  A    between atoms: C_7  and  C_35
    6  A    between atoms: C_10  and  O_17
    7  A    between atoms: C_10  and  C_26
    8  A    between atoms: C_10  and  C_39
    9  A    between atoms: C_11  and  C_19
   10  A    between atoms: C_12  and  C_38
   11  A    between atoms: N_14  and  C_24
   12  A    between atoms: N_14  and  N_36
   13  A    between atoms: N_16  and  C_22
   14  A    between atoms: N_16  and  C_27
   15  A    between atoms: C_22  and  C_28
   16  A    between atoms: C_24  and  C_28
   17  A    between atoms: C_26  and  C_35
   18  A    between atoms: C_29  and  C_32
   19  A    between atoms: C_32  and  C_33
   20  A    between atoms: C_32  and  C_38
                            x       y       z     vdW  Elec       q    Type
                         _______ _______ _______ _____ _____    ______ ____

>  <TORSDO>
F 20

$$$$
=
 OpenBabel11072409163D

 39 38  0  0  1  0  0  0  0  0999 V2000
  189.8850  175.9390  146.1100 C   0  0  1  0  0  3  0  0  0  0  0  0
  189.2470  177.8280  147.4480 O   0  0  0  0  0  0  0  0  0  0  0  0
  188.9640  177.0610  146.4880 C   0  0  0  0  0  0  0  0  0  0  0  0
  187.7460  177.2320  145.7680 N   0  0  0  0  0  2  0  0  0  0  0  0
  186.8630  178.2800  146.0750 N   0  0  0  0  0  2  0  0  0  0  0  0
  185.4420  176.5400  145.4010 O   0  0  0  0  0  1  0  0  0  0  0  0
  185.5170  177.9180  145.6270 C   0  0  1  0  0  0  0  0  0  0  0  0
  184.4990  178.2920  146.7020 C   0  0  0  0  0  1  0  0  0  0  0  0
  185.2360  178.6330  144.3250 C   0  0  0  0  0  0  0  0  0  0  0  0
  185.0450  179.8400  144.3370 O   0  0  0  0  0  0  0  0  0  0  0  0
  185.1430  177.9100  143.0130 C   0  0  0  0  0  2  0  0  0  0  0  0
  186.1550  178.3970  142.0910 N   0  0  0  0  0  2  0  0  0  0  0  0
  186.6400  176.7070  138.4200 C   0  0  0  0  0  1  0  0  0  0  0  0
  186.3200  177.8140  140.8270 C   0  0  0  0  0  0  0  0  0  0  0  0
  186.4640  177.3140  139.7390 C   0  0  0  0  0  0  0  0  0  0  0  0
  191.7610  175.5210  147.7200 C   0  0  0  0  0  3  0  0  0  0  0  0
  190.5140  175.2700  147.3030 C   0  0  0  0  0  3  0  0  0  0  0  0
  192.6610  176.4970  147.0360 C   0  0  0  0  0  2  0  0  0  0  0  0
  193.7910  175.7520  146.3540 C   0  0  0  0  0  2  0  0  0  0  0  0
  194.2270  176.4880  145.0950 C   0  0  0  0  0  2  0  0  0  0  0  0
  195.4170  175.7990  144.4320 C   0  0  1  0  0  3  0  0  0  0  0  0
  195.5040  173.2190  144.4630 N   0  0  0  0  0  0  0  0  0  0  0  0
  197.0260  172.2110  145.9470 O   0  0  0  0  0  0  0  0  0  0  0  0
  194.2970  174.4150  142.8640 O   0  0  0  0  0  0  0  0  0  0  0  0
  196.4030  173.2430  145.5830 C   0  0  0  0  0  3  0  0  0  0  0  0
  195.0420  174.4500  143.8780 C   0  0  0  0  0  0  0  0  0  0  0  0
  193.8440  169.8730  143.5950 C   0  0  0  0  0  1  0  0  0  0  0  0
  195.1590  172.0090  143.8290 N   0  0  0  0  0  2  0  0  0  0  0  0
  193.0760  171.7300  144.8590 O   0  0  0  0  0  0  0  0  0  0  0  0
  193.9950  171.2420  144.1510 C   0  0  0  0  0  0  0  0  0  0  0  0
  195.9440  176.6110  143.4250 O   0  0  0  0  0  0  0  0  0  0  0  0
  197.2680  176.1930  143.2840 C   0  0  0  0  0  1  0  0  0  0  0  0
  189.2040  174.9320  145.1840 C   0  0  0  0  0  2  0  0  0  0  0  0
  190.1440  173.8210  144.7290 C   0  0  0  0  0  2  0  0  0  0  0  0
  190.2290  173.8000  143.3110 O   0  0  0  0  0  0  0  0  0  0  0  0
  190.2150  174.9680  142.5440 C   0  0  0  0  0  0  0  0  0  0  0  0
  191.2160  175.7370  142.5290 O   0  0  0  0  0  0  0  0  0  0  0  0
  188.0790  174.3860  141.5150 C   0  0  0  0  0  2  0  0  0  0  0  0
  189.0180  175.2890  141.7620 C   0  0  0  0  0  3  0  0  0  0  0  0
  1 33  1  1  0  0  0
  1  3  1  0  0  0  0
  1 17  1  0  0  0  0
  3  2  2  0  0  0  0
  4  5  1  0  0  0  0
  4  3  1  0  0  0  0
  6  7  1  0  0  0  0
  7  5  1  0  0  0  0
  7  8  1  1  0  0  0
  9 10  2  0  0  0  0
  9  7  1  0  0  0  0
 11  9  1  0  0  0  0
 12 11  1  0  0  0  0
 13 15  1  0  0  0  0
 14 12  1  0  0  0  0
 15 14  3  0  0  0  0
 17 16  2  0  0  0  0
 18 16  1  0  0  0  0
 19 18  1  0  0  0  0
 20 19  1  0  0  0  0
 21 20  1  6  0  0  0
 22 25  1  0  0  0  0
 24 26  2  0  0  0  0
 25 23  2  0  0  0  0
 26 21  1  0  0  0  0
 26 22  1  0  0  0  0
 27 30  1  0  0  0  0
 28 30  1  0  0  0  0
 28 22  1  0  0  0  0
 30 29  2  0  0  0  0
 31 21  1  0  0  0  0
 32 31  1  0  0  0  0
 34 33  1  0  0  0  0
 35 34  1  0  0  0  0
 36 35  1  0  0  0  0
 37 36  2  0  0  0  0
 38 39  2  0  0  0  0
 39 36  1  0  0  0  0
M  END
>  <MODEL>
6

>  <REMARK>
 VINA RESULT:      -5.3      1.677      3.115
  Name = 
  20 active torsions:
  status: ('A' for Active; 'I' for Inactive)
    1  A    between atoms: O_3  and  C_11
    2  A    between atoms: O_3  and  C_12
    3  A    between atoms: N_4  and  N_13
    4  A    between atoms: C_7  and  C_20
    5  A    between atoms: C_7  and  C_35
    6  A    between atoms: C_10  and  O_17
    7  A    between atoms: C_10  and  C_26
    8  A    between atoms: C_10  and  C_39
    9  A    between atoms: C_11  and  C_19
   10  A    between atoms: C_12  and  C_38
   11  A    between atoms: N_14  and  C_24
   12  A    between atoms: N_14  and  N_36
   13  A    between atoms: N_16  and  C_22
   14  A    between atoms: N_16  and  C_27
   15  A    between atoms: C_22  and  C_28
   16  A    between atoms: C_24  and  C_28
   17  A    between atoms: C_26  and  C_35
   18  A    between atoms: C_29  and  C_32
   19  A    between atoms: C_32  and  C_33
   20  A    between atoms: C_32  and  C_38
                            x       y       z     vdW  Elec       q    Type
                         _______ _______ _______ _____ _____    ______ ____

>  <TORSDO>
F 20

$$$$
=
 OpenBabel11072409163D

 39 38  0  0  1  0  0  0  0  0999 V2000
  192.0300  174.4430  145.3040 C   0  0  1  0  0  3  0  0  0  0  0  0
  189.9730  173.2820  145.7380 O   0  0  0  0  0  0  0  0  0  0  0  0
  190.8380  173.6330  144.8900 C   0  0  0  0  0  0  0  0  0  0  0  0
  190.7080  173.2370  143.5260 N   0  0  0  0  0  2  0  0  0  0  0  0
  189.5980  172.4940  143.0890 N   0  0  0  0  0  2  0  0  0  0  0  0
  187.5870  172.9340  141.9670 O   0  0  0  0  0  1  0  0  0  0  0  0
  188.9600  173.1980  141.9760 C   0  0  1  0  0  0  0  0  0  0  0  0
  189.1660  174.7020  142.1330 C   0  0  0  0  0  1  0  0  0  0  0  0
  189.5540  172.6890  140.6820 C   0  0  0  0  0  0  0  0  0  0  0  0
  190.0930  171.5920  140.6660 O   0  0  0  0  0  0  0  0  0  0  0  0
  189.5450  173.4980  139.4180 C   0  0  0  0  0  2  0  0  0  0  0  0
  188.1900  173.6310  138.9110 N   0  0  0  0  0  2  0  0  0  0  0  0
  187.3220  176.2360  135.9060 C   0  0  0  0  0  1  0  0  0  0  0  0
  187.8930  174.5270  137.8750 C   0  0  0  0  0  0  0  0  0  0  0  0
  187.6350  175.2990  136.9840 C   0  0  0  0  0  0  0  0  0  0  0  0
  191.1710  176.6630  146.0950 C   0  0  0  0  0  3  0  0  0  0  0  0
  191.7040  175.4640  146.3620 C   0  0  0  0  0  3  0  0  0  0  0  0
  190.8450  177.1120  144.7080 C   0  0  0  0  0  2  0  0  0  0  0  0
  189.4110  177.5980  144.6570 C   0  0  0  0  0  2  0  0  0  0  0  0
  188.4780  176.5610  145.2650 C   0  0  0  0  0  2  0  0  0  0  0  0
  187.1190  177.1680  145.6070 C   0  0  1  0  0  3  0  0  0  0  0  0
  185.5270  178.2820  143.9070 N   0  0  0  0  0  0  0  0  0  0  0  0
  184.9840  180.5440  144.2640 O   0  0  0  0  0  0  0  0  0  0  0  0
  185.9480  175.9880  143.9140 O   0  0  0  0  0  0  0  0  0  0  0  0
  185.7260  179.5620  144.5290 C   0  0  0  0  0  3  0  0  0  0  0  0
  186.1730  177.1110  144.4370 C   0  0  0  0  0  0  0  0  0  0  0  0
  183.8460  178.2900  140.4600 C   0  0  0  0  0  1  0  0  0  0  0  0
  184.6020  178.1170  142.8580 N   0  0  0  0  0  2  0  0  0  0  0  0
  186.1350  178.2920  141.0960 O   0  0  0  0  0  0  0  0  0  0  0  0
  184.9340  178.2520  141.4720 C   0  0  0  0  0  0  0  0  0  0  0  0
  186.5670  176.5190  146.7140 O   0  0  0  0  0  0  0  0  0  0  0  0
  186.3110  177.5370  147.6340 C   0  0  0  0  0  1  0  0  0  0  0  0
  193.2060  173.5570  145.7090 C   0  0  0  0  0  2  0  0  0  0  0  0
  194.5160  173.9810  145.0510 C   0  0  0  0  0  2  0  0  0  0  0  0
  194.2680  174.4860  143.7450 O   0  0  0  0  0  0  0  0  0  0  0  0
  194.8490  175.6670  143.2780 C   0  0  0  0  0  0  0  0  0  0  0  0
  194.2830  176.3480  142.3780 O   0  0  0  0  0  0  0  0  0  0  0  0
  197.0140  176.7890  143.1370 C   0  0  0  0  0  2  0  0  0  0  0  0
  196.1300  176.0990  143.8450 C   0  0  0  0  0  3  0  0  0  0  0  0
  1 33  1  1  0  0  0
  1 17  1  0  0  0  0
  3  1  1  0  0  0  0
  3  2  2  0  0  0  0
  4  3  1  0  0  0  0
  5  4  1  0  0  0  0
  6  7  1  0  0  0  0
  7  8  1  1  0  0  0
  7  5  1  0  0  0  0
  9  7  1  0  0  0  0
 10  9  2  0  0  0  0
 11  9  1  0  0  0  0
 12 11  1  0  0  0  0
 13 15  1  0  0  0  0
 14 12  1  0  0  0  0
 15 14  3  0  0  0  0
 16 17  2  0  0  0  0
 18 16  1  0  0  0  0
 19 18  1  0  0  0  0
 19 20  1  0  0  0  0
 21 20  1  6  0  0  0
 21 31  1  0  0  0  0
 22 26  1  0  0  0  0
 22 25  1  0  0  0  0
 23 25  2  0  0  0  0
 24 26  2  0  0  0  0
 26 21  1  0  0  0  0
 27 30  1  0  0  0  0
 28 22  1  0  0  0  0
 29 30  2  0  0  0  0
 30 28  1  0  0  0  0
 31 32  1  0  0  0  0
 34 33  1  0  0  0  0
 35 34  1  0  0  0  0
 36 35  1  0  0  0  0
 36 39  1  0  0  0  0
 37 36  2  0  0  0  0
 38 39  2  0  0  0  0
M  END
>  <MODEL>
7

>  <REMARK>
 VINA RESULT:      -5.1      2.753      7.785
  Name = 
  20 active torsions:
  status: ('A' for Active; 'I' for Inactive)
    1  A    between atoms: O_3  and  C_11
    2  A    between atoms: O_3  and  C_12
    3  A    between atoms: N_4  and  N_13
    4  A    between atoms: C_7  and  C_20
    5  A    between atoms: C_7  and  C_35
    6  A    between atoms: C_10  and  O_17
    7  A    between atoms: C_10  and  C_26
    8  A    between atoms: C_10  and  C_39
    9  A    between atoms: C_11  and  C_19
   10  A    between atoms: C_12  and  C_38
   11  A    between atoms: N_14  and  C_24
   12  A    between atoms: N_14  and  N_36
   13  A    between atoms: N_16  and  C_22
   14  A    between atoms: N_16  and  C_27
   15  A    between atoms: C_22  and  C_28
   16  A    between atoms: C_24  and  C_28
   17  A    between atoms: C_26  and  C_35
   18  A    between atoms: C_29  and  C_32
   19  A    between atoms: C_32  and  C_33
   20  A    between atoms: C_32  and  C_38
                            x       y       z     vdW  Elec       q    Type
                         _______ _______ _______ _____ _____    ______ ____

>  <TORSDO>
F 20

$$$$
=
 OpenBabel11072409163D

 39 38  0  0  1  0  0  0  0  0999 V2000
  189.9870  174.8550  145.5550 C   0  0  1  0  0  3  0  0  0  0  0  0
  188.6760  175.7290  143.7420 O   0  0  0  0  0  0  0  0  0  0  0  0
  188.9970  175.8120  144.9590 C   0  0  0  0  0  0  0  0  0  0  0  0
  188.4440  176.8380  145.7790 N   0  0  0  0  0  2  0  0  0  0  0  0
  187.5000  177.7450  145.2680 N   0  0  0  0  0  2  0  0  0  0  0  0
  185.5740  176.4100  145.3650 O   0  0  0  0  0  1  0  0  0  0  0  0
  186.2130  177.5180  145.9290 C   0  0  1  0  0  0  0  0  0  0  0  0
  186.4390  177.2470  147.4150 C   0  0  0  0  0  1  0  0  0  0  0  0
  185.3420  178.7350  145.7130 C   0  0  0  0  0  0  0  0  0  0  0  0
  184.4540  178.9820  146.5160 O   0  0  0  0  0  0  0  0  0  0  0  0
  185.4990  179.6370  144.5240 C   0  0  0  0  0  2  0  0  0  0  0  0
  184.8590  179.0540  143.3570 N   0  0  0  0  0  2  0  0  0  0  0  0
  187.0600  177.2780  140.4300 C   0  0  0  0  0  1  0  0  0  0  0  0
  185.6160  178.4440  142.3480 C   0  0  0  0  0  0  0  0  0  0  0  0
  186.2690  177.9190  141.4810 C   0  0  0  0  0  0  0  0  0  0  0  0
  191.0830  175.7200  147.6380 C   0  0  0  0  0  3  0  0  0  0  0  0
  190.1180  175.0040  147.0470 C   0  0  0  0  0  3  0  0  0  0  0  0
  192.1360  176.4480  146.8670 C   0  0  0  0  0  2  0  0  0  0  0  0
  193.3340  175.5410  146.6650 C   0  0  0  0  0  2  0  0  0  0  0  0
  193.6000  175.3390  145.1800 C   0  0  0  0  0  2  0  0  0  0  0  0
  195.0880  175.4590  144.8600 C   0  0  1  0  0  3  0  0  0  0  0  0
  195.6580  172.9940  144.3510 N   0  0  0  0  0  0  0  0  0  0  0  0
  194.3590  171.9030  142.7200 O   0  0  0  0  0  0  0  0  0  0  0  0
  196.6120  174.1600  146.1320 O   0  0  0  0  0  0  0  0  0  0  0  0
  194.7200  172.9810  143.2630 C   0  0  0  0  0  3  0  0  0  0  0  0
  195.8250  174.1790  145.1490 C   0  0  0  0  0  0  0  0  0  0  0  0
  196.7200  169.8230  146.2280 C   0  0  0  0  0  1  0  0  0  0  0  0
  196.3350  171.8220  144.7450 N   0  0  0  0  0  2  0  0  0  0  0  0
  194.6350  170.9520  146.0980 O   0  0  0  0  0  0  0  0  0  0  0  0
  195.8320  170.8960  145.7130 C   0  0  0  0  0  0  0  0  0  0  0  0
  195.2650  175.8360  143.5280 O   0  0  0  0  0  0  0  0  0  0  0  0
  196.4740  176.5340  143.5100 C   0  0  0  0  0  1  0  0  0  0  0  0
  189.6970  173.4120  145.1490 C   0  0  0  0  0  2  0  0  0  0  0  0
  190.7330  172.8550  144.1770 C   0  0  0  0  0  2  0  0  0  0  0  0
  190.2210  172.8740  142.8510 O   0  0  0  0  0  0  0  0  0  0  0  0
  190.7140  173.7410  141.8720 C   0  0  0  0  0  0  0  0  0  0  0  0
  191.7160  174.4710  142.1080 O   0  0  0  0  0  0  0  0  0  0  0  0
  188.7380  173.9990  140.4590 C   0  0  0  0  0  2  0  0  0  0  0  0
  190.0430  173.7930  140.5690 C   0  0  0  0  0  3  0  0  0  0  0  0
  1 33  1  1  0  0  0
  1 17  1  0  0  0  0
  2  3  2  0  0  0  0
  3  1  1  0  0  0  0
  3  4  1  0  0  0  0
  5  4  1  0  0  0  0
  5  7  1  0  0  0  0
  6  7  1  0  0  0  0
  7  8  1  1  0  0  0
  9  7  1  0  0  0  0
  9 10  2  0  0  0  0
 11  9  1  0  0  0  0
 12 11  1  0  0  0  0
 13 15  1  0  0  0  0
 14 12  1  0  0  0  0
 15 14  3  0  0  0  0
 17 16  2  0  0  0  0
 18 16  1  0  0  0  0
 19 18  1  0  0  0  0
 20 19  1  0  0  0  0
 21 26  1  0  0  0  0
 21 20  1  6  0  0  0
 22 28  1  0  0  0  0
 22 26  1  0  0  0  0
 23 25  2  0  0  0  0
 25 22  1  0  0  0  0
 26 24  2  0  0  0  0
 28 30  1  0  0  0  0
 30 29  2  0  0  0  0
 30 27  1  0  0  0  0
 31 21  1  0  0  0  0
 32 31  1  0  0  0  0
 34 33  1  0  0  0  0
 35 34  1  0  0  0  0
 36 37  2  0  0  0  0
 36 35  1  0  0  0  0
 38 39  2  0  0  0  0
 39 36  1  0  0  0  0
M  END
>  <MODEL>
8

>  <REMARK>
 VINA RESULT:      -5.1      1.957      3.136
  Name = 
  20 active torsions:
  status: ('A' for Active; 'I' for Inactive)
    1  A    between atoms: O_3  and  C_11
    2  A    between atoms: O_3  and  C_12
    3  A    between atoms: N_4  and  N_13
    4  A    between atoms: C_7  and  C_20
    5  A    between atoms: C_7  and  C_35
    6  A    between atoms: C_10  and  O_17
    7  A    between atoms: C_10  and  C_26
    8  A    between atoms: C_10  and  C_39
    9  A    between atoms: C_11  and  C_19
   10  A    between atoms: C_12  and  C_38
   11  A    between atoms: N_14  and  C_24
   12  A    between atoms: N_14  and  N_36
   13  A    between atoms: N_16  and  C_22
   14  A    between atoms: N_16  and  C_27
   15  A    between atoms: C_22  and  C_28
   16  A    between atoms: C_24  and  C_28
   17  A    between atoms: C_26  and  C_35
   18  A    between atoms: C_29  and  C_32
   19  A    between atoms: C_32  and  C_33
   20  A    between atoms: C_32  and  C_38
                            x       y       z     vdW  Elec       q    Type
                         _______ _______ _______ _____ _____    ______ ____

>  <TORSDO>
F 20

$$$$
=
 OpenBabel11072409163D

 39 38  0  0  1  0  0  0  0  0999 V2000
  190.5770  173.6790  144.9550 C   0  0  1  0  0  3  0  0  0  0  0  0
  191.8210  171.7460  144.2600 O   0  0  0  0  0  0  0  0  0  0  0  0
  191.8190  172.8430  144.8850 C   0  0  0  0  0  0  0  0  0  0  0  0
  192.9940  173.2870  145.5590 N   0  0  0  0  0  2  0  0  0  0  0  0
  194.1860  172.5450  145.5050 N   0  0  0  0  0  2  0  0  0  0  0  0
  195.2440  173.5270  143.6560 O   0  0  0  0  0  1  0  0  0  0  0  0
  195.2710  173.4160  145.0500 C   0  0  1  0  0  0  0  0  0  0  0  0
  195.1000  174.8080  145.6530 C   0  0  0  0  0  1  0  0  0  0  0  0
  196.5880  172.7940  145.4550 C   0  0  0  0  0  0  0  0  0  0  0  0
  197.1880  173.2450  146.4200 O   0  0  0  0  0  0  0  0  0  0  0  0
  197.2120  171.6620  144.6920 C   0  0  0  0  0  2  0  0  0  0  0  0
  197.5510  170.5700  145.5890 N   0  0  0  0  0  2  0  0  0  0  0  0
  194.6610  168.5500  147.6220 C   0  0  0  0  0  1  0  0  0  0  0  0
  196.5540  169.8760  146.2890 C   0  0  0  0  0  0  0  0  0  0  0  0
  195.6980  169.2770  146.8900 C   0  0  0  0  0  0  0  0  0  0  0  0
  190.2120  175.6430  146.4710 C   0  0  0  0  0  3  0  0  0  0  0  0
  190.8420  175.0820  145.4320 C   0  0  0  0  0  3  0  0  0  0  0  0
  189.1710  174.9260  147.2680 C   0  0  0  0  0  2  0  0  0  0  0  0
  187.8560  175.6720  147.1700 C   0  0  0  0  0  2  0  0  0  0  0  0
  187.8180  176.5150  145.9040 C   0  0  0  0  0  2  0  0  0  0  0  0
  186.4440  177.1490  145.6980 C   0  0  1  0  0  3  0  0  0  0  0  0
  185.8650  178.5240  143.5910 N   0  0  0  0  0  0  0  0  0  0  0  0
  185.4570  180.8230  143.8850 O   0  0  0  0  0  0  0  0  0  0  0  0
  186.0040  176.1960  143.5710 O   0  0  0  0  0  0  0  0  0  0  0  0
  185.9060  179.7430  144.3510 C   0  0  0  0  0  3  0  0  0  0  0  0
  186.0960  177.2600  144.2370 C   0  0  0  0  0  0  0  0  0  0  0  0
  183.8590  178.0840  140.3530 C   0  0  0  0  0  1  0  0  0  0  0  0
  185.4710  178.5210  142.2380 N   0  0  0  0  0  2  0  0  0  0  0  0
  183.1680  178.3310  142.6110 O   0  0  0  0  0  0  0  0  0  0  0  0
  184.1280  178.3000  141.7980 C   0  0  0  0  0  0  0  0  0  0  0  0
  185.4700  176.4170  146.3790 O   0  0  0  0  0  0  0  0  0  0  0  0
  184.5830  177.3750  146.8740 C   0  0  0  0  0  1  0  0  0  0  0  0
  189.8030  173.6600  143.6380 C   0  0  0  0  0  2  0  0  0  0  0  0
  190.6540  174.0980  142.4500 C   0  0  0  0  0  2  0  0  0  0  0  0
  190.5920  175.5100  142.2960 O   0  0  0  0  0  0  0  0  0  0  0  0
  189.3940  176.1820  142.0440 C   0  0  0  0  0  0  0  0  0  0  0  0
  188.4250  175.5850  141.4980 O   0  0  0  0  0  0  0  0  0  0  0  0
  189.8240  178.0710  143.5320 C   0  0  0  0  0  2  0  0  0  0  0  0
  189.2820  177.5950  142.4190 C   0  0  0  0  0  3  0  0  0  0  0  0
  1 33  1  6  0  0  0
  1 17  1  0  0  0  0
  2  3  2  0  0  0  0
  3  1  1  0  0  0  0
  3  4  1  0  0  0  0
  5  4  1  0  0  0  0
  6  7  1  0  0  0  0
  7  9  1  0  0  0  0
  7  5  1  0  0  0  0
  7  8  1  1  0  0  0
  9 10  2  0  0  0  0
 11  9  1  0  0  0  0
 11 12  1  0  0  0  0
 12 14  1  0  0  0  0
 14 15  3  0  0  0  0
 15 13  1  0  0  0  0
 16 18  1  0  0  0  0
 17 16  2  0  0  0  0
 19 18  1  0  0  0  0
 20 19  1  0  0  0  0
 21 20  1  6  0  0  0
 21 31  1  0  0  0  0
 22 26  1  0  0  0  0
 22 25  1  0  0  0  0
 23 25  2  0  0  0  0
 24 26  2  0  0  0  0
 26 21  1  0  0  0  0
 27 30  1  0  0  0  0
 28 22  1  0  0  0  0
 30 28  1  0  0  0  0
 30 29  2  0  0  0  0
 31 32  1  0  0  0  0
 34 33  1  0  0  0  0
 35 34  1  0  0  0  0
 36 35  1  0  0  0  0
 36 39  1  0  0  0  0
 37 36  2  0  0  0  0
 39 38  2  0  0  0  0
M  END
>  <MODEL>
9

>  <REMARK>
 VINA RESULT:      -5.1      2.521      9.335
  Name = 
  20 active torsions:
  status: ('A' for Active; 'I' for Inactive)
    1  A    between atoms: O_3  and  C_11
    2  A    between atoms: O_3  and  C_12
    3  A    between atoms: N_4  and  N_13
    4  A    between atoms: C_7  and  C_20
    5  A    between atoms: C_7  and  C_35
    6  A    between atoms: C_10  and  O_17
    7  A    between atoms: C_10  and  C_26
    8  A    between atoms: C_10  and  C_39
    9  A    between atoms: C_11  and  C_19
   10  A    between atoms: C_12  and  C_38
   11  A    between atoms: N_14  and  C_24
   12  A    between atoms: N_14  and  N_36
   13  A    between atoms: N_16  and  C_22
   14  A    between atoms: N_16  and  C_27
   15  A    between atoms: C_22  and  C_28
   16  A    between atoms: C_24  and  C_28
   17  A    between atoms: C_26  and  C_35
   18  A    between atoms: C_29  and  C_32
   19  A    between atoms: C_32  and  C_33
   20  A    between atoms: C_32  and  C_38
                            x       y       z     vdW  Elec       q    Type
                         _______ _______ _______ _____ _____    ______ ____

>  <TORSDO>
F 20

$$$$
