=
 OpenBabel11062423033D

 62 66  0  0  1  0  0  0  0  0999 V2000
  191.7010  171.7080  136.7810 O   0  0  0  0  0  0  0  0  0  0  0  0
  191.3980  171.6090  141.1050 C   0  0  1  0  0  3  0  0  0  0  0  0
  188.5690  171.4650  141.1120 C   0  0  0  0  0  2  0  0  0  0  0  0
  193.2850  176.5790  142.6390 O   0  0  0  0  0  1  0  0  0  0  0  0
  190.7060  173.8480  137.2600 C   0  0  0  0  0  2  0  0  0  0  0  0
  197.9410  174.7560  134.8110 O   0  0  0  0  0  1  0  0  0  0  0  0
  194.8570  175.7340  146.6920 O   0  0  0  0  0  1  0  0  0  0  0  0
  191.8800  173.0400  144.6690 C   0  0  1  0  0  3  0  0  0  0  0  0
  195.2740  175.9280  144.4050 C   0  0  0  0  0  2  0  0  0  0  0  0
  189.6750  173.6120  138.3320 C   0  0  0  0  0  3  0  0  0  0  0  0
  194.5940  175.0650  145.4970 C   0  0  2  0  0  0  0  0  0  0  0  0
  192.4460  171.2490  135.6820 C   0  0  0  0  0  2  0  0  0  0  0  0
  189.8860  172.9330  139.4660 C   0  0  0  0  0  0  0  0  0  0  0  0
  193.5990  172.1920  135.3550 C   0  0  0  0  0  2  0  0  0  0  0  0
  193.1260  174.9220  145.3170 N   0  0  0  0  0  0  0  0  0  0  0  0
  190.3460  169.8400  142.3980 F   0  0  0  0  0  0  0  0  0  0  0  0
  188.7030  172.8170  140.4010 C   0  0  0  0  0  2  0  0  0  0  0  0
  196.6560  172.9970  138.6320 C   0  0  0  0  0  0  0  0  0  0  0  0
  191.2650  169.3540  140.4220 F   0  0  0  0  0  0  0  0  0  0  0  0
  196.7440  172.5130  139.7920 O   0  0  0  0  0  0  0  0  0  0  0  0
  194.6090  172.2300  136.4870 C   0  0  0  0  0  2  0  0  0  0  0  0
  194.9460  173.6810  136.8330 C   0  0  1  0  0  3  0  0  0  0  0  0
  195.7320  176.7670  141.7170 O   0  0  0  0  0  0  0  0  0  0  0  0
  194.2700  173.4890  139.1890 C   0  0  0  0  0  1  0  0  0  0  0  0
  197.7390  172.9690  136.3580 C   0  0  0  0  0  2  0  0  0  0  0  0
  197.7490  172.8080  137.7710 O   0  0  0  0  0  0  0  0  0  0  0  0
  195.4420  173.8620  138.2880 C   0  0  1  0  0  0  0  0  0  0  0  0
  195.7630  175.3400  138.5520 C   0  0  0  0  0  2  0  0  0  0  0  0
  190.5440  170.3120  141.1070 C   0  0  0  0  0  0  0  0  0  0  0  0
  190.8260  172.6800  136.2770 C   0  0  2  0  0  3  0  0  0  0  0  0
  195.3170  175.6650  135.5290 O   0  0  0  0  0  1  0  0  0  0  0  0
  191.8550  171.9920  143.5620 C   0  0  0  0  0  2  0  0  0  0  0  0
  192.6280  174.2050  144.2110 N   0  0  0  0  0  2  0  0  0  0  0  0
  189.2990  170.4660  140.4470 O   0  0  0  0  0  0  0  0  0  0  0  0
  196.2240  175.5430  139.8550 O   0  0  0  0  0  0  0  0  0  0  0  0
  195.7710  174.3580  135.7250 C   0  0  1  0  0  3  0  0  0  0  0  0
  197.2770  174.3610  135.9720 C   0  0  2  0  0  3  0  0  0  0  0  0
  190.5730  173.4100  144.9940 O   0  0  0  0  0  1  0  0  0  0  0  0
  194.5000  174.3160  142.1080 O   0  0  0  0  0  0  0  0  0  0  0  0
  194.6370  175.9030  142.6870 P   0  0  2  0  0  0  0  0  0  0  0  0
  191.2670  172.3910  139.7910 C   0  0  0  0  0  2  0  0  0  0  0  0
  195.3650  176.5010  140.3960 C   0  0  0  0  0  2  0  0  0  0  0  0
  191.1890  172.5330  142.3040 C   0  0  0  0  0  2  0  0  0  0  0  0
  191.2630  177.1270  149.1400 C   0  0  0  0  0  1  0  0  0  0  0  0
  192.1390  175.6170  147.4210 C   0  0  0  0  0  3  0  0  0  0  0  0
  191.3640  176.7510  147.8730 C   0  0  0  0  0  0  0  0  0  0  0  0
  192.1900  175.7000  146.0940 C   0  0  0  0  0  0  0  0  0  0  0  0
  190.4400  176.6510  144.7600 O   0  0  0  0  0  1  0  0  0  0  0  0
  191.5200  176.9560  145.5870 C   0  0  1  0  0  3  0  0  0  0  0  0
  191.0230  177.6010  146.7920 N   0  0  0  0  0  0  0  0  0  0  0  0
  196.9410  172.2670  144.7880 C   0  0  0  0  0  0  0  0  0  0  0  0
  197.9410  172.2240  143.8160 O   0  0  0  0  0  1  0  0  0  0  0  0
  195.5810  171.9760  144.1860 C   0  0  2  0  0  3  0  0  0  0  0  0
  194.6050  172.6960  144.8950 O   0  0  0  0  0  0  0  0  0  0  0  0
  196.7670  173.6520  145.3100 C   0  0  0  0  0  2  0  0  0  0  0  0
  195.2860  173.6940  145.6270 C   0  0  1  0  0  3  0  0  0  0  0  0
  197.2510  171.3980  145.8420 O   0  0  0  0  0  1  0  0  0  0  0  0
  195.2430  170.5170  144.1490 C   0  0  0  0  0  3  0  0  0  0  0  0
  194.3200  170.0460  144.9020 N   0  0  0  0  0  2  0  0  0  0  0  0
  188.9440  171.9740  134.5750 C   0  0  0  0  0  1  0  0  0  0  0  0
  189.4390  172.0570  135.9570 N   0  0  0  0  0  2  0  0  0  0  0  0
  188.7640  171.7530  135.8000 O   0  0  0  0  0  0  0  0  0  0  0  0
  2 41  1  6  0  0  0
  2 29  1  0  0  0  0
  2 43  1  0  0  0  0
  4 40  1  0  0  0  0
  5 10  1  0  0  0  0
  8 38  1  6  0  0  0
  9 11  1  0  0  0  0
 10 13  2  0  0  0  0
 11 56  1  0  0  0  0
 11  7  1  1  0  0  0
 12  1  1  0  0  0  0
 13 41  1  0  0  0  0
 13 17  1  0  0  0  0
 14 12  1  0  0  0  0
 14 21  1  0  0  0  0
 15 11  1  0  0  0  0
 15 47  1  0  0  0  0
 17  3  1  0  0  0  0
 18 20  2  0  0  0  0
 19 29  1  0  0  0  0
 22 21  1  6  0  0  0
 22 27  1  0  0  0  0
 23 40  1  0  0  0  0
 25 26  1  0  0  0  0
 26 18  1  0  0  0  0
 27 28  1  0  0  0  0
 27 18  1  0  0  0  0
 27 24  1  1  0  0  0
 28 35  1  0  0  0  0
 29 16  1  0  0  0  0
 30 61  1  1  0  0  0
 30  1  1  0  0  0  0
 30  5  1  0  0  0  0
 32  8  1  0  0  0  0
 33  8  1  0  0  0  0
 33 15  1  0  0  0  0
 34 29  1  0  0  0  0
 34  3  1  0  0  0  0
 35 42  1  0  0  0  0
 36 31  1  1  0  0  0
 36 37  1  0  0  0  0
 36 22  1  0  0  0  0
 37  6  1  6  0  0  0
 37 25  1  0  0  0  0
 40 39  2  6  0  0  0
 40  9  1  0  0  0  0
 42 23  1  0  0  0  0
 43 32  1  0  0  0  0
 45 46  1  0  0  0  0
 46 44  1  0  0  0  0
 47 45  2  0  0  0  0
 49 48  1  6  0  0  0
 49 47  1  0  0  0  0
 49 50  1  0  0  0  0
 50 46  2  0  0  0  0
 51 55  1  0  0  0  0
 51 57  1  0  0  0  0
 52 51  1  0  0  0  0
 53 58  1  1  0  0  0
 53 51  1  0  0  0  0
 53 54  1  0  0  0  0
 54 56  1  0  0  0  0
 56 55  1  6  0  0  0
 58 59  2  0  0  0  0
 60 62  1  0  0  0  0
 62 61  1  0  0  0  0
M  END
>  <MODEL>
1

>  <REMARK>
 VINA RESULT:      -5.2      0.000      0.000
  Name = 
  4 active torsions:
  status: ('A' for Active; 'I' for Inactive)
    1  A    between atoms: C_14  and  C_15
    2  A    between atoms: C_19  and  C_44
    3  A    between atoms: N_23  and  C_24
    4  A    between atoms: N_38  and  C_48
                            x       y       z     vdW  Elec       q    Type
                         _______ _______ _______ _____ _____    ______ ____

>  <TORSDO>
F 4

$$$$
=
 OpenBabel11062423033D

 62 66  0  0  1  0  0  0  0  0999 V2000
  194.8900  172.3630  138.4340 O   0  0  0  0  0  0  0  0  0  0  0  0
  193.9570  175.6520  141.1000 C   0  0  1  0  0  3  0  0  0  0  0  0
  196.6540  176.0780  141.8560 C   0  0  0  0  0  2  0  0  0  0  0  0
  190.9720  173.2590  145.0980 O   0  0  0  0  0  1  0  0  0  0  0  0
  195.3670  171.4060  140.5920 C   0  0  0  0  0  2  0  0  0  0  0  0
  189.0810  168.1660  137.5640 O   0  0  0  0  0  1  0  0  0  0  0  0
  188.4580  176.6300  146.4850 O   0  0  0  0  0  1  0  0  0  0  0  0
  192.2650  177.2730  144.1820 C   0  0  1  0  0  3  0  0  0  0  0  0
  188.6860  174.7670  145.1010 C   0  0  0  0  0  2  0  0  0  0  0  0
  196.0710  172.4720  141.3880 C   0  0  0  0  0  3  0  0  0  0  0  0
  189.1510  176.2240  145.3450 C   0  0  2  0  0  0  0  0  0  0  0  0
  194.5680  171.7740  137.2000 C   0  0  0  0  0  2  0  0  0  0  0  0
  195.6520  173.7370  141.5220 C   0  0  0  0  0  0  0  0  0  0  0  0
  193.4270  170.7720  137.3400 C   0  0  0  0  0  2  0  0  0  0  0  0
  190.6130  176.3550  145.5750 N   0  0  0  0  0  0  0  0  0  0  0  0
  194.8540  177.9050  140.9180 F   0  0  0  0  0  0  0  0  0  0  0  0
  196.5230  174.6380  142.3680 C   0  0  0  0  0  2  0  0  0  0  0  0
  189.4760  172.3020  139.0070 C   0  0  0  0  0  0  0  0  0  0  0  0
  194.6230  176.6650  139.0760 F   0  0  0  0  0  0  0  0  0  0  0  0
  189.1360  173.4700  139.3370 O   0  0  0  0  0  0  0  0  0  0  0  0
  192.1420  171.4660  137.7540 C   0  0  0  0  0  2  0  0  0  0  0  0
  191.5020  170.7170  138.9240 C   0  0  1  0  0  3  0  0  0  0  0  0
  188.8920  172.1740  143.9300 O   0  0  0  0  0  0  0  0  0  0  0  0
  191.4990  172.6600  140.4310 C   0  0  0  0  0  1  0  0  0  0  0  0
  189.1050  170.5190  137.2670 C   0  0  0  0  0  2  0  0  0  0  0  0
  188.7170  171.6680  138.0110 O   0  0  0  0  0  0  0  0  0  0  0  0
  190.5900  171.6120  139.7960 C   0  0  1  0  0  0  0  0  0  0  0  0
  189.9850  170.7860  140.9400 C   0  0  0  0  0  2  0  0  0  0  0  0
  194.9630  176.6150  140.4130 C   0  0  0  0  0  0  0  0  0  0  0  0
  195.7120  171.4450  139.1010 C   0  0  2  0  0  3  0  0  0  0  0  0
  191.2200  168.3920  139.4620 O   0  0  0  0  0  1  0  0  0  0  0  0
  192.7640  177.1570  142.7460 C   0  0  0  0  0  2  0  0  0  0  0  0
  191.5090  176.0740  144.5250 N   0  0  0  0  0  2  0  0  0  0  0  0
  196.3050  176.1690  140.4990 O   0  0  0  0  0  0  0  0  0  0  0  0
  189.1450  171.5590  141.7470 O   0  0  0  0  0  0  0  0  0  0  0  0
  190.9340  169.3540  138.4900 C   0  0  1  0  0  3  0  0  0  0  0  0
  189.4390  169.3610  138.1870 C   0  0  2  0  0  3  0  0  0  0  0  0
  193.3520  177.4170  145.0470 O   0  0  0  0  0  1  0  0  0  0  0  0
  190.3210  174.2340  142.7520 O   0  0  0  0  0  0  0  0  0  0  0  0
  189.7840  173.5890  144.2230 P   0  0  2  0  0  0  0  0  0  0  0  0
  194.3360  174.1770  140.9070 C   0  0  0  0  0  2  0  0  0  0  0  0
  189.6570  171.4180  143.0370 C   0  0  0  0  0  2  0  0  0  0  0  0
  193.6710  175.9450  142.5730 C   0  0  0  0  0  2  0  0  0  0  0  0
  191.2370  178.2490  149.9310 C   0  0  0  0  0  1  0  0  0  0  0  0
  191.0870  177.6760  147.5530 C   0  0  0  0  0  3  0  0  0  0  0  0
  191.4010  177.3890  148.9360 C   0  0  0  0  0  0  0  0  0  0  0  0
  191.1570  176.5180  146.9030 C   0  0  0  0  0  0  0  0  0  0  0  0
  192.6410  174.7400  147.5220 O   0  0  0  0  0  1  0  0  0  0  0  0
  191.4370  175.3660  147.8400 C   0  0  1  0  0  3  0  0  0  0  0  0
  191.5650  175.9980  149.1440 N   0  0  0  0  0  0  0  0  0  0  0  0
  186.8180  178.0650  143.1050 C   0  0  0  0  0  0  0  0  0  0  0  0
  185.4240  178.0660  143.1500 O   0  0  0  0  0  1  0  0  0  0  0  0
  187.3420  176.8230  142.4110 C   0  0  2  0  0  3  0  0  0  0  0  0
  188.5760  176.4680  142.9820 O   0  0  0  0  0  0  0  0  0  0  0  0
  187.3920  177.9290  144.4740 C   0  0  0  0  0  2  0  0  0  0  0  0
  188.6680  177.1540  144.2140 C   0  0  1  0  0  3  0  0  0  0  0  0
  187.2860  179.2420  142.5090 O   0  0  0  0  0  1  0  0  0  0  0  0
  187.4660  176.9740  140.9270 C   0  0  0  0  0  3  0  0  0  0  0  0
  186.4240  176.9440  140.1830 N   0  0  0  0  0  2  0  0  0  0  0  0
  197.9190  171.3140  137.6690 C   0  0  0  0  0  1  0  0  0  0  0  0
  197.2110  171.7830  138.8700 N   0  0  0  0  0  2  0  0  0  0  0  0
  197.9410  171.9470  138.7560 O   0  0  0  0  0  0  0  0  0  0  0  0
  1 30  1  0  0  0  0
  2 41  1  1  0  0  0
  2 43  1  0  0  0  0
  3 17  1  0  0  0  0
  5 10  1  0  0  0  0
  8 33  1  0  0  0  0
  8 38  1  1  0  0  0
  9 11  1  0  0  0  0
 10 13  2  0  0  0  0
 11 15  1  0  0  0  0
 11  7  1  1  0  0  0
 12 14  1  0  0  0  0
 12  1  1  0  0  0  0
 13 17  1  0  0  0  0
 14 21  1  0  0  0  0
 15 47  1  0  0  0  0
 18 20  2  0  0  0  0
 18 27  1  0  0  0  0
 19 29  1  0  0  0  0
 22 21  1  6  0  0  0
 22 27  1  0  0  0  0
 23 40  1  0  0  0  0
 25 26  1  0  0  0  0
 25 37  1  0  0  0  0
 26 18  1  0  0  0  0
 27 24  1  1  0  0  0
 27 28  1  0  0  0  0
 28 35  1  0  0  0  0
 29 34  1  0  0  0  0
 29 16  1  0  0  0  0
 29  2  1  0  0  0  0
 30 61  1  1  0  0  0
 30  5  1  0  0  0  0
 32  8  1  0  0  0  0
 33 15  1  0  0  0  0
 34  3  1  0  0  0  0
 35 42  1  0  0  0  0
 36 22  1  0  0  0  0
 36 31  1  1  0  0  0
 37  6  1  6  0  0  0
 37 36  1  0  0  0  0
 40 39  2  6  0  0  0
 40  4  1  0  0  0  0
 40  9  1  0  0  0  0
 41 13  1  0  0  0  0
 42 23  1  0  0  0  0
 43 32  1  0  0  0  0
 45 46  1  0  0  0  0
 46 50  2  0  0  0  0
 46 44  1  0  0  0  0
 47 45  2  0  0  0  0
 47 49  1  0  0  0  0
 49 48  1  6  0  0  0
 49 50  1  0  0  0  0
 51 52  1  0  0  0  0
 51 55  1  0  0  0  0
 53 58  1  6  0  0  0
 53 54  1  0  0  0  0
 53 51  1  0  0  0  0
 54 56  1  0  0  0  0
 56 55  1  1  0  0  0
 56 11  1  0  0  0  0
 57 51  1  0  0  0  0
 59 58  2  0  0  0  0
 60 62  1  0  0  0  0
 62 61  1  0  0  0  0
M  END
>  <MODEL>
2

>  <REMARK>
 VINA RESULT:      -3.2      3.300      7.298
  Name = 
  4 active torsions:
  status: ('A' for Active; 'I' for Inactive)
    1  A    between atoms: C_14  and  C_15
    2  A    between atoms: C_19  and  C_44
    3  A    between atoms: N_23  and  C_24
    4  A    between atoms: N_38  and  C_48
                            x       y       z     vdW  Elec       q    Type
                         _______ _______ _______ _____ _____    ______ ____

>  <TORSDO>
F 4

$$$$
