=
 OpenBabel11072409393D

 25 30  0  0  1  0  0  0  0  0999 V2000
  186.2600  178.4120  145.4180 C   0  0  0  0  0  0  0  0  0  0  0  0
  187.0580  177.3930  145.2010 N   0  0  0  0  0  0  0  0  0  0  0  0
  188.1560  176.3970  143.1670 C   0  0  0  0  0  2  0  0  0  0  0  0
  186.5450  178.7670  141.9130 C   0  0  0  0  0  3  0  0  0  0  0  0
  184.2200  178.2120  146.7620 C   0  0  0  0  0  1  0  0  0  0  0  0
  187.1990  176.5100  146.3300 C   0  0  2  0  0  3  0  0  0  0  0  0
  185.9150  179.0940  144.3030 N   0  0  0  0  0  0  0  0  0  0  0  0
  186.6920  177.9190  140.9340 N   0  0  0  0  0  0  0  0  0  0  0  0
  186.4320  177.2570  147.4490 C   0  0  0  0  0  2  0  0  0  0  0  0
  186.5790  178.4080  143.3350 C   0  0  0  0  0  0  0  0  0  0  0  0
  185.7160  178.4690  146.7910 C   0  0  1  0  0  3  0  0  0  0  0  0
  187.2590  177.3400  143.8820 C   0  0  0  0  0  0  0  0  0  0  0  0
  186.8780  176.4900  140.9930 C   0  0  0  0  0  3  0  0  0  0  0  0
  187.4770  175.8060  141.9750 C   0  0  0  0  0  3  0  0  0  0  0  0
  191.5070  176.1540  146.1700 C   0  0  2  0  0  0  0  0  0  0  0  0
  189.4140  177.3140  147.0890 C   0  0  0  0  0  3  0  0  0  0  0  0
  189.3170  175.1320  146.6220 O   0  0  0  0  0  0  0  0  0  0  0  0
  193.4950  176.7360  144.9680 C   0  0  0  0  0  2  0  0  0  0  0  0
  188.6360  176.3320  146.6880 C   0  0  0  0  0  0  0  0  0  0  0  0
  193.0140  176.2000  146.3080 C   0  0  2  0  0  3  0  0  0  0  0  0
  193.5980  174.8120  146.5170 C   0  0  0  0  0  1  0  0  0  0  0  0
  191.0600  176.5820  144.7880 C   0  0  0  0  0  2  0  0  0  0  0  0
  190.7940  176.7850  147.3710 C   0  0  1  0  0  3  0  0  0  0  0  0
  192.2790  177.2900  144.2280 C   0  0  0  0  0  2  0  0  0  0  0  0
  190.6560  175.2750  147.0860 C   0  0  2  0  0  3  0  0  0  0  0  0
  1 11  1  0  0  0  0
  2  1  1  0  0  0  0
  2  6  1  0  0  0  0
  3 12  1  0  0  0  0
  4 10  1  0  0  0  0
  6 19  1  1  0  0  0
  6  9  1  0  0  0  0
  7  1  2  0  0  0  0
  8 13  1  0  0  0  0
  8  4  2  0  0  0  0
 10 12  2  0  0  0  0
 10  7  1  0  0  0  0
 11  5  1  6  0  0  0
 11  9  1  0  0  0  0
 12  2  1  0  0  0  0
 13 14  2  0  0  0  0
 14  3  1  0  0  0  0
 15 22  1  6  0  0  0
 15 20  1  0  0  0  0
 15 25  1  0  0  0  0
 15 23  1  0  0  0  0
 17 19  1  0  0  0  0
 18 20  1  0  0  0  0
 19 16  2  0  0  0  0
 20 21  1  6  0  0  0
 23 16  1  6  0  0  0
 24 22  1  0  0  0  0
 24 18  1  0  0  0  0
 25 17  1  6  0  0  0
 25 23  1  0  0  0  0
M  END
>  <MODEL>
1

>  <REMARK>
 VINA RESULT:      -8.4      0.000      0.000
  Name = 
  1 active torsions:
  status: ('A' for Active; 'I' for Inactive)
    1  A    between atoms: C_10  and  C_12
                            x       y       z     vdW  Elec       q    Type
                         _______ _______ _______ _____ _____    ______ ____

>  <TORSDO>
F 1

$$$$
=
 OpenBabel11072409393D

 25 30  0  0  1  0  0  0  0  0999 V2000
  191.3850  174.2230  142.9240 C   0  0  0  0  0  0  0  0  0  0  0  0
  191.0980  174.9450  143.9820 N   0  0  0  0  0  0  0  0  0  0  0  0
  192.4310  176.3450  145.5940 C   0  0  0  0  0  2  0  0  0  0  0  0
  194.6710  175.2790  143.6890 C   0  0  0  0  0  3  0  0  0  0  0  0
  190.5550  171.9360  142.6370 C   0  0  0  0  0  1  0  0  0  0  0  0
  189.7580  174.7550  144.4720 C   0  0  2  0  0  3  0  0  0  0  0  0
  192.7010  174.1920  142.6150 N   0  0  0  0  0  0  0  0  0  0  0  0
  195.2910  175.5450  144.8040 N   0  0  0  0  0  0  0  0  0  0  0  0
  189.1210  173.8460  143.3920 C   0  0  0  0  0  2  0  0  0  0  0  0
  193.2400  174.9740  143.5870 C   0  0  0  0  0  0  0  0  0  0  0  0
  190.2570  173.4090  142.4260 C   0  0  1  0  0  3  0  0  0  0  0  0
  192.2580  175.4140  144.4500 C   0  0  0  0  0  0  0  0  0  0  0  0
  194.7690  175.5720  146.1480 C   0  0  0  0  0  3  0  0  0  0  0  0
  193.5170  175.8790  146.5090 C   0  0  0  0  0  3  0  0  0  0  0  0
  186.7340  177.8010  145.0100 C   0  0  2  0  0  0  0  0  0  0  0  0
  188.9940  176.7850  145.6660 C   0  0  0  0  0  3  0  0  0  0  0  0
  188.3270  176.6400  143.5400 O   0  0  0  0  0  0  0  0  0  0  0  0
  184.6490  178.3550  146.0500 C   0  0  0  0  0  2  0  0  0  0  0  0
  189.0390  176.0590  144.5710 C   0  0  0  0  0  0  0  0  0  0  0  0
  185.8480  178.9810  145.3530 C   0  0  2  0  0  3  0  0  0  0  0  0
  185.3670  179.7010  144.1040 C   0  0  0  0  0  1  0  0  0  0  0  0
  186.0970  176.4890  145.4140 C   0  0  0  0  0  2  0  0  0  0  0  0
  188.1940  178.0340  145.4150 C   0  0  1  0  0  3  0  0  0  0  0  0
  185.0110  176.9100  146.3860 C   0  0  0  0  0  2  0  0  0  0  0  0
  187.8060  177.9080  143.9260 C   0  0  2  0  0  3  0  0  0  0  0  0
  1  2  1  0  0  0  0
  2 12  1  0  0  0  0
  2  6  1  0  0  0  0
  3 14  1  0  0  0  0
  4  8  2  0  0  0  0
  6 19  1  6  0  0  0
  7  1  2  0  0  0  0
  7 10  1  0  0  0  0
  8 13  1  0  0  0  0
  9  6  1  0  0  0  0
 10  4  1  0  0  0  0
 10 12  2  0  0  0  0
 11  5  1  1  0  0  0
 11  1  1  0  0  0  0
 11  9  1  0  0  0  0
 12  3  1  0  0  0  0
 13 14  2  0  0  0  0
 15 20  1  0  0  0  0
 15 22  1  1  0  0  0
 15 23  1  0  0  0  0
 17 19  1  0  0  0  0
 18 24  1  0  0  0  0
 19 16  2  0  0  0  0
 20 21  1  6  0  0  0
 20 18  1  0  0  0  0
 22 24  1  0  0  0  0
 23 16  1  1  0  0  0
 25 17  1  1  0  0  0
 25 15  1  0  0  0  0
 25 23  1  0  0  0  0
M  END
>  <MODEL>
2

>  <REMARK>
 VINA RESULT:      -7.7      3.177      6.914
  Name = 
  1 active torsions:
  status: ('A' for Active; 'I' for Inactive)
    1  A    between atoms: C_10  and  C_12
                            x       y       z     vdW  Elec       q    Type
                         _______ _______ _______ _____ _____    ______ ____

>  <TORSDO>
F 1

$$$$
=
 OpenBabel11072409393D

 25 30  0  0  1  0  0  0  0  0999 V2000
  190.9860  175.2810  142.4410 C   0  0  0  0  0  0  0  0  0  0  0  0
  190.2980  175.5770  143.5200 N   0  0  0  0  0  0  0  0  0  0  0  0
  190.8560  176.5520  145.7720 C   0  0  0  0  0  2  0  0  0  0  0  0
  193.6700  176.4720  144.4090 C   0  0  0  0  0  3  0  0  0  0  0  0
  190.7760  173.1170  141.3110 C   0  0  0  0  0  1  0  0  0  0  0  0
  188.9540  175.0600  143.5160 C   0  0  2  0  0  3  0  0  0  0  0  0
  192.3100  175.5300  142.5430 N   0  0  0  0  0  0  0  0  0  0  0  0
  193.9260  176.4470  145.6870 N   0  0  0  0  0  0  0  0  0  0  0  0
  188.8160  174.4680  142.0910 C   0  0  0  0  0  2  0  0  0  0  0  0
  192.4100  176.0240  143.8060 C   0  0  0  0  0  0  0  0  0  0  0  0
  190.2210  174.5250  141.4290 C   0  0  1  0  0  3  0  0  0  0  0  0
  191.1760  176.0250  144.4210 C   0  0  0  0  0  0  0  0  0  0  0  0
  193.1000  175.9690  146.7680 C   0  0  0  0  0  3  0  0  0  0  0  0
  191.7620  175.9700  146.8070 C   0  0  0  0  0  3  0  0  0  0  0  0
  186.2440  177.8950  145.3390 C   0  0  2  0  0  0  0  0  0  0  0  0
  188.2940  177.4180  143.8760 C   0  0  0  0  0  3  0  0  0  0  0  0
  186.6010  175.9610  143.8640 O   0  0  0  0  0  0  0  0  0  0  0  0
  185.7060  179.1190  147.3270 C   0  0  0  0  0  2  0  0  0  0  0  0
  187.9640  176.1520  143.7440 C   0  0  0  0  0  0  0  0  0  0  0  0
  185.4160  179.0630  145.8340 C   0  0  2  0  0  3  0  0  0  0  0  0
  183.9300  178.8200  145.6340 C   0  0  0  0  0  1  0  0  0  0  0  0
  186.9720  177.2070  146.4750 C   0  0  0  0  0  2  0  0  0  0  0  0
  187.0540  178.2450  144.0880 C   0  0  1  0  0  3  0  0  0  0  0  0
  186.9150  178.2260  147.5970 C   0  0  0  0  0  2  0  0  0  0  0  0
  185.9200  177.2020  144.0160 C   0  0  2  0  0  3  0  0  0  0  0  0
  1  7  2  0  0  0  0
  1  2  1  0  0  0  0
  2 12  1  0  0  0  0
  3 14  1  0  0  0  0
  4  8  2  0  0  0  0
  6  2  1  0  0  0  0
  6 19  1  6  0  0  0
  7 10  1  0  0  0  0
  8 13  1  0  0  0  0
  9  6  1  0  0  0  0
 10  4  1  0  0  0  0
 10 12  2  0  0  0  0
 11  5  1  1  0  0  0
 11  9  1  0  0  0  0
 11  1  1  0  0  0  0
 12  3  1  0  0  0  0
 13 14  2  0  0  0  0
 15 20  1  0  0  0  0
 15 22  1  1  0  0  0
 18 24  1  0  0  0  0
 19 17  1  0  0  0  0
 19 16  2  0  0  0  0
 20 21  1  1  0  0  0
 20 18  1  0  0  0  0
 22 24  1  0  0  0  0
 23 16  1  1  0  0  0
 23 15  1  0  0  0  0
 25 17  1  1  0  0  0
 25 23  1  0  0  0  0
 25 15  1  0  0  0  0
M  END
>  <MODEL>
3

>  <REMARK>
 VINA RESULT:      -7.6      2.640      6.625
  Name = 
  1 active torsions:
  status: ('A' for Active; 'I' for Inactive)
    1  A    between atoms: C_10  and  C_12
                            x       y       z     vdW  Elec       q    Type
                         _______ _______ _______ _____ _____    ______ ____

>  <TORSDO>
F 1

$$$$
=
 OpenBabel11072409393D

 25 30  0  0  1  0  0  0  0  0999 V2000
  191.1780  175.1060  142.9660 C   0  0  0  0  0  0  0  0  0  0  0  0
  190.0890  175.3340  143.6630 N   0  0  0  0  0  0  0  0  0  0  0  0
  189.6100  176.0950  146.0140 C   0  0  0  0  0  2  0  0  0  0  0  0
  192.7370  176.0310  146.0010 C   0  0  0  0  0  3  0  0  0  0  0  0
  191.4890  173.0540  141.6630 C   0  0  0  0  0  1  0  0  0  0  0  0
  188.8820  174.8670  143.0310 C   0  0  2  0  0  3  0  0  0  0  0  0
  192.3260  175.2990  143.6520 N   0  0  0  0  0  0  0  0  0  0  0  0
  192.4130  175.8890  147.2550 N   0  0  0  0  0  0  0  0  0  0  0  0
  189.3790  174.4030  141.6390 C   0  0  0  0  0  2  0  0  0  0  0  0
  191.8660  175.6810  144.8740 C   0  0  0  0  0  0  0  0  0  0  0  0
  190.9310  174.4660  141.6570 C   0  0  1  0  0  3  0  0  0  0  0  0
  190.4860  175.6730  144.8920 C   0  0  0  0  0  0  0  0  0  0  0  0
  191.2030  175.3500  147.8240 C   0  0  0  0  0  3  0  0  0  0  0  0
  189.9800  175.3950  147.2800 C   0  0  0  0  0  3  0  0  0  0  0  0
  185.9020  177.8860  143.8750 C   0  0  2  0  0  0  0  0  0  0  0  0
  188.2030  177.2450  142.9440 C   0  0  0  0  0  3  0  0  0  0  0  0
  186.5240  175.7830  142.7640 O   0  0  0  0  0  0  0  0  0  0  0  0
  184.9850  179.3490  145.5350 C   0  0  0  0  0  2  0  0  0  0  0  0
  187.8850  175.9700  142.9080 C   0  0  0  0  0  0  0  0  0  0  0  0
  185.0110  179.1000  144.0350 C   0  0  2  0  0  3  0  0  0  0  0  0
  183.5950  178.8200  143.5610 C   0  0  0  0  0  1  0  0  0  0  0  0
  186.3660  177.3550  145.2150 C   0  0  0  0  0  2  0  0  0  0  0  0
  186.9620  178.0820  142.7860 C   0  0  1  0  0  3  0  0  0  0  0  0
  186.0950  178.5090  146.1630 C   0  0  0  0  0  2  0  0  0  0  0  0
  185.8480  177.0270  142.6120 C   0  0  2  0  0  3  0  0  0  0  0  0
  1  7  2  0  0  0  0
  1  2  1  0  0  0  0
  2 12  1  0  0  0  0
  3 14  1  0  0  0  0
  4  8  2  0  0  0  0
  6 19  1  6  0  0  0
  6  2  1  0  0  0  0
  7 10  1  0  0  0  0
  8 13  1  0  0  0  0
  9 11  1  0  0  0  0
  9  6  1  0  0  0  0
 10 12  2  0  0  0  0
 10  4  1  0  0  0  0
 11  5  1  1  0  0  0
 11  1  1  0  0  0  0
 12  3  1  0  0  0  0
 14 13  2  0  0  0  0
 15 20  1  0  0  0  0
 15 22  1  1  0  0  0
 17 19  1  0  0  0  0
 18 24  1  0  0  0  0
 19 16  2  0  0  0  0
 20 21  1  1  0  0  0
 20 18  1  0  0  0  0
 22 24  1  0  0  0  0
 23 16  1  1  0  0  0
 23 15  1  0  0  0  0
 25 17  1  1  0  0  0
 25 23  1  0  0  0  0
 25 15  1  0  0  0  0
M  END
>  <MODEL>
4

>  <REMARK>
 VINA RESULT:      -7.6      2.734      6.888
  Name = 
  1 active torsions:
  status: ('A' for Active; 'I' for Inactive)
    1  A    between atoms: C_10  and  C_12
                            x       y       z     vdW  Elec       q    Type
                         _______ _______ _______ _____ _____    ______ ____

>  <TORSDO>
F 1

$$$$
=
 OpenBabel11072409393D

 25 30  0  0  1  0  0  0  0  0999 V2000
  187.2870  177.5720  145.2480 C   0  0  0  0  0  0  0  0  0  0  0  0
  188.1800  176.6890  144.8650 N   0  0  0  0  0  0  0  0  0  0  0  0
  189.1650  176.0010  142.6540 C   0  0  0  0  0  2  0  0  0  0  0  0
  187.1360  178.2130  141.7750 C   0  0  0  0  0  3  0  0  0  0  0  0
  185.4510  176.9990  146.7660 C   0  0  0  0  0  1  0  0  0  0  0  0
  188.5570  175.7550  145.8940 C   0  0  2  0  0  3  0  0  0  0  0  0
  186.7370  178.2780  144.2350 N   0  0  0  0  0  0  0  0  0  0  0  0
  187.2820  177.4650  140.7170 N   0  0  0  0  0  0  0  0  0  0  0  0
  187.8280  176.3080  147.1450 C   0  0  0  0  0  2  0  0  0  0  0  0
  187.3720  177.7610  143.1500 C   0  0  0  0  0  0  0  0  0  0  0  0
  186.8950  177.4550  146.6670 C   0  0  1  0  0  3  0  0  0  0  0  0
  188.2390  176.7580  143.5330 C   0  0  0  0  0  0  0  0  0  0  0  0
  187.6540  176.0740  140.6340 C   0  0  0  0  0  3  0  0  0  0  0  0
  188.4400  175.4090  141.4890 C   0  0  0  0  0  3  0  0  0  0  0  0
  192.8310  175.5760  145.2570 C   0  0  2  0  0  0  0  0  0  0  0  0
  190.7710  176.8390  146.1130 C   0  0  0  0  0  3  0  0  0  0  0  0
  190.8000  174.6090  146.2500 O   0  0  0  0  0  0  0  0  0  0  0  0
  194.6110  175.9070  143.6890 C   0  0  0  0  0  2  0  0  0  0  0  0
  190.0350  175.7490  146.0910 C   0  0  0  0  0  0  0  0  0  0  0  0
  194.3360  175.7290  145.1740 C   0  0  2  0  0  3  0  0  0  0  0  0
  195.0520  174.4790  145.6580 C   0  0  0  0  0  1  0  0  0  0  0  0
  192.1930  175.5940  143.8840 C   0  0  0  0  0  2  0  0  0  0  0  0
  192.2140  176.4720  146.3350 C   0  0  1  0  0  3  0  0  0  0  0  0
  193.2760  176.1830  143.0000 C   0  0  0  0  0  2  0  0  0  0  0  0
  192.1680  174.9360  146.4750 C   0  0  2  0  0  3  0  0  0  0  0  0
  1 11  1  0  0  0  0
  2  1  1  0  0  0  0
  2  6  1  0  0  0  0
  3 12  1  0  0  0  0
  4 10  1  0  0  0  0
  6 19  1  1  0  0  0
  6  9  1  0  0  0  0
  7  1  2  0  0  0  0
  8  4  2  0  0  0  0
 10 12  2  0  0  0  0
 10  7  1  0  0  0  0
 11  5  1  6  0  0  0
 11  9  1  0  0  0  0
 12  2  1  0  0  0  0
 13  8  1  0  0  0  0
 13 14  2  0  0  0  0
 14  3  1  0  0  0  0
 15 22  1  6  0  0  0
 15 23  1  0  0  0  0
 15 25  1  0  0  0  0
 18 20  1  0  0  0  0
 19 16  2  0  0  0  0
 19 17  1  0  0  0  0
 20 15  1  0  0  0  0
 20 21  1  6  0  0  0
 23 16  1  6  0  0  0
 23 25  1  0  0  0  0
 24 18  1  0  0  0  0
 24 22  1  0  0  0  0
 25 17  1  6  0  0  0
M  END
>  <MODEL>
5

>  <REMARK>
 VINA RESULT:      -7.5      1.258      1.512
  Name = 
  1 active torsions:
  status: ('A' for Active; 'I' for Inactive)
    1  A    between atoms: C_10  and  C_12
                            x       y       z     vdW  Elec       q    Type
                         _______ _______ _______ _____ _____    ______ ____

>  <TORSDO>
F 1

$$$$
=
 OpenBabel11072409393D

 25 30  0  0  1  0  0  0  0  0999 V2000
  192.1200  173.5890  144.9950 C   0  0  0  0  0  0  0  0  0  0  0  0
  191.1760  174.4250  144.6300 N   0  0  0  0  0  0  0  0  0  0  0  0
  189.3260  174.3830  142.9240 C   0  0  0  0  0  2  0  0  0  0  0  0
  190.6830  171.6050  142.4470 C   0  0  0  0  0  3  0  0  0  0  0  0
  194.4570  174.2840  145.2420 C   0  0  0  0  0  1  0  0  0  0  0  0
  191.3270  175.7500  145.1740 C   0  0  2  0  0  3  0  0  0  0  0  0
  192.1390  172.4340  144.2940 N   0  0  0  0  0  0  0  0  0  0  0  0
  190.1020  171.8830  141.3140 N   0  0  0  0  0  0  0  0  0  0  0  0
  192.5210  175.5890  146.1470 C   0  0  0  0  0  2  0  0  0  0  0  0
  191.1010  172.6070  143.4330 C   0  0  0  0  0  0  0  0  0  0  0  0
  193.1090  174.1680  145.9280 C   0  0  1  0  0  3  0  0  0  0  0  0
  190.5250  173.8470  143.6170 C   0  0  0  0  0  0  0  0  0  0  0  0
  189.7720  173.1710  140.7560 C   0  0  0  0  0  3  0  0  0  0  0  0
  189.4710  174.2810  141.4410 C   0  0  0  0  0  3  0  0  0  0  0  0
  187.3550  177.1630  146.1420 C   0  0  2  0  0  0  0  0  0  0  0  0
  189.1480  175.3350  146.2720 C   0  0  0  0  0  3  0  0  0  0  0  0
  189.7920  177.4740  146.2440 O   0  0  0  0  0  0  0  0  0  0  0  0
  185.1020  177.4110  145.3690 C   0  0  0  0  0  2  0  0  0  0  0  0
  190.0930  176.1700  145.9000 C   0  0  0  0  0  0  0  0  0  0  0  0
  185.9500  177.4490  146.6310 C   0  0  2  0  0  3  0  0  0  0  0  0
  185.8440  178.8320  147.2510 C   0  0  0  0  0  1  0  0  0  0  0  0
  187.4020  177.0150  144.6360 C   0  0  0  0  0  2  0  0  0  0  0  0
  188.0550  176.0890  146.9810 C   0  0  1  0  0  3  0  0  0  0  0  0
  185.9500  176.7910  144.2600 C   0  0  0  0  0  2  0  0  0  0  0  0
  188.5750  177.5420  146.9800 C   0  0  2  0  0  3  0  0  0  0  0  0
  1 11  1  0  0  0  0
  2  1  1  0  0  0  0
  2  6  1  0  0  0  0
  3 12  1  0  0  0  0
  4 10  1  0  0  0  0
  6 19  1  1  0  0  0
  6  9  1  0  0  0  0
  7  1  2  0  0  0  0
  8  4  2  0  0  0  0
 10 12  2  0  0  0  0
 10  7  1  0  0  0  0
 11  5  1  6  0  0  0
 11  9  1  0  0  0  0
 12  2  1  0  0  0  0
 13  8  1  0  0  0  0
 13 14  2  0  0  0  0
 14  3  1  0  0  0  0
 15 22  1  6  0  0  0
 15 20  1  0  0  0  0
 15 25  1  0  0  0  0
 15 23  1  0  0  0  0
 18 20  1  0  0  0  0
 19 17  1  0  0  0  0
 19 16  2  0  0  0  0
 20 21  1  6  0  0  0
 23 16  1  6  0  0  0
 24 22  1  0  0  0  0
 24 18  1  0  0  0  0
 25 17  1  6  0  0  0
 25 23  1  0  0  0  0
M  END
>  <MODEL>
6

>  <REMARK>
 VINA RESULT:      -7.5      3.066      6.170
  Name = 
  1 active torsions:
  status: ('A' for Active; 'I' for Inactive)
    1  A    between atoms: C_10  and  C_12
                            x       y       z     vdW  Elec       q    Type
                         _______ _______ _______ _____ _____    ______ ____

>  <TORSDO>
F 1

$$$$
=
 OpenBabel11072409393D

 25 30  0  0  1  0  0  0  0  0999 V2000
  187.2470  176.9570  143.4780 C   0  0  0  0  0  0  0  0  0  0  0  0
  188.0360  177.1600  144.5080 N   0  0  0  0  0  0  0  0  0  0  0  0
  187.6840  177.5250  146.9730 C   0  0  0  0  0  2  0  0  0  0  0  0
  184.7390  177.2560  145.9520 C   0  0  0  0  0  3  0  0  0  0  0  0
  187.4750  178.2170  141.3880 C   0  0  0  0  0  1  0  0  0  0  0  0
  189.4030  177.4360  144.1500 C   0  0  2  0  0  3  0  0  0  0  0  0
  185.9300  176.9590  143.7810 N   0  0  0  0  0  0  0  0  0  0  0  0
  184.6410  177.9500  147.0510 N   0  0  0  0  0  0  0  0  0  0  0  0
  189.4110  177.2100  142.6180 C   0  0  0  0  0  2  0  0  0  0  0  0
  185.9460  177.1810  145.1220 C   0  0  0  0  0  0  0  0  0  0  0  0
  187.9370  177.0030  142.1730 C   0  0  1  0  0  3  0  0  0  0  0  0
  187.2430  177.3380  145.5670 C   0  0  0  0  0  0  0  0  0  0  0  0
  185.6230  178.8010  147.6770 C   0  0  0  0  0  3  0  0  0  0  0  0
  186.9530  178.6550  147.6210 C   0  0  0  0  0  3  0  0  0  0  0  0
  192.9010  175.2110  145.3820 C   0  0  2  0  0  0  0  0  0  0  0  0
  190.9560  176.7770  145.9610 C   0  0  0  0  0  3  0  0  0  0  0  0
  190.6610  175.2360  144.3710 O   0  0  0  0  0  0  0  0  0  0  0  0
  195.2930  175.2010  145.5130 C   0  0  0  0  0  2  0  0  0  0  0  0
  190.3320  176.4940  144.8380 C   0  0  0  0  0  0  0  0  0  0  0  0
  194.0570  174.4970  146.0530 C   0  0  2  0  0  3  0  0  0  0  0  0
  194.1150  173.0320  145.6550 C   0  0  0  0  0  1  0  0  0  0  0  0
  193.3860  176.2730  144.4170 C   0  0  0  0  0  2  0  0  0  0  0  0
  191.8060  175.6060  146.3780 C   0  0  1  0  0  3  0  0  0  0  0  0
  194.8320  176.4840  144.8260 C   0  0  0  0  0  2  0  0  0  0  0  0
  191.5230  174.5590  145.2800 C   0  0  2  0  0  3  0  0  0  0  0  0
  1  7  2  0  0  0  0
  1  2  1  0  0  0  0
  2 12  1  0  0  0  0
  3 14  1  0  0  0  0
  4  8  2  0  0  0  0
  6  2  1  0  0  0  0
  6 19  1  1  0  0  0
  7 10  1  0  0  0  0
  8 13  1  0  0  0  0
  9  6  1  0  0  0  0
 10 12  2  0  0  0  0
 10  4  1  0  0  0  0
 11  5  1  6  0  0  0
 11  9  1  0  0  0  0
 11  1  1  0  0  0  0
 12  3  1  0  0  0  0
 14 13  2  0  0  0  0
 15 22  1  6  0  0  0
 15 20  1  0  0  0  0
 15 23  1  0  0  0  0
 17 19  1  0  0  0  0
 18 20  1  0  0  0  0
 19 16  2  0  0  0  0
 20 21  1  6  0  0  0
 22 24  1  0  0  0  0
 23 16  1  6  0  0  0
 24 18  1  0  0  0  0
 25 17  1  6  0  0  0
 25 15  1  0  0  0  0
 25 23  1  0  0  0  0
M  END
>  <MODEL>
7

>  <REMARK>
 VINA RESULT:      -7.4      1.528      3.789
  Name = 
  1 active torsions:
  status: ('A' for Active; 'I' for Inactive)
    1  A    between atoms: C_10  and  C_12
                            x       y       z     vdW  Elec       q    Type
                         _______ _______ _______ _____ _____    ______ ____

>  <TORSDO>
F 1

$$$$
=
 OpenBabel11072409393D

 25 30  0  0  1  0  0  0  0  0999 V2000
  186.8110  177.3040  141.5280 C   0  0  0  0  0  0  0  0  0  0  0  0
  187.3190  176.5440  142.4700 N   0  0  0  0  0  0  0  0  0  0  0  0
  188.6320  174.3980  142.5080 C   0  0  0  0  0  2  0  0  0  0  0  0
  188.1820  174.8040  139.4390 C   0  0  0  0  0  3  0  0  0  0  0  0
  184.5000  178.1150  141.6080 C   0  0  0  0  0  1  0  0  0  0  0  0
  186.8750  176.8840  143.7970 C   0  0  2  0  0  3  0  0  0  0  0  0
  187.0070  176.8380  140.2750 N   0  0  0  0  0  0  0  0  0  0  0  0
  188.3620  173.5200  139.5750 N   0  0  0  0  0  0  0  0  0  0  0  0
  186.0590  178.1810  143.5660 C   0  0  0  0  0  2  0  0  0  0  0  0
  187.7020  175.6920  140.5030 C   0  0  0  0  0  0  0  0  0  0  0  0
  185.9330  178.3810  142.0310 C   0  0  1  0  0  3  0  0  0  0  0  0
  187.8680  175.4920  141.8580 C   0  0  0  0  0  0  0  0  0  0  0  0
  188.1140  172.6870  140.7260 C   0  0  0  0  0  3  0  0  0  0  0  0
  188.1880  173.0610  142.0090 C   0  0  0  0  0  3  0  0  0  0  0  0
  190.3990  176.4060  146.2600 C   0  0  2  0  0  0  0  0  0  0  0  0
  189.2220  177.5140  144.2710 C   0  0  0  0  0  3  0  0  0  0  0  0
  188.0140  176.9740  146.0710 O   0  0  0  0  0  0  0  0  0  0  0  0
  192.3550  175.0890  146.6780 C   0  0  0  0  0  2  0  0  0  0  0  0
  188.0380  177.1330  144.6980 C   0  0  0  0  0  0  0  0  0  0  0  0
  191.7260  176.4390  146.9890 C   0  0  2  0  0  3  0  0  0  0  0  0
  191.5350  176.5540  148.4930 C   0  0  0  0  0  1  0  0  0  0  0  0
  190.1720  175.0760  145.5730 C   0  0  0  0  0  2  0  0  0  0  0  0
  190.1550  177.6770  145.4400 C   0  0  1  0  0  3  0  0  0  0  0  0
  191.5580  174.4590  145.5380 C   0  0  0  0  0  2  0  0  0  0  0  0
  189.2590  177.3460  146.6520 C   0  0  2  0  0  3  0  0  0  0  0  0
  1 11  1  0  0  0  0
  1  2  1  0  0  0  0
  2  6  1  0  0  0  0
  4  8  2  0  0  0  0
  4 10  1  0  0  0  0
  6 19  1  1  0  0  0
  7 10  1  0  0  0  0
  7  1  2  0  0  0  0
  8 13  1  0  0  0  0
  9  6  1  0  0  0  0
 10 12  2  0  0  0  0
 11  5  1  6  0  0  0
 11  9  1  0  0  0  0
 12  2  1  0  0  0  0
 12  3  1  0  0  0  0
 13 14  2  0  0  0  0
 14  3  1  0  0  0  0
 15 22  1  6  0  0  0
 15 25  1  0  0  0  0
 15 20  1  0  0  0  0
 16 19  2  0  0  0  0
 18 20  1  0  0  0  0
 19 17  1  0  0  0  0
 20 21  1  1  0  0  0
 23 16  1  6  0  0  0
 23 15  1  0  0  0  0
 23 25  1  0  0  0  0
 24 22  1  0  0  0  0
 24 18  1  0  0  0  0
 25 17  1  6  0  0  0
M  END
>  <MODEL>
8

>  <REMARK>
 VINA RESULT:      -7.4      1.966      3.386
  Name = 
  1 active torsions:
  status: ('A' for Active; 'I' for Inactive)
    1  A    between atoms: C_10  and  C_12
                            x       y       z     vdW  Elec       q    Type
                         _______ _______ _______ _____ _____    ______ ____

>  <TORSDO>
F 1

$$$$
=
 OpenBabel11072409393D

 25 30  0  0  1  0  0  0  0  0999 V2000
  190.0690  173.8700  144.5770 C   0  0  0  0  0  0  0  0  0  0  0  0
  189.8860  174.5110  143.4450 N   0  0  0  0  0  0  0  0  0  0  0  0
  189.7130  173.8340  141.0270 C   0  0  0  0  0  2  0  0  0  0  0  0
  190.1980  171.0740  142.4170 C   0  0  0  0  0  3  0  0  0  0  0  0
  191.7280  174.5880  146.2310 C   0  0  0  0  0  1  0  0  0  0  0  0
  190.0020  175.9420  143.5580 C   0  0  2  0  0  3  0  0  0  0  0  0
  190.2230  172.5350  144.4390 N   0  0  0  0  0  0  0  0  0  0  0  0
  190.6190  170.9020  141.1960 N   0  0  0  0  0  0  0  0  0  0  0  0
  190.1460  176.1560  145.0860 C   0  0  0  0  0  2  0  0  0  0  0  0
  190.1170  172.3740  143.0930 C   0  0  0  0  0  0  0  0  0  0  0  0
  190.3030  174.7540  145.7370 C   0  0  1  0  0  3  0  0  0  0  0  0
  189.9410  173.5950  142.4750 C   0  0  0  0  0  0  0  0  0  0  0  0
  191.1180  171.8820  140.2630 C   0  0  0  0  0  3  0  0  0  0  0  0
  190.7650  173.1720  140.1990 C   0  0  0  0  0  3  0  0  0  0  0  0
  186.2360  178.0420  143.2240 C   0  0  2  0  0  0  0  0  0  0  0  0
  188.7390  177.8860  142.6920 C   0  0  0  0  0  3  0  0  0  0  0  0
  187.5550  176.0000  142.8630 O   0  0  0  0  0  0  0  0  0  0  0  0
  184.7210  179.5650  144.2830 C   0  0  0  0  0  2  0  0  0  0  0  0
  188.7800  176.6170  143.0330 C   0  0  0  0  0  0  0  0  0  0  0  0
  185.0410  178.9290  142.9390 C   0  0  2  0  0  3  0  0  0  0  0  0
  183.8400  178.1190  142.4820 C   0  0  0  0  0  1  0  0  0  0  0  0
  186.6130  178.0690  144.6900 C   0  0  0  0  0  2  0  0  0  0  0  0
  187.3600  178.2350  142.2000 C   0  0  1  0  0  3  0  0  0  0  0  0
  185.9040  179.3040  145.2120 C   0  0  0  0  0  2  0  0  0  0  0  0
  186.6060  176.8920  142.2890 C   0  0  2  0  0  3  0  0  0  0  0  0
  1 11  1  0  0  0  0
  2  6  1  0  0  0  0
  2  1  1  0  0  0  0
  3 12  1  0  0  0  0
  4 10  1  0  0  0  0
  6 19  1  1  0  0  0
  6  9  1  0  0  0  0
  7  1  2  0  0  0  0
  8  4  2  0  0  0  0
  9 11  1  0  0  0  0
 10  7  1  0  0  0  0
 11  5  1  6  0  0  0
 12 10  2  0  0  0  0
 12  2  1  0  0  0  0
 13  8  1  0  0  0  0
 14 13  2  0  0  0  0
 14  3  1  0  0  0  0
 15 22  1  1  0  0  0
 16 19  2  0  0  0  0
 17 19  1  0  0  0  0
 18 24  1  0  0  0  0
 20 21  1  1  0  0  0
 20 15  1  0  0  0  0
 20 18  1  0  0  0  0
 22 24  1  0  0  0  0
 23 25  1  0  0  0  0
 23 16  1  1  0  0  0
 23 15  1  0  0  0  0
 25 17  1  1  0  0  0
 25 15  1  0  0  0  0
M  END
>  <MODEL>
9

>  <REMARK>
 VINA RESULT:      -7.3      3.469      6.558
  Name = 
  1 active torsions:
  status: ('A' for Active; 'I' for Inactive)
    1  A    between atoms: C_10  and  C_12
                            x       y       z     vdW  Elec       q    Type
                         _______ _______ _______ _____ _____    ______ ____

>  <TORSDO>
F 1

$$$$
