=
 OpenBabel11062420293D

 53 59  0  0  1  0  0  0  0  0999 V2000
  188.3200  176.3900  146.8320 C   0  0  0  0  0  0  0  0  0  0  0  0
  190.6160  176.9980  147.1350 N   0  0  0  0  0  0  0  0  0  0  0  0
  190.0190  174.6860  147.1460 C   0  0  0  0  0  3  0  0  0  0  0  0
  190.9840  175.6900  147.2360 C   0  0  0  0  0  0  0  0  0  0  0  0
  188.6810  175.0440  146.9440 C   0  0  0  0  0  3  0  0  0  0  0  0
  189.3210  177.3610  146.9310 C   0  0  0  0  0  3  0  0  0  0  0  0
  192.4210  175.3440  147.4230 C   0  0  0  0  0  2  0  0  0  0  0  0
  193.1560  175.2490  146.0850 C   0  0  0  0  0  2  0  0  0  0  0  0
  195.6220  176.2830  144.1500 C   0  0  2  0  0  3  0  0  0  0  0  0
  195.6020  174.5980  145.6750 C   0  0  1  0  0  0  0  0  0  0  0  0
  196.3320  175.1460  144.5960 O   0  0  0  0  0  0  0  0  0  0  0  0
  194.6240  175.6640  146.2050 C   0  0  1  0  0  3  0  0  0  0  0  0
  194.9120  176.8680  145.3510 C   0  0  0  0  0  2  0  0  0  0  0  0
  194.9300  173.4570  145.2210 O   0  0  0  0  0  1  0  0  0  0  0  0
  196.4730  174.2320  146.6830 F   0  0  0  0  0  0  0  0  0  0  0  0
  194.5810  175.9550  143.0520 C   0  0  2  0  0  3  0  0  0  0  0  0
  196.2640  174.8630  141.5750 C   0  0  2  0  0  3  0  0  0  0  0  0
  195.0150  174.9900  139.0790 S   0  0  0  0  0  0  0  0  0  0  0  0
  195.2030  175.9560  141.6440 C   0  0  1  0  0  3  0  0  0  0  0  0
  197.2630  175.1630  140.5620 N   0  0  0  0  0  2  0  0  0  0  0  0
  196.7760  175.1170  139.2340 C   0  0  0  0  0  0  0  0  0  0  0  0
  194.9140  174.6720  140.8800 C   0  0  2  0  0  3  0  0  0  0  0  0
  197.5390  175.4640  138.2060 C   0  0  0  0  0  2  0  0  0  0  0  0
  193.5140  176.9060  143.1350 O   0  0  0  0  0  0  0  0  0  0  0  0
  191.8680  175.4270  142.4580 O   0  0  0  0  0  0  0  0  0  0  0  0
  192.1890  176.5880  142.8190 C   0  0  0  0  0  0  0  0  0  0  0  0
  191.1900  177.6020  142.8680 N   0  0  0  0  0  1  0  0  0  0  0  0
  186.9210  176.8210  146.5310 C   0  0  0  0  0  2  0  0  0  0  0  0
  186.8860  176.9980  144.1890 C   0  0  2  0  0  3  0  0  0  0  0  0
  186.4170  176.1780  145.3200 N   0  0  0  0  0  0  0  0  0  0  0  0
  185.5020  177.1220  144.6590 C   0  0  0  0  0  2  0  0  0  0  0  0
  187.1600  175.8260  139.5130 O   0  0  0  0  0  0  0  0  0  0  0  0
  188.5370  175.0930  143.0140 S   0  0  0  0  0  0  0  0  0  0  0  0
  188.3880  174.8720  141.2670 N   0  0  0  0  0  0  0  0  0  0  0  0
  186.9020  176.7130  141.6720 N   0  0  0  0  0  0  0  0  0  0  0  0
  187.4760  175.8130  140.7320 C   0  0  0  0  0  0  0  0  0  0  0  0
  186.9970  176.0740  142.9830 C   0  0  2  0  0  3  0  0  0  0  0  0
  188.6390  173.5930  140.6290 C   0  0  0  0  0  2  0  0  0  0  0  0
  191.8510  171.8750  139.7270 O   0  0  0  0  0  1  0  0  0  0  0  0
  190.0990  173.2050  140.8110 C   0  0  1  0  0  3  0  0  0  0  0  0
  190.1660  171.9110  141.3740 O   0  0  0  0  0  0  0  0  0  0  0  0
  190.4810  172.0200  140.0090 C   0  0  2  0  0  0  0  0  0  0  0  0
  189.5280  171.4560  139.1280 O   0  0  0  0  0  0  0  0  0  0  0  0
  189.9410  171.5540  137.7750 C   0  0  1  0  0  3  0  0  0  0  0  0
  189.9990  170.1820  137.1030 C   0  0  0  0  0  1  0  0  0  0  0  0
  189.1650  172.4530  137.0250 O   0  0  0  0  0  0  0  0  0  0  0  0
  190.0740  173.0810  136.1710 C   0  0  0  0  0  2  0  0  0  0  0  0
  190.9170  174.0560  136.9790 C   0  0  0  0  0  1  0  0  0  0  0  0
  187.1020  178.1610  141.5050 C   0  0  0  0  0  2  0  0  0  0  0  0
  185.7880  178.9310  141.5700 C   0  0  0  0  0  2  0  0  0  0  0  0
  184.7210  178.1430  140.8260 C   0  0  0  0  0  2  0  0  0  0  0  0
  183.4300  178.1520  141.5770 C   0  0  0  0  0  3  0  0  0  0  0  0
  182.1660  178.2690  140.8960 S   0  0  0  0  0  0  0  0  0  0  0  0
  1  6  2  0  0  0  0
  1  5  1  0  0  0  0
  2  4  2  0  0  0  0
  3  4  1  0  0  0  0
  4  7  1  0  0  0  0
  5  3  2  0  0  0  0
  6  2  1  0  0  0  0
  8  7  1  0  0  0  0
  9 16  1  6  0  0  0
  9 11  1  0  0  0  0
  9 13  1  0  0  0  0
 10 14  1  6  0  0  0
 10 12  1  0  0  0  0
 10 15  1  0  0  0  0
 11 10  1  0  0  0  0
 12  8  1  6  0  0  0
 13 12  1  0  0  0  0
 16 24  1  6  0  0  0
 17 20  1  6  0  0  0
 17 19  1  0  0  0  0
 18 21  1  0  0  0  0
 19 16  1  1  0  0  0
 21 20  1  0  0  0  0
 22 18  1  6  0  0  0
 22 17  1  0  0  0  0
 22 19  1  0  0  0  0
 23 21  2  0  0  0  0
 25 26  2  0  0  0  0
 26 27  1  0  0  0  0
 26 24  1  0  0  0  0
 28  1  1  0  0  0  0
 29 31  1  6  0  0  0
 29 30  1  0  0  0  0
 30 28  1  0  0  0  0
 31 30  1  0  0  0  0
 32 36  2  0  0  0  0
 34 33  1  0  0  0  0
 35 37  1  0  0  0  0
 36 34  1  0  0  0  0
 36 35  1  0  0  0  0
 37 33  1  6  0  0  0
 37 29  1  0  0  0  0
 38 34  1  0  0  0  0
 40 38  1  6  0  0  0
 40 41  1  0  0  0  0
 42 39  1  6  0  0  0
 42 40  1  0  0  0  0
 42 41  1  0  0  0  0
 43 42  1  0  0  0  0
 44 45  1  6  0  0  0
 44 43  1  0  0  0  0
 46 44  1  0  0  0  0
 47 48  1  0  0  0  0
 47 46  1  0  0  0  0
 49 50  1  0  0  0  0
 49 35  1  0  0  0  0
 51 50  1  0  0  0  0
 51 52  1  0  0  0  0
 53 52  2  0  0  0  0
M  END
>  <MODEL>
1

>  <REMARK>
 VINA RESULT:      -6.4      0.000      0.000
  Name = 
  20 active torsions:
  status: ('A' for Active; 'I' for Inactive)
    1  A    between atoms: C_1  and  C_14
    2  A    between atoms: C_1  and  C_15
    3  A    between atoms: C_2  and  O_18
    4  A    between atoms: C_2  and  O_21
    5  A    between atoms: C_3  and  C_20
    6  A    between atoms: C_4  and  C_14
    7  A    between atoms: C_4  and  N_29
    8  A    between atoms: C_6  and  C_43
    9  A    between atoms: C_9  and  O_18
   10  A    between atoms: C_12  and  C_43
   11  A    between atoms: C_19  and  C_50
   12  A    between atoms: C_20  and  N_40
   13  A    between atoms: O_21  and  C_52
   14  A    between atoms: N_23  and  C_51
   15  A    between atoms: C_25  and  C_39
   16  A    between atoms: O_28  and  C_36
   17  A    between atoms: O_28  and  C_43
   18  A    between atoms: C_33  and  C_48
   19  A    between atoms: C_42  and  C_51
   20  A    between atoms: C_48  and  C_50
                            x       y       z     vdW  Elec       q    Type
                         _______ _______ _______ _____ _____    ______ ____

>  <TORSDO>
F 20

$$$$
=
 OpenBabel11062420293D

 53 59  0  0  1  0  0  0  0  0999 V2000
  194.1810  175.0670  146.0720 C   0  0  0  0  0  0  0  0  0  0  0  0
  191.9460  174.2120  145.9800 N   0  0  0  0  0  0  0  0  0  0  0  0
  192.3140  176.4020  146.8590 C   0  0  0  0  0  3  0  0  0  0  0  0
  191.4490  175.3620  146.5180 C   0  0  0  0  0  0  0  0  0  0  0  0
  193.6870  176.2480  146.6340 C   0  0  0  0  0  3  0  0  0  0  0  0
  193.2770  174.0510  145.7490 C   0  0  0  0  0  3  0  0  0  0  0  0
  189.9790  175.5030  146.7170 C   0  0  0  0  0  2  0  0  0  0  0  0
  189.2160  175.3730  145.3980 C   0  0  0  0  0  2  0  0  0  0  0  0
  188.1910  177.8150  143.4280 C   0  0  2  0  0  3  0  0  0  0  0  0
  189.3260  175.9200  142.8950 C   0  0  1  0  0  0  0  0  0  0  0  0
  188.5850  176.9920  142.3490 O   0  0  0  0  0  0  0  0  0  0  0  0
  189.7780  176.3010  144.3180 C   0  0  1  0  0  3  0  0  0  0  0  0
  189.2590  177.7020  144.4920 C   0  0  0  0  0  2  0  0  0  0  0  0
  188.5160  174.7780  142.8960 O   0  0  0  0  0  1  0  0  0  0  0  0
  190.4360  175.6790  142.1100 F   0  0  0  0  0  0  0  0  0  0  0  0
  186.8250  177.4070  144.0320 C   0  0  2  0  0  3  0  0  0  0  0  0
  184.8470  178.6400  143.1510 C   0  0  2  0  0  3  0  0  0  0  0  0
  184.9900  178.0880  140.4160 S   0  0  0  0  0  0  0  0  0  0  0  0
  185.7050  177.3920  142.9750 C   0  0  1  0  0  3  0  0  0  0  0  0
  183.5020  178.4290  142.6410 N   0  0  0  0  0  2  0  0  0  0  0  0
  183.4300  178.2770  141.2350 C   0  0  0  0  0  0  0  0  0  0  0  0
  185.8280  178.5370  141.9810 C   0  0  2  0  0  3  0  0  0  0  0  0
  182.2880  177.9790  140.6310 C   0  0  0  0  0  2  0  0  0  0  0  0
  186.5060  178.3130  145.0940 O   0  0  0  0  0  0  0  0  0  0  0  0
  186.2800  176.7270  146.7650 O   0  0  0  0  0  0  0  0  0  0  0  0
  186.0330  177.8850  146.3390 C   0  0  0  0  0  0  0  0  0  0  0  0
  185.2260  178.7570  147.1240 N   0  0  0  0  0  1  0  0  0  0  0  0
  195.6250  174.8850  145.7330 C   0  0  0  0  0  2  0  0  0  0  0  0
  196.6970  173.4250  144.2380 C   0  0  2  0  0  3  0  0  0  0  0  0
  195.8040  174.5940  144.3130 N   0  0  0  0  0  0  0  0  0  0  0  0
  197.2300  174.7700  143.9950 C   0  0  0  0  0  2  0  0  0  0  0  0
  196.2770  169.6500  141.2570 O   0  0  0  0  0  0  0  0  0  0  0  0
  194.6180  172.8860  142.4700 S   0  0  0  0  0  0  0  0  0  0  0  0
  194.7640  171.4260  141.4850 N   0  0  0  0  0  0  0  0  0  0  0  0
  196.6950  171.2730  142.9020 N   0  0  0  0  0  0  0  0  0  0  0  0
  195.9240  170.7040  141.8510 C   0  0  0  0  0  0  0  0  0  0  0  0
  196.3730  172.6980  142.9390 C   0  0  2  0  0  3  0  0  0  0  0  0
  194.1840  171.3330  140.1570 C   0  0  0  0  0  2  0  0  0  0  0  0
  191.4270  169.0130  139.1120 O   0  0  0  0  0  1  0  0  0  0  0  0
  193.5020  169.9850  139.9870 C   0  0  1  0  0  3  0  0  0  0  0  0
  192.5540  169.8140  141.0210 O   0  0  0  0  0  0  0  0  0  0  0  0
  192.0450  170.1060  139.7430 C   0  0  2  0  0  0  0  0  0  0  0  0
  191.4830  171.3970  139.6050 O   0  0  0  0  0  0  0  0  0  0  0  0
  190.4340  171.6150  140.5340 C   0  0  1  0  0  3  0  0  0  0  0  0
  190.8690  172.5470  141.6660 C   0  0  0  0  0  1  0  0  0  0  0  0
  189.2490  172.0690  139.9310 O   0  0  0  0  0  0  0  0  0  0  0  0
  189.4440  173.4410  139.7510 C   0  0  0  0  0  2  0  0  0  0  0  0
  188.5270  173.9270  138.6390 C   0  0  0  0  0  1  0  0  0  0  0  0
  196.9200  170.5020  144.1350 C   0  0  0  0  0  2  0  0  0  0  0  0
  195.6160  169.9840  144.7310 C   0  0  0  0  0  2  0  0  0  0  0  0
  195.7180  170.0300  146.2480 C   0  0  0  0  0  2  0  0  0  0  0  0
  195.9900  168.6720  146.8070 C   0  0  0  0  0  3  0  0  0  0  0  0
  197.0750  168.4430  147.7260 S   0  0  0  0  0  0  0  0  0  0  0  0
  1  5  1  0  0  0  0
  2  4  2  0  0  0  0
  4  7  1  0  0  0  0
  4  3  1  0  0  0  0
  5  3  2  0  0  0  0
  6  2  1  0  0  0  0
  6  1  2  0  0  0  0
  8  7  1  0  0  0  0
  9 16  1  1  0  0  0
  9 13  1  0  0  0  0
 10 15  1  6  0  0  0
 10 14  1  0  0  0  0
 10 12  1  0  0  0  0
 11 10  1  0  0  0  0
 11  9  1  0  0  0  0
 12 13  1  0  0  0  0
 12  8  1  1  0  0  0
 16 24  1  1  0  0  0
 17 20  1  6  0  0  0
 18 21  1  0  0  0  0
 19 17  1  0  0  0  0
 19 16  1  1  0  0  0
 21 20  1  0  0  0  0
 22 18  1  6  0  0  0
 22 19  1  0  0  0  0
 22 17  1  0  0  0  0
 23 21  2  0  0  0  0
 24 26  1  0  0  0  0
 26 25  2  0  0  0  0
 26 27  1  0  0  0  0
 28  1  1  0  0  0  0
 29 31  1  6  0  0  0
 29 30  1  0  0  0  0
 30 28  1  0  0  0  0
 31 30  1  0  0  0  0
 32 36  2  0  0  0  0
 34 36  1  0  0  0  0
 34 33  1  0  0  0  0
 35 37  1  0  0  0  0
 35 49  1  0  0  0  0
 36 35  1  0  0  0  0
 37 33  1  1  0  0  0
 37 29  1  0  0  0  0
 38 34  1  0  0  0  0
 40 38  1  1  0  0  0
 40 41  1  0  0  0  0
 42 39  1  6  0  0  0
 42 40  1  0  0  0  0
 42 41  1  0  0  0  0
 43 42  1  0  0  0  0
 43 44  1  0  0  0  0
 44 45  1  1  0  0  0
 46 44  1  0  0  0  0
 47 46  1  0  0  0  0
 48 47  1  0  0  0  0
 49 50  1  0  0  0  0
 50 51  1  0  0  0  0
 51 52  1  0  0  0  0
 52 53  2  0  0  0  0
M  END
>  <MODEL>
2

>  <REMARK>
 VINA RESULT:      -6.2      3.569      8.875
  Name = 
  20 active torsions:
  status: ('A' for Active; 'I' for Inactive)
    1  A    between atoms: C_1  and  C_14
    2  A    between atoms: C_1  and  C_15
    3  A    between atoms: C_2  and  O_18
    4  A    between atoms: C_2  and  O_21
    5  A    between atoms: C_3  and  C_20
    6  A    between atoms: C_4  and  C_14
    7  A    between atoms: C_4  and  N_29
    8  A    between atoms: C_6  and  C_43
    9  A    between atoms: C_9  and  O_18
   10  A    between atoms: C_12  and  C_43
   11  A    between atoms: C_19  and  C_50
   12  A    between atoms: C_20  and  N_40
   13  A    between atoms: O_21  and  C_52
   14  A    between atoms: N_23  and  C_51
   15  A    between atoms: C_25  and  C_39
   16  A    between atoms: O_28  and  C_36
   17  A    between atoms: O_28  and  C_43
   18  A    between atoms: C_33  and  C_48
   19  A    between atoms: C_42  and  C_51
   20  A    between atoms: C_48  and  C_50
                            x       y       z     vdW  Elec       q    Type
                         _______ _______ _______ _____ _____    ______ ____

>  <TORSDO>
F 20

$$$$
=
 OpenBabel11062420293D

 53 59  0  0  1  0  0  0  0  0999 V2000
  193.4140  175.9880  146.0910 C   0  0  0  0  0  0  0  0  0  0  0  0
  195.3260  176.4500  144.7250 N   0  0  0  0  0  0  0  0  0  0  0  0
  194.9310  174.2070  145.4450 C   0  0  0  0  0  3  0  0  0  0  0  0
  195.6960  175.1380  144.7390 C   0  0  0  0  0  0  0  0  0  0  0  0
  193.7870  174.6410  146.1230 C   0  0  0  0  0  3  0  0  0  0  0  0
  194.2120  176.8840  145.3730 C   0  0  0  0  0  3  0  0  0  0  0  0
  196.9050  174.7080  143.9830 C   0  0  0  0  0  2  0  0  0  0  0  0
  196.5920  174.4830  142.5030 C   0  0  0  0  0  2  0  0  0  0  0  0
  194.4390  173.6890  140.1310 C   0  0  2  0  0  3  0  0  0  0  0  0
  194.7850  175.6930  141.1450 C   0  0  1  0  0  0  0  0  0  0  0  0
  194.1670  175.0730  140.0360 O   0  0  0  0  0  0  0  0  0  0  0  0
  195.0970  174.6200  142.2050 C   0  0  1  0  0  3  0  0  0  0  0  0
  194.5530  173.3540  141.6010 C   0  0  0  0  0  2  0  0  0  0  0  0
  195.9460  176.3370  140.7010 O   0  0  0  0  0  1  0  0  0  0  0  0
  193.9300  176.6350  141.6830 F   0  0  0  0  0  0  0  0  0  0  0  0
  195.7460  173.2780  139.4110 C   0  0  2  0  0  3  0  0  0  0  0  0
  197.3350  174.5780  138.0000 C   0  0  2  0  0  3  0  0  0  0  0  0
  196.6280  173.7580  135.4240 S   0  0  0  0  0  0  0  0  0  0  0  0
  195.9230  174.0080  138.0670 C   0  0  1  0  0  3  0  0  0  0  0  0
  197.3990  175.7220  137.1060 N   0  0  0  0  0  2  0  0  0  0  0  0
  197.1960  175.4070  135.7410 C   0  0  0  0  0  0  0  0  0  0  0  0
  196.9620  173.3430  137.1770 C   0  0  2  0  0  3  0  0  0  0  0  0
  197.1240  176.3540  134.8160 C   0  0  0  0  0  2  0  0  0  0  0  0
  195.7360  171.8600  139.2190 O   0  0  0  0  0  0  0  0  0  0  0  0
  194.0640  171.3180  137.7120 O   0  0  0  0  0  0  0  0  0  0  0  0
  194.5870  171.1540  138.8450 C   0  0  0  0  0  0  0  0  0  0  0  0
  193.9740  170.2630  139.7720 N   0  0  0  0  0  1  0  0  0  0  0  0
  192.1560  176.4860  146.7260 C   0  0  0  0  0  2  0  0  0  0  0  0
  190.1290  176.7750  145.5770 C   0  0  2  0  0  3  0  0  0  0  0  0
  190.9890  175.7680  146.2220 N   0  0  0  0  0  0  0  0  0  0  0  0
  189.8050  176.2920  146.9230 C   0  0  0  0  0  2  0  0  0  0  0  0
  186.3770  175.9550  142.6490 O   0  0  0  0  0  0  0  0  0  0  0  0
  190.2010  176.0140  142.9020 S   0  0  0  0  0  0  0  0  0  0  0  0
  188.6470  175.7630  142.0990 N   0  0  0  0  0  0  0  0  0  0  0  0
  187.9750  176.5610  144.2600 N   0  0  0  0  0  0  0  0  0  0  0  0
  187.5860  176.0970  142.9730 C   0  0  0  0  0  0  0  0  0  0  0  0
  189.3240  176.0530  144.5030 C   0  0  2  0  0  3  0  0  0  0  0  0
  188.4860  174.8050  141.0200 C   0  0  0  0  0  2  0  0  0  0  0  0
  191.3040  172.7710  139.6040 O   0  0  0  0  0  1  0  0  0  0  0  0
  189.6140  173.7860  141.0640 C   0  0  1  0  0  3  0  0  0  0  0  0
  189.1490  172.5600  140.5350 O   0  0  0  0  0  0  0  0  0  0  0  0
  190.0110  173.3110  139.7170 C   0  0  2  0  0  0  0  0  0  0  0  0
  189.4000  173.8950  138.5820 O   0  0  0  0  0  0  0  0  0  0  0  0
  190.0560  173.5190  137.3830 C   0  0  1  0  0  3  0  0  0  0  0  0
  189.4450  172.2530  136.7790 C   0  0  0  0  0  1  0  0  0  0  0  0
  190.1110  174.5560  136.4360 O   0  0  0  0  0  0  0  0  0  0  0  0
  191.3740  174.4360  135.8500 C   0  0  0  0  0  2  0  0  0  0  0  0
  192.4350  174.7210  136.9030 C   0  0  0  0  0  1  0  0  0  0  0  0
  187.5670  177.9040  144.7010 C   0  0  0  0  0  2  0  0  0  0  0  0
  186.3160  177.8640  145.5710 C   0  0  0  0  0  2  0  0  0  0  0  0
  185.5980  179.2000  145.4600 C   0  0  0  0  0  2  0  0  0  0  0  0
  185.1300  179.4400  144.0620 C   0  0  0  0  0  3  0  0  0  0  0  0
  184.1110  178.6190  143.4610 S   0  0  0  0  0  0  0  0  0  0  0  0
  1  5  1  0  0  0  0
  1 28  1  0  0  0  0
  2  4  2  0  0  0  0
  2  6  1  0  0  0  0
  3  5  2  0  0  0  0
  4  3  1  0  0  0  0
  6  1  2  0  0  0  0
  7  4  1  0  0  0  0
  8  7  1  0  0  0  0
  9 16  1  6  0  0  0
  9 13  1  0  0  0  0
 10 14  1  6  0  0  0
 10 15  1  0  0  0  0
 10 12  1  0  0  0  0
 11  9  1  0  0  0  0
 11 10  1  0  0  0  0
 12  8  1  6  0  0  0
 13 12  1  0  0  0  0
 16 24  1  6  0  0  0
 17 20  1  6  0  0  0
 17 19  1  0  0  0  0
 18 21  1  0  0  0  0
 19 16  1  1  0  0  0
 21 20  1  0  0  0  0
 22 18  1  6  0  0  0
 22 17  1  0  0  0  0
 22 19  1  0  0  0  0
 23 21  2  0  0  0  0
 25 26  2  0  0  0  0
 26 24  1  0  0  0  0
 26 27  1  0  0  0  0
 29 30  1  0  0  0  0
 29 31  1  1  0  0  0
 30 28  1  0  0  0  0
 30 31  1  0  0  0  0
 32 36  2  0  0  0  0
 34 33  1  0  0  0  0
 34 36  1  0  0  0  0
 35 37  1  0  0  0  0
 35 49  1  0  0  0  0
 36 35  1  0  0  0  0
 37 33  1  6  0  0  0
 37 29  1  0  0  0  0
 38 34  1  0  0  0  0
 40 38  1  6  0  0  0
 41 40  1  0  0  0  0
 42 39  1  6  0  0  0
 42 41  1  0  0  0  0
 42 40  1  0  0  0  0
 43 42  1  0  0  0  0
 44 45  1  6  0  0  0
 44 43  1  0  0  0  0
 46 44  1  0  0  0  0
 47 46  1  0  0  0  0
 47 48  1  0  0  0  0
 49 50  1  0  0  0  0
 51 50  1  0  0  0  0
 52 51  1  0  0  0  0
 53 52  2  0  0  0  0
M  END
>  <MODEL>
3

>  <REMARK>
 VINA RESULT:      -6.2      2.462      4.287
  Name = 
  20 active torsions:
  status: ('A' for Active; 'I' for Inactive)
    1  A    between atoms: C_1  and  C_14
    2  A    between atoms: C_1  and  C_15
    3  A    between atoms: C_2  and  O_18
    4  A    between atoms: C_2  and  O_21
    5  A    between atoms: C_3  and  C_20
    6  A    between atoms: C_4  and  C_14
    7  A    between atoms: C_4  and  N_29
    8  A    between atoms: C_6  and  C_43
    9  A    between atoms: C_9  and  O_18
   10  A    between atoms: C_12  and  C_43
   11  A    between atoms: C_19  and  C_50
   12  A    between atoms: C_20  and  N_40
   13  A    between atoms: O_21  and  C_52
   14  A    between atoms: N_23  and  C_51
   15  A    between atoms: C_25  and  C_39
   16  A    between atoms: O_28  and  C_36
   17  A    between atoms: O_28  and  C_43
   18  A    between atoms: C_33  and  C_48
   19  A    between atoms: C_42  and  C_51
   20  A    between atoms: C_48  and  C_50
                            x       y       z     vdW  Elec       q    Type
                         _______ _______ _______ _____ _____    ______ ____

>  <TORSDO>
F 20

$$$$
=
 OpenBabel11062420293D

 53 59  0  0  1  0  0  0  0  0999 V2000
  188.0140  176.6590  146.8170 C   0  0  0  0  0  0  0  0  0  0  0  0
  190.2900  177.2120  147.3130 N   0  0  0  0  0  0  0  0  0  0  0  0
  189.6150  174.9220  147.3750 C   0  0  0  0  0  3  0  0  0  0  0  0
  190.6020  175.9010  147.5110 C   0  0  0  0  0  0  0  0  0  0  0  0
  188.3160  175.3090  147.0280 C   0  0  0  0  0  3  0  0  0  0  0  0
  189.0340  177.6030  146.9670 C   0  0  0  0  0  3  0  0  0  0  0  0
  192.0020  175.5220  147.8530 C   0  0  0  0  0  2  0  0  0  0  0  0
  192.8570  175.3370  146.5990 C   0  0  0  0  0  2  0  0  0  0  0  0
  193.1660  174.7150  143.3720 C   0  0  2  0  0  3  0  0  0  0  0  0
  192.4380  176.6020  144.4080 C   0  0  1  0  0  0  0  0  0  0  0  0
  192.8810  176.0840  143.1700 O   0  0  0  0  0  0  0  0  0  0  0  0
  192.0240  175.4290  145.3170 C   0  0  1  0  0  3  0  0  0  0  0  0
  192.2340  174.2170  144.4540 C   0  0  0  0  0  2  0  0  0  0  0  0
  193.4770  177.3530  144.9700 O   0  0  0  0  0  1  0  0  0  0  0  0
  191.3510  177.4280  144.2000 F   0  0  0  0  0  0  0  0  0  0  0  0
  194.6310  174.4590  143.8040 C   0  0  2  0  0  3  0  0  0  0  0  0
  195.0290  174.8670  141.3790 C   0  0  2  0  0  3  0  0  0  0  0  0
  197.8180  174.7920  141.2280 S   0  0  0  0  0  0  0  0  0  0  0  0
  195.5380  174.1220  142.6080 C   0  0  1  0  0  3  0  0  0  0  0  0
  195.4170  174.1890  140.1540 N   0  0  0  0  0  2  0  0  0  0  0  0
  196.8080  174.2080  139.8930 C   0  0  0  0  0  0  0  0  0  0  0  0
  196.2980  175.3360  142.0940 C   0  0  2  0  0  3  0  0  0  0  0  0
  197.3280  173.5470  138.8680 C   0  0  0  0  0  2  0  0  0  0  0  0
  194.6450  173.3980  144.7650 O   0  0  0  0  0  0  0  0  0  0  0  0
  196.4120  173.9740  146.1460 O   0  0  0  0  0  0  0  0  0  0  0  0
  195.7740  173.0820  145.5290 C   0  0  0  0  0  0  0  0  0  0  0  0
  196.2350  171.7360  145.5810 N   0  0  0  0  0  1  0  0  0  0  0  0
  186.6660  177.1150  146.3620 C   0  0  0  0  0  2  0  0  0  0  0  0
  186.7220  177.2850  144.0200 C   0  0  2  0  0  3  0  0  0  0  0  0
  186.2640  176.4350  145.1330 N   0  0  0  0  0  0  0  0  0  0  0  0
  185.3130  177.3100  144.4280 C   0  0  0  0  0  2  0  0  0  0  0  0
  186.8860  176.0370  139.3580 O   0  0  0  0  0  0  0  0  0  0  0  0
  188.6790  175.7820  142.7360 S   0  0  0  0  0  0  0  0  0  0  0  0
  188.4450  175.4670  141.0130 N   0  0  0  0  0  0  0  0  0  0  0  0
  186.6000  176.9180  141.5160 N   0  0  0  0  0  0  0  0  0  0  0  0
  187.2950  176.1440  140.5450 C   0  0  0  0  0  0  0  0  0  0  0  0
  186.9520  176.3690  142.8240 C   0  0  2  0  0  3  0  0  0  0  0  0
  188.9420  174.2600  140.3770 C   0  0  0  0  0  2  0  0  0  0  0  0
  191.7570  171.9510  141.2880 O   0  0  0  0  0  1  0  0  0  0  0  0
  189.8770  173.5270  141.3260 C   0  0  1  0  0  3  0  0  0  0  0  0
  189.4210  172.1990  141.4890 O   0  0  0  0  0  0  0  0  0  0  0  0
  190.5610  172.3790  140.6850 C   0  0  2  0  0  0  0  0  0  0  0  0
  190.3600  172.1520  139.3030 O   0  0  0  0  0  0  0  0  0  0  0  0
  190.9520  170.9360  138.8800 C   0  0  1  0  0  3  0  0  0  0  0  0
  189.9080  169.9640  138.3260 C   0  0  0  0  0  1  0  0  0  0  0  0
  192.0040  171.1220  137.9690 O   0  0  0  0  0  0  0  0  0  0  0  0
  192.9890  170.2170  138.3720 C   0  0  0  0  0  2  0  0  0  0  0  0
  194.1980  170.9940  138.8710 C   0  0  0  0  0  1  0  0  0  0  0  0
  186.4350  178.3650  141.3080 C   0  0  0  0  0  2  0  0  0  0  0  0
  185.1810  178.6870  140.5030 C   0  0  0  0  0  2  0  0  0  0  0  0
  184.0800  177.7160  140.9010 C   0  0  0  0  0  2  0  0  0  0  0  0
  183.0200  178.4080  141.6950 C   0  0  0  0  0  3  0  0  0  0  0  0
  181.6410  178.3920  141.2800 S   0  0  0  0  0  0  0  0  0  0  0  0
  1  6  2  0  0  0  0
  1  5  1  0  0  0  0
  2  4  2  0  0  0  0
  3  4  1  0  0  0  0
  4  7  1  0  0  0  0
  5  3  2  0  0  0  0
  6  2  1  0  0  0  0
  8  7  1  0  0  0  0
  9 16  1  1  0  0  0
  9 13  1  0  0  0  0
 10 15  1  6  0  0  0
 10 14  1  0  0  0  0
 10 12  1  0  0  0  0
 11  9  1  0  0  0  0
 11 10  1  0  0  0  0
 12  8  1  1  0  0  0
 13 12  1  0  0  0  0
 16 24  1  1  0  0  0
 17 20  1  6  0  0  0
 17 22  1  0  0  0  0
 17 19  1  0  0  0  0
 19 16  1  1  0  0  0
 21 20  1  0  0  0  0
 21 18  1  0  0  0  0
 22 18  1  6  0  0  0
 22 19  1  0  0  0  0
 23 21  2  0  0  0  0
 24 26  1  0  0  0  0
 26 27  1  0  0  0  0
 26 25  2  0  0  0  0
 28  1  1  0  0  0  0
 29 31  1  6  0  0  0
 29 30  1  0  0  0  0
 30 28  1  0  0  0  0
 31 30  1  0  0  0  0
 32 36  2  0  0  0  0
 34 33  1  0  0  0  0
 35 37  1  0  0  0  0
 36 34  1  0  0  0  0
 36 35  1  0  0  0  0
 37 33  1  6  0  0  0
 37 29  1  0  0  0  0
 38 34  1  0  0  0  0
 40 38  1  6  0  0  0
 40 41  1  0  0  0  0
 42 39  1  1  0  0  0
 42 40  1  0  0  0  0
 42 41  1  0  0  0  0
 43 42  1  0  0  0  0
 44 45  1  6  0  0  0
 44 43  1  0  0  0  0
 46 47  1  0  0  0  0
 46 44  1  0  0  0  0
 47 48  1  0  0  0  0
 49 35  1  0  0  0  0
 50 51  1  0  0  0  0
 50 49  1  0  0  0  0
 51 52  1  0  0  0  0
 53 52  2  0  0  0  0
M  END
>  <MODEL>
4

>  <REMARK>
 VINA RESULT:      -6.1      1.832      2.689
  Name = 
  20 active torsions:
  status: ('A' for Active; 'I' for Inactive)
    1  A    between atoms: C_1  and  C_14
    2  A    between atoms: C_1  and  C_15
    3  A    between atoms: C_2  and  O_18
    4  A    between atoms: C_2  and  O_21
    5  A    between atoms: C_3  and  C_20
    6  A    between atoms: C_4  and  C_14
    7  A    between atoms: C_4  and  N_29
    8  A    between atoms: C_6  and  C_43
    9  A    between atoms: C_9  and  O_18
   10  A    between atoms: C_12  and  C_43
   11  A    between atoms: C_19  and  C_50
   12  A    between atoms: C_20  and  N_40
   13  A    between atoms: O_21  and  C_52
   14  A    between atoms: N_23  and  C_51
   15  A    between atoms: C_25  and  C_39
   16  A    between atoms: O_28  and  C_36
   17  A    between atoms: O_28  and  C_43
   18  A    between atoms: C_33  and  C_48
   19  A    between atoms: C_42  and  C_51
   20  A    between atoms: C_48  and  C_50
                            x       y       z     vdW  Elec       q    Type
                         _______ _______ _______ _____ _____    ______ ____

>  <TORSDO>
F 20

$$$$
=
 OpenBabel11062420293D

 53 59  0  0  1  0  0  0  0  0999 V2000
  194.0920  175.1590  146.0360 C   0  0  0  0  0  0  0  0  0  0  0  0
  191.8570  174.3000  146.0070 N   0  0  0  0  0  0  0  0  0  0  0  0
  192.2600  176.4480  146.9700 C   0  0  0  0  0  3  0  0  0  0  0  0
  191.3820  175.4210  146.6200 C   0  0  0  0  0  0  0  0  0  0  0  0
  193.6210  176.3100  146.6760 C   0  0  0  0  0  3  0  0  0  0  0  0
  193.1750  174.1560  145.7070 C   0  0  0  0  0  3  0  0  0  0  0  0
  189.9220  175.5460  146.8930 C   0  0  0  0  0  2  0  0  0  0  0  0
  189.0990  175.4520  145.6080 C   0  0  0  0  0  2  0  0  0  0  0  0
  188.1560  177.7680  143.4530 C   0  0  2  0  0  3  0  0  0  0  0  0
  189.2720  175.8240  143.0760 C   0  0  1  0  0  0  0  0  0  0  0  0
  188.5610  176.8670  142.4420 O   0  0  0  0  0  0  0  0  0  0  0  0
  189.6990  176.2960  144.4800 C   0  0  1  0  0  3  0  0  0  0  0  0
  189.1990  177.7120  144.5470 C   0  0  0  0  0  2  0  0  0  0  0  0
  188.4440  174.6970  143.1370 O   0  0  0  0  0  1  0  0  0  0  0  0
  190.3950  175.5140  142.3360 F   0  0  0  0  0  0  0  0  0  0  0  0
  186.7700  177.4220  144.0510 C   0  0  2  0  0  3  0  0  0  0  0  0
  184.7910  178.6340  143.1470 C   0  0  2  0  0  3  0  0  0  0  0  0
  184.9780  178.0900  140.4120 S   0  0  0  0  0  0  0  0  0  0  0  0
  185.6660  177.3960  142.9800 C   0  0  1  0  0  3  0  0  0  0  0  0
  183.4560  178.4090  142.6180 N   0  0  0  0  0  2  0  0  0  0  0  0
  183.4040  178.2600  141.2110 C   0  0  0  0  0  0  0  0  0  0  0  0
  185.7890  178.5460  141.9900 C   0  0  2  0  0  3  0  0  0  0  0  0
  182.2740  177.9490  140.5900 C   0  0  0  0  0  2  0  0  0  0  0  0
  186.4630  178.3770  145.0720 O   0  0  0  0  0  0  0  0  0  0  0  0
  185.0030  178.8410  146.8080 O   0  0  0  0  0  0  0  0  0  0  0  0
  185.7960  178.0360  146.2540 C   0  0  0  0  0  0  0  0  0  0  0  0
  186.0450  176.7740  146.8640 N   0  0  0  0  0  1  0  0  0  0  0  0
  195.5190  175.0000  145.6240 C   0  0  0  0  0  2  0  0  0  0  0  0
  196.3730  173.4800  144.0500 C   0  0  2  0  0  3  0  0  0  0  0  0
  195.6310  174.7450  144.1900 N   0  0  0  0  0  0  0  0  0  0  0  0
  197.0610  174.7590  143.8420 C   0  0  0  0  0  2  0  0  0  0  0  0
  195.5340  169.9100  140.9090 O   0  0  0  0  0  0  0  0  0  0  0  0
  194.1790  173.1860  142.3650 S   0  0  0  0  0  0  0  0  0  0  0  0
  194.1700  171.7750  141.3020 N   0  0  0  0  0  0  0  0  0  0  0  0
  196.1480  171.4080  142.6090 N   0  0  0  0  0  0  0  0  0  0  0  0
  195.2890  170.9530  141.5710 C   0  0  0  0  0  0  0  0  0  0  0  0
  195.9350  172.8490  142.7340 C   0  0  2  0  0  3  0  0  0  0  0  0
  193.5220  171.7960  140.0020 C   0  0  0  0  0  2  0  0  0  0  0  0
  190.6940  173.7840  138.5440 O   0  0  0  0  0  1  0  0  0  0  0  0
  192.5230  172.9400  139.9440 C   0  0  1  0  0  3  0  0  0  0  0  0
  192.9940  173.9180  139.0400 O   0  0  0  0  0  0  0  0  0  0  0  0
  191.9290  173.1150  138.5970 C   0  0  2  0  0  0  0  0  0  0  0  0
  192.2610  172.1880  137.5810 O   0  0  0  0  0  0  0  0  0  0  0  0
  191.3260  172.2200  136.5160 C   0  0  1  0  0  3  0  0  0  0  0  0
  191.8590  173.0120  135.3210 C   0  0  0  0  0  1  0  0  0  0  0  0
  190.8930  170.9430  136.1240 O   0  0  0  0  0  0  0  0  0  0  0  0
  191.8590  170.5010  135.2170 C   0  0  0  0  0  2  0  0  0  0  0  0
  191.7170  168.9970  135.0380 C   0  0  0  0  0  1  0  0  0  0  0  0
  196.3740  170.5590  143.7890 C   0  0  0  0  0  2  0  0  0  0  0  0
  195.0660  170.1610  144.4650 C   0  0  0  0  0  2  0  0  0  0  0  0
  195.2310  170.3010  145.9710 C   0  0  0  0  0  2  0  0  0  0  0  0
  195.5530  168.9830  146.5970 C   0  0  0  0  0  3  0  0  0  0  0  0
  194.7550  168.4470  147.6690 S   0  0  0  0  0  0  0  0  0  0  0  0
  1  5  1  0  0  0  0
  2  4  2  0  0  0  0
  4  7  1  0  0  0  0
  4  3  1  0  0  0  0
  5  3  2  0  0  0  0
  6  2  1  0  0  0  0
  6  1  2  0  0  0  0
  8  7  1  0  0  0  0
  9 16  1  1  0  0  0
  9 13  1  0  0  0  0
 10 15  1  6  0  0  0
 10 14  1  0  0  0  0
 10 12  1  0  0  0  0
 11 10  1  0  0  0  0
 11  9  1  0  0  0  0
 12 13  1  0  0  0  0
 12  8  1  1  0  0  0
 16 24  1  1  0  0  0
 17 20  1  6  0  0  0
 18 21  1  0  0  0  0
 19 17  1  0  0  0  0
 19 16  1  1  0  0  0
 21 20  1  0  0  0  0
 22 18  1  6  0  0  0
 22 19  1  0  0  0  0
 22 17  1  0  0  0  0
 23 21  2  0  0  0  0
 24 26  1  0  0  0  0
 26 25  2  0  0  0  0
 26 27  1  0  0  0  0
 28  1  1  0  0  0  0
 29 31  1  6  0  0  0
 29 30  1  0  0  0  0
 30 28  1  0  0  0  0
 31 30  1  0  0  0  0
 32 36  2  0  0  0  0
 34 36  1  0  0  0  0
 34 33  1  0  0  0  0
 35 37  1  0  0  0  0
 35 49  1  0  0  0  0
 36 35  1  0  0  0  0
 37 33  1  1  0  0  0
 37 29  1  0  0  0  0
 38 34  1  0  0  0  0
 40 38  1  6  0  0  0
 41 40  1  0  0  0  0
 42 39  1  6  0  0  0
 42 41  1  0  0  0  0
 42 40  1  0  0  0  0
 43 42  1  0  0  0  0
 44 45  1  6  0  0  0
 44 43  1  0  0  0  0
 46 44  1  0  0  0  0
 47 46  1  0  0  0  0
 48 47  1  0  0  0  0
 49 50  1  0  0  0  0
 50 51  1  0  0  0  0
 51 52  1  0  0  0  0
 52 53  2  0  0  0  0
M  END
>  <MODEL>
5

>  <REMARK>
 VINA RESULT:      -5.8      3.494      8.649
  Name = 
  20 active torsions:
  status: ('A' for Active; 'I' for Inactive)
    1  A    between atoms: C_1  and  C_14
    2  A    between atoms: C_1  and  C_15
    3  A    between atoms: C_2  and  O_18
    4  A    between atoms: C_2  and  O_21
    5  A    between atoms: C_3  and  C_20
    6  A    between atoms: C_4  and  C_14
    7  A    between atoms: C_4  and  N_29
    8  A    between atoms: C_6  and  C_43
    9  A    between atoms: C_9  and  O_18
   10  A    between atoms: C_12  and  C_43
   11  A    between atoms: C_19  and  C_50
   12  A    between atoms: C_20  and  N_40
   13  A    between atoms: O_21  and  C_52
   14  A    between atoms: N_23  and  C_51
   15  A    between atoms: C_25  and  C_39
   16  A    between atoms: O_28  and  C_36
   17  A    between atoms: O_28  and  C_43
   18  A    between atoms: C_33  and  C_48
   19  A    between atoms: C_42  and  C_51
   20  A    between atoms: C_48  and  C_50
                            x       y       z     vdW  Elec       q    Type
                         _______ _______ _______ _____ _____    ______ ____

>  <TORSDO>
F 20

$$$$
=
 OpenBabel11062420293D

 53 59  0  0  1  0  0  0  0  0999 V2000
  191.9780  176.0650  146.7620 C   0  0  0  0  0  0  0  0  0  0  0  0
  193.2720  174.2410  145.9050 N   0  0  0  0  0  0  0  0  0  0  0  0
  194.3820  176.2720  146.4970 C   0  0  0  0  0  3  0  0  0  0  0  0
  194.4230  174.9630  146.0140 C   0  0  0  0  0  0  0  0  0  0  0  0
  193.1500  176.8210  146.8700 C   0  0  0  0  0  3  0  0  0  0  0  0
  192.0690  174.7590  146.2700 C   0  0  0  0  0  3  0  0  0  0  0  0
  195.7210  174.3360  145.6340 C   0  0  0  0  0  2  0  0  0  0  0  0
  195.5340  173.2540  144.5700 C   0  0  0  0  0  2  0  0  0  0  0  0
  197.8760  172.6640  142.3200 C   0  0  2  0  0  3  0  0  0  0  0  0
  196.5760  171.1900  143.4610 C   0  0  1  0  0  0  0  0  0  0  0  0
  197.4500  171.3180  142.3580 O   0  0  0  0  0  0  0  0  0  0  0  0
  196.7860  172.3900  144.4040 C   0  0  1  0  0  3  0  0  0  0  0  0
  197.8910  173.1700  143.7460 C   0  0  0  0  0  2  0  0  0  0  0  0
  195.2620  171.1330  142.9790 O   0  0  0  0  0  1  0  0  0  0  0  0
  196.8550  170.0190  144.1380 F   0  0  0  0  0  0  0  0  0  0  0  0
  196.9510  173.5680  141.4690 C   0  0  2  0  0  3  0  0  0  0  0  0
  195.9870  173.5510  139.1720 C   0  0  2  0  0  3  0  0  0  0  0  0
  197.9410  174.9140  137.7130 S   0  0  0  0  0  0  0  0  0  0  0  0
  197.2850  173.4900  139.9690 C   0  0  1  0  0  3  0  0  0  0  0  0
  196.1350  172.9160  137.8740 N   0  0  0  0  0  2  0  0  0  0  0  0
  197.0000  173.5990  136.9860 C   0  0  0  0  0  0  0  0  0  0  0  0
  196.9170  174.7650  139.2240 C   0  0  2  0  0  3  0  0  0  0  0  0
  197.3160  173.0920  135.8020 C   0  0  0  0  0  2  0  0  0  0  0  0
  197.0640  174.9140  141.9440 O   0  0  0  0  0  0  0  0  0  0  0  0
  194.8330  175.4330  142.2810 O   0  0  0  0  0  0  0  0  0  0  0  0
  195.9880  175.8080  141.9510 C   0  0  0  0  0  0  0  0  0  0  0  0
  196.1900  177.1570  141.5410 N   0  0  0  0  0  1  0  0  0  0  0  0
  190.6520  176.5730  147.2260 C   0  0  0  0  0  2  0  0  0  0  0  0
  189.1300  177.0740  145.5080 C   0  0  2  0  0  3  0  0  0  0  0  0
  189.5620  176.0110  146.4330 N   0  0  0  0  0  0  0  0  0  0  0  0
  188.3500  176.7950  146.7180 C   0  0  0  0  0  2  0  0  0  0  0  0
  186.2910  176.5890  141.6330 O   0  0  0  0  0  0  0  0  0  0  0  0
  189.8190  176.0290  143.0230 S   0  0  0  0  0  0  0  0  0  0  0  0
  188.5420  175.9590  141.8030 N   0  0  0  0  0  0  0  0  0  0  0  0
  187.4450  177.0860  143.6160 N   0  0  0  0  0  0  0  0  0  0  0  0
  187.3610  176.5590  142.2980 C   0  0  0  0  0  0  0  0  0  0  0  0
  188.5440  176.3870  144.2810 C   0  0  2  0  0  3  0  0  0  0  0  0
  188.5150  174.9320  140.7780 C   0  0  0  0  0  2  0  0  0  0  0  0
  189.7760  171.5170  141.6870 O   0  0  0  0  0  1  0  0  0  0  0  0
  188.4420  173.5590  141.4260 C   0  0  1  0  0  3  0  0  0  0  0  0
  188.0920  172.6030  140.4460 O   0  0  0  0  0  0  0  0  0  0  0  0
  189.4330  172.6080  140.8690 C   0  0  2  0  0  0  0  0  0  0  0  0
  190.3620  173.0760  139.9100 O   0  0  0  0  0  0  0  0  0  0  0  0
  190.9570  172.0080  139.1920 C   0  0  1  0  0  3  0  0  0  0  0  0
  190.3640  171.8720  137.7890 C   0  0  0  0  0  1  0  0  0  0  0  0
  192.3590  172.0910  139.1440 O   0  0  0  0  0  0  0  0  0  0  0  0
  192.8020  171.2030  140.1290 C   0  0  0  0  0  2  0  0  0  0  0  0
  194.0630  170.5100  139.6360 C   0  0  0  0  0  1  0  0  0  0  0  0
  187.1950  178.5180  143.8430 C   0  0  0  0  0  2  0  0  0  0  0  0
  185.7810  178.9220  143.4390 C   0  0  0  0  0  2  0  0  0  0  0  0
  185.1780  179.7720  144.5470 C   0  0  0  0  0  2  0  0  0  0  0  0
  185.4160  179.1510  145.8850 C   0  0  0  0  0  3  0  0  0  0  0  0
  184.4780  178.2200  146.4570 S   0  0  0  0  0  0  0  0  0  0  0  0
  1  5  1  0  0  0  0
  1 28  1  0  0  0  0
  2  4  2  0  0  0  0
  2  6  1  0  0  0  0
  3  5  2  0  0  0  0
  4  3  1  0  0  0  0
  6  1  2  0  0  0  0
  7  4  1  0  0  0  0
  8  7  1  0  0  0  0
  9 16  1  6  0  0  0
  9 11  1  0  0  0  0
  9 13  1  0  0  0  0
 10 14  1  6  0  0  0
 10 15  1  0  0  0  0
 10 12  1  0  0  0  0
 11 10  1  0  0  0  0
 12  8  1  6  0  0  0
 13 12  1  0  0  0  0
 16 24  1  1  0  0  0
 17 20  1  6  0  0  0
 17 22  1  0  0  0  0
 17 19  1  0  0  0  0
 19 16  1  1  0  0  0
 21 18  1  0  0  0  0
 21 20  1  0  0  0  0
 22 18  1  6  0  0  0
 22 19  1  0  0  0  0
 23 21  2  0  0  0  0
 24 26  1  0  0  0  0
 26 25  2  0  0  0  0
 27 26  1  0  0  0  0
 29 30  1  0  0  0  0
 29 31  1  1  0  0  0
 30 31  1  0  0  0  0
 30 28  1  0  0  0  0
 32 36  2  0  0  0  0
 34 36  1  0  0  0  0
 34 33  1  0  0  0  0
 35 49  1  0  0  0  0
 35 37  1  0  0  0  0
 36 35  1  0  0  0  0
 37 33  1  6  0  0  0
 37 29  1  0  0  0  0
 38 34  1  0  0  0  0
 40 38  1  6  0  0  0
 41 42  1  0  0  0  0
 41 40  1  0  0  0  0
 42 40  1  0  0  0  0
 42 39  1  1  0  0  0
 43 42  1  0  0  0  0
 44 45  1  6  0  0  0
 44 43  1  0  0  0  0
 46 44  1  0  0  0  0
 46 47  1  0  0  0  0
 48 47  1  0  0  0  0
 50 49  1  0  0  0  0
 50 51  1  0  0  0  0
 51 52  1  0  0  0  0
 52 53  2  0  0  0  0
M  END
>  <MODEL>
6

>  <REMARK>
 VINA RESULT:      -5.6      2.404      3.575
  Name = 
  20 active torsions:
  status: ('A' for Active; 'I' for Inactive)
    1  A    between atoms: C_1  and  C_14
    2  A    between atoms: C_1  and  C_15
    3  A    between atoms: C_2  and  O_18
    4  A    between atoms: C_2  and  O_21
    5  A    between atoms: C_3  and  C_20
    6  A    between atoms: C_4  and  C_14
    7  A    between atoms: C_4  and  N_29
    8  A    between atoms: C_6  and  C_43
    9  A    between atoms: C_9  and  O_18
   10  A    between atoms: C_12  and  C_43
   11  A    between atoms: C_19  and  C_50
   12  A    between atoms: C_20  and  N_40
   13  A    between atoms: O_21  and  C_52
   14  A    between atoms: N_23  and  C_51
   15  A    between atoms: C_25  and  C_39
   16  A    between atoms: O_28  and  C_36
   17  A    between atoms: O_28  and  C_43
   18  A    between atoms: C_33  and  C_48
   19  A    between atoms: C_42  and  C_51
   20  A    between atoms: C_48  and  C_50
                            x       y       z     vdW  Elec       q    Type
                         _______ _______ _______ _____ _____    ______ ____

>  <TORSDO>
F 20

$$$$
=
 OpenBabel11062420293D

 53 59  0  0  1  0  0  0  0  0999 V2000
  192.2600  175.9970  146.6340 C   0  0  0  0  0  0  0  0  0  0  0  0
  191.0750  177.1200  148.3850 N   0  0  0  0  0  0  0  0  0  0  0  0
  190.2060  177.2010  146.1620 C   0  0  0  0  0  3  0  0  0  0  0  0
  190.1140  177.5380  147.5130 C   0  0  0  0  0  0  0  0  0  0  0  0
  191.2880  176.4270  145.7250 C   0  0  0  0  0  3  0  0  0  0  0  0
  192.1270  176.3620  147.9770 C   0  0  0  0  0  3  0  0  0  0  0  0
  188.9620  178.3360  148.0180 C   0  0  0  0  0  2  0  0  0  0  0  0
  187.8660  178.4730  146.9600 C   0  0  0  0  0  2  0  0  0  0  0  0
  185.5240  176.6400  145.5280 C   0  0  2  0  0  3  0  0  0  0  0  0
  185.3020  178.4260  146.9160 C   0  0  1  0  0  0  0  0  0  0  0  0
  184.6030  177.5980  146.0100 O   0  0  0  0  0  0  0  0  0  0  0  0
  186.5960  177.7100  147.3470 C   0  0  1  0  0  3  0  0  0  0  0  0
  186.5270  176.3890  146.6310 C   0  0  0  0  0  2  0  0  0  0  0  0
  185.5700  179.6460  146.2850 O   0  0  0  0  0  1  0  0  0  0  0  0
  184.5160  178.6610  148.0270 F   0  0  0  0  0  0  0  0  0  0  0  0
  186.2720  177.1060  144.2550 C   0  0  2  0  0  3  0  0  0  0  0  0
  184.4500  178.4380  143.2000 C   0  0  2  0  0  3  0  0  0  0  0  0
  185.0340  178.1670  140.4810 S   0  0  0  0  0  0  0  0  0  0  0  0
  185.3360  177.2080  143.0380 C   0  0  1  0  0  3  0  0  0  0  0  0
  183.2060  178.2910  142.4620 N   0  0  0  0  0  2  0  0  0  0  0  0
  183.3610  178.2850  141.0550 C   0  0  0  0  0  0  0  0  0  0  0  0
  185.6060  178.4480  142.1980 C   0  0  2  0  0  3  0  0  0  0  0  0
  182.3330  178.0590  140.2490 C   0  0  0  0  0  2  0  0  0  0  0  0
  187.3430  176.1930  143.9960 O   0  0  0  0  0  0  0  0  0  0  0  0
  189.1510  175.6340  142.6620 O   0  0  0  0  0  0  0  0  0  0  0  0
  188.4470  176.5260  143.2030 C   0  0  0  0  0  0  0  0  0  0  0  0
  188.8080  177.8940  143.0350 N   0  0  0  0  0  1  0  0  0  0  0  0
  193.3870  175.1000  146.2350 C   0  0  0  0  0  2  0  0  0  0  0  0
  194.2500  174.0600  144.3140 C   0  0  2  0  0  3  0  0  0  0  0  0
  193.8050  175.3550  144.8590 N   0  0  0  0  0  0  0  0  0  0  0  0
  195.2410  175.0440  144.7630 C   0  0  0  0  0  2  0  0  0  0  0  0
  195.1110  173.0270  139.6760 O   0  0  0  0  0  0  0  0  0  0  0  0
  192.3840  173.5020  142.3280 S   0  0  0  0  0  0  0  0  0  0  0  0
  193.0110  173.1860  140.7060 N   0  0  0  0  0  0  0  0  0  0  0  0
  195.0260  173.4090  141.9920 N   0  0  0  0  0  0  0  0  0  0  0  0
  194.4260  173.1810  140.7220 C   0  0  0  0  0  0  0  0  0  0  0  0
  194.0370  174.1130  142.8070 C   0  0  2  0  0  3  0  0  0  0  0  0
  192.2540  173.5140  139.5120 C   0  0  0  0  0  2  0  0  0  0  0  0
  188.9470  171.7840  139.1180 O   0  0  0  0  0  1  0  0  0  0  0  0
  190.7710  173.2910  139.7650 C   0  0  1  0  0  3  0  0  0  0  0  0
  190.0330  173.8310  138.6880 O   0  0  0  0  0  0  0  0  0  0  0  0
  190.1370  172.4300  138.7390 C   0  0  2  0  0  0  0  0  0  0  0  0
  190.9510  171.8540  137.7360 O   0  0  0  0  0  0  0  0  0  0  0  0
  190.6510  170.4820  137.5400 C   0  0  1  0  0  3  0  0  0  0  0  0
  190.8220  170.0710  136.0780 C   0  0  0  0  0  1  0  0  0  0  0  0
  191.3740  169.6330  138.3940 O   0  0  0  0  0  0  0  0  0  0  0  0
  192.5910  169.4240  137.7410 C   0  0  0  0  0  2  0  0  0  0  0  0
  193.7180  169.9480  138.6190 C   0  0  0  0  0  1  0  0  0  0  0  0
  195.9120  172.3870  142.5700 C   0  0  0  0  0  2  0  0  0  0  0  0
  195.5760  170.9880  142.0660 C   0  0  0  0  0  2  0  0  0  0  0  0
  194.5280  170.3760  142.9830 C   0  0  0  0  0  2  0  0  0  0  0  0
  193.6970  169.3740  142.2500 C   0  0  0  0  0  3  0  0  0  0  0  0
  192.2620  169.3590  142.3670 S   0  0  0  0  0  0  0  0  0  0  0  0
  1  6  1  0  0  0  0
  3  4  2  0  0  0  0
  4  7  1  0  0  0  0
  4  2  1  0  0  0  0
  5  3  1  0  0  0  0
  5  1  2  0  0  0  0
  6  2  2  0  0  0  0
  8  7  1  0  0  0  0
  9 16  1  6  0  0  0
  9 11  1  0  0  0  0
  9 13  1  0  0  0  0
 10 14  1  6  0  0  0
 10 12  1  0  0  0  0
 10 15  1  0  0  0  0
 11 10  1  0  0  0  0
 12  8  1  6  0  0  0
 13 12  1  0  0  0  0
 16 24  1  6  0  0  0
 17 20  1  6  0  0  0
 18 21  1  0  0  0  0
 19 17  1  0  0  0  0
 19 16  1  1  0  0  0
 21 20  1  0  0  0  0
 22 18  1  6  0  0  0
 22 19  1  0  0  0  0
 22 17  1  0  0  0  0
 23 21  2  0  0  0  0
 25 26  2  0  0  0  0
 26 24  1  0  0  0  0
 27 26  1  0  0  0  0
 28  1  1  0  0  0  0
 29 31  1  6  0  0  0
 29 30  1  0  0  0  0
 30 28  1  0  0  0  0
 31 30  1  0  0  0  0
 32 36  2  0  0  0  0
 34 36  1  0  0  0  0
 34 33  1  0  0  0  0
 35 49  1  0  0  0  0
 35 37  1  0  0  0  0
 36 35  1  0  0  0  0
 37 33  1  1  0  0  0
 37 29  1  0  0  0  0
 38 34  1  0  0  0  0
 40 38  1  6  0  0  0
 41 42  1  0  0  0  0
 41 40  1  0  0  0  0
 42 39  1  1  0  0  0
 42 40  1  0  0  0  0
 43 42  1  0  0  0  0
 44 45  1  6  0  0  0
 44 43  1  0  0  0  0
 44 46  1  0  0  0  0
 47 46  1  0  0  0  0
 47 48  1  0  0  0  0
 50 49  1  0  0  0  0
 50 51  1  0  0  0  0
 52 53  2  0  0  0  0
 52 51  1  0  0  0  0
M  END
>  <MODEL>
7

>  <REMARK>
 VINA RESULT:      -5.6      3.451      8.287
  Name = 
  20 active torsions:
  status: ('A' for Active; 'I' for Inactive)
    1  A    between atoms: C_1  and  C_14
    2  A    between atoms: C_1  and  C_15
    3  A    between atoms: C_2  and  O_18
    4  A    between atoms: C_2  and  O_21
    5  A    between atoms: C_3  and  C_20
    6  A    between atoms: C_4  and  C_14
    7  A    between atoms: C_4  and  N_29
    8  A    between atoms: C_6  and  C_43
    9  A    between atoms: C_9  and  O_18
   10  A    between atoms: C_12  and  C_43
   11  A    between atoms: C_19  and  C_50
   12  A    between atoms: C_20  and  N_40
   13  A    between atoms: O_21  and  C_52
   14  A    between atoms: N_23  and  C_51
   15  A    between atoms: C_25  and  C_39
   16  A    between atoms: O_28  and  C_36
   17  A    between atoms: O_28  and  C_43
   18  A    between atoms: C_33  and  C_48
   19  A    between atoms: C_42  and  C_51
   20  A    between atoms: C_48  and  C_50
                            x       y       z     vdW  Elec       q    Type
                         _______ _______ _______ _____ _____    ______ ____

>  <TORSDO>
F 20

$$$$
=
 OpenBabel11062420293D

 53 59  0  0  1  0  0  0  0  0999 V2000
  188.3320  174.4170  141.1250 C   0  0  0  0  0  0  0  0  0  0  0  0
  189.5960  172.3850  141.2290 N   0  0  0  0  0  0  0  0  0  0  0  0
  189.1390  173.3580  139.0960 C   0  0  0  0  0  3  0  0  0  0  0  0
  189.7200  172.3530  139.8720 C   0  0  0  0  0  0  0  0  0  0  0  0
  188.4410  174.3910  139.7310 C   0  0  0  0  0  3  0  0  0  0  0  0
  188.9270  173.3870  141.8610 C   0  0  0  0  0  3  0  0  0  0  0  0
  190.4930  171.2530  139.2310 C   0  0  0  0  0  2  0  0  0  0  0  0
  191.8490  171.7420  138.7190 C   0  0  0  0  0  2  0  0  0  0  0  0
  194.8080  171.0670  137.4210 C   0  0  2  0  0  3  0  0  0  0  0  0
  192.8150  171.3760  136.3720 C   0  0  1  0  0  0  0  0  0  0  0  0
  194.2110  171.2990  136.1610 O   0  0  0  0  0  0  0  0  0  0  0  0
  192.4840  170.7510  137.7400 C   0  0  1  0  0  3  0  0  0  0  0  0
  193.8180  170.2770  138.2480 C   0  0  0  0  0  2  0  0  0  0  0  0
  192.4330  172.7210  136.3100 O   0  0  0  0  0  1  0  0  0  0  0  0
  192.1590  170.6790  135.3770 F   0  0  0  0  0  0  0  0  0  0  0  0
  195.1690  172.3730  138.1690 C   0  0  2  0  0  3  0  0  0  0  0  0
  195.1340  174.7700  137.4910 C   0  0  2  0  0  3  0  0  0  0  0  0
  197.8240  175.2480  136.9080 S   0  0  0  0  0  0  0  0  0  0  0  0
  195.7970  173.4220  137.2340 C   0  0  1  0  0  3  0  0  0  0  0  0
  195.2180  175.6300  136.3220 N   0  0  0  0  0  2  0  0  0  0  0  0
  196.5300  176.0580  136.0080 C   0  0  0  0  0  0  0  0  0  0  0  0
  196.5530  174.5010  137.9950 C   0  0  2  0  0  3  0  0  0  0  0  0
  196.7820  176.7640  134.9130 C   0  0  0  0  0  2  0  0  0  0  0  0
  196.0600  172.0530  139.2420 O   0  0  0  0  0  0  0  0  0  0  0  0
  194.7720  173.0560  140.8840 O   0  0  0  0  0  0  0  0  0  0  0  0
  195.8140  172.4240  140.5690 C   0  0  0  0  0  0  0  0  0  0  0  0
  196.7720  172.1160  141.5760 N   0  0  0  0  0  1  0  0  0  0  0  0
  187.6720  175.5410  141.8560 C   0  0  0  0  0  2  0  0  0  0  0  0
  188.2320  176.3190  144.0000 C   0  0  2  0  0  3  0  0  0  0  0  0
  188.6490  176.3430  142.5870 N   0  0  0  0  0  0  0  0  0  0  0  0
  187.9390  177.4930  143.1700 C   0  0  0  0  0  2  0  0  0  0  0  0
  190.8100  177.0100  148.0240 O   0  0  0  0  0  0  0  0  0  0  0  0
  190.6260  175.0920  144.7100 S   0  0  0  0  0  0  0  0  0  0  0  0
  191.3470  175.5770  146.2490 N   0  0  0  0  0  0  0  0  0  0  0  0
  189.2750  176.7870  146.2610 N   0  0  0  0  0  0  0  0  0  0  0  0
  190.4940  176.4800  146.9250 C   0  0  0  0  0  0  0  0  0  0  0  0
  189.4880  176.5150  144.8400 C   0  0  2  0  0  3  0  0  0  0  0  0
  192.7830  175.5650  146.4610 C   0  0  0  0  0  2  0  0  0  0  0  0
  195.5300  176.3830  144.0400 O   0  0  0  0  0  1  0  0  0  0  0  0
  193.4720  176.3730  145.3720 C   0  0  1  0  0  3  0  0  0  0  0  0
  194.4470  177.2070  145.9640 O   0  0  0  0  0  0  0  0  0  0  0  0
  194.9200  176.0800  145.2690 C   0  0  2  0  0  0  0  0  0  0  0  0
  195.4690  175.0620  146.0850 O   0  0  0  0  0  0  0  0  0  0  0  0
  195.9690  173.9840  145.3120 C   0  0  1  0  0  3  0  0  0  0  0  0
  197.4980  173.9970  145.2500 C   0  0  0  0  0  1  0  0  0  0  0  0
  195.4900  172.7330  145.7350 O   0  0  0  0  0  0  0  0  0  0  0  0
  194.9040  172.1730  144.5980 C   0  0  0  0  0  2  0  0  0  0  0  0
  193.4370  172.5730  144.5510 C   0  0  0  0  0  1  0  0  0  0  0  0
  187.9940  176.4880  146.9190 C   0  0  0  0  0  2  0  0  0  0  0  0
  187.0040  177.6410  146.7940 C   0  0  0  0  0  2  0  0  0  0  0  0
  185.6190  177.0710  146.5290 C   0  0  0  0  0  2  0  0  0  0  0  0
  184.9400  177.8110  145.4230 C   0  0  0  0  0  3  0  0  0  0  0  0
  184.2030  179.0230  145.6730 S   0  0  0  0  0  0  0  0  0  0  0  0
  1 28  1  0  0  0  0
  1  6  1  0  0  0  0
  2  6  2  0  0  0  0
  3  5  1  0  0  0  0
  3  4  2  0  0  0  0
  4  2  1  0  0  0  0
  5  1  2  0  0  0  0
  7  4  1  0  0  0  0
  8  7  1  0  0  0  0
  9 16  1  1  0  0  0
  9 13  1  0  0  0  0
 10 15  1  6  0  0  0
 10 12  1  0  0  0  0
 11 10  1  0  0  0  0
 11  9  1  0  0  0  0
 12 13  1  0  0  0  0
 12  8  1  1  0  0  0
 14 10  1  0  0  0  0
 16 24  1  1  0  0  0
 17 20  1  6  0  0  0
 17 22  1  0  0  0  0
 19 17  1  0  0  0  0
 19 22  1  0  0  0  0
 19 16  1  1  0  0  0
 21 20  1  0  0  0  0
 21 18  1  0  0  0  0
 22 18  1  6  0  0  0
 23 21  2  0  0  0  0
 24 26  1  0  0  0  0
 26 25  2  0  0  0  0
 26 27  1  0  0  0  0
 28 30  1  0  0  0  0
 29 31  1  6  0  0  0
 29 37  1  0  0  0  0
 30 31  1  0  0  0  0
 30 29  1  0  0  0  0
 33 34  1  0  0  0  0
 34 38  1  0  0  0  0
 34 36  1  0  0  0  0
 35 49  1  0  0  0  0
 35 36  1  0  0  0  0
 36 32  2  0  0  0  0
 37 33  1  1  0  0  0
 37 35  1  0  0  0  0
 40 41  1  0  0  0  0
 40 38  1  1  0  0  0
 42 39  1  6  0  0  0
 42 40  1  0  0  0  0
 42 41  1  0  0  0  0
 42 43  1  0  0  0  0
 44 45  1  1  0  0  0
 44 46  1  0  0  0  0
 44 43  1  0  0  0  0
 47 46  1  0  0  0  0
 48 47  1  0  0  0  0
 50 49  1  0  0  0  0
 51 50  1  0  0  0  0
 52 53  2  0  0  0  0
 52 51  1  0  0  0  0
M  END
>  <MODEL>
8

>  <REMARK>
 VINA RESULT:      -5.6      3.146      7.259
  Name = 
  20 active torsions:
  status: ('A' for Active; 'I' for Inactive)
    1  A    between atoms: C_1  and  C_14
    2  A    between atoms: C_1  and  C_15
    3  A    between atoms: C_2  and  O_18
    4  A    between atoms: C_2  and  O_21
    5  A    between atoms: C_3  and  C_20
    6  A    between atoms: C_4  and  C_14
    7  A    between atoms: C_4  and  N_29
    8  A    between atoms: C_6  and  C_43
    9  A    between atoms: C_9  and  O_18
   10  A    between atoms: C_12  and  C_43
   11  A    between atoms: C_19  and  C_50
   12  A    between atoms: C_20  and  N_40
   13  A    between atoms: O_21  and  C_52
   14  A    between atoms: N_23  and  C_51
   15  A    between atoms: C_25  and  C_39
   16  A    between atoms: O_28  and  C_36
   17  A    between atoms: O_28  and  C_43
   18  A    between atoms: C_33  and  C_48
   19  A    between atoms: C_42  and  C_51
   20  A    between atoms: C_48  and  C_50
                            x       y       z     vdW  Elec       q    Type
                         _______ _______ _______ _____ _____    ______ ____

>  <TORSDO>
F 20

$$$$
=
 OpenBabel11062420293D

 53 59  0  0  1  0  0  0  0  0999 V2000
  192.4870  176.1640  146.5920 C   0  0  0  0  0  0  0  0  0  0  0  0
  191.1920  177.1580  148.3440 N   0  0  0  0  0  0  0  0  0  0  0  0
  190.3060  177.1210  146.1260 C   0  0  0  0  0  3  0  0  0  0  0  0
  190.1840  177.4570  147.4760 C   0  0  0  0  0  0  0  0  0  0  0  0
  191.4660  176.4730  145.6880 C   0  0  0  0  0  3  0  0  0  0  0  0
  192.3220  176.5220  147.9330 C   0  0  0  0  0  3  0  0  0  0  0  0
  188.9520  178.1220  147.9830 C   0  0  0  0  0  2  0  0  0  0  0  0
  187.9090  178.2950  146.8780 C   0  0  0  0  0  2  0  0  0  0  0  0
  185.3180  176.7840  145.5010 C   0  0  2  0  0  3  0  0  0  0  0  0
  185.3670  178.6260  146.8300 C   0  0  1  0  0  0  0  0  0  0  0  0
  184.5500  177.8820  145.9490 O   0  0  0  0  0  0  0  0  0  0  0  0
  186.5420  177.7400  147.2860 C   0  0  1  0  0  3  0  0  0  0  0  0
  186.2760  176.4220  146.6130 C   0  0  0  0  0  2  0  0  0  0  0  0
  185.8100  179.7730  146.1610 O   0  0  0  0  0  1  0  0  0  0  0  0
  184.6280  179.0100  147.9320 F   0  0  0  0  0  0  0  0  0  0  0  0
  186.1230  177.0930  144.2150 C   0  0  2  0  0  3  0  0  0  0  0  0
  184.2920  178.4100  143.1550 C   0  0  2  0  0  3  0  0  0  0  0  0
  184.9530  178.2440  140.4450 S   0  0  0  0  0  0  0  0  0  0  0  0
  185.2160  177.2100  142.9770 C   0  0  1  0  0  3  0  0  0  0  0  0
  183.0720  178.2540  142.3810 N   0  0  0  0  0  2  0  0  0  0  0  0
  183.2630  178.2980  140.9790 C   0  0  0  0  0  0  0  0  0  0  0  0
  185.4730  178.4840  142.1850 C   0  0  2  0  0  3  0  0  0  0  0  0
  182.2630  178.0710  140.1380 C   0  0  0  0  0  2  0  0  0  0  0  0
  187.1020  176.0660  144.0300 O   0  0  0  0  0  0  0  0  0  0  0  0
  188.8550  177.0610  142.8920 O   0  0  0  0  0  0  0  0  0  0  0  0
  188.0520  176.0980  143.0040 C   0  0  0  0  0  0  0  0  0  0  0  0
  188.0900  175.0460  142.0450 N   0  0  0  0  0  1  0  0  0  0  0  0
  193.7050  175.3970  146.1910 C   0  0  0  0  0  2  0  0  0  0  0  0
  195.1290  174.6650  144.4730 C   0  0  2  0  0  3  0  0  0  0  0  0
  193.9050  175.4380  144.7450 N   0  0  0  0  0  0  0  0  0  0  0  0
  195.1780  176.1310  144.4880 C   0  0  0  0  0  2  0  0  0  0  0  0
  196.6460  172.6980  140.3320 O   0  0  0  0  0  0  0  0  0  0  0  0
  193.8750  172.6800  142.9810 S   0  0  0  0  0  0  0  0  0  0  0  0
  194.6700  172.1820  141.4830 N   0  0  0  0  0  0  0  0  0  0  0  0
  196.2540  173.7320  142.4040 N   0  0  0  0  0  0  0  0  0  0  0  0
  195.9110  172.8470  141.3450 C   0  0  0  0  0  0  0  0  0  0  0  0
  195.0040  174.1140  143.0580 C   0  0  2  0  0  3  0  0  0  0  0  0
  193.9190  171.7040  140.3370 C   0  0  0  0  0  2  0  0  0  0  0  0
  192.1340  174.1180  138.0860 O   0  0  0  0  0  1  0  0  0  0  0  0
  193.8170  172.8040  139.2920 C   0  0  1  0  0  3  0  0  0  0  0  0
  193.5340  172.2230  138.0360 O   0  0  0  0  0  0  0  0  0  0  0  0
  192.4730  172.8880  138.6750 C   0  0  2  0  0  0  0  0  0  0  0  0
  191.4460  172.0450  139.1630 O   0  0  0  0  0  0  0  0  0  0  0  0
  190.2850  172.7810  139.5110 C   0  0  1  0  0  3  0  0  0  0  0  0
  189.0090  172.0520  139.0890 C   0  0  0  0  0  1  0  0  0  0  0  0
  190.2420  173.1320  140.8700 O   0  0  0  0  0  0  0  0  0  0  0  0
  190.3930  171.9240  141.5550 C   0  0  0  0  0  2  0  0  0  0  0  0
  189.4750  171.9270  142.7690 C   0  0  0  0  0  1  0  0  0  0  0  0
  197.4860  173.4990  143.1740 C   0  0  0  0  0  2  0  0  0  0  0  0
  197.6730  172.0270  143.5230 C   0  0  0  0  0  2  0  0  0  0  0  0
  197.3120  171.8210  144.9860 C   0  0  0  0  0  2  0  0  0  0  0  0
  196.8990  170.4080  145.2410 C   0  0  0  0  0  3  0  0  0  0  0  0
  195.8090  170.0930  146.1280 S   0  0  0  0  0  0  0  0  0  0  0  0
  1  6  1  0  0  0  0
  3  4  2  0  0  0  0
  4  7  1  0  0  0  0
  4  2  1  0  0  0  0
  5  3  1  0  0  0  0
  5  1  2  0  0  0  0
  6  2  2  0  0  0  0
  8  7  1  0  0  0  0
  9 16  1  6  0  0  0
  9 11  1  0  0  0  0
  9 13  1  0  0  0  0
 10 14  1  6  0  0  0
 10 12  1  0  0  0  0
 10 15  1  0  0  0  0
 11 10  1  0  0  0  0
 12  8  1  6  0  0  0
 13 12  1  0  0  0  0
 16 24  1  6  0  0  0
 17 20  1  6  0  0  0
 18 21  1  0  0  0  0
 19 17  1  0  0  0  0
 19 16  1  1  0  0  0
 21 20  1  0  0  0  0
 22 18  1  6  0  0  0
 22 19  1  0  0  0  0
 22 17  1  0  0  0  0
 23 21  2  0  0  0  0
 25 26  2  0  0  0  0
 26 24  1  0  0  0  0
 27 26  1  0  0  0  0
 28  1  1  0  0  0  0
 29 31  1  6  0  0  0
 29 30  1  0  0  0  0
 30 28  1  0  0  0  0
 31 30  1  0  0  0  0
 32 36  2  0  0  0  0
 34 33  1  0  0  0  0
 35 37  1  0  0  0  0
 35 49  1  0  0  0  0
 36 34  1  0  0  0  0
 36 35  1  0  0  0  0
 37 33  1  1  0  0  0
 37 29  1  0  0  0  0
 38 34  1  0  0  0  0
 40 38  1  1  0  0  0
 41 42  1  0  0  0  0
 41 40  1  0  0  0  0
 42 39  1  6  0  0  0
 42 43  1  0  0  0  0
 42 40  1  0  0  0  0
 43 44  1  0  0  0  0
 44 45  1  1  0  0  0
 44 46  1  0  0  0  0
 46 47  1  0  0  0  0
 47 48  1  0  0  0  0
 49 50  1  0  0  0  0
 50 51  1  0  0  0  0
 51 52  1  0  0  0  0
 52 53  2  0  0  0  0
M  END
>  <MODEL>
9

>  <REMARK>
 VINA RESULT:      -5.6      3.488      8.888
  Name = 
  20 active torsions:
  status: ('A' for Active; 'I' for Inactive)
    1  A    between atoms: C_1  and  C_14
    2  A    between atoms: C_1  and  C_15
    3  A    between atoms: C_2  and  O_18
    4  A    between atoms: C_2  and  O_21
    5  A    between atoms: C_3  and  C_20
    6  A    between atoms: C_4  and  C_14
    7  A    between atoms: C_4  and  N_29
    8  A    between atoms: C_6  and  C_43
    9  A    between atoms: C_9  and  O_18
   10  A    between atoms: C_12  and  C_43
   11  A    between atoms: C_19  and  C_50
   12  A    between atoms: C_20  and  N_40
   13  A    between atoms: O_21  and  C_52
   14  A    between atoms: N_23  and  C_51
   15  A    between atoms: C_25  and  C_39
   16  A    between atoms: O_28  and  C_36
   17  A    between atoms: O_28  and  C_43
   18  A    between atoms: C_33  and  C_48
   19  A    between atoms: C_42  and  C_51
   20  A    between atoms: C_48  and  C_50
                            x       y       z     vdW  Elec       q    Type
                         _______ _______ _______ _____ _____    ______ ____

>  <TORSDO>
F 20

$$$$
