=
 OpenBabel11072408323D

 62 67  0  0  1  0  0  0  0  0999 V2000
  196.6680  176.1420  144.2140 F   0  0  0  0  0  0  0  0  0  0  0  0
  195.3150  177.9600  145.8430 N   0  0  0  0  0  1  0  0  0  0  0  0
  193.2990  176.6230  145.7180 C   0  0  0  0  0  2  0  0  0  0  0  0
  195.5810  173.6840  143.9460 O   0  0  0  0  0  0  0  0  0  0  0  0
  192.5650  175.5680  144.8940 C   0  0  1  0  0  3  0  0  0  0  0  0
  194.5630  177.0570  144.9910 C   0  0  2  0  0  3  0  0  0  0  0  0
  195.3990  175.9120  144.6190 N   0  0  0  0  0  0  0  0  0  0  0  0
  194.8440  174.6050  144.3990 C   0  0  0  0  0  0  0  0  0  0  0  0
  193.4200  174.2980  144.7990 C   0  0  2  0  0  3  0  0  0  0  0  0
  191.1260  175.3230  146.9700 C   0  0  0  0  0  1  0  0  0  0  0  0
  191.1520  175.2860  145.4440 C   0  0  1  0  0  3  0  0  0  0  0  0
  190.1810  174.3400  142.6900 O   0  0  0  0  0  0  0  0  0  0  0  0
  189.0750  174.8710  142.9900 C   0  0  0  0  0  0  0  0  0  0  0  0
  190.1130  176.2030  144.8390 C   0  0  0  0  0  0  0  0  0  0  0  0
  190.2480  177.4540  144.9250 O   0  0  0  0  0  0  0  0  0  0  0  0
  188.9560  175.6760  144.1760 N   0  0  0  0  0  0  0  0  0  0  0  0
  187.4840  173.3920  141.9830 O   0  0  0  0  0  1  0  0  0  0  0  0
  187.9070  174.7210  142.0630 C   0  0  2  0  0  3  0  0  0  0  0  0
  187.2960  176.3350  140.4140 O   0  0  0  0  0  1  0  0  0  0  0  0
  188.2070  175.3150  140.6840 C   0  0  2  0  0  3  0  0  0  0  0  0
  188.0810  174.6380  138.4110 O   0  0  0  0  0  0  0  0  0  0  0  0
  188.1620  174.2980  139.5810 C   0  0  0  0  0  3  0  0  0  0  0  0
  187.6360  176.0660  144.6690 C   0  0  0  0  0  2  0  0  0  0  0  0
  185.4770  178.5220  144.2700 C   0  0  2  0  0  0  0  0  0  0  0  0
  187.5570  177.5880  144.8010 C   0  0  1  0  0  3  0  0  0  0  0  0
  184.9790  179.8980  143.8900 C   0  0  0  0  0  2  0  0  0  0  0  0
  186.7890  178.1280  143.6250 C   0  0  0  0  0  2  0  0  0  0  0  0
  184.1650  178.6630  143.5170 C   0  0  1  0  0  3  0  0  0  0  0  0
  185.4000  178.2700  145.6420 O   0  0  0  0  0  0  0  0  0  0  0  0
  186.7420  178.0720  146.0140 C   0  0  1  0  0  3  0  0  0  0  0  0
  188.1220  176.7040  147.4060 F   0  0  0  0  0  0  0  0  0  0  0  0
  186.8630  177.2700  147.3110 C   0  0  0  0  0  0  0  0  0  0  0  0
  186.6790  178.1220  148.3850 F   0  0  0  0  0  0  0  0  0  0  0  0
  185.9000  176.2780  147.3580 F   0  0  0  0  0  0  0  0  0  0  0  0
  184.3230  178.3810  142.0330 C   0  0  0  0  0  2  0  0  0  0  0  0
  183.1190  177.8980  141.5200 O   0  0  0  0  0  1  0  0  0  0  0  0
  192.7910  173.2170  143.9140 C   0  0  0  0  0  2  0  0  0  0  0  0
  192.5750  171.8960  144.6470 C   0  0  0  0  0  2  0  0  0  0  0  0
  193.0580  168.8290  144.9870 O   0  0  0  0  0  0  0  0  0  0  0  0
  192.2690  170.9240  142.3620 C   0  0  2  0  0  3  0  0  0  0  0  0
  192.9620  170.0190  141.3350 C   0  0  0  0  0  2  0  0  0  0  0  0
  192.7750  170.7800  143.7300 N   0  0  0  0  0  0  0  0  0  0  0  0
  194.9770  169.5350  143.7570 C   0  0  0  0  0  2  0  0  0  0  0  0
  194.4880  170.1260  141.3180 C   0  0  2  0  0  3  0  0  0  0  0  0
  193.5450  169.6520  144.1670 C   0  0  0  0  0  0  0  0  0  0  0  0
  195.1170  169.1280  142.2930 C   0  0  0  0  0  2  0  0  0  0  0  0
  190.7770  170.6470  142.3350 C   0  0  0  0  0  1  0  0  0  0  0  0
  194.9170  171.4400  141.5620 O   0  0  0  0  0  0  0  0  0  0  0  0
  195.8610  173.1740  140.2450 C   0  0  0  0  0  2  0  0  0  0  0  0
  194.4280  173.5470  140.5850 C   0  0  2  0  0  3  0  0  0  0  0  0
  194.7980  172.0940  140.3360 C   0  0  2  0  0  3  0  0  0  0  0  0
  191.4790  173.3950  139.9120 O   0  0  0  0  0  0  0  0  0  0  0  0
  194.3380  175.1040  138.6590 C   0  0  0  0  0  1  0  0  0  0  0  0
  192.3590  173.6180  139.0360 C   0  0  0  0  0  0  0  0  0  0  0  0
  193.6680  174.0780  139.4450 N   0  0  0  0  0  0  0  0  0  0  0  0
  192.0330  173.4150  137.6000 C   0  0  0  0  0  0  0  0  0  0  0  0
  192.6860  172.4400  136.8250 C   0  0  0  0  0  0  0  0  0  0  0  0
  191.0960  174.2050  137.0100 N   0  0  0  0  0  0  0  0  0  0  0  0
  191.3970  173.1260  134.9400 N   0  0  0  0  0  0  0  0  0  0  0  0
  193.6270  171.6160  137.3500 F   0  0  0  0  0  0  0  0  0  0  0  0
  192.3430  172.3150  135.4790 C   0  0  0  0  0  3  0  0  0  0  0  0
  190.7730  174.0660  135.6980 C   0  0  0  0  0  3  0  0  0  0  0  0
  1  7  1  0  0  0  0
  4  8  2  0  0  0  0
  5 11  1  1  0  0  0
  5  3  1  0  0  0  0
  6  3  1  0  0  0  0
  6  2  1  1  0  0  0
  7  6  1  0  0  0  0
  8  7  1  0  0  0  0
  8  9  1  0  0  0  0
  9 37  1  6  0  0  0
  9  5  1  0  0  0  0
 11 10  1  1  0  0  0
 12 13  2  0  0  0  0
 13 16  1  0  0  0  0
 14 15  2  0  0  0  0
 14 11  1  0  0  0  0
 16 23  1  0  0  0  0
 16 14  1  0  0  0  0
 18 17  1  6  0  0  0
 18 13  1  0  0  0  0
 20 19  1  6  0  0  0
 20 18  1  0  0  0  0
 21 22  2  0  0  0  0
 22 20  1  0  0  0  0
 24 27  1  6  0  0  0
 24 29  1  0  0  0  0
 25 23  1  6  0  0  0
 25 30  1  0  0  0  0
 26 24  1  0  0  0  0
 27 25  1  0  0  0  0
 28 35  1  6  0  0  0
 28 26  1  0  0  0  0
 28 24  1  0  0  0  0
 29 30  1  0  0  0  0
 30 32  1  1  0  0  0
 32 34  1  0  0  0  0
 32 31  1  0  0  0  0
 32 33  1  0  0  0  0
 36 35  1  0  0  0  0
 37 38  1  0  0  0  0
 40 47  1  1  0  0  0
 40 42  1  0  0  0  0
 41 40  1  0  0  0  0
 42 45  1  0  0  0  0
 42 38  1  0  0  0  0
 43 45  1  0  0  0  0
 44 41  1  0  0  0  0
 44 48  1  1  0  0  0
 44 46  1  0  0  0  0
 45 39  2  0  0  0  0
 46 43  1  0  0  0  0
 49 51  1  0  0  0  0
 49 50  1  0  0  0  0
 50 55  1  6  0  0  0
 51 50  1  0  0  0  0
 51 48  1  1  0  0  0
 53 55  1  0  0  0  0
 54 55  1  0  0  0  0
 54 52  2  0  0  0  0
 56 54  1  0  0  0  0
 57 60  1  0  0  0  0
 57 56  2  0  0  0  0
 58 56  1  0  0  0  0
 59 61  2  0  0  0  0
 59 62  1  0  0  0  0
 61 57  1  0  0  0  0
 62 58  2  0  0  0  0
M  END
>  <MODEL>
1

>  <REMARK>
 VINA RESULT:      -7.1      0.000      0.000
  Name = 
  16 active torsions:
  status: ('A' for Active; 'I' for Inactive)
    1  A    between atoms: C_1  and  C_48
    2  A    between atoms: C_1  and  C_62
    3  A    between atoms: C_6  and  C_44
    4  A    between atoms: C_8  and  C_41
    5  A    between atoms: C_11  and  C_15
    6  A    between atoms: C_15  and  C_59
    7  A    between atoms: C_16  and  C_59
    8  A    between atoms: C_17  and  C_35
    9  A    between atoms: C_18  and  C_24
   10  A    between atoms: C_18  and  N_57
   11  A    between atoms: C_19  and  N_56
   12  A    between atoms: N_20  and  C_48
   13  A    between atoms: C_23  and  O_52
   14  A    between atoms: C_32  and  O_52
   15  A    between atoms: C_35  and  C_38
   16  A    between atoms: C_39  and  C_51
                            x       y       z     vdW  Elec       q    Type
                         _______ _______ _______ _____ _____    ______ ____

>  <TORSDO>
F 16

$$$$
=
 OpenBabel11072408323D

 62 67  0  0  1  0  0  0  0  0999 V2000
  197.5990  175.3570  143.7870 F   0  0  0  0  0  0  0  0  0  0  0  0
  196.1120  177.5580  144.6420 N   0  0  0  0  0  1  0  0  0  0  0  0
  194.1630  176.1570  144.9700 C   0  0  0  0  0  2  0  0  0  0  0  0
  196.6330  172.9090  144.3930 O   0  0  0  0  0  0  0  0  0  0  0  0
  193.5060  174.8410  144.5630 C   0  0  1  0  0  3  0  0  0  0  0  0
  195.4290  176.3720  144.1550 C   0  0  2  0  0  3  0  0  0  0  0  0
  196.3290  175.2170  144.2280 N   0  0  0  0  0  0  0  0  0  0  0  0
  195.8400  173.8890  144.4770 C   0  0  0  0  0  0  0  0  0  0  0  0
  194.4200  173.6670  144.9380 C   0  0  2  0  0  3  0  0  0  0  0  0
  192.0800  174.9530  146.6600 C   0  0  0  0  0  1  0  0  0  0  0  0
  192.0890  174.6950  145.1550 C   0  0  1  0  0  3  0  0  0  0  0  0
  190.8840  173.3040  142.6990 O   0  0  0  0  0  0  0  0  0  0  0  0
  189.8380  173.9700  142.9390 C   0  0  0  0  0  0  0  0  0  0  0  0
  191.0780  175.5540  144.4300 C   0  0  0  0  0  0  0  0  0  0  0  0
  191.3020  176.7830  144.2550 O   0  0  0  0  0  0  0  0  0  0  0  0
  189.8480  175.0000  143.9430 N   0  0  0  0  0  0  0  0  0  0  0  0
  188.1310  172.4280  142.2730 O   0  0  0  0  0  1  0  0  0  0  0  0
  188.6060  173.7330  142.1180 C   0  0  2  0  0  3  0  0  0  0  0  0
  188.1610  175.2770  140.3520 O   0  0  0  0  0  1  0  0  0  0  0  0
  188.8350  174.0930  140.6480 C   0  0  2  0  0  3  0  0  0  0  0  0
  189.1410  172.0990  139.3940 O   0  0  0  0  0  0  0  0  0  0  0  0
  188.3940  173.0150  139.7010 C   0  0  0  0  0  3  0  0  0  0  0  0
  188.5910  175.5820  144.4110 C   0  0  0  0  0  2  0  0  0  0  0  0
  186.5050  178.0930  143.9700 C   0  0  2  0  0  0  0  0  0  0  0  0
  188.6110  177.0980  144.2070 C   0  0  1  0  0  3  0  0  0  0  0  0
  185.9870  179.3980  143.4110 C   0  0  0  0  0  2  0  0  0  0  0  0
  187.6010  177.4480  143.1470 C   0  0  0  0  0  2  0  0  0  0  0  0
  185.0550  178.1960  143.5260 C   0  0  1  0  0  3  0  0  0  0  0  0
  186.7570  178.1440  145.3420 O   0  0  0  0  0  0  0  0  0  0  0  0
  188.1390  177.9020  145.4320 C   0  0  1  0  0  3  0  0  0  0  0  0
  188.0050  178.1920  147.8010 F   0  0  0  0  0  0  0  0  0  0  0  0
  188.5410  177.3840  146.8140 C   0  0  0  0  0  0  0  0  0  0  0  0
  188.0460  176.1020  146.9740 F   0  0  0  0  0  0  0  0  0  0  0  0
  189.9180  177.3500  146.9360 F   0  0  0  0  0  0  0  0  0  0  0  0
  184.8330  177.5930  142.1500 C   0  0  0  0  0  2  0  0  0  0  0  0
  183.5990  178.0110  141.6520 O   0  0  0  0  0  1  0  0  0  0  0  0
  193.8700  172.3110  144.4860 C   0  0  0  0  0  2  0  0  0  0  0  0
  194.2720  171.1640  145.4090 C   0  0  0  0  0  2  0  0  0  0  0  0
  195.7190  168.4690  146.0440 O   0  0  0  0  0  0  0  0  0  0  0  0
  194.0010  169.7690  143.3500 C   0  0  2  0  0  3  0  0  0  0  0  0
  194.8070  168.9400  142.3410 C   0  0  0  0  0  2  0  0  0  0  0  0
  194.6930  170.0130  144.6180 N   0  0  0  0  0  0  0  0  0  0  0  0
  197.1570  169.4760  144.4260 C   0  0  0  0  0  2  0  0  0  0  0  0
  196.2100  169.4750  142.0520 C   0  0  2  0  0  3  0  0  0  0  0  0
  195.8220  169.2460  145.0560 C   0  0  0  0  0  0  0  0  0  0  0  0
  197.2320  168.8820  143.0230 C   0  0  0  0  0  2  0  0  0  0  0  0
  192.6760  169.0760  143.6120 C   0  0  0  0  0  1  0  0  0  0  0  0
  196.2380  170.8790  142.0520 O   0  0  0  0  0  0  0  0  0  0  0  0
  197.4030  171.1710  140.0060 C   0  0  0  0  0  2  0  0  0  0  0  0
  196.8550  172.5170  140.4490 C   0  0  2  0  0  3  0  0  0  0  0  0
  196.0650  171.2460  140.7190 C   0  0  2  0  0  3  0  0  0  0  0  0
  195.3940  175.1700  140.4780 O   0  0  0  0  0  0  0  0  0  0  0  0
  196.6070  172.9060  138.0140 C   0  0  0  0  0  1  0  0  0  0  0  0
  195.2360  174.3230  139.5550 C   0  0  0  0  0  0  0  0  0  0  0  0
  196.2240  173.2850  139.3660 N   0  0  0  0  0  0  0  0  0  0  0  0
  194.0430  174.4150  138.6740 C   0  0  0  0  0  0  0  0  0  0  0  0
  192.9400  173.5560  138.8310 C   0  0  0  0  0  0  0  0  0  0  0  0
  194.0210  175.3350  137.6720 N   0  0  0  0  0  0  0  0  0  0  0  0
  191.8880  174.6240  136.9770 N   0  0  0  0  0  0  0  0  0  0  0  0
  192.8930  172.6180  139.8110 F   0  0  0  0  0  0  0  0  0  0  0  0
  191.8610  173.6850  137.9570 C   0  0  0  0  0  3  0  0  0  0  0  0
  192.9600  175.4480  136.8330 C   0  0  0  0  0  3  0  0  0  0  0  0
  1  7  1  0  0  0  0
  4  8  2  0  0  0  0
  5  9  1  0  0  0  0
  5  3  1  0  0  0  0
  5 11  1  1  0  0  0
  6  7  1  0  0  0  0
  6  2  1  1  0  0  0
  6  3  1  0  0  0  0
  7  8  1  0  0  0  0
  8  9  1  0  0  0  0
  9 37  1  6  0  0  0
 11 10  1  1  0  0  0
 12 13  2  0  0  0  0
 13 16  1  0  0  0  0
 14 11  1  0  0  0  0
 15 14  2  0  0  0  0
 16 23  1  0  0  0  0
 16 14  1  0  0  0  0
 18 17  1  6  0  0  0
 18 13  1  0  0  0  0
 20 19  1  6  0  0  0
 20 18  1  0  0  0  0
 21 22  2  0  0  0  0
 22 20  1  0  0  0  0
 24 27  1  6  0  0  0
 24 29  1  0  0  0  0
 25 23  1  1  0  0  0
 25 30  1  0  0  0  0
 26 28  1  0  0  0  0
 26 24  1  0  0  0  0
 27 25  1  0  0  0  0
 28 35  1  6  0  0  0
 28 24  1  0  0  0  0
 29 30  1  0  0  0  0
 30 32  1  1  0  0  0
 32 34  1  0  0  0  0
 32 33  1  0  0  0  0
 32 31  1  0  0  0  0
 36 35  1  0  0  0  0
 37 38  1  0  0  0  0
 40 47  1  1  0  0  0
 40 42  1  0  0  0  0
 41 40  1  0  0  0  0
 42 45  1  0  0  0  0
 42 38  1  0  0  0  0
 43 45  1  0  0  0  0
 44 48  1  1  0  0  0
 44 41  1  0  0  0  0
 44 46  1  0  0  0  0
 45 39  2  0  0  0  0
 46 43  1  0  0  0  0
 49 50  1  0  0  0  0
 49 51  1  0  0  0  0
 50 55  1  6  0  0  0
 50 51  1  0  0  0  0
 51 48  1  1  0  0  0
 53 55  1  0  0  0  0
 54 52  2  0  0  0  0
 55 54  1  0  0  0  0
 56 57  1  0  0  0  0
 56 54  1  0  0  0  0
 57 60  1  0  0  0  0
 58 56  2  0  0  0  0
 59 61  1  0  0  0  0
 61 57  2  0  0  0  0
 62 59  2  0  0  0  0
 62 58  1  0  0  0  0
M  END
>  <MODEL>
2

>  <REMARK>
 VINA RESULT:      -6.6      1.588      2.053
  Name = 
  16 active torsions:
  status: ('A' for Active; 'I' for Inactive)
    1  A    between atoms: C_1  and  C_48
    2  A    between atoms: C_1  and  C_62
    3  A    between atoms: C_6  and  C_44
    4  A    between atoms: C_8  and  C_41
    5  A    between atoms: C_11  and  C_15
    6  A    between atoms: C_15  and  C_59
    7  A    between atoms: C_16  and  C_59
    8  A    between atoms: C_17  and  C_35
    9  A    between atoms: C_18  and  C_24
   10  A    between atoms: C_18  and  N_57
   11  A    between atoms: C_19  and  N_56
   12  A    between atoms: N_20  and  C_48
   13  A    between atoms: C_23  and  O_52
   14  A    between atoms: C_32  and  O_52
   15  A    between atoms: C_35  and  C_38
   16  A    between atoms: C_39  and  C_51
                            x       y       z     vdW  Elec       q    Type
                         _______ _______ _______ _____ _____    ______ ____

>  <TORSDO>
F 16

$$$$
=
 OpenBabel11072408323D

 62 67  0  0  1  0  0  0  0  0999 V2000
  187.1520  179.2560  141.9800 F   0  0  0  0  0  0  0  0  0  0  0  0
  185.9150  177.4180  140.2820 N   0  0  0  0  0  1  0  0  0  0  0  0
  187.4490  175.6820  140.9880 C   0  0  0  0  0  2  0  0  0  0  0  0
  188.7100  178.2580  143.9470 O   0  0  0  0  0  0  0  0  0  0  0  0
  188.8210  175.4220  141.6060 C   0  0  1  0  0  3  0  0  0  0  0  0
  187.2690  177.1720  140.7470 C   0  0  2  0  0  3  0  0  0  0  0  0
  187.5290  177.9580  141.9570 N   0  0  0  0  0  0  0  0  0  0  0  0
  188.4090  177.4890  142.9920 C   0  0  0  0  0  0  0  0  0  0  0  0
  188.8910  176.0580  143.0000 C   0  0  2  0  0  3  0  0  0  0  0  0
  188.0970  173.0840  140.9310 C   0  0  0  0  0  1  0  0  0  0  0  0
  189.1690  173.9190  141.6270 C   0  0  1  0  0  3  0  0  0  0  0  0
  190.2150  171.1210  142.3320 O   0  0  0  0  0  0  0  0  0  0  0  0
  190.8320  171.1650  141.2310 C   0  0  0  0  0  0  0  0  0  0  0  0
  190.5480  173.6470  141.0680 C   0  0  0  0  0  0  0  0  0  0  0  0
  191.4350  174.5430  141.1090 O   0  0  0  0  0  0  0  0  0  0  0  0
  190.8680  172.3840  140.4690 N   0  0  0  0  0  0  0  0  0  0  0  0
  190.8680  168.7850  140.9710 O   0  0  0  0  0  1  0  0  0  0  0  0
  191.5910  169.9620  140.7600 C   0  0  2  0  0  3  0  0  0  0  0  0
  193.9030  169.4670  140.4270 O   0  0  0  0  0  1  0  0  0  0  0  0
  192.9880  169.9000  141.3850 C   0  0  2  0  0  3  0  0  0  0  0  0
  192.7920  169.4230  143.7040 O   0  0  0  0  0  0  0  0  0  0  0  0
  193.0580  169.0050  142.5870 C   0  0  0  0  0  3  0  0  0  0  0  0
  191.3430  172.3710  139.0860 C   0  0  0  0  0  2  0  0  0  0  0  0
  190.7550  173.6020  136.0870 C   0  0  2  0  0  0  0  0  0  0  0  0
  190.1730  172.6200  138.1310 C   0  0  1  0  0  3  0  0  0  0  0  0
  190.0170  174.3580  135.0070 C   0  0  0  0  0  2  0  0  0  0  0  0
  190.3550  173.9740  137.5000 C   0  0  0  0  0  2  0  0  0  0  0  0
  191.5270  174.5170  135.1510 C   0  0  1  0  0  3  0  0  0  0  0  0
  190.8320  172.2290  135.8430 O   0  0  0  0  0  0  0  0  0  0  0  0
  190.1340  171.6640  136.9250 C   0  0  1  0  0  3  0  0  0  0  0  0
  191.8290  170.1410  137.6460 F   0  0  0  0  0  0  0  0  0  0  0  0
  190.5340  170.2070  137.1660 C   0  0  0  0  0  0  0  0  0  0  0  0
  189.6840  169.6580  138.1090 F   0  0  0  0  0  0  0  0  0  0  0  0
  190.4330  169.4780  135.9950 F   0  0  0  0  0  0  0  0  0  0  0  0
  191.8380  175.8590  135.7900 C   0  0  0  0  0  2  0  0  0  0  0  0
  193.2180  175.9950  135.9420 O   0  0  0  0  0  1  0  0  0  0  0  0
  190.2680  175.9150  143.6550 C   0  0  0  0  0  2  0  0  0  0  0  0
  190.1920  175.6870  145.1630 C   0  0  0  0  0  2  0  0  0  0  0  0
  191.6140  174.9940  147.8560 O   0  0  0  0  0  0  0  0  0  0  0  0
  191.3660  173.5160  144.7490 C   0  0  2  0  0  3  0  0  0  0  0  0
  192.7400  172.8460  144.8750 C   0  0  0  0  0  2  0  0  0  0  0  0
  191.2040  174.7190  145.5700 N   0  0  0  0  0  0  0  0  0  0  0  0
  193.4380  175.5460  146.4190 C   0  0  0  0  0  2  0  0  0  0  0  0
  193.9290  173.7790  144.6380 C   0  0  2  0  0  3  0  0  0  0  0  0
  192.0590  175.0330  146.6770 C   0  0  0  0  0  0  0  0  0  0  0  0
  194.3750  174.4390  145.9430 C   0  0  0  0  0  2  0  0  0  0  0  0
  190.2900  172.5050  145.1000 C   0  0  0  0  0  1  0  0  0  0  0  0
  193.6510  174.7260  143.6380 O   0  0  0  0  0  0  0  0  0  0  0  0
  195.4720  176.1170  143.0210 C   0  0  0  0  0  2  0  0  0  0  0  0
  194.6300  175.8420  141.7870 C   0  0  2  0  0  3  0  0  0  0  0  0
  194.7990  174.7670  142.8490 C   0  0  2  0  0  3  0  0  0  0  0  0
  193.7790  174.9910  139.0070 O   0  0  0  0  0  0  0  0  0  0  0  0
  196.8120  175.9300  140.6150 C   0  0  0  0  0  1  0  0  0  0  0  0
  194.9310  174.7480  139.4630 C   0  0  0  0  0  0  0  0  0  0  0  0
  195.4210  175.5040  140.5940 N   0  0  0  0  0  0  0  0  0  0  0  0
  195.7650  173.6980  138.8230 C   0  0  0  0  0  0  0  0  0  0  0  0
  196.0440  172.4800  139.4700 C   0  0  0  0  0  0  0  0  0  0  0  0
  196.2970  173.9250  137.5920 N   0  0  0  0  0  0  0  0  0  0  0  0
  197.3500  171.8210  137.5870 N   0  0  0  0  0  0  0  0  0  0  0  0
  195.5440  172.1870  140.6970 F   0  0  0  0  0  0  0  0  0  0  0  0
  196.8490  171.5460  138.8190 C   0  0  0  0  0  3  0  0  0  0  0  0
  197.0760  173.0020  136.9720 C   0  0  0  0  0  3  0  0  0  0  0  0
  3  5  1  0  0  0  0
  5 11  1  1  0  0  0
  5  9  1  0  0  0  0
  6  2  1  1  0  0  0
  6  3  1  0  0  0  0
  6  7  1  0  0  0  0
  7  1  1  0  0  0  0
  7  8  1  0  0  0  0
  8  9  1  0  0  0  0
  8  4  2  0  0  0  0
  9 37  1  6  0  0  0
 11 10  1  6  0  0  0
 13 12  2  0  0  0  0
 14 15  2  0  0  0  0
 14 11  1  0  0  0  0
 16 14  1  0  0  0  0
 16 13  1  0  0  0  0
 18 17  1  1  0  0  0
 18 13  1  0  0  0  0
 18 20  1  0  0  0  0
 20 19  1  6  0  0  0
 20 22  1  0  0  0  0
 22 21  2  0  0  0  0
 23 16  1  0  0  0  0
 24 26  1  6  0  0  0
 24 27  1  0  0  0  0
 25 23  1  1  0  0  0
 26 28  1  0  0  0  0
 27 25  1  0  0  0  0
 28 35  1  1  0  0  0
 28 24  1  0  0  0  0
 29 24  1  0  0  0  0
 29 30  1  0  0  0  0
 30 32  1  1  0  0  0
 30 25  1  0  0  0  0
 32 31  1  0  0  0  0
 32 33  1  0  0  0  0
 34 32  1  0  0  0  0
 35 36  1  0  0  0  0
 37 38  1  0  0  0  0
 38 42  1  0  0  0  0
 40 41  1  0  0  0  0
 40 47  1  1  0  0  0
 40 42  1  0  0  0  0
 42 45  1  0  0  0  0
 43 45  1  0  0  0  0
 44 48  1  6  0  0  0
 44 41  1  0  0  0  0
 44 46  1  0  0  0  0
 45 39  2  0  0  0  0
 46 43  1  0  0  0  0
 50 55  1  6  0  0  0
 50 51  1  0  0  0  0
 50 49  1  0  0  0  0
 51 49  1  0  0  0  0
 51 48  1  1  0  0  0
 52 54  2  0  0  0  0
 54 55  1  0  0  0  0
 55 53  1  0  0  0  0
 56 54  1  0  0  0  0
 56 57  1  0  0  0  0
 57 60  1  0  0  0  0
 58 56  2  0  0  0  0
 59 61  1  0  0  0  0
 61 57  2  0  0  0  0
 62 59  2  0  0  0  0
 62 58  1  0  0  0  0
M  END
>  <MODEL>
3

>  <REMARK>
 VINA RESULT:      -6.5      3.033      7.558
  Name = 
  16 active torsions:
  status: ('A' for Active; 'I' for Inactive)
    1  A    between atoms: C_1  and  C_48
    2  A    between atoms: C_1  and  C_62
    3  A    between atoms: C_6  and  C_44
    4  A    between atoms: C_8  and  C_41
    5  A    between atoms: C_11  and  C_15
    6  A    between atoms: C_15  and  C_59
    7  A    between atoms: C_16  and  C_59
    8  A    between atoms: C_17  and  C_35
    9  A    between atoms: C_18  and  C_24
   10  A    between atoms: C_18  and  N_57
   11  A    between atoms: C_19  and  N_56
   12  A    between atoms: N_20  and  C_48
   13  A    between atoms: C_23  and  O_52
   14  A    between atoms: C_32  and  O_52
   15  A    between atoms: C_35  and  C_38
   16  A    between atoms: C_39  and  C_51
                            x       y       z     vdW  Elec       q    Type
                         _______ _______ _______ _____ _____    ______ ____

>  <TORSDO>
F 16

$$$$
=
 OpenBabel11072408323D

 62 67  0  0  1  0  0  0  0  0999 V2000
  197.3560  177.2850  143.6910 F   0  0  0  0  0  0  0  0  0  0  0  0
  195.6310  178.1760  145.6950 N   0  0  0  0  0  1  0  0  0  0  0  0
  193.8880  176.6910  144.9030 C   0  0  0  0  0  2  0  0  0  0  0  0
  196.7310  174.9560  142.4750 O   0  0  0  0  0  0  0  0  0  0  0  0
  193.3910  175.9060  143.6920 C   0  0  1  0  0  3  0  0  0  0  0  0
  195.0880  177.5380  144.5080 C   0  0  2  0  0  3  0  0  0  0  0  0
  196.1300  176.7400  143.8540 N   0  0  0  0  0  0  0  0  0  0  0  0
  195.8230  175.5330  143.1380 C   0  0  0  0  0  0  0  0  0  0  0  0
  194.4590  174.8960  143.2540 C   0  0  2  0  0  3  0  0  0  0  0  0
  191.8930  174.7880  145.4100 C   0  0  0  0  0  1  0  0  0  0  0  0
  192.0250  175.2390  143.9570 C   0  0  1  0  0  3  0  0  0  0  0  0
  190.6870  174.2890  141.3640 O   0  0  0  0  0  0  0  0  0  0  0  0
  189.6190  174.7690  141.8370 C   0  0  0  0  0  0  0  0  0  0  0  0
  190.8710  176.1200  143.5330 C   0  0  0  0  0  0  0  0  0  0  0  0
  190.9670  177.3740  143.6220 O   0  0  0  0  0  0  0  0  0  0  0  0
  189.6480  175.5530  143.0420 N   0  0  0  0  0  0  0  0  0  0  0  0
  187.4810  173.6950  141.7580 O   0  0  0  0  0  1  0  0  0  0  0  0
  188.3310  174.5820  141.0930 C   0  0  2  0  0  3  0  0  0  0  0  0
  187.8510  174.9990  138.7920 O   0  0  0  0  0  1  0  0  0  0  0  0
  188.5780  174.1660  139.6410 C   0  0  2  0  0  3  0  0  0  0  0  0
  189.0790  171.8950  139.1590 O   0  0  0  0  0  0  0  0  0  0  0  0
  188.2180  172.7350  139.3680 C   0  0  0  0  0  3  0  0  0  0  0  0
  188.4040  175.8810  143.7350 C   0  0  0  0  0  2  0  0  0  0  0  0
  186.0940  178.2290  143.7890 C   0  0  2  0  0  0  0  0  0  0  0  0
  188.2790  177.3970  143.8960 C   0  0  1  0  0  3  0  0  0  0  0  0
  185.4660  179.5780  143.5270 C   0  0  0  0  0  2  0  0  0  0  0  0
  187.2720  177.8990  142.8970 C   0  0  0  0  0  2  0  0  0  0  0  0
  184.6540  178.3060  143.3070 C   0  0  1  0  0  3  0  0  0  0  0  0
  186.2980  177.9720  145.1470 O   0  0  0  0  0  0  0  0  0  0  0  0
  187.6940  177.8400  145.2490 C   0  0  1  0  0  3  0  0  0  0  0  0
  189.4580  176.7640  146.4510 F   0  0  0  0  0  0  0  0  0  0  0  0
  188.1040  177.0430  146.4900 C   0  0  0  0  0  0  0  0  0  0  0  0
  187.8400  177.8010  147.6160 F   0  0  0  0  0  0  0  0  0  0  0  0
  187.3850  175.8640  146.5660 F   0  0  0  0  0  0  0  0  0  0  0  0
  184.5340  178.0320  141.8180 C   0  0  0  0  0  2  0  0  0  0  0  0
  183.1870  177.9990  141.4580 O   0  0  0  0  0  1  0  0  0  0  0  0
  194.0710  174.1250  141.9890 C   0  0  0  0  0  2  0  0  0  0  0  0
  194.2350  174.9470  140.7130 C   0  0  0  0  0  2  0  0  0  0  0  0
  193.8370  175.3870  137.6460 O   0  0  0  0  0  0  0  0  0  0  0  0
  194.8430  172.7650  139.6500 C   0  0  2  0  0  3  0  0  0  0  0  0
  194.3110  171.7130  138.6680 C   0  0  0  0  0  2  0  0  0  0  0  0
  194.1870  174.0720  139.5480 N   0  0  0  0  0  0  0  0  0  0  0  0
  192.0480  173.9100  138.2080 C   0  0  0  0  0  2  0  0  0  0  0  0
  192.7940  171.5170  138.7050 C   0  0  2  0  0  3  0  0  0  0  0  0
  193.4160  174.4750  138.4080 C   0  0  0  0  0  0  0  0  0  0  0  0
  192.0960  172.4630  137.7270 C   0  0  0  0  0  2  0  0  0  0  0  0
  196.3380  172.9240  139.4400 C   0  0  0  0  0  1  0  0  0  0  0  0
  192.2880  171.6420  140.0090 O   0  0  0  0  0  0  0  0  0  0  0  0
  191.5220  169.7030  141.1430 C   0  0  0  0  0  2  0  0  0  0  0  0
  192.2790  170.5760  142.1290 C   0  0  2  0  0  3  0  0  0  0  0  0
  192.7270  170.5000  140.6790 C   0  0  2  0  0  3  0  0  0  0  0  0
  193.1420  171.0250  144.9980 O   0  0  0  0  0  0  0  0  0  0  0  0
  193.5520  168.4890  142.5350 C   0  0  0  0  0  1  0  0  0  0  0  0
  193.8320  170.3510  144.1840 C   0  0  0  0  0  0  0  0  0  0  0  0
  193.2100  169.8300  142.9870 N   0  0  0  0  0  0  0  0  0  0  0  0
  195.2660  170.0950  144.4760 C   0  0  0  0  0  0  0  0  0  0  0  0
  195.6680  169.1230  145.4100 C   0  0  0  0  0  0  0  0  0  0  0  0
  196.2190  170.8340  143.8450 N   0  0  0  0  0  0  0  0  0  0  0  0
  197.9410  169.7080  144.9870 N   0  0  0  0  0  0  0  0  0  0  0  0
  194.7730  168.3490  146.0720 F   0  0  0  0  0  0  0  0  0  0  0  0
  197.0320  168.9470  145.6480 C   0  0  0  0  0  3  0  0  0  0  0  0
  197.5410  170.6460  144.0880 C   0  0  0  0  0  3  0  0  0  0  0  0
  1  7  1  0  0  0  0
  4  8  2  0  0  0  0
  5 11  1  1  0  0  0
  5  3  1  0  0  0  0
  6  3  1  0  0  0  0
  6  2  1  1  0  0  0
  7  6  1  0  0  0  0
  8  9  1  0  0  0  0
  8  7  1  0  0  0  0
  9 37  1  6  0  0  0
  9  5  1  0  0  0  0
 11 10  1  1  0  0  0
 12 13  2  0  0  0  0
 13 16  1  0  0  0  0
 14 15  2  0  0  0  0
 14 11  1  0  0  0  0
 16 14  1  0  0  0  0
 16 23  1  0  0  0  0
 18 17  1  1  0  0  0
 18 13  1  0  0  0  0
 20 19  1  6  0  0  0
 20 18  1  0  0  0  0
 21 22  2  0  0  0  0
 22 20  1  0  0  0  0
 24 27  1  6  0  0  0
 24 29  1  0  0  0  0
 25 23  1  1  0  0  0
 25 30  1  0  0  0  0
 26 24  1  0  0  0  0
 27 25  1  0  0  0  0
 28 35  1  6  0  0  0
 28 26  1  0  0  0  0
 28 24  1  0  0  0  0
 29 30  1  0  0  0  0
 30 32  1  1  0  0  0
 31 32  1  0  0  0  0
 32 34  1  0  0  0  0
 32 33  1  0  0  0  0
 36 35  1  0  0  0  0
 38 37  1  0  0  0  0
 39 45  2  0  0  0  0
 40 47  1  6  0  0  0
 41 44  1  0  0  0  0
 41 40  1  0  0  0  0
 42 40  1  0  0  0  0
 42 38  1  0  0  0  0
 43 45  1  0  0  0  0
 44 48  1  1  0  0  0
 45 42  1  0  0  0  0
 46 43  1  0  0  0  0
 46 44  1  0  0  0  0
 49 50  1  0  0  0  0
 50 55  1  1  0  0  0
 51 48  1  6  0  0  0
 51 49  1  0  0  0  0
 51 50  1  0  0  0  0
 53 55  1  0  0  0  0
 54 56  1  0  0  0  0
 54 52  2  0  0  0  0
 55 54  1  0  0  0  0
 56 57  1  0  0  0  0
 57 61  2  0  0  0  0
 57 60  1  0  0  0  0
 58 62  1  0  0  0  0
 58 56  2  0  0  0  0
 59 61  1  0  0  0  0
 62 59  2  0  0  0  0
M  END
>  <MODEL>
4

>  <REMARK>
 VINA RESULT:      -6.2      1.991      4.853
  Name = 
  16 active torsions:
  status: ('A' for Active; 'I' for Inactive)
    1  A    between atoms: C_1  and  C_48
    2  A    between atoms: C_1  and  C_62
    3  A    between atoms: C_6  and  C_44
    4  A    between atoms: C_8  and  C_41
    5  A    between atoms: C_11  and  C_15
    6  A    between atoms: C_15  and  C_59
    7  A    between atoms: C_16  and  C_59
    8  A    between atoms: C_17  and  C_35
    9  A    between atoms: C_18  and  C_24
   10  A    between atoms: C_18  and  N_57
   11  A    between atoms: C_19  and  N_56
   12  A    between atoms: N_20  and  C_48
   13  A    between atoms: C_23  and  O_52
   14  A    between atoms: C_32  and  O_52
   15  A    between atoms: C_35  and  C_38
   16  A    between atoms: C_39  and  C_51
                            x       y       z     vdW  Elec       q    Type
                         _______ _______ _______ _____ _____    ______ ____

>  <TORSDO>
F 16

$$$$
=
 OpenBabel11072408323D

 62 67  0  0  1  0  0  0  0  0999 V2000
  196.4800  170.0650  147.1410 F   0  0  0  0  0  0  0  0  0  0  0  0
  196.3010  168.2440  145.0340 N   0  0  0  0  0  1  0  0  0  0  0  0
  196.1560  170.0570  143.4340 C   0  0  0  0  0  2  0  0  0  0  0  0
  197.1440  172.6080  146.5170 O   0  0  0  0  0  0  0  0  0  0  0  0
  195.7940  171.5310  143.2670 C   0  0  1  0  0  3  0  0  0  0  0  0
  195.8330  169.6060  144.8510 C   0  0  2  0  0  3  0  0  0  0  0  0
  196.4460  170.4810  145.8550 N   0  0  0  0  0  0  0  0  0  0  0  0
  196.7460  171.8590  145.5800 C   0  0  0  0  0  0  0  0  0  0  0  0
  196.6920  172.3900  144.1680 C   0  0  2  0  0  3  0  0  0  0  0  0
  196.4210  170.8800  140.8950 C   0  0  0  0  0  1  0  0  0  0  0  0
  195.8460  171.9750  141.7900 C   0  0  1  0  0  3  0  0  0  0  0  0
  196.0650  173.7710  139.3120 O   0  0  0  0  0  0  0  0  0  0  0  0
  194.9370  173.3100  138.9810 C   0  0  0  0  0  0  0  0  0  0  0  0
  194.5030  172.4610  141.2960 C   0  0  0  0  0  0  0  0  0  0  0  0
  193.6260  172.8400  142.1190 O   0  0  0  0  0  0  0  0  0  0  0  0
  194.1940  172.4860  139.8960 N   0  0  0  0  0  0  0  0  0  0  0  0
  194.9360  172.9800  136.6090 O   0  0  0  0  0  1  0  0  0  0  0  0
  194.3420  173.6870  137.6570 C   0  0  2  0  0  3  0  0  0  0  0  0
  193.1250  175.6550  137.0710 O   0  0  0  0  0  1  0  0  0  0  0  0
  194.3920  175.2010  137.4330 C   0  0  2  0  0  3  0  0  0  0  0  0
  195.1650  176.5430  135.6320 O   0  0  0  0  0  0  0  0  0  0  0  0
  195.3890  175.6110  136.3880 C   0  0  0  0  0  3  0  0  0  0  0  0
  193.0290  171.7350  139.4280 C   0  0  0  0  0  2  0  0  0  0  0  0
  189.8260  172.3500  138.9700 C   0  0  2  0  0  0  0  0  0  0  0  0
  191.7900  172.1450  140.2260 C   0  0  1  0  0  3  0  0  0  0  0  0
  188.4940  173.0390  139.1570 C   0  0  0  0  0  2  0  0  0  0  0  0
  191.0220  173.1600  139.4230 C   0  0  0  0  0  2  0  0  0  0  0  0
  188.9780  172.6880  137.7540 C   0  0  1  0  0  3  0  0  0  0  0  0
  189.8220  171.0210  139.3990 O   0  0  0  0  0  0  0  0  0  0  0  0
  190.7730  171.0090  140.4350 C   0  0  1  0  0  3  0  0  0  0  0  0
  191.5660  168.9640  139.4850 F   0  0  0  0  0  0  0  0  0  0  0  0
  191.3250  169.6040  140.6870 C   0  0  0  0  0  0  0  0  0  0  0  0
  192.5180  169.7090  141.3800 F   0  0  0  0  0  0  0  0  0  0  0  0
  190.4350  168.8620  141.4410 F   0  0  0  0  0  0  0  0  0  0  0  0
  189.4590  173.9470  137.0530 C   0  0  0  0  0  2  0  0  0  0  0  0
  190.0890  173.6020  135.8570 O   0  0  0  0  0  1  0  0  0  0  0  0
  196.3350  173.8790  144.1230 C   0  0  0  0  0  2  0  0  0  0  0  0
  195.0150  174.1990  144.8180 C   0  0  0  0  0  2  0  0  0  0  0  0
  194.9380  177.0770  146.0290 O   0  0  0  0  0  0  0  0  0  0  0  0
  194.3680  175.6950  142.9200 C   0  0  2  0  0  3  0  0  0  0  0  0
  193.3630  176.7890  142.5360 C   0  0  0  0  0  2  0  0  0  0  0  0
  194.5140  175.4910  144.3640 N   0  0  0  0  0  0  0  0  0  0  0  0
  192.6320  176.6060  145.6330 C   0  0  0  0  0  2  0  0  0  0  0  0
  191.9770  176.6290  143.1620 C   0  0  2  0  0  3  0  0  0  0  0  0
  194.0890  176.4520  145.3390 C   0  0  0  0  0  0  0  0  0  0  0  0
  191.9010  177.3420  144.5140 C   0  0  0  0  0  2  0  0  0  0  0  0
  195.7170  176.0290  142.3090 C   0  0  0  0  0  1  0  0  0  0  0  0
  191.6060  175.2780  143.2590 O   0  0  0  0  0  0  0  0  0  0  0  0
  189.6160  174.0520  142.8500 C   0  0  0  0  0  2  0  0  0  0  0  0
  189.5230  175.3850  142.1280 C   0  0  2  0  0  3  0  0  0  0  0  0
  190.2280  175.2940  143.4710 C   0  0  2  0  0  3  0  0  0  0  0  0
  188.6860  178.2550  141.6420 O   0  0  0  0  0  0  0  0  0  0  0  0
  187.0670  175.1730  142.3810 C   0  0  0  0  0  1  0  0  0  0  0  0
  188.0340  177.4820  142.3970 C   0  0  0  0  0  0  0  0  0  0  0  0
  188.2230  176.0530  142.2830 N   0  0  0  0  0  0  0  0  0  0  0  0
  187.0780  178.0520  143.3800 C   0  0  0  0  0  0  0  0  0  0  0  0
  187.3010  177.9600  144.7660 C   0  0  0  0  0  0  0  0  0  0  0  0
  185.9440  178.6590  142.9360 N   0  0  0  0  0  0  0  0  0  0  0  0
  185.2400  179.1020  145.1370 N   0  0  0  0  0  0  0  0  0  0  0  0
  188.4110  177.3720  145.2780 F   0  0  0  0  0  0  0  0  0  0  0  0
  186.3530  178.5020  145.6340 C   0  0  0  0  0  3  0  0  0  0  0  0
  185.0340  179.1840  143.7960 C   0  0  0  0  0  3  0  0  0  0  0  0
  3  6  1  0  0  0  0
  5 11  1  6  0  0  0
  5  3  1  0  0  0  0
  5  9  1  0  0  0  0
  6  2  1  1  0  0  0
  6  7  1  0  0  0  0
  7  1  1  0  0  0  0
  8  7  1  0  0  0  0
  8  4  2  0  0  0  0
  9 37  1  1  0  0  0
  9  8  1  0  0  0  0
 11 10  1  6  0  0  0
 13 12  2  0  0  0  0
 13 16  1  0  0  0  0
 14 11  1  0  0  0  0
 14 15  2  0  0  0  0
 16 14  1  0  0  0  0
 18 17  1  6  0  0  0
 18 13  1  0  0  0  0
 20 19  1  6  0  0  0
 20 18  1  0  0  0  0
 21 22  2  0  0  0  0
 22 20  1  0  0  0  0
 23 16  1  0  0  0  0
 24 26  1  1  0  0  0
 24 29  1  0  0  0  0
 24 27  1  0  0  0  0
 25 23  1  6  0  0  0
 25 30  1  0  0  0  0
 27 25  1  0  0  0  0
 28 35  1  6  0  0  0
 28 24  1  0  0  0  0
 28 26  1  0  0  0  0
 29 30  1  0  0  0  0
 30 32  1  6  0  0  0
 31 32  1  0  0  0  0
 32 33  1  0  0  0  0
 32 34  1  0  0  0  0
 36 35  1  0  0  0  0
 37 38  1  0  0  0  0
 40 47  1  1  0  0  0
 40 42  1  0  0  0  0
 41 40  1  0  0  0  0
 41 44  1  0  0  0  0
 42 38  1  0  0  0  0
 42 45  1  0  0  0  0
 44 48  1  1  0  0  0
 44 46  1  0  0  0  0
 45 43  1  0  0  0  0
 45 39  2  0  0  0  0
 46 43  1  0  0  0  0
 49 51  1  0  0  0  0
 50 55  1  1  0  0  0
 50 49  1  0  0  0  0
 50 51  1  0  0  0  0
 51 48  1  6  0  0  0
 52 54  2  0  0  0  0
 54 56  1  0  0  0  0
 55 53  1  0  0  0  0
 55 54  1  0  0  0  0
 56 57  1  0  0  0  0
 57 60  1  0  0  0  0
 57 61  2  0  0  0  0
 58 56  2  0  0  0  0
 58 62  1  0  0  0  0
 59 61  1  0  0  0  0
 62 59  2  0  0  0  0
M  END
>  <MODEL>
5

>  <REMARK>
 VINA RESULT:      -5.9      2.830      8.200
  Name = 
  16 active torsions:
  status: ('A' for Active; 'I' for Inactive)
    1  A    between atoms: C_1  and  C_48
    2  A    between atoms: C_1  and  C_62
    3  A    between atoms: C_6  and  C_44
    4  A    between atoms: C_8  and  C_41
    5  A    between atoms: C_11  and  C_15
    6  A    between atoms: C_15  and  C_59
    7  A    between atoms: C_16  and  C_59
    8  A    between atoms: C_17  and  C_35
    9  A    between atoms: C_18  and  C_24
   10  A    between atoms: C_18  and  N_57
   11  A    between atoms: C_19  and  N_56
   12  A    between atoms: N_20  and  C_48
   13  A    between atoms: C_23  and  O_52
   14  A    between atoms: C_32  and  O_52
   15  A    between atoms: C_35  and  C_38
   16  A    between atoms: C_39  and  C_51
                            x       y       z     vdW  Elec       q    Type
                         _______ _______ _______ _____ _____    ______ ____

>  <TORSDO>
F 16

$$$$
=
 OpenBabel11072408323D

 62 67  0  0  1  0  0  0  0  0999 V2000
  196.7470  176.0270  144.3520 F   0  0  0  0  0  0  0  0  0  0  0  0
  195.2660  178.0140  145.6340 N   0  0  0  0  0  1  0  0  0  0  0  0
  193.2910  176.6110  145.6000 C   0  0  0  0  0  2  0  0  0  0  0  0
  195.7340  173.5230  144.3830 O   0  0  0  0  0  0  0  0  0  0  0  0
  192.6280  175.4280  144.8990 C   0  0  1  0  0  3  0  0  0  0  0  0
  194.5820  176.9760  144.8830 C   0  0  2  0  0  3  0  0  0  0  0  0
  195.4640  175.8170  144.7210 N   0  0  0  0  0  0  0  0  0  0  0  0
  194.9520  174.4750  144.6620 C   0  0  0  0  0  0  0  0  0  0  0  0
  193.5170  174.1840  145.0290 C   0  0  2  0  0  3  0  0  0  0  0  0
  191.1080  175.3260  146.9290 C   0  0  0  0  0  1  0  0  0  0  0  0
  191.1940  175.1820  145.4120 C   0  0  1  0  0  3  0  0  0  0  0  0
  190.1160  173.9070  142.8370 O   0  0  0  0  0  0  0  0  0  0  0  0
  189.0410  174.5250  143.0800 C   0  0  0  0  0  0  0  0  0  0  0  0
  190.1810  176.0530  144.7040 C   0  0  0  0  0  0  0  0  0  0  0  0
  190.3710  177.2960  144.6100 O   0  0  0  0  0  0  0  0  0  0  0  0
  188.9860  175.4920  144.1430 N   0  0  0  0  0  0  0  0  0  0  0  0
  187.4540  172.9590  142.2050 O   0  0  0  0  0  1  0  0  0  0  0  0
  187.8450  174.3010  142.2050 C   0  0  2  0  0  3  0  0  0  0  0  0
  189.3690  174.4990  140.3790 O   0  0  0  0  0  1  0  0  0  0  0  0
  188.0790  174.8330  140.7880 C   0  0  2  0  0  3  0  0  0  0  0  0
  186.9510  176.7860  140.0440 O   0  0  0  0  0  0  0  0  0  0  0  0
  187.8860  176.3170  140.6760 C   0  0  0  0  0  3  0  0  0  0  0  0
  187.6960  176.0070  144.6010 C   0  0  0  0  0  2  0  0  0  0  0  0
  185.8380  178.6960  144.1920 C   0  0  2  0  0  0  0  0  0  0  0  0
  187.7760  177.5230  144.7850 C   0  0  1  0  0  3  0  0  0  0  0  0
  185.5120  180.1290  143.8390 C   0  0  0  0  0  2  0  0  0  0  0  0
  187.1310  178.1810  143.5940 C   0  0  0  0  0  2  0  0  0  0  0  0
  184.5890  179.0040  143.3830 C   0  0  1  0  0  3  0  0  0  0  0  0
  185.6650  178.4100  145.5480 O   0  0  0  0  0  0  0  0  0  0  0  0
  186.9570  178.0550  145.9750 C   0  0  1  0  0  3  0  0  0  0  0  0
  185.9590  176.2190  147.1360 F   0  0  0  0  0  0  0  0  0  0  0  0
  186.9250  177.2040  147.2470 C   0  0  0  0  0  0  0  0  0  0  0  0
  188.1570  176.5990  147.4130 F   0  0  0  0  0  0  0  0  0  0  0  0
  186.6610  177.9940  148.3510 F   0  0  0  0  0  0  0  0  0  0  0  0
  184.7910  178.7520  141.8990 C   0  0  0  0  0  2  0  0  0  0  0  0
  184.2470  177.5140  141.5580 O   0  0  0  0  0  1  0  0  0  0  0  0
  192.9620  172.9700  144.2770 C   0  0  0  0  0  2  0  0  0  0  0  0
  193.3780  171.6400  144.9000 C   0  0  0  0  0  2  0  0  0  0  0  0
  194.5070  168.7280  144.8690 O   0  0  0  0  0  0  0  0  0  0  0  0
  193.2540  170.9110  142.5100 C   0  0  2  0  0  3  0  0  0  0  0  0
  194.1090  170.3060  141.3880 C   0  0  0  0  0  2  0  0  0  0  0  0
  193.7980  170.7130  143.8560 N   0  0  0  0  0  0  0  0  0  0  0  0
  196.2140  169.9710  143.7570 C   0  0  0  0  0  2  0  0  0  0  0  0
  195.5760  170.7360  141.4030 C   0  0  2  0  0  3  0  0  0  0  0  0
  194.7970  169.7300  144.1610 C   0  0  0  0  0  0  0  0  0  0  0  0
  196.4170  169.7850  142.2560 C   0  0  0  0  0  2  0  0  0  0  0  0
  191.8540  170.3280  142.4310 C   0  0  0  0  0  1  0  0  0  0  0  0
  195.7190  172.0730  141.8110 O   0  0  0  0  0  0  0  0  0  0  0  0
  197.7320  173.2840  141.4740 C   0  0  0  0  0  2  0  0  0  0  0  0
  196.5610  174.1680  141.0810 C   0  0  2  0  0  3  0  0  0  0  0  0
  196.5050  172.6700  140.8260 C   0  0  2  0  0  3  0  0  0  0  0  0
  194.6680  174.7330  138.7840 O   0  0  0  0  0  0  0  0  0  0  0  0
  197.9400  175.7440  139.7540 C   0  0  0  0  0  1  0  0  0  0  0  0
  195.9220  174.7610  138.6460 C   0  0  0  0  0  0  0  0  0  0  0  0
  196.7630  174.8890  139.8160 N   0  0  0  0  0  0  0  0  0  0  0  0
  196.5110  174.6730  137.2850 C   0  0  0  0  0  0  0  0  0  0  0  0
  197.1060  173.4890  136.8130 C   0  0  0  0  0  0  0  0  0  0  0  0
  196.4990  175.7690  136.4790 N   0  0  0  0  0  0  0  0  0  0  0  0
  197.6120  174.6020  134.7650 N   0  0  0  0  0  0  0  0  0  0  0  0
  197.1500  172.3580  137.5610 F   0  0  0  0  0  0  0  0  0  0  0  0
  197.6560  173.4810  135.5310 C   0  0  0  0  0  3  0  0  0  0  0  0
  197.0370  175.7410  135.2320 C   0  0  0  0  0  3  0  0  0  0  0  0
  1  7  1  0  0  0  0
  4  8  2  0  0  0  0
  5  9  1  0  0  0  0
  5 11  1  1  0  0  0
  5  3  1  0  0  0  0
  6  3  1  0  0  0  0
  6  2  1  1  0  0  0
  7  6  1  0  0  0  0
  8  7  1  0  0  0  0
  8  9  1  0  0  0  0
  9 37  1  6  0  0  0
 11 10  1  1  0  0  0
 12 13  2  0  0  0  0
 13 16  1  0  0  0  0
 14 11  1  0  0  0  0
 15 14  2  0  0  0  0
 16 23  1  0  0  0  0
 16 14  1  0  0  0  0
 18 17  1  6  0  0  0
 18 13  1  0  0  0  0
 20 19  1  1  0  0  0
 20 18  1  0  0  0  0
 21 22  2  0  0  0  0
 22 20  1  0  0  0  0
 24 27  1  6  0  0  0
 24 29  1  0  0  0  0
 25 23  1  6  0  0  0
 25 30  1  0  0  0  0
 26 24  1  0  0  0  0
 27 25  1  0  0  0  0
 28 35  1  6  0  0  0
 28 26  1  0  0  0  0
 28 24  1  0  0  0  0
 29 30  1  0  0  0  0
 30 32  1  1  0  0  0
 31 32  1  0  0  0  0
 32 33  1  0  0  0  0
 32 34  1  0  0  0  0
 36 35  1  0  0  0  0
 37 38  1  0  0  0  0
 40 47  1  1  0  0  0
 40 42  1  0  0  0  0
 41 44  1  0  0  0  0
 41 40  1  0  0  0  0
 42 45  1  0  0  0  0
 42 38  1  0  0  0  0
 43 45  1  0  0  0  0
 44 48  1  1  0  0  0
 44 46  1  0  0  0  0
 45 39  2  0  0  0  0
 46 43  1  0  0  0  0
 50 55  1  6  0  0  0
 50 49  1  0  0  0  0
 51 50  1  0  0  0  0
 51 49  1  0  0  0  0
 51 48  1  1  0  0  0
 53 55  1  0  0  0  0
 54 52  2  0  0  0  0
 54 55  1  0  0  0  0
 56 54  1  0  0  0  0
 57 56  1  0  0  0  0
 57 60  1  0  0  0  0
 58 56  2  0  0  0  0
 59 62  2  0  0  0  0
 59 61  1  0  0  0  0
 61 57  2  0  0  0  0
 62 58  1  0  0  0  0
M  END
>  <MODEL>
6

>  <REMARK>
 VINA RESULT:      -5.9      1.988      2.284
  Name = 
  16 active torsions:
  status: ('A' for Active; 'I' for Inactive)
    1  A    between atoms: C_1  and  C_48
    2  A    between atoms: C_1  and  C_62
    3  A    between atoms: C_6  and  C_44
    4  A    between atoms: C_8  and  C_41
    5  A    between atoms: C_11  and  C_15
    6  A    between atoms: C_15  and  C_59
    7  A    between atoms: C_16  and  C_59
    8  A    between atoms: C_17  and  C_35
    9  A    between atoms: C_18  and  C_24
   10  A    between atoms: C_18  and  N_57
   11  A    between atoms: C_19  and  N_56
   12  A    between atoms: N_20  and  C_48
   13  A    between atoms: C_23  and  O_52
   14  A    between atoms: C_32  and  O_52
   15  A    between atoms: C_35  and  C_38
   16  A    between atoms: C_39  and  C_51
                            x       y       z     vdW  Elec       q    Type
                         _______ _______ _______ _____ _____    ______ ____

>  <TORSDO>
F 16

$$$$
=
 OpenBabel11072408323D

 62 67  0  0  1  0  0  0  0  0999 V2000
  197.2180  171.9330  146.5740 F   0  0  0  0  0  0  0  0  0  0  0  0
  196.7290  169.4910  145.3160 N   0  0  0  0  0  1  0  0  0  0  0  0
  194.6710  170.3510  144.3700 C   0  0  0  0  0  2  0  0  0  0  0  0
  195.8550  174.0800  145.6650 O   0  0  0  0  0  0  0  0  0  0  0  0
  193.5870  171.4140  144.5320 C   0  0  1  0  0  3  0  0  0  0  0  0
  195.6320  170.4150  145.5470 C   0  0  2  0  0  3  0  0  0  0  0  0
  196.1590  171.7680  145.7510 N   0  0  0  0  0  0  0  0  0  0  0  0
  195.4270  172.9360  145.3440 C   0  0  0  0  0  0  0  0  0  0  0  0
  194.2150  172.8120  144.4530 C   0  0  2  0  0  3  0  0  0  0  0  0
  191.1800  171.9710  143.9530 C   0  0  0  0  0  1  0  0  0  0  0  0
  192.4390  171.2270  143.5180 C   0  0  1  0  0  3  0  0  0  0  0  0
  190.3980  170.3560  141.3980 O   0  0  0  0  0  0  0  0  0  0  0  0
  190.7750  171.3670  140.7410 C   0  0  0  0  0  0  0  0  0  0  0  0
  192.8570  171.5960  142.1130 C   0  0  0  0  0  0  0  0  0  0  0  0
  194.0560  171.4500  141.7500 O   0  0  0  0  0  0  0  0  0  0  0  0
  191.9120  172.1320  141.1760 N   0  0  0  0  0  0  0  0  0  0  0  0
  188.7730  172.1620  139.6950 O   0  0  0  0  0  1  0  0  0  0  0  0
  190.0770  171.7200  139.4610 C   0  0  2  0  0  3  0  0  0  0  0  0
  191.2380  169.7680  138.7250 O   0  0  0  0  0  1  0  0  0  0  0  0
  190.1220  170.5610  138.4610 C   0  0  2  0  0  3  0  0  0  0  0  0
  190.8310  170.4310  136.1980 O   0  0  0  0  0  0  0  0  0  0  0  0
  190.1580  171.0170  137.0310 C   0  0  0  0  0  3  0  0  0  0  0  0
  192.1860  173.4410  140.5840 C   0  0  0  0  0  2  0  0  0  0  0  0
  193.3120  174.6550  137.7360 C   0  0  2  0  0  0  0  0  0  0  0  0
  193.4180  173.3560  139.6810 C   0  0  1  0  0  3  0  0  0  0  0  0
  194.0260  174.6610  136.4040 C   0  0  0  0  0  2  0  0  0  0  0  0
  192.9540  173.2760  138.2510 C   0  0  0  0  0  2  0  0  0  0  0  0
  192.6530  175.3130  136.5350 C   0  0  1  0  0  3  0  0  0  0  0  0
  193.9020  175.4980  138.6800 O   0  0  0  0  0  0  0  0  0  0  0  0
  194.3010  174.6170  139.7020 C   0  0  1  0  0  3  0  0  0  0  0  0
  195.2130  174.5550  141.9100 F   0  0  0  0  0  0  0  0  0  0  0  0
  194.4730  175.3360  141.0420 C   0  0  0  0  0  0  0  0  0  0  0  0
  195.1480  176.5240  140.8300 F   0  0  0  0  0  0  0  0  0  0  0  0
  193.2400  175.6160  141.6020 F   0  0  0  0  0  0  0  0  0  0  0  0
  191.6040  174.4200  135.8960 C   0  0  0  0  0  2  0  0  0  0  0  0
  190.4060  174.5320  136.6000 O   0  0  0  0  0  1  0  0  0  0  0  0
  193.2030  173.9370  144.6910 C   0  0  0  0  0  2  0  0  0  0  0  0
  192.9240  174.1850  146.1710 C   0  0  0  0  0  2  0  0  0  0  0  0
  191.5780  175.6190  148.5980 O   0  0  0  0  0  0  0  0  0  0  0  0
  192.0620  176.3510  145.2620 C   0  0  2  0  0  3  0  0  0  0  0  0
  190.7900  177.2060  145.1880 C   0  0  0  0  0  2  0  0  0  0  0  0
  192.0490  175.3410  146.3240 N   0  0  0  0  0  0  0  0  0  0  0  0
  189.7120  175.0150  147.2370 C   0  0  0  0  0  2  0  0  0  0  0  0
  189.4880  176.4070  145.1050 C   0  0  2  0  0  3  0  0  0  0  0  0
  191.1460  175.3860  147.4370 C   0  0  0  0  0  0  0  0  0  0  0  0
  188.9410  176.1070  146.5010 C   0  0  0  0  0  2  0  0  0  0  0  0
  193.2610  177.2640  145.4360 C   0  0  0  0  0  1  0  0  0  0  0  0
  189.6460  175.2410  144.3400 O   0  0  0  0  0  0  0  0  0  0  0  0
  188.7900  174.1590  142.4080 C   0  0  0  0  0  2  0  0  0  0  0  0
  189.0860  175.6090  142.0630 C   0  0  2  0  0  3  0  0  0  0  0  0
  188.5750  175.2440  143.4470 C   0  0  2  0  0  3  0  0  0  0  0  0
  188.2910  178.5220  141.8280 O   0  0  0  0  0  0  0  0  0  0  0  0
  187.4420  175.4650  140.2140 C   0  0  0  0  0  1  0  0  0  0  0  0
  187.4960  177.5820  141.5490 C   0  0  0  0  0  0  0  0  0  0  0  0
  188.0220  176.2610  141.2860 N   0  0  0  0  0  0  0  0  0  0  0  0
  186.0360  177.8510  141.4870 C   0  0  0  0  0  0  0  0  0  0  0  0
  185.2380  177.8670  142.6450 C   0  0  0  0  0  0  0  0  0  0  0  0
  185.4470  178.0650  140.2800 N   0  0  0  0  0  0  0  0  0  0  0  0
  183.3340  178.3210  141.2830 N   0  0  0  0  0  0  0  0  0  0  0  0
  185.7600  177.6650  143.8810 F   0  0  0  0  0  0  0  0  0  0  0  0
  183.8700  178.1090  142.5120 C   0  0  0  0  0  3  0  0  0  0  0  0
  184.1140  178.3020  140.1700 C   0  0  0  0  0  3  0  0  0  0  0  0
  3  5  1  0  0  0  0
  3  6  1  0  0  0  0
  5 11  1  6  0  0  0
  6  2  1  6  0  0  0
  6  7  1  0  0  0  0
  7  1  1  0  0  0  0
  8  4  2  0  0  0  0
  8  7  1  0  0  0  0
  9  5  1  0  0  0  0
  9 37  1  1  0  0  0
  9  8  1  0  0  0  0
 11 10  1  1  0  0  0
 13 16  1  0  0  0  0
 13 12  2  0  0  0  0
 14 11  1  0  0  0  0
 15 14  2  0  0  0  0
 16 14  1  0  0  0  0
 18 17  1  1  0  0  0
 18 13  1  0  0  0  0
 20 19  1  1  0  0  0
 20 18  1  0  0  0  0
 21 22  2  0  0  0  0
 22 20  1  0  0  0  0
 23 16  1  0  0  0  0
 24 26  1  6  0  0  0
 24 27  1  0  0  0  0
 24 29  1  0  0  0  0
 25 30  1  0  0  0  0
 25 23  1  1  0  0  0
 26 28  1  0  0  0  0
 27 25  1  0  0  0  0
 28 35  1  6  0  0  0
 28 24  1  0  0  0  0
 29 30  1  0  0  0  0
 30 32  1  1  0  0  0
 32 34  1  0  0  0  0
 32 31  1  0  0  0  0
 33 32  1  0  0  0  0
 35 36  1  0  0  0  0
 37 38  1  0  0  0  0
 38 42  1  0  0  0  0
 40 47  1  1  0  0  0
 40 42  1  0  0  0  0
 41 40  1  0  0  0  0
 42 45  1  0  0  0  0
 43 45  1  0  0  0  0
 44 48  1  1  0  0  0
 44 41  1  0  0  0  0
 44 46  1  0  0  0  0
 45 39  2  0  0  0  0
 46 43  1  0  0  0  0
 49 51  1  0  0  0  0
 50 55  1  6  0  0  0
 50 49  1  0  0  0  0
 50 51  1  0  0  0  0
 51 48  1  1  0  0  0
 53 55  1  0  0  0  0
 54 52  2  0  0  0  0
 55 54  1  0  0  0  0
 56 54  1  0  0  0  0
 56 57  1  0  0  0  0
 57 60  1  0  0  0  0
 58 56  2  0  0  0  0
 59 61  1  0  0  0  0
 61 57  2  0  0  0  0
 62 58  1  0  0  0  0
 62 59  2  0  0  0  0
M  END
>  <MODEL>
7

>  <REMARK>
 VINA RESULT:      -5.7      2.687      7.811
  Name = 
  16 active torsions:
  status: ('A' for Active; 'I' for Inactive)
    1  A    between atoms: C_1  and  C_48
    2  A    between atoms: C_1  and  C_62
    3  A    between atoms: C_6  and  C_44
    4  A    between atoms: C_8  and  C_41
    5  A    between atoms: C_11  and  C_15
    6  A    between atoms: C_15  and  C_59
    7  A    between atoms: C_16  and  C_59
    8  A    between atoms: C_17  and  C_35
    9  A    between atoms: C_18  and  C_24
   10  A    between atoms: C_18  and  N_57
   11  A    between atoms: C_19  and  N_56
   12  A    between atoms: N_20  and  C_48
   13  A    between atoms: C_23  and  O_52
   14  A    between atoms: C_32  and  O_52
   15  A    between atoms: C_35  and  C_38
   16  A    between atoms: C_39  and  C_51
                            x       y       z     vdW  Elec       q    Type
                         _______ _______ _______ _____ _____    ______ ____

>  <TORSDO>
F 16

$$$$
=
 OpenBabel11072408323D

 62 67  0  0  1  0  0  0  0  0999 V2000
  188.9370  174.4640  139.0490 F   0  0  0  0  0  0  0  0  0  0  0  0
  189.1960  171.8170  138.2060 N   0  0  0  0  0  1  0  0  0  0  0  0
  190.3770  171.2480  140.2430 C   0  0  0  0  0  2  0  0  0  0  0  0
  189.3090  174.9610  141.6770 O   0  0  0  0  0  0  0  0  0  0  0  0
  191.2040  171.8200  141.3920 C   0  0  1  0  0  3  0  0  0  0  0  0
  190.0900  172.3400  139.2240 C   0  0  2  0  0  3  0  0  0  0  0  0
  189.4940  173.5260  139.8460 N   0  0  0  0  0  0  0  0  0  0  0  0
  189.7290  173.8590  141.2240 C   0  0  0  0  0  0  0  0  0  0  0  0
  190.3790  172.8640  142.1560 C   0  0  2  0  0  3  0  0  0  0  0  0
  191.1870  169.3430  141.9470 C   0  0  0  0  0  1  0  0  0  0  0  0
  191.7510  170.7130  142.3170 C   0  0  1  0  0  3  0  0  0  0  0  0
  193.0290  170.2540  139.5650 O   0  0  0  0  0  0  0  0  0  0  0  0
  193.9810  170.9720  139.9800 C   0  0  0  0  0  0  0  0  0  0  0  0
  193.2620  170.7070  142.3640 C   0  0  0  0  0  0  0  0  0  0  0  0
  193.8640  170.1200  143.3040 O   0  0  0  0  0  0  0  0  0  0  0  0
  194.0360  171.3760  141.3590 N   0  0  0  0  0  0  0  0  0  0  0  0
  194.8110  172.5130  138.3460 O   0  0  0  0  0  1  0  0  0  0  0  0
  195.0950  171.3370  139.0450 C   0  0  2  0  0  3  0  0  0  0  0  0
  196.5530  169.5000  138.6030 O   0  0  0  0  0  1  0  0  0  0  0  0
  195.4410  170.1780  138.1070 C   0  0  2  0  0  3  0  0  0  0  0  0
  196.3800  169.9370  135.9380 O   0  0  0  0  0  0  0  0  0  0  0  0
  195.7100  170.6200  136.6980 C   0  0  0  0  0  3  0  0  0  0  0  0
  194.9740  172.4150  141.7830 C   0  0  0  0  0  2  0  0  0  0  0  0
  195.7550  174.2920  144.3750 C   0  0  2  0  0  0  0  0  0  0  0  0
  194.3050  173.3360  142.8050 C   0  0  1  0  0  3  0  0  0  0  0  0
  195.6010  174.9290  145.7370 C   0  0  0  0  0  2  0  0  0  0  0  0
  194.9040  173.0580  144.1580 C   0  0  0  0  0  2  0  0  0  0  0  0
  196.9470  174.3500  145.3160 C   0  0  1  0  0  3  0  0  0  0  0  0
  195.7240  175.2160  143.3290 O   0  0  0  0  0  0  0  0  0  0  0  0
  194.5930  174.8320  142.5860 C   0  0  1  0  0  3  0  0  0  0  0  0
  194.9220  176.6920  141.1210 F   0  0  0  0  0  0  0  0  0  0  0  0
  194.6610  175.3340  141.1420 C   0  0  0  0  0  0  0  0  0  0  0  0
  195.6840  174.6750  140.4860 F   0  0  0  0  0  0  0  0  0  0  0  0
  193.4710  175.0780  140.4850 F   0  0  0  0  0  0  0  0  0  0  0  0
  197.1780  173.0300  146.0310 C   0  0  0  0  0  2  0  0  0  0  0  0
  197.6530  172.0840  145.1210 O   0  0  0  0  0  1  0  0  0  0  0  0
  191.1670  173.5490  143.2750 C   0  0  0  0  0  2  0  0  0  0  0  0
  190.3080  173.8900  144.4900 C   0  0  0  0  0  2  0  0  0  0  0  0
  192.6530  174.5300  146.4520 O   0  0  0  0  0  0  0  0  0  0  0  0
  190.5000  176.3850  144.4950 C   0  0  2  0  0  3  0  0  0  0  0  0
  190.5530  177.5880  145.4470 C   0  0  0  0  0  2  0  0  0  0  0  0
  190.8100  175.1010  145.1290 N   0  0  0  0  0  0  0  0  0  0  0  0
  190.7350  175.2920  147.6500 C   0  0  0  0  0  2  0  0  0  0  0  0
  189.7070  177.4360  146.7130 C   0  0  2  0  0  3  0  0  0  0  0  0
  191.4810  174.9910  146.3920 C   0  0  0  0  0  0  0  0  0  0  0  0
  190.5180  176.7900  147.8380 C   0  0  0  0  0  2  0  0  0  0  0  0
  191.4520  176.6300  143.3390 C   0  0  0  0  0  1  0  0  0  0  0  0
  188.5150  176.7400  146.4580 O   0  0  0  0  0  0  0  0  0  0  0  0
  186.5870  178.0650  146.0570 C   0  0  0  0  0  2  0  0  0  0  0  0
  186.5240  176.8330  145.1690 C   0  0  2  0  0  3  0  0  0  0  0  0
  187.8630  177.4850  145.4750 C   0  0  2  0  0  3  0  0  0  0  0  0
  185.8970  179.4510  143.7800 O   0  0  0  0  0  0  0  0  0  0  0  0
  186.3610  176.0550  142.8210 C   0  0  0  0  0  1  0  0  0  0  0  0
  185.4850  178.3410  143.3440 C   0  0  0  0  0  0  0  0  0  0  0  0
  186.1260  177.1220  143.7840 N   0  0  0  0  0  0  0  0  0  0  0  0
  184.3560  178.3080  142.3780 C   0  0  0  0  0  0  0  0  0  0  0  0
  184.5740  178.2910  140.9880 C   0  0  0  0  0  0  0  0  0  0  0  0
  183.0780  178.3190  142.8430 N   0  0  0  0  0  0  0  0  0  0  0  0
  182.2120  178.2840  140.6550 N   0  0  0  0  0  0  0  0  0  0  0  0
  185.8210  178.2750  140.4560 F   0  0  0  0  0  0  0  0  0  0  0  0
  183.4680  178.2770  140.1380 C   0  0  0  0  0  3  0  0  0  0  0  0
  182.0140  178.3020  142.0000 C   0  0  0  0  0  3  0  0  0  0  0  0
  1  7  1  0  0  0  0
  3  5  1  0  0  0  0
  5  9  1  0  0  0  0
  5 11  1  1  0  0  0
  6  2  1  6  0  0  0
  6  7  1  0  0  0  0
  6  3  1  0  0  0  0
  7  8  1  0  0  0  0
  8  4  2  0  0  0  0
  8  9  1  0  0  0  0
  9 37  1  1  0  0  0
 11 10  1  6  0  0  0
 11 14  1  0  0  0  0
 12 13  2  0  0  0  0
 13 16  1  0  0  0  0
 14 15  2  0  0  0  0
 16 23  1  0  0  0  0
 16 14  1  0  0  0  0
 18 17  1  6  0  0  0
 18 13  1  0  0  0  0
 20 19  1  1  0  0  0
 20 18  1  0  0  0  0
 21 22  2  0  0  0  0
 22 20  1  0  0  0  0
 24 27  1  6  0  0  0
 24 28  1  0  0  0  0
 24 26  1  0  0  0  0
 25 23  1  6  0  0  0
 25 27  1  0  0  0  0
 28 26  1  0  0  0  0
 28 35  1  1  0  0  0
 29 24  1  0  0  0  0
 30 32  1  6  0  0  0
 30 25  1  0  0  0  0
 30 29  1  0  0  0  0
 31 32  1  0  0  0  0
 33 32  1  0  0  0  0
 34 32  1  0  0  0  0
 36 35  1  0  0  0  0
 37 38  1  0  0  0  0
 38 42  1  0  0  0  0
 40 47  1  6  0  0  0
 40 42  1  0  0  0  0
 40 41  1  0  0  0  0
 41 44  1  0  0  0  0
 42 45  1  0  0  0  0
 43 46  1  0  0  0  0
 44 48  1  6  0  0  0
 44 46  1  0  0  0  0
 45 39  2  0  0  0  0
 45 43  1  0  0  0  0
 50 55  1  6  0  0  0
 50 51  1  0  0  0  0
 50 49  1  0  0  0  0
 51 49  1  0  0  0  0
 51 48  1  1  0  0  0
 53 55  1  0  0  0  0
 54 52  2  0  0  0  0
 54 55  1  0  0  0  0
 56 58  1  0  0  0  0
 56 54  1  0  0  0  0
 57 56  2  0  0  0  0
 59 62  1  0  0  0  0
 60 57  1  0  0  0  0
 61 59  2  0  0  0  0
 61 57  1  0  0  0  0
 62 58  2  0  0  0  0
M  END
>  <MODEL>
8

>  <REMARK>
 VINA RESULT:      -5.3      2.969      9.360
  Name = 
  16 active torsions:
  status: ('A' for Active; 'I' for Inactive)
    1  A    between atoms: C_1  and  C_48
    2  A    between atoms: C_1  and  C_62
    3  A    between atoms: C_6  and  C_44
    4  A    between atoms: C_8  and  C_41
    5  A    between atoms: C_11  and  C_15
    6  A    between atoms: C_15  and  C_59
    7  A    between atoms: C_16  and  C_59
    8  A    between atoms: C_17  and  C_35
    9  A    between atoms: C_18  and  C_24
   10  A    between atoms: C_18  and  N_57
   11  A    between atoms: C_19  and  N_56
   12  A    between atoms: N_20  and  C_48
   13  A    between atoms: C_23  and  O_52
   14  A    between atoms: C_32  and  O_52
   15  A    between atoms: C_35  and  C_38
   16  A    between atoms: C_39  and  C_51
                            x       y       z     vdW  Elec       q    Type
                         _______ _______ _______ _____ _____    ______ ____

>  <TORSDO>
F 16

$$$$
=
 OpenBabel11072408323D

 62 67  0  0  1  0  0  0  0  0999 V2000
  190.9060  172.7390  145.0710 F   0  0  0  0  0  0  0  0  0  0  0  0
  188.8630  171.8400  143.3950 N   0  0  0  0  0  1  0  0  0  0  0  0
  190.4870  170.8860  141.8720 C   0  0  0  0  0  2  0  0  0  0  0  0
  193.3420  171.6170  144.7520 O   0  0  0  0  0  0  0  0  0  0  0  0
  191.9420  170.9550  141.4140 C   0  0  1  0  0  3  0  0  0  0  0  0
  190.2090  171.9980  142.8710 C   0  0  2  0  0  3  0  0  0  0  0  0
  191.1740  171.9960  143.9750 N   0  0  0  0  0  0  0  0  0  0  0  0
  192.5040  171.4710  143.8190 C   0  0  0  0  0  0  0  0  0  0  0  0
  192.8730  170.6620  142.5990 C   0  0  2  0  0  3  0  0  0  0  0  0
  191.0500  169.0730  139.9640 C   0  0  0  0  0  1  0  0  0  0  0  0
  192.2140  170.0300  140.2100 C   0  0  1  0  0  3  0  0  0  0  0  0
  189.7860  171.3530  138.8780 O   0  0  0  0  0  0  0  0  0  0  0  0
  190.5860  172.2570  138.5090 C   0  0  0  0  0  0  0  0  0  0  0  0
  192.5770  170.8090  138.9660 C   0  0  0  0  0  0  0  0  0  0  0  0
  193.4090  170.3360  138.1440 O   0  0  0  0  0  0  0  0  0  0  0  0
  192.0020  172.0970  138.7050 N   0  0  0  0  0  0  0  0  0  0  0  0
  188.9280  173.9830  138.4330 O   0  0  0  0  0  1  0  0  0  0  0  0
  190.0590  173.4660  137.7960 C   0  0  2  0  0  3  0  0  0  0  0  0
  189.3140  171.8770  136.1770 O   0  0  0  0  0  1  0  0  0  0  0  0
  189.8030  173.1750  136.3140 C   0  0  2  0  0  3  0  0  0  0  0  0
  191.3220  172.5170  134.6110 O   0  0  0  0  0  0  0  0  0  0  0  0
  191.0260  173.3430  135.4610 C   0  0  0  0  0  3  0  0  0  0  0  0
  192.9010  173.2360  138.5300 C   0  0  0  0  0  2  0  0  0  0  0  0
  195.9540  174.4480  138.7760 C   0  0  2  0  0  0  0  0  0  0  0  0
  194.1900  173.0090  139.3220 C   0  0  1  0  0  3  0  0  0  0  0  0
  197.4550  174.4300  138.9580 C   0  0  0  0  0  2  0  0  0  0  0  0
  195.3540  173.1160  138.3750 C   0  0  0  0  0  2  0  0  0  0  0  0
  196.8310  175.2950  137.8680 C   0  0  1  0  0  3  0  0  0  0  0  0
  195.2830  175.1050  139.8080 O   0  0  0  0  0  0  0  0  0  0  0  0
  194.4820  174.0960  140.3720 C   0  0  1  0  0  3  0  0  0  0  0  0
  193.4980  176.0170  141.4010 F   0  0  0  0  0  0  0  0  0  0  0  0
  193.2900  174.6740  141.1400 C   0  0  0  0  0  0  0  0  0  0  0  0
  192.1520  174.5450  140.3640 F   0  0  0  0  0  0  0  0  0  0  0  0
  193.1030  173.9920  142.3270 F   0  0  0  0  0  0  0  0  0  0  0  0
  197.0520  174.6440  136.5140 C   0  0  0  0  0  2  0  0  0  0  0  0
  196.9710  175.6120  135.5130 O   0  0  0  0  0  1  0  0  0  0  0  0
  194.3560  170.7960  142.2420 C   0  0  0  0  0  2  0  0  0  0  0  0
  195.2800  170.1870  143.2930 C   0  0  0  0  0  2  0  0  0  0  0  0
  197.9410  170.0600  144.9250 O   0  0  0  0  0  0  0  0  0  0  0  0
  196.3920  172.3960  142.9120 C   0  0  2  0  0  3  0  0  0  0  0  0
  197.0230  173.5740  143.6670 C   0  0  0  0  0  2  0  0  0  0  0  0
  196.2830  171.1650  143.7000 N   0  0  0  0  0  0  0  0  0  0  0  0
  196.6340  171.6280  146.1610 C   0  0  0  0  0  2  0  0  0  0  0  0
  196.3660  173.8950  145.0110 C   0  0  2  0  0  3  0  0  0  0  0  0
  197.0310  170.9320  144.9010 C   0  0  0  0  0  0  0  0  0  0  0  0
  197.0220  173.1030  146.1440 C   0  0  0  0  0  2  0  0  0  0  0  0
  197.1970  172.1300  141.6530 C   0  0  0  0  0  1  0  0  0  0  0  0
  194.9770  173.6960  144.9680 O   0  0  0  0  0  0  0  0  0  0  0  0
  194.5470  175.6590  146.2310 C   0  0  0  0  0  2  0  0  0  0  0  0
  193.2200  175.0590  145.7970 C   0  0  2  0  0  3  0  0  0  0  0  0
  194.4300  174.9760  144.8810 C   0  0  2  0  0  3  0  0  0  0  0  0
  190.3210  175.5830  146.5010 O   0  0  0  0  0  0  0  0  0  0  0  0
  192.8410  177.1690  144.5510 C   0  0  0  0  0  1  0  0  0  0  0  0
  190.8260  175.9540  145.4060 C   0  0  0  0  0  0  0  0  0  0  0  0
  192.2630  176.0500  145.2820 N   0  0  0  0  0  0  0  0  0  0  0  0
  189.9340  176.2960  144.2670 C   0  0  0  0  0  0  0  0  0  0  0  0
  188.9100  177.2520  144.3930 C   0  0  0  0  0  0  0  0  0  0  0  0
  190.0930  175.6550  143.0780 N   0  0  0  0  0  0  0  0  0  0  0  0
  188.3020  176.8470  142.1230 N   0  0  0  0  0  0  0  0  0  0  0  0
  188.6980  177.9310  145.5480 F   0  0  0  0  0  0  0  0  0  0  0  0
  188.0980  177.5120  143.2890 C   0  0  0  0  0  3  0  0  0  0  0  0
  189.2950  175.9240  142.0130 C   0  0  0  0  0  3  0  0  0  0  0  0
  3  6  1  0  0  0  0
  5 11  1  6  0  0  0
  5  3  1  0  0  0  0
  5  9  1  0  0  0  0
  6  2  1  1  0  0  0
  6  7  1  0  0  0  0
  7  1  1  0  0  0  0
  8  7  1  0  0  0  0
  8  4  2  0  0  0  0
  9 37  1  6  0  0  0
  9  8  1  0  0  0  0
 11 10  1  6  0  0  0
 13 16  1  0  0  0  0
 13 12  2  0  0  0  0
 14 11  1  0  0  0  0
 15 14  2  0  0  0  0
 16 14  1  0  0  0  0
 18 17  1  1  0  0  0
 18 13  1  0  0  0  0
 20 19  1  1  0  0  0
 20 18  1  0  0  0  0
 21 22  2  0  0  0  0
 22 20  1  0  0  0  0
 23 16  1  0  0  0  0
 24 27  1  6  0  0  0
 24 26  1  0  0  0  0
 24 29  1  0  0  0  0
 25 23  1  6  0  0  0
 25 30  1  0  0  0  0
 27 25  1  0  0  0  0
 28 35  1  6  0  0  0
 28 24  1  0  0  0  0
 28 26  1  0  0  0  0
 29 30  1  0  0  0  0
 30 32  1  6  0  0  0
 32 31  1  0  0  0  0
 32 34  1  0  0  0  0
 33 32  1  0  0  0  0
 36 35  1  0  0  0  0
 37 38  1  0  0  0  0
 38 42  1  0  0  0  0
 40 47  1  6  0  0  0
 40 41  1  0  0  0  0
 40 42  1  0  0  0  0
 41 44  1  0  0  0  0
 42 45  1  0  0  0  0
 44 48  1  6  0  0  0
 44 46  1  0  0  0  0
 45 39  2  0  0  0  0
 45 43  1  0  0  0  0
 46 43  1  0  0  0  0
 50 55  1  6  0  0  0
 50 49  1  0  0  0  0
 51 48  1  1  0  0  0
 51 50  1  0  0  0  0
 51 49  1  0  0  0  0
 53 55  1  0  0  0  0
 54 52  2  0  0  0  0
 55 54  1  0  0  0  0
 56 57  1  0  0  0  0
 56 54  1  0  0  0  0
 57 60  1  0  0  0  0
 58 56  2  0  0  0  0
 59 61  1  0  0  0  0
 61 57  2  0  0  0  0
 62 59  2  0  0  0  0
 62 58  1  0  0  0  0
M  END
>  <MODEL>
9

>  <REMARK>
 VINA RESULT:      -5.2      2.728      7.962
  Name = 
  16 active torsions:
  status: ('A' for Active; 'I' for Inactive)
    1  A    between atoms: C_1  and  C_48
    2  A    between atoms: C_1  and  C_62
    3  A    between atoms: C_6  and  C_44
    4  A    between atoms: C_8  and  C_41
    5  A    between atoms: C_11  and  C_15
    6  A    between atoms: C_15  and  C_59
    7  A    between atoms: C_16  and  C_59
    8  A    between atoms: C_17  and  C_35
    9  A    between atoms: C_18  and  C_24
   10  A    between atoms: C_18  and  N_57
   11  A    between atoms: C_19  and  N_56
   12  A    between atoms: N_20  and  C_48
   13  A    between atoms: C_23  and  O_52
   14  A    between atoms: C_32  and  O_52
   15  A    between atoms: C_35  and  C_38
   16  A    between atoms: C_39  and  C_51
                            x       y       z     vdW  Elec       q    Type
                         _______ _______ _______ _____ _____    ______ ____

>  <TORSDO>
F 16

$$$$
