=
 OpenBabel11062419173D

 50 56  0  0  1  0  0  0  0  0999 V2000
  195.3490  176.7160  144.6310 C   0  0  0  0  0  3  0  0  0  0  0  0
  189.4830  174.7380  146.6020 C   0  0  0  0  0  1  0  0  0  0  0  0
  192.7620  176.4310  147.2120 N   0  0  0  0  0  0  0  0  0  0  0  0
  191.4810  175.1540  145.0970 C   0  0  0  0  0  0  0  0  0  0  0  0
  192.8790  174.7080  142.6840 N   0  0  0  0  0  0  0  0  0  0  0  0
  190.7330  174.6360  143.8830 C   0  0  2  0  0  3  0  0  0  0  0  0
  193.4030  176.3260  146.0180 C   0  0  0  0  0  0  0  0  0  0  0  0
  191.6660  174.2410  142.7520 C   0  0  0  0  0  0  0  0  0  0  0  0
  194.7530  176.0140  143.5810 C   0  0  0  0  0  3  0  0  0  0  0  0
  193.4660  175.4850  143.7340 C   0  0  0  0  0  0  0  0  0  0  0  0
  194.6770  176.8680  145.8500 C   0  0  0  0  0  3  0  0  0  0  0  0
  191.5200  175.9120  147.3980 C   0  0  0  0  0  3  0  0  0  0  0  0
  192.7780  175.6620  144.9430 C   0  0  0  0  0  0  0  0  0  0  0  0
  190.8520  175.2690  146.3520 C   0  0  0  0  0  0  0  0  0  0  0  0
  191.1520  173.4210  141.6050 C   0  0  2  0  0  3  0  0  0  0  0  0
  190.1810  172.5250  142.0590 O   0  0  0  0  0  1  0  0  0  0  0  0
  191.2150  172.5140  138.2170 C   0  0  0  0  0  0  0  0  0  0  0  0
  190.1820  170.5630  138.4960 C   0  0  0  0  0  3  0  0  0  0  0  0
  192.8940  173.5570  139.7600 C   0  0  2  0  0  3  0  0  0  0  0  0
  192.2860  172.6800  140.8830 C   0  0  2  0  0  3  0  0  0  0  0  0
  189.7660  171.0900  137.3610 O   0  0  0  0  0  0  0  0  0  0  0  0
  190.3580  172.2470  137.1680 C   0  0  0  0  0  0  0  0  0  0  0  0
  191.8150  171.3050  140.3550 C   0  0  0  0  0  2  0  0  0  0  0  0
  191.9300  173.7800  138.5800 C   0  0  0  0  0  2  0  0  0  0  0  0
  194.2120  172.9830  139.2740 C   0  0  0  0  0  1  0  0  0  0  0  0
  191.0750  171.4490  139.0670 C   0  0  0  0  0  0  0  0  0  0  0  0
  188.2910  176.2170  135.6890 C   0  0  1  0  0  3  0  0  0  0  0  0
  187.5080  175.5440  136.7210 N   0  0  0  0  0  2  0  0  0  0  0  0
  188.9250  174.9750  134.5290 S   0  0  0  0  0  0  0  0  0  0  0  0
  189.0850  173.9320  135.9470 C   0  0  0  0  0  0  0  0  0  0  0  0
  188.2300  174.3340  137.0970 C   0  0  0  0  0  2  0  0  0  0  0  0
  187.4180  177.2090  134.9500 C   0  0  0  0  0  1  0  0  0  0  0  0
  190.0750  173.0940  136.0440 N   0  0  0  0  0  0  0  0  0  0  0  0
  189.8380  175.6790  143.3990 N   0  0  0  0  0  2  0  0  0  0  0  0
  188.5380  175.0730  143.1500 C   0  0  0  0  0  2  0  0  0  0  0  0
  187.4400  175.9280  143.7680 C   0  0  2  0  0  3  0  0  0  0  0  0
  185.3080  178.1280  140.7480 C   0  0  0  0  0  0  0  0  0  0  0  0
  184.6950  177.8780  141.9790 C   0  0  0  0  0  3  0  0  0  0  0  0
  186.6030  177.6620  140.5020 C   0  0  0  0  0  3  0  0  0  0  0  0
  185.3790  177.1610  142.9650 C   0  0  0  0  0  3  0  0  0  0  0  0
  186.6800  176.6920  142.7200 C   0  0  0  0  0  0  0  0  0  0  0  0
  187.2880  176.9470  141.4880 C   0  0  0  0  0  3  0  0  0  0  0  0
  184.6440  178.8170  139.7910 F   0  0  0  0  0  0  0  0  0  0  0  0
  188.0200  176.8430  144.7420 N   0  0  0  0  0  2  0  0  0  0  0  0
  187.3850  177.1430  145.9890 C   0  0  0  0  0  0  0  0  0  0  0  0
  187.9250  177.9790  146.7590 O   0  0  0  0  0  0  0  0  0  0  0  0
  185.0510  177.0100  146.7420 C   0  0  0  0  0  3  0  0  0  0  0  0
  186.1700  176.4660  146.3570 N   0  0  0  0  0  0  0  0  0  0  0  0
  184.8150  178.4840  146.8250 C   0  0  0  0  0  2  0  0  0  0  0  0
  184.0350  178.9540  145.6140 C   0  0  0  0  0  1  0  0  0  0  0  0
  1 11  1  0  0  0  0
  3 12  2  0  0  0  0
  4 14  2  0  0  0  0
  5  8  2  0  0  0  0
  5 10  1  0  0  0  0
  6 34  1  6  0  0  0
  6  4  1  0  0  0  0
  7  3  1  0  0  0  0
  8  6  1  0  0  0  0
  9 10  1  0  0  0  0
  9  1  2  0  0  0  0
 10 13  2  0  0  0  0
 11  7  2  0  0  0  0
 13  4  1  0  0  0  0
 13  7  1  0  0  0  0
 14  2  1  0  0  0  0
 14 12  1  0  0  0  0
 15 16  1  1  0  0  0
 15  8  1  0  0  0  0
 17 24  1  0  0  0  0
 17 26  1  0  0  0  0
 18 26  2  0  0  0  0
 19 25  1  6  0  0  0
 19 20  1  0  0  0  0
 20 15  1  6  0  0  0
 21 18  1  0  0  0  0
 22 21  1  0  0  0  0
 22 17  2  0  0  0  0
 23 20  1  0  0  0  0
 24 19  1  0  0  0  0
 26 23  1  0  0  0  0
 27 32  1  6  0  0  0
 27 28  1  0  0  0  0
 28 31  1  0  0  0  0
 29 27  1  0  0  0  0
 29 30  1  0  0  0  0
 30 33  2  0  0  0  0
 30 31  1  0  0  0  0
 33 22  1  0  0  0  0
 35 34  1  0  0  0  0
 36 35  1  6  0  0  0
 36 44  1  0  0  0  0
 37 38  1  0  0  0  0
 38 40  2  0  0  0  0
 39 37  2  0  0  0  0
 39 42  1  0  0  0  0
 41 40  1  0  0  0  0
 41 36  1  0  0  0  0
 42 41  2  0  0  0  0
 43 37  1  0  0  0  0
 44 45  1  0  0  0  0
 45 48  1  0  0  0  0
 45 46  2  0  0  0  0
 47 49  1  0  0  0  0
 48 47  2  0  0  0  0
 50 49  1  0  0  0  0
M  END
>  <MODEL>
1

>  <REMARK>
 VINA RESULT:      -8.2      0.000      0.000
  Name = 
  10 active torsions:
  status: ('A' for Active; 'I' for Inactive)
    1  A    between atoms: N_2  and  C_50
    2  A    between atoms: C_4  and  C_23
    3  A    between atoms: C_4  and  C_24
    4  A    between atoms: C_7  and  C_10
    5  A    between atoms: C_17  and  N_21
    6  A    between atoms: N_21  and  C_25
    7  A    between atoms: C_25  and  C_50
    8  A    between atoms: C_31  and  N_47
    9  A    between atoms: C_36  and  C_50
   10  A    between atoms: C_39  and  N_42
                            x       y       z     vdW  Elec       q    Type
                         _______ _______ _______ _____ _____    ______ ____

>  <TORSDO>
F 10

$$$$
=
 OpenBabel11062419173D

 50 56  0  0  1  0  0  0  0  0999 V2000
  187.8830  177.6280  146.6270 C   0  0  0  0  0  3  0  0  0  0  0  0
  188.0630  174.6730  140.8430 C   0  0  0  0  0  1  0  0  0  0  0  0
  186.4390  176.9520  143.3270 N   0  0  0  0  0  0  0  0  0  0  0  0
  188.7450  175.4030  143.1740 C   0  0  0  0  0  0  0  0  0  0  0  0
  190.4070  175.1490  145.4430 N   0  0  0  0  0  0  0  0  0  0  0  0
  190.0950  174.7220  143.0420 C   0  0  0  0  0  0  0  0  0  0  0  0
  187.2920  176.9310  144.3840 C   0  0  0  0  0  0  0  0  0  0  0  0
  190.7530  174.4710  144.3870 C   0  0  0  0  0  0  0  0  0  0  0  0
  189.0060  176.7990  146.5980 C   0  0  0  0  0  3  0  0  0  0  0  0
  189.2940  176.0490  145.4520 C   0  0  0  0  0  0  0  0  0  0  0  0
  187.0230  177.6910  145.5230 C   0  0  0  0  0  3  0  0  0  0  0  0
  186.6810  176.2210  142.2060 C   0  0  0  0  0  3  0  0  0  0  0  0
  188.4530  176.1340  144.3330 C   0  0  0  0  0  0  0  0  0  0  0  0
  187.8330  175.4370  142.1010 C   0  0  1  0  0  3  0  0  0  0  0  0
  191.9230  173.5380  144.4890 C   0  0  2  0  0  3  0  0  0  0  0  0
  191.4760  172.2400  144.7450 O   0  0  0  0  0  1  0  0  0  0  0  0
  195.3690  174.0260  144.0450 C   0  0  0  0  0  0  0  0  0  0  0  0
  195.9430  171.9200  144.4750 C   0  0  0  0  0  3  0  0  0  0  0  0
  193.5650  175.3510  145.1770 C   0  0  2  0  0  3  0  0  0  0  0  0
  192.9230  173.9950  145.5610 C   0  0  2  0  0  3  0  0  0  0  0  0
  196.7250  172.3720  143.5150 O   0  0  0  0  0  0  0  0  0  0  0  0
  196.4090  173.6170  143.2350 C   0  0  0  0  0  0  0  0  0  0  0  0
  193.9860  172.9070  145.8420 C   0  0  0  0  0  2  0  0  0  0  0  0
  194.5080  175.2500  143.9630 C   0  0  0  0  0  2  0  0  0  0  0  0
  194.2840  175.9680  146.3630 C   0  0  0  0  0  1  0  0  0  0  0  0
  195.0650  172.9320  144.8100 C   0  0  0  0  0  0  0  0  0  0  0  0
  196.1540  175.0930  138.7660 C   0  0  1  0  0  3  0  0  0  0  0  0
  195.6560  173.7290  138.9220 N   0  0  0  0  0  2  0  0  0  0  0  0
  197.6630  175.2830  139.7550 S   0  0  0  0  0  0  0  0  0  0  0  0
  196.8740  174.2070  140.9150 C   0  0  0  0  0  0  0  0  0  0  0  0
  195.7870  173.3740  140.3300 C   0  0  0  0  0  2  0  0  0  0  0  0
  196.4610  175.3620  137.3080 C   0  0  0  0  0  1  0  0  0  0  0  0
  197.0450  174.3720  142.1940 N   0  0  0  0  0  0  0  0  0  0  0  0
  190.9770  175.5710  142.2490 N   0  0  0  0  0  2  0  0  0  0  0  0
  192.0560  174.7390  141.7380 C   0  0  0  0  0  2  0  0  0  0  0  0
  191.5080  173.7410  140.7270 C   0  0  2  0  0  3  0  0  0  0  0  0
  191.8510  169.6950  142.1450 C   0  0  0  0  0  0  0  0  0  0  0  0
  193.0030  170.4720  141.9980 C   0  0  0  0  0  3  0  0  0  0  0  0
  190.5980  170.2300  141.8310 C   0  0  0  0  0  3  0  0  0  0  0  0
  192.9010  171.7870  141.5340 C   0  0  0  0  0  3  0  0  0  0  0  0
  191.6440  172.3270  141.2170 C   0  0  0  0  0  0  0  0  0  0  0  0
  190.4960  171.5450  141.3700 C   0  0  0  0  0  3  0  0  0  0  0  0
  191.9490  168.4200  142.5890 F   0  0  0  0  0  0  0  0  0  0  0  0
  192.1960  173.9050  139.4520 N   0  0  0  0  0  2  0  0  0  0  0  0
  191.5200  173.8030  138.1950 C   0  0  0  0  0  0  0  0  0  0  0  0
  192.1910  173.9110  137.1360 O   0  0  0  0  0  0  0  0  0  0  0  0
  189.4500  172.5130  137.9020 C   0  0  0  0  0  3  0  0  0  0  0  0
  190.0940  173.6160  138.1590 N   0  0  0  0  0  0  0  0  0  0  0  0
  190.1070  171.1960  137.6370 C   0  0  0  0  0  2  0  0  0  0  0  0
  189.9820  170.8400  136.1690 C   0  0  0  0  0  1  0  0  0  0  0  0
  3  7  1  0  0  0  0
  4 13  1  0  0  0  0
  5 10  1  0  0  0  0
  6  4  2  0  0  0  0
  6  8  1  0  0  0  0
  7 11  1  0  0  0  0
  8 15  1  0  0  0  0
  8  5  2  0  0  0  0
  9  1  1  0  0  0  0
 10  9  2  0  0  0  0
 11  1  2  0  0  0  0
 12  3  2  0  0  0  0
 13  7  2  0  0  0  0
 13 10  1  0  0  0  0
 14  2  1  6  0  0  0
 14 12  1  0  0  0  0
 14  4  1  0  0  0  0
 15 16  1  1  0  0  0
 17 26  1  0  0  0  0
 18 26  2  0  0  0  0
 19 20  1  0  0  0  0
 19 25  1  1  0  0  0
 20 15  1  6  0  0  0
 20 23  1  0  0  0  0
 21 18  1  0  0  0  0
 22 21  1  0  0  0  0
 22 17  2  0  0  0  0
 24 17  1  0  0  0  0
 24 19  1  0  0  0  0
 26 23  1  0  0  0  0
 27 32  1  6  0  0  0
 27 28  1  0  0  0  0
 27 29  1  0  0  0  0
 28 31  1  0  0  0  0
 29 30  1  0  0  0  0
 30 33  2  0  0  0  0
 31 30  1  0  0  0  0
 33 22  1  0  0  0  0
 34  6  1  0  0  0  0
 35 34  1  0  0  0  0
 36 41  1  0  0  0  0
 36 35  1  1  0  0  0
 37 43  1  0  0  0  0
 38 37  1  0  0  0  0
 39 37  2  0  0  0  0
 40 38  2  0  0  0  0
 41 42  2  0  0  0  0
 41 40  1  0  0  0  0
 42 39  1  0  0  0  0
 44 36  1  0  0  0  0
 45 44  1  0  0  0  0
 46 45  2  0  0  0  0
 47 48  2  0  0  0  0
 48 45  1  0  0  0  0
 49 47  1  0  0  0  0
 50 49  1  0  0  0  0
M  END
>  <MODEL>
2

>  <REMARK>
 VINA RESULT:      -8.1      3.340      7.887
  Name = 
  10 active torsions:
  status: ('A' for Active; 'I' for Inactive)
    1  A    between atoms: N_2  and  C_50
    2  A    between atoms: C_4  and  C_23
    3  A    between atoms: C_4  and  C_24
    4  A    between atoms: C_7  and  C_10
    5  A    between atoms: C_17  and  N_21
    6  A    between atoms: N_21  and  C_25
    7  A    between atoms: C_25  and  C_50
    8  A    between atoms: C_31  and  N_47
    9  A    between atoms: C_36  and  C_50
   10  A    between atoms: C_39  and  N_42
                            x       y       z     vdW  Elec       q    Type
                         _______ _______ _______ _____ _____    ______ ____

>  <TORSDO>
F 10

$$$$
=
 OpenBabel11062419173D

 50 56  0  0  1  0  0  0  0  0999 V2000
  195.6790  170.8750  145.3460 C   0  0  0  0  0  3  0  0  0  0  0  0
  196.8130  176.9570  143.3630 C   0  0  0  0  0  1  0  0  0  0  0  0
  197.9410  173.4610  144.0710 N   0  0  0  0  0  0  0  0  0  0  0  0
  195.5730  174.9140  144.2110 C   0  0  0  0  0  0  0  0  0  0  0  0
  193.2710  173.7250  145.3360 N   0  0  0  0  0  0  0  0  0  0  0  0
  194.2370  175.6280  144.1140 C   0  0  2  0  0  3  0  0  0  0  0  0
  196.8120  172.8430  144.5050 C   0  0  0  0  0  0  0  0  0  0  0  0
  193.1630  174.9670  144.9590 C   0  0  0  0  0  0  0  0  0  0  0  0
  194.4990  171.6060  145.4930 C   0  0  0  0  0  3  0  0  0  0  0  0
  194.4600  172.9550  145.1240 C   0  0  0  0  0  0  0  0  0  0  0  0
  196.8370  171.4930  144.8560 C   0  0  0  0  0  3  0  0  0  0  0  0
  197.9410  174.7750  143.7220 C   0  0  0  0  0  3  0  0  0  0  0  0
  195.6080  173.5690  144.6040 C   0  0  0  0  0  0  0  0  0  0  0  0
  196.7650  175.5270  143.7790 C   0  0  0  0  0  0  0  0  0  0  0  0
  191.8810  175.6900  145.2460 C   0  0  2  0  0  3  0  0  0  0  0  0
  192.1560  176.9570  145.7670 O   0  0  0  0  0  1  0  0  0  0  0  0
  188.4390  176.1640  145.7330 C   0  0  0  0  0  0  0  0  0  0  0  0
  188.6560  177.7130  147.3170 C   0  0  0  0  0  3  0  0  0  0  0  0
  189.8780  174.1360  145.4120 C   0  0  2  0  0  3  0  0  0  0  0  0
  190.9780  174.8920  146.1970 C   0  0  2  0  0  3  0  0  0  0  0  0
  187.6230  178.0360  146.5630 O   0  0  0  0  0  0  0  0  0  0  0  0
  187.4690  177.1390  145.6150 C   0  0  0  0  0  0  0  0  0  0  0  0
  190.3850  175.7940  147.3050 C   0  0  0  0  0  2  0  0  0  0  0  0
  188.8320  175.0750  144.7820 C   0  0  0  0  0  2  0  0  0  0  0  0
  189.2040  173.0930  146.2860 C   0  0  0  0  0  1  0  0  0  0  0  0
  189.2020  176.5530  146.8020 C   0  0  0  0  0  0  0  0  0  0  0  0
  186.5810  177.2110  140.9860 C   0  0  1  0  0  3  0  0  0  0  0  0
  187.8120  177.9210  141.3180 N   0  0  0  0  0  2  0  0  0  0  0  0
  185.3120  177.6290  142.2140 S   0  0  0  0  0  0  0  0  0  0  0  0
  186.6420  177.6520  143.3780 C   0  0  0  0  0  0  0  0  0  0  0  0
  187.9840  177.8440  142.7640 C   0  0  0  0  0  2  0  0  0  0  0  0
  186.1110  177.6200  139.6060 C   0  0  0  0  0  1  0  0  0  0  0  0
  186.4610  177.2390  144.5980 N   0  0  0  0  0  0  0  0  0  0  0  0
  193.7990  175.6240  142.7240 N   0  0  0  0  0  2  0  0  0  0  0  0
  192.3790  175.3040  142.7050 C   0  0  0  0  0  2  0  0  0  0  0  0
  192.1100  174.2000  141.6900 C   0  0  2  0  0  3  0  0  0  0  0  0
  188.0810  172.7150  141.9520 C   0  0  0  0  0  0  0  0  0  0  0  0
  188.3090  174.0050  141.4620 C   0  0  0  0  0  3  0  0  0  0  0  0
  189.1560  171.9180  142.3560 C   0  0  0  0  0  3  0  0  0  0  0  0
  189.6140  174.4970  141.3770 C   0  0  0  0  0  3  0  0  0  0  0  0
  190.6960  173.6980  141.7820 C   0  0  0  0  0  0  0  0  0  0  0  0
  190.4620  172.4090  142.2680 C   0  0  0  0  0  3  0  0  0  0  0  0
  186.8170  172.2410  142.0400 F   0  0  0  0  0  0  0  0  0  0  0  0
  193.0510  173.1060  141.8940 N   0  0  0  0  0  2  0  0  0  0  0  0
  194.0270  172.7390  140.9150 C   0  0  0  0  0  0  0  0  0  0  0  0
  194.7750  171.7530  141.1430 O   0  0  0  0  0  0  0  0  0  0  0  0
  195.0790  174.4000  139.4420 C   0  0  0  0  0  3  0  0  0  0  0  0
  194.1620  173.5140  139.7100 N   0  0  0  0  0  0  0  0  0  0  0  0
  196.2140  174.7400  140.3540 C   0  0  0  0  0  2  0  0  0  0  0  0
  197.4880  174.0820  139.8640 C   0  0  0  0  0  1  0  0  0  0  0  0
  1  9  1  0  0  0  0
  2 14  1  0  0  0  0
  3  7  1  0  0  0  0
  4 13  1  0  0  0  0
  6 34  1  6  0  0  0
  6  4  1  0  0  0  0
  6  8  1  0  0  0  0
  7 13  2  0  0  0  0
  7 11  1  0  0  0  0
  8 15  1  0  0  0  0
  8  5  2  0  0  0  0
 10  5  1  0  0  0  0
 10  9  2  0  0  0  0
 11  1  2  0  0  0  0
 12 14  1  0  0  0  0
 12  3  2  0  0  0  0
 13 10  1  0  0  0  0
 14  4  2  0  0  0  0
 15 16  1  1  0  0  0
 17 26  1  0  0  0  0
 19 20  1  0  0  0  0
 19 25  1  1  0  0  0
 20 15  1  6  0  0  0
 20 23  1  0  0  0  0
 21 18  1  0  0  0  0
 22 17  2  0  0  0  0
 22 21  1  0  0  0  0
 24 19  1  0  0  0  0
 24 17  1  0  0  0  0
 26 23  1  0  0  0  0
 26 18  2  0  0  0  0
 27 32  1  6  0  0  0
 27 28  1  0  0  0  0
 27 29  1  0  0  0  0
 28 31  1  0  0  0  0
 29 30  1  0  0  0  0
 30 33  2  0  0  0  0
 31 30  1  0  0  0  0
 33 22  1  0  0  0  0
 35 34  1  0  0  0  0
 36 41  1  0  0  0  0
 36 44  1  0  0  0  0
 36 35  1  1  0  0  0
 37 43  1  0  0  0  0
 37 39  1  0  0  0  0
 38 37  2  0  0  0  0
 40 38  1  0  0  0  0
 40 41  2  0  0  0  0
 41 42  1  0  0  0  0
 42 39  2  0  0  0  0
 45 46  2  0  0  0  0
 45 44  1  0  0  0  0
 47 48  2  0  0  0  0
 47 49  1  0  0  0  0
 48 45  1  0  0  0  0
 50 49  1  0  0  0  0
M  END
>  <MODEL>
3

>  <REMARK>
 VINA RESULT:      -8.0      3.295      7.633
  Name = 
  10 active torsions:
  status: ('A' for Active; 'I' for Inactive)
    1  A    between atoms: N_2  and  C_50
    2  A    between atoms: C_4  and  C_23
    3  A    between atoms: C_4  and  C_24
    4  A    between atoms: C_7  and  C_10
    5  A    between atoms: C_17  and  N_21
    6  A    between atoms: N_21  and  C_25
    7  A    between atoms: C_25  and  C_50
    8  A    between atoms: C_31  and  N_47
    9  A    between atoms: C_36  and  C_50
   10  A    between atoms: C_39  and  N_42
                            x       y       z     vdW  Elec       q    Type
                         _______ _______ _______ _____ _____    ______ ____

>  <TORSDO>
F 10

$$$$
=
 OpenBabel11062419173D

 50 56  0  0  1  0  0  0  0  0999 V2000
  197.9220  175.8300  142.5230 C   0  0  0  0  0  3  0  0  0  0  0  0
  193.1190  174.5100  138.3510 C   0  0  0  0  0  1  0  0  0  0  0  0
  196.7470  174.8850  139.1820 N   0  0  0  0  0  0  0  0  0  0  0  0
  194.3110  175.1120  140.5070 C   0  0  0  0  0  0  0  0  0  0  0  0
  194.2530  176.0500  143.1700 N   0  0  0  0  0  0  0  0  0  0  0  0
  193.0150  175.0550  141.2930 C   0  0  0  0  0  0  0  0  0  0  0  0
  196.7400  175.2240  140.4980 C   0  0  0  0  0  0  0  0  0  0  0  0
  193.1030  175.7990  142.6130 C   0  0  0  0  0  0  0  0  0  0  0  0
  196.7070  176.0210  143.1850 C   0  0  0  0  0  3  0  0  0  0  0  0
  195.5000  175.7910  142.5150 C   0  0  0  0  0  0  0  0  0  0  0  0
  197.9390  175.4360  141.1790 C   0  0  0  0  0  3  0  0  0  0  0  0
  195.5920  174.6720  138.4980 C   0  0  0  0  0  3  0  0  0  0  0  0
  195.5140  175.3660  141.1790 C   0  0  0  0  0  0  0  0  0  0  0  0
  194.3550  174.7760  139.1390 C   0  0  1  0  0  3  0  0  0  0  0  0
  191.8550  176.1260  143.3780 C   0  0  2  0  0  3  0  0  0  0  0  0
  191.9740  177.3890  143.9640 O   0  0  0  0  0  1  0  0  0  0  0  0
  189.1090  176.1130  145.5620 C   0  0  0  0  0  0  0  0  0  0  0  0
  190.0890  177.3250  147.1490 C   0  0  0  0  0  3  0  0  0  0  0  0
  190.1900  174.3610  144.1300 C   0  0  2  0  0  3  0  0  0  0  0  0
  191.5380  175.0590  144.4350 C   0  0  2  0  0  3  0  0  0  0  0  0
  188.8200  177.6780  147.0860 O   0  0  0  0  0  0  0  0  0  0  0  0
  188.2120  176.9790  146.1530 C   0  0  0  0  0  0  0  0  0  0  0  0
  191.5770  175.6500  145.8630 C   0  0  0  0  0  2  0  0  0  0  0  0
  188.9740  175.2870  144.3180 C   0  0  0  0  0  2  0  0  0  0  0  0
  190.0330  173.0970  144.9550 C   0  0  0  0  0  1  0  0  0  0  0  0
  190.3030  176.3600  146.1840 C   0  0  0  0  0  0  0  0  0  0  0  0
  185.1380  177.7890  142.6730 C   0  0  1  0  0  3  0  0  0  0  0  0
  186.3810  178.5310  142.4890 N   0  0  0  0  0  2  0  0  0  0  0  0
  184.6560  177.8750  144.4200 S   0  0  0  0  0  0  0  0  0  0  0  0
  186.3890  177.8060  144.7600 C   0  0  0  0  0  0  0  0  0  0  0  0
  187.2490  178.2160  143.6170 C   0  0  0  0  0  2  0  0  0  0  0  0
  184.0490  178.3920  141.8120 C   0  0  0  0  0  1  0  0  0  0  0  0
  186.8330  177.1710  145.8040 N   0  0  0  0  0  0  0  0  0  0  0  0
  192.6910  173.6610  141.5710 N   0  0  0  0  0  2  0  0  0  0  0  0
  193.9260  172.8930  141.5010 C   0  0  0  0  0  2  0  0  0  0  0  0
  193.9930  171.9100  142.6630 C   0  0  2  0  0  3  0  0  0  0  0  0
  196.6710  173.2890  145.7330 C   0  0  0  0  0  0  0  0  0  0  0  0
  197.1890  172.6390  144.6080 C   0  0  0  0  0  3  0  0  0  0  0  0
  195.2930  173.4850  145.8570 C   0  0  0  0  0  3  0  0  0  0  0  0
  196.3260  172.1850  143.6080 C   0  0  0  0  0  3  0  0  0  0  0  0
  194.9410  172.3800  143.7300 C   0  0  0  0  0  0  0  0  0  0  0  0
  194.4290  173.0330  144.8550 C   0  0  0  0  0  3  0  0  0  0  0  0
  197.5070  173.7230  146.7050 F   0  0  0  0  0  0  0  0  0  0  0  0
  194.3910  170.5970  142.1720 N   0  0  0  0  0  2  0  0  0  0  0  0
  193.4730  169.5050  142.0650 C   0  0  0  0  0  0  0  0  0  0  0  0
  193.9020  168.3880  141.6760 O   0  0  0  0  0  0  0  0  0  0  0  0
  191.1060  169.8690  141.5170 C   0  0  0  0  0  3  0  0  0  0  0  0
  192.0800  169.7050  142.3670 N   0  0  0  0  0  0  0  0  0  0  0  0
  191.2680  169.8260  140.0310 C   0  0  0  0  0  2  0  0  0  0  0  0
  191.1580  171.2240  139.4570 C   0  0  0  0  0  1  0  0  0  0  0  0
  1  9  1  0  0  0  0
  3  7  1  0  0  0  0
  4 13  1  0  0  0  0
  4  6  2  0  0  0  0
  6 34  1  0  0  0  0
  6  8  1  0  0  0  0
  7 11  1  0  0  0  0
  7 13  2  0  0  0  0
  8  5  2  0  0  0  0
  8 15  1  0  0  0  0
 10  5  1  0  0  0  0
 10  9  2  0  0  0  0
 11  1  2  0  0  0  0
 12 14  1  0  0  0  0
 12  3  2  0  0  0  0
 13 10  1  0  0  0  0
 14  2  1  1  0  0  0
 14  4  1  0  0  0  0
 15 16  1  1  0  0  0
 17 22  2  0  0  0  0
 17 26  1  0  0  0  0
 19 24  1  0  0  0  0
 19 20  1  0  0  0  0
 19 25  1  1  0  0  0
 20 15  1  6  0  0  0
 20 23  1  0  0  0  0
 21 18  1  0  0  0  0
 22 21  1  0  0  0  0
 23 26  1  0  0  0  0
 24 17  1  0  0  0  0
 26 18  2  0  0  0  0
 27 32  1  6  0  0  0
 27 29  1  0  0  0  0
 28 27  1  0  0  0  0
 28 31  1  0  0  0  0
 29 30  1  0  0  0  0
 30 33  2  0  0  0  0
 31 30  1  0  0  0  0
 33 22  1  0  0  0  0
 35 34  1  0  0  0  0
 36 35  1  6  0  0  0
 36 41  1  0  0  0  0
 37 39  1  0  0  0  0
 37 43  1  0  0  0  0
 38 37  2  0  0  0  0
 40 41  2  0  0  0  0
 40 38  1  0  0  0  0
 41 42  1  0  0  0  0
 42 39  2  0  0  0  0
 44 36  1  0  0  0  0
 45 44  1  0  0  0  0
 45 48  1  0  0  0  0
 46 45  2  0  0  0  0
 47 48  2  0  0  0  0
 49 47  1  0  0  0  0
 50 49  1  0  0  0  0
M  END
>  <MODEL>
4

>  <REMARK>
 VINA RESULT:      -8.0      4.012      8.758
  Name = 
  10 active torsions:
  status: ('A' for Active; 'I' for Inactive)
    1  A    between atoms: N_2  and  C_50
    2  A    between atoms: C_4  and  C_23
    3  A    between atoms: C_4  and  C_24
    4  A    between atoms: C_7  and  C_10
    5  A    between atoms: C_17  and  N_21
    6  A    between atoms: N_21  and  C_25
    7  A    between atoms: C_25  and  C_50
    8  A    between atoms: C_31  and  N_47
    9  A    between atoms: C_36  and  C_50
   10  A    between atoms: C_39  and  N_42
                            x       y       z     vdW  Elec       q    Type
                         _______ _______ _______ _____ _____    ______ ____

>  <TORSDO>
F 10

$$$$
=
 OpenBabel11062419173D

 50 56  0  0  1  0  0  0  0  0999 V2000
  189.4960  172.1360  136.2730 C   0  0  0  0  0  3  0  0  0  0  0  0
  191.6820  169.0220  141.5390 C   0  0  0  0  0  1  0  0  0  0  0  0
  190.2380  169.0400  138.0880 N   0  0  0  0  0  0  0  0  0  0  0  0
  191.0630  170.9160  139.9700 C   0  0  0  0  0  0  0  0  0  0  0  0
  190.6370  173.6640  139.4800 N   0  0  0  0  0  0  0  0  0  0  0  0
  191.6800  171.9470  140.8970 C   0  0  0  0  0  0  0  0  0  0  0  0
  190.1350  170.3620  137.7920 C   0  0  0  0  0  0  0  0  0  0  0  0
  191.1700  173.3510  140.6260 C   0  0  0  0  0  0  0  0  0  0  0  0
  189.8350  173.0920  137.2320 C   0  0  0  0  0  3  0  0  0  0  0  0
  190.3510  172.6910  138.4700 C   0  0  0  0  0  0  0  0  0  0  0  0
  189.6420  170.7720  136.5530 C   0  0  0  0  0  3  0  0  0  0  0  0
  190.7170  168.6170  139.2880 C   0  0  0  0  0  3  0  0  0  0  0  0
  190.5270  171.3270  138.7420 C   0  0  1  0  0  3  0  0  0  0  0  0
  191.1420  169.5380  140.2500 C   0  0  0  0  0  0  0  0  0  0  0  0
  191.4100  174.4450  141.6230 C   0  0  2  0  0  3  0  0  0  0  0  0
  192.6660  175.0190  141.4060 O   0  0  0  0  0  1  0  0  0  0  0  0
  189.3930  175.8230  144.1410 C   0  0  0  0  0  0  0  0  0  0  0  0
  190.9020  177.2990  144.8440 C   0  0  0  0  0  3  0  0  0  0  0  0
  189.8340  173.4790  143.3660 C   0  0  2  0  0  3  0  0  0  0  0  0
  191.2830  173.9380  143.0660 C   0  0  2  0  0  3  0  0  0  0  0  0
  189.7120  177.8640  144.9080 O   0  0  0  0  0  0  0  0  0  0  0  0
  188.7970  177.0160  144.4970 C   0  0  0  0  0  0  0  0  0  0  0  0
  191.7800  174.9920  144.0820 C   0  0  0  0  0  2  0  0  0  0  0  0
  188.8280  174.6450  143.4060 C   0  0  0  0  0  2  0  0  0  0  0  0
  189.7730  172.6740  144.6510 C   0  0  0  0  0  1  0  0  0  0  0  0
  190.7330  176.0240  144.3410 C   0  0  0  0  0  0  0  0  0  0  0  0
  185.1460  177.7310  141.6020 C   0  0  1  0  0  3  0  0  0  0  0  0
  186.3940  178.2470  141.0460 N   0  0  0  0  0  2  0  0  0  0  0  0
  185.0700  178.1510  143.3650 S   0  0  0  0  0  0  0  0  0  0  0  0
  186.8170  177.8800  143.3640 C   0  0  0  0  0  0  0  0  0  0  0  0
  187.4470  177.9810  142.0200 C   0  0  0  0  0  2  0  0  0  0  0  0
  183.9700  178.3500  140.8770 C   0  0  0  0  0  1  0  0  0  0  0  0
  187.4050  177.3530  144.3970 N   0  0  0  0  0  0  0  0  0  0  0  0
  193.1260  171.9390  140.7170 N   0  0  0  0  0  2  0  0  0  0  0  0
  193.7340  171.6020  141.9950 C   0  0  0  0  0  2  0  0  0  0  0  0
  195.0700  172.3210  142.1400 C   0  0  2  0  0  3  0  0  0  0  0  0
  195.1020  174.8120  145.6460 C   0  0  0  0  0  0  0  0  0  0  0  0
  195.5520  175.3310  144.4290 C   0  0  0  0  0  3  0  0  0  0  0  0
  194.6490  173.4920  145.7220 C   0  0  0  0  0  3  0  0  0  0  0  0
  195.5480  174.5280  143.2850 C   0  0  0  0  0  3  0  0  0  0  0  0
  195.0930  173.2010  143.3580 C   0  0  0  0  0  0  0  0  0  0  0  0
  194.6430  172.6890  144.5780 C   0  0  0  0  0  3  0  0  0  0  0  0
  195.1110  175.5880  146.7550 F   0  0  0  0  0  0  0  0  0  0  0  0
  195.3370  173.1050  140.9410 N   0  0  0  0  0  2  0  0  0  0  0  0
  196.3560  172.7500  140.0020 C   0  0  0  0  0  0  0  0  0  0  0  0
  196.5590  173.5020  139.0140 O   0  0  0  0  0  0  0  0  0  0  0  0
  196.8030  170.3510  139.7190 C   0  0  0  0  0  3  0  0  0  0  0  0
  197.1030  171.5330  140.1780 N   0  0  0  0  0  0  0  0  0  0  0  0
  195.6140  170.0580  138.8600 C   0  0  0  0  0  2  0  0  0  0  0  0
  194.7960  168.9380  139.4710 C   0  0  0  0  0  1  0  0  0  0  0  0
  1 11  2  0  0  0  0
  1  9  1  0  0  0  0
  3 12  1  0  0  0  0
  4 14  1  0  0  0  0
  4  6  2  0  0  0  0
  5  8  2  0  0  0  0
  7  3  2  0  0  0  0
  8  6  1  0  0  0  0
  8 15  1  0  0  0  0
  9 10  2  0  0  0  0
 10 13  1  0  0  0  0
 10  5  1  0  0  0  0
 11  7  1  0  0  0  0
 12 14  2  0  0  0  0
 13  7  1  1  0  0  0
 13  4  1  0  0  0  0
 14  2  1  0  0  0  0
 15 16  1  1  0  0  0
 17 26  1  0  0  0  0
 17 22  2  0  0  0  0
 18 21  1  0  0  0  0
 19 24  1  0  0  0  0
 19 25  1  1  0  0  0
 20 15  1  6  0  0  0
 20 19  1  0  0  0  0
 20 23  1  0  0  0  0
 22 21  1  0  0  0  0
 23 26  1  0  0  0  0
 24 17  1  0  0  0  0
 26 18  2  0  0  0  0
 27 32  1  6  0  0  0
 27 29  1  0  0  0  0
 28 27  1  0  0  0  0
 28 31  1  0  0  0  0
 30 29  1  0  0  0  0
 30 33  2  0  0  0  0
 31 30  1  0  0  0  0
 33 22  1  0  0  0  0
 34  6  1  0  0  0  0
 34 35  1  0  0  0  0
 36 35  1  6  0  0  0
 36 41  1  0  0  0  0
 37 39  1  0  0  0  0
 37 43  1  0  0  0  0
 38 37  2  0  0  0  0
 40 41  2  0  0  0  0
 40 38  1  0  0  0  0
 41 42  1  0  0  0  0
 42 39  2  0  0  0  0
 44 36  1  0  0  0  0
 45 48  1  0  0  0  0
 45 44  1  0  0  0  0
 46 45  2  0  0  0  0
 47 48  2  0  0  0  0
 49 50  1  0  0  0  0
 49 47  1  0  0  0  0
M  END
>  <MODEL>
5

>  <REMARK>
 VINA RESULT:      -7.9      3.475      9.225
  Name = 
  10 active torsions:
  status: ('A' for Active; 'I' for Inactive)
    1  A    between atoms: N_2  and  C_50
    2  A    between atoms: C_4  and  C_23
    3  A    between atoms: C_4  and  C_24
    4  A    between atoms: C_7  and  C_10
    5  A    between atoms: C_17  and  N_21
    6  A    between atoms: N_21  and  C_25
    7  A    between atoms: C_25  and  C_50
    8  A    between atoms: C_31  and  N_47
    9  A    between atoms: C_36  and  C_50
   10  A    between atoms: C_39  and  N_42
                            x       y       z     vdW  Elec       q    Type
                         _______ _______ _______ _____ _____    ______ ____

>  <TORSDO>
F 10

$$$$
=
 OpenBabel11062419173D

 50 56  0  0  1  0  0  0  0  0999 V2000
  196.5900  176.4520  142.3910 C   0  0  0  0  0  3  0  0  0  0  0  0
  192.1350  174.9580  146.8770 C   0  0  0  0  0  1  0  0  0  0  0  0
  195.1450  176.8620  145.7340 N   0  0  0  0  0  0  0  0  0  0  0  0
  193.3960  174.9740  144.6770 C   0  0  0  0  0  0  0  0  0  0  0  0
  193.9030  173.8770  142.1250 N   0  0  0  0  0  0  0  0  0  0  0  0
  192.3490  174.0950  144.0190 C   0  0  2  0  0  3  0  0  0  0  0  0
  195.3320  176.4280  144.4600 C   0  0  0  0  0  0  0  0  0  0  0  0
  192.8700  173.4120  142.7670 C   0  0  0  0  0  0  0  0  0  0  0  0
  195.7680  175.4510  141.8690 C   0  0  0  0  0  3  0  0  0  0  0  0
  194.7060  174.9490  142.6300 C   0  0  0  0  0  0  0  0  0  0  0  0
  196.3760  176.9380  143.6870 C   0  0  0  0  0  3  0  0  0  0  0  0
  194.1350  176.3810  146.5060 C   0  0  0  0  0  3  0  0  0  0  0  0
  194.4690  175.4550  143.9160 C   0  0  0  0  0  0  0  0  0  0  0  0
  193.2390  175.4360  145.9990 C   0  0  0  0  0  0  0  0  0  0  0  0
  192.1070  172.2720  142.1590 C   0  0  2  0  0  3  0  0  0  0  0  0
  191.2980  171.6710  143.1270 O   0  0  0  0  0  1  0  0  0  0  0  0
  191.7600  170.8720  138.9610 C   0  0  0  0  0  0  0  0  0  0  0  0
  190.4390  169.1990  139.5990 C   0  0  0  0  0  3  0  0  0  0  0  0
  193.7020  171.8200  140.2340 C   0  0  2  0  0  3  0  0  0  0  0  0
  193.0420  171.2420  141.5100 C   0  0  2  0  0  3  0  0  0  0  0  0
  190.0330  169.6160  138.4150 O   0  0  0  0  0  0  0  0  0  0  0  0
  190.7950  170.6080  138.0110 C   0  0  0  0  0  0  0  0  0  0  0  0
  192.3090  169.9090  141.2330 C   0  0  0  0  0  2  0  0  0  0  0  0
  192.7030  172.0310  139.0810 C   0  0  0  0  0  2  0  0  0  0  0  0
  194.8650  170.9550  139.7830 C   0  0  0  0  0  1  0  0  0  0  0  0
  191.5080  169.9880  139.9760 C   0  0  0  0  0  0  0  0  0  0  0  0
  189.3440  174.6250  136.0170 C   0  0  1  0  0  3  0  0  0  0  0  0
  188.5420  174.2730  137.1850 N   0  0  0  0  0  2  0  0  0  0  0  0
  189.6510  173.1260  135.0420 S   0  0  0  0  0  0  0  0  0  0  0  0
  189.7410  172.2970  136.6010 C   0  0  0  0  0  0  0  0  0  0  0  0
  189.0690  173.0210  137.7140 C   0  0  0  0  0  2  0  0  0  0  0  0
  188.6010  175.6400  135.1740 C   0  0  0  0  0  1  0  0  0  0  0  0
  190.5730  171.3140  136.7810 N   0  0  0  0  0  0  0  0  0  0  0  0
  191.2030  174.9170  143.6520 N   0  0  0  0  0  2  0  0  0  0  0  0
  190.0210  174.3380  144.2730 C   0  0  0  0  0  2  0  0  0  0  0  0
  189.0050  175.4320  144.5760 C   0  0  2  0  0  3  0  0  0  0  0  0
  187.5290  177.2980  140.9940 C   0  0  0  0  0  0  0  0  0  0  0  0
  187.1470  175.9880  141.2940 C   0  0  0  0  0  3  0  0  0  0  0  0
  188.3860  177.9940  141.8510 C   0  0  0  0  0  3  0  0  0  0  0  0
  187.6250  175.3720  142.4540 C   0  0  0  0  0  3  0  0  0  0  0  0
  188.4870  176.0680  143.3180 C   0  0  0  0  0  0  0  0  0  0  0  0
  188.8620  177.3790  143.0130 C   0  0  0  0  0  3  0  0  0  0  0  0
  187.0710  177.8930  139.8670 F   0  0  0  0  0  0  0  0  0  0  0  0
  189.6110  176.4380  145.4410 N   0  0  0  0  0  2  0  0  0  0  0  0
  188.9160  177.0180  146.5480 C   0  0  0  0  0  0  0  0  0  0  0  0
  189.4880  177.9140  147.2210 O   0  0  0  0  0  0  0  0  0  0  0  0
  186.4590  177.0510  146.5150 C   0  0  0  0  0  3  0  0  0  0  0  0
  187.6000  176.5500  146.8960 N   0  0  0  0  0  0  0  0  0  0  0  0
  186.3180  178.2100  145.5800 C   0  0  0  0  0  2  0  0  0  0  0  0
  185.3960  177.8430  144.4350 C   0  0  0  0  0  1  0  0  0  0  0  0
  1 11  1  0  0  0  0
  3 12  2  0  0  0  0
  4 14  2  0  0  0  0
  5 10  1  0  0  0  0
  5  8  2  0  0  0  0
  6 34  1  6  0  0  0
  6  4  1  0  0  0  0
  7  3  1  0  0  0  0
  8  6  1  0  0  0  0
  9  1  2  0  0  0  0
  9 10  1  0  0  0  0
 10 13  2  0  0  0  0
 11  7  2  0  0  0  0
 13  7  1  0  0  0  0
 13  4  1  0  0  0  0
 14 12  1  0  0  0  0
 14  2  1  0  0  0  0
 15  8  1  0  0  0  0
 15 16  1  1  0  0  0
 17 24  1  0  0  0  0
 17 26  1  0  0  0  0
 18 26  2  0  0  0  0
 19 25  1  6  0  0  0
 19 20  1  0  0  0  0
 20 15  1  6  0  0  0
 21 18  1  0  0  0  0
 22 21  1  0  0  0  0
 22 17  2  0  0  0  0
 23 20  1  0  0  0  0
 24 19  1  0  0  0  0
 26 23  1  0  0  0  0
 27 32  1  6  0  0  0
 27 28  1  0  0  0  0
 28 31  1  0  0  0  0
 29 27  1  0  0  0  0
 29 30  1  0  0  0  0
 30 33  2  0  0  0  0
 30 31  1  0  0  0  0
 33 22  1  0  0  0  0
 34 35  1  0  0  0  0
 36 35  1  6  0  0  0
 36 44  1  0  0  0  0
 37 38  2  0  0  0  0
 37 39  1  0  0  0  0
 38 40  1  0  0  0  0
 39 42  2  0  0  0  0
 40 41  2  0  0  0  0
 41 36  1  0  0  0  0
 42 41  1  0  0  0  0
 43 37  1  0  0  0  0
 44 45  1  0  0  0  0
 45 48  1  0  0  0  0
 45 46  2  0  0  0  0
 47 48  2  0  0  0  0
 49 47  1  0  0  0  0
 50 49  1  0  0  0  0
M  END
>  <MODEL>
6

>  <REMARK>
 VINA RESULT:      -7.9      1.583      2.068
  Name = 
  10 active torsions:
  status: ('A' for Active; 'I' for Inactive)
    1  A    between atoms: N_2  and  C_50
    2  A    between atoms: C_4  and  C_23
    3  A    between atoms: C_4  and  C_24
    4  A    between atoms: C_7  and  C_10
    5  A    between atoms: C_17  and  N_21
    6  A    between atoms: N_21  and  C_25
    7  A    between atoms: C_25  and  C_50
    8  A    between atoms: C_31  and  N_47
    9  A    between atoms: C_36  and  C_50
   10  A    between atoms: C_39  and  N_42
                            x       y       z     vdW  Elec       q    Type
                         _______ _______ _______ _____ _____    ______ ____

>  <TORSDO>
F 10

$$$$
=
 OpenBabel11062419173D

 50 56  0  0  1  0  0  0  0  0999 V2000
  188.9410  174.7730  147.4190 C   0  0  0  0  0  3  0  0  0  0  0  0
  188.2340  177.6560  141.6400 C   0  0  0  0  0  1  0  0  0  0  0  0
  187.7170  177.5340  145.3430 N   0  0  0  0  0  0  0  0  0  0  0  0
  188.9350  175.9650  143.3950 C   0  0  0  0  0  0  0  0  0  0  0  0
  189.9900  173.4410  144.0950 N   0  0  0  0  0  0  0  0  0  0  0  0
  189.7660  175.1950  142.3860 C   0  0  2  0  0  3  0  0  0  0  0  0
  188.3250  176.3760  145.7120 C   0  0  0  0  0  0  0  0  0  0  0  0
  190.0600  173.7760  142.8380 C   0  0  0  0  0  0  0  0  0  0  0  0
  189.4920  173.9360  146.4460 C   0  0  0  0  0  3  0  0  0  0  0  0
  189.4860  174.3250  145.1020 C   0  0  0  0  0  0  0  0  0  0  0  0
  188.3530  175.9900  147.0520 C   0  0  0  0  0  3  0  0  0  0  0  0
  187.6780  177.9320  144.0440 C   0  0  0  0  0  3  0  0  0  0  0  0
  188.9270  175.5580  144.7350 C   0  0  0  0  0  0  0  0  0  0  0  0
  188.2850  177.1650  143.0450 C   0  0  0  0  0  0  0  0  0  0  0  0
  190.5860  172.7680  141.8600 C   0  0  2  0  0  3  0  0  0  0  0  0
  189.6370  172.5350  140.8610 O   0  0  0  0  0  1  0  0  0  0  0  0
  193.2300  170.6530  140.9420 C   0  0  0  0  0  0  0  0  0  0  0  0
  192.0560  169.4630  139.4730 C   0  0  0  0  0  3  0  0  0  0  0  0
  192.4160  171.5520  143.1370 C   0  0  2  0  0  3  0  0  0  0  0  0
  190.9850  171.4570  142.5520 C   0  0  2  0  0  3  0  0  0  0  0  0
  193.2770  169.6160  138.9980 O   0  0  0  0  0  0  0  0  0  0  0  0
  193.9970  170.3180  139.8450 C   0  0  0  0  0  0  0  0  0  0  0  0
  190.8240  170.2450  141.6040 C   0  0  0  0  0  2  0  0  0  0  0  0
  193.5070  171.6210  142.0520 C   0  0  0  0  0  2  0  0  0  0  0  0
  192.6880  170.4110  144.1000 C   0  0  0  0  0  1  0  0  0  0  0  0
  191.9930  170.1270  140.6830 C   0  0  0  0  0  0  0  0  0  0  0  0
  196.8990  173.7980  138.5470 C   0  0  1  0  0  3  0  0  0  0  0  0
  195.6410  173.8300  137.8070 N   0  0  0  0  0  2  0  0  0  0  0  0
  197.4610  172.0780  138.6770 S   0  0  0  0  0  0  0  0  0  0  0  0
  195.7460  171.6730  138.8170 C   0  0  0  0  0  0  0  0  0  0  0  0
  194.8290  172.7140  138.2780 C   0  0  0  0  0  2  0  0  0  0  0  0
  197.9410  174.6220  137.8210 C   0  0  0  0  0  1  0  0  0  0  0  0
  195.3560  170.7000  139.5880 N   0  0  0  0  0  0  0  0  0  0  0  0
  191.0340  175.8880  142.1890 N   0  0  0  0  0  2  0  0  0  0  0  0
  192.0540  174.8850  141.9210 C   0  0  0  0  0  2  0  0  0  0  0  0
  193.3030  175.1830  142.7410 C   0  0  2  0  0  3  0  0  0  0  0  0
  192.3290  176.1860  146.8080 C   0  0  0  0  0  0  0  0  0  0  0  0
  192.8730  174.9310  146.5200 C   0  0  0  0  0  3  0  0  0  0  0  0
  192.1010  177.1050  145.7800 C   0  0  0  0  0  3  0  0  0  0  0  0
  193.1890  174.5950  145.2010 C   0  0  0  0  0  3  0  0  0  0  0  0
  192.9610  175.5160  144.1660 C   0  0  0  0  0  0  0  0  0  0  0  0
  192.4200  176.7710  144.4600 C   0  0  0  0  0  3  0  0  0  0  0  0
  192.0170  176.5090  148.0850 F   0  0  0  0  0  0  0  0  0  0  0  0
  194.0430  176.2790  142.1270 N   0  0  0  0  0  2  0  0  0  0  0  0
  195.4160  176.1600  141.7450 C   0  0  0  0  0  0  0  0  0  0  0  0
  196.0010  177.1640  141.2630 O   0  0  0  0  0  0  0  0  0  0  0  0
  196.7080  174.4450  142.9390 C   0  0  0  0  0  3  0  0  0  0  0  0
  196.0940  174.8980  141.8830 N   0  0  0  0  0  0  0  0  0  0  0  0
  196.7750  175.1640  144.2490 C   0  0  0  0  0  2  0  0  0  0  0  0
  196.8750  174.1660  145.3840 C   0  0  0  0  0  1  0  0  0  0  0  0
  2 14  1  0  0  0  0
  3  7  1  0  0  0  0
  4 13  1  0  0  0  0
  5 10  1  0  0  0  0
  6 34  1  1  0  0  0
  6  8  1  0  0  0  0
  6  4  1  0  0  0  0
  7 11  2  0  0  0  0
  8  5  2  0  0  0  0
  9  1  2  0  0  0  0
 10  9  1  0  0  0  0
 11  1  1  0  0  0  0
 12  3  2  0  0  0  0
 13 10  2  0  0  0  0
 13  7  1  0  0  0  0
 14  4  2  0  0  0  0
 14 12  1  0  0  0  0
 15 16  1  6  0  0  0
 15  8  1  0  0  0  0
 17 24  1  0  0  0  0
 18 26  2  0  0  0  0
 19 25  1  1  0  0  0
 20 15  1  6  0  0  0
 20 19  1  0  0  0  0
 21 18  1  0  0  0  0
 21 22  1  0  0  0  0
 22 17  2  0  0  0  0
 23 20  1  0  0  0  0
 24 19  1  0  0  0  0
 26 17  1  0  0  0  0
 26 23  1  0  0  0  0
 27 32  1  6  0  0  0
 27 29  1  0  0  0  0
 28 31  1  0  0  0  0
 28 27  1  0  0  0  0
 29 30  1  0  0  0  0
 30 33  2  0  0  0  0
 31 30  1  0  0  0  0
 33 22  1  0  0  0  0
 35 34  1  0  0  0  0
 36 35  1  6  0  0  0
 36 41  1  0  0  0  0
 37 43  1  0  0  0  0
 38 37  1  0  0  0  0
 39 37  2  0  0  0  0
 40 38  2  0  0  0  0
 41 42  2  0  0  0  0
 41 40  1  0  0  0  0
 42 39  1  0  0  0  0
 44 36  1  0  0  0  0
 45 48  1  0  0  0  0
 45 44  1  0  0  0  0
 46 45  2  0  0  0  0
 47 49  1  0  0  0  0
 48 47  2  0  0  0  0
 49 50  1  0  0  0  0
M  END
>  <MODEL>
7

>  <REMARK>
 VINA RESULT:      -7.9      3.893      6.993
  Name = 
  10 active torsions:
  status: ('A' for Active; 'I' for Inactive)
    1  A    between atoms: N_2  and  C_50
    2  A    between atoms: C_4  and  C_23
    3  A    between atoms: C_4  and  C_24
    4  A    between atoms: C_7  and  C_10
    5  A    between atoms: C_17  and  N_21
    6  A    between atoms: N_21  and  C_25
    7  A    between atoms: C_25  and  C_50
    8  A    between atoms: C_31  and  N_47
    9  A    between atoms: C_36  and  C_50
   10  A    between atoms: C_39  and  N_42
                            x       y       z     vdW  Elec       q    Type
                         _______ _______ _______ _____ _____    ______ ____

>  <TORSDO>
F 10

$$$$
=
 OpenBabel11062419173D

 50 56  0  0  1  0  0  0  0  0999 V2000
  197.9270  175.7330  141.9880 C   0  0  0  0  0  3  0  0  0  0  0  0
  193.0600  174.5410  137.8520 C   0  0  0  0  0  1  0  0  0  0  0  0
  196.6740  175.1640  138.5910 N   0  0  0  0  0  0  0  0  0  0  0  0
  194.3010  174.9450  140.0270 C   0  0  0  0  0  0  0  0  0  0  0  0
  194.2940  175.4790  142.8000 N   0  0  0  0  0  0  0  0  0  0  0  0
  193.0590  174.6430  140.8450 C   0  0  0  0  0  0  0  0  0  0  0  0
  196.7040  175.3070  139.9420 C   0  0  0  0  0  0  0  0  0  0  0  0
  193.1460  175.1940  142.2560 C   0  0  0  0  0  0  0  0  0  0  0  0
  196.7370  175.7000  142.7170 C   0  0  0  0  0  3  0  0  0  0  0  0
  195.5240  175.4460  142.0670 C   0  0  0  0  0  0  0  0  0  0  0  0
  197.9110  175.5400  140.6010 C   0  0  0  0  0  3  0  0  0  0  0  0
  195.5100  174.9340  137.9270 C   0  0  0  0  0  3  0  0  0  0  0  0
  195.5080  175.2220  140.6830 C   0  0  0  0  0  0  0  0  0  0  0  0
  194.3040  174.8160  138.6240 C   0  0  1  0  0  3  0  0  0  0  0  0
  191.9140  175.2770  143.1080 C   0  0  2  0  0  3  0  0  0  0  0  0
  191.9330  176.4570  143.8570 O   0  0  0  0  0  1  0  0  0  0  0  0
  189.7400  174.9680  145.8440 C   0  0  0  0  0  0  0  0  0  0  0  0
  191.1380  175.8500  147.3330 C   0  0  0  0  0  3  0  0  0  0  0  0
  190.3390  173.4610  143.9310 C   0  0  2  0  0  3  0  0  0  0  0  0
  191.7680  174.0510  144.0200 C   0  0  2  0  0  3  0  0  0  0  0  0
  189.9170  176.2490  147.6290 O   0  0  0  0  0  0  0  0  0  0  0  0
  189.0650  175.7450  146.7640 C   0  0  0  0  0  0  0  0  0  0  0  0
  192.1710  174.3800  145.4770 C   0  0  0  0  0  2  0  0  0  0  0  0
  189.2680  174.3790  144.5490 C   0  0  0  0  0  2  0  0  0  0  0  0
  190.2820  172.0770  144.5520 C   0  0  0  0  0  1  0  0  0  0  0  0
  191.0580  175.0630  146.2000 C   0  0  0  0  0  0  0  0  0  0  0  0
  185.4650  177.7890  144.5090 C   0  0  1  0  0  3  0  0  0  0  0  0
  186.6990  178.5600  144.3840 N   0  0  0  0  0  2  0  0  0  0  0  0
  185.3160  177.1940  146.2170 S   0  0  0  0  0  0  0  0  0  0  0  0
  187.0740  177.0200  146.1650 C   0  0  0  0  0  0  0  0  0  0  0  0
  187.7360  177.8470  145.1190 C   0  0  0  0  0  2  0  0  0  0  0  0
  184.2780  178.6630  144.1660 C   0  0  0  0  0  1  0  0  0  0  0  0
  187.6610  176.0390  146.7860 N   0  0  0  0  0  0  0  0  0  0  0  0
  192.8870  173.1970  140.9240 N   0  0  0  0  0  2  0  0  0  0  0  0
  191.5360  172.8840  140.4810 C   0  0  0  0  0  2  0  0  0  0  0  0
  191.5050  171.4980  139.8500 C   0  0  2  0  0  3  0  0  0  0  0  0
  189.5710  171.5900  136.0100 C   0  0  0  0  0  0  0  0  0  0  0  0
  190.4350  170.5360  136.3200 C   0  0  0  0  0  3  0  0  0  0  0  0
  189.3420  172.6070  136.9410 C   0  0  0  0  0  3  0  0  0  0  0  0
  191.0700  170.4990  137.5640 C   0  0  0  0  0  3  0  0  0  0  0  0
  190.8420  171.5200  138.5020 C   0  0  0  0  0  0  0  0  0  0  0  0
  189.9750  172.5700  138.1870 C   0  0  0  0  0  3  0  0  0  0  0  0
  188.9600  171.6280  134.8030 F   0  0  0  0  0  0  0  0  0  0  0  0
  190.8170  170.5690  140.7390 N   0  0  0  0  0  2  0  0  0  0  0  0
  191.4870  169.4810  141.3810 C   0  0  0  0  0  0  0  0  0  0  0  0
  190.8170  168.6940  142.0980 O   0  0  0  0  0  0  0  0  0  0  0  0
  193.8380  169.7150  142.0540 C   0  0  0  0  0  3  0  0  0  0  0  0
  192.9100  169.3230  141.2290 N   0  0  0  0  0  0  0  0  0  0  0  0
  193.5730  170.3780  143.3680 C   0  0  0  0  0  2  0  0  0  0  0  0
  194.4570  171.6000  143.5210 C   0  0  0  0  0  1  0  0  0  0  0  0
  1  9  1  0  0  0  0
  3  7  1  0  0  0  0
  4 13  1  0  0  0  0
  4  6  2  0  0  0  0
  6 34  1  0  0  0  0
  6  8  1  0  0  0  0
  7 11  1  0  0  0  0
  7 13  2  0  0  0  0
  8  5  2  0  0  0  0
  8 15  1  0  0  0  0
 10  9  2  0  0  0  0
 10  5  1  0  0  0  0
 11  1  2  0  0  0  0
 12  3  2  0  0  0  0
 12 14  1  0  0  0  0
 13 10  1  0  0  0  0
 14  2  1  1  0  0  0
 14  4  1  0  0  0  0
 15 16  1  1  0  0  0
 17 26  1  0  0  0  0
 17 22  2  0  0  0  0
 18 21  1  0  0  0  0
 19 20  1  0  0  0  0
 19 24  1  0  0  0  0
 19 25  1  1  0  0  0
 20 15  1  6  0  0  0
 20 23  1  0  0  0  0
 22 33  1  0  0  0  0
 22 21  1  0  0  0  0
 23 26  1  0  0  0  0
 24 17  1  0  0  0  0
 26 18  2  0  0  0  0
 27 32  1  1  0  0  0
 27 29  1  0  0  0  0
 28 27  1  0  0  0  0
 28 31  1  0  0  0  0
 30 29  1  0  0  0  0
 30 33  2  0  0  0  0
 31 30  1  0  0  0  0
 35 34  1  0  0  0  0
 36 35  1  1  0  0  0
 36 44  1  0  0  0  0
 37 38  2  0  0  0  0
 37 39  1  0  0  0  0
 38 40  1  0  0  0  0
 39 42  2  0  0  0  0
 40 41  2  0  0  0  0
 41 36  1  0  0  0  0
 42 41  1  0  0  0  0
 43 37  1  0  0  0  0
 44 45  1  0  0  0  0
 45 46  2  0  0  0  0
 47 49  1  0  0  0  0
 48 45  1  0  0  0  0
 48 47  2  0  0  0  0
 49 50  1  0  0  0  0
M  END
>  <MODEL>
8

>  <REMARK>
 VINA RESULT:      -7.9      3.510      8.324
  Name = 
  10 active torsions:
  status: ('A' for Active; 'I' for Inactive)
    1  A    between atoms: N_2  and  C_50
    2  A    between atoms: C_4  and  C_23
    3  A    between atoms: C_4  and  C_24
    4  A    between atoms: C_7  and  C_10
    5  A    between atoms: C_17  and  N_21
    6  A    between atoms: N_21  and  C_25
    7  A    between atoms: C_25  and  C_50
    8  A    between atoms: C_31  and  N_47
    9  A    between atoms: C_36  and  C_50
   10  A    between atoms: C_39  and  N_42
                            x       y       z     vdW  Elec       q    Type
                         _______ _______ _______ _____ _____    ______ ____

>  <TORSDO>
F 10

$$$$
=
 OpenBabel11062419173D

 50 56  0  0  1  0  0  0  0  0999 V2000
  195.7400  170.8520  145.6300 C   0  0  0  0  0  3  0  0  0  0  0  0
  196.7820  176.7920  143.2150 C   0  0  0  0  0  1  0  0  0  0  0  0
  197.9400  173.3440  144.0880 N   0  0  0  0  0  0  0  0  0  0  0  0
  195.5820  174.8120  144.2480 C   0  0  0  0  0  0  0  0  0  0  0  0
  193.3360  173.7040  145.5540 N   0  0  0  0  0  0  0  0  0  0  0  0
  194.2440  175.5230  144.1710 C   0  0  0  0  0  0  0  0  0  0  0  0
  196.8320  172.7590  144.6130 C   0  0  0  0  0  0  0  0  0  0  0  0
  193.2110  174.9200  145.1050 C   0  0  0  0  0  0  0  0  0  0  0  0
  194.5680  171.5950  145.7870 C   0  0  0  0  0  3  0  0  0  0  0  0
  194.5130  172.9190  145.3350 C   0  0  0  0  0  0  0  0  0  0  0  0
  196.8730  171.4340  145.0480 C   0  0  0  0  0  3  0  0  0  0  0  0
  197.9250  174.6330  143.6570 C   0  0  0  0  0  3  0  0  0  0  0  0
  195.6350  173.4950  144.7230 C   0  0  0  0  0  0  0  0  0  0  0  0
  196.7530  175.3920  143.7220 C   0  0  1  0  0  3  0  0  0  0  0  0
  191.9440  175.6650  145.4070 C   0  0  2  0  0  3  0  0  0  0  0  0
  192.2440  176.8790  146.0310 O   0  0  0  0  0  1  0  0  0  0  0  0
  188.4650  176.0620  145.6190 C   0  0  0  0  0  0  0  0  0  0  0  0
  188.5180  177.5820  147.2420 C   0  0  0  0  0  3  0  0  0  0  0  0
  189.9680  174.0690  145.3790 C   0  0  2  0  0  3  0  0  0  0  0  0
  190.9840  174.8300  146.2660 C   0  0  2  0  0  3  0  0  0  0  0  0
  187.5440  177.8990  146.4130 O   0  0  0  0  0  0  0  0  0  0  0  0
  187.4870  177.0190  145.4390 C   0  0  0  0  0  0  0  0  0  0  0  0
  190.2840  175.6980  147.3370 C   0  0  0  0  0  2  0  0  0  0  0  0
  188.9580  174.9990  144.6830 C   0  0  0  0  0  2  0  0  0  0  0  0
  189.2470  172.9960  146.1750 C   0  0  0  0  0  1  0  0  0  0  0  0
  189.1300  176.4440  146.7530 C   0  0  0  0  0  0  0  0  0  0  0  0
  186.9760  177.1310  140.7540 C   0  0  1  0  0  3  0  0  0  0  0  0
  188.1690  177.8500  141.1920 N   0  0  0  0  0  2  0  0  0  0  0  0
  185.6070  177.5230  141.8790 S   0  0  0  0  0  0  0  0  0  0  0  0
  186.8380  177.5470  143.1470 C   0  0  0  0  0  0  0  0  0  0  0  0
  188.2240  177.7590  142.6460 C   0  0  0  0  0  2  0  0  0  0  0  0
  186.6150  177.5490  139.3450 C   0  0  0  0  0  1  0  0  0  0  0  0
  186.5640  177.1190  144.3450 N   0  0  0  0  0  0  0  0  0  0  0  0
  193.7390  175.4330  142.8060 N   0  0  0  0  0  2  0  0  0  0  0  0
  192.7090  174.4060  142.7770 C   0  0  0  0  0  2  0  0  0  0  0  0
  192.8410  173.5730  141.5090 C   0  0  2  0  0  3  0  0  0  0  0  0
  194.7070  169.7840  142.3260 C   0  0  0  0  0  0  0  0  0  0  0  0
  195.4640  170.8180  141.7660 C   0  0  0  0  0  3  0  0  0  0  0  0
  193.3540  169.9830  142.6140 C   0  0  0  0  0  3  0  0  0  0  0  0
  194.8660  172.0510  141.4940 C   0  0  0  0  0  3  0  0  0  0  0  0
  193.5060  172.2530  141.7820 C   0  0  0  0  0  0  0  0  0  0  0  0
  192.7550  171.2170  142.3440 C   0  0  0  0  0  3  0  0  0  0  0  0
  195.2860  168.5880  142.5840 F   0  0  0  0  0  0  0  0  0  0  0  0
  193.5910  174.3210  140.5070 N   0  0  0  0  0  2  0  0  0  0  0  0
  193.2440  174.3080  139.1200 C   0  0  0  0  0  0  0  0  0  0  0  0
  193.9670  174.9420  138.3080 O   0  0  0  0  0  0  0  0  0  0  0  0
  191.9960  172.3870  138.2330 C   0  0  0  0  0  3  0  0  0  0  0  0
  192.0660  173.6080  138.6800 N   0  0  0  0  0  0  0  0  0  0  0  0
  193.1620  171.4550  138.1410 C   0  0  0  0  0  2  0  0  0  0  0  0
  192.7420  170.0570  138.5470 C   0  0  0  0  0  1  0  0  0  0  0  0
  1  9  1  0  0  0  0
  3  7  1  0  0  0  0
  4 13  1  0  0  0  0
  6  4  2  0  0  0  0
  6  8  1  0  0  0  0
  7 13  2  0  0  0  0
  7 11  1  0  0  0  0
  8 15  1  0  0  0  0
  8  5  2  0  0  0  0
 10  5  1  0  0  0  0
 10  9  2  0  0  0  0
 11  1  2  0  0  0  0
 12 14  1  0  0  0  0
 12  3  2  0  0  0  0
 13 10  1  0  0  0  0
 14  2  1  6  0  0  0
 14  4  1  0  0  0  0
 15 16  1  1  0  0  0
 17 26  1  0  0  0  0
 19 25  1  1  0  0  0
 19 20  1  0  0  0  0
 20 15  1  6  0  0  0
 20 23  1  0  0  0  0
 21 18  1  0  0  0  0
 22 17  2  0  0  0  0
 22 21  1  0  0  0  0
 24 19  1  0  0  0  0
 24 17  1  0  0  0  0
 26 18  2  0  0  0  0
 26 23  1  0  0  0  0
 27 32  1  6  0  0  0
 27 28  1  0  0  0  0
 27 29  1  0  0  0  0
 28 31  1  0  0  0  0
 29 30  1  0  0  0  0
 30 33  2  0  0  0  0
 31 30  1  0  0  0  0
 33 22  1  0  0  0  0
 34  6  1  0  0  0  0
 35 34  1  0  0  0  0
 36 41  1  0  0  0  0
 36 35  1  1  0  0  0
 37 43  1  0  0  0  0
 37 39  1  0  0  0  0
 38 37  2  0  0  0  0
 40 38  1  0  0  0  0
 40 41  2  0  0  0  0
 41 42  1  0  0  0  0
 42 39  2  0  0  0  0
 44 36  1  0  0  0  0
 45 44  1  0  0  0  0
 46 45  2  0  0  0  0
 47 48  2  0  0  0  0
 48 45  1  0  0  0  0
 49 47  1  0  0  0  0
 49 50  1  0  0  0  0
M  END
>  <MODEL>
9

>  <REMARK>
 VINA RESULT:      -7.7      3.601      8.366
  Name = 
  10 active torsions:
  status: ('A' for Active; 'I' for Inactive)
    1  A    between atoms: N_2  and  C_50
    2  A    between atoms: C_4  and  C_23
    3  A    between atoms: C_4  and  C_24
    4  A    between atoms: C_7  and  C_10
    5  A    between atoms: C_17  and  N_21
    6  A    between atoms: N_21  and  C_25
    7  A    between atoms: C_25  and  C_50
    8  A    between atoms: C_31  and  N_47
    9  A    between atoms: C_36  and  C_50
   10  A    between atoms: C_39  and  N_42
                            x       y       z     vdW  Elec       q    Type
                         _______ _______ _______ _____ _____    ______ ____

>  <TORSDO>
F 10

$$$$
