=
 OpenBabel11072408413D

 65 70  0  0  1  0  0  0  0  0999 V2000
  192.6750  172.6220  140.0870 C   0  0  0  0  0  2  0  0  0  0  0  0
  189.8610  172.3520  138.5740 C   0  0  2  0  0  3  0  0  0  0  0  0
  194.0320  172.0130  140.3520 C   0  0  0  0  0  2  0  0  0  0  0  0
  195.6080  173.8010  139.1840 C   0  0  2  0  0  3  0  0  0  0  0  0
  192.5150  171.4460  137.8390 C   0  0  0  0  0  2  0  0  0  0  0  0
  194.7260  173.5340  137.9240 C   0  0  2  0  0  0  0  0  0  0  0  0
  193.3120  173.8270  138.0100 O   0  0  0  0  0  0  0  0  0  0  0  0
  195.2040  173.0030  140.4220 C   0  0  1  0  0  0  0  0  0  0  0  0
  193.7710  175.0510  140.2140 F   0  0  0  0  0  0  0  0  0  0  0  0
  191.1430  170.9340  137.3810 C   0  0  2  0  0  3  0  0  0  0  0  0
  192.4480  172.8240  138.5740 C   0  0  2  0  0  0  0  0  0  0  0  0
  194.9930  172.2170  137.4820 O   0  0  0  0  0  1  0  0  0  0  0  0
  190.2870  171.0110  138.4790 O   0  0  0  0  0  0  0  0  0  0  0  0
  195.0330  174.5540  140.3690 C   0  0  2  0  0  0  0  0  0  0  0  0
  195.2940  174.4870  136.8820 C   0  0  0  0  0  1  0  0  0  0  0  0
  191.0060  173.3900  138.4730 C   0  0  0  0  0  2  0  0  0  0  0  0
  195.9740  175.3370  141.2720 C   0  0  0  0  0  0  0  0  0  0  0  0
  197.0000  175.9770  140.6720 C   0  0  0  0  0  2  0  0  0  0  0  0
  195.8930  175.3170  142.7820 C   0  0  1  0  0  3  0  0  0  0  0  0
  196.2420  176.6950  143.3790 C   0  0  0  0  0  1  0  0  0  0  0  0
  194.4860  174.9370  143.2510 C   0  0  0  0  0  2  0  0  0  0  0  0
  193.5590  176.1190  143.5850 C   0  0  0  0  0  2  0  0  0  0  0  0
  192.3930  175.5910  147.1650 O   0  0  0  0  0  1  0  0  0  0  0  0
  192.7450  175.7830  144.7530 N   0  0  0  0  0  0  0  0  0  0  0  0
  194.2090  176.7290  146.3470 O   0  0  0  0  0  0  0  0  0  0  0  0
  193.1140  176.1300  146.1140 C   0  0  0  0  0  0  0  0  0  0  0  0
  191.3830  175.2440  144.6310 C   0  0  0  0  0  2  0  0  0  0  0  0
  191.5490  173.0130  143.2970 C   0  0  0  0  0  2  0  0  0  0  0  0
  191.2660  173.7150  144.6290 C   0  0  0  0  0  3  0  0  0  0  0  0
  190.6110  171.8160  143.2890 C   0  0  0  0  0  2  0  0  0  0  0  0
  189.9210  173.1820  145.1750 C   0  0  0  0  0  2  0  0  0  0  0  0
  189.3960  172.2100  144.1420 C   0  0  0  0  0  2  0  0  0  0  0  0
  196.3550  172.5490  141.1220 O   0  0  0  0  0  0  0  0  0  0  0  0
  196.2510  171.8550  142.3000 C   0  0  0  0  0  0  0  0  0  0  0  0
  196.1160  171.3380  143.3860 C   0  0  0  0  0  0  0  0  0  0  0  0
  195.8930  170.8060  144.7140 C   0  0  0  0  0  2  0  0  0  0  0  0
  194.4890  170.9830  145.1370 C   0  0  0  0  0  0  0  0  0  0  0  0
  193.5120  170.0330  144.7800 O   0  0  0  0  0  0  0  0  0  0  0  0
  194.1930  171.9680  145.8540 O   0  0  0  0  0  1  0  0  0  0  0  0
  191.2370  169.5030  136.8120 C   0  0  0  0  0  2  0  0  0  0  0  0
  190.8230  170.7300  134.7910 O   0  0  0  0  0  1  0  0  0  0  0  0
  191.3540  169.5490  135.2870 C   0  0  1  0  0  3  0  0  0  0  0  0
  192.7610  169.4230  134.9010 N   0  0  0  0  0  1  0  0  0  0  0  0
  189.0920  172.5050  139.8820 C   0  0  0  0  0  2  0  0  0  0  0  0
  189.2540  173.8200  140.4070 O   0  0  0  0  0  0  0  0  0  0  0  0
  186.8060  175.9540  138.6480 C   0  0  1  0  0  3  0  0  0  0  0  0
  186.6940  176.2790  137.1860 C   0  0  0  0  0  1  0  0  0  0  0  0
  188.0150  175.3630  142.6260 C   0  0  0  0  0  1  0  0  0  0  0  0
  186.7740  176.7050  140.7670 C   0  0  2  0  0  3  0  0  0  0  0  0
  187.8570  175.6750  141.1740 C   0  0  0  0  0  0  0  0  0  0  0  0
  187.9340  175.1180  138.8750 O   0  0  0  0  0  0  0  0  0  0  0  0
  186.9030  177.1220  139.4130 O   0  0  0  0  0  0  0  0  0  0  0  0
  188.3470  174.8770  140.2000 C   0  0  0  0  0  0  0  0  0  0  0  0
  187.9890  178.3550  141.9720 O   0  0  0  0  0  0  0  0  0  0  0  0
  186.8970  177.9150  141.6650 C   0  0  0  0  0  0  0  0  0  0  0  0
  185.6670  178.3520  142.4450 C   0  0  0  0  0  2  0  0  0  0  0  0
  186.0280  179.4700  143.4050 C   0  0  0  0  0  2  0  0  0  0  0  0
  184.9840  179.6710  144.3690 O   0  0  0  0  0  0  0  0  0  0  0  0
  183.7440  178.7280  146.0500 O   0  0  0  0  0  0  0  0  0  0  0  0
  184.8880  178.9800  145.5790 C   0  0  0  0  0  0  0  0  0  0  0  0
  186.1020  178.5730  146.3540 C   0  0  0  0  0  2  0  0  0  0  0  0
  187.8520  176.9700  145.7260 O   0  0  0  0  0  0  0  0  0  0  0  0
  185.7050  176.4400  145.1060 F   0  0  0  0  0  0  0  0  0  0  0  0
  186.4860  177.1380  146.0240 C   0  0  2  0  0  0  0  0  0  0  0  0
  187.3950  176.3670  146.9110 C   0  0  0  0  0  2  0  0  0  0  0  0
  1  3  1  0  0  0  0
  2 44  1  1  0  0  0
  3  8  1  0  0  0  0
  4 14  1  0  0  0  0
  4  8  1  0  0  0  0
  5 11  1  0  0  0  0
  6  7  1  0  0  0  0
  6  4  1  0  0  0  0
  7 11  1  0  0  0  0
  8 33  1  0  0  0  0
  9 14  1  0  0  0  0
 10  5  1  0  0  0  0
 10 13  1  0  0  0  0
 11  1  1  0  0  0  0
 12  6  1  0  0  0  0
 13  2  1  0  0  0  0
 14  8  1  0  0  0  0
 14 17  1  0  0  0  0
 15  6  1  0  0  0  0
 16  2  1  0  0  0  0
 16 11  1  0  0  0  0
 17 19  1  0  0  0  0
 18 17  2  0  0  0  0
 19 21  1  0  0  0  0
 19 20  1  0  0  0  0
 21 22  1  0  0  0  0
 22 24  1  0  0  0  0
 24 26  1  0  0  0  0
 26 25  2  0  0  0  0
 26 23  1  0  0  0  0
 27 24  1  0  0  0  0
 28 29  1  0  0  0  0
 29 27  1  0  0  0  0
 29 31  1  0  0  0  0
 30 28  1  0  0  0  0
 30 32  1  0  0  0  0
 32 31  1  0  0  0  0
 33 34  1  0  0  0  0
 34 35  3  0  0  0  0
 35 36  1  0  0  0  0
 36 37  1  0  0  0  0
 37 39  1  0  0  0  0
 38 37  2  0  0  0  0
 40 10  1  0  0  0  0
 41 42  1  0  0  0  0
 42 40  1  0  0  0  0
 43 42  1  0  0  0  0
 44 45  1  0  0  0  0
 46 51  1  0  0  0  0
 46 52  1  0  0  0  0
 47 46  1  0  0  0  0
 49 50  1  0  0  0  0
 49 55  1  0  0  0  0
 50 48  1  0  0  0  0
 51 53  1  0  0  0  0
 52 49  1  0  0  0  0
 53 45  1  0  0  0  0
 53 50  2  0  0  0  0
 55 54  2  0  0  0  0
 55 56  1  0  0  0  0
 56 57  1  0  0  0  0
 57 58  1  0  0  0  0
 58 60  1  0  0  0  0
 60 59  2  0  0  0  0
 60 61  1  0  0  0  0
 62 64  1  0  0  0  0
 62 65  1  0  0  0  0
 63 64  1  0  0  0  0
 64 61  1  0  0  0  0
 64 65  1  0  0  0  0
M  END
>  <MODEL>
1

>  <REMARK>
 VINA RESULT:      -6.2      0.000      0.000
  Name = 
  23 active torsions:
  status: ('A' for Active; 'I' for Inactive)
    1  A    between atoms: C_1  and  C_41
    2  A    between atoms: C_1  and  C_47
    3  A    between atoms: C_2  and  C_33
    4  A    between atoms: C_4  and  O_39
    5  A    between atoms: C_6  and  C_16
    6  A    between atoms: C_12  and  C_41
    7  A    between atoms: C_12  and  C_59
    8  A    between atoms: O_15  and  C_23
    9  A    between atoms: O_15  and  C_64
   10  A    between atoms: C_16  and  O_18
   11  A    between atoms: C_17  and  C_31
   12  A    between atoms: C_17  and  C_42
   13  A    between atoms: O_18  and  C_55
   14  A    between atoms: C_22  and  C_61
   15  A    between atoms: C_23  and  C_38
   16  A    between atoms: N_27  and  C_47
   17  A    between atoms: N_27  and  C_56
   18  A    between atoms: C_28  and  O_39
   19  A    between atoms: C_29  and  C_56
   20  A    between atoms: C_33  and  C_52
   21  A    between atoms: C_38  and  C_61
   22  A    between atoms: C_45  and  C_63
   23  A    between atoms: C_63  and  C_64
                            x       y       z     vdW  Elec       q    Type
                         _______ _______ _______ _____ _____    ______ ____

>  <TORSDO>
F 23

$$$$
=
 OpenBabel11072408413D

 65 70  0  0  1  0  0  0  0  0999 V2000
  193.8090  175.3560  143.0390 C   0  0  0  0  0  2  0  0  0  0  0  0
  196.7980  175.7500  141.9460 C   0  0  2  0  0  3  0  0  0  0  0  0
  192.8690  174.5220  143.8770 C   0  0  0  0  0  2  0  0  0  0  0  0
  192.3020  176.2320  145.8270 C   0  0  2  0  0  3  0  0  0  0  0  0
  195.8080  174.6050  144.4190 C   0  0  0  0  0  2  0  0  0  0  0  0
  193.8510  176.3080  146.0070 C   0  0  2  0  0  0  0  0  0  0  0  0
  194.6420  176.7840  144.8940 O   0  0  0  0  0  0  0  0  0  0  0  0
  191.8390  175.3070  144.7030 C   0  0  1  0  0  0  0  0  0  0  0  0
  192.4710  177.5460  143.7670 F   0  0  0  0  0  0  0  0  0  0  0  0
  197.1450  174.3790  143.7000 C   0  0  2  0  0  3  0  0  0  0  0  0
  195.0130  175.8370  143.8760 C   0  0  2  0  0  0  0  0  0  0  0  0
  194.2890  175.0580  146.5040 O   0  0  0  0  0  1  0  0  0  0  0  0
  196.8850  174.3960  142.3310 O   0  0  0  0  0  0  0  0  0  0  0  0
  191.6480  176.8540  144.6070 C   0  0  2  0  0  0  0  0  0  0  0  0
  194.0310  177.3280  147.1220 C   0  0  0  0  0  1  0  0  0  0  0  0
  195.9000  176.6140  142.8650 C   0  0  0  0  0  2  0  0  0  0  0  0
  190.2070  177.3320  144.7070 C   0  0  0  0  0  0  0  0  0  0  0  0
  189.6590  177.3560  145.9400 C   0  0  0  0  0  2  0  0  0  0  0  0
  189.3440  177.6420  143.5040 C   0  0  1  0  0  3  0  0  0  0  0  0
  189.4100  176.5080  142.4610 C   0  0  0  0  0  1  0  0  0  0  0  0
  187.8810  177.8320  143.9120 C   0  0  0  0  0  2  0  0  0  0  0  0
  187.1820  179.0640  143.3110 C   0  0  0  0  0  2  0  0  0  0  0  0
  183.5840  178.0280  142.6520 O   0  0  0  0  0  1  0  0  0  0  0  0
  185.7320  178.9040  143.4230 N   0  0  0  0  0  0  0  0  0  0  0  0
  185.5440  177.2430  141.7530 O   0  0  0  0  0  0  0  0  0  0  0  0
  184.9660  177.9620  142.6270 C   0  0  0  0  0  0  0  0  0  0  0  0
  184.9550  179.5380  144.4980 C   0  0  0  0  0  2  0  0  0  0  0  0
  185.8910  179.2260  146.9080 C   0  0  0  0  0  2  0  0  0  0  0  0
  184.9050  178.7740  145.8260 C   0  0  0  0  0  3  0  0  0  0  0  0
  186.2600  177.9490  147.6480 C   0  0  0  0  0  2  0  0  0  0  0  0
  185.0280  177.2390  145.6790 C   0  0  0  0  0  2  0  0  0  0  0  0
  186.1150  176.8030  146.6350 C   0  0  0  0  0  2  0  0  0  0  0  0
  190.6810  174.5810  145.0980 O   0  0  0  0  0  0  0  0  0  0  0  0
  190.1400  173.6070  144.3010 C   0  0  0  0  0  0  0  0  0  0  0  0
  189.7680  172.7130  143.5740 C   0  0  0  0  0  0  0  0  0  0  0  0
  189.4260  171.6040  142.7080 C   0  0  0  0  0  2  0  0  0  0  0  0
  190.6110  171.0960  141.9890 C   0  0  0  0  0  0  0  0  0  0  0  0
  190.9300  171.5810  140.7060 O   0  0  0  0  0  0  0  0  0  0  0  0
  191.3510  170.2590  142.5590 O   0  0  0  0  0  1  0  0  0  0  0  0
  197.8130  173.0640  144.1530 C   0  0  0  0  0  2  0  0  0  0  0  0
  196.8430  171.0160  143.3620 O   0  0  0  0  0  1  0  0  0  0  0  0
  196.7540  171.9780  144.3560 C   0  0  1  0  0  3  0  0  0  0  0  0
  196.9300  171.3660  145.6740 N   0  0  0  0  0  1  0  0  0  0  0  0
  196.3110  175.7930  140.5010 C   0  0  0  0  0  2  0  0  0  0  0  0
  195.0410  175.1580  140.3810 O   0  0  0  0  0  0  0  0  0  0  0  0
  194.3250  171.6030  139.6780 C   0  0  1  0  0  3  0  0  0  0  0  0
  194.7020  170.3770  140.4590 C   0  0  0  0  0  1  0  0  0  0  0  0
  194.2120  175.2080  137.5270 C   0  0  0  0  0  1  0  0  0  0  0  0
  194.1820  172.6050  137.6710 C   0  0  2  0  0  3  0  0  0  0  0  0
  194.5400  173.9740  138.3010 C   0  0  0  0  0  0  0  0  0  0  0  0
  194.8520  172.7640  140.3100 O   0  0  0  0  0  0  0  0  0  0  0  0
  194.7850  171.5160  138.3590 O   0  0  0  0  0  0  0  0  0  0  0  0
  194.8030  173.9930  139.6260 C   0  0  0  0  0  0  0  0  0  0  0  0
  195.7290  173.0760  135.9290 O   0  0  0  0  0  0  0  0  0  0  0  0
  194.6540  172.5970  136.2340 C   0  0  0  0  0  0  0  0  0  0  0  0
  193.6310  172.2990  135.1490 C   0  0  0  0  0  2  0  0  0  0  0  0
  192.3330  173.0280  135.4420 C   0  0  0  0  0  2  0  0  0  0  0  0
  191.3880  172.1510  136.0740 O   0  0  0  0  0  0  0  0  0  0  0  0
  189.1070  172.1740  136.2920 O   0  0  0  0  0  0  0  0  0  0  0  0
  190.2240  172.5810  136.7150 C   0  0  0  0  0  0  0  0  0  0  0  0
  190.2640  173.5460  137.8590 C   0  0  0  0  0  2  0  0  0  0  0  0
  188.2570  172.8290  139.0770 O   0  0  0  0  0  0  0  0  0  0  0  0
  187.9460  174.3770  137.4080 F   0  0  0  0  0  0  0  0  0  0  0  0
  188.8540  173.8650  138.3330 C   0  0  2  0  0  0  0  0  0  0  0  0
  188.5490  174.0120  139.7800 C   0  0  0  0  0  2  0  0  0  0  0  0
  1 11  1  0  0  0  0
  1  3  1  0  0  0  0
  2 44  1  6  0  0  0
  2 13  1  0  0  0  0
  2 16  1  0  0  0  0
  3  8  1  0  0  0  0
  4  6  1  0  0  0  0
  6 12  1  0  0  0  0
  6 15  1  0  0  0  0
  7  6  1  0  0  0  0
  8 33  1  0  0  0  0
  8  4  1  0  0  0  0
  9 14  1  0  0  0  0
 10 40  1  0  0  0  0
 10  5  1  0  0  0  0
 11  5  1  0  0  0  0
 11  7  1  0  0  0  0
 13 10  1  0  0  0  0
 14  8  1  0  0  0  0
 14 17  1  0  0  0  0
 14  4  1  0  0  0  0
 16 11  1  0  0  0  0
 17 18  2  0  0  0  0
 19 21  1  0  0  0  0
 19 17  1  0  0  0  0
 20 19  1  0  0  0  0
 22 24  1  0  0  0  0
 22 21  1  0  0  0  0
 24 27  1  0  0  0  0
 25 26  2  0  0  0  0
 26 23  1  0  0  0  0
 26 24  1  0  0  0  0
 27 29  1  0  0  0  0
 28 30  1  0  0  0  0
 29 28  1  0  0  0  0
 31 29  1  0  0  0  0
 31 32  1  0  0  0  0
 32 30  1  0  0  0  0
 34 33  1  0  0  0  0
 35 34  3  0  0  0  0
 36 35  1  0  0  0  0
 37 39  1  0  0  0  0
 37 36  1  0  0  0  0
 38 37  2  0  0  0  0
 40 42  1  0  0  0  0
 41 42  1  0  0  0  0
 42 43  1  0  0  0  0
 45 44  1  0  0  0  0
 46 51  1  0  0  0  0
 46 47  1  0  0  0  0
 48 50  1  0  0  0  0
 49 50  1  0  0  0  0
 49 52  1  0  0  0  0
 50 53  2  0  0  0  0
 52 46  1  0  0  0  0
 53 51  1  0  0  0  0
 53 45  1  0  0  0  0
 54 55  2  0  0  0  0
 55 49  1  0  0  0  0
 56 57  1  0  0  0  0
 56 55  1  0  0  0  0
 57 58  1  0  0  0  0
 58 60  1  0  0  0  0
 59 60  2  0  0  0  0
 60 61  1  0  0  0  0
 61 64  1  0  0  0  0
 62 65  1  0  0  0  0
 63 64  1  0  0  0  0
 64 62  1  0  0  0  0
 64 65  1  0  0  0  0
M  END
>  <MODEL>
2

>  <REMARK>
 VINA RESULT:      -5.8      2.710      8.562
  Name = 
  23 active torsions:
  status: ('A' for Active; 'I' for Inactive)
    1  A    between atoms: C_1  and  C_41
    2  A    between atoms: C_1  and  C_47
    3  A    between atoms: C_2  and  C_33
    4  A    between atoms: C_4  and  O_39
    5  A    between atoms: C_6  and  C_16
    6  A    between atoms: C_12  and  C_41
    7  A    between atoms: C_12  and  C_59
    8  A    between atoms: O_15  and  C_23
    9  A    between atoms: O_15  and  C_64
   10  A    between atoms: C_16  and  O_18
   11  A    between atoms: C_17  and  C_31
   12  A    between atoms: C_17  and  C_42
   13  A    between atoms: O_18  and  C_55
   14  A    between atoms: C_22  and  C_61
   15  A    between atoms: C_23  and  C_38
   16  A    between atoms: N_27  and  C_47
   17  A    between atoms: N_27  and  C_56
   18  A    between atoms: C_28  and  O_39
   19  A    between atoms: C_29  and  C_56
   20  A    between atoms: C_33  and  C_52
   21  A    between atoms: C_38  and  C_61
   22  A    between atoms: C_45  and  C_63
   23  A    between atoms: C_63  and  C_64
                            x       y       z     vdW  Elec       q    Type
                         _______ _______ _______ _____ _____    ______ ____

>  <TORSDO>
F 23

$$$$
=
 OpenBabel11072408413D

 65 70  0  0  1  0  0  0  0  0999 V2000
  190.2260  174.7950  142.6470 C   0  0  0  0  0  2  0  0  0  0  0  0
  188.8780  177.7050  142.6740 C   0  0  2  0  0  3  0  0  0  0  0  0
  190.1370  173.3560  143.0960 C   0  0  0  0  0  2  0  0  0  0  0  0
  189.7900  172.1350  140.7650 C   0  0  2  0  0  3  0  0  0  0  0  0
  187.7000  175.0570  142.7690 C   0  0  0  0  0  2  0  0  0  0  0  0
  188.5820  173.1100  140.6040 C   0  0  2  0  0  0  0  0  0  0  0  0
  188.8520  174.5310  140.5940 O   0  0  0  0  0  0  0  0  0  0  0  0
  190.5760  172.3070  142.0640 C   0  0  1  0  0  0  0  0  0  0  0  0
  191.3450  173.9840  140.3640 F   0  0  0  0  0  0  0  0  0  0  0  0
  187.1290  176.4010  143.2410 C   0  0  2  0  0  3  0  0  0  0  0  0
  188.9640  175.2050  141.8600 C   0  0  2  0  0  0  0  0  0  0  0  0
  187.5990  172.7390  141.5530 O   0  0  0  0  0  1  0  0  0  0  0  0
  188.1900  177.1370  143.7670 O   0  0  0  0  0  0  0  0  0  0  0  0
  191.2100  172.6640  140.6820 C   0  0  2  0  0  0  0  0  0  0  0  0
  188.0320  172.7730  139.2260 C   0  0  0  0  0  1  0  0  0  0  0  0
  189.1850  176.7070  141.5310 C   0  0  0  0  0  2  0  0  0  0  0  0
  192.3180  171.7290  140.2220 C   0  0  0  0  0  0  0  0  0  0  0  0
  191.9370  170.5780  139.6300 C   0  0  0  0  0  2  0  0  0  0  0  0
  193.7840  171.9640  140.5140 C   0  0  1  0  0  3  0  0  0  0  0  0
  194.4930  170.6520  140.9090 C   0  0  0  0  0  1  0  0  0  0  0  0
  194.5010  172.5440  139.2920 C   0  0  0  0  0  2  0  0  0  0  0  0
  195.1400  171.5110  138.3480 C   0  0  0  0  0  2  0  0  0  0  0  0
  197.3110  173.5750  136.0070 O   0  0  0  0  0  0  0  0  0  0  0  0
  195.6590  172.1920  137.1620 N   0  0  0  0  0  0  0  0  0  0  0  0
  197.7590  172.7370  138.0950 O   0  0  0  0  0  1  0  0  0  0  0  0
  196.9870  172.7730  137.0870 C   0  0  0  0  0  0  0  0  0  0  0  0
  194.9530  172.1660  135.8720 C   0  0  0  0  0  2  0  0  0  0  0  0
  193.8820  174.4590  136.4890 C   0  0  0  0  0  2  0  0  0  0  0  0
  193.7650  173.1270  135.7420 C   0  0  0  0  0  3  0  0  0  0  0  0
  192.4610  174.7790  136.9250 C   0  0  0  0  0  2  0  0  0  0  0  0
  192.3990  172.4960  136.1000 C   0  0  0  0  0  2  0  0  0  0  0  0
  191.7430  173.4320  137.0910 C   0  0  0  0  0  2  0  0  0  0  0  0
  190.9550  171.0420  142.5910 O   0  0  0  0  0  0  0  0  0  0  0  0
  191.9300  170.9270  143.5470 C   0  0  0  0  0  0  0  0  0  0  0  0
  192.8430  170.7520  144.3220 C   0  0  0  0  0  0  0  0  0  0  0  0
  193.9910  170.4940  145.1670 C   0  0  0  0  0  2  0  0  0  0  0  0
  195.0650  169.8080  144.4220 C   0  0  0  0  0  0  0  0  0  0  0  0
  194.9060  168.4710  144.0080 O   0  0  0  0  0  0  0  0  0  0  0  0
  196.1020  170.4500  144.1280 O   0  0  0  0  0  1  0  0  0  0  0  0
  185.9920  176.2020  144.2630 C   0  0  0  0  0  2  0  0  0  0  0  0
  184.6440  178.0970  144.8550 O   0  0  0  0  0  1  0  0  0  0  0  0
  185.8390  177.4520  145.1320 C   0  0  1  0  0  3  0  0  0  0  0  0
  185.8980  177.0740  146.5460 N   0  0  0  0  0  1  0  0  0  0  0  0
  190.1570  178.3410  143.2090 C   0  0  0  0  0  2  0  0  0  0  0  0
  190.2440  178.1790  144.6220 O   0  0  0  0  0  0  0  0  0  0  0  0
  190.1010  175.0010  146.4980 C   0  0  1  0  0  3  0  0  0  0  0  0
  189.1300  174.5530  147.5520 C   0  0  0  0  0  1  0  0  0  0  0  0
  192.9300  177.0040  144.1280 C   0  0  0  0  0  1  0  0  0  0  0  0
  192.2430  175.1560  145.8330 C   0  0  2  0  0  3  0  0  0  0  0  0
  191.9580  176.5180  145.1520 C   0  0  0  0  0  0  0  0  0  0  0  0
  189.7910  176.3250  146.0810 O   0  0  0  0  0  0  0  0  0  0  0  0
  191.4170  174.9340  146.9700 O   0  0  0  0  0  0  0  0  0  0  0  0
  190.7070  177.0130  145.2620 C   0  0  0  0  0  0  0  0  0  0  0  0
  194.1790  176.0620  146.8730 O   0  0  0  0  0  0  0  0  0  0  0  0
  193.6910  175.1260  146.2680 C   0  0  0  0  0  0  0  0  0  0  0  0
  194.6020  174.0800  145.6440 C   0  0  0  0  0  2  0  0  0  0  0  0
  196.0430  174.5530  145.6850 C   0  0  0  0  0  2  0  0  0  0  0  0
  196.6510  174.4480  144.3890 O   0  0  0  0  0  0  0  0  0  0  0  0
  197.1970  176.4750  143.4680 O   0  0  0  0  0  0  0  0  0  0  0  0
  196.5260  175.4090  143.3820 C   0  0  0  0  0  0  0  0  0  0  0  0
  195.5870  175.2280  142.2320 C   0  0  0  0  0  2  0  0  0  0  0  0
  197.3420  175.8520  140.6330 O   0  0  0  0  0  0  0  0  0  0  0  0
  195.7700  177.4580  141.1100 F   0  0  0  0  0  0  0  0  0  0  0  0
  196.0190  176.0880  141.0540 C   0  0  2  0  0  0  0  0  0  0  0  0
  196.3270  175.4790  139.7340 C   0  0  0  0  0  2  0  0  0  0  0  0
  1  3  1  0  0  0  0
  2 44  1  1  0  0  0
  2 13  1  0  0  0  0
  4  8  1  0  0  0  0
  5 10  1  0  0  0  0
  6  4  1  0  0  0  0
  6 12  1  0  0  0  0
  7  6  1  0  0  0  0
  7 11  1  0  0  0  0
  8 33  1  0  0  0  0
  8  3  1  0  0  0  0
  9 14  1  0  0  0  0
 10 13  1  0  0  0  0
 10 40  1  0  0  0  0
 11  1  1  0  0  0  0
 11  5  1  0  0  0  0
 14  4  1  0  0  0  0
 14  8  1  0  0  0  0
 15  6  1  0  0  0  0
 16 11  1  0  0  0  0
 16  2  1  0  0  0  0
 17 19  1  0  0  0  0
 17 14  1  0  0  0  0
 18 17  2  0  0  0  0
 19 20  1  0  0  0  0
 21 19  1  0  0  0  0
 22 21  1  0  0  0  0
 23 26  2  0  0  0  0
 24 22  1  0  0  0  0
 26 24  1  0  0  0  0
 26 25  1  0  0  0  0
 27 24  1  0  0  0  0
 28 30  1  0  0  0  0
 29 27  1  0  0  0  0
 29 31  1  0  0  0  0
 29 28  1  0  0  0  0
 30 32  1  0  0  0  0
 31 32  1  0  0  0  0
 33 34  1  0  0  0  0
 34 35  3  0  0  0  0
 35 36  1  0  0  0  0
 37 36  1  0  0  0  0
 38 37  2  0  0  0  0
 39 37  1  0  0  0  0
 40 42  1  0  0  0  0
 41 42  1  0  0  0  0
 42 43  1  0  0  0  0
 44 45  1  0  0  0  0
 45 53  1  0  0  0  0
 46 52  1  0  0  0  0
 46 47  1  0  0  0  0
 48 50  1  0  0  0  0
 49 55  1  0  0  0  0
 49 52  1  0  0  0  0
 50 53  2  0  0  0  0
 50 49  1  0  0  0  0
 51 46  1  0  0  0  0
 53 51  1  0  0  0  0
 55 54  2  0  0  0  0
 56 57  1  0  0  0  0
 56 55  1  0  0  0  0
 58 57  1  0  0  0  0
 60 59  2  0  0  0  0
 60 58  1  0  0  0  0
 61 60  1  0  0  0  0
 62 64  1  0  0  0  0
 64 63  1  0  0  0  0
 64 61  1  0  0  0  0
 65 62  1  0  0  0  0
 65 64  1  0  0  0  0
M  END
>  <MODEL>
3

>  <REMARK>
 VINA RESULT:      -5.6      2.673      8.450
  Name = 
  23 active torsions:
  status: ('A' for Active; 'I' for Inactive)
    1  A    between atoms: C_1  and  C_41
    2  A    between atoms: C_1  and  C_47
    3  A    between atoms: C_2  and  C_33
    4  A    between atoms: C_4  and  O_39
    5  A    between atoms: C_6  and  C_16
    6  A    between atoms: C_12  and  C_41
    7  A    between atoms: C_12  and  C_59
    8  A    between atoms: O_15  and  C_23
    9  A    between atoms: O_15  and  C_64
   10  A    between atoms: C_16  and  O_18
   11  A    between atoms: C_17  and  C_31
   12  A    between atoms: C_17  and  C_42
   13  A    between atoms: O_18  and  C_55
   14  A    between atoms: C_22  and  C_61
   15  A    between atoms: C_23  and  C_38
   16  A    between atoms: N_27  and  C_47
   17  A    between atoms: N_27  and  C_56
   18  A    between atoms: C_28  and  O_39
   19  A    between atoms: C_29  and  C_56
   20  A    between atoms: C_33  and  C_52
   21  A    between atoms: C_38  and  C_61
   22  A    between atoms: C_45  and  C_63
   23  A    between atoms: C_63  and  C_64
                            x       y       z     vdW  Elec       q    Type
                         _______ _______ _______ _____ _____    ______ ____

>  <TORSDO>
F 23

$$$$
=
 OpenBabel11072408413D

 65 70  0  0  1  0  0  0  0  0999 V2000
  193.5970  172.7040  141.5830 C   0  0  0  0  0  2  0  0  0  0  0  0
  192.8290  172.3360  144.6750 C   0  0  2  0  0  3  0  0  0  0  0  0
  194.4240  173.4540  140.5660 C   0  0  0  0  0  2  0  0  0  0  0  0
  196.0300  171.5190  139.7160 C   0  0  2  0  0  3  0  0  0  0  0  0
  195.3000  173.1730  143.4110 C   0  0  0  0  0  2  0  0  0  0  0  0
  196.3840  171.3530  141.2270 C   0  0  2  0  0  0  0  0  0  0  0  0
  195.3180  171.0010  142.1400 O   0  0  0  0  0  0  0  0  0  0  0  0
  195.0010  172.6090  139.4210 C   0  0  1  0  0  0  0  0  0  0  0  0
  193.8410  170.4930  140.1080 F   0  0  0  0  0  0  0  0  0  0  0  0
  194.7880  173.4380  144.8330 C   0  0  2  0  0  3  0  0  0  0  0  0
  194.4970  172.0620  142.6590 C   0  0  2  0  0  0  0  0  0  0  0  0
  197.1010  172.5040  141.6310 O   0  0  0  0  0  1  0  0  0  0  0  0
  193.4080  173.6200  144.7460 O   0  0  0  0  0  0  0  0  0  0  0  0
  194.6640  171.0990  139.2040 C   0  0  2  0  0  0  0  0  0  0  0  0
  197.3570  170.1840  141.2400 C   0  0  0  0  0  1  0  0  0  0  0  0
  193.5020  171.3940  143.6460 C   0  0  0  0  0  2  0  0  0  0  0  0
  194.5210  170.6740  137.7510 C   0  0  0  0  0  0  0  0  0  0  0  0
  195.6290  170.1980  137.1440 C   0  0  0  0  0  2  0  0  0  0  0  0
  193.2620  170.8830  136.9390 C   0  0  1  0  0  3  0  0  0  0  0  0
  193.5760  171.5290  135.5750 C   0  0  0  0  0  1  0  0  0  0  0  0
  192.5450  169.5540  136.6850 C   0  0  0  0  0  2  0  0  0  0  0  0
  191.1700  169.6650  136.0030 C   0  0  0  0  0  2  0  0  0  0  0  0
  189.0400  172.5280  137.3140 O   0  0  0  0  0  1  0  0  0  0  0  0
  190.2810  170.4770  136.8330 N   0  0  0  0  0  0  0  0  0  0  0  0
  189.9710  172.1970  135.2440 O   0  0  0  0  0  0  0  0  0  0  0  0
  189.6950  171.7310  136.3930 C   0  0  0  0  0  0  0  0  0  0  0  0
  189.7400  169.9900  138.1110 C   0  0  0  0  0  2  0  0  0  0  0  0
  190.7970  168.7750  140.1580 C   0  0  0  0  0  2  0  0  0  0  0  0
  190.6990  170.0440  139.3060 C   0  0  0  0  0  3  0  0  0  0  0  0
  191.0260  169.2810  141.5730 C   0  0  0  0  0  2  0  0  0  0  0  0
  190.4590  171.2410  140.2560 C   0  0  0  0  0  2  0  0  0  0  0  0
  190.3680  170.6660  141.6520 C   0  0  0  0  0  2  0  0  0  0  0  0
  195.3510  173.3220  138.2420 O   0  0  0  0  0  0  0  0  0  0  0  0
  194.5250  174.2770  137.7100 C   0  0  0  0  0  0  0  0  0  0  0  0
  193.8820  175.1530  137.1750 C   0  0  0  0  0  0  0  0  0  0  0  0
  193.1950  176.2090  136.4610 C   0  0  0  0  0  2  0  0  0  0  0  0
  194.0360  176.7660  135.3820 C   0  0  0  0  0  0  0  0  0  0  0  0
  194.8780  175.9260  134.6290 O   0  0  0  0  0  0  0  0  0  0  0  0
  193.9530  177.9900  135.1210 O   0  0  0  0  0  1  0  0  0  0  0  0
  195.4990  174.6490  145.4720 C   0  0  0  0  0  2  0  0  0  0  0  0
  194.2620  176.3040  146.6910 O   0  0  0  0  0  1  0  0  0  0  0  0
  194.5940  175.8810  145.4140 C   0  0  1  0  0  3  0  0  0  0  0  0
  195.2750  176.9530  144.6840 N   0  0  0  0  0  1  0  0  0  0  0  0
  191.3440  172.5110  144.3730 C   0  0  0  0  0  2  0  0  0  0  0  0
  191.1440  173.5730  143.4430 O   0  0  0  0  0  0  0  0  0  0  0  0
  190.0380  176.7120  145.0450 C   0  0  1  0  0  3  0  0  0  0  0  0
  190.1920  177.1670  146.4680 C   0  0  0  0  0  1  0  0  0  0  0  0
  189.2090  174.6690  141.4710 C   0  0  0  0  0  1  0  0  0  0  0  0
  188.6960  176.5010  143.2530 C   0  0  2  0  0  3  0  0  0  0  0  0
  189.3790  175.1640  142.8690 C   0  0  0  0  0  0  0  0  0  0  0  0
  190.5860  175.4080  144.8900 O   0  0  0  0  0  0  0  0  0  0  0  0
  188.6930  176.7250  144.6580 O   0  0  0  0  0  0  0  0  0  0  0  0
  190.3490  174.7090  143.6900 C   0  0  0  0  0  0  0  0  0  0  0  0
  186.6450  175.4290  142.7110 O   0  0  0  0  0  0  0  0  0  0  0  0
  187.2670  176.4730  142.7600 C   0  0  0  0  0  0  0  0  0  0  0  0
  186.7470  177.6910  142.0120 C   0  0  0  0  0  2  0  0  0  0  0  0
  185.5100  178.2350  142.7010 C   0  0  0  0  0  2  0  0  0  0  0  0
  185.7790  178.5180  144.0820 O   0  0  0  0  0  0  0  0  0  0  0  0
  184.0180  178.8810  145.5040 O   0  0  0  0  0  0  0  0  0  0  0  0
  184.9580  178.1210  145.1410 C   0  0  0  0  0  0  0  0  0  0  0  0
  185.1920  176.8440  145.8840 C   0  0  0  0  0  2  0  0  0  0  0  0
  186.7930  178.3360  146.9970 O   0  0  0  0  0  0  0  0  0  0  0  0
  187.1760  176.0810  147.2060 F   0  0  0  0  0  0  0  0  0  0  0  0
  186.2030  177.0560  147.0010 C   0  0  2  0  0  0  0  0  0  0  0  0
  185.9500  178.0420  148.0830 C   0  0  0  0  0  2  0  0  0  0  0  0
  1 11  1  0  0  0  0
  2 44  1  6  0  0  0
  2 13  1  0  0  0  0
  3  1  1  0  0  0  0
  4  6  1  0  0  0  0
  5 10  1  0  0  0  0
  6 15  1  0  0  0  0
  6 12  1  0  0  0  0
  6  7  1  0  0  0  0
  7 11  1  0  0  0  0
  8  4  1  0  0  0  0
  8  3  1  0  0  0  0
 10 40  1  0  0  0  0
 11  5  1  0  0  0  0
 11 16  1  0  0  0  0
 13 10  1  0  0  0  0
 14  8  1  0  0  0  0
 14  4  1  0  0  0  0
 14  9  1  0  0  0  0
 16  2  1  0  0  0  0
 17 14  1  0  0  0  0
 18 17  2  0  0  0  0
 19 17  1  0  0  0  0
 20 19  1  0  0  0  0
 21 19  1  0  0  0  0
 22 21  1  0  0  0  0
 22 24  1  0  0  0  0
 24 27  1  0  0  0  0
 25 26  2  0  0  0  0
 26 24  1  0  0  0  0
 26 23  1  0  0  0  0
 27 29  1  0  0  0  0
 28 30  1  0  0  0  0
 29 28  1  0  0  0  0
 29 31  1  0  0  0  0
 30 32  1  0  0  0  0
 31 32  1  0  0  0  0
 33  8  1  0  0  0  0
 34 33  1  0  0  0  0
 35 34  3  0  0  0  0
 36 35  1  0  0  0  0
 37 36  1  0  0  0  0
 38 37  2  0  0  0  0
 39 37  1  0  0  0  0
 42 40  1  0  0  0  0
 42 41  1  0  0  0  0
 43 42  1  0  0  0  0
 45 53  1  0  0  0  0
 45 44  1  0  0  0  0
 46 47  1  0  0  0  0
 48 50  1  0  0  0  0
 49 52  1  0  0  0  0
 50 49  1  0  0  0  0
 50 53  2  0  0  0  0
 51 46  1  0  0  0  0
 52 46  1  0  0  0  0
 53 51  1  0  0  0  0
 54 55  2  0  0  0  0
 55 49  1  0  0  0  0
 56 57  1  0  0  0  0
 56 55  1  0  0  0  0
 57 58  1  0  0  0  0
 58 60  1  0  0  0  0
 60 59  2  0  0  0  0
 60 61  1  0  0  0  0
 61 64  1  0  0  0  0
 62 64  1  0  0  0  0
 62 65  1  0  0  0  0
 64 63  1  0  0  0  0
 64 65  1  0  0  0  0
M  END
>  <MODEL>
4

>  <REMARK>
 VINA RESULT:      -5.5      2.206      6.938
  Name = 
  23 active torsions:
  status: ('A' for Active; 'I' for Inactive)
    1  A    between atoms: C_1  and  C_41
    2  A    between atoms: C_1  and  C_47
    3  A    between atoms: C_2  and  C_33
    4  A    between atoms: C_4  and  O_39
    5  A    between atoms: C_6  and  C_16
    6  A    between atoms: C_12  and  C_41
    7  A    between atoms: C_12  and  C_59
    8  A    between atoms: O_15  and  C_23
    9  A    between atoms: O_15  and  C_64
   10  A    between atoms: C_16  and  O_18
   11  A    between atoms: C_17  and  C_31
   12  A    between atoms: C_17  and  C_42
   13  A    between atoms: O_18  and  C_55
   14  A    between atoms: C_22  and  C_61
   15  A    between atoms: C_23  and  C_38
   16  A    between atoms: N_27  and  C_47
   17  A    between atoms: N_27  and  C_56
   18  A    between atoms: C_28  and  O_39
   19  A    between atoms: C_29  and  C_56
   20  A    between atoms: C_33  and  C_52
   21  A    between atoms: C_38  and  C_61
   22  A    between atoms: C_45  and  C_63
   23  A    between atoms: C_63  and  C_64
                            x       y       z     vdW  Elec       q    Type
                         _______ _______ _______ _____ _____    ______ ____

>  <TORSDO>
F 23

$$$$
=
 OpenBabel11072408413D

 65 70  0  0  1  0  0  0  0  0999 V2000
  192.0420  171.9650  142.1250 C   0  0  0  0  0  2  0  0  0  0  0  0
  191.8780  169.2170  140.4790 C   0  0  2  0  0  3  0  0  0  0  0  0
  192.2370  173.4620  142.0710 C   0  0  0  0  0  2  0  0  0  0  0  0
  189.8340  174.2960  142.8310 C   0  0  2  0  0  3  0  0  0  0  0  0
  191.1610  171.9280  139.7410 C   0  0  0  0  0  2  0  0  0  0  0  0
  189.3180  173.4070  141.6570 C   0  0  2  0  0  0  0  0  0  0  0  0
  189.5930  171.9870  141.7080 O   0  0  0  0  0  0  0  0  0  0  0  0
  191.3500  174.2840  143.0180 C   0  0  1  0  0  0  0  0  0  0  0  0
  190.3280  172.2890  144.1440 F   0  0  0  0  0  0  0  0  0  0  0  0
  191.5220  170.7320  138.8490 C   0  0  2  0  0  3  0  0  0  0  0  0
  190.8680  171.5290  141.2240 C   0  0  2  0  0  0  0  0  0  0  0  0
  189.7340  174.0080  140.4450 O   0  0  0  0  0  1  0  0  0  0  0  0
  192.5190  170.0140  139.5080 O   0  0  0  0  0  0  0  0  0  0  0  0
  190.3990  173.6510  144.0830 C   0  0  2  0  0  0  0  0  0  0  0  0
  187.8060  173.5490  141.7390 C   0  0  0  0  0  1  0  0  0  0  0  0
  190.8440  169.9810  141.3430 C   0  0  0  0  0  2  0  0  0  0  0  0
  190.3170  174.4040  145.4020 C   0  0  0  0  0  0  0  0  0  0  0  0
  191.4570  174.5020  146.1180 C   0  0  0  0  0  2  0  0  0  0  0  0
  189.0220  174.9160  145.9920 C   0  0  1  0  0  3  0  0  0  0  0  0
  189.1690  175.2000  147.5010 C   0  0  0  0  0  1  0  0  0  0  0  0
  188.5770  176.2090  145.3040 C   0  0  0  0  0  2  0  0  0  0  0  0
  187.2200  176.1390  144.5820 C   0  0  0  0  0  2  0  0  0  0  0  0
  184.6810  178.7420  145.6930 O   0  0  0  0  0  0  0  0  0  0  0  0
  186.5050  177.4020  144.7690 N   0  0  0  0  0  0  0  0  0  0  0  0
  185.0470  176.6070  146.4490 O   0  0  0  0  0  1  0  0  0  0  0  0
  185.4350  177.5820  145.7330 C   0  0  0  0  0  0  0  0  0  0  0  0
  186.9490  178.6540  144.1390 C   0  0  0  0  0  2  0  0  0  0  0  0
  185.4190  178.2410  142.0720 C   0  0  0  0  0  2  0  0  0  0  0  0
  186.7590  178.7410  142.6200 C   0  0  0  0  0  3  0  0  0  0  0  0
  185.7600  177.6370  140.7180 C   0  0  0  0  0  2  0  0  0  0  0  0
  187.8890  178.0730  141.8020 C   0  0  0  0  0  2  0  0  0  0  0  0
  187.2130  177.1500  140.8140 C   0  0  0  0  0  2  0  0  0  0  0  0
  191.8260  175.5860  143.3350 O   0  0  0  0  0  0  0  0  0  0  0  0
  193.1570  175.8290  143.5550 C   0  0  0  0  0  0  0  0  0  0  0  0
  194.3090  176.1530  143.7340 C   0  0  0  0  0  0  0  0  0  0  0  0
  195.6530  176.6460  143.9570 C   0  0  0  0  0  2  0  0  0  0  0  0
  196.5180  176.4020  142.7860 C   0  0  0  0  0  0  0  0  0  0  0  0
  197.5600  175.4570  142.8530 O   0  0  0  0  0  1  0  0  0  0  0  0
  196.2800  177.0180  141.7190 O   0  0  0  0  0  0  0  0  0  0  0  0
  191.9630  171.1900  137.4440 C   0  0  0  0  0  2  0  0  0  0  0  0
  191.3840  169.9640  135.4640 O   0  0  0  0  0  1  0  0  0  0  0  0
  192.2370  169.9750  136.5560 C   0  0  1  0  0  3  0  0  0  0  0  0
  193.6320  170.0000  136.1110 N   0  0  0  0  0  1  0  0  0  0  0  0
  192.9590  168.5810  141.3470 C   0  0  0  0  0  2  0  0  0  0  0  0
  194.2550  168.9000  140.8480 O   0  0  0  0  0  0  0  0  0  0  0  0
  195.9350  171.3390  143.0540 C   0  0  1  0  0  3  0  0  0  0  0  0
  195.5900  171.7620  144.4530 C   0  0  0  0  0  1  0  0  0  0  0  0
  195.9940  170.4010  138.9610 C   0  0  0  0  0  1  0  0  0  0  0  0
  196.5450  171.9560  140.9800 C   0  0  2  0  0  3  0  0  0  0  0  0
  195.6970  170.8150  140.3660 C   0  0  0  0  0  0  0  0  0  0  0  0
  194.9790  170.3980  142.5810 O   0  0  0  0  0  0  0  0  0  0  0  0
  195.9960  172.4450  142.1980 O   0  0  0  0  0  0  0  0  0  0  0  0
  194.9920  170.0410  141.2190 C   0  0  0  0  0  0  0  0  0  0  0  0
  197.6340  173.3010  139.3510 O   0  0  0  0  0  0  0  0  0  0  0  0
  196.6180  173.0930  139.9860 C   0  0  0  0  0  0  0  0  0  0  0  0
  195.5400  174.1630  140.0470 C   0  0  0  0  0  2  0  0  0  0  0  0
  194.3640  173.7690  139.1720 C   0  0  0  0  0  2  0  0  0  0  0  0
  194.3950  174.4810  137.9260 O   0  0  0  0  0  0  0  0  0  0  0  0
  195.4530  173.1340  136.4030 O   0  0  0  0  0  0  0  0  0  0  0  0
  194.4620  173.8690  136.6720 C   0  0  0  0  0  0  0  0  0  0  0  0
  193.4170  174.0970  135.6260 C   0  0  0  0  0  2  0  0  0  0  0  0
  192.7550  176.3750  136.2560 O   0  0  0  0  0  0  0  0  0  0  0  0
  191.6320  174.6570  137.2890 F   0  0  0  0  0  0  0  0  0  0  0  0
  192.3380  175.0340  136.1490 C   0  0  2  0  0  0  0  0  0  0  0  0
  191.7730  176.1040  135.2870 C   0  0  0  0  0  2  0  0  0  0  0  0
  2 16  1  0  0  0  0
  2 44  1  1  0  0  0
  3  1  1  0  0  0  0
  3  8  1  0  0  0  0
  4  8  1  0  0  0  0
  4 14  1  0  0  0  0
  5 11  1  0  0  0  0
  6  7  1  0  0  0  0
  6 15  1  0  0  0  0
  6  4  1  0  0  0  0
  8 33  1  0  0  0  0
  8 14  1  0  0  0  0
 10 13  1  0  0  0  0
 10  5  1  0  0  0  0
 11 16  1  0  0  0  0
 11  7  1  0  0  0  0
 11  1  1  0  0  0  0
 12  6  1  0  0  0  0
 13  2  1  0  0  0  0
 14  9  1  0  0  0  0
 14 17  1  0  0  0  0
 17 19  1  0  0  0  0
 17 18  2  0  0  0  0
 19 20  1  0  0  0  0
 21 19  1  0  0  0  0
 22 24  1  0  0  0  0
 22 21  1  0  0  0  0
 23 26  2  0  0  0  0
 24 26  1  0  0  0  0
 26 25  1  0  0  0  0
 27 24  1  0  0  0  0
 28 29  1  0  0  0  0
 29 27  1  0  0  0  0
 30 32  1  0  0  0  0
 30 28  1  0  0  0  0
 31 29  1  0  0  0  0
 32 31  1  0  0  0  0
 33 34  1  0  0  0  0
 34 35  3  0  0  0  0
 35 36  1  0  0  0  0
 37 38  1  0  0  0  0
 37 36  1  0  0  0  0
 39 37  2  0  0  0  0
 40 10  1  0  0  0  0
 41 42  1  0  0  0  0
 42 40  1  0  0  0  0
 43 42  1  0  0  0  0
 45 53  1  0  0  0  0
 45 44  1  0  0  0  0
 46 47  1  0  0  0  0
 48 50  1  0  0  0  0
 49 52  1  0  0  0  0
 50 49  1  0  0  0  0
 50 53  2  0  0  0  0
 51 46  1  0  0  0  0
 52 46  1  0  0  0  0
 53 51  1  0  0  0  0
 54 55  2  0  0  0  0
 55 56  1  0  0  0  0
 55 49  1  0  0  0  0
 57 56  1  0  0  0  0
 58 57  1  0  0  0  0
 59 60  2  0  0  0  0
 60 58  1  0  0  0  0
 61 64  1  0  0  0  0
 61 60  1  0  0  0  0
 64 62  1  0  0  0  0
 64 63  1  0  0  0  0
 65 64  1  0  0  0  0
 65 62  1  0  0  0  0
M  END
>  <MODEL>
5

>  <REMARK>
 VINA RESULT:      -5.5      2.362      8.112
  Name = 
  23 active torsions:
  status: ('A' for Active; 'I' for Inactive)
    1  A    between atoms: C_1  and  C_41
    2  A    between atoms: C_1  and  C_47
    3  A    between atoms: C_2  and  C_33
    4  A    between atoms: C_4  and  O_39
    5  A    between atoms: C_6  and  C_16
    6  A    between atoms: C_12  and  C_41
    7  A    between atoms: C_12  and  C_59
    8  A    between atoms: O_15  and  C_23
    9  A    between atoms: O_15  and  C_64
   10  A    between atoms: C_16  and  O_18
   11  A    between atoms: C_17  and  C_31
   12  A    between atoms: C_17  and  C_42
   13  A    between atoms: O_18  and  C_55
   14  A    between atoms: C_22  and  C_61
   15  A    between atoms: C_23  and  C_38
   16  A    between atoms: N_27  and  C_47
   17  A    between atoms: N_27  and  C_56
   18  A    between atoms: C_28  and  O_39
   19  A    between atoms: C_29  and  C_56
   20  A    between atoms: C_33  and  C_52
   21  A    between atoms: C_38  and  C_61
   22  A    between atoms: C_45  and  C_63
   23  A    between atoms: C_63  and  C_64
                            x       y       z     vdW  Elec       q    Type
                         _______ _______ _______ _____ _____    ______ ____

>  <TORSDO>
F 23

$$$$
=
 OpenBabel11072408413D

 65 70  0  0  1  0  0  0  0  0999 V2000
  193.3370  172.2040  141.8800 C   0  0  0  0  0  2  0  0  0  0  0  0
  196.3370  172.2140  140.7460 C   0  0  2  0  0  3  0  0  0  0  0  0
  192.4460  172.1920  143.1000 C   0  0  0  0  0  2  0  0  0  0  0  0
  191.3140  174.5840  142.9030 C   0  0  2  0  0  3  0  0  0  0  0  0
  195.2160  173.3140  143.1830 C   0  0  0  0  0  2  0  0  0  0  0  0
  192.7830  175.1110  142.8590 C   0  0  2  0  0  0  0  0  0  0  0  0
  193.6310  174.6680  141.7740 O   0  0  0  0  0  0  0  0  0  0  0  0
  191.1870  173.0660  143.0130 C   0  0  1  0  0  0  0  0  0  0  0  0
  191.5450  173.7280  140.6210 F   0  0  0  0  0  0  0  0  0  0  0  0
  196.6620  172.9090  142.8650 C   0  0  2  0  0  3  0  0  0  0  0  0
  194.3050  173.4050  141.9160 C   0  0  2  0  0  0  0  0  0  0  0  0
  193.3570  174.8940  144.1350 O   0  0  0  0  0  1  0  0  0  0  0  0
  196.6030  171.7730  142.0590 O   0  0  0  0  0  0  0  0  0  0  0  0
  190.7440  173.8230  141.7210 C   0  0  2  0  0  0  0  0  0  0  0  0
  192.6190  176.6130  142.6840 C   0  0  0  0  0  1  0  0  0  0  0  0
  195.1780  173.2360  140.6440 C   0  0  0  0  0  2  0  0  0  0  0  0
  189.2430  173.8570  141.4780 C   0  0  0  0  0  0  0  0  0  0  0  0
  188.6350  172.6720  141.2590 C   0  0  0  0  0  2  0  0  0  0  0  0
  188.4480  175.1370  141.3400 C   0  0  1  0  0  3  0  0  0  0  0  0
  187.8150  175.2530  139.9380 C   0  0  0  0  0  1  0  0  0  0  0  0
  187.3240  175.2000  142.3770 C   0  0  0  0  0  2  0  0  0  0  0  0
  186.8470  176.6150  142.7490 C   0  0  0  0  0  2  0  0  0  0  0  0
  189.9750  178.5880  143.6340 O   0  0  0  0  0  1  0  0  0  0  0  0
  187.9000  177.3020  143.4980 N   0  0  0  0  0  0  0  0  0  0  0  0
  188.9160  178.3090  141.6180 O   0  0  0  0  0  0  0  0  0  0  0  0
  188.9000  178.1520  142.8780 C   0  0  0  0  0  0  0  0  0  0  0  0
  187.9100  177.3520  144.9670 C   0  0  0  0  0  2  0  0  0  0  0  0
  186.0540  178.9020  145.9350 C   0  0  0  0  0  2  0  0  0  0  0  0
  186.5380  177.4790  145.6400 C   0  0  0  0  0  3  0  0  0  0  0  0
  185.2630  178.7770  147.2280 C   0  0  0  0  0  2  0  0  0  0  0  0
  186.3900  176.6450  146.9340 C   0  0  0  0  0  2  0  0  0  0  0  0
  185.8670  177.5900  147.9940 C   0  0  0  0  0  2  0  0  0  0  0  0
  190.1300  172.7160  143.8970 O   0  0  0  0  0  0  0  0  0  0  0  0
  189.8520  173.4600  145.0140 C   0  0  0  0  0  0  0  0  0  0  0  0
  189.7190  174.1150  146.0230 C   0  0  0  0  0  0  0  0  0  0  0  0
  189.6680  174.9130  147.2310 C   0  0  0  0  0  2  0  0  0  0  0  0
  190.7540  175.9130  147.2610 C   0  0  0  0  0  0  0  0  0  0  0  0
  190.4560  177.2870  147.3560 O   0  0  0  0  0  1  0  0  0  0  0  0
  191.9430  175.5160  147.2440 O   0  0  0  0  0  0  0  0  0  0  0  0
  197.4770  172.6710  144.1520 C   0  0  0  0  0  2  0  0  0  0  0  0
  196.7170  171.2870  145.9590 O   0  0  0  0  0  1  0  0  0  0  0  0
  196.5380  172.5190  145.3500 C   0  0  1  0  0  3  0  0  0  0  0  0
  196.7860  173.6000  146.3060 N   0  0  0  0  0  1  0  0  0  0  0  0
  196.0640  170.9830  139.8870 C   0  0  0  0  0  2  0  0  0  0  0  0
  194.9350  171.2000  139.0450 O   0  0  0  0  0  0  0  0  0  0  0  0
  195.6270  169.4850  135.8480 C   0  0  1  0  0  3  0  0  0  0  0  0
  196.6890  169.7600  134.8230 C   0  0  0  0  0  1  0  0  0  0  0  0
  192.4470  169.6400  138.5870 C   0  0  0  0  0  1  0  0  0  0  0  0
  193.4650  169.0280  136.2670 C   0  0  2  0  0  3  0  0  0  0  0  0
  193.5150  169.8660  137.5680 C   0  0  0  0  0  0  0  0  0  0  0  0
  195.7160  170.4300  136.9070 O   0  0  0  0  0  0  0  0  0  0  0  0
  194.3520  169.5200  135.2690 O   0  0  0  0  0  0  0  0  0  0  0  0
  194.6790  170.4870  137.8580 C   0  0  0  0  0  0  0  0  0  0  0  0
  191.2440  168.2120  136.0440 O   0  0  0  0  0  0  0  0  0  0  0  0
  192.0540  169.0610  135.7240 C   0  0  0  0  0  0  0  0  0  0  0  0
  191.7710  169.9530  134.5260 C   0  0  0  0  0  2  0  0  0  0  0  0
  191.8380  171.4120  134.9360 C   0  0  0  0  0  2  0  0  0  0  0  0
  190.6950  171.7710  135.7270 O   0  0  0  0  0  0  0  0  0  0  0  0
  189.3330  173.3330  136.7070 O   0  0  0  0  0  0  0  0  0  0  0  0
  190.4800  173.0430  136.2640 C   0  0  0  0  0  0  0  0  0  0  0  0
  191.5550  174.0830  136.2860 C   0  0  0  0  0  2  0  0  0  0  0  0
  193.8740  173.8740  137.0650 O   0  0  0  0  0  0  0  0  0  0  0  0
  192.2820  172.7310  138.2640 F   0  0  0  0  0  0  0  0  0  0  0  0
  192.5160  173.8290  137.4380 C   0  0  2  0  0  0  0  0  0  0  0  0
  193.4290  174.8960  137.9220 C   0  0  0  0  0  2  0  0  0  0  0  0
  1 11  1  0  0  0  0
  1  3  1  0  0  0  0
  2 44  1  6  0  0  0
  2 13  1  0  0  0  0
  4  8  1  0  0  0  0
  6  4  1  0  0  0  0
  6 12  1  0  0  0  0
  7 11  1  0  0  0  0
  7  6  1  0  0  0  0
  8  3  1  0  0  0  0
  8 33  1  0  0  0  0
  9 14  1  0  0  0  0
 10  5  1  0  0  0  0
 10 40  1  0  0  0  0
 11  5  1  0  0  0  0
 13 10  1  0  0  0  0
 14  4  1  0  0  0  0
 14  8  1  0  0  0  0
 15  6  1  0  0  0  0
 16  2  1  0  0  0  0
 16 11  1  0  0  0  0
 17 14  1  0  0  0  0
 18 17  2  0  0  0  0
 19 17  1  0  0  0  0
 19 21  1  0  0  0  0
 20 19  1  0  0  0  0
 21 22  1  0  0  0  0
 22 24  1  0  0  0  0
 24 27  1  0  0  0  0
 25 26  2  0  0  0  0
 26 24  1  0  0  0  0
 26 23  1  0  0  0  0
 27 29  1  0  0  0  0
 28 30  1  0  0  0  0
 29 28  1  0  0  0  0
 29 31  1  0  0  0  0
 30 32  1  0  0  0  0
 31 32  1  0  0  0  0
 33 34  1  0  0  0  0
 34 35  3  0  0  0  0
 35 36  1  0  0  0  0
 36 37  1  0  0  0  0
 37 38  1  0  0  0  0
 39 37  2  0  0  0  0
 40 42  1  0  0  0  0
 42 41  1  0  0  0  0
 42 43  1  0  0  0  0
 45 44  1  0  0  0  0
 46 51  1  0  0  0  0
 47 46  1  0  0  0  0
 49 50  1  0  0  0  0
 50 53  2  0  0  0  0
 50 48  1  0  0  0  0
 51 53  1  0  0  0  0
 52 46  1  0  0  0  0
 52 49  1  0  0  0  0
 53 45  1  0  0  0  0
 55 54  2  0  0  0  0
 55 49  1  0  0  0  0
 56 57  1  0  0  0  0
 56 55  1  0  0  0  0
 57 58  1  0  0  0  0
 58 60  1  0  0  0  0
 60 61  1  0  0  0  0
 60 59  2  0  0  0  0
 61 64  1  0  0  0  0
 62 64  1  0  0  0  0
 62 65  1  0  0  0  0
 64 65  1  0  0  0  0
 64 63  1  0  0  0  0
M  END
>  <MODEL>
6

>  <REMARK>
 VINA RESULT:      -5.2      2.940      8.630
  Name = 
  23 active torsions:
  status: ('A' for Active; 'I' for Inactive)
    1  A    between atoms: C_1  and  C_41
    2  A    between atoms: C_1  and  C_47
    3  A    between atoms: C_2  and  C_33
    4  A    between atoms: C_4  and  O_39
    5  A    between atoms: C_6  and  C_16
    6  A    between atoms: C_12  and  C_41
    7  A    between atoms: C_12  and  C_59
    8  A    between atoms: O_15  and  C_23
    9  A    between atoms: O_15  and  C_64
   10  A    between atoms: C_16  and  O_18
   11  A    between atoms: C_17  and  C_31
   12  A    between atoms: C_17  and  C_42
   13  A    between atoms: O_18  and  C_55
   14  A    between atoms: C_22  and  C_61
   15  A    between atoms: C_23  and  C_38
   16  A    between atoms: N_27  and  C_47
   17  A    between atoms: N_27  and  C_56
   18  A    between atoms: C_28  and  O_39
   19  A    between atoms: C_29  and  C_56
   20  A    between atoms: C_33  and  C_52
   21  A    between atoms: C_38  and  C_61
   22  A    between atoms: C_45  and  C_63
   23  A    between atoms: C_63  and  C_64
                            x       y       z     vdW  Elec       q    Type
                         _______ _______ _______ _____ _____    ______ ____

>  <TORSDO>
F 23

$$$$
=
 OpenBabel11072408413D

 65 70  0  0  1  0  0  0  0  0999 V2000
  190.2260  174.6690  142.5810 C   0  0  0  0  0  2  0  0  0  0  0  0
  188.9980  177.6320  142.6000 C   0  0  2  0  0  3  0  0  0  0  0  0
  190.0980  173.2440  143.0650 C   0  0  0  0  0  2  0  0  0  0  0  0
  189.6040  171.9910  140.7770 C   0  0  2  0  0  3  0  0  0  0  0  0
  187.7200  175.0370  142.8000 C   0  0  0  0  0  2  0  0  0  0  0  0
  188.4310  173.0120  140.6440 C   0  0  2  0  0  0  0  0  0  0  0  0
  188.7570  174.4200  140.5920 O   0  0  0  0  0  0  0  0  0  0  0  0
  190.4500  172.1570  142.0380 C   0  0  1  0  0  0  0  0  0  0  0  0
  191.2140  173.7660  140.2720 F   0  0  0  0  0  0  0  0  0  0  0  0
  187.2240  176.4130  143.2660 C   0  0  2  0  0  3  0  0  0  0  0  0
  188.9490  175.1150  141.8370 C   0  0  2  0  0  0  0  0  0  0  0  0
  187.4750  172.7020  141.6410 O   0  0  0  0  0  1  0  0  0  0  0  0
  188.3350  177.1150  143.7320 O   0  0  0  0  0  0  0  0  0  0  0  0
  191.0400  172.4600  140.6240 C   0  0  2  0  0  0  0  0  0  0  0  0
  187.8110  172.6700  139.2980 C   0  0  0  0  0  1  0  0  0  0  0  0
  189.2160  176.5990  141.4670 C   0  0  0  0  0  2  0  0  0  0  0  0
  192.0890  171.4710  140.1390 C   0  0  0  0  0  0  0  0  0  0  0  0
  191.8770  170.1690  140.4270 C   0  0  0  0  0  2  0  0  0  0  0  0
  193.3900  171.8850  139.4880 C   0  0  1  0  0  3  0  0  0  0  0  0
  194.6010  171.4970  140.3600 C   0  0  0  0  0  1  0  0  0  0  0  0
  193.5540  171.2200  138.1190 C   0  0  0  0  0  2  0  0  0  0  0  0
  193.7330  172.1850  136.9330 C   0  0  0  0  0  2  0  0  0  0  0  0
  190.3820  173.8820  136.3420 O   0  0  0  0  0  0  0  0  0  0  0  0
  192.4210  172.5330  136.3880 N   0  0  0  0  0  0  0  0  0  0  0  0
  192.1840  174.5490  137.5950 O   0  0  0  0  0  1  0  0  0  0  0  0
  191.6990  173.7410  136.7440 C   0  0  0  0  0  0  0  0  0  0  0  0
  191.8130  171.7890  135.2750 C   0  0  0  0  0  2  0  0  0  0  0  0
  190.1480  170.7770  137.0050 C   0  0  0  0  0  2  0  0  0  0  0  0
  190.8900  170.6300  135.6730 C   0  0  0  0  0  3  0  0  0  0  0  0
  190.0600  169.3610  137.5520 C   0  0  0  0  0  2  0  0  0  0  0  0
  191.5720  169.2430  135.6560 C   0  0  0  0  0  2  0  0  0  0  0  0
  191.2720  168.6030  136.9930 C   0  0  0  0  0  2  0  0  0  0  0  0
  190.7990  170.8890  142.5770 O   0  0  0  0  0  0  0  0  0  0  0  0
  191.8580  170.7410  143.4340 C   0  0  0  0  0  0  0  0  0  0  0  0
  192.8350  170.7080  144.1490 C   0  0  0  0  0  0  0  0  0  0  0  0
  194.0210  170.7730  144.9770 C   0  0  0  0  0  2  0  0  0  0  0  0
  194.3220  169.4660  145.5920 C   0  0  0  0  0  0  0  0  0  0  0  0
  194.9530  169.3970  146.8500 O   0  0  0  0  0  1  0  0  0  0  0  0
  193.9680  168.4200  144.9960 O   0  0  0  0  0  0  0  0  0  0  0  0
  186.1230  176.2820  144.3380 C   0  0  0  0  0  2  0  0  0  0  0  0
  186.6370  178.1450  145.7600 O   0  0  0  0  0  1  0  0  0  0  0  0
  185.7130  177.6660  144.8450 C   0  0  1  0  0  3  0  0  0  0  0  0
  185.5940  178.5850  143.7110 N   0  0  0  0  0  1  0  0  0  0  0  0
  190.3230  178.2260  143.0670 C   0  0  0  0  0  2  0  0  0  0  0  0
  190.4470  178.1200  144.4830 O   0  0  0  0  0  0  0  0  0  0  0  0
  190.2590  174.9750  146.4100 C   0  0  1  0  0  3  0  0  0  0  0  0
  189.2560  174.5410  147.4400 C   0  0  0  0  0  1  0  0  0  0  0  0
  193.1550  176.9540  144.1000 C   0  0  0  0  0  1  0  0  0  0  0  0
  192.4220  175.1320  145.8140 C   0  0  2  0  0  3  0  0  0  0  0  0
  192.1520  176.4800  145.1000 C   0  0  0  0  0  0  0  0  0  0  0  0
  189.9560  176.2900  145.9600 O   0  0  0  0  0  0  0  0  0  0  0  0
  191.5600  174.9250  146.9270 O   0  0  0  0  0  0  0  0  0  0  0  0
  190.8950  176.9690  145.1590 C   0  0  0  0  0  0  0  0  0  0  0  0
  194.3210  176.0740  146.8900 O   0  0  0  0  0  0  0  0  0  0  0  0
  193.8550  175.1190  146.2980 C   0  0  0  0  0  0  0  0  0  0  0  0
  194.7870  174.0570  145.7370 C   0  0  0  0  0  2  0  0  0  0  0  0
  196.1510  174.6580  145.4540 C   0  0  0  0  0  2  0  0  0  0  0  0
  196.5250  174.4500  144.0840 O   0  0  0  0  0  0  0  0  0  0  0  0
  196.5740  176.6640  143.4910 O   0  0  0  0  0  0  0  0  0  0  0  0
  196.5600  175.4580  143.1170 C   0  0  0  0  0  0  0  0  0  0  0  0
  196.5360  175.1480  141.6530 C   0  0  0  0  0  2  0  0  0  0  0  0
  194.5940  176.2710  140.6560 O   0  0  0  0  0  0  0  0  0  0  0  0
  194.1560  174.4390  141.9710 F   0  0  0  0  0  0  0  0  0  0  0  0
  195.1020  175.0550  141.1540 C   0  0  2  0  0  0  0  0  0  0  0  0
  194.7790  175.2420  139.7160 C   0  0  0  0  0  2  0  0  0  0  0  0
  1  3  1  0  0  0  0
  2 44  1  1  0  0  0
  2 13  1  0  0  0  0
  4  8  1  0  0  0  0
  5 10  1  0  0  0  0
  6  4  1  0  0  0  0
  6 12  1  0  0  0  0
  7  6  1  0  0  0  0
  7 11  1  0  0  0  0
  8 33  1  0  0  0  0
  8  3  1  0  0  0  0
  9 14  1  0  0  0  0
 10 13  1  0  0  0  0
 10 40  1  0  0  0  0
 11  1  1  0  0  0  0
 11  5  1  0  0  0  0
 14  4  1  0  0  0  0
 14  8  1  0  0  0  0
 15  6  1  0  0  0  0
 16 11  1  0  0  0  0
 16  2  1  0  0  0  0
 17 18  2  0  0  0  0
 17 14  1  0  0  0  0
 19 17  1  0  0  0  0
 19 20  1  0  0  0  0
 21 19  1  0  0  0  0
 22 21  1  0  0  0  0
 23 26  2  0  0  0  0
 24 26  1  0  0  0  0
 24 22  1  0  0  0  0
 26 25  1  0  0  0  0
 27 29  1  0  0  0  0
 27 24  1  0  0  0  0
 28 30  1  0  0  0  0
 29 28  1  0  0  0  0
 31 29  1  0  0  0  0
 31 32  1  0  0  0  0
 32 30  1  0  0  0  0
 33 34  1  0  0  0  0
 34 35  3  0  0  0  0
 35 36  1  0  0  0  0
 36 37  1  0  0  0  0
 37 38  1  0  0  0  0
 39 37  2  0  0  0  0
 40 42  1  0  0  0  0
 42 41  1  0  0  0  0
 43 42  1  0  0  0  0
 44 45  1  0  0  0  0
 45 53  1  0  0  0  0
 46 52  1  0  0  0  0
 46 47  1  0  0  0  0
 48 50  1  0  0  0  0
 49 55  1  0  0  0  0
 49 52  1  0  0  0  0
 50 53  2  0  0  0  0
 50 49  1  0  0  0  0
 51 46  1  0  0  0  0
 53 51  1  0  0  0  0
 55 54  2  0  0  0  0
 56 55  1  0  0  0  0
 57 56  1  0  0  0  0
 58 57  1  0  0  0  0
 60 59  2  0  0  0  0
 60 58  1  0  0  0  0
 61 60  1  0  0  0  0
 62 64  1  0  0  0  0
 64 61  1  0  0  0  0
 64 63  1  0  0  0  0
 65 62  1  0  0  0  0
 65 64  1  0  0  0  0
M  END
>  <MODEL>
7

>  <REMARK>
 VINA RESULT:      -5.1      2.483      8.349
  Name = 
  23 active torsions:
  status: ('A' for Active; 'I' for Inactive)
    1  A    between atoms: C_1  and  C_41
    2  A    between atoms: C_1  and  C_47
    3  A    between atoms: C_2  and  C_33
    4  A    between atoms: C_4  and  O_39
    5  A    between atoms: C_6  and  C_16
    6  A    between atoms: C_12  and  C_41
    7  A    between atoms: C_12  and  C_59
    8  A    between atoms: O_15  and  C_23
    9  A    between atoms: O_15  and  C_64
   10  A    between atoms: C_16  and  O_18
   11  A    between atoms: C_17  and  C_31
   12  A    between atoms: C_17  and  C_42
   13  A    between atoms: O_18  and  C_55
   14  A    between atoms: C_22  and  C_61
   15  A    between atoms: C_23  and  C_38
   16  A    between atoms: N_27  and  C_47
   17  A    between atoms: N_27  and  C_56
   18  A    between atoms: C_28  and  O_39
   19  A    between atoms: C_29  and  C_56
   20  A    between atoms: C_33  and  C_52
   21  A    between atoms: C_38  and  C_61
   22  A    between atoms: C_45  and  C_63
   23  A    between atoms: C_63  and  C_64
                            x       y       z     vdW  Elec       q    Type
                         _______ _______ _______ _____ _____    ______ ____

>  <TORSDO>
F 23

$$$$
=
 OpenBabel11072408413D

 65 70  0  0  1  0  0  0  0  0999 V2000
  193.0800  172.8620  141.7210 C   0  0  0  0  0  2  0  0  0  0  0  0
  192.4820  173.0310  144.8670 C   0  0  2  0  0  3  0  0  0  0  0  0
  193.9790  173.2760  140.5810 C   0  0  0  0  0  2  0  0  0  0  0  0
  195.0280  170.9330  139.9050 C   0  0  2  0  0  3  0  0  0  0  0  0
  194.9780  173.1120  143.3940 C   0  0  0  0  0  2  0  0  0  0  0  0
  195.4460  170.8560  141.4070 C   0  0  2  0  0  0  0  0  0  0  0  0
  194.4000  170.8710  142.4060 O   0  0  0  0  0  0  0  0  0  0  0  0
  194.2580  172.1960  139.5250 C   0  0  1  0  0  0  0  0  0  0  0  0
  192.6970  170.5070  140.5250 F   0  0  0  0  0  0  0  0  0  0  0  0
  194.6480  173.6470  144.7940 C   0  0  2  0  0  3  0  0  0  0  0  0
  193.8860  172.1470  142.8260 C   0  0  2  0  0  0  0  0  0  0  0  0
  196.4380  171.8410  141.6290 O   0  0  0  0  0  1  0  0  0  0  0  0
  193.3450  174.1400  144.7500 O   0  0  0  0  0  0  0  0  0  0  0  0
  193.5680  170.7960  139.5150 C   0  0  2  0  0  0  0  0  0  0  0  0
  196.1210  169.4980  141.5210 C   0  0  0  0  0  1  0  0  0  0  0  0
  192.8400  171.8480  143.9340 C   0  0  0  0  0  2  0  0  0  0  0  0
  193.2220  170.2580  138.1340 C   0  0  0  0  0  0  0  0  0  0  0  0
  193.9660  169.2290  137.6780 C   0  0  0  0  0  2  0  0  0  0  0  0
  192.1990  170.8980  137.2210 C   0  0  1  0  0  3  0  0  0  0  0  0
  192.5400  170.6470  135.7380 C   0  0  0  0  0  1  0  0  0  0  0  0
  190.7990  170.3420  137.4890 C   0  0  0  0  0  2  0  0  0  0  0  0
  189.6380  171.1670  136.9070 C   0  0  0  0  0  2  0  0  0  0  0  0
  190.1920  174.8760  136.2860 O   0  0  0  0  0  1  0  0  0  0  0  0
  189.9060  172.5910  137.1060 N   0  0  0  0  0  0  0  0  0  0  0  0
  189.3280  173.2540  134.9130 O   0  0  0  0  0  0  0  0  0  0  0  0
  189.7160  173.5950  136.0740 C   0  0  0  0  0  0  0  0  0  0  0  0
  190.1960  173.1560  138.4320 C   0  0  0  0  0  2  0  0  0  0  0  0
  188.4740  174.1750  140.0980 C   0  0  0  0  0  2  0  0  0  0  0  0
  189.1260  172.9230  139.5050 C   0  0  0  0  0  3  0  0  0  0  0  0
  188.1950  173.8120  141.5480 C   0  0  0  0  0  2  0  0  0  0  0  0
  189.5900  172.0260  140.6760 C   0  0  0  0  0  2  0  0  0  0  0  0
  189.2540  172.7730  141.9470 C   0  0  0  0  0  2  0  0  0  0  0  0
  194.6740  172.6710  138.2500 O   0  0  0  0  0  0  0  0  0  0  0  0
  194.1380  173.8050  137.6980 C   0  0  0  0  0  0  0  0  0  0  0  0
  193.7620  174.8180  137.1520 C   0  0  0  0  0  0  0  0  0  0  0  0
  193.3970  176.0180  136.4280 C   0  0  0  0  0  2  0  0  0  0  0  0
  194.4790  176.4510  135.5220 C   0  0  0  0  0  0  0  0  0  0  0  0
  195.8010  176.0110  135.7270 O   0  0  0  0  0  1  0  0  0  0  0  0
  194.1920  177.1800  134.5420 O   0  0  0  0  0  0  0  0  0  0  0  0
  195.6650  174.7170  145.2420 C   0  0  0  0  0  2  0  0  0  0  0  0
  195.2020  177.0690  145.1380 O   0  0  0  0  0  1  0  0  0  0  0  0
  195.5350  175.9660  144.3680 C   0  0  1  0  0  3  0  0  0  0  0  0
  196.7960  176.2000  143.6610 N   0  0  0  0  0  1  0  0  0  0  0  0
  191.0590  173.5200  144.6150 C   0  0  0  0  0  2  0  0  0  0  0  0
  191.0320  174.9400  144.4920 O   0  0  0  0  0  0  0  0  0  0  0  0
  190.8190  177.1250  147.4620 C   0  0  1  0  0  3  0  0  0  0  0  0
  191.5500  177.0360  148.7710 C   0  0  0  0  0  1  0  0  0  0  0  0
  188.5310  176.4700  144.0020 C   0  0  0  0  0  1  0  0  0  0  0  0
  188.8660  177.4460  146.3960 C   0  0  2  0  0  3  0  0  0  0  0  0
  189.2690  176.4290  145.3000 C   0  0  0  0  0  0  0  0  0  0  0  0
  191.1920  176.0380  146.6230 O   0  0  0  0  0  0  0  0  0  0  0  0
  189.4330  177.1340  147.6630 O   0  0  0  0  0  0  0  0  0  0  0  0
  190.4610  175.8100  145.4410 C   0  0  0  0  0  0  0  0  0  0  0  0
  186.7530  176.4200  146.7600 O   0  0  0  0  0  0  0  0  0  0  0  0
  187.3590  177.4480  146.5230 C   0  0  0  0  0  0  0  0  0  0  0  0
  186.6010  178.6650  146.0160 C   0  0  0  0  0  2  0  0  0  0  0  0
  185.1140  178.4910  146.2580 C   0  0  0  0  0  2  0  0  0  0  0  0
  184.4720  177.9300  145.1030 O   0  0  0  0  0  0  0  0  0  0  0  0
  183.1670  178.8160  143.4400 O   0  0  0  0  0  0  0  0  0  0  0  0
  184.3290  178.5950  143.8830 C   0  0  0  0  0  0  0  0  0  0  0  0
  185.5130  179.0110  143.0670 C   0  0  0  0  0  2  0  0  0  0  0  0
  185.6090  178.1790  140.7600 O   0  0  0  0  0  0  0  0  0  0  0  0
  185.5470  176.5930  142.4200 F   0  0  0  0  0  0  0  0  0  0  0  0
  185.9120  177.9000  142.1070 C   0  0  2  0  0  0  0  0  0  0  0  0
  186.9740  178.1140  141.0910 C   0  0  0  0  0  2  0  0  0  0  0  0
  1 11  1  0  0  0  0
  2 44  1  6  0  0  0
  3  1  1  0  0  0  0
  4  6  1  0  0  0  0
  5 10  1  0  0  0  0
  6 15  1  0  0  0  0
  6 12  1  0  0  0  0
  6  7  1  0  0  0  0
  7 11  1  0  0  0  0
  8  4  1  0  0  0  0
  8  3  1  0  0  0  0
 10 40  1  0  0  0  0
 11  5  1  0  0  0  0
 11 16  1  0  0  0  0
 13 10  1  0  0  0  0
 13  2  1  0  0  0  0
 14  8  1  0  0  0  0
 14  4  1  0  0  0  0
 14  9  1  0  0  0  0
 16  2  1  0  0  0  0
 17 14  1  0  0  0  0
 18 17  2  0  0  0  0
 19 21  1  0  0  0  0
 19 17  1  0  0  0  0
 20 19  1  0  0  0  0
 22 24  1  0  0  0  0
 22 21  1  0  0  0  0
 24 27  1  0  0  0  0
 25 26  2  0  0  0  0
 26 23  1  0  0  0  0
 26 24  1  0  0  0  0
 27 29  1  0  0  0  0
 28 30  1  0  0  0  0
 29 28  1  0  0  0  0
 29 31  1  0  0  0  0
 30 32  1  0  0  0  0
 31 32  1  0  0  0  0
 33  8  1  0  0  0  0
 34 33  1  0  0  0  0
 35 34  3  0  0  0  0
 36 35  1  0  0  0  0
 37 38  1  0  0  0  0
 37 36  1  0  0  0  0
 39 37  2  0  0  0  0
 42 41  1  0  0  0  0
 42 40  1  0  0  0  0
 43 42  1  0  0  0  0
 45 44  1  0  0  0  0
 45 53  1  0  0  0  0
 46 52  1  0  0  0  0
 46 47  1  0  0  0  0
 48 50  1  0  0  0  0
 49 55  1  0  0  0  0
 49 52  1  0  0  0  0
 50 53  2  0  0  0  0
 50 49  1  0  0  0  0
 51 46  1  0  0  0  0
 53 51  1  0  0  0  0
 55 54  2  0  0  0  0
 56 57  1  0  0  0  0
 56 55  1  0  0  0  0
 58 57  1  0  0  0  0
 59 60  2  0  0  0  0
 60 58  1  0  0  0  0
 61 60  1  0  0  0  0
 62 65  1  0  0  0  0
 62 64  1  0  0  0  0
 64 63  1  0  0  0  0
 64 61  1  0  0  0  0
 65 64  1  0  0  0  0
M  END
>  <MODEL>
8

>  <REMARK>
 VINA RESULT:      -5.1      2.208      7.230
  Name = 
  23 active torsions:
  status: ('A' for Active; 'I' for Inactive)
    1  A    between atoms: C_1  and  C_41
    2  A    between atoms: C_1  and  C_47
    3  A    between atoms: C_2  and  C_33
    4  A    between atoms: C_4  and  O_39
    5  A    between atoms: C_6  and  C_16
    6  A    between atoms: C_12  and  C_41
    7  A    between atoms: C_12  and  C_59
    8  A    between atoms: O_15  and  C_23
    9  A    between atoms: O_15  and  C_64
   10  A    between atoms: C_16  and  O_18
   11  A    between atoms: C_17  and  C_31
   12  A    between atoms: C_17  and  C_42
   13  A    between atoms: O_18  and  C_55
   14  A    between atoms: C_22  and  C_61
   15  A    between atoms: C_23  and  C_38
   16  A    between atoms: N_27  and  C_47
   17  A    between atoms: N_27  and  C_56
   18  A    between atoms: C_28  and  O_39
   19  A    between atoms: C_29  and  C_56
   20  A    between atoms: C_33  and  C_52
   21  A    between atoms: C_38  and  C_61
   22  A    between atoms: C_45  and  C_63
   23  A    between atoms: C_63  and  C_64
                            x       y       z     vdW  Elec       q    Type
                         _______ _______ _______ _____ _____    ______ ____

>  <TORSDO>
F 23

$$$$
=
 OpenBabel11072408413D

 65 70  0  0  1  0  0  0  0  0999 V2000
  192.0890  173.9450  143.0770 C   0  0  0  0  0  2  0  0  0  0  0  0
  188.9620  173.2890  142.8000 C   0  0  2  0  0  3  0  0  0  0  0  0
  193.1830  174.9760  142.9310 C   0  0  0  0  0  2  0  0  0  0  0  0
  193.9000  175.2940  145.4670 C   0  0  2  0  0  3  0  0  0  0  0  0
  190.3440  175.7540  143.4510 C   0  0  0  0  0  2  0  0  0  0  0  0
  192.3880  175.6040  145.6990 C   0  0  2  0  0  0  0  0  0  0  0  0
  191.4260  174.5690  145.3880 O   0  0  0  0  0  0  0  0  0  0  0  0
  194.2640  174.9600  144.0210 C   0  0  1  0  0  0  0  0  0  0  0  0
  193.3760  172.9190  145.1780 F   0  0  0  0  0  0  0  0  0  0  0  0
  188.9380  175.5420  142.8710 C   0  0  2  0  0  3  0  0  0  0  0  0
  190.9810  174.4480  144.0260 C   0  0  2  0  0  0  0  0  0  0  0  0
  192.0980  176.8360  145.0670 O   0  0  0  0  0  1  0  0  0  0  0  0
  189.0120  174.4520  142.0040 O   0  0  0  0  0  0  0  0  0  0  0  0
  194.3450  173.8790  145.1460 C   0  0  2  0  0  0  0  0  0  0  0  0
  192.2960  175.8310  147.2010 C   0  0  0  0  0  1  0  0  0  0  0  0
  189.9210  173.3130  144.0160 C   0  0  0  0  0  2  0  0  0  0  0  0
  195.7540  173.4470  145.5230 C   0  0  0  0  0  0  0  0  0  0  0  0
  196.3790  174.1740  146.4730 C   0  0  0  0  0  2  0  0  0  0  0  0
  196.5140  172.3550  144.8030 C   0  0  1  0  0  3  0  0  0  0  0  0
  197.9090  172.8420  144.3610 C   0  0  0  0  0  1  0  0  0  0  0  0
  196.6990  171.1300  145.7030 C   0  0  0  0  0  2  0  0  0  0  0  0
  197.0160  169.8150  144.9710 C   0  0  0  0  0  2  0  0  0  0  0  0
  193.5110  168.3560  145.1680 O   0  0  0  0  0  0  0  0  0  0  0  0
  195.7660  169.1330  144.6340 N   0  0  0  0  0  0  0  0  0  0  0  0
  194.5800  169.8430  146.5490 O   0  0  0  0  0  1  0  0  0  0  0  0
  194.5710  169.1970  145.4560 C   0  0  0  0  0  0  0  0  0  0  0  0
  195.5510  168.4910  143.3290 C   0  0  0  0  0  2  0  0  0  0  0  0
  196.6450  170.1450  141.6400 C   0  0  0  0  0  2  0  0  0  0  0  0
  195.3790  169.4420  142.1380 C   0  0  0  0  0  3  0  0  0  0  0  0
  196.1670  171.5090  141.1700 C   0  0  0  0  0  2  0  0  0  0  0  0
  194.2840  170.5150  142.3380 C   0  0  0  0  0  2  0  0  0  0  0  0
  194.9230  171.8450  142.0060 C   0  0  0  0  0  2  0  0  0  0  0  0
  195.5070  175.5550  143.6690 O   0  0  0  0  0  0  0  0  0  0  0  0
  196.0600  175.3760  142.4280 C   0  0  0  0  0  0  0  0  0  0  0  0
  196.4690  175.2880  141.2910 C   0  0  0  0  0  0  0  0  0  0  0  0
  196.8940  175.2690  139.9070 C   0  0  0  0  0  2  0  0  0  0  0  0
  195.7540  175.0440  138.9960 C   0  0  0  0  0  0  0  0  0  0  0  0
  195.9710  174.6080  137.6750 O   0  0  0  0  0  0  0  0  0  0  0  0
  194.5890  175.2070  139.4330 O   0  0  0  0  0  1  0  0  0  0  0  0
  188.4200  176.8140  142.1700 C   0  0  0  0  0  2  0  0  0  0  0  0
  186.5910  178.3450  142.4320 O   0  0  0  0  0  1  0  0  0  0  0  0
  187.5480  177.6260  143.1300 C   0  0  1  0  0  3  0  0  0  0  0  0
  186.9070  176.7240  144.0900 N   0  0  0  0  0  1  0  0  0  0  0  0
  189.2470  172.0940  141.8970 C   0  0  0  0  0  2  0  0  0  0  0  0
  190.0540  172.4840  140.7890 O   0  0  0  0  0  0  0  0  0  0  0  0
  190.1080  169.6500  138.4220 C   0  0  1  0  0  3  0  0  0  0  0  0
  190.6920  168.2760  138.5860 C   0  0  0  0  0  1  0  0  0  0  0  0
  189.3590  173.7760  138.2040 C   0  0  0  0  0  1  0  0  0  0  0  0
  189.8530  171.4600  137.1140 C   0  0  2  0  0  3  0  0  0  0  0  0
  189.8970  172.3900  138.3510 C   0  0  0  0  0  0  0  0  0  0  0  0
  190.3590  170.4270  139.5870 O   0  0  0  0  0  0  0  0  0  0  0  0
  190.6340  170.2840  137.2900 O   0  0  0  0  0  0  0  0  0  0  0  0
  190.0910  171.8090  139.5540 C   0  0  0  0  0  0  0  0  0  0  0  0
  189.6840  172.3970  134.9360 O   0  0  0  0  0  0  0  0  0  0  0  0
  190.3790  172.2210  135.9180 C   0  0  0  0  0  0  0  0  0  0  0  0
  191.8790  172.4570  135.8260 C   0  0  0  0  0  2  0  0  0  0  0  0
  192.4170  171.8890  134.5270 C   0  0  0  0  0  2  0  0  0  0  0  0
  192.6660  170.4810  134.6500 O   0  0  0  0  0  0  0  0  0  0  0  0
  193.5650  169.2280  136.3470 O   0  0  0  0  0  0  0  0  0  0  0  0
  193.7640  169.9320  135.3170 C   0  0  0  0  0  0  0  0  0  0  0  0
  195.1690  170.1930  134.8720 C   0  0  0  0  0  2  0  0  0  0  0  0
  195.4980  171.3750  136.9990 O   0  0  0  0  0  0  0  0  0  0  0  0
  195.5080  172.6630  135.0960 F   0  0  0  0  0  0  0  0  0  0  0  0
  195.7460  171.3910  135.6120 C   0  0  2  0  0  0  0  0  0  0  0  0
  196.8390  171.2230  136.6040 C   0  0  0  0  0  2  0  0  0  0  0  0
  1 11  1  0  0  0  0
  2 44  1  6  0  0  0
  2 16  1  0  0  0  0
  3  1  1  0  0  0  0
  3  8  1  0  0  0  0
  4  6  1  0  0  0  0
  5 11  1  0  0  0  0
  6 15  1  0  0  0  0
  7  6  1  0  0  0  0
  8 14  1  0  0  0  0
  8  4  1  0  0  0  0
 10  5  1  0  0  0  0
 11  7  1  0  0  0  0
 12  6  1  0  0  0  0
 13  2  1  0  0  0  0
 13 10  1  0  0  0  0
 14  9  1  0  0  0  0
 14  4  1  0  0  0  0
 14 17  1  0  0  0  0
 16 11  1  0  0  0  0
 17 18  2  0  0  0  0
 19 17  1  0  0  0  0
 19 21  1  0  0  0  0
 20 19  1  0  0  0  0
 22 21  1  0  0  0  0
 23 26  2  0  0  0  0
 24 22  1  0  0  0  0
 24 26  1  0  0  0  0
 26 25  1  0  0  0  0
 27 24  1  0  0  0  0
 28 29  1  0  0  0  0
 29 31  1  0  0  0  0
 29 27  1  0  0  0  0
 30 28  1  0  0  0  0
 30 32  1  0  0  0  0
 32 31  1  0  0  0  0
 33  8  1  0  0  0  0
 34 33  1  0  0  0  0
 35 34  3  0  0  0  0
 36 35  1  0  0  0  0
 37 39  1  0  0  0  0
 37 36  1  0  0  0  0
 38 37  2  0  0  0  0
 40 10  1  0  0  0  0
 40 42  1  0  0  0  0
 41 42  1  0  0  0  0
 42 43  1  0  0  0  0
 45 44  1  0  0  0  0
 46 47  1  0  0  0  0
 46 51  1  0  0  0  0
 48 50  1  0  0  0  0
 49 52  1  0  0  0  0
 49 50  1  0  0  0  0
 50 53  2  0  0  0  0
 52 46  1  0  0  0  0
 53 51  1  0  0  0  0
 53 45  1  0  0  0  0
 54 55  2  0  0  0  0
 55 49  1  0  0  0  0
 56 55  1  0  0  0  0
 57 58  1  0  0  0  0
 57 56  1  0  0  0  0
 58 60  1  0  0  0  0
 60 59  2  0  0  0  0
 61 60  1  0  0  0  0
 61 64  1  0  0  0  0
 63 64  1  0  0  0  0
 64 65  1  0  0  0  0
 64 62  1  0  0  0  0
 65 62  1  0  0  0  0
M  END
>  <MODEL>
9

>  <REMARK>
 VINA RESULT:      -5.0      2.896      8.628
  Name = 
  23 active torsions:
  status: ('A' for Active; 'I' for Inactive)
    1  A    between atoms: C_1  and  C_41
    2  A    between atoms: C_1  and  C_47
    3  A    between atoms: C_2  and  C_33
    4  A    between atoms: C_4  and  O_39
    5  A    between atoms: C_6  and  C_16
    6  A    between atoms: C_12  and  C_41
    7  A    between atoms: C_12  and  C_59
    8  A    between atoms: O_15  and  C_23
    9  A    between atoms: O_15  and  C_64
   10  A    between atoms: C_16  and  O_18
   11  A    between atoms: C_17  and  C_31
   12  A    between atoms: C_17  and  C_42
   13  A    between atoms: O_18  and  C_55
   14  A    between atoms: C_22  and  C_61
   15  A    between atoms: C_23  and  C_38
   16  A    between atoms: N_27  and  C_47
   17  A    between atoms: N_27  and  C_56
   18  A    between atoms: C_28  and  O_39
   19  A    between atoms: C_29  and  C_56
   20  A    between atoms: C_33  and  C_52
   21  A    between atoms: C_38  and  C_61
   22  A    between atoms: C_45  and  C_63
   23  A    between atoms: C_63  and  C_64
                            x       y       z     vdW  Elec       q    Type
                         _______ _______ _______ _____ _____    ______ ____

>  <TORSDO>
F 23

$$$$
