=
 OpenBabel11072409423D

 70 75  0  0  1  0  0  0  0  0999 V2000
  191.0590  171.9520  141.2850 N   0  0  0  0  0  0  0  0  0  0  0  0
  191.0430  171.2010  140.0400 C   0  0  0  0  0  2  0  0  0  0  0  0
  191.1960  172.1130  138.9200 N   0  0  0  0  0  2  0  0  0  0  0  0
  189.9920  172.9180  138.8630 C   0  0  0  0  0  2  0  0  0  0  0  0
  189.9920  173.7380  137.5920 C   0  0  0  0  0  2  0  0  0  0  0  0
  191.1830  173.5060  136.8840 O   0  0  0  0  0  0  0  0  0  0  0  0
  191.9810  175.1870  135.2800 C   0  0  0  0  0  2  0  0  0  0  0  0
  192.7780  177.6660  135.4010 O   0  0  0  0  0  0  0  0  0  0  0  0
  193.3970  176.2890  135.2060 S   0  0  1  0  0  0  0  0  0  0  0  0
  193.2670  174.7400  137.3770 C   0  0  1  0  0  3  0  0  0  0  0  0
  191.8750  174.7290  136.7300 C   0  0  2  0  0  3  0  0  0  0  0  0
  194.0670  175.9160  136.8310 C   0  0  0  0  0  2  0  0  0  0  0  0
  193.2170  174.7350  138.7860 O   0  0  0  0  0  0  0  0  0  0  0  0
  194.4540  174.9240  139.2210 O   0  0  0  0  0  0  0  0  0  0  0  0
  194.8900  176.5160  140.7750 F   0  0  0  0  0  0  0  0  0  0  0  0
  195.0510  174.3490  141.3530 F   0  0  0  0  0  0  0  0  0  0  0  0
  194.3500  175.2590  140.5800 C   0  0  0  0  0  0  0  0  0  0  0  0
  193.0230  175.2790  140.9750 F   0  0  0  0  0  0  0  0  0  0  0  0
  190.6180  171.0370  142.3230 C   0  0  0  0  0  2  0  0  0  0  0  0
  189.7820  171.6670  144.5140 O   0  0  0  0  0  0  0  0  0  0  0  0
  190.6420  172.6540  144.7400 O   0  0  0  0  0  0  0  0  0  0  0  0
  189.8860  173.8390  144.8990 C   0  0  1  0  0  3  0  0  0  0  0  0
  188.8650  174.0170  143.7630 C   0  0  2  0  0  3  0  0  0  0  0  0
  189.1780  173.0720  142.6010 C   0  0  1  0  0  3  0  0  0  0  0  0
  189.4910  171.6670  143.1280 C   0  0  1  0  0  3  0  0  0  0  0  0
  188.0960  173.0130  141.7240 O   0  0  0  0  0  1  0  0  0  0  0  0
  189.9830  176.1110  142.9920 C   0  0  0  0  0  3  0  0  0  0  0  0
  188.7980  175.4460  143.3200 C   0  0  0  0  0  0  0  0  0  0  0  0
  189.9440  177.4400  142.5630 C   0  0  0  0  0  3  0  0  0  0  0  0
  187.5260  177.4520  142.7930 C   0  0  0  0  0  0  0  0  0  0  0  0
  187.5730  176.1180  143.2190 C   0  0  0  0  0  3  0  0  0  0  0  0
  188.7210  178.1080  142.4650 C   0  0  0  0  0  3  0  0  0  0  0  0
  185.9850  179.2670  143.4920 O   0  0  0  0  0  1  0  0  0  0  0  0
  186.2370  178.1530  142.6990 C   0  0  0  0  0  0  0  0  0  0  0  0
  185.3500  177.7560  141.8950 O   0  0  0  0  0  0  0  0  0  0  0  0
  189.2350  173.8420  146.1360 O   0  0  0  0  0  0  0  0  0  0  0  0
  189.4510  175.1220  146.6520 C   0  0  0  0  0  2  0  0  0  0  0  0
  191.1070  176.9210  146.9660 C   0  0  0  0  0  2  0  0  0  0  0  0
  191.4550  175.7960  147.9150 C   0  0  0  0  0  2  0  0  0  0  0  0
  190.9170  175.4810  146.5340 C   0  0  0  0  0  3  0  0  0  0  0  0
  192.4450  172.2800  141.5840 C   0  0  0  0  0  2  0  0  0  0  0  0
  193.3090  171.0310  141.5120 C   0  0  1  0  0  3  0  0  0  0  0  0
  194.2530  170.9840  139.9520 S   0  0  0  0  0  0  0  0  0  0  0  0
  195.5240  168.3300  138.8710 O   0  0  0  0  0  0  0  0  0  0  0  0
  196.8010  169.2630  141.2390 C   0  0  2  0  0  3  0  0  0  0  0  0
  197.7370  168.1660  140.7310 C   0  0  0  0  0  2  0  0  0  0  0  0
  196.7690  168.8020  138.4290 C   0  0  1  0  0  3  0  0  0  0  0  0
  195.2120  169.1270  140.3400 P   0  0  1  0  0  0  0  0  0  0  0  0
  194.2760  168.2600  141.1450 O   0  0  0  0  0  0  0  0  0  0  0  0
  197.9410  168.1710  139.2050 C   0  0  0  0  0  2  0  0  0  0  0  0
  197.4420  170.6150  141.1520 C   0  0  0  0  0  0  0  0  0  0  0  0
  197.5860  171.2170  139.9100 O   0  0  0  0  0  0  0  0  0  0  0  0
  197.8040  171.2350  142.1850 O   0  0  0  0  0  1  0  0  0  0  0  0
  196.9230  168.5810  136.9560 C   0  0  0  0  0  3  0  0  0  0  0  0
  195.9400  168.8620  136.1010 C   0  0  0  0  0  2  0  0  0  0  0  0
  194.2380  171.0450  142.6290 N   0  0  0  0  0  2  0  0  0  0  0  0
  193.5350  171.5800  143.7930 C   0  0  2  0  0  3  0  0  0  0  0  0
  194.7140  174.9540  145.1430 C   0  0  0  0  0  0  0  0  0  0  0  0
  193.9520  173.9730  144.4960 C   0  0  0  0  0  3  0  0  0  0  0  0
  196.2900  173.2440  145.8310 C   0  0  0  0  0  3  0  0  0  0  0  0
  194.3410  172.6260  144.5230 C   0  0  0  0  0  0  0  0  0  0  0  0
  195.8880  174.5800  145.8100 C   0  0  0  0  0  3  0  0  0  0  0  0
  195.5230  172.2660  145.1910 C   0  0  0  0  0  0  0  0  0  0  0  0
  195.9460  170.9430  145.2170 O   0  0  0  0  0  1  0  0  0  0  0  0
  194.7090  177.1700  145.9950 O   0  0  0  0  0  0  0  0  0  0  0  0
  194.2740  176.3600  145.1340 C   0  0  0  0  0  0  0  0  0  0  0  0
  193.3380  176.8140  144.1630 N   0  0  0  0  0  1  0  0  0  0  0  0
  193.1080  170.5450  144.6490 O   0  0  0  0  0  0  0  0  0  0  0  0
  193.3790  168.4410  145.0270 C   0  0  0  0  0  1  0  0  0  0  0  0
  193.3260  169.4050  144.0170 O   0  0  0  0  0  0  0  0  0  0  0  0
  1 41  1  0  0  0  0
  1 19  1  0  0  0  0
  2  1  1  0  0  0  0
  3  2  1  0  0  0  0
  4  3  1  0  0  0  0
  5  4  1  0  0  0  0
  6  5  1  0  0  0  0
  7 11  1  0  0  0  0
  9  7  1  0  0  0  0
  9  8  2  1  0  0  0
  9 12  1  0  0  0  0
 10 13  1  1  0  0  0
 11  6  1  6  0  0  0
 11 10  1  0  0  0  0
 12 10  1  0  0  0  0
 13 14  1  0  0  0  0
 14 17  1  0  0  0  0
 17 15  1  0  0  0  0
 17 18  1  0  0  0  0
 17 16  1  0  0  0  0
 20 21  1  0  0  0  0
 21 22  1  0  0  0  0
 22 36  1  1  0  0  0
 23 28  1  6  0  0  0
 23 22  1  0  0  0  0
 24 26  1  6  0  0  0
 24 25  1  0  0  0  0
 24 23  1  0  0  0  0
 25 19  1  6  0  0  0
 25 20  1  0  0  0  0
 27 28  1  0  0  0  0
 29 27  2  0  0  0  0
 30 31  1  0  0  0  0
 31 28  2  0  0  0  0
 32 29  1  0  0  0  0
 32 30  2  0  0  0  0
 34 30  1  0  0  0  0
 34 33  1  0  0  0  0
 35 34  2  0  0  0  0
 36 37  1  0  0  0  0
 38 39  1  0  0  0  0
 40 37  1  0  0  0  0
 40 38  1  0  0  0  0
 40 39  1  0  0  0  0
 42 41  1  6  0  0  0
 42 56  1  0  0  0  0
 43 48  1  0  0  0  0
 43 42  1  0  0  0  0
 44 48  1  0  0  0  0
 45 51  1  6  0  0  0
 46 45  1  0  0  0  0
 47 54  1  6  0  0  0
 47 44  1  0  0  0  0
 47 50  1  0  0  0  0
 48 49  2  1  0  0  0
 48 45  1  0  0  0  0
 50 46  1  0  0  0  0
 51 53  1  0  0  0  0
 52 51  2  0  0  0  0
 55 54  2  0  0  0  0
 57 56  1  6  0  0  0
 57 61  1  0  0  0  0
 57 68  1  0  0  0  0
 58 62  1  0  0  0  0
 59 61  1  0  0  0  0
 59 58  2  0  0  0  0
 61 63  2  0  0  0  0
 62 60  2  0  0  0  0
 63 64  1  0  0  0  0
 63 60  1  0  0  0  0
 66 58  1  0  0  0  0
 66 65  2  0  0  0  0
 67 66  1  0  0  0  0
 70 68  1  0  0  0  0
 70 69  1  0  0  0  0
M  END
>  <MODEL>
1

>  <REMARK>
 VINA RESULT:      -5.0      0.000      0.000
  Name = 
  28 active torsions:
  status: ('A' for Active; 'I' for Inactive)
    1  A    between atoms: C_1  and  N_17
    2  A    between atoms: C_1  and  N_64
    3  A    between atoms: C_3  and  C_53
    4  A    between atoms: N_5  and  C_42
    5  A    between atoms: N_5  and  C_47
    6  A    between atoms: C_11  and  C_15
    7  A    between atoms: C_14  and  C_45
    8  A    between atoms: N_17  and  C_22
    9  A    between atoms: N_17  and  C_41
   10  A    between atoms: C_21  and  C_54
   11  A    between atoms: C_22  and  C_47
   12  A    between atoms: C_23  and  C_42
   13  A    between atoms: O_26  and  C_37
   14  A    between atoms: O_26  and  C_51
   15  A    between atoms: C_27  and  C_37
   16  A    between atoms: C_27  and  N_64
   17  A    between atoms: O_31  and  C_33
   18  A    between atoms: O_31  and  O_50
   19  A    between atoms: O_32  and  O_59
   20  A    between atoms: C_34  and  O_68
   21  A    between atoms: C_36  and  O_50
   22  A    between atoms: C_41  and  C_66
   23  A    between atoms: C_42  and  O_59
   24  A    between atoms: S_43  and  P_46
   25  A    between atoms: S_43  and  C_47
   26  A    between atoms: C_48  and  C_60
   27  A    between atoms: C_52  and  C_67
   28  A    between atoms: C_67  and  O_68
                            x       y       z     vdW  Elec       q    Type
                         _______ _______ _______ _____ _____    ______ ____

>  <TORSDO>
F 28

$$$$
=
 OpenBabel11072409423D

 70 75  0  0  1  0  0  0  0  0999 V2000
  190.2390  173.0060  140.9280 N   0  0  0  0  0  0  0  0  0  0  0  0
  189.7920  171.7160  141.4280 C   0  0  0  0  0  2  0  0  0  0  0  0
  190.9110  171.0140  142.0300 N   0  0  0  0  0  2  0  0  0  0  0  0
  190.8540  169.6450  141.5570 C   0  0  0  0  0  2  0  0  0  0  0  0
  192.2220  169.0110  141.6780 C   0  0  0  0  0  2  0  0  0  0  0  0
  193.0460  169.8210  142.4780 O   0  0  0  0  0  0  0  0  0  0  0  0
  194.4270  169.2320  140.5330 C   0  0  0  0  0  2  0  0  0  0  0  0
  196.7580  169.9380  139.6050 O   0  0  0  0  0  0  0  0  0  0  0  0
  196.1370  168.7360  140.3040 S   0  0  1  0  0  0  0  0  0  0  0  0
  195.4180  169.2210  142.8290 C   0  0  1  0  0  3  0  0  0  0  0  0
  194.3460  169.8480  141.9250 C   0  0  2  0  0  3  0  0  0  0  0  0
  196.6690  168.9430  142.0070 C   0  0  0  0  0  2  0  0  0  0  0  0
  195.6900  169.9950  143.9740 O   0  0  0  0  0  0  0  0  0  0  0  0
  195.4020  169.2460  145.0290 O   0  0  0  0  0  0  0  0  0  0  0  0
  196.2290  170.9210  146.3130 F   0  0  0  0  0  0  0  0  0  0  0  0
  194.8230  169.4280  147.2350 F   0  0  0  0  0  0  0  0  0  0  0  0
  195.1180  170.1320  146.0800 C   0  0  0  0  0  0  0  0  0  0  0  0
  194.0520  170.9520  145.7500 F   0  0  0  0  0  0  0  0  0  0  0  0
  189.7980  173.0860  139.5460 C   0  0  0  0  0  2  0  0  0  0  0  0
  189.9090  171.8250  137.4740 O   0  0  0  0  0  0  0  0  0  0  0  0
  190.1190  172.8580  136.6650 O   0  0  0  0  0  0  0  0  0  0  0  0
  191.3640  172.6440  136.0290 C   0  0  1  0  0  3  0  0  0  0  0  0
  192.4640  172.2860  137.0410 C   0  0  2  0  0  3  0  0  0  0  0  0
  192.0100  172.5990  138.4680 C   0  0  1  0  0  3  0  0  0  0  0  0
  190.5790  172.0980  138.6920 C   0  0  1  0  0  3  0  0  0  0  0  0
  192.8670  171.9970  139.3890 O   0  0  0  0  0  1  0  0  0  0  0  0
  194.9480  172.2530  136.7900 C   0  0  0  0  0  3  0  0  0  0  0  0
  193.7510  172.9710  136.7010 C   0  0  0  0  0  0  0  0  0  0  0  0
  196.1590  172.8680  136.4650 C   0  0  0  0  0  3  0  0  0  0  0  0
  194.9860  174.9340  135.9610 C   0  0  0  0  0  0  0  0  0  0  0  0
  193.7740  174.3090  136.2860 C   0  0  0  0  0  3  0  0  0  0  0  0
  196.1780  174.2020  136.0530 C   0  0  0  0  0  3  0  0  0  0  0  0
  193.8090  177.0390  135.3770 O   0  0  0  0  0  1  0  0  0  0  0  0
  195.0010  176.3420  135.5360 C   0  0  0  0  0  0  0  0  0  0  0  0
  196.0940  176.9310  135.3170 O   0  0  0  0  0  0  0  0  0  0  0  0
  191.2540  171.6410  135.0620 O   0  0  0  0  0  0  0  0  0  0  0  0
  192.0700  170.6060  135.5240 C   0  0  0  0  0  2  0  0  0  0  0  0
  192.2710  168.1680  135.8340 C   0  0  0  0  0  2  0  0  0  0  0  0
  191.1550  168.6610  136.7260 C   0  0  0  0  0  2  0  0  0  0  0  0
  191.3590  169.2790  135.3580 C   0  0  0  0  0  3  0  0  0  0  0  0
  189.5110  174.0370  141.6530 C   0  0  0  0  0  2  0  0  0  0  0  0
  190.0400  174.1550  143.0730 C   0  0  1  0  0  3  0  0  0  0  0  0
  191.3790  175.3890  143.1670 S   0  0  0  0  0  0  0  0  0  0  0  0
  193.6920  173.4780  142.2570 O   0  0  0  0  0  0  0  0  0  0  0  0
  194.1960  174.6660  144.7950 C   0  0  2  0  0  3  0  0  0  0  0  0
  195.5360  174.0340  144.4180 C   0  0  0  0  0  2  0  0  0  0  0  0
  194.7120  174.4090  142.0060 C   0  0  1  0  0  3  0  0  0  0  0  0
  192.9110  174.0050  143.6720 P   0  0  1  0  0  0  0  0  0  0  0  0
  192.2760  172.8010  144.3240 O   0  0  0  0  0  0  0  0  0  0  0  0
  195.9220  174.2130  142.9390 C   0  0  0  0  0  2  0  0  0  0  0  0
  194.2830  176.1630  144.8160 C   0  0  0  0  0  0  0  0  0  0  0  0
  193.1600  176.9020  145.1590 O   0  0  0  0  0  1  0  0  0  0  0  0
  195.3660  176.7590  144.5790 O   0  0  0  0  0  0  0  0  0  0  0  0
  195.1300  174.3560  140.5700 C   0  0  0  0  0  3  0  0  0  0  0  0
  195.9230  173.3890  140.1080 C   0  0  0  0  0  2  0  0  0  0  0  0
  188.9510  174.5700  143.9410 N   0  0  0  0  0  2  0  0  0  0  0  0
  188.7370  176.0020  143.7420 C   0  0  2  0  0  3  0  0  0  0  0  0
  186.2790  177.8090  146.0430 C   0  0  0  0  0  0  0  0  0  0  0  0
  186.8280  177.1590  144.9300 C   0  0  0  0  0  3  0  0  0  0  0  0
  188.3800  177.5140  147.2210 C   0  0  0  0  0  3  0  0  0  0  0  0
  188.1420  176.6690  144.9570 C   0  0  0  0  0  0  0  0  0  0  0  0
  187.0660  177.9850  147.1890 C   0  0  0  0  0  3  0  0  0  0  0  0
  188.9200  176.8570  146.1110 C   0  0  0  0  0  0  0  0  0  0  0  0
  190.2330  176.4040  146.1610 O   0  0  0  0  0  1  0  0  0  0  0  0
  184.2500  178.4690  147.0820 O   0  0  0  0  0  0  0  0  0  0  0  0
  184.8860  178.2870  146.0100 C   0  0  0  0  0  0  0  0  0  0  0  0
  184.2390  178.5320  144.7670 N   0  0  0  0  0  1  0  0  0  0  0  0
  187.9830  176.2470  142.5770 O   0  0  0  0  0  0  0  0  0  0  0  0
  187.6570  178.1480  141.6160 C   0  0  0  0  0  1  0  0  0  0  0  0
  188.6230  177.1770  141.8900 O   0  0  0  0  0  0  0  0  0  0  0  0
  1  2  1  0  0  0  0
  1 41  1  0  0  0  0
  2  3  1  0  0  0  0
  4  5  1  0  0  0  0
  4  3  1  0  0  0  0
  5  6  1  0  0  0  0
  7 11  1  0  0  0  0
  9  8  2  6  0  0  0
  9  7  1  0  0  0  0
  9 12  1  0  0  0  0
 10 13  1  1  0  0  0
 11  6  1  1  0  0  0
 11 10  1  0  0  0  0
 12 10  1  0  0  0  0
 13 14  1  0  0  0  0
 14 17  1  0  0  0  0
 17 15  1  0  0  0  0
 17 16  1  0  0  0  0
 18 17  1  0  0  0  0
 19  1  1  0  0  0  0
 20 25  1  0  0  0  0
 21 20  1  0  0  0  0
 22 36  1  6  0  0  0
 22 21  1  0  0  0  0
 22 23  1  0  0  0  0
 23 28  1  6  0  0  0
 23 24  1  0  0  0  0
 24 25  1  0  0  0  0
 24 26  1  1  0  0  0
 25 19  1  6  0  0  0
 28 27  1  0  0  0  0
 29 27  2  0  0  0  0
 30 32  2  0  0  0  0
 30 31  1  0  0  0  0
 31 28  2  0  0  0  0
 32 29  1  0  0  0  0
 33 34  1  0  0  0  0
 34 30  1  0  0  0  0
 35 34  2  0  0  0  0
 36 37  1  0  0  0  0
 38 39  1  0  0  0  0
 40 37  1  0  0  0  0
 40 38  1  0  0  0  0
 40 39  1  0  0  0  0
 42 41  1  6  0  0  0
 42 43  1  0  0  0  0
 42 56  1  0  0  0  0
 43 48  1  0  0  0  0
 44 48  1  0  0  0  0
 45 51  1  6  0  0  0
 46 45  1  0  0  0  0
 47 54  1  6  0  0  0
 47 44  1  0  0  0  0
 47 50  1  0  0  0  0
 48 49  2  1  0  0  0
 48 45  1  0  0  0  0
 50 46  1  0  0  0  0
 51 52  1  0  0  0  0
 53 51  2  0  0  0  0
 55 54  2  0  0  0  0
 57 68  1  6  0  0  0
 57 56  1  0  0  0  0
 57 61  1  0  0  0  0
 58 62  1  0  0  0  0
 59 61  1  0  0  0  0
 59 58  2  0  0  0  0
 61 63  2  0  0  0  0
 62 60  2  0  0  0  0
 63 64  1  0  0  0  0
 63 60  1  0  0  0  0
 66 58  1  0  0  0  0
 66 65  2  0  0  0  0
 67 66  1  0  0  0  0
 69 70  1  0  0  0  0
 70 68  1  0  0  0  0
M  END
>  <MODEL>
2

>  <REMARK>
 VINA RESULT:      -4.8      3.105      8.368
  Name = 
  28 active torsions:
  status: ('A' for Active; 'I' for Inactive)
    1  A    between atoms: C_1  and  N_17
    2  A    between atoms: C_1  and  N_64
    3  A    between atoms: C_3  and  C_53
    4  A    between atoms: N_5  and  C_42
    5  A    between atoms: N_5  and  C_47
    6  A    between atoms: C_11  and  C_15
    7  A    between atoms: C_14  and  C_45
    8  A    between atoms: N_17  and  C_22
    9  A    between atoms: N_17  and  C_41
   10  A    between atoms: C_21  and  C_54
   11  A    between atoms: C_22  and  C_47
   12  A    between atoms: C_23  and  C_42
   13  A    between atoms: O_26  and  C_37
   14  A    between atoms: O_26  and  C_51
   15  A    between atoms: C_27  and  C_37
   16  A    between atoms: C_27  and  N_64
   17  A    between atoms: O_31  and  C_33
   18  A    between atoms: O_31  and  O_50
   19  A    between atoms: O_32  and  O_59
   20  A    between atoms: C_34  and  O_68
   21  A    between atoms: C_36  and  O_50
   22  A    between atoms: C_41  and  C_66
   23  A    between atoms: C_42  and  O_59
   24  A    between atoms: S_43  and  P_46
   25  A    between atoms: S_43  and  C_47
   26  A    between atoms: C_48  and  C_60
   27  A    between atoms: C_52  and  C_67
   28  A    between atoms: C_67  and  O_68
                            x       y       z     vdW  Elec       q    Type
                         _______ _______ _______ _____ _____    ______ ____

>  <TORSDO>
F 28

$$$$
=
 OpenBabel11072409423D

 70 75  0  0  1  0  0  0  0  0999 V2000
  193.2900  175.6120  141.4570 N   0  0  0  0  0  0  0  0  0  0  0  0
  194.4270  175.8900  142.3190 C   0  0  0  0  0  2  0  0  0  0  0  0
  195.3380  176.7980  141.6450 N   0  0  0  0  0  2  0  0  0  0  0  0
  196.6220  176.6760  142.3070 C   0  0  0  0  0  2  0  0  0  0  0  0
  196.4550  175.8990  143.5940 C   0  0  0  0  0  2  0  0  0  0  0  0
  197.6470  175.2140  143.8850 O   0  0  0  0  0  0  0  0  0  0  0  0
  197.8660  172.7730  143.7220 C   0  0  0  0  0  2  0  0  0  0  0  0
  197.6170  170.7530  145.3510 O   0  0  0  0  0  0  0  0  0  0  0  0
  196.8400  171.3790  144.2010 S   0  0  1  0  0  0  0  0  0  0  0  0
  195.8350  173.7850  144.7720 C   0  0  1  0  0  3  0  0  0  0  0  0
  197.3330  173.9760  144.4900 C   0  0  2  0  0  3  0  0  0  0  0  0
  195.5580  172.3120  145.0440 C   0  0  0  0  0  2  0  0  0  0  0  0
  195.3620  174.6190  145.8050 O   0  0  0  0  0  0  0  0  0  0  0  0
  194.0410  174.5180  145.8130 O   0  0  0  0  0  0  0  0  0  0  0  0
  194.6120  176.4540  146.8460 F   0  0  0  0  0  0  0  0  0  0  0  0
  192.6510  175.4790  147.3560 F   0  0  0  0  0  0  0  0  0  0  0  0
  193.5530  175.7270  146.3360 C   0  0  0  0  0  0  0  0  0  0  0  0
  192.9400  176.4730  145.3430 F   0  0  0  0  0  0  0  0  0  0  0  0
  193.5190  174.2960  140.8850 C   0  0  0  0  0  2  0  0  0  0  0  0
  195.8240  173.5410  140.7700 O   0  0  0  0  0  0  0  0  0  0  0  0
  195.5650  172.2540  140.5610 O   0  0  0  0  0  0  0  0  0  0  0  0
  196.1370  171.9090  139.3150 C   0  0  1  0  0  3  0  0  0  0  0  0
  195.7500  172.9110  138.2150 C   0  0  2  0  0  3  0  0  0  0  0  0
  194.5860  173.7920  138.6710 C   0  0  1  0  0  3  0  0  0  0  0  0
  194.8240  174.2890  140.1020 C   0  0  1  0  0  3  0  0  0  0  0  0
  194.4430  174.8830  137.8140 O   0  0  0  0  0  1  0  0  0  0  0  0
  196.3870  172.2460  135.8950 C   0  0  0  0  0  3  0  0  0  0  0  0
  195.4480  172.2060  136.9290 C   0  0  0  0  0  0  0  0  0  0  0  0
  196.1330  171.5850  134.6910 C   0  0  0  0  0  3  0  0  0  0  0  0
  193.9850  170.8400  135.5450 C   0  0  0  0  0  0  0  0  0  0  0  0
  194.2490  171.5020  136.7510 C   0  0  0  0  0  3  0  0  0  0  0  0
  194.9370  170.8850  134.5160 C   0  0  0  0  0  3  0  0  0  0  0  0
  192.7110  168.7220  135.3220 O   0  0  0  0  0  1  0  0  0  0  0  0
  192.7200  170.1110  135.3630 C   0  0  0  0  0  0  0  0  0  0  0  0
  191.6320  170.7380  135.2490 O   0  0  0  0  0  0  0  0  0  0  0  0
  197.5290  171.8260  139.4220 O   0  0  0  0  0  0  0  0  0  0  0  0
  197.7950  170.4670  139.6060 C   0  0  0  0  0  2  0  0  0  0  0  0
  197.6510  169.1730  137.5120 C   0  0  0  0  0  2  0  0  0  0  0  0
  197.4090  168.2240  138.6650 C   0  0  0  0  0  2  0  0  0  0  0  0
  196.8780  169.6420  138.7270 C   0  0  0  0  0  3  0  0  0  0  0  0
  192.1130  175.4940  142.3040 C   0  0  0  0  0  2  0  0  0  0  0  0
  191.3450  174.2270  141.9660 C   0  0  1  0  0  3  0  0  0  0  0  0
  192.1850  172.7580  142.6440 S   0  0  0  0  0  0  0  0  0  0  0  0
  190.1580  171.9470  140.3940 O   0  0  0  0  0  0  0  0  0  0  0  0
  191.5560  169.7060  141.4600 C   0  0  2  0  0  3  0  0  0  0  0  0
  190.8680  169.1460  140.2150 C   0  0  0  0  0  2  0  0  0  0  0  0
  191.0440  171.5740  139.3710 C   0  0  1  0  0  3  0  0  0  0  0  0
  190.8220  171.3410  141.8370 P   0  0  1  0  0  0  0  0  0  0  0  0
  189.6920  171.1460  142.8180 O   0  0  0  0  0  0  0  0  0  0  0  0
  190.9090  170.0860  138.9970 C   0  0  0  0  0  2  0  0  0  0  0  0
  193.0470  169.7250  141.3010 C   0  0  0  0  0  0  0  0  0  0  0  0
  193.8450  169.8850  142.4240 O   0  0  0  0  0  1  0  0  0  0  0  0
  193.5870  169.5440  140.1790 O   0  0  0  0  0  0  0  0  0  0  0  0
  190.8570  172.4470  138.1700 C   0  0  0  0  0  3  0  0  0  0  0  0
  191.1100  173.7550  138.2100 C   0  0  0  0  0  2  0  0  0  0  0  0
  190.0160  174.3230  142.5450 N   0  0  0  0  0  2  0  0  0  0  0  0
  189.8580  175.6690  143.0920 C   0  0  2  0  0  3  0  0  0  0  0  0
  187.5470  176.5200  146.0130 C   0  0  0  0  0  0  0  0  0  0  0  0
  188.1250  176.4950  144.7370 C   0  0  0  0  0  3  0  0  0  0  0  0
  189.1860  174.8950  146.7610 C   0  0  0  0  0  3  0  0  0  0  0  0
  189.2190  175.6640  144.4590 C   0  0  0  0  0  0  0  0  0  0  0  0
  188.0880  175.7150  147.0250 C   0  0  0  0  0  3  0  0  0  0  0  0
  189.7540  174.8660  145.4840 C   0  0  0  0  0  0  0  0  0  0  0  0
  190.8520  174.0490  145.2450 O   0  0  0  0  0  1  0  0  0  0  0  0
  185.6090  177.1180  147.2470 O   0  0  0  0  0  0  0  0  0  0  0  0
  186.3760  177.3730  146.2810 C   0  0  0  0  0  0  0  0  0  0  0  0
  186.0890  178.4840  145.4400 N   0  0  0  0  0  1  0  0  0  0  0  0
  189.1750  176.5080  142.1890 O   0  0  0  0  0  0  0  0  0  0  0  0
  187.4620  176.5540  140.8820 C   0  0  0  0  0  1  0  0  0  0  0  0
  188.4640  175.7260  141.3950 O   0  0  0  0  0  0  0  0  0  0  0  0
  1 41  1  0  0  0  0
  1  2  1  0  0  0  0
  3  4  1  0  0  0  0
  3  2  1  0  0  0  0
  4  5  1  0  0  0  0
  5  6  1  0  0  0  0
  7  9  1  0  0  0  0
  7 11  1  0  0  0  0
  9 12  1  0  0  0  0
  9  8  2  1  0  0  0
 10 12  1  0  0  0  0
 10 13  1  1  0  0  0
 11  6  1  6  0  0  0
 11 10  1  0  0  0  0
 13 14  1  0  0  0  0
 14 17  1  0  0  0  0
 17 15  1  0  0  0  0
 17 16  1  0  0  0  0
 18 17  1  0  0  0  0
 19  1  1  0  0  0  0
 21 20  1  0  0  0  0
 22 36  1  1  0  0  0
 22 21  1  0  0  0  0
 23 28  1  6  0  0  0
 23 24  1  0  0  0  0
 23 22  1  0  0  0  0
 24 26  1  6  0  0  0
 24 25  1  0  0  0  0
 25 20  1  0  0  0  0
 25 19  1  1  0  0  0
 27 28  1  0  0  0  0
 29 27  2  0  0  0  0
 30 31  1  0  0  0  0
 31 28  2  0  0  0  0
 32 29  1  0  0  0  0
 32 30  2  0  0  0  0
 33 34  1  0  0  0  0
 34 30  1  0  0  0  0
 35 34  2  0  0  0  0
 36 37  1  0  0  0  0
 38 39  1  0  0  0  0
 38 40  1  0  0  0  0
 39 40  1  0  0  0  0
 40 37  1  0  0  0  0
 42 41  1  1  0  0  0
 42 56  1  0  0  0  0
 42 43  1  0  0  0  0
 44 48  1  0  0  0  0
 45 51  1  6  0  0  0
 45 48  1  0  0  0  0
 46 45  1  0  0  0  0
 47 54  1  6  0  0  0
 47 44  1  0  0  0  0
 48 43  1  0  0  0  0
 48 49  2  1  0  0  0
 50 47  1  0  0  0  0
 50 46  1  0  0  0  0
 51 52  1  0  0  0  0
 53 51  2  0  0  0  0
 54 55  2  0  0  0  0
 56 57  1  0  0  0  0
 57 68  1  6  0  0  0
 57 61  1  0  0  0  0
 58 66  1  0  0  0  0
 58 62  1  0  0  0  0
 59 58  2  0  0  0  0
 60 62  2  0  0  0  0
 61 59  1  0  0  0  0
 61 63  2  0  0  0  0
 63 60  1  0  0  0  0
 64 63  1  0  0  0  0
 66 65  2  0  0  0  0
 67 66  1  0  0  0  0
 69 70  1  0  0  0  0
 70 68  1  0  0  0  0
M  END
>  <MODEL>
3

>  <REMARK>
 VINA RESULT:      -4.7      2.872      8.424
  Name = 
  28 active torsions:
  status: ('A' for Active; 'I' for Inactive)
    1  A    between atoms: C_1  and  N_17
    2  A    between atoms: C_1  and  N_64
    3  A    between atoms: C_3  and  C_53
    4  A    between atoms: N_5  and  C_42
    5  A    between atoms: N_5  and  C_47
    6  A    between atoms: C_11  and  C_15
    7  A    between atoms: C_14  and  C_45
    8  A    between atoms: N_17  and  C_22
    9  A    between atoms: N_17  and  C_41
   10  A    between atoms: C_21  and  C_54
   11  A    between atoms: C_22  and  C_47
   12  A    between atoms: C_23  and  C_42
   13  A    between atoms: O_26  and  C_37
   14  A    between atoms: O_26  and  C_51
   15  A    between atoms: C_27  and  C_37
   16  A    between atoms: C_27  and  N_64
   17  A    between atoms: O_31  and  C_33
   18  A    between atoms: O_31  and  O_50
   19  A    between atoms: O_32  and  O_59
   20  A    between atoms: C_34  and  O_68
   21  A    between atoms: C_36  and  O_50
   22  A    between atoms: C_41  and  C_66
   23  A    between atoms: C_42  and  O_59
   24  A    between atoms: S_43  and  P_46
   25  A    between atoms: S_43  and  C_47
   26  A    between atoms: C_48  and  C_60
   27  A    between atoms: C_52  and  C_67
   28  A    between atoms: C_67  and  O_68
                            x       y       z     vdW  Elec       q    Type
                         _______ _______ _______ _____ _____    ______ ____

>  <TORSDO>
F 28

$$$$
=
 OpenBabel11072409423D

 70 75  0  0  1  0  0  0  0  0999 V2000
  190.0550  173.7590  141.5500 N   0  0  0  0  0  0  0  0  0  0  0  0
  191.4550  174.1390  141.4580 C   0  0  0  0  0  2  0  0  0  0  0  0
  192.2760  173.1360  142.1130 N   0  0  0  0  0  2  0  0  0  0  0  0
  193.5990  173.2250  141.5280 C   0  0  0  0  0  2  0  0  0  0  0  0
  193.8730  171.9860  140.7050 C   0  0  0  0  0  2  0  0  0  0  0  0
  193.5840  172.2460  139.3550 O   0  0  0  0  0  0  0  0  0  0  0  0
  195.6590  171.0160  138.8930 C   0  0  0  0  0  2  0  0  0  0  0  0
  197.4580  171.0130  137.0070 O   0  0  0  0  0  0  0  0  0  0  0  0
  197.3330  171.4890  138.4480 S   0  0  1  0  0  0  0  0  0  0  0  0
  195.6220  173.5130  138.7620 C   0  0  1  0  0  3  0  0  0  0  0  0
  194.7860  172.2330  138.6130 C   0  0  2  0  0  3  0  0  0  0  0  0
  197.0370  173.2510  138.2650 C   0  0  0  0  0  2  0  0  0  0  0  0
  195.0320  174.6290  138.1360 O   0  0  0  0  0  0  0  0  0  0  0  0
  194.2100  174.1640  137.2050 O   0  0  0  0  0  0  0  0  0  0  0  0
  195.3120  175.9460  136.3370 F   0  0  0  0  0  0  0  0  0  0  0  0
  193.3490  175.3260  135.4320 F   0  0  0  0  0  0  0  0  0  0  0  0
  194.5110  174.8630  136.0260 C   0  0  0  0  0  0  0  0  0  0  0  0
  195.1930  174.0470  135.1380 F   0  0  0  0  0  0  0  0  0  0  0  0
  190.0010  172.3280  141.3050 C   0  0  0  0  0  2  0  0  0  0  0  0
  188.6100  173.1990  139.5160 O   0  0  0  0  0  0  0  0  0  0  0  0
  189.5160  174.0140  138.9860 O   0  0  0  0  0  0  0  0  0  0  0  0
  189.7270  173.5940  137.6530 C   0  0  1  0  0  3  0  0  0  0  0  0
  189.9820  172.0800  137.5680 C   0  0  2  0  0  3  0  0  0  0  0  0
  190.2860  171.5040  138.9530 C   0  0  1  0  0  3  0  0  0  0  0  0
  189.2940  172.0520  139.9860 C   0  0  1  0  0  3  0  0  0  0  0  0
  190.2100  170.1120  138.9230 O   0  0  0  0  0  1  0  0  0  0  0  0
  191.2050  172.5780  135.4500 C   0  0  0  0  0  3  0  0  0  0  0  0
  191.0670  171.7720  136.5830 C   0  0  0  0  0  0  0  0  0  0  0  0
  192.2180  172.3170  134.5240 C   0  0  0  0  0  3  0  0  0  0  0  0
  192.9640  170.4300  135.8590 C   0  0  0  0  0  0  0  0  0  0  0  0
  191.9470  170.7000  136.7850 C   0  0  0  0  0  3  0  0  0  0  0  0
  193.0940  171.2480  134.7280 C   0  0  0  0  0  3  0  0  0  0  0  0
  195.1010  169.2490  135.4160 O   0  0  0  0  0  0  0  0  0  0  0  0
  193.8770  169.2970  136.0730 C   0  0  0  0  0  0  0  0  0  0  0  0
  193.5630  168.3630  136.8590 O   0  0  0  0  0  1  0  0  0  0  0  0
  188.6380  173.9440  136.8500 O   0  0  0  0  0  0  0  0  0  0  0  0
  188.8820  175.2650  136.4690 C   0  0  0  0  0  2  0  0  0  0  0  0
  187.7200  176.6580  134.7980 C   0  0  0  0  0  2  0  0  0  0  0  0
  189.2040  176.7370  134.5210 C   0  0  0  0  0  2  0  0  0  0  0  0
  188.5920  175.4340  134.9920 C   0  0  0  0  0  3  0  0  0  0  0  0
  189.6330  173.9580  142.9280 C   0  0  0  0  0  2  0  0  0  0  0  0
  189.1200  175.3750  143.1230 C   0  0  1  0  0  3  0  0  0  0  0  0
  187.3300  175.4700  142.7900 S   0  0  0  0  0  0  0  0  0  0  0  0
  185.9750  178.1520  141.8940 O   0  0  0  0  0  0  0  0  0  0  0  0
  186.8280  178.2160  144.6110 C   0  0  2  0  0  3  0  0  0  0  0  0
  185.9550  179.4630  144.4760 C   0  0  0  0  0  2  0  0  0  0  0  0
  184.7830  178.0970  142.6320 C   0  0  1  0  0  3  0  0  0  0  0  0
  187.1980  177.5860  142.9320 P   0  0  1  0  0  0  0  0  0  0  0  0
  188.5050  178.1830  142.4720 O   0  0  0  0  0  0  0  0  0  0  0  0
  184.6730  179.2480  143.6510 C   0  0  0  0  0  2  0  0  0  0  0  0
  186.2000  177.2030  145.5210 C   0  0  0  0  0  0  0  0  0  0  0  0
  186.6380  177.1090  146.8340 O   0  0  0  0  0  1  0  0  0  0  0  0
  185.2490  176.4760  145.1330 O   0  0  0  0  0  0  0  0  0  0  0  0
  183.5980  178.0790  141.7170 C   0  0  0  0  0  3  0  0  0  0  0  0
  183.7170  178.3440  140.4160 C   0  0  0  0  0  2  0  0  0  0  0  0
  189.3680  175.7730  144.4980 N   0  0  0  0  0  2  0  0  0  0  0  0
  190.5150  176.6790  144.5050 C   0  0  2  0  0  3  0  0  0  0  0  0
  194.1590  175.5690  144.2000 C   0  0  0  0  0  0  0  0  0  0  0  0
  192.9560  176.2570  143.9950 C   0  0  0  0  0  3  0  0  0  0  0  0
  193.0800  174.2440  145.9220 C   0  0  0  0  0  3  0  0  0  0  0  0
  191.8170  175.9580  144.7560 C   0  0  0  0  0  0  0  0  0  0  0  0
  194.2120  174.5580  145.1690 C   0  0  0  0  0  3  0  0  0  0  0  0
  191.8840  174.9390  145.7210 C   0  0  0  0  0  0  0  0  0  0  0  0
  190.7660  174.6040  146.4750 O   0  0  0  0  0  1  0  0  0  0  0  0
  196.5000  175.8580  143.9380 O   0  0  0  0  0  0  0  0  0  0  0  0
  195.3560  175.9180  143.4150 C   0  0  0  0  0  0  0  0  0  0  0  0
  195.2310  176.3430  142.0640 N   0  0  0  0  0  1  0  0  0  0  0  0
  190.3160  177.7450  145.4040 O   0  0  0  0  0  0  0  0  0  0  0  0
  190.0050  177.8590  147.5340 C   0  0  0  0  0  1  0  0  0  0  0  0
  189.5050  177.3070  146.3510 O   0  0  0  0  0  0  0  0  0  0  0  0
  1 41  1  0  0  0  0
  2  1  1  0  0  0  0
  2  3  1  0  0  0  0
  4  3  1  0  0  0  0
  5  4  1  0  0  0  0
  6  5  1  0  0  0  0
  9  8  2  6  0  0  0
  9  7  1  0  0  0  0
 10 13  1  6  0  0  0
 11 10  1  0  0  0  0
 11  7  1  0  0  0  0
 11  6  1  1  0  0  0
 12  9  1  0  0  0  0
 12 10  1  0  0  0  0
 14 13  1  0  0  0  0
 16 17  1  0  0  0  0
 17 15  1  0  0  0  0
 17 14  1  0  0  0  0
 18 17  1  0  0  0  0
 19  1  1  0  0  0  0
 20 25  1  0  0  0  0
 21 20  1  0  0  0  0
 22 36  1  6  0  0  0
 22 21  1  0  0  0  0
 23 28  1  6  0  0  0
 23 22  1  0  0  0  0
 23 24  1  0  0  0  0
 24 26  1  6  0  0  0
 24 25  1  0  0  0  0
 25 19  1  1  0  0  0
 27 28  1  0  0  0  0
 28 31  2  0  0  0  0
 29 32  1  0  0  0  0
 29 27  2  0  0  0  0
 30 34  1  0  0  0  0
 30 31  1  0  0  0  0
 32 30  2  0  0  0  0
 33 34  2  0  0  0  0
 34 35  1  0  0  0  0
 37 36  1  0  0  0  0
 38 40  1  0  0  0  0
 39 38  1  0  0  0  0
 39 40  1  0  0  0  0
 40 37  1  0  0  0  0
 42 41  1  1  0  0  0
 42 56  1  0  0  0  0
 43 48  1  0  0  0  0
 43 42  1  0  0  0  0
 44 47  1  0  0  0  0
 44 48  1  0  0  0  0
 45 51  1  1  0  0  0
 46 45  1  0  0  0  0
 47 54  1  6  0  0  0
 47 50  1  0  0  0  0
 48 49  2  6  0  0  0
 48 45  1  0  0  0  0
 50 46  1  0  0  0  0
 51 52  1  0  0  0  0
 53 51  2  0  0  0  0
 55 54  2  0  0  0  0
 57 56  1  1  0  0  0
 57 61  1  0  0  0  0
 57 68  1  0  0  0  0
 58 62  1  0  0  0  0
 59 58  2  0  0  0  0
 59 61  1  0  0  0  0
 61 63  2  0  0  0  0
 62 60  2  0  0  0  0
 63 60  1  0  0  0  0
 63 64  1  0  0  0  0
 66 65  2  0  0  0  0
 66 58  1  0  0  0  0
 67 66  1  0  0  0  0
 68 70  1  0  0  0  0
 70 69  1  0  0  0  0
M  END
>  <MODEL>
4

>  <REMARK>
 VINA RESULT:      -4.5      3.270      9.044
  Name = 
  28 active torsions:
  status: ('A' for Active; 'I' for Inactive)
    1  A    between atoms: C_1  and  N_17
    2  A    between atoms: C_1  and  N_64
    3  A    between atoms: C_3  and  C_53
    4  A    between atoms: N_5  and  C_42
    5  A    between atoms: N_5  and  C_47
    6  A    between atoms: C_11  and  C_15
    7  A    between atoms: C_14  and  C_45
    8  A    between atoms: N_17  and  C_22
    9  A    between atoms: N_17  and  C_41
   10  A    between atoms: C_21  and  C_54
   11  A    between atoms: C_22  and  C_47
   12  A    between atoms: C_23  and  C_42
   13  A    between atoms: O_26  and  C_37
   14  A    between atoms: O_26  and  C_51
   15  A    between atoms: C_27  and  C_37
   16  A    between atoms: C_27  and  N_64
   17  A    between atoms: O_31  and  C_33
   18  A    between atoms: O_31  and  O_50
   19  A    between atoms: O_32  and  O_59
   20  A    between atoms: C_34  and  O_68
   21  A    between atoms: C_36  and  O_50
   22  A    between atoms: C_41  and  C_66
   23  A    between atoms: C_42  and  O_59
   24  A    between atoms: S_43  and  P_46
   25  A    between atoms: S_43  and  C_47
   26  A    between atoms: C_48  and  C_60
   27  A    between atoms: C_52  and  C_67
   28  A    between atoms: C_67  and  O_68
                            x       y       z     vdW  Elec       q    Type
                         _______ _______ _______ _____ _____    ______ ____

>  <TORSDO>
F 28

$$$$
=
 OpenBabel11072409423D

 70 75  0  0  1  0  0  0  0  0999 V2000
  190.8440  172.2960  141.3280 N   0  0  0  0  0  0  0  0  0  0  0  0
  189.4040  172.4880  141.3790 C   0  0  0  0  0  2  0  0  0  0  0  0
  189.0960  173.8990  141.2290 N   0  0  0  0  0  2  0  0  0  0  0  0
  187.8730  174.1450  141.9660 C   0  0  0  0  0  2  0  0  0  0  0  0
  188.1010  175.2520  142.9710 C   0  0  0  0  0  2  0  0  0  0  0  0
  187.9220  176.4970  142.3450 O   0  0  0  0  0  0  0  0  0  0  0  0
  185.9610  177.5940  141.3530 C   0  0  0  0  0  2  0  0  0  0  0  0
  183.4250  177.7780  141.9240 O   0  0  0  0  0  0  0  0  0  0  0  0
  184.6620  178.6640  141.9790 S   0  0  1  0  0  0  0  0  0  0  0  0
  186.4620  177.8760  143.7870 C   0  0  1  0  0  3  0  0  0  0  0  0
  186.6020  176.9440  142.5730 C   0  0  2  0  0  3  0  0  0  0  0  0
  185.1240  178.6000  143.7140 C   0  0  0  0  0  2  0  0  0  0  0  0
  186.6440  177.2080  145.0140 O   0  0  0  0  0  0  0  0  0  0  0  0
  187.2630  178.0510  145.8280 O   0  0  0  0  0  0  0  0  0  0  0  0
  188.7840  177.9180  147.5040 F   0  0  0  0  0  0  0  0  0  0  0  0
  189.4580  177.5760  145.3860 F   0  0  0  0  0  0  0  0  0  0  0  0
  188.4170  177.3910  146.2800 C   0  0  0  0  0  0  0  0  0  0  0  0
  188.1730  176.0370  146.4350 F   0  0  0  0  0  0  0  0  0  0  0  0
  191.0930  170.9310  141.7600 C   0  0  0  0  0  2  0  0  0  0  0  0
  192.8440  170.3140  143.3260 O   0  0  0  0  0  0  0  0  0  0  0  0
  193.7470  171.2010  142.9190 O   0  0  0  0  0  0  0  0  0  0  0  0
  194.0400  172.0350  144.0220 C   0  0  1  0  0  3  0  0  0  0  0  0
  192.7600  172.5640  144.6900 C   0  0  2  0  0  3  0  0  0  0  0  0
  191.5460  172.3400  143.7860 C   0  0  1  0  0  3  0  0  0  0  0  0
  191.5700  170.9220  143.2060 C   0  0  1  0  0  3  0  0  0  0  0  0
  190.3670  172.5320  144.5060 O   0  0  0  0  0  1  0  0  0  0  0  0
  193.6760  174.8480  144.2680 C   0  0  0  0  0  3  0  0  0  0  0  0
  192.9120  174.0030  145.0770 C   0  0  0  0  0  0  0  0  0  0  0  0
  193.8200  176.1960  144.6020 C   0  0  0  0  0  3  0  0  0  0  0  0
  192.4360  175.8650  146.5700 C   0  0  0  0  0  0  0  0  0  0  0  0
  192.2930  174.5140  146.2260 C   0  0  0  0  0  3  0  0  0  0  0  0
  193.2030  176.7030  145.7480 C   0  0  0  0  0  3  0  0  0  0  0  0
  190.7730  175.6750  148.4020 O   0  0  0  0  0  1  0  0  0  0  0  0
  191.7910  176.3910  147.7830 C   0  0  0  0  0  0  0  0  0  0  0  0
  192.1580  177.4920  148.2750 O   0  0  0  0  0  0  0  0  0  0  0  0
  194.8240  171.3530  144.9570 O   0  0  0  0  0  0  0  0  0  0  0  0
  195.8450  170.7630  144.2090 C   0  0  0  0  0  2  0  0  0  0  0  0
  197.3710  168.8320  144.0680 C   0  0  0  0  0  2  0  0  0  0  0  0
  197.9410  169.8040  145.0760 C   0  0  0  0  0  2  0  0  0  0  0  0
  196.4420  169.6060  144.9800 C   0  0  0  0  0  3  0  0  0  0  0  0
  191.2500  172.3670  139.9320 C   0  0  0  0  0  2  0  0  0  0  0  0
  192.5760  171.6510  139.7320 C   0  0  1  0  0  3  0  0  0  0  0  0
  192.3930  170.2610  138.5650 S   0  0  0  0  0  0  0  0  0  0  0  0
  191.1370  172.8000  137.2230 O   0  0  0  0  0  0  0  0  0  0  0  0
  190.5960  170.4160  135.7630 C   0  0  2  0  0  3  0  0  0  0  0  0
  190.1680  171.5310  134.8080 C   0  0  0  0  0  2  0  0  0  0  0  0
  191.9390  172.9080  136.0760 C   0  0  1  0  0  3  0  0  0  0  0  0
  190.8290  171.1410  137.4280 P   0  0  1  0  0  0  0  0  0  0  0  0
  189.5380  171.0040  138.1970 O   0  0  0  0  0  0  0  0  0  0  0  0
  191.1260  172.7350  134.7780 C   0  0  0  0  0  2  0  0  0  0  0  0
  191.7920  169.6770  135.2420 C   0  0  0  0  0  0  0  0  0  0  0  0
  191.6050  168.5000  134.5330 O   0  0  0  0  0  0  0  0  0  0  0  0
  192.9570  170.1320  135.3900 O   0  0  0  0  0  1  0  0  0  0  0  0
  192.6800  174.2090  136.0730 C   0  0  0  0  0  3  0  0  0  0  0  0
  193.2950  174.6600  134.9790 C   0  0  0  0  0  2  0  0  0  0  0  0
  193.5370  172.5970  139.1940 N   0  0  0  0  0  2  0  0  0  0  0  0
  194.8580  172.2400  139.7090 C   0  0  2  0  0  3  0  0  0  0  0  0
  196.7460  175.0170  141.5310 C   0  0  0  0  0  0  0  0  0  0  0  0
  195.9730  173.8760  141.2820 C   0  0  0  0  0  3  0  0  0  0  0  0
  196.9990  175.3390  139.1400 C   0  0  0  0  0  3  0  0  0  0  0  0
  195.7210  173.4500  139.9700 C   0  0  0  0  0  0  0  0  0  0  0  0
  197.2570  175.7470  140.4490 C   0  0  0  0  0  3  0  0  0  0  0  0
  196.2350  174.1940  138.8950 C   0  0  0  0  0  0  0  0  0  0  0  0
  195.9830  173.8100  137.5840 O   0  0  0  0  0  1  0  0  0  0  0  0
  197.1930  174.5710  143.8190 O   0  0  0  0  0  0  0  0  0  0  0  0
  197.0310  175.4330  142.9150 C   0  0  0  0  0  0  0  0  0  0  0  0
  197.1060  176.8130  143.2500 N   0  0  0  0  0  1  0  0  0  0  0  0
  195.4940  171.3030  138.8700 O   0  0  0  0  0  0  0  0  0  0  0  0
  197.4030  170.3140  138.7220 C   0  0  0  0  0  1  0  0  0  0  0  0
  196.3810  170.6610  139.6100 O   0  0  0  0  0  0  0  0  0  0  0  0
  1  2  1  0  0  0  0
  1 19  1  0  0  0  0
  3  2  1  0  0  0  0
  3  4  1  0  0  0  0
  4  5  1  0  0  0  0
  6  5  1  0  0  0  0
  7  9  1  0  0  0  0
  7 11  1  0  0  0  0
  9  8  2  1  0  0  0
  9 12  1  0  0  0  0
 10 13  1  1  0  0  0
 11  6  1  6  0  0  0
 11 10  1  0  0  0  0
 12 10  1  0  0  0  0
 13 14  1  0  0  0  0
 14 17  1  0  0  0  0
 16 17  1  0  0  0  0
 17 18  1  0  0  0  0
 17 15  1  0  0  0  0
 21 20  1  0  0  0  0
 21 22  1  0  0  0  0
 22 23  1  0  0  0  0
 22 36  1  1  0  0  0
 23 28  1  6  0  0  0
 24 26  1  1  0  0  0
 24 23  1  0  0  0  0
 25 19  1  6  0  0  0
 25 20  1  0  0  0  0
 25 24  1  0  0  0  0
 27 29  2  0  0  0  0
 27 28  1  0  0  0  0
 28 31  2  0  0  0  0
 29 32  1  0  0  0  0
 30 34  1  0  0  0  0
 31 30  1  0  0  0  0
 32 30  2  0  0  0  0
 34 35  2  0  0  0  0
 34 33  1  0  0  0  0
 37 36  1  0  0  0  0
 37 40  1  0  0  0  0
 38 40  1  0  0  0  0
 38 39  1  0  0  0  0
 40 39  1  0  0  0  0
 41  1  1  0  0  0  0
 42 41  1  6  0  0  0
 43 42  1  0  0  0  0
 44 48  1  0  0  0  0
 45 51  1  6  0  0  0
 45 48  1  0  0  0  0
 46 45  1  0  0  0  0
 47 54  1  6  0  0  0
 47 44  1  0  0  0  0
 48 49  2  1  0  0  0
 48 43  1  0  0  0  0
 50 46  1  0  0  0  0
 50 47  1  0  0  0  0
 51 53  1  0  0  0  0
 52 51  2  0  0  0  0
 55 54  2  0  0  0  0
 56 57  1  0  0  0  0
 56 42  1  0  0  0  0
 57 68  1  6  0  0  0
 57 61  1  0  0  0  0
 58 66  1  0  0  0  0
 59 58  1  0  0  0  0
 60 62  1  0  0  0  0
 61 59  2  0  0  0  0
 62 58  2  0  0  0  0
 63 60  2  0  0  0  0
 63 61  1  0  0  0  0
 64 63  1  0  0  0  0
 66 67  1  0  0  0  0
 66 65  2  0  0  0  0
 68 70  1  0  0  0  0
 69 70  1  0  0  0  0
M  END
>  <MODEL>
5

>  <REMARK>
 VINA RESULT:      -4.4      3.151      6.810
  Name = 
  28 active torsions:
  status: ('A' for Active; 'I' for Inactive)
    1  A    between atoms: C_1  and  N_17
    2  A    between atoms: C_1  and  N_64
    3  A    between atoms: C_3  and  C_53
    4  A    between atoms: N_5  and  C_42
    5  A    between atoms: N_5  and  C_47
    6  A    between atoms: C_11  and  C_15
    7  A    between atoms: C_14  and  C_45
    8  A    between atoms: N_17  and  C_22
    9  A    between atoms: N_17  and  C_41
   10  A    between atoms: C_21  and  C_54
   11  A    between atoms: C_22  and  C_47
   12  A    between atoms: C_23  and  C_42
   13  A    between atoms: O_26  and  C_37
   14  A    between atoms: O_26  and  C_51
   15  A    between atoms: C_27  and  C_37
   16  A    between atoms: C_27  and  N_64
   17  A    between atoms: O_31  and  C_33
   18  A    between atoms: O_31  and  O_50
   19  A    between atoms: O_32  and  O_59
   20  A    between atoms: C_34  and  O_68
   21  A    between atoms: C_36  and  O_50
   22  A    between atoms: C_41  and  C_66
   23  A    between atoms: C_42  and  O_59
   24  A    between atoms: S_43  and  P_46
   25  A    between atoms: S_43  and  C_47
   26  A    between atoms: C_48  and  C_60
   27  A    between atoms: C_52  and  C_67
   28  A    between atoms: C_67  and  O_68
                            x       y       z     vdW  Elec       q    Type
                         _______ _______ _______ _____ _____    ______ ____

>  <TORSDO>
F 28

$$$$
=
 OpenBabel11072409423D

 70 75  0  0  1  0  0  0  0  0999 V2000
  189.8640  174.1240  141.9450 N   0  0  0  0  0  0  0  0  0  0  0  0
  191.2230  174.6390  141.9040 C   0  0  0  0  0  2  0  0  0  0  0  0
  192.1330  173.6560  142.4620 N   0  0  0  0  0  2  0  0  0  0  0  0
  193.2000  173.4730  141.4990 C   0  0  0  0  0  2  0  0  0  0  0  0
  193.5680  174.8100  140.8920 C   0  0  0  0  0  2  0  0  0  0  0  0
  194.7140  175.3140  141.5280 O   0  0  0  0  0  0  0  0  0  0  0  0
  195.5840  175.3000  139.2310 C   0  0  0  0  0  2  0  0  0  0  0  0
  197.9410  175.3080  138.1170 O   0  0  0  0  0  0  0  0  0  0  0  0
  196.8050  174.3210  138.3500 S   0  0  1  0  0  0  0  0  0  0  0  0
  196.4590  173.6740  140.9170 C   0  0  1  0  0  3  0  0  0  0  0  0
  195.8420  175.0660  140.7140 C   0  0  2  0  0  3  0  0  0  0  0  0
  197.3880  173.3610  139.7510 C   0  0  0  0  0  2  0  0  0  0  0  0
  197.0990  173.5340  142.1640 O   0  0  0  0  0  0  0  0  0  0  0  0
  197.3210  172.2410  142.3470 O   0  0  0  0  0  0  0  0  0  0  0  0
  197.9410  170.8920  144.0600 F   0  0  0  0  0  0  0  0  0  0  0  0
  195.8720  171.7710  144.0540 F   0  0  0  0  0  0  0  0  0  0  0  0
  197.1960  172.0070  143.7250 C   0  0  0  0  0  0  0  0  0  0  0  0
  197.6690  173.0910  144.4470 F   0  0  0  0  0  0  0  0  0  0  0  0
  189.9600  172.6910  141.7300 C   0  0  0  0  0  2  0  0  0  0  0  0
  188.1950  173.2850  140.1720 O   0  0  0  0  0  0  0  0  0  0  0  0
  188.8420  174.2700  139.5590 O   0  0  0  0  0  0  0  0  0  0  0  0
  188.9490  173.9140  138.1940 C   0  0  1  0  0  3  0  0  0  0  0  0
  189.4820  172.4830  138.0210 C   0  0  2  0  0  3  0  0  0  0  0  0
  190.0790  171.9650  139.3310 C   0  0  1  0  0  3  0  0  0  0  0  0
  189.1490  172.2930  140.5050 C   0  0  1  0  0  3  0  0  0  0  0  0
  190.2750  170.5860  139.2600 O   0  0  0  0  0  1  0  0  0  0  0  0
  190.5200  173.4570  135.9710 C   0  0  0  0  0  3  0  0  0  0  0  0
  190.4620  172.4070  136.8920 C   0  0  0  0  0  0  0  0  0  0  0  0
  191.4360  173.4150  134.9170 C   0  0  0  0  0  3  0  0  0  0  0  0
  192.2430  171.2600  135.6940 C   0  0  0  0  0  0  0  0  0  0  0  0
  191.3250  171.3110  136.7510 C   0  0  0  0  0  3  0  0  0  0  0  0
  192.2930  172.3210  134.7780 C   0  0  0  0  0  3  0  0  0  0  0  0
  194.1450  169.8730  136.4770 O   0  0  0  0  0  1  0  0  0  0  0  0
  193.1380  170.1020  135.5480 C   0  0  0  0  0  0  0  0  0  0  0  0
  192.9970  169.3030  134.5830 O   0  0  0  0  0  0  0  0  0  0  0  0
  187.7130  174.0480  137.5550 O   0  0  0  0  0  0  0  0  0  0  0  0
  187.5690  175.4190  137.3330 C   0  0  0  0  0  2  0  0  0  0  0  0
  186.5110  176.4710  135.3700 C   0  0  0  0  0  2  0  0  0  0  0  0
  187.7900  177.2200  135.6680 C   0  0  0  0  0  2  0  0  0  0  0  0
  187.7320  175.7180  135.8570 C   0  0  0  0  0  3  0  0  0  0  0  0
  189.3650  174.3050  143.3010 C   0  0  0  0  0  2  0  0  0  0  0  0
  188.7970  175.7050  143.4710 C   0  0  1  0  0  3  0  0  0  0  0  0
  187.0560  175.7700  142.9320 S   0  0  0  0  0  0  0  0  0  0  0  0
  185.6090  178.4150  142.0730 O   0  0  0  0  0  0  0  0  0  0  0  0
  186.5020  178.4900  144.7760 C   0  0  2  0  0  3  0  0  0  0  0  0
  185.5900  179.7120  144.6610 C   0  0  0  0  0  2  0  0  0  0  0  0
  184.4300  178.3210  142.8290 C   0  0  1  0  0  3  0  0  0  0  0  0
  186.8640  177.8810  143.0890 P   0  0  1  0  0  0  0  0  0  0  0  0
  188.1450  178.5190  142.6110 O   0  0  0  0  0  0  0  0  0  0  0  0
  184.3030  179.4620  143.8550 C   0  0  0  0  0  2  0  0  0  0  0  0
  185.9190  177.4550  145.6910 C   0  0  0  0  0  0  0  0  0  0  0  0
  185.9140  177.6860  147.0590 O   0  0  0  0  0  1  0  0  0  0  0  0
  185.3870  176.4080  145.2390 O   0  0  0  0  0  0  0  0  0  0  0  0
  183.2320  178.2720  141.9330 C   0  0  0  0  0  3  0  0  0  0  0  0
  183.3490  178.0560  140.6220 C   0  0  0  0  0  2  0  0  0  0  0  0
  188.8730  176.0680  144.8750 N   0  0  0  0  0  2  0  0  0  0  0  0
  190.0090  176.9720  145.0460 C   0  0  2  0  0  3  0  0  0  0  0  0
  193.6960  176.0410  145.4210 C   0  0  0  0  0  0  0  0  0  0  0  0
  192.5260  176.7270  145.0720 C   0  0  0  0  0  3  0  0  0  0  0  0
  192.3470  174.3540  146.5270 C   0  0  0  0  0  3  0  0  0  0  0  0
  191.2670  176.2460  145.4570 C   0  0  0  0  0  0  0  0  0  0  0  0
  193.5970  174.8490  146.1510 C   0  0  0  0  0  3  0  0  0  0  0  0
  191.1830  175.0470  146.1840 C   0  0  0  0  0  0  0  0  0  0  0  0
  189.9480  174.5320  146.5600 O   0  0  0  0  0  1  0  0  0  0  0  0
  195.2550  177.8090  145.1440 O   0  0  0  0  0  0  0  0  0  0  0  0
  195.0130  176.5780  145.0380 C   0  0  0  0  0  0  0  0  0  0  0  0
  196.0210  175.7130  144.5270 N   0  0  0  0  0  1  0  0  0  0  0  0
  189.6920  178.0260  145.9260 O   0  0  0  0  0  0  0  0  0  0  0  0
  189.0660  178.3800  147.9570 C   0  0  0  0  0  1  0  0  0  0  0  0
  189.8770  177.5750  147.1540 O   0  0  0  0  0  0  0  0  0  0  0  0
  1 41  1  0  0  0  0
  2  1  1  0  0  0  0
  2  3  1  0  0  0  0
  4  3  1  0  0  0  0
  5  4  1  0  0  0  0
  5  6  1  0  0  0  0
  7 11  1  0  0  0  0
  9  8  2  1  0  0  0
  9  7  1  0  0  0  0
  9 12  1  0  0  0  0
 10 13  1  1  0  0  0
 11 10  1  0  0  0  0
 11  6  1  1  0  0  0
 12 10  1  0  0  0  0
 13 14  1  0  0  0  0
 14 17  1  0  0  0  0
 17 16  1  0  0  0  0
 17 15  1  0  0  0  0
 17 18  1  0  0  0  0
 19  1  1  0  0  0  0
 20 25  1  0  0  0  0
 21 20  1  0  0  0  0
 22 36  1  1  0  0  0
 22 21  1  0  0  0  0
 23 28  1  6  0  0  0
 23 22  1  0  0  0  0
 23 24  1  0  0  0  0
 24 26  1  6  0  0  0
 24 25  1  0  0  0  0
 25 19  1  1  0  0  0
 27 28  1  0  0  0  0
 29 27  2  0  0  0  0
 30 31  1  0  0  0  0
 31 28  2  0  0  0  0
 32 29  1  0  0  0  0
 32 30  2  0  0  0  0
 34 30  1  0  0  0  0
 34 33  1  0  0  0  0
 35 34  2  0  0  0  0
 37 36  1  0  0  0  0
 38 39  1  0  0  0  0
 38 40  1  0  0  0  0
 39 40  1  0  0  0  0
 40 37  1  0  0  0  0
 42 41  1  1  0  0  0
 42 56  1  0  0  0  0
 43 48  1  0  0  0  0
 43 42  1  0  0  0  0
 44 47  1  0  0  0  0
 44 48  1  0  0  0  0
 45 51  1  1  0  0  0
 46 45  1  0  0  0  0
 47 54  1  6  0  0  0
 47 50  1  0  0  0  0
 48 49  2  6  0  0  0
 48 45  1  0  0  0  0
 50 46  1  0  0  0  0
 51 52  1  0  0  0  0
 53 51  2  0  0  0  0
 55 54  2  0  0  0  0
 57 56  1  1  0  0  0
 57 61  1  0  0  0  0
 57 68  1  0  0  0  0
 58 62  1  0  0  0  0
 59 58  2  0  0  0  0
 59 61  1  0  0  0  0
 61 63  2  0  0  0  0
 62 60  2  0  0  0  0
 63 60  1  0  0  0  0
 63 64  1  0  0  0  0
 66 65  2  0  0  0  0
 66 58  1  0  0  0  0
 67 66  1  0  0  0  0
 68 70  1  0  0  0  0
 70 69  1  0  0  0  0
M  END
>  <MODEL>
6

>  <REMARK>
 VINA RESULT:      -4.4      3.381      9.085
  Name = 
  28 active torsions:
  status: ('A' for Active; 'I' for Inactive)
    1  A    between atoms: C_1  and  N_17
    2  A    between atoms: C_1  and  N_64
    3  A    between atoms: C_3  and  C_53
    4  A    between atoms: N_5  and  C_42
    5  A    between atoms: N_5  and  C_47
    6  A    between atoms: C_11  and  C_15
    7  A    between atoms: C_14  and  C_45
    8  A    between atoms: N_17  and  C_22
    9  A    between atoms: N_17  and  C_41
   10  A    between atoms: C_21  and  C_54
   11  A    between atoms: C_22  and  C_47
   12  A    between atoms: C_23  and  C_42
   13  A    between atoms: O_26  and  C_37
   14  A    between atoms: O_26  and  C_51
   15  A    between atoms: C_27  and  C_37
   16  A    between atoms: C_27  and  N_64
   17  A    between atoms: O_31  and  C_33
   18  A    between atoms: O_31  and  O_50
   19  A    between atoms: O_32  and  O_59
   20  A    between atoms: C_34  and  O_68
   21  A    between atoms: C_36  and  O_50
   22  A    between atoms: C_41  and  C_66
   23  A    between atoms: C_42  and  O_59
   24  A    between atoms: S_43  and  P_46
   25  A    between atoms: S_43  and  C_47
   26  A    between atoms: C_48  and  C_60
   27  A    between atoms: C_52  and  C_67
   28  A    between atoms: C_67  and  O_68
                            x       y       z     vdW  Elec       q    Type
                         _______ _______ _______ _____ _____    ______ ____

>  <TORSDO>
F 28

$$$$
=
 OpenBabel11072409423D

 70 75  0  0  1  0  0  0  0  0999 V2000
  192.5180  176.3920  142.6800 N   0  0  0  0  0  0  0  0  0  0  0  0
  192.6520  176.1810  144.1120 C   0  0  0  0  0  2  0  0  0  0  0  0
  193.9440  176.6710  144.5570 N   0  0  0  0  0  2  0  0  0  0  0  0
  194.9090  176.2950  143.5450 C   0  0  0  0  0  2  0  0  0  0  0  0
  195.9560  175.3890  144.1550 C   0  0  0  0  0  2  0  0  0  0  0  0
  196.3230  174.4030  143.2240 O   0  0  0  0  0  0  0  0  0  0  0  0
  195.8510  173.0650  145.2290 C   0  0  0  0  0  2  0  0  0  0  0  0
  194.5780  170.8510  145.7500 O   0  0  0  0  0  0  0  0  0  0  0  0
  196.0200  171.3290  145.6570 S   0  0  1  0  0  0  0  0  0  0  0  0
  196.7760  171.9730  143.1790 C   0  0  1  0  0  3  0  0  0  0  0  0
  195.9250  173.1370  143.7090 C   0  0  2  0  0  3  0  0  0  0  0  0
  196.5350  170.7400  144.0400 C   0  0  0  0  0  2  0  0  0  0  0  0
  196.5650  171.7190  141.8090 O   0  0  0  0  0  0  0  0  0  0  0  0
  196.8770  170.4500  141.5950 O   0  0  0  0  0  0  0  0  0  0  0  0
  195.8130  171.1930  139.7360 F   0  0  0  0  0  0  0  0  0  0  0  0
  195.0480  169.3490  140.7700 F   0  0  0  0  0  0  0  0  0  0  0  0
  196.1870  170.0610  140.4350 C   0  0  0  0  0  0  0  0  0  0  0  0
  196.9990  169.2860  139.6240 F   0  0  0  0  0  0  0  0  0  0  0  0
  191.7920  175.2460  142.1610 C   0  0  0  0  0  2  0  0  0  0  0  0
  192.3470  172.9020  141.8540 O   0  0  0  0  0  0  0  0  0  0  0  0
  191.3720  172.6140  140.9970 O   0  0  0  0  0  0  0  0  0  0  0  0
  191.9840  172.1800  139.7980 C   0  0  1  0  0  3  0  0  0  0  0  0
  193.0840  173.1500  139.3390 C   0  0  2  0  0  3  0  0  0  0  0  0
  192.9830  174.4790  140.0910 C   0  0  1  0  0  3  0  0  0  0  0  0
  192.7670  174.2280  141.5870 C   0  0  1  0  0  3  0  0  0  0  0  0
  194.1440  175.2290  139.9040 O   0  0  0  0  0  1  0  0  0  0  0  0
  193.4400  172.2910  137.0230 C   0  0  0  0  0  3  0  0  0  0  0  0
  193.0460  173.3430  137.8550 C   0  0  0  0  0  0  0  0  0  0  0  0
  193.4000  172.4430  135.6350 C   0  0  0  0  0  3  0  0  0  0  0  0
  192.5740  174.7110  135.8990 C   0  0  0  0  0  0  0  0  0  0  0  0
  192.6130  174.5500  137.2900 C   0  0  0  0  0  3  0  0  0  0  0  0
  192.9690  173.6480  135.0750 C   0  0  0  0  0  3  0  0  0  0  0  0
  192.8060  177.1640  135.6020 O   0  0  0  0  0  1  0  0  0  0  0  0
  192.1270  175.9850  135.3150 C   0  0  0  0  0  0  0  0  0  0  0  0
  191.1300  176.0210  134.5450 O   0  0  0  0  0  0  0  0  0  0  0  0
  192.5100  170.8950  139.9550 O   0  0  0  0  0  0  0  0  0  0  0  0
  191.4110  170.0400  139.8500 C   0  0  0  0  0  2  0  0  0  0  0  0
  190.8250  168.1680  141.3430 C   0  0  0  0  0  2  0  0  0  0  0  0
  191.9960  168.9030  141.9550 C   0  0  0  0  0  2  0  0  0  0  0  0
  190.9110  169.6760  141.2320 C   0  0  0  0  0  3  0  0  0  0  0  0
  191.6570  177.5490  142.4830 C   0  0  0  0  0  2  0  0  0  0  0  0
  190.3680  177.3880  143.2740 C   0  0  1  0  0  3  0  0  0  0  0  0
  190.5740  177.9950  144.9810 S   0  0  0  0  0  0  0  0  0  0  0  0
  188.8070  175.4100  144.8130 O   0  0  0  0  0  0  0  0  0  0  0  0
  189.4950  176.0870  147.4920 C   0  0  2  0  0  3  0  0  0  0  0  0
  188.9110  174.6790  147.6120 C   0  0  0  0  0  2  0  0  0  0  0  0
  189.7430  174.4330  145.1860 C   0  0  1  0  0  3  0  0  0  0  0  0
  189.0830  176.7420  145.8330 P   0  0  1  0  0  0  0  0  0  0  0  0
  187.7960  177.5220  145.9300 O   0  0  0  0  0  0  0  0  0  0  0  0
  189.3500  173.7180  146.4930 C   0  0  0  0  0  2  0  0  0  0  0  0
  190.9600  176.1010  147.8110 C   0  0  0  0  0  0  0  0  0  0  0  0
  191.7110  174.9550  147.5980 O   0  0  0  0  0  0  0  0  0  0  0  0
  191.5310  177.1470  148.2180 O   0  0  0  0  0  1  0  0  0  0  0  0
  189.9460  173.4480  144.0770 C   0  0  0  0  0  3  0  0  0  0  0  0
  190.2080  172.1640  144.3230 C   0  0  0  0  0  2  0  0  0  0  0  0
  189.3240  178.1580  142.6200 N   0  0  0  0  0  2  0  0  0  0  0  0
  188.5220  177.2370  141.8170 C   0  0  2  0  0  3  0  0  0  0  0  0
  184.9920  178.2000  142.9180 C   0  0  0  0  0  0  0  0  0  0  0  0
  186.3520  177.8650  142.9530 C   0  0  0  0  0  3  0  0  0  0  0  0
  185.0390  178.0400  140.4980 C   0  0  0  0  0  3  0  0  0  0  0  0
  187.0660  177.6320  141.7700 C   0  0  0  0  0  0  0  0  0  0  0  0
  184.3400  178.2850  141.6810 C   0  0  0  0  0  3  0  0  0  0  0  0
  186.3980  177.7150  140.5360 C   0  0  0  0  0  0  0  0  0  0  0  0
  187.0730  177.4670  139.3480 O   0  0  0  0  0  1  0  0  0  0  0  0
  183.3730  179.3660  144.2050 O   0  0  0  0  0  0  0  0  0  0  0  0
  184.2640  178.4760  144.1690 C   0  0  0  0  0  0  0  0  0  0  0  0
  184.5710  177.7510  145.3540 N   0  0  0  0  0  1  0  0  0  0  0  0
  188.6970  175.9050  142.2430 O   0  0  0  0  0  0  0  0  0  0  0  0
  188.5820  174.4700  140.6390 C   0  0  0  0  0  1  0  0  0  0  0  0
  187.8220  175.1680  141.5810 O   0  0  0  0  0  0  0  0  0  0  0  0
  1  2  1  0  0  0  0
  2  3  1  0  0  0  0
  4  5  1  0  0  0  0
  4  3  1  0  0  0  0
  6  5  1  0  0  0  0
  7  9  1  0  0  0  0
  9  8  2  6  0  0  0
 10 13  1  6  0  0  0
 10 11  1  0  0  0  0
 10 12  1  0  0  0  0
 11  6  1  1  0  0  0
 11  7  1  0  0  0  0
 12  9  1  0  0  0  0
 14 13  1  0  0  0  0
 15 17  1  0  0  0  0
 17 16  1  0  0  0  0
 17 14  1  0  0  0  0
 18 17  1  0  0  0  0
 19  1  1  0  0  0  0
 21 20  1  0  0  0  0
 22 36  1  1  0  0  0
 22 21  1  0  0  0  0
 23 28  1  6  0  0  0
 23 22  1  0  0  0  0
 23 24  1  0  0  0  0
 24 26  1  1  0  0  0
 24 25  1  0  0  0  0
 25 20  1  0  0  0  0
 25 19  1  6  0  0  0
 27 28  1  0  0  0  0
 29 27  2  0  0  0  0
 30 31  1  0  0  0  0
 31 28  2  0  0  0  0
 32 29  1  0  0  0  0
 32 30  2  0  0  0  0
 34 33  1  0  0  0  0
 34 30  1  0  0  0  0
 35 34  2  0  0  0  0
 37 36  1  0  0  0  0
 37 40  1  0  0  0  0
 38 39  1  0  0  0  0
 40 38  1  0  0  0  0
 40 39  1  0  0  0  0
 41  1  1  0  0  0  0
 42 41  1  6  0  0  0
 42 43  1  0  0  0  0
 43 48  1  0  0  0  0
 44 47  1  0  0  0  0
 44 48  1  0  0  0  0
 45 46  1  0  0  0  0
 45 51  1  6  0  0  0
 47 54  1  6  0  0  0
 47 50  1  0  0  0  0
 48 49  2  1  0  0  0
 48 45  1  0  0  0  0
 50 46  1  0  0  0  0
 51 53  1  0  0  0  0
 52 51  2  0  0  0  0
 54 55  2  0  0  0  0
 56 42  1  0  0  0  0
 57 68  1  1  0  0  0
 57 56  1  0  0  0  0
 58 59  1  0  0  0  0
 58 66  1  0  0  0  0
 60 63  2  0  0  0  0
 60 62  1  0  0  0  0
 61 57  1  0  0  0  0
 61 59  2  0  0  0  0
 62 58  2  0  0  0  0
 63 61  1  0  0  0  0
 64 63  1  0  0  0  0
 66 65  2  0  0  0  0
 66 67  1  0  0  0  0
 69 70  1  0  0  0  0
 70 68  1  0  0  0  0
M  END
>  <MODEL>
7

>  <REMARK>
 VINA RESULT:      -4.3      3.187      9.090
  Name = 
  28 active torsions:
  status: ('A' for Active; 'I' for Inactive)
    1  A    between atoms: C_1  and  N_17
    2  A    between atoms: C_1  and  N_64
    3  A    between atoms: C_3  and  C_53
    4  A    between atoms: N_5  and  C_42
    5  A    between atoms: N_5  and  C_47
    6  A    between atoms: C_11  and  C_15
    7  A    between atoms: C_14  and  C_45
    8  A    between atoms: N_17  and  C_22
    9  A    between atoms: N_17  and  C_41
   10  A    between atoms: C_21  and  C_54
   11  A    between atoms: C_22  and  C_47
   12  A    between atoms: C_23  and  C_42
   13  A    between atoms: O_26  and  C_37
   14  A    between atoms: O_26  and  C_51
   15  A    between atoms: C_27  and  C_37
   16  A    between atoms: C_27  and  N_64
   17  A    between atoms: O_31  and  C_33
   18  A    between atoms: O_31  and  O_50
   19  A    between atoms: O_32  and  O_59
   20  A    between atoms: C_34  and  O_68
   21  A    between atoms: C_36  and  O_50
   22  A    between atoms: C_41  and  C_66
   23  A    between atoms: C_42  and  O_59
   24  A    between atoms: S_43  and  P_46
   25  A    between atoms: S_43  and  C_47
   26  A    between atoms: C_48  and  C_60
   27  A    between atoms: C_52  and  C_67
   28  A    between atoms: C_67  and  O_68
                            x       y       z     vdW  Elec       q    Type
                         _______ _______ _______ _____ _____    ______ ____

>  <TORSDO>
F 28

$$$$
=
 OpenBabel11072409423D

 70 75  0  0  1  0  0  0  0  0999 V2000
  189.6540  173.7440  141.2280 N   0  0  0  0  0  0  0  0  0  0  0  0
  188.8070  172.9380  142.0910 C   0  0  0  0  0  2  0  0  0  0  0  0
  189.6360  172.1020  142.9420 N   0  0  0  0  0  2  0  0  0  0  0  0
  190.5280  171.3650  142.0690 C   0  0  0  0  0  2  0  0  0  0  0  0
  191.9590  171.5730  142.5160 C   0  0  0  0  0  2  0  0  0  0  0  0
  192.7780  170.5890  141.9370 O   0  0  0  0  0  0  0  0  0  0  0  0
  193.1940  169.9230  144.2650 C   0  0  0  0  0  2  0  0  0  0  0  0
  195.1020  168.7030  145.5550 O   0  0  0  0  0  0  0  0  0  0  0  0
  194.5650  170.1200  145.4080 S   0  0  1  0  0  0  0  0  0  0  0  0
  194.9450  171.1620  142.9790 C   0  0  1  0  0  3  0  0  0  0  0  0
  193.7580  170.1930  142.8750 C   0  0  2  0  0  3  0  0  0  0  0  0
  195.7220  170.8700  144.2560 C   0  0  0  0  0  2  0  0  0  0  0  0
  195.7680  171.1440  141.8360 O   0  0  0  0  0  0  0  0  0  0  0  0
  195.6760  172.3390  141.2700 O   0  0  0  0  0  0  0  0  0  0  0  0
  194.9440  172.1100  139.1370 F   0  0  0  0  0  0  0  0  0  0  0  0
  196.7920  171.0050  139.7840 F   0  0  0  0  0  0  0  0  0  0  0  0
  196.0710  172.1780  139.9330 C   0  0  0  0  0  0  0  0  0  0  0  0
  196.8420  173.2530  139.5210 F   0  0  0  0  0  0  0  0  0  0  0  0
  189.1320  173.5920  139.8810 C   0  0  0  0  0  2  0  0  0  0  0  0
  189.5000  172.2430  137.8960 O   0  0  0  0  0  0  0  0  0  0  0  0
  189.2930  173.2060  137.0030 O   0  0  0  0  0  0  0  0  0  0  0  0
  190.4860  173.3490  136.2580 C   0  0  1  0  0  3  0  0  0  0  0  0
  191.7160  173.4660  137.1720 C   0  0  2  0  0  3  0  0  0  0  0  0
  191.2920  173.7500  138.6150 C   0  0  1  0  0  3  0  0  0  0  0  0
  190.1310  172.8350  139.0180 C   0  0  1  0  0  3  0  0  0  0  0  0
  192.3670  173.5510  139.4810 O   0  0  0  0  0  1  0  0  0  0  0  0
  192.1680  175.6980  136.1500 C   0  0  0  0  0  3  0  0  0  0  0  0
  192.6720  174.4970  136.6570 C   0  0  0  0  0  0  0  0  0  0  0  0
  193.0410  176.6800  135.6760 C   0  0  0  0  0  3  0  0  0  0  0  0
  194.9390  175.2610  136.2100 C   0  0  0  0  0  0  0  0  0  0  0  0
  194.0570  174.2820  136.6870 C   0  0  0  0  0  3  0  0  0  0  0  0
  194.4210  176.4620  135.7050 C   0  0  0  0  0  3  0  0  0  0  0  0
  197.2740  176.0420  135.8980 O   0  0  0  0  0  0  0  0  0  0  0  0
  196.3900  175.0230  136.2350 C   0  0  0  0  0  0  0  0  0  0  0  0
  196.8470  173.8970  136.5680 O   0  0  0  0  0  1  0  0  0  0  0  0
  190.6440  172.2760  135.3750 O   0  0  0  0  0  0  0  0  0  0  0  0
  191.7100  171.5380  135.8940 C   0  0  0  0  0  2  0  0  0  0  0  0
  192.7000  169.2890  136.0950 C   0  0  0  0  0  2  0  0  0  0  0  0
  191.4950  169.3520  137.0060 C   0  0  0  0  0  2  0  0  0  0  0  0
  191.4690  170.0610  135.6680 C   0  0  0  0  0  3  0  0  0  0  0  0
  189.4540  175.1390  141.5930 C   0  0  0  0  0  2  0  0  0  0  0  0
  188.5730  175.2400  142.8270 C   0  0  1  0  0  3  0  0  0  0  0  0
  189.2410  176.4630  144.0040 S   0  0  0  0  0  0  0  0  0  0  0  0
  191.6340  174.5170  144.5680 O   0  0  0  0  0  0  0  0  0  0  0  0
  190.5790  175.6670  146.9510 C   0  0  2  0  0  3  0  0  0  0  0  0
  191.8830  175.0140  147.4100 C   0  0  0  0  0  2  0  0  0  0  0  0
  192.6180  175.4310  144.9760 C   0  0  1  0  0  3  0  0  0  0  0  0
  190.1800  175.0440  145.2770 P   0  0  1  0  0  0  0  0  0  0  0  0
  189.2740  173.8450  145.4130 O   0  0  0  0  0  0  0  0  0  0  0  0
  193.0580  175.2020  146.4340 C   0  0  0  0  0  2  0  0  0  0  0  0
  190.6520  177.1620  147.0480 C   0  0  0  0  0  0  0  0  0  0  0  0
  190.9470  177.9000  145.9110 O   0  0  0  0  0  0  0  0  0  0  0  0
  190.3990  177.7600  148.1260 O   0  0  0  0  0  1  0  0  0  0  0  0
  193.7930  175.3860  144.0500 C   0  0  0  0  0  3  0  0  0  0  0  0
  194.9460  174.8230  144.4110 C   0  0  0  0  0  2  0  0  0  0  0  0
  187.2440  175.6560  142.4150 N   0  0  0  0  0  2  0  0  0  0  0  0
  187.2160  177.1170  142.3880 C   0  0  2  0  0  3  0  0  0  0  0  0
  185.2570  178.1410  145.5050 C   0  0  0  0  0  0  0  0  0  0  0  0
  186.2680  177.6420  144.6730 C   0  0  0  0  0  3  0  0  0  0  0  0
  183.9550  178.7140  143.5400 C   0  0  0  0  0  3  0  0  0  0  0  0
  186.1390  177.6890  143.2770 C   0  0  0  0  0  0  0  0  0  0  0  0
  184.0980  178.6770  144.9280 C   0  0  0  0  0  3  0  0  0  0  0  0
  184.9700  178.2240  142.7120 C   0  0  0  0  0  0  0  0  0  0  0  0
  184.8030  178.2630  141.3340 O   0  0  0  0  0  1  0  0  0  0  0  0
  185.0020  179.0720  147.6740 O   0  0  0  0  0  0  0  0  0  0  0  0
  185.4220  178.1160  146.9690 C   0  0  0  0  0  0  0  0  0  0  0  0
  186.0730  177.0200  147.6000 N   0  0  0  0  0  1  0  0  0  0  0  0
  187.1280  177.6000  141.0680 O   0  0  0  0  0  0  0  0  0  0  0  0
  186.6910  177.0220  139.0380 C   0  0  0  0  0  1  0  0  0  0  0  0
  187.1560  176.5490  140.2670 O   0  0  0  0  0  0  0  0  0  0  0  0
  1 41  1  0  0  0  0
  1  2  1  0  0  0  0
  2  3  1  0  0  0  0
  4  5  1  0  0  0  0
  4  3  1  0  0  0  0
  6  5  1  0  0  0  0
  7  9  1  0  0  0  0
  9  8  2  6  0  0  0
 10 13  1  6  0  0  0
 10 12  1  0  0  0  0
 11  6  1  6  0  0  0
 11 10  1  0  0  0  0
 11  7  1  0  0  0  0
 12  9  1  0  0  0  0
 14 13  1  0  0  0  0
 15 17  1  0  0  0  0
 16 17  1  0  0  0  0
 17 14  1  0  0  0  0
 18 17  1  0  0  0  0
 19  1  1  0  0  0  0
 20 25  1  0  0  0  0
 21 20  1  0  0  0  0
 22 36  1  6  0  0  0
 22 21  1  0  0  0  0
 22 23  1  0  0  0  0
 23 28  1  6  0  0  0
 23 24  1  0  0  0  0
 24 25  1  0  0  0  0
 24 26  1  1  0  0  0
 25 19  1  6  0  0  0
 27 28  1  0  0  0  0
 28 31  2  0  0  0  0
 29 32  1  0  0  0  0
 29 27  2  0  0  0  0
 30 34  1  0  0  0  0
 30 31  1  0  0  0  0
 32 30  2  0  0  0  0
 33 34  2  0  0  0  0
 34 35  1  0  0  0  0
 36 37  1  0  0  0  0
 38 39  1  0  0  0  0
 40 37  1  0  0  0  0
 40 38  1  0  0  0  0
 40 39  1  0  0  0  0
 42 41  1  6  0  0  0
 42 43  1  0  0  0  0
 43 48  1  0  0  0  0
 44 47  1  0  0  0  0
 44 48  1  0  0  0  0
 45 51  1  6  0  0  0
 45 46  1  0  0  0  0
 47 54  1  6  0  0  0
 47 50  1  0  0  0  0
 48 49  2  1  0  0  0
 48 45  1  0  0  0  0
 50 46  1  0  0  0  0
 51 53  1  0  0  0  0
 52 51  2  0  0  0  0
 54 55  2  0  0  0  0
 56 42  1  0  0  0  0
 57 68  1  6  0  0  0
 57 56  1  0  0  0  0
 57 61  1  0  0  0  0
 58 66  1  0  0  0  0
 59 58  2  0  0  0  0
 60 62  2  0  0  0  0
 61 59  1  0  0  0  0
 62 58  1  0  0  0  0
 63 61  2  0  0  0  0
 63 60  1  0  0  0  0
 64 63  1  0  0  0  0
 66 67  1  0  0  0  0
 66 65  2  0  0  0  0
 69 70  1  0  0  0  0
 70 68  1  0  0  0  0
M  END
>  <MODEL>
8

>  <REMARK>
 VINA RESULT:      -4.1      3.042      9.279
  Name = 
  28 active torsions:
  status: ('A' for Active; 'I' for Inactive)
    1  A    between atoms: C_1  and  N_17
    2  A    between atoms: C_1  and  N_64
    3  A    between atoms: C_3  and  C_53
    4  A    between atoms: N_5  and  C_42
    5  A    between atoms: N_5  and  C_47
    6  A    between atoms: C_11  and  C_15
    7  A    between atoms: C_14  and  C_45
    8  A    between atoms: N_17  and  C_22
    9  A    between atoms: N_17  and  C_41
   10  A    between atoms: C_21  and  C_54
   11  A    between atoms: C_22  and  C_47
   12  A    between atoms: C_23  and  C_42
   13  A    between atoms: O_26  and  C_37
   14  A    between atoms: O_26  and  C_51
   15  A    between atoms: C_27  and  C_37
   16  A    between atoms: C_27  and  N_64
   17  A    between atoms: O_31  and  C_33
   18  A    between atoms: O_31  and  O_50
   19  A    between atoms: O_32  and  O_59
   20  A    between atoms: C_34  and  O_68
   21  A    between atoms: C_36  and  O_50
   22  A    between atoms: C_41  and  C_66
   23  A    between atoms: C_42  and  O_59
   24  A    between atoms: S_43  and  P_46
   25  A    between atoms: S_43  and  C_47
   26  A    between atoms: C_48  and  C_60
   27  A    between atoms: C_52  and  C_67
   28  A    between atoms: C_67  and  O_68
                            x       y       z     vdW  Elec       q    Type
                         _______ _______ _______ _____ _____    ______ ____

>  <TORSDO>
F 28

$$$$
=
 OpenBabel11072409423D

 70 75  0  0  1  0  0  0  0  0999 V2000
  190.8760  173.5630  141.7080 N   0  0  0  0  0  0  0  0  0  0  0  0
  190.0600  172.6470  142.4870 C   0  0  0  0  0  2  0  0  0  0  0  0
  190.9180  171.7220  143.2060 N   0  0  0  0  0  2  0  0  0  0  0  0
  191.1610  170.5990  142.3220 C   0  0  0  0  0  2  0  0  0  0  0  0
  192.5010  169.9770  142.6520 C   0  0  0  0  0  2  0  0  0  0  0  0
  193.3120  170.9250  143.2980 O   0  0  0  0  0  0  0  0  0  0  0  0
  194.7390  171.0800  141.3050 C   0  0  0  0  0  2  0  0  0  0  0  0
  197.2880  171.3640  140.8400 O   0  0  0  0  0  0  0  0  0  0  0  0
  196.2420  170.2610  140.7620 S   0  0  1  0  0  0  0  0  0  0  0  0
  195.3190  169.4910  143.1460 C   0  0  1  0  0  3  0  0  0  0  0  0
  194.6310  170.8200  142.8020 C   0  0  2  0  0  3  0  0  0  0  0  0
  196.5440  169.3140  142.2580 C   0  0  0  0  0  2  0  0  0  0  0  0
  195.6280  169.3720  144.5160 O   0  0  0  0  0  0  0  0  0  0  0  0
  196.5710  170.2630  144.7810 O   0  0  0  0  0  0  0  0  0  0  0  0
  197.1900  171.7760  146.3530 F   0  0  0  0  0  0  0  0  0  0  0  0
  196.4310  169.7640  147.0100 F   0  0  0  0  0  0  0  0  0  0  0  0
  196.2940  170.7640  146.0630 C   0  0  0  0  0  0  0  0  0  0  0  0
  195.0100  171.2810  146.1160 F   0  0  0  0  0  0  0  0  0  0  0  0
  190.4780  173.3930  140.3220 C   0  0  0  0  0  2  0  0  0  0  0  0
  191.1300  171.8150  138.5940 O   0  0  0  0  0  0  0  0  0  0  0  0
  190.6350  172.4890  137.5620 O   0  0  0  0  0  0  0  0  0  0  0  0
  191.7150  172.7860  136.6990 C   0  0  1  0  0  3  0  0  0  0  0  0
  192.8970  173.4040  137.4630 C   0  0  2  0  0  3  0  0  0  0  0  0
  192.4650  173.8520  138.8610 C   0  0  1  0  0  3  0  0  0  0  0  0
  191.6140  172.7650  139.5270 C   0  0  1  0  0  3  0  0  0  0  0  0
  193.5840  174.1210  139.6480 O   0  0  0  0  0  1  0  0  0  0  0  0
  192.7450  175.6530  136.3890 C   0  0  0  0  0  3  0  0  0  0  0  0
  193.5150  174.5240  136.6830 C   0  0  0  0  0  0  0  0  0  0  0  0
  193.3030  176.7150  135.6750 C   0  0  0  0  0  3  0  0  0  0  0  0
  195.4140  175.5230  135.5350 C   0  0  0  0  0  0  0  0  0  0  0  0
  194.8480  174.4620  136.2560 C   0  0  0  0  0  3  0  0  0  0  0  0
  194.6320  176.6500  135.2490 C   0  0  0  0  0  3  0  0  0  0  0  0
  197.5440  174.2790  135.2670 O   0  0  0  0  0  1  0  0  0  0  0  0
  196.8110  175.4450  135.0820 C   0  0  0  0  0  0  0  0  0  0  0  0
  197.3560  176.4320  134.5180 O   0  0  0  0  0  0  0  0  0  0  0  0
  192.1290  171.6380  136.0190 O   0  0  0  0  0  0  0  0  0  0  0  0
  193.3550  171.3000  136.5970 C   0  0  0  0  0  2  0  0  0  0  0  0
  194.9580  169.4730  137.0100 C   0  0  0  0  0  2  0  0  0  0  0  0
  193.7670  169.2620  137.9160 C   0  0  0  0  0  2  0  0  0  0  0  0
  193.5650  169.8030  136.5160 C   0  0  0  0  0  3  0  0  0  0  0  0
  190.4970  174.9180  142.0820 C   0  0  0  0  0  2  0  0  0  0  0  0
  190.6490  175.1130  143.5820 C   0  0  1  0  0  3  0  0  0  0  0  0
  192.0100  176.2700  143.9520 S   0  0  0  0  0  0  0  0  0  0  0  0
  194.3440  174.2260  143.5010 O   0  0  0  0  0  0  0  0  0  0  0  0
  194.4040  175.3920  146.0980 C   0  0  2  0  0  3  0  0  0  0  0  0
  195.7540  174.6830  145.9880 C   0  0  0  0  0  2  0  0  0  0  0  0
  195.4450  175.0960  143.4640 C   0  0  1  0  0  3  0  0  0  0  0  0
  193.3300  174.8020  144.7380 P   0  0  1  0  0  0  0  0  0  0  0  0
  192.5120  173.6380  145.2420 O   0  0  0  0  0  0  0  0  0  0  0  0
  196.4340  174.8350  144.6160 C   0  0  0  0  0  2  0  0  0  0  0  0
  194.5690  176.8820  146.1470 C   0  0  0  0  0  0  0  0  0  0  0  0
  195.0900  177.5410  145.0430 O   0  0  0  0  0  0  0  0  0  0  0  0
  194.1960  177.5490  147.1470 O   0  0  0  0  0  1  0  0  0  0  0  0
  196.1350  175.0150  142.1380 C   0  0  0  0  0  3  0  0  0  0  0  0
  196.6730  176.0900  141.5630 C   0  0  0  0  0  2  0  0  0  0  0  0
  189.4090  175.6570  144.1070 N   0  0  0  0  0  2  0  0  0  0  0  0
  188.9480  176.6960  143.1890 C   0  0  2  0  0  3  0  0  0  0  0  0
  186.3620  178.0840  145.6360 C   0  0  0  0  0  0  0  0  0  0  0  0
  187.4310  177.3520  145.1030 C   0  0  0  0  0  3  0  0  0  0  0  0
  186.0330  179.1330  143.4730 C   0  0  0  0  0  3  0  0  0  0  0  0
  187.8190  177.5140  143.7650 C   0  0  0  0  0  0  0  0  0  0  0  0
  185.6640  178.9750  144.8100 C   0  0  0  0  0  3  0  0  0  0  0  0
  187.1070  178.4070  142.9470 C   0  0  0  0  0  0  0  0  0  0  0  0
  187.4520  178.5730  141.6120 O   0  0  0  0  0  1  0  0  0  0  0  0
  186.0250  176.7940  147.6000 O   0  0  0  0  0  0  0  0  0  0  0  0
  185.9890  177.9280  147.0530 C   0  0  0  0  0  0  0  0  0  0  0  0
  185.5670  179.0540  147.8130 N   0  0  0  0  0  1  0  0  0  0  0  0
  188.6230  176.1550  141.9290 O   0  0  0  0  0  0  0  0  0  0  0  0
  187.0530  175.1860  140.8160 C   0  0  0  0  0  1  0  0  0  0  0  0
  187.5680  175.3800  142.1010 O   0  0  0  0  0  0  0  0  0  0  0  0
  1 41  1  0  0  0  0
  1  2  1  0  0  0  0
  2  3  1  0  0  0  0
  4  5  1  0  0  0  0
  4  3  1  0  0  0  0
  5  6  1  0  0  0  0
  7 11  1  0  0  0  0
  9  8  2  1  0  0  0
  9  7  1  0  0  0  0
  9 12  1  0  0  0  0
 10 13  1  1  0  0  0
 11 10  1  0  0  0  0
 11  6  1  6  0  0  0
 12 10  1  0  0  0  0
 13 14  1  0  0  0  0
 14 17  1  0  0  0  0
 17 18  1  0  0  0  0
 17 15  1  0  0  0  0
 17 16  1  0  0  0  0
 19  1  1  0  0  0  0
 20 25  1  0  0  0  0
 21 20  1  0  0  0  0
 22 36  1  1  0  0  0
 22 23  1  0  0  0  0
 22 21  1  0  0  0  0
 23 28  1  6  0  0  0
 23 24  1  0  0  0  0
 24 25  1  0  0  0  0
 24 26  1  1  0  0  0
 25 19  1  6  0  0  0
 27 28  1  0  0  0  0
 29 27  2  0  0  0  0
 30 31  1  0  0  0  0
 31 28  2  0  0  0  0
 32 30  2  0  0  0  0
 32 29  1  0  0  0  0
 34 33  1  0  0  0  0
 34 30  1  0  0  0  0
 35 34  2  0  0  0  0
 36 37  1  0  0  0  0
 38 39  1  0  0  0  0
 40 37  1  0  0  0  0
 40 38  1  0  0  0  0
 40 39  1  0  0  0  0
 42 41  1  6  0  0  0
 42 43  1  0  0  0  0
 42 56  1  0  0  0  0
 43 48  1  0  0  0  0
 44 48  1  0  0  0  0
 45 51  1  6  0  0  0
 46 45  1  0  0  0  0
 47 54  1  6  0  0  0
 47 44  1  0  0  0  0
 47 50  1  0  0  0  0
 48 49  2  1  0  0  0
 48 45  1  0  0  0  0
 50 46  1  0  0  0  0
 51 53  1  0  0  0  0
 52 51  2  0  0  0  0
 55 54  2  0  0  0  0
 57 68  1  6  0  0  0
 57 61  1  0  0  0  0
 57 56  1  0  0  0  0
 58 66  1  0  0  0  0
 59 58  1  0  0  0  0
 60 62  1  0  0  0  0
 61 59  2  0  0  0  0
 62 58  2  0  0  0  0
 63 60  2  0  0  0  0
 63 61  1  0  0  0  0
 64 63  1  0  0  0  0
 66 65  2  0  0  0  0
 66 67  1  0  0  0  0
 68 70  1  0  0  0  0
 69 70  1  0  0  0  0
M  END
>  <MODEL>
9

>  <REMARK>
 VINA RESULT:      -4.1      3.011      8.631
  Name = 
  28 active torsions:
  status: ('A' for Active; 'I' for Inactive)
    1  A    between atoms: C_1  and  N_17
    2  A    between atoms: C_1  and  N_64
    3  A    between atoms: C_3  and  C_53
    4  A    between atoms: N_5  and  C_42
    5  A    between atoms: N_5  and  C_47
    6  A    between atoms: C_11  and  C_15
    7  A    between atoms: C_14  and  C_45
    8  A    between atoms: N_17  and  C_22
    9  A    between atoms: N_17  and  C_41
   10  A    between atoms: C_21  and  C_54
   11  A    between atoms: C_22  and  C_47
   12  A    between atoms: C_23  and  C_42
   13  A    between atoms: O_26  and  C_37
   14  A    between atoms: O_26  and  C_51
   15  A    between atoms: C_27  and  C_37
   16  A    between atoms: C_27  and  N_64
   17  A    between atoms: O_31  and  C_33
   18  A    between atoms: O_31  and  O_50
   19  A    between atoms: O_32  and  O_59
   20  A    between atoms: C_34  and  O_68
   21  A    between atoms: C_36  and  O_50
   22  A    between atoms: C_41  and  C_66
   23  A    between atoms: C_42  and  O_59
   24  A    between atoms: S_43  and  P_46
   25  A    between atoms: S_43  and  C_47
   26  A    between atoms: C_48  and  C_60
   27  A    between atoms: C_52  and  C_67
   28  A    between atoms: C_67  and  O_68
                            x       y       z     vdW  Elec       q    Type
                         _______ _______ _______ _____ _____    ______ ____

>  <TORSDO>
F 28

$$$$
