=
 OpenBabel11062419063D

 32 34  0  0  1  0  0  0  0  0999 V2000
  190.8410  176.6900  145.7390 C   0  0  0  0  0  0  0  0  0  0  0  0
  190.9490  176.1440  144.4470 C   0  0  0  0  0  0  0  0  0  0  0  0
  194.5480  175.2360  144.4220 O   0  0  0  0  0  1  0  0  0  0  0  0
  192.2020  175.6560  143.9980 C   0  0  0  0  0  0  0  0  0  0  0  0
  191.9540  176.6740  146.6010 C   0  0  0  0  0  0  0  0  0  0  0  0
  192.4480  175.0760  142.3540 Cl  0  0  0  0  0  0  0  0  0  0  0  0
  193.1820  176.1760  146.1560 C   0  0  0  0  0  0  0  0  0  0  0  0
  194.2790  176.1640  147.0160 O   0  0  0  0  0  1  0  0  0  0  0  0
  193.3100  175.6820  144.8590 C   0  0  0  0  0  0  0  0  0  0  0  0
  191.8410  177.1210  147.9100 O   0  0  0  0  0  1  0  0  0  0  0  0
  188.6310  175.2780  147.0350 O   0  0  0  0  0  0  0  0  0  0  0  0
  188.4720  176.4780  146.6820 C   0  0  0  0  0  0  0  0  0  0  0  0
  189.5770  177.2320  146.1660 N   0  0  0  0  0  2  0  0  0  0  0  0
  187.0030  178.2650  147.6140 C   0  0  0  0  0  3  0  0  0  0  0  0
  184.6390  178.3520  147.0740 C   0  0  0  0  0  3  0  0  0  0  0  0
  187.1490  177.1160  146.8280 C   0  0  0  0  0  0  0  0  0  0  0  0
  185.7510  178.8800  147.7380 C   0  0  0  0  0  3  0  0  0  0  0  0
  186.0270  176.5890  146.1700 C   0  0  0  0  0  3  0  0  0  0  0  0
  184.7750  177.2050  146.2900 C   0  0  0  0  0  3  0  0  0  0  0  0
  189.7030  176.1340  143.5900 C   0  0  2  0  0  3  0  0  0  0  0  0
  189.5160  172.0350  142.2780 O   0  0  0  0  0  0  0  0  0  0  0  0
  187.3300  172.9200  141.6710 C   0  0  0  0  0  1  0  0  0  0  0  0
  189.1790  174.7290  143.2780 C   0  0  1  0  0  3  0  0  0  0  0  0
  188.8440  173.0170  141.4770 C   0  0  1  0  0  3  0  0  0  0  0  0
  189.3650  174.4240  141.7890 C   0  0  0  0  0  2  0  0  0  0  0  0
  189.7760  173.6650  144.2070 C   0  0  0  0  0  2  0  0  0  0  0  0
  190.4710  171.3690  144.2550 O   0  0  0  0  0  0  0  0  0  0  0  0
  189.9190  172.2900  143.5930 C   0  0  0  0  0  0  0  0  0  0  0  0
  189.7070  177.1050  142.4110 C   0  0  0  0  0  2  0  0  0  0  0  0
  187.6650  178.1460  143.3930 O   0  0  0  0  0  1  0  0  0  0  0  0
  188.3770  177.7590  142.2650 C   0  0  0  0  0  0  0  0  0  0  0  0
  187.8890  177.9340  141.1160 O   0  0  0  0  0  0  0  0  0  0  0  0
  1 13  1  0  0  0  0
  1  5  1  0  0  0  0
  2  1  2  0  0  0  0
  3  9  1  0  0  0  0
  4  2  1  0  0  0  0
  4  9  2  0  0  0  0
  5 10  1  0  0  0  0
  6  4  1  0  0  0  0
  7  5  2  0  0  0  0
  7  8  1  0  0  0  0
  9  7  1  0  0  0  0
 12 16  1  0  0  0  0
 12 11  2  0  0  0  0
 13 12  1  0  0  0  0
 14 17  1  0  0  0  0
 15 17  2  0  0  0  0
 16 14  2  0  0  0  0
 18 19  2  0  0  0  0
 18 16  1  0  0  0  0
 19 15  1  0  0  0  0
 20 29  1  6  0  0  0
 20  2  1  0  0  0  0
 21 28  1  0  0  0  0
 23 20  1  1  0  0  0
 23 26  1  0  0  0  0
 24 22  1  1  0  0  0
 24 25  1  0  0  0  0
 24 21  1  0  0  0  0
 25 23  1  0  0  0  0
 28 26  1  0  0  0  0
 28 27  2  0  0  0  0
 31 29  1  0  0  0  0
 31 30  1  0  0  0  0
 32 31  2  0  0  0  0
M  END
>  <MODEL>
1

>  <REMARK>
 VINA RESULT:      -7.3      0.000      0.000
  Name = 
  6 active torsions:
  status: ('A' for Active; 'I' for Inactive)
    1  A    between atoms: C_2  and  C_20
    2  A    between atoms: C_3  and  C_7
    3  A    between atoms: C_3  and  C_11
    4  A    between atoms: C_3  and  C_30
    5  A    between atoms: C_5  and  N_22
    6  A    between atoms: C_18  and  C_30
                            x       y       z     vdW  Elec       q    Type
                         _______ _______ _______ _____ _____    ______ ____

>  <TORSDO>
F 6

$$$$
=
 OpenBabel11062419063D

 32 34  0  0  1  0  0  0  0  0999 V2000
  189.6840  174.7840  143.9650 C   0  0  0  0  0  0  0  0  0  0  0  0
  190.8640  174.6380  144.7160 C   0  0  0  0  0  0  0  0  0  0  0  0
  191.7620  171.1420  143.8510 O   0  0  0  0  0  1  0  0  0  0  0  0
  191.5660  173.4070  144.6830 C   0  0  0  0  0  0  0  0  0  0  0  0
  189.2550  173.7370  143.1270 C   0  0  0  0  0  0  0  0  0  0  0  0
  192.9770  173.1050  145.6920 Cl  0  0  0  0  0  0  0  0  0  0  0  0
  189.9620  172.5320  143.0880 C   0  0  0  0  0  0  0  0  0  0  0  0
  189.5290  171.5010  142.2550 O   0  0  0  0  0  1  0  0  0  0  0  0
  191.1030  172.3610  143.8700 C   0  0  0  0  0  0  0  0  0  0  0  0
  188.1460  173.8970  142.3070 O   0  0  0  0  0  1  0  0  0  0  0  0
  187.7750  175.6010  146.0260 O   0  0  0  0  0  0  0  0  0  0  0  0
  187.9290  176.3270  145.0060 C   0  0  0  0  0  0  0  0  0  0  0  0
  188.9490  176.0190  144.0470 N   0  0  0  0  0  2  0  0  0  0  0  0
  186.4270  178.1020  145.9090 C   0  0  0  0  0  3  0  0  0  0  0  0
  185.4720  179.7940  144.4560 C   0  0  0  0  0  3  0  0  0  0  0  0
  187.0720  177.5130  144.8150 C   0  0  0  0  0  0  0  0  0  0  0  0
  185.6290  179.2380  145.7300 C   0  0  0  0  0  3  0  0  0  0  0  0
  186.9040  178.0730  143.5390 C   0  0  0  0  0  3  0  0  0  0  0  0
  186.1090  179.2120  143.3580 C   0  0  0  0  0  3  0  0  0  0  0  0
  191.3080  175.8200  145.5500 C   0  0  2  0  0  3  0  0  0  0  0  0
  195.3300  176.3150  144.0900 O   0  0  0  0  0  0  0  0  0  0  0  0
  195.0680  178.1640  145.6530 C   0  0  0  0  0  1  0  0  0  0  0  0
  192.6110  176.4630  145.0660 C   0  0  1  0  0  3  0  0  0  0  0  0
  195.0800  176.6460  145.4630 C   0  0  1  0  0  3  0  0  0  0  0  0
  193.7750  176.0050  145.9490 C   0  0  0  0  0  2  0  0  0  0  0  0
  192.8470  176.2440  143.5670 C   0  0  0  0  0  2  0  0  0  0  0  0
  194.5930  175.9200  141.9540 O   0  0  0  0  0  0  0  0  0  0  0  0
  194.3010  176.1740  143.1540 C   0  0  0  0  0  0  0  0  0  0  0  0
  191.1920  175.6390  147.0630 C   0  0  0  0  0  2  0  0  0  0  0  0
  191.6610  177.3610  148.8050 O   0  0  0  0  0  1  0  0  0  0  0  0
  190.8940  176.9380  147.7260 C   0  0  0  0  0  0  0  0  0  0  0  0
  189.9260  177.6390  147.3230 O   0  0  0  0  0  0  0  0  0  0  0  0
  1 13  1  0  0  0  0
  1  2  1  0  0  0  0
  2 20  1  0  0  0  0
  3  9  1  0  0  0  0
  4  2  2  0  0  0  0
  4  6  1  0  0  0  0
  5  1  2  0  0  0  0
  7  5  1  0  0  0  0
  7  9  2  0  0  0  0
  8  7  1  0  0  0  0
  9  4  1  0  0  0  0
 10  5  1  0  0  0  0
 12 11  2  0  0  0  0
 13 12  1  0  0  0  0
 15 17  2  0  0  0  0
 16 12  1  0  0  0  0
 16 14  2  0  0  0  0
 17 14  1  0  0  0  0
 18 16  1  0  0  0  0
 19 18  2  0  0  0  0
 19 15  1  0  0  0  0
 20 29  1  1  0  0  0
 21 24  1  0  0  0  0
 23 20  1  1  0  0  0
 23 25  1  0  0  0  0
 24 22  1  6  0  0  0
 24 25  1  0  0  0  0
 26 23  1  0  0  0  0
 27 28  2  0  0  0  0
 28 26  1  0  0  0  0
 28 21  1  0  0  0  0
 29 31  1  0  0  0  0
 31 30  1  0  0  0  0
 32 31  2  0  0  0  0
M  END
>  <MODEL>
2

>  <REMARK>
 VINA RESULT:      -7.0      1.993      5.153
  Name = 
  6 active torsions:
  status: ('A' for Active; 'I' for Inactive)
    1  A    between atoms: C_2  and  C_20
    2  A    between atoms: C_3  and  C_7
    3  A    between atoms: C_3  and  C_11
    4  A    between atoms: C_3  and  C_30
    5  A    between atoms: C_5  and  N_22
    6  A    between atoms: C_18  and  C_30
                            x       y       z     vdW  Elec       q    Type
                         _______ _______ _______ _____ _____    ______ ____

>  <TORSDO>
F 6

$$$$
=
 OpenBabel11062419063D

 32 34  0  0  1  0  0  0  0  0999 V2000
  192.0020  175.3660  143.1260 C   0  0  0  0  0  0  0  0  0  0  0  0
  191.4410  175.2460  144.4100 C   0  0  0  0  0  0  0  0  0  0  0  0
  194.3500  176.2420  146.4900 O   0  0  0  0  0  1  0  0  0  0  0  0
  192.2330  175.5380  145.5500 C   0  0  0  0  0  0  0  0  0  0  0  0
  193.3170  175.8490  142.9810 C   0  0  0  0  0  0  0  0  0  0  0  0
  191.6440  175.2910  147.1900 Cl  0  0  0  0  0  0  0  0  0  0  0  0
  194.0860  176.1490  144.1080 C   0  0  0  0  0  0  0  0  0  0  0  0
  195.3870  176.6260  143.9530 O   0  0  0  0  0  1  0  0  0  0  0  0
  193.5540  175.9830  145.3850 C   0  0  0  0  0  0  0  0  0  0  0  0
  193.8540  176.0640  141.7180 O   0  0  0  0  0  1  0  0  0  0  0  0
  191.9770  172.8310  141.6680 O   0  0  0  0  0  0  0  0  0  0  0  0
  191.3170  173.8070  141.2170 C   0  0  0  0  0  0  0  0  0  0  0  0
  191.2060  175.0160  141.9790 N   0  0  0  0  0  2  0  0  0  0  0  0
  189.2420  173.8050  139.8340 C   0  0  0  0  0  3  0  0  0  0  0  0
  189.3400  173.5100  137.4280 C   0  0  0  0  0  3  0  0  0  0  0  0
  190.6350  173.6910  139.9140 C   0  0  0  0  0  0  0  0  0  0  0  0
  188.5960  173.7140  138.5950 C   0  0  0  0  0  3  0  0  0  0  0  0
  191.3730  173.4810  138.7390 C   0  0  0  0  0  3  0  0  0  0  0  0
  190.7290  173.3920  137.4980 C   0  0  0  0  0  3  0  0  0  0  0  0
  190.0040  174.7810  144.5010 C   0  0  2  0  0  3  0  0  0  0  0  0
  186.3350  176.9080  145.2540 O   0  0  0  0  0  0  0  0  0  0  0  0
  187.4850  178.3240  143.6410 C   0  0  0  0  0  1  0  0  0  0  0  0
  189.0000  175.9160  144.7250 C   0  0  1  0  0  3  0  0  0  0  0  0
  186.8640  176.9550  143.9220 C   0  0  1  0  0  3  0  0  0  0  0  0
  187.8710  175.8210  143.6960 C   0  0  0  0  0  2  0  0  0  0  0  0
  188.5110  175.9830  146.1770 C   0  0  0  0  0  2  0  0  0  0  0  0
  186.5870  176.5280  147.5030 O   0  0  0  0  0  0  0  0  0  0  0  0
  187.1040  176.5090  146.3520 C   0  0  0  0  0  0  0  0  0  0  0  0
  189.7700  173.5270  145.3410 C   0  0  0  0  0  2  0  0  0  0  0  0
  191.2200  171.6560  144.5570 O   0  0  0  0  0  1  0  0  0  0  0  0
  189.9900  172.3000  144.5260 C   0  0  0  0  0  0  0  0  0  0  0  0
  189.0650  171.8660  143.7880 O   0  0  0  0  0  0  0  0  0  0  0  0
  1  2  1  0  0  0  0
  2 20  1  0  0  0  0
  2  4  2  0  0  0  0
  4  6  1  0  0  0  0
  5  1  2  0  0  0  0
  5  7  1  0  0  0  0
  7  9  2  0  0  0  0
  8  7  1  0  0  0  0
  9  4  1  0  0  0  0
  9  3  1  0  0  0  0
 10  5  1  0  0  0  0
 12 11  2  0  0  0  0
 12 13  1  0  0  0  0
 13  1  1  0  0  0  0
 14 16  1  0  0  0  0
 15 19  2  0  0  0  0
 15 17  1  0  0  0  0
 16 12  1  0  0  0  0
 17 14  2  0  0  0  0
 18 16  2  0  0  0  0
 19 18  1  0  0  0  0
 20 29  1  1  0  0  0
 21 28  1  0  0  0  0
 23 20  1  1  0  0  0
 23 26  1  0  0  0  0
 24 22  1  1  0  0  0
 24 21  1  0  0  0  0
 25 24  1  0  0  0  0
 25 23  1  0  0  0  0
 26 28  1  0  0  0  0
 28 27  2  0  0  0  0
 31 30  1  0  0  0  0
 31 29  1  0  0  0  0
 32 31  2  0  0  0  0
M  END
>  <MODEL>
3

>  <REMARK>
 VINA RESULT:      -6.8      2.389      6.228
  Name = 
  6 active torsions:
  status: ('A' for Active; 'I' for Inactive)
    1  A    between atoms: C_2  and  C_20
    2  A    between atoms: C_3  and  C_7
    3  A    between atoms: C_3  and  C_11
    4  A    between atoms: C_3  and  C_30
    5  A    between atoms: C_5  and  N_22
    6  A    between atoms: C_18  and  C_30
                            x       y       z     vdW  Elec       q    Type
                         _______ _______ _______ _____ _____    ______ ____

>  <TORSDO>
F 6

$$$$
=
 OpenBabel11062419063D

 32 34  0  0  1  0  0  0  0  0999 V2000
  191.2560  175.7780  145.1080 C   0  0  0  0  0  0  0  0  0  0  0  0
  191.7500  175.1890  143.9300 C   0  0  0  0  0  0  0  0  0  0  0  0
  195.3950  175.6770  144.4370 O   0  0  0  0  0  1  0  0  0  0  0  0
  193.1490  175.1570  143.6990 C   0  0  0  0  0  0  0  0  0  0  0  0
  192.1540  176.2580  146.0800 C   0  0  0  0  0  0  0  0  0  0  0  0
  193.8370  174.5530  142.1950 Cl  0  0  0  0  0  0  0  0  0  0  0  0
  193.5320  176.2080  145.8520 C   0  0  0  0  0  0  0  0  0  0  0  0
  194.4130  176.6860  146.8200 O   0  0  0  0  0  1  0  0  0  0  0  0
  194.0280  175.6730  144.6640 C   0  0  0  0  0  0  0  0  0  0  0  0
  191.6870  176.7550  147.2890 O   0  0  0  0  0  1  0  0  0  0  0  0
  189.4760  178.0170  144.4970 O   0  0  0  0  0  0  0  0  0  0  0  0
  189.0170  177.0170  145.1130 C   0  0  0  0  0  0  0  0  0  0  0  0
  189.8320  175.8540  145.3080 N   0  0  0  0  0  2  0  0  0  0  0  0
  187.3620  176.8420  146.9700 C   0  0  0  0  0  3  0  0  0  0  0  0
  184.9850  177.1080  146.5600 C   0  0  0  0  0  3  0  0  0  0  0  0
  187.6280  177.0350  145.6100 C   0  0  0  0  0  0  0  0  0  0  0  0
  186.0440  176.8770  147.4440 C   0  0  0  0  0  3  0  0  0  0  0  0
  186.5590  177.2600  144.7280 C   0  0  0  0  0  3  0  0  0  0  0  0
  185.2410  177.2990  145.2000 C   0  0  0  0  0  3  0  0  0  0  0  0
  190.7380  174.6360  142.9510 C   0  0  2  0  0  3  0  0  0  0  0  0
  190.3530  170.6530  141.3580 O   0  0  0  0  0  0  0  0  0  0  0  0
  192.1880  170.4480  142.9450 C   0  0  0  0  0  1  0  0  0  0  0  0
  191.0840  173.2390  142.4280 C   0  0  1  0  0  3  0  0  0  0  0  0
  190.7090  170.7800  142.7410 C   0  0  1  0  0  3  0  0  0  0  0  0
  190.3650  172.1780  143.2660 C   0  0  0  0  0  2  0  0  0  0  0  0
  190.8430  173.1050  140.9190 C   0  0  0  0  0  2  0  0  0  0  0  0
  190.1660  171.5260  139.2440 O   0  0  0  0  0  0  0  0  0  0  0  0
  190.4590  171.7170  140.4560 C   0  0  0  0  0  0  0  0  0  0  0  0
  190.2370  175.6210  141.8970 C   0  0  0  0  0  2  0  0  0  0  0  0
  188.1230  176.8700  141.4590 O   0  0  0  0  0  0  0  0  0  0  0  0
  188.7520  175.7310  141.9460 C   0  0  0  0  0  0  0  0  0  0  0  0
  188.0730  174.8010  142.4580 O   0  0  0  0  0  1  0  0  0  0  0  0
  1 13  1  0  0  0  0
  1  5  1  0  0  0  0
  2  1  2  0  0  0  0
  3  9  1  0  0  0  0
  4  2  1  0  0  0  0
  4  9  2  0  0  0  0
  5 10  1  0  0  0  0
  6  4  1  0  0  0  0
  7  5  2  0  0  0  0
  7  8  1  0  0  0  0
  9  7  1  0  0  0  0
 11 12  2  0  0  0  0
 12 13  1  0  0  0  0
 12 16  1  0  0  0  0
 14 17  1  0  0  0  0
 15 17  2  0  0  0  0
 16 14  2  0  0  0  0
 18 19  2  0  0  0  0
 18 16  1  0  0  0  0
 19 15  1  0  0  0  0
 20 29  1  6  0  0  0
 20  2  1  0  0  0  0
 21 24  1  0  0  0  0
 23 20  1  1  0  0  0
 23 25  1  0  0  0  0
 24 22  1  6  0  0  0
 24 25  1  0  0  0  0
 26 23  1  0  0  0  0
 27 28  2  0  0  0  0
 28 26  1  0  0  0  0
 28 21  1  0  0  0  0
 29 31  1  0  0  0  0
 30 31  2  0  0  0  0
 31 32  1  0  0  0  0
M  END
>  <MODEL>
4

>  <REMARK>
 VINA RESULT:      -6.7      1.634      2.375
  Name = 
  6 active torsions:
  status: ('A' for Active; 'I' for Inactive)
    1  A    between atoms: C_2  and  C_20
    2  A    between atoms: C_3  and  C_7
    3  A    between atoms: C_3  and  C_11
    4  A    between atoms: C_3  and  C_30
    5  A    between atoms: C_5  and  N_22
    6  A    between atoms: C_18  and  C_30
                            x       y       z     vdW  Elec       q    Type
                         _______ _______ _______ _____ _____    ______ ____

>  <TORSDO>
F 6

$$$$
=
 OpenBabel11062419063D

 32 34  0  0  1  0  0  0  0  0999 V2000
  189.2120  174.5650  142.3670 C   0  0  0  0  0  0  0  0  0  0  0  0
  190.2510  174.1660  143.2270 C   0  0  0  0  0  0  0  0  0  0  0  0
  191.9670  171.6810  141.0680 O   0  0  0  0  0  1  0  0  0  0  0  0
  191.1820  173.1880  142.7920 C   0  0  0  0  0  0  0  0  0  0  0  0
  189.1520  174.0510  141.0570 C   0  0  0  0  0  0  0  0  0  0  0  0
  192.4310  172.5450  143.8530 Cl  0  0  0  0  0  0  0  0  0  0  0  0
  190.0820  173.0990  140.6310 C   0  0  0  0  0  0  0  0  0  0  0  0
  190.0140  172.5950  139.3330 O   0  0  0  0  0  1  0  0  0  0  0  0
  191.0840  172.6590  141.4960 C   0  0  0  0  0  0  0  0  0  0  0  0
  188.1910  174.5040  140.1640 O   0  0  0  0  0  1  0  0  0  0  0  0
  189.2360  177.4680  142.0130 O   0  0  0  0  0  0  0  0  0  0  0  0
  188.3580  176.9450  142.7510 C   0  0  0  0  0  0  0  0  0  0  0  0
  188.2420  175.5190  142.8370 N   0  0  0  0  0  2  0  0  0  0  0  0
  186.5130  178.6220  142.8310 C   0  0  0  0  0  3  0  0  0  0  0  0
  185.6320  179.4160  144.9470 C   0  0  0  0  0  3  0  0  0  0  0  0
  187.4280  177.8060  143.5070 C   0  0  0  0  0  0  0  0  0  0  0  0
  185.6190  179.4260  143.5490 C   0  0  0  0  0  3  0  0  0  0  0  0
  187.4390  177.8070  144.9110 C   0  0  0  0  0  3  0  0  0  0  0  0
  186.5420  178.6080  145.6310 C   0  0  0  0  0  3  0  0  0  0  0  0
  190.2990  174.7990  144.6000 C   0  0  2  0  0  3  0  0  0  0  0  0
  194.4770  175.8150  144.8670 O   0  0  0  0  0  0  0  0  0  0  0  0
  193.5310  176.7900  146.8880 C   0  0  0  0  0  1  0  0  0  0  0  0
  191.5950  175.5660  144.8810 C   0  0  1  0  0  3  0  0  0  0  0  0
  193.7910  175.5120  146.0900 C   0  0  1  0  0  3  0  0  0  0  0  0
  192.4930  174.7460  145.8110 C   0  0  0  0  0  2  0  0  0  0  0  0
  192.2910  176.0270  143.5940 C   0  0  0  0  0  2  0  0  0  0  0  0
  194.4630  176.4160  142.6520 O   0  0  0  0  0  0  0  0  0  0  0  0
  193.7980  176.1200  143.6830 C   0  0  0  0  0  0  0  0  0  0  0  0
  189.7980  173.9230  145.7460 C   0  0  0  0  0  2  0  0  0  0  0  0
  190.1150  174.9160  148.0120 O   0  0  0  0  0  1  0  0  0  0  0  0
  189.3240  174.7640  146.8800 C   0  0  0  0  0  0  0  0  0  0  0  0
  188.1910  175.3140  146.8200 O   0  0  0  0  0  0  0  0  0  0  0  0
  1 13  1  0  0  0  0
  1  2  1  0  0  0  0
  2 20  1  0  0  0  0
  3  9  1  0  0  0  0
  4  2  2  0  0  0  0
  4  6  1  0  0  0  0
  5  1  2  0  0  0  0
  7  5  1  0  0  0  0
  7  9  2  0  0  0  0
  8  7  1  0  0  0  0
  9  4  1  0  0  0  0
 10  5  1  0  0  0  0
 11 12  2  0  0  0  0
 12 13  1  0  0  0  0
 12 16  1  0  0  0  0
 14 16  2  0  0  0  0
 14 17  1  0  0  0  0
 15 19  1  0  0  0  0
 16 18  1  0  0  0  0
 17 15  2  0  0  0  0
 18 19  2  0  0  0  0
 20 29  1  1  0  0  0
 21 24  1  0  0  0  0
 23 20  1  6  0  0  0
 23 25  1  0  0  0  0
 24 22  1  6  0  0  0
 25 24  1  0  0  0  0
 26 28  1  0  0  0  0
 26 23  1  0  0  0  0
 27 28  2  0  0  0  0
 28 21  1  0  0  0  0
 29 31  1  0  0  0  0
 31 30  1  0  0  0  0
 32 31  2  0  0  0  0
M  END
>  <MODEL>
5

>  <REMARK>
 VINA RESULT:      -6.6      2.001      5.382
  Name = 
  6 active torsions:
  status: ('A' for Active; 'I' for Inactive)
    1  A    between atoms: C_2  and  C_20
    2  A    between atoms: C_3  and  C_7
    3  A    between atoms: C_3  and  C_11
    4  A    between atoms: C_3  and  C_30
    5  A    between atoms: C_5  and  N_22
    6  A    between atoms: C_18  and  C_30
                            x       y       z     vdW  Elec       q    Type
                         _______ _______ _______ _____ _____    ______ ____

>  <TORSDO>
F 6

$$$$
=
 OpenBabel11062419063D

 32 34  0  0  1  0  0  0  0  0999 V2000
  190.8520  173.6660  142.1750 C   0  0  0  0  0  0  0  0  0  0  0  0
  190.5190  174.9610  142.6110 C   0  0  0  0  0  0  0  0  0  0  0  0
  187.5740  175.6370  140.4530 O   0  0  0  0  0  1  0  0  0  0  0  0
  189.4130  175.6310  142.0270 C   0  0  0  0  0  0  0  0  0  0  0  0
  190.0400  173.0170  141.2250 C   0  0  0  0  0  0  0  0  0  0  0  0
  189.0110  177.2980  142.4260 Cl  0  0  0  0  0  0  0  0  0  0  0  0
  188.9440  173.6780  140.6670 C   0  0  0  0  0  0  0  0  0  0  0  0
  188.1470  173.0280  139.7260 O   0  0  0  0  0  1  0  0  0  0  0  0
  188.6380  174.9820  141.0540 C   0  0  0  0  0  0  0  0  0  0  0  0
  190.2990  171.7040  140.8540 O   0  0  0  0  0  1  0  0  0  0  0  0
  190.9200  171.6250  144.2700 O   0  0  0  0  0  0  0  0  0  0  0  0
  192.0040  172.1130  143.8500 C   0  0  0  0  0  0  0  0  0  0  0  0
  192.0070  173.0150  142.7360 N   0  0  0  0  0  2  0  0  0  0  0  0
  194.1450  172.7120  144.9810 C   0  0  0  0  0  3  0  0  0  0  0  0
  195.6820  170.9970  145.7450 C   0  0  0  0  0  3  0  0  0  0  0  0
  193.2770  171.7290  144.4910 C   0  0  0  0  0  0  0  0  0  0  0  0
  195.3440  172.3470  145.6050 C   0  0  0  0  0  3  0  0  0  0  0  0
  193.6270  170.3770  144.6290 C   0  0  0  0  0  3  0  0  0  0  0  0
  194.8240  170.0100  145.2560 C   0  0  0  0  0  3  0  0  0  0  0  0
  191.3920  175.5820  143.6780 C   0  0  2  0  0  3  0  0  0  0  0  0
  190.1340  175.5800  147.7980 O   0  0  0  0  0  0  0  0  0  0  0  0
  188.0540  175.9090  146.5750 C   0  0  0  0  0  1  0  0  0  0  0  0
  190.6420  175.9190  144.9710 C   0  0  1  0  0  3  0  0  0  0  0  0
  189.2480  174.9900  146.8360 C   0  0  1  0  0  3  0  0  0  0  0  0
  189.9960  174.6540  145.5420 C   0  0  0  0  0  2  0  0  0  0  0  0
  191.5210  176.6740  145.9750 C   0  0  0  0  0  2  0  0  0  0  0  0
  191.9010  176.9440  148.3290 O   0  0  0  0  0  0  0  0  0  0  0  0
  191.1830  176.4270  147.4290 C   0  0  0  0  0  0  0  0  0  0  0  0
  192.3650  176.6540  143.1910 C   0  0  0  0  0  2  0  0  0  0  0  0
  194.1360  175.5510  141.8230 O   0  0  0  0  0  0  0  0  0  0  0  0
  193.7350  176.0880  143.0400 C   0  0  0  0  0  0  0  0  0  0  0  0
  194.5180  176.0730  144.0280 O   0  0  0  0  0  1  0  0  0  0  0  0
  1  2  1  0  0  0  0
  1 13  1  0  0  0  0
  2 20  1  0  0  0  0
  3  9  1  0  0  0  0
  4  6  1  0  0  0  0
  4  2  2  0  0  0  0
  5  1  2  0  0  0  0
  7  9  2  0  0  0  0
  7  5  1  0  0  0  0
  8  7  1  0  0  0  0
  9  4  1  0  0  0  0
 10  5  1  0  0  0  0
 12 11  2  0  0  0  0
 12 16  1  0  0  0  0
 13 12  1  0  0  0  0
 14 17  1  0  0  0  0
 16 18  1  0  0  0  0
 16 14  2  0  0  0  0
 17 15  2  0  0  0  0
 18 19  2  0  0  0  0
 19 15  1  0  0  0  0
 20 29  1  6  0  0  0
 23 20  1  6  0  0  0
 23 25  1  0  0  0  0
 23 26  1  0  0  0  0
 24 22  1  6  0  0  0
 24 21  1  0  0  0  0
 25 24  1  0  0  0  0
 26 28  1  0  0  0  0
 28 21  1  0  0  0  0
 28 27  2  0  0  0  0
 30 31  2  0  0  0  0
 31 29  1  0  0  0  0
 31 32  1  0  0  0  0
M  END
>  <MODEL>
6

>  <REMARK>
 VINA RESULT:      -6.6      2.667      7.180
  Name = 
  6 active torsions:
  status: ('A' for Active; 'I' for Inactive)
    1  A    between atoms: C_2  and  C_20
    2  A    between atoms: C_3  and  C_7
    3  A    between atoms: C_3  and  C_11
    4  A    between atoms: C_3  and  C_30
    5  A    between atoms: C_5  and  N_22
    6  A    between atoms: C_18  and  C_30
                            x       y       z     vdW  Elec       q    Type
                         _______ _______ _______ _____ _____    ______ ____

>  <TORSDO>
F 6

$$$$
=
 OpenBabel11062419063D

 32 34  0  0  1  0  0  0  0  0999 V2000
  188.8860  175.3760  142.2110 C   0  0  0  0  0  0  0  0  0  0  0  0
  189.9530  174.6240  142.7350 C   0  0  0  0  0  0  0  0  0  0  0  0
  190.5630  172.2990  139.9060 O   0  0  0  0  0  1  0  0  0  0  0  0
  190.5190  173.5800  141.9590 C   0  0  0  0  0  0  0  0  0  0  0  0
  188.4440  175.1400  140.8950 C   0  0  0  0  0  0  0  0  0  0  0  0
  191.7680  172.5140  142.5930 Cl  0  0  0  0  0  0  0  0  0  0  0  0
  189.0180  174.1200  140.1320 C   0  0  0  0  0  0  0  0  0  0  0  0
  188.5730  173.8930  138.8300 O   0  0  0  0  0  1  0  0  0  0  0  0
  190.0400  173.3350  140.6630 C   0  0  0  0  0  0  0  0  0  0  0  0
  187.4570  175.9350  140.3280 O   0  0  0  0  0  1  0  0  0  0  0  0
  186.2680  175.3170  143.5140 O   0  0  0  0  0  0  0  0  0  0  0  0
  186.9450  176.3810  143.5400 C   0  0  0  0  0  0  0  0  0  0  0  0
  188.2830  176.3980  143.0260 N   0  0  0  0  0  2  0  0  0  0  0  0
  186.1330  178.7290  143.3320 C   0  0  0  0  0  3  0  0  0  0  0  0
  185.2290  179.9170  145.2450 C   0  0  0  0  0  3  0  0  0  0  0  0
  186.3660  177.6030  144.1300 C   0  0  0  0  0  0  0  0  0  0  0  0
  185.5670  179.8840  143.8880 C   0  0  0  0  0  3  0  0  0  0  0  0
  186.0310  177.6480  145.4920 C   0  0  0  0  0  3  0  0  0  0  0  0
  185.4610  178.8000  146.0490 C   0  0  0  0  0  3  0  0  0  0  0  0
  190.4240  174.9650  144.1310 C   0  0  2  0  0  3  0  0  0  0  0  0
  194.2960  176.7910  144.6110 O   0  0  0  0  0  0  0  0  0  0  0  0
  194.6930  175.0620  142.9430 C   0  0  0  0  0  1  0  0  0  0  0  0
  191.9400  175.1530  144.2420 C   0  0  1  0  0  3  0  0  0  0  0  0
  193.9350  176.3420  143.2970 C   0  0  1  0  0  3  0  0  0  0  0  0
  192.4190  176.1520  143.1840 C   0  0  0  0  0  2  0  0  0  0  0  0
  192.3810  175.5040  145.6690 C   0  0  0  0  0  2  0  0  0  0  0  0
  194.0130  176.7720  146.8880 O   0  0  0  0  0  0  0  0  0  0  0  0
  193.6190  176.3690  145.7590 C   0  0  0  0  0  0  0  0  0  0  0  0
  189.7830  174.1570  145.2580 C   0  0  0  0  0  2  0  0  0  0  0  0
  188.9410  174.5370  147.5750 O   0  0  0  0  0  1  0  0  0  0  0  0
  189.2900  175.0600  146.3350 C   0  0  0  0  0  0  0  0  0  0  0  0
  189.1640  176.2930  146.1090 O   0  0  0  0  0  0  0  0  0  0  0  0
  1  2  1  0  0  0  0
  1 13  1  0  0  0  0
  2 20  1  0  0  0  0
  3  9  1  0  0  0  0
  4  6  1  0  0  0  0
  4  2  2  0  0  0  0
  5  1  2  0  0  0  0
  7  9  2  0  0  0  0
  7  5  1  0  0  0  0
  8  7  1  0  0  0  0
  9  4  1  0  0  0  0
 10  5  1  0  0  0  0
 11 12  2  0  0  0  0
 12 16  1  0  0  0  0
 13 12  1  0  0  0  0
 14 17  2  0  0  0  0
 14 16  1  0  0  0  0
 15 19  2  0  0  0  0
 16 18  2  0  0  0  0
 17 15  1  0  0  0  0
 18 19  1  0  0  0  0
 20 29  1  1  0  0  0
 21 28  1  0  0  0  0
 23 20  1  1  0  0  0
 23 26  1  0  0  0  0
 24 22  1  1  0  0  0
 24 21  1  0  0  0  0
 25 24  1  0  0  0  0
 25 23  1  0  0  0  0
 26 28  1  0  0  0  0
 28 27  2  0  0  0  0
 29 31  1  0  0  0  0
 31 30  1  0  0  0  0
 32 31  2  0  0  0  0
M  END
>  <MODEL>
7

>  <REMARK>
 VINA RESULT:      -6.6      2.046      5.248
  Name = 
  6 active torsions:
  status: ('A' for Active; 'I' for Inactive)
    1  A    between atoms: C_2  and  C_20
    2  A    between atoms: C_3  and  C_7
    3  A    between atoms: C_3  and  C_11
    4  A    between atoms: C_3  and  C_30
    5  A    between atoms: C_5  and  N_22
    6  A    between atoms: C_18  and  C_30
                            x       y       z     vdW  Elec       q    Type
                         _______ _______ _______ _____ _____    ______ ____

>  <TORSDO>
F 6

$$$$
=
 OpenBabel11062419063D

 32 34  0  0  1  0  0  0  0  0999 V2000
  191.3040  173.0840  143.2060 C   0  0  0  0  0  0  0  0  0  0  0  0
  192.6980  173.0460  143.3870 C   0  0  0  0  0  0  0  0  0  0  0  0
  193.3780  169.5090  142.4880 O   0  0  0  0  0  1  0  0  0  0  0  0
  193.4020  171.8380  143.1490 C   0  0  0  0  0  0  0  0  0  0  0  0
  190.6320  171.9480  142.7140 C   0  0  0  0  0  0  0  0  0  0  0  0
  195.1240  171.6760  143.4750 Cl  0  0  0  0  0  0  0  0  0  0  0  0
  191.3340  170.7660  142.4680 C   0  0  0  0  0  0  0  0  0  0  0  0
  190.6600  169.6470  141.9820 O   0  0  0  0  0  1  0  0  0  0  0  0
  192.7080  170.7050  142.6950 C   0  0  0  0  0  0  0  0  0  0  0  0
  189.2720  171.9970  142.4390 O   0  0  0  0  0  1  0  0  0  0  0  0
  189.7600  173.7190  145.6070 O   0  0  0  0  0  0  0  0  0  0  0  0
  189.7430  174.5210  144.6340 C   0  0  0  0  0  0  0  0  0  0  0  0
  190.5930  174.3000  143.5010 N   0  0  0  0  0  2  0  0  0  0  0  0
  188.3280  176.1440  145.8930 C   0  0  0  0  0  3  0  0  0  0  0  0
  187.2280  177.9880  144.7630 C   0  0  0  0  0  3  0  0  0  0  0  0
  188.8660  175.7070  144.6770 C   0  0  0  0  0  0  0  0  0  0  0  0
  187.5110  177.2800  145.9360 C   0  0  0  0  0  3  0  0  0  0  0  0
  188.5720  176.4190  143.5030 C   0  0  0  0  0  3  0  0  0  0  0  0
  187.7570  177.5580  143.5450 C   0  0  0  0  0  3  0  0  0  0  0  0
  193.3730  174.3160  143.8570 C   0  0  2  0  0  3  0  0  0  0  0  0
  195.9890  176.9310  141.6490 O   0  0  0  0  0  0  0  0  0  0  0  0
  195.5580  175.1150  140.0850 C   0  0  0  0  0  1  0  0  0  0  0  0
  194.4700  174.8180  142.9140 C   0  0  1  0  0  3  0  0  0  0  0  0
  194.9600  176.2520  140.9160 C   0  0  1  0  0  3  0  0  0  0  0  0
  193.8620  175.7460  141.8580 C   0  0  0  0  0  2  0  0  0  0  0  0
  195.6540  175.4330  143.6710 C   0  0  0  0  0  2  0  0  0  0  0  0
  197.3200  177.1510  143.5050 O   0  0  0  0  0  0  0  0  0  0  0  0
  196.3810  176.5340  142.9310 C   0  0  0  0  0  0  0  0  0  0  0  0
  193.7190  174.3650  145.3440 C   0  0  0  0  0  2  0  0  0  0  0  0
  192.3090  175.1200  147.2570 O   0  0  0  0  0  1  0  0  0  0  0  0
  192.9100  175.4050  146.0370 C   0  0  0  0  0  0  0  0  0  0  0  0
  192.7480  176.5330  145.4990 O   0  0  0  0  0  0  0  0  0  0  0  0
  1  2  1  0  0  0  0
  1 13  1  0  0  0  0
  2 20  1  0  0  0  0
  3  9  1  0  0  0  0
  4  2  2  0  0  0  0
  4  6  1  0  0  0  0
  5  1  2  0  0  0  0
  7  9  2  0  0  0  0
  7  5  1  0  0  0  0
  8  7  1  0  0  0  0
  9  4  1  0  0  0  0
 10  5  1  0  0  0  0
 12 16  1  0  0  0  0
 12 11  2  0  0  0  0
 13 12  1  0  0  0  0
 14 17  1  0  0  0  0
 15 17  2  0  0  0  0
 16 14  2  0  0  0  0
 18 19  2  0  0  0  0
 18 16  1  0  0  0  0
 19 15  1  0  0  0  0
 20 29  1  1  0  0  0
 21 28  1  0  0  0  0
 23 26  1  0  0  0  0
 23 20  1  1  0  0  0
 24 22  1  1  0  0  0
 24 21  1  0  0  0  0
 24 25  1  0  0  0  0
 25 23  1  0  0  0  0
 28 27  2  0  0  0  0
 28 26  1  0  0  0  0
 29 31  1  0  0  0  0
 31 30  1  0  0  0  0
 32 31  2  0  0  0  0
M  END
>  <MODEL>
8

>  <REMARK>
 VINA RESULT:      -6.5      2.721      5.776
  Name = 
  6 active torsions:
  status: ('A' for Active; 'I' for Inactive)
    1  A    between atoms: C_2  and  C_20
    2  A    between atoms: C_3  and  C_7
    3  A    between atoms: C_3  and  C_11
    4  A    between atoms: C_3  and  C_30
    5  A    between atoms: C_5  and  N_22
    6  A    between atoms: C_18  and  C_30
                            x       y       z     vdW  Elec       q    Type
                         _______ _______ _______ _____ _____    ______ ____

>  <TORSDO>
F 6

$$$$
=
 OpenBabel11062419063D

 32 34  0  0  1  0  0  0  0  0999 V2000
  187.9860  176.0780  142.3070 C   0  0  0  0  0  0  0  0  0  0  0  0
  188.4380  175.1790  141.3250 C   0  0  0  0  0  0  0  0  0  0  0  0
  186.5540  176.4280  138.3800 O   0  0  0  0  0  1  0  0  0  0  0  0
  187.9520  175.2920  139.9970 C   0  0  0  0  0  0  0  0  0  0  0  0
  187.1210  177.1300  141.9480 C   0  0  0  0  0  0  0  0  0  0  0  0
  188.3700  174.1290  138.7440 Cl  0  0  0  0  0  0  0  0  0  0  0  0
  186.6590  177.2440  140.6340 C   0  0  0  0  0  0  0  0  0  0  0  0
  185.8020  178.2870  140.2880 O   0  0  0  0  0  1  0  0  0  0  0  0
  187.0610  176.3240  139.6660 C   0  0  0  0  0  0  0  0  0  0  0  0
  186.7410  178.0830  142.8830 O   0  0  0  0  0  1  0  0  0  0  0  0
  190.0180  177.6510  143.7050 O   0  0  0  0  0  0  0  0  0  0  0  0
  189.5320  176.6330  144.2690 C   0  0  0  0  0  0  0  0  0  0  0  0
  188.4440  175.9220  143.6630 N   0  0  0  0  0  2  0  0  0  0  0  0
  189.3040  175.3660  146.4050 C   0  0  0  0  0  3  0  0  0  0  0  0
  191.1050  175.3130  148.0290 C   0  0  0  0  0  3  0  0  0  0  0  0
  190.0690  176.1890  145.5700 C   0  0  0  0  0  0  0  0  0  0  0  0
  189.8200  174.9300  147.6320 C   0  0  0  0  0  3  0  0  0  0  0  0
  191.3550  176.5730  145.9790 C   0  0  0  0  0  3  0  0  0  0  0  0
  191.8750  176.1360  147.2040 C   0  0  0  0  0  3  0  0  0  0  0  0
  189.4150  174.1080  141.7590 C   0  0  2  0  0  3  0  0  0  0  0  0
  193.7120  173.8870  141.5640 O   0  0  0  0  0  0  0  0  0  0  0  0
  193.3010  176.1480  142.3690 C   0  0  0  0  0  1  0  0  0  0  0  0
  190.8830  174.4900  141.5480 C   0  0  1  0  0  3  0  0  0  0  0  0
  193.1380  174.6510  142.6340 C   0  0  1  0  0  3  0  0  0  0  0  0
  191.6670  174.2720  142.8450 C   0  0  0  0  0  2  0  0  0  0  0  0
  191.4970  173.7930  140.3280 C   0  0  0  0  0  2  0  0  0  0  0  0
  193.5580  172.8750  139.5100 O   0  0  0  0  0  0  0  0  0  0  0  0
  192.9800  173.5140  140.4330 C   0  0  0  0  0  0  0  0  0  0  0  0
  189.0480  172.6810  141.3580 C   0  0  0  0  0  2  0  0  0  0  0  0
  188.9700  171.9150  143.7300 O   0  0  0  0  0  1  0  0  0  0  0  0
  189.4250  171.7200  142.4310 C   0  0  0  0  0  0  0  0  0  0  0  0
  190.1820  170.7490  142.1640 O   0  0  0  0  0  0  0  0  0  0  0  0
  1 13  1  0  0  0  0
  2 20  1  0  0  0  0
  2  1  2  0  0  0  0
  3  9  1  0  0  0  0
  4  2  1  0  0  0  0
  5  1  1  0  0  0  0
  5 10  1  0  0  0  0
  6  4  1  0  0  0  0
  7  5  2  0  0  0  0
  8  7  1  0  0  0  0
  9  4  2  0  0  0  0
  9  7  1  0  0  0  0
 11 12  2  0  0  0  0
 12 16  1  0  0  0  0
 13 12  1  0  0  0  0
 14 17  1  0  0  0  0
 16 18  1  0  0  0  0
 16 14  2  0  0  0  0
 17 15  2  0  0  0  0
 18 19  2  0  0  0  0
 19 15  1  0  0  0  0
 20 29  1  6  0  0  0
 21 24  1  0  0  0  0
 23 20  1  1  0  0  0
 23 25  1  0  0  0  0
 24 22  1  6  0  0  0
 24 25  1  0  0  0  0
 26 28  1  0  0  0  0
 26 23  1  0  0  0  0
 27 28  2  0  0  0  0
 28 21  1  0  0  0  0
 29 31  1  0  0  0  0
 31 30  1  0  0  0  0
 32 31  2  0  0  0  0
M  END
>  <MODEL>
9

>  <REMARK>
 VINA RESULT:      -6.4      2.995      5.944
  Name = 
  6 active torsions:
  status: ('A' for Active; 'I' for Inactive)
    1  A    between atoms: C_2  and  C_20
    2  A    between atoms: C_3  and  C_7
    3  A    between atoms: C_3  and  C_11
    4  A    between atoms: C_3  and  C_30
    5  A    between atoms: C_5  and  N_22
    6  A    between atoms: C_18  and  C_30
                            x       y       z     vdW  Elec       q    Type
                         _______ _______ _______ _____ _____    ______ ____

>  <TORSDO>
F 6

$$$$
