=
 OpenBabel11062420203D

 53 60  0  0  1  0  0  0  0  0999 V2000
  186.1810  178.8660  147.6140 N   0  0  0  0  0  0  0  0  0  0  0  0
  188.3470  176.7530  146.0290 N   0  0  0  0  0  0  0  0  0  0  0  0
  185.5410  178.5610  145.3580 C   0  0  2  0  0  3  0  0  0  0  0  0
  186.9370  176.6980  146.5290 C   0  0  1  0  0  0  0  0  0  0  0  0
  185.8500  177.0590  145.4320 C   0  0  2  0  0  3  0  0  0  0  0  0
  187.2810  176.5150  145.0900 C   0  0  1  0  0  0  0  0  0  0  0  0
  185.4550  179.2110  146.4460 N   0  0  0  0  0  2  0  0  0  0  0  0
  186.9330  177.8150  147.5820 C   0  0  0  0  0  3  0  0  0  0  0  0
  184.8120  179.1520  144.2600 C   0  0  0  0  0  1  0  0  0  0  0  0
  188.8090  177.6860  143.4900 O   0  0  0  0  0  1  0  0  0  0  0  0
  187.8200  176.8710  143.6690 C   0  0  1  0  0  3  0  0  0  0  0  0
  187.4960  175.8450  142.5820 C   0  0  0  0  0  2  0  0  0  0  0  0
  187.8690  176.2740  141.2150 C   0  0  2  0  0  3  0  0  0  0  0  0
  186.9280  176.0270  139.0990 C   0  0  0  0  0  0  0  0  0  0  0  0
  186.7720  176.7080  140.3620 N   0  0  0  0  0  0  0  0  0  0  0  0
  187.8760  174.9720  139.2930 N   0  0  0  0  0  0  0  0  0  0  0  0
  186.7750  176.5760  138.0060 O   0  0  0  0  0  0  0  0  0  0  0  0
  188.4620  175.0680  140.5930 C   0  0  0  0  0  2  0  0  0  0  0  0
  186.2340  178.0920  140.5340 C   0  0  0  0  0  2  0  0  0  0  0  0
  184.6700  178.1880  140.5370 C   0  0  0  0  0  1  0  0  0  0  0  0
  188.5260  174.3830  138.1050 C   0  0  0  0  0  2  0  0  0  0  0  0
  189.7050  172.5450  137.1830 N   0  0  1  0  0  0  0  0  0  0  0  0
  192.5100  172.8940  136.6820 C   0  0  0  0  0  1  0  0  0  0  0  0
  190.6450  172.6300  138.3610 C   0  0  2  0  0  0  0  0  0  0  0  0
  191.1780  173.8750  138.6800 O   0  0  0  0  0  1  0  0  0  0  0  0
  192.7680  171.1520  138.3050 C   0  0  0  0  0  1  0  0  0  0  0  0
  190.8000  170.7600  136.1970 S   0  0  0  0  0  0  0  0  0  0  0  0
  191.7350  171.8560  137.4890 C   0  0  0  0  0  0  0  0  0  0  0  0
  189.3950  171.2770  137.1190 O   0  0  0  0  0  0  0  0  0  0  0  0
  189.1900  173.0350  138.4340 C   0  0  1  0  0  0  0  0  0  0  0  0
  188.4620  172.0000  139.4350 C   0  0  0  0  0  1  0  0  0  0  0  0
  189.1840  175.5090  146.4870 C   0  0  0  0  0  2  0  0  0  0  0  0
  190.7360  175.6540  146.6460 C   0  0  0  0  0  0  0  0  0  0  0  0
  191.3840  174.8520  147.3000 O   0  0  0  0  0  0  0  0  0  0  0  0
  191.4890  176.3860  145.5780 C   0  0  0  0  0  2  0  0  0  0  0  0
  192.2020  175.5460  144.5550 N   0  0  0  0  0  0  0  0  0  0  0  0
  191.6200  175.2010  143.2210 C   0  0  0  0  0  0  0  0  0  0  0  0
  191.4730  176.0700  142.3490 O   0  0  0  0  0  0  0  0  0  0  0  0
  196.3300  174.9410  144.7240 C   0  0  0  0  0  3  0  0  0  0  0  0
  194.1450  174.1940  145.1580 C   0  0  0  0  0  3  0  0  0  0  0  0
  193.6280  175.4250  144.7450 C   0  0  0  0  0  0  0  0  0  0  0  0
  195.8700  176.1720  144.3060 N   0  0  0  0  0  0  0  0  0  0  0  0
  194.5400  176.3970  144.3020 C   0  0  0  0  0  3  0  0  0  0  0  0
  195.4770  173.9330  145.1340 C   0  0  0  0  0  0  0  0  0  0  0  0
  195.9110  172.5810  145.5510 C   0  0  2  0  0  3  0  0  0  0  0  0
  196.8680  172.6160  146.5660 F   0  0  0  0  0  0  0  0  0  0  0  0
  196.3500  171.8350  144.3960 N   0  0  0  0  0  1  0  0  0  0  0  0
  189.4110  172.2970  143.6050 C   0  0  0  0  0  3  0  0  0  0  0  0
  191.0680  173.9060  143.0020 C   0  0  0  0  0  0  0  0  0  0  0  0
  189.9050  173.5910  143.6680 C   0  0  0  0  0  3  0  0  0  0  0  0
  191.6500  173.0690  142.0850 C   0  0  0  0  0  3  0  0  0  0  0  0
  190.1080  171.3560  142.7910 C   0  0  0  0  0  3  0  0  0  0  0  0
  191.2100  171.7510  141.9960 C   0  0  0  0  0  3  0  0  0  0  0  0
  2 32  1  0  0  0  0
  2  4  1  0  0  0  0
  3  9  1  1  0  0  0
  3  5  1  0  0  0  0
  3  7  1  0  0  0  0
  4  8  1  1  0  0  0
  5  4  1  0  0  0  0
  6  5  1  0  0  0  0
  6  2  1  0  0  0  0
  6  4  1  0  0  0  0
  7  1  1  0  0  0  0
  8  1  2  0  0  0  0
 10 11  1  0  0  0  0
 11  6  1  0  0  0  0
 12 11  1  0  0  0  0
 13 12  1  0  0  0  0
 14 16  1  0  0  0  0
 14 15  1  0  0  0  0
 15 19  1  0  0  0  0
 15 13  1  0  0  0  0
 16 18  1  0  0  0  0
 17 14  2  0  0  0  0
 18 13  1  0  0  0  0
 19 20  1  0  0  0  0
 21 30  1  0  0  0  0
 21 16  1  0  0  0  0
 22 24  1  0  0  0  0
 22 30  1  0  0  0  0
 23 28  1  0  0  0  0
 24 30  1  0  0  0  0
 24 25  1  0  0  0  0
 27 29  1  0  0  0  0
 27 28  1  0  0  0  0
 28 26  1  0  0  0  0
 28 24  1  0  0  0  0
 29 22  1  0  0  0  0
 30 31  1  0  0  0  0
 32 33  1  0  0  0  0
 33 34  2  0  0  0  0
 35 33  1  0  0  0  0
 36 41  1  0  0  0  0
 36 35  1  0  0  0  0
 37 36  1  0  0  0  0
 38 37  2  0  0  0  0
 39 44  1  0  0  0  0
 41 40  1  0  0  0  0
 42 39  2  0  0  0  0
 43 42  1  0  0  0  0
 43 41  2  0  0  0  0
 44 40  2  0  0  0  0
 44 45  1  0  0  0  0
 45 46  1  0  0  0  0
 47 45  1  0  0  0  0
 48 50  1  0  0  0  0
 49 37  1  0  0  0  0
 49 50  2  0  0  0  0
 51 49  1  0  0  0  0
 52 48  2  0  0  0  0
 53 51  2  0  0  0  0
 53 52  1  0  0  0  0
M  END
>  <MODEL>
1

>  <REMARK>
 VINA RESULT:      -7.4      0.000      0.000
  Name = 
  13 active torsions:
  status: ('A' for Active; 'I' for Inactive)
    1  A    between atoms: N_3  and  C_18
    2  A    between atoms: N_3  and  C_52
    3  A    between atoms: C_5  and  C_14
    4  A    between atoms: N_7  and  C_39
    5  A    between atoms: C_10  and  C_39
    6  A    between atoms: C_10  and  C_52
    7  A    between atoms: C_11  and  C_27
    8  A    between atoms: C_12  and  C_34
    9  A    between atoms: C_14  and  C_43
   10  A    between atoms: C_15  and  N_22
   11  A    between atoms: N_26  and  C_48
   12  A    between atoms: C_33  and  C_43
   13  A    between atoms: C_47  and  C_48
                            x       y       z     vdW  Elec       q    Type
                         _______ _______ _______ _____ _____    ______ ____

>  <TORSDO>
F 13

$$$$
=
 OpenBabel11062420203D

 53 60  0  0  1  0  0  0  0  0999 V2000
  188.3200  174.8780  136.5550 N   0  0  0  0  0  0  0  0  0  0  0  0
  189.6240  173.8350  139.5340 N   0  0  0  0  0  0  0  0  0  0  0  0
  190.3400  173.6970  136.2080 C   0  0  2  0  0  3  0  0  0  0  0  0
  188.9500  173.2030  138.3570 C   0  0  1  0  0  0  0  0  0  0  0  0
  189.9530  172.6490  137.2610 C   0  0  2  0  0  3  0  0  0  0  0  0
  190.3370  172.8450  138.7700 C   0  0  1  0  0  0  0  0  0  0  0  0
  189.4340  174.4750  135.7750 N   0  0  0  0  0  2  0  0  0  0  0  0
  188.1990  174.3960  137.7470 C   0  0  0  0  0  3  0  0  0  0  0  0
  191.4440  173.5120  135.2960 C   0  0  0  0  0  1  0  0  0  0  0  0
  192.3160  174.0480  139.7190 O   0  0  0  0  0  1  0  0  0  0  0  0
  191.8590  173.0300  139.0640 C   0  0  1  0  0  3  0  0  0  0  0  0
  192.6840  171.7440  139.0170 C   0  0  0  0  0  2  0  0  0  0  0  0
  192.9890  171.1720  140.3480 C   0  0  2  0  0  3  0  0  0  0  0  0
  192.4750  171.7540  142.5440 C   0  0  0  0  0  0  0  0  0  0  0  0
  191.9100  171.2250  141.3260 N   0  0  0  0  0  0  0  0  0  0  0  0
  193.7510  172.3150  142.2190 N   0  0  0  0  0  0  0  0  0  0  0  0
  192.2250  171.3010  143.6630 O   0  0  0  0  0  0  0  0  0  0  0  0
  194.0980  172.0050  140.8680 C   0  0  0  0  0  2  0  0  0  0  0  0
  190.8260  170.2000  141.2520 C   0  0  0  0  0  2  0  0  0  0  0  0
  191.3290  168.7160  141.2780 C   0  0  0  0  0  1  0  0  0  0  0  0
  194.7130  172.5540  143.3140 C   0  0  0  0  0  2  0  0  0  0  0  0
  193.7460  174.6840  143.7000 N   0  0  1  0  0  0  0  0  0  0  0  0
  193.0500  175.3460  146.4050 C   0  0  0  0  0  1  0  0  0  0  0  0
  194.8570  174.9450  144.6880 C   0  0  2  0  0  0  0  0  0  0  0  0
  195.1160  173.9710  145.6490 O   0  0  0  0  0  1  0  0  0  0  0  0
  194.6830  177.0790  146.1430 C   0  0  0  0  0  1  0  0  0  0  0  0
  192.7210  176.7330  144.0210 S   0  0  0  0  0  0  0  0  0  0  0  0
  193.9270  176.0480  145.3710 C   0  0  0  0  0  0  0  0  0  0  0  0
  193.7270  175.7590  142.9570 O   0  0  0  0  0  0  0  0  0  0  0  0
  195.0210  174.0520  143.4800 C   0  0  1  0  0  0  0  0  0  0  0  0
  196.0870  174.7700  142.5050 C   0  0  0  0  0  1  0  0  0  0  0  0
  188.9960  173.3710  140.8940 C   0  0  0  0  0  2  0  0  0  0  0  0
  187.8240  174.2040  141.5140 C   0  0  0  0  0  0  0  0  0  0  0  0
  187.1190  173.7460  142.4000 O   0  0  0  0  0  0  0  0  0  0  0  0
  187.9140  175.6980  141.4590 C   0  0  0  0  0  2  0  0  0  0  0  0
  187.6800  176.4400  142.7460 N   0  0  0  0  0  0  0  0  0  0  0  0
  188.7850  176.9150  143.6350 C   0  0  0  0  0  0  0  0  0  0  0  0
  189.5290  177.8410  143.2810 O   0  0  0  0  0  0  0  0  0  0  0  0
  184.1040  178.5290  143.2720 C   0  0  0  0  0  3  0  0  0  0  0  0
  185.8990  177.3110  144.1730 C   0  0  0  0  0  3  0  0  0  0  0  0
  186.3700  177.0280  142.8880 C   0  0  0  0  0  0  0  0  0  0  0  0
  184.5270  178.2790  141.9840 N   0  0  0  0  0  0  0  0  0  0  0  0
  185.6510  177.5550  141.8020 C   0  0  0  0  0  3  0  0  0  0  0  0
  184.7920  178.0680  144.3790 C   0  0  0  0  0  0  0  0  0  0  0  0
  184.4100  178.3430  145.7830 C   0  0  2  0  0  3  0  0  0  0  0  0
  183.1950  179.0230  145.8820 F   0  0  0  0  0  0  0  0  0  0  0  0
  185.4880  179.0260  146.4540 N   0  0  0  0  0  1  0  0  0  0  0  0
  189.6590  174.0920  145.8090 C   0  0  0  0  0  3  0  0  0  0  0  0
  189.1010  176.1930  144.8210 C   0  0  0  0  0  0  0  0  0  0  0  0
  189.4860  174.8780  144.6800 C   0  0  0  0  0  3  0  0  0  0  0  0
  189.1020  176.8420  146.0290 C   0  0  0  0  0  3  0  0  0  0  0  0
  189.4880  174.7100  147.0840 C   0  0  0  0  0  3  0  0  0  0  0  0
  189.2470  176.1000  147.1970 C   0  0  0  0  0  3  0  0  0  0  0  0
  1  8  2  0  0  0  0
  2 32  1  0  0  0  0
  3  9  1  6  0  0  0
  3  5  1  0  0  0  0
  4  8  1  1  0  0  0
  4  6  1  0  0  0  0
  4  2  1  0  0  0  0
  5  4  1  0  0  0  0
  5  6  1  0  0  0  0
  6 11  1  0  0  0  0
  6  2  1  0  0  0  0
  7  3  1  0  0  0  0
  7  1  1  0  0  0  0
 11 10  1  0  0  0  0
 12 11  1  0  0  0  0
 12 13  1  0  0  0  0
 13 18  1  0  0  0  0
 13 15  1  0  0  0  0
 14 17  2  0  0  0  0
 15 14  1  0  0  0  0
 16 14  1  0  0  0  0
 16 21  1  0  0  0  0
 18 16  1  0  0  0  0
 19 20  1  0  0  0  0
 19 15  1  0  0  0  0
 21 30  1  0  0  0  0
 22 24  1  0  0  0  0
 24 28  1  0  0  0  0
 24 25  1  0  0  0  0
 27 28  1  0  0  0  0
 28 26  1  0  0  0  0
 28 23  1  0  0  0  0
 29 22  1  0  0  0  0
 29 27  1  0  0  0  0
 30 22  1  0  0  0  0
 30 24  1  0  0  0  0
 31 30  1  0  0  0  0
 32 33  1  0  0  0  0
 33 34  2  0  0  0  0
 35 33  1  0  0  0  0
 35 36  1  0  0  0  0
 36 41  1  0  0  0  0
 36 37  1  0  0  0  0
 37 49  1  0  0  0  0
 38 37  2  0  0  0  0
 39 44  1  0  0  0  0
 40 44  2  0  0  0  0
 41 40  1  0  0  0  0
 42 39  2  0  0  0  0
 43 42  1  0  0  0  0
 43 41  2  0  0  0  0
 44 45  1  0  0  0  0
 45 46  1  0  0  0  0
 45 47  1  0  0  0  0
 48 52  1  0  0  0  0
 49 51  2  0  0  0  0
 50 49  1  0  0  0  0
 50 48  2  0  0  0  0
 51 53  1  0  0  0  0
 52 53  2  0  0  0  0
M  END
>  <MODEL>
2

>  <REMARK>
 VINA RESULT:      -7.3      3.276      8.819
  Name = 
  13 active torsions:
  status: ('A' for Active; 'I' for Inactive)
    1  A    between atoms: N_3  and  C_18
    2  A    between atoms: N_3  and  C_52
    3  A    between atoms: C_5  and  C_14
    4  A    between atoms: N_7  and  C_39
    5  A    between atoms: C_10  and  C_39
    6  A    between atoms: C_10  and  C_52
    7  A    between atoms: C_11  and  C_27
    8  A    between atoms: C_12  and  C_34
    9  A    between atoms: C_14  and  C_43
   10  A    between atoms: C_15  and  N_22
   11  A    between atoms: N_26  and  C_48
   12  A    between atoms: C_33  and  C_43
   13  A    between atoms: C_47  and  C_48
                            x       y       z     vdW  Elec       q    Type
                         _______ _______ _______ _____ _____    ______ ____

>  <TORSDO>
F 13

$$$$
=
 OpenBabel11062420203D

 53 60  0  0  1  0  0  0  0  0999 V2000
  188.4000  174.0130  138.6420 N   0  0  0  0  0  0  0  0  0  0  0  0
  190.5480  173.2920  141.1990 N   0  0  0  0  0  0  0  0  0  0  0  0
  190.4480  173.1840  137.7970 C   0  0  2  0  0  3  0  0  0  0  0  0
  189.7270  172.5220  140.2130 C   0  0  1  0  0  0  0  0  0  0  0  0
  190.5140  172.1150  138.8970 C   0  0  2  0  0  3  0  0  0  0  0  0
  191.2140  172.4160  140.2700 C   0  0  1  0  0  0  0  0  0  0  0  0
  189.3440  173.7840  137.6090 N   0  0  0  0  0  2  0  0  0  0  0  0
  188.6570  173.5510  139.8220 C   0  0  0  0  0  3  0  0  0  0  0  0
  191.3120  173.1630  136.6400 C   0  0  0  0  0  1  0  0  0  0  0  0
  193.6450  172.0670  139.7920 O   0  0  0  0  0  1  0  0  0  0  0  0
  192.7060  172.8650  140.1860 C   0  0  1  0  0  3  0  0  0  0  0  0
  192.9180  174.3750  140.0750 C   0  0  0  0  0  2  0  0  0  0  0  0
  194.1000  174.8750  140.8140 C   0  0  2  0  0  3  0  0  0  0  0  0
  196.0970  173.9320  141.5530 C   0  0  0  0  0  0  0  0  0  0  0  0
  195.3900  174.3650  140.3720 N   0  0  0  0  0  0  0  0  0  0  0  0
  195.1480  173.8640  142.6220 N   0  0  0  0  0  0  0  0  0  0  0  0
  197.2920  174.1580  141.7520 O   0  0  0  0  0  0  0  0  0  0  0  0
  193.8950  174.4100  142.2050 C   0  0  0  0  0  2  0  0  0  0  0  0
  196.0240  174.9730  139.1620 C   0  0  0  0  0  2  0  0  0  0  0  0
  195.8940  174.1150  137.8580 C   0  0  0  0  0  1  0  0  0  0  0  0
  195.6530  173.8480  144.0100 C   0  0  0  0  0  2  0  0  0  0  0  0
  195.3640  171.5000  144.1630 N   0  0  1  0  0  0  0  0  0  0  0  0
  197.5280  169.9730  145.2700 C   0  0  0  0  0  1  0  0  0  0  0  0
  195.6510  171.6180  145.6410 C   0  0  2  0  0  0  0  0  0  0  0  0
  196.7780  172.3370  146.0290 O   0  0  0  0  0  1  0  0  0  0  0  0
  195.9450  169.4240  146.9800 C   0  0  0  0  0  1  0  0  0  0  0  0
  195.0790  169.2040  144.2100 S   0  0  0  0  0  0  0  0  0  0  0  0
  196.0520  170.0730  145.6400 C   0  0  0  0  0  0  0  0  0  0  0  0
  194.2820  170.7680  144.1120 O   0  0  0  0  0  0  0  0  0  0  0  0
  195.0050  172.7220  144.8340 C   0  0  1  0  0  0  0  0  0  0  0  0
  193.5000  172.8920  145.3890 C   0  0  0  0  0  1  0  0  0  0  0  0
  190.3580  172.7670  142.6640 C   0  0  0  0  0  2  0  0  0  0  0  0
  189.6910  173.7030  143.7270 C   0  0  0  0  0  0  0  0  0  0  0  0
  189.9550  173.6030  144.9160 O   0  0  0  0  0  0  0  0  0  0  0  0
  189.2050  175.0470  143.2780 C   0  0  0  0  0  2  0  0  0  0  0  0
  189.5340  176.2180  144.1620 N   0  0  0  0  0  0  0  0  0  0  0  0
  190.8050  176.9980  144.0570 C   0  0  0  0  0  0  0  0  0  0  0  0
  191.0240  177.7250  143.0770 O   0  0  0  0  0  0  0  0  0  0  0  0
  186.0100  177.6540  145.8790 C   0  0  0  0  0  3  0  0  0  0  0  0
  187.5700  177.6700  144.1230 C   0  0  0  0  0  3  0  0  0  0  0  0
  188.4070  176.8110  144.8410 C   0  0  0  0  0  0  0  0  0  0  0  0
  186.7990  176.8060  146.6270 N   0  0  0  0  0  0  0  0  0  0  0  0
  187.9680  176.3820  146.1040 C   0  0  0  0  0  3  0  0  0  0  0  0
  186.3730  178.0790  144.6150 C   0  0  0  0  0  0  0  0  0  0  0  0
  185.5470  178.9520  143.7500 C   0  0  2  0  0  3  0  0  0  0  0  0
  185.9200  178.8810  142.4070 F   0  0  0  0  0  0  0  0  0  0  0  0
  185.5640  180.3000  144.2630 N   0  0  0  0  0  1  0  0  0  0  0  0
  192.4610  176.3350  147.2640 C   0  0  0  0  0  3  0  0  0  0  0  0
  191.8520  176.7780  144.9980 C   0  0  0  0  0  0  0  0  0  0  0  0
  191.4900  176.4150  146.2760 C   0  0  0  0  0  3  0  0  0  0  0  0
  193.1580  176.8430  144.5840 C   0  0  0  0  0  3  0  0  0  0  0  0
  193.8160  176.5760  146.8880 C   0  0  0  0  0  3  0  0  0  0  0  0
  194.1730  176.7920  145.5360 C   0  0  0  0  0  3  0  0  0  0  0  0
  1  8  2  0  0  0  0
  2 32  1  0  0  0  0
  3  9  1  6  0  0  0
  3  5  1  0  0  0  0
  4  8  1  1  0  0  0
  4  6  1  0  0  0  0
  4  2  1  0  0  0  0
  5  4  1  0  0  0  0
  5  6  1  0  0  0  0
  6  2  1  0  0  0  0
  7  3  1  0  0  0  0
  7  1  1  0  0  0  0
 10 11  1  0  0  0  0
 11  6  1  0  0  0  0
 12 11  1  0  0  0  0
 12 13  1  0  0  0  0
 13 18  1  0  0  0  0
 14 17  2  0  0  0  0
 14 16  1  0  0  0  0
 15 13  1  0  0  0  0
 15 14  1  0  0  0  0
 16 21  1  0  0  0  0
 18 16  1  0  0  0  0
 19 15  1  0  0  0  0
 20 19  1  0  0  0  0
 21 30  1  0  0  0  0
 22 30  1  0  0  0  0
 22 24  1  0  0  0  0
 23 28  1  0  0  0  0
 24 25  1  0  0  0  0
 27 28  1  0  0  0  0
 28 24  1  0  0  0  0
 28 26  1  0  0  0  0
 29 22  1  0  0  0  0
 29 27  1  0  0  0  0
 30 31  1  0  0  0  0
 30 24  1  0  0  0  0
 32 33  1  0  0  0  0
 33 34  2  0  0  0  0
 35 33  1  0  0  0  0
 35 36  1  0  0  0  0
 36 41  1  0  0  0  0
 37 36  1  0  0  0  0
 37 49  1  0  0  0  0
 38 37  2  0  0  0  0
 39 42  1  0  0  0  0
 40 44  1  0  0  0  0
 40 41  2  0  0  0  0
 41 43  1  0  0  0  0
 43 42  2  0  0  0  0
 44 39  2  0  0  0  0
 45 47  1  0  0  0  0
 45 44  1  0  0  0  0
 46 45  1  0  0  0  0
 49 50  1  0  0  0  0
 50 48  2  0  0  0  0
 51 49  2  0  0  0  0
 51 53  1  0  0  0  0
 52 48  1  0  0  0  0
 53 52  2  0  0  0  0
M  END
>  <MODEL>
3

>  <REMARK>
 VINA RESULT:      -7.2      3.383      8.471
  Name = 
  13 active torsions:
  status: ('A' for Active; 'I' for Inactive)
    1  A    between atoms: N_3  and  C_18
    2  A    between atoms: N_3  and  C_52
    3  A    between atoms: C_5  and  C_14
    4  A    between atoms: N_7  and  C_39
    5  A    between atoms: C_10  and  C_39
    6  A    between atoms: C_10  and  C_52
    7  A    between atoms: C_11  and  C_27
    8  A    between atoms: C_12  and  C_34
    9  A    between atoms: C_14  and  C_43
   10  A    between atoms: C_15  and  N_22
   11  A    between atoms: N_26  and  C_48
   12  A    between atoms: C_33  and  C_43
   13  A    between atoms: C_47  and  C_48
                            x       y       z     vdW  Elec       q    Type
                         _______ _______ _______ _____ _____    ______ ____

>  <TORSDO>
F 13

$$$$
=
 OpenBabel11062420203D

 53 60  0  0  1  0  0  0  0  0999 V2000
  196.6960  176.4260  141.3050 N   0  0  0  0  0  0  0  0  0  0  0  0
  194.2520  175.9850  143.6500 N   0  0  0  0  0  0  0  0  0  0  0  0
  196.9410  174.3310  142.3740 C   0  0  2  0  0  3  0  0  0  0  0  0
  194.5800  175.4330  142.2980 C   0  0  1  0  0  0  0  0  0  0  0  0
  195.4250  174.0910  142.3370 C   0  0  2  0  0  3  0  0  0  0  0  0
  194.5060  174.5730  143.5140 C   0  0  1  0  0  0  0  0  0  0  0  0
  197.4200  175.2560  141.6470 N   0  0  0  0  0  2  0  0  0  0  0  0
  195.4760  176.5360  141.7170 C   0  0  0  0  0  3  0  0  0  0  0  0
  197.8850  173.2870  142.6980 C   0  0  0  0  0  1  0  0  0  0  0  0
  195.6650  174.6560  145.7300 O   0  0  0  0  0  1  0  0  0  0  0  0
  194.8710  174.0230  144.9280 C   0  0  1  0  0  3  0  0  0  0  0  0
  193.8700  173.0230  145.5080 C   0  0  0  0  0  2  0  0  0  0  0  0
  194.1990  171.6070  145.2270 C   0  0  2  0  0  3  0  0  0  0  0  0
  195.4300  170.4990  143.5890 C   0  0  0  0  0  0  0  0  0  0  0  0
  195.5510  171.3510  144.7480 N   0  0  0  0  0  0  0  0  0  0  0  0
  194.0570  170.5180  143.1820 N   0  0  0  0  0  0  0  0  0  0  0  0
  196.1610  169.5300  143.3770 O   0  0  0  0  0  0  0  0  0  0  0  0
  193.2660  171.2130  144.1480 C   0  0  0  0  0  2  0  0  0  0  0  0
  196.6660  171.3010  145.7410 C   0  0  0  0  0  2  0  0  0  0  0  0
  196.7050  169.9980  146.6120 C   0  0  0  0  0  1  0  0  0  0  0  0
  193.5720  169.4410  142.2960 C   0  0  0  0  0  2  0  0  0  0  0  0
  193.1730  171.3670  140.9720 N   0  0  1  0  0  0  0  0  0  0  0  0
  195.0450  171.9340  138.8710 C   0  0  0  0  0  1  0  0  0  0  0  0
  193.1940  170.4670  139.7590 C   0  0  2  0  0  0  0  0  0  0  0  0
  194.2580  169.5800  139.6250 O   0  0  0  0  0  1  0  0  0  0  0  0
  193.1610  171.5980  137.4320 C   0  0  0  0  0  1  0  0  0  0  0  0
  192.8000  173.3040  139.7620 S   0  0  0  0  0  0  0  0  0  0  0  0
  193.5310  171.7490  138.8700 C   0  0  0  0  0  0  0  0  0  0  0  0
  192.0920  172.0840  140.8120 O   0  0  0  0  0  0  0  0  0  0  0  0
  192.7450  170.0010  141.1260 C   0  0  1  0  0  0  0  0  0  0  0  0
  191.1720  169.6610  141.0140 C   0  0  0  0  0  1  0  0  0  0  0  0
  192.7530  176.4330  143.7570 C   0  0  0  0  0  2  0  0  0  0  0  0
  192.1060  176.5890  145.1750 C   0  0  0  0  0  0  0  0  0  0  0  0
  192.7920  176.6400  146.1840 O   0  0  0  0  0  0  0  0  0  0  0  0
  190.7610  177.2400  145.2670 C   0  0  0  0  0  2  0  0  0  0  0  0
  189.5670  176.3270  145.3210 N   0  0  0  0  0  0  0  0  0  0  0  0
  189.6710  174.8420  145.4690 C   0  0  0  0  0  0  0  0  0  0  0  0
  190.0580  174.3360  146.5320 O   0  0  0  0  0  0  0  0  0  0  0  0
  185.7440  177.8850  145.9420 C   0  0  0  0  0  3  0  0  0  0  0  0
  187.6980  177.7470  144.6460 C   0  0  0  0  0  3  0  0  0  0  0  0
  188.3130  176.9710  145.6320 C   0  0  0  0  0  0  0  0  0  0  0  0
  186.3050  177.1210  146.9430 N   0  0  0  0  0  0  0  0  0  0  0  0
  187.5620  176.6610  146.7770 C   0  0  0  0  0  3  0  0  0  0  0  0
  186.4220  178.1900  144.7760 C   0  0  0  0  0  0  0  0  0  0  0  0
  185.8540  178.9660  143.6500 C   0  0  2  0  0  3  0  0  0  0  0  0
  186.7260  179.0440  142.5630 F   0  0  0  0  0  0  0  0  0  0  0  0
  185.4300  180.2630  144.1200 N   0  0  0  0  0  1  0  0  0  0  0  0
  188.7810  173.8150  142.0610 C   0  0  0  0  0  3  0  0  0  0  0  0
  189.4940  174.0020  144.3320 C   0  0  0  0  0  0  0  0  0  0  0  0
  189.1100  174.6030  143.1530 C   0  0  0  0  0  3  0  0  0  0  0  0
  189.7930  172.6680  144.4230 C   0  0  0  0  0  3  0  0  0  0  0  0
  188.9160  172.4010  142.1940 C   0  0  0  0  0  3  0  0  0  0  0  0
  189.4620  171.8250  143.3660 C   0  0  0  0  0  3  0  0  0  0  0  0
  1  7  1  0  0  0  0
  1  8  2  0  0  0  0
  2 32  1  0  0  0  0
  3  9  1  6  0  0  0
  4  8  1  6  0  0  0
  4  5  1  0  0  0  0
  4  6  1  0  0  0  0
  4  2  1  0  0  0  0
  5  3  1  0  0  0  0
  5  6  1  0  0  0  0
  6  2  1  0  0  0  0
  6 11  1  0  0  0  0
  7  3  1  0  0  0  0
 11 12  1  0  0  0  0
 11 10  1  0  0  0  0
 13 12  1  0  0  0  0
 14 15  1  0  0  0  0
 15 13  1  0  0  0  0
 15 19  1  0  0  0  0
 16 14  1  0  0  0  0
 16 18  1  0  0  0  0
 17 14  2  0  0  0  0
 18 13  1  0  0  0  0
 19 20  1  0  0  0  0
 21 16  1  0  0  0  0
 22 30  1  0  0  0  0
 24 22  1  0  0  0  0
 24 30  1  0  0  0  0
 25 24  1  0  0  0  0
 26 28  1  0  0  0  0
 27 29  1  0  0  0  0
 28 23  1  0  0  0  0
 28 24  1  0  0  0  0
 28 27  1  0  0  0  0
 29 22  1  0  0  0  0
 30 21  1  0  0  0  0
 31 30  1  0  0  0  0
 32 33  1  0  0  0  0
 33 35  1  0  0  0  0
 33 34  2  0  0  0  0
 35 36  1  0  0  0  0
 36 37  1  0  0  0  0
 36 41  1  0  0  0  0
 37 38  2  0  0  0  0
 39 42  1  0  0  0  0
 40 44  1  0  0  0  0
 40 41  2  0  0  0  0
 41 43  1  0  0  0  0
 43 42  2  0  0  0  0
 44 39  2  0  0  0  0
 45 47  1  0  0  0  0
 45 44  1  0  0  0  0
 46 45  1  0  0  0  0
 48 52  2  0  0  0  0
 48 50  1  0  0  0  0
 49 51  1  0  0  0  0
 49 37  1  0  0  0  0
 50 49  2  0  0  0  0
 52 53  1  0  0  0  0
 53 51  2  0  0  0  0
M  END
>  <MODEL>
4

>  <REMARK>
 VINA RESULT:      -7.2      3.325      8.275
  Name = 
  13 active torsions:
  status: ('A' for Active; 'I' for Inactive)
    1  A    between atoms: N_3  and  C_18
    2  A    between atoms: N_3  and  C_52
    3  A    between atoms: C_5  and  C_14
    4  A    between atoms: N_7  and  C_39
    5  A    between atoms: C_10  and  C_39
    6  A    between atoms: C_10  and  C_52
    7  A    between atoms: C_11  and  C_27
    8  A    between atoms: C_12  and  C_34
    9  A    between atoms: C_14  and  C_43
   10  A    between atoms: C_15  and  N_22
   11  A    between atoms: N_26  and  C_48
   12  A    between atoms: C_33  and  C_43
   13  A    between atoms: C_47  and  C_48
                            x       y       z     vdW  Elec       q    Type
                         _______ _______ _______ _____ _____    ______ ____

>  <TORSDO>
F 13

$$$$
=
 OpenBabel11062420203D

 53 60  0  0  1  0  0  0  0  0999 V2000
  196.5730  176.4170  141.1360 N   0  0  0  0  0  0  0  0  0  0  0  0
  193.6930  176.1750  142.9560 N   0  0  0  0  0  0  0  0  0  0  0  0
  196.3800  174.2670  142.1030 C   0  0  2  0  0  3  0  0  0  0  0  0
  194.2110  175.6410  141.6570 C   0  0  1  0  0  0  0  0  0  0  0  0
  194.8820  174.2090  141.7720 C   0  0  2  0  0  3  0  0  0  0  0  0
  193.8130  174.7500  142.7850 C   0  0  1  0  0  0  0  0  0  0  0  0
  197.0870  175.1560  141.5350 N   0  0  0  0  0  2  0  0  0  0  0  0
  195.3160  176.6530  141.3200 C   0  0  0  0  0  3  0  0  0  0  0  0
  197.1270  173.1080  142.5340 C   0  0  0  0  0  1  0  0  0  0  0  0
  194.5620  174.5870  145.1680 O   0  0  0  0  0  1  0  0  0  0  0  0
  193.8400  174.1070  144.2070 C   0  0  1  0  0  3  0  0  0  0  0  0
  192.6200  173.2500  144.5490 C   0  0  0  0  0  2  0  0  0  0  0  0
  192.8200  171.8000  144.3310 C   0  0  2  0  0  3  0  0  0  0  0  0
  194.3940  170.5080  143.2000 C   0  0  0  0  0  0  0  0  0  0  0  0
  194.2000  171.3350  144.3670 N   0  0  0  0  0  0  0  0  0  0  0  0
  193.2890  170.7390  142.3200 N   0  0  0  0  0  0  0  0  0  0  0  0
  195.0030  169.4370  143.2180 O   0  0  0  0  0  0  0  0  0  0  0  0
  192.3060  171.5520  142.9650 C   0  0  0  0  0  2  0  0  0  0  0  0
  194.8480  171.1160  145.6960 C   0  0  0  0  0  2  0  0  0  0  0  0
  196.3500  171.5540  145.7680 C   0  0  0  0  0  1  0  0  0  0  0  0
  193.0150  169.7470  141.2600 C   0  0  0  0  0  2  0  0  0  0  0  0
  192.7620  169.3230  138.9420 N   0  0  1  0  0  0  0  0  0  0  0  0
  190.0920  169.2890  137.8890 C   0  0  0  0  0  1  0  0  0  0  0  0
  192.0070  170.6270  138.8440 C   0  0  2  0  0  0  0  0  0  0  0  0
  190.9810  170.8550  139.7570 O   0  0  0  0  0  1  0  0  0  0  0  0
  190.8370  171.1630  136.5990 C   0  0  0  0  0  1  0  0  0  0  0  0
  192.5530  168.8150  136.6940 S   0  0  0  0  0  0  0  0  0  0  0  0
  191.3350  170.0840  137.5020 C   0  0  0  0  0  0  0  0  0  0  0  0
  193.6270  169.3870  137.9630 O   0  0  0  0  0  0  0  0  0  0  0  0
  193.0980  170.3790  139.8600 C   0  0  1  0  0  0  0  0  0  0  0  0
  194.3170  171.3710  139.4940 C   0  0  0  0  0  1  0  0  0  0  0  0
  192.2580  176.7920  142.8110 C   0  0  0  0  0  2  0  0  0  0  0  0
  191.4150  177.0690  144.1010 C   0  0  0  0  0  0  0  0  0  0  0  0
  191.9440  177.1570  145.1980 O   0  0  0  0  0  0  0  0  0  0  0  0
  190.1070  177.7820  143.9490 C   0  0  0  0  0  2  0  0  0  0  0  0
  188.8770  176.9250  143.8300 N   0  0  0  0  0  0  0  0  0  0  0  0
  188.8850  175.4410  144.0190 C   0  0  0  0  0  0  0  0  0  0  0  0
  189.0750  174.9450  145.1390 O   0  0  0  0  0  0  0  0  0  0  0  0
  185.4890  179.3230  144.2790 C   0  0  0  0  0  3  0  0  0  0  0  0
  187.0790  177.8580  145.1960 C   0  0  0  0  0  3  0  0  0  0  0  0
  187.6230  177.6320  143.9280 C   0  0  0  0  0  0  0  0  0  0  0  0
  185.9890  179.1360  143.0070 N   0  0  0  0  0  0  0  0  0  0  0  0
  187.0480  178.3160  142.8440 C   0  0  0  0  0  3  0  0  0  0  0  0
  186.0370  178.7060  145.3870 C   0  0  0  0  0  0  0  0  0  0  0  0
  185.5710  178.9050  146.7780 C   0  0  2  0  0  3  0  0  0  0  0  0
  186.3590  178.2250  147.7080 F   0  0  0  0  0  0  0  0  0  0  0  0
  184.1730  178.5630  146.8750 N   0  0  0  0  0  1  0  0  0  0  0  0
  188.5670  174.3820  140.5200 C   0  0  0  0  0  3  0  0  0  0  0  0
  188.8470  174.5820  142.8830 C   0  0  0  0  0  0  0  0  0  0  0  0
  188.7570  175.1740  141.6420 C   0  0  0  0  0  3  0  0  0  0  0  0
  188.9920  173.2290  143.0530 C   0  0  0  0  0  3  0  0  0  0  0  0
  188.5360  172.9660  140.7000 C   0  0  0  0  0  3  0  0  0  0  0  0
  188.7890  172.3840  141.9650 C   0  0  0  0  0  3  0  0  0  0  0  0
  1  8  2  0  0  0  0
  1  7  1  0  0  0  0
  3  9  1  6  0  0  0
  4  8  1  6  0  0  0
  4  5  1  0  0  0  0
  4  6  1  0  0  0  0
  4  2  1  0  0  0  0
  5  3  1  0  0  0  0
  5  6  1  0  0  0  0
  6  2  1  0  0  0  0
  6 11  1  0  0  0  0
  7  3  1  0  0  0  0
 11 12  1  0  0  0  0
 11 10  1  0  0  0  0
 13 15  1  0  0  0  0
 13 12  1  0  0  0  0
 14 17  2  0  0  0  0
 14 15  1  0  0  0  0
 15 19  1  0  0  0  0
 16 18  1  0  0  0  0
 16 14  1  0  0  0  0
 18 13  1  0  0  0  0
 19 20  1  0  0  0  0
 21 16  1  0  0  0  0
 22 30  1  0  0  0  0
 24 22  1  0  0  0  0
 24 25  1  0  0  0  0
 24 30  1  0  0  0  0
 26 28  1  0  0  0  0
 27 28  1  0  0  0  0
 27 29  1  0  0  0  0
 28 23  1  0  0  0  0
 28 24  1  0  0  0  0
 29 22  1  0  0  0  0
 30 21  1  0  0  0  0
 31 30  1  0  0  0  0
 32  2  1  0  0  0  0
 32 33  1  0  0  0  0
 33 34  2  0  0  0  0
 35 33  1  0  0  0  0
 36 41  1  0  0  0  0
 36 35  1  0  0  0  0
 36 37  1  0  0  0  0
 37 38  2  0  0  0  0
 39 44  1  0  0  0  0
 40 44  2  0  0  0  0
 41 40  1  0  0  0  0
 42 39  2  0  0  0  0
 43 42  1  0  0  0  0
 43 41  2  0  0  0  0
 44 45  1  0  0  0  0
 45 47  1  0  0  0  0
 45 46  1  0  0  0  0
 48 52  2  0  0  0  0
 48 50  1  0  0  0  0
 49 51  1  0  0  0  0
 49 37  1  0  0  0  0
 50 49  2  0  0  0  0
 52 53  1  0  0  0  0
 53 51  2  0  0  0  0
M  END
>  <MODEL>
5

>  <REMARK>
 VINA RESULT:      -7.0      3.090      7.997
  Name = 
  13 active torsions:
  status: ('A' for Active; 'I' for Inactive)
    1  A    between atoms: N_3  and  C_18
    2  A    between atoms: N_3  and  C_52
    3  A    between atoms: C_5  and  C_14
    4  A    between atoms: N_7  and  C_39
    5  A    between atoms: C_10  and  C_39
    6  A    between atoms: C_10  and  C_52
    7  A    between atoms: C_11  and  C_27
    8  A    between atoms: C_12  and  C_34
    9  A    between atoms: C_14  and  C_43
   10  A    between atoms: C_15  and  N_22
   11  A    between atoms: N_26  and  C_48
   12  A    between atoms: C_33  and  C_43
   13  A    between atoms: C_47  and  C_48
                            x       y       z     vdW  Elec       q    Type
                         _______ _______ _______ _____ _____    ______ ____

>  <TORSDO>
F 13

$$$$
=
 OpenBabel11062420203D

 53 60  0  0  1  0  0  0  0  0999 V2000
  197.2510  176.7880  142.8430 N   0  0  0  0  0  0  0  0  0  0  0  0
  193.9800  176.0650  143.5070 N   0  0  0  0  0  0  0  0  0  0  0  0
  197.0620  174.6630  143.8630 C   0  0  2  0  0  3  0  0  0  0  0  0
  195.0240  175.6060  142.5390 C   0  0  1  0  0  0  0  0  0  0  0  0
  195.8260  174.3240  143.0170 C   0  0  2  0  0  3  0  0  0  0  0  0
  194.3840  174.6830  143.5200 C   0  0  1  0  0  0  0  0  0  0  0  0
  197.7760  175.6530  143.5130 N   0  0  0  0  0  2  0  0  0  0  0  0
  195.9960  176.7950  142.5370 C   0  0  0  0  0  3  0  0  0  0  0  0
  197.7700  173.6700  144.6380 C   0  0  0  0  0  1  0  0  0  0  0  0
  194.4350  174.5670  146.0190 O   0  0  0  0  0  1  0  0  0  0  0  0
  193.9810  174.0890  144.9060 C   0  0  1  0  0  3  0  0  0  0  0  0
  192.6690  173.3040  144.9130 C   0  0  0  0  0  2  0  0  0  0  0  0
  192.7860  171.9260  144.3850 C   0  0  2  0  0  3  0  0  0  0  0  0
  194.3920  170.7640  143.1620 C   0  0  0  0  0  0  0  0  0  0  0  0
  194.1100  171.3250  144.4610 N   0  0  0  0  0  0  0  0  0  0  0  0
  193.4310  171.2990  142.2450 N   0  0  0  0  0  0  0  0  0  0  0  0
  194.9110  169.6590  142.9950 O   0  0  0  0  0  0  0  0  0  0  0  0
  192.4360  172.0440  142.9510 C   0  0  0  0  0  2  0  0  0  0  0  0
  194.5610  170.7490  145.7640 C   0  0  0  0  0  2  0  0  0  0  0  0
  196.1070  170.8200  146.0080 C   0  0  0  0  0  1  0  0  0  0  0  0
  193.2230  170.6030  140.9590 C   0  0  0  0  0  2  0  0  0  0  0  0
  194.3820  172.4230  139.9750 N   0  0  1  0  0  0  0  0  0  0  0  0
  196.7290  171.8170  138.4390 C   0  0  0  0  0  1  0  0  0  0  0  0
  194.2150  171.7340  138.6420 C   0  0  2  0  0  0  0  0  0  0  0  0
  194.5670  170.3890  138.5560 O   0  0  0  0  0  1  0  0  0  0  0  0
  195.4770  172.7330  136.6160 C   0  0  0  0  0  1  0  0  0  0  0  0
  195.5350  174.2330  139.1090 S   0  0  0  0  0  0  0  0  0  0  0  0
  195.4540  172.5830  138.1010 C   0  0  0  0  0  0  0  0  0  0  0  0
  194.0010  173.6510  139.7430 O   0  0  0  0  0  0  0  0  0  0  0  0
  193.2270  171.5870  139.7770 C   0  0  1  0  0  0  0  0  0  0  0  0
  191.8480  172.2680  139.2900 C   0  0  0  0  0  1  0  0  0  0  0  0
  192.6240  176.4050  142.7960 C   0  0  0  0  0  2  0  0  0  0  0  0
  191.3980  176.8450  143.6650 C   0  0  0  0  0  0  0  0  0  0  0  0
  191.5050  177.0230  144.8690 O   0  0  0  0  0  0  0  0  0  0  0  0
  190.2870  177.5900  142.9920 C   0  0  0  0  0  2  0  0  0  0  0  0
  188.9040  177.0160  143.1290 N   0  0  0  0  0  0  0  0  0  0  0  0
  187.6770  177.8530  143.3010 C   0  0  0  0  0  0  0  0  0  0  0  0
  187.2520  178.5540  142.3700 O   0  0  0  0  0  0  0  0  0  0  0  0
  188.9080  173.1010  141.6790 C   0  0  0  0  0  3  0  0  0  0  0  0
  188.6220  175.4040  141.3160 C   0  0  0  0  0  3  0  0  0  0  0  0
  188.7590  175.6500  142.6850 C   0  0  0  0  0  0  0  0  0  0  0  0
  189.0510  173.2910  143.0370 N   0  0  0  0  0  0  0  0  0  0  0  0
  188.9930  174.5480  143.5230 C   0  0  0  0  0  3  0  0  0  0  0  0
  188.7130  174.1510  140.8020 C   0  0  0  0  0  0  0  0  0  0  0  0
  188.5980  174.0110  139.3320 C   0  0  2  0  0  3  0  0  0  0  0  0
  187.7760  174.9860  138.7660 F   0  0  0  0  0  0  0  0  0  0  0  0
  188.1810  172.6700  139.0040 N   0  0  0  0  0  1  0  0  0  0  0  0
  187.0980  177.3410  146.8870 C   0  0  0  0  0  3  0  0  0  0  0  0
  187.0850  177.9890  144.5890 C   0  0  0  0  0  0  0  0  0  0  0  0
  187.7130  177.3640  145.6450 C   0  0  0  0  0  3  0  0  0  0  0  0
  185.9880  178.7950  144.7490 C   0  0  0  0  0  3  0  0  0  0  0  0
  185.8560  178.0290  147.0300 C   0  0  0  0  0  3  0  0  0  0  0  0
  185.3170  178.7920  145.9680 C   0  0  0  0  0  3  0  0  0  0  0  0
  1  7  1  0  0  0  0
  2  6  1  0  0  0  0
  3  9  1  6  0  0  0
  4  8  1  6  0  0  0
  4  5  1  0  0  0  0
  4  2  1  0  0  0  0
  4  6  1  0  0  0  0
  5  6  1  0  0  0  0
  5  3  1  0  0  0  0
  6 11  1  0  0  0  0
  7  3  1  0  0  0  0
  8  1  2  0  0  0  0
 11 12  1  0  0  0  0
 11 10  1  0  0  0  0
 13 15  1  0  0  0  0
 13 12  1  0  0  0  0
 14 15  1  0  0  0  0
 15 19  1  0  0  0  0
 16 18  1  0  0  0  0
 16 14  1  0  0  0  0
 17 14  2  0  0  0  0
 18 13  1  0  0  0  0
 19 20  1  0  0  0  0
 21 16  1  0  0  0  0
 24 30  1  0  0  0  0
 24 22  1  0  0  0  0
 25 24  1  0  0  0  0
 26 28  1  0  0  0  0
 27 29  1  0  0  0  0
 28 23  1  0  0  0  0
 28 24  1  0  0  0  0
 28 27  1  0  0  0  0
 29 22  1  0  0  0  0
 30 22  1  0  0  0  0
 30 21  1  0  0  0  0
 31 30  1  0  0  0  0
 32  2  1  0  0  0  0
 32 33  1  0  0  0  0
 33 34  2  0  0  0  0
 35 36  1  0  0  0  0
 35 33  1  0  0  0  0
 36 37  1  0  0  0  0
 37 49  1  0  0  0  0
 38 37  2  0  0  0  0
 39 42  1  0  0  0  0
 40 41  2  0  0  0  0
 41 36  1  0  0  0  0
 41 43  1  0  0  0  0
 42 43  2  0  0  0  0
 44 40  1  0  0  0  0
 44 39  2  0  0  0  0
 45 44  1  0  0  0  0
 46 45  1  0  0  0  0
 47 45  1  0  0  0  0
 48 52  1  0  0  0  0
 49 51  2  0  0  0  0
 49 50  1  0  0  0  0
 50 48  2  0  0  0  0
 51 53  1  0  0  0  0
 53 52  2  0  0  0  0
M  END
>  <MODEL>
6

>  <REMARK>
 VINA RESULT:      -7.0      3.129      8.036
  Name = 
  13 active torsions:
  status: ('A' for Active; 'I' for Inactive)
    1  A    between atoms: N_3  and  C_18
    2  A    between atoms: N_3  and  C_52
    3  A    between atoms: C_5  and  C_14
    4  A    between atoms: N_7  and  C_39
    5  A    between atoms: C_10  and  C_39
    6  A    between atoms: C_10  and  C_52
    7  A    between atoms: C_11  and  C_27
    8  A    between atoms: C_12  and  C_34
    9  A    between atoms: C_14  and  C_43
   10  A    between atoms: C_15  and  N_22
   11  A    between atoms: N_26  and  C_48
   12  A    between atoms: C_33  and  C_43
   13  A    between atoms: C_47  and  C_48
                            x       y       z     vdW  Elec       q    Type
                         _______ _______ _______ _____ _____    ______ ____

>  <TORSDO>
F 13

$$$$
=
 OpenBabel11062420203D

 53 60  0  0  1  0  0  0  0  0999 V2000
  193.1500  176.8610  147.6310 N   0  0  0  0  0  0  0  0  0  0  0  0
  194.3610  176.6490  144.4440 N   0  0  0  0  0  0  0  0  0  0  0  0
  191.5760  175.8080  146.2140 C   0  0  2  0  0  3  0  0  0  0  0  0
  194.1020  175.7070  145.5790 C   0  0  1  0  0  0  0  0  0  0  0  0
  192.6830  175.0020  145.5190 C   0  0  2  0  0  3  0  0  0  0  0  0
  193.4230  175.5730  144.2580 C   0  0  1  0  0  0  0  0  0  0  0  0
  191.8530  176.3850  147.3110 N   0  0  0  0  0  2  0  0  0  0  0  0
  194.1050  176.6590  146.7840 C   0  0  0  0  0  3  0  0  0  0  0  0
  190.1730  175.5120  146.0410 C   0  0  0  0  0  1  0  0  0  0  0  0
  192.2980  177.1770  142.7020 O   0  0  0  0  0  1  0  0  0  0  0  0
  192.5100  175.9490  143.0490 C   0  0  1  0  0  3  0  0  0  0  0  0
  192.3230  174.8390  142.0140 C   0  0  0  0  0  2  0  0  0  0  0  0
  191.0520  174.0930  142.1500 C   0  0  2  0  0  3  0  0  0  0  0  0
  189.0990  173.9280  140.8920 C   0  0  0  0  0  0  0  0  0  0  0  0
  190.4930  173.5560  140.9170 N   0  0  0  0  0  0  0  0  0  0  0  0
  188.9030  174.9330  141.8930 N   0  0  0  0  0  0  0  0  0  0  0  0
  188.1960  173.1620  140.5490 O   0  0  0  0  0  0  0  0  0  0  0  0
  190.0890  175.0880  142.6750 C   0  0  0  0  0  2  0  0  0  0  0  0
  191.0560  172.2850  140.3700 C   0  0  0  0  0  2  0  0  0  0  0  0
  191.8200  171.4060  141.4180 C   0  0  0  0  0  1  0  0  0  0  0  0
  187.5290  175.1980  142.3630 C   0  0  0  0  0  2  0  0  0  0  0  0
  185.8050  176.7970  142.6720 N   0  0  1  0  0  0  0  0  0  0  0  0
  185.1530  177.5290  145.3700 C   0  0  0  0  0  1  0  0  0  0  0  0
  186.7940  177.6270  143.4550 C   0  0  2  0  0  0  0  0  0  0  0  0
  187.5230  176.9950  144.4590 O   0  0  0  0  0  1  0  0  0  0  0  0
  185.8870  179.7070  144.6990 C   0  0  0  0  0  1  0  0  0  0  0  0
  184.0560  178.2890  142.9350 S   0  0  0  0  0  0  0  0  0  0  0  0
  185.5580  178.3560  144.1540 C   0  0  0  0  0  0  0  0  0  0  0  0
  185.2720  177.6490  141.8370 O   0  0  0  0  0  0  0  0  0  0  0  0
  187.2000  176.7010  142.3320 C   0  0  1  0  0  0  0  0  0  0  0  0
  187.7770  177.6280  141.1430 C   0  0  0  0  0  1  0  0  0  0  0  0
  195.7940  176.4590  143.8350 C   0  0  0  0  0  2  0  0  0  0  0  0
  195.9340  176.1410  142.3080 C   0  0  0  0  0  0  0  0  0  0  0  0
  195.5540  176.9300  141.4580 O   0  0  0  0  0  0  0  0  0  0  0  0
  197.0120  175.1920  141.8830 C   0  0  0  0  0  2  0  0  0  0  0  0
  196.5680  173.8900  141.2730 N   0  0  0  0  0  0  0  0  0  0  0  0
  196.5870  173.6200  139.8030 C   0  0  0  0  0  0  0  0  0  0  0  0
  197.6600  173.4950  139.1950 O   0  0  0  0  0  0  0  0  0  0  0  0
  196.0670  170.4870  143.6390 C   0  0  0  0  0  3  0  0  0  0  0  0
  195.3860  172.6450  143.0110 C   0  0  0  0  0  3  0  0  0  0  0  0
  196.5070  172.7740  142.1860 C   0  0  0  0  0  0  0  0  0  0  0  0
  197.1880  170.5630  142.8390 N   0  0  0  0  0  0  0  0  0  0  0  0
  197.3890  171.6840  142.1140 C   0  0  0  0  0  3  0  0  0  0  0  0
  195.1450  171.5130  143.7200 C   0  0  0  0  0  0  0  0  0  0  0  0
  193.9040  171.4690  144.5260 C   0  0  2  0  0  3  0  0  0  0  0  0
  194.0740  172.0150  145.7980 F   0  0  0  0  0  0  0  0  0  0  0  0
  193.3970  170.1180  144.5610 N   0  0  0  0  0  1  0  0  0  0  0  0
  193.6470  172.4760  137.9300 C   0  0  0  0  0  3  0  0  0  0  0  0
  195.3760  173.6780  139.0550 C   0  0  0  0  0  0  0  0  0  0  0  0
  194.7440  172.4850  138.7780 C   0  0  0  0  0  3  0  0  0  0  0  0
  194.8420  174.8970  138.7250 C   0  0  0  0  0  3  0  0  0  0  0  0
  193.1810  173.7270  137.4280 C   0  0  0  0  0  3  0  0  0  0  0  0
  193.7550  174.9470  137.8570 C   0  0  0  0  0  3  0  0  0  0  0  0
  2  4  1  0  0  0  0
  3  9  1  1  0  0  0
  3  7  1  0  0  0  0
  4  8  1  1  0  0  0
  5  4  1  0  0  0  0
  5  3  1  0  0  0  0
  6  2  1  0  0  0  0
  6  5  1  0  0  0  0
  6  4  1  0  0  0  0
  7  1  1  0  0  0  0
  8  1  2  0  0  0  0
 10 11  1  0  0  0  0
 11  6  1  0  0  0  0
 12 13  1  0  0  0  0
 12 11  1  0  0  0  0
 13 18  1  0  0  0  0
 14 15  1  0  0  0  0
 14 16  1  0  0  0  0
 15 13  1  0  0  0  0
 16 21  1  0  0  0  0
 16 18  1  0  0  0  0
 17 14  2  0  0  0  0
 19 15  1  0  0  0  0
 19 20  1  0  0  0  0
 22 24  1  0  0  0  0
 24 28  1  0  0  0  0
 24 25  1  0  0  0  0
 27 28  1  0  0  0  0
 28 26  1  0  0  0  0
 28 23  1  0  0  0  0
 29 22  1  0  0  0  0
 29 27  1  0  0  0  0
 30 21  1  0  0  0  0
 30 22  1  0  0  0  0
 30 24  1  0  0  0  0
 31 30  1  0  0  0  0
 32  2  1  0  0  0  0
 33 32  1  0  0  0  0
 34 33  2  0  0  0  0
 35 33  1  0  0  0  0
 36 35  1  0  0  0  0
 36 41  1  0  0  0  0
 37 36  1  0  0  0  0
 38 37  2  0  0  0  0
 39 44  1  0  0  0  0
 40 44  2  0  0  0  0
 41 40  1  0  0  0  0
 42 39  2  0  0  0  0
 43 41  2  0  0  0  0
 43 42  1  0  0  0  0
 44 45  1  0  0  0  0
 45 47  1  0  0  0  0
 45 46  1  0  0  0  0
 48 50  1  0  0  0  0
 49 37  1  0  0  0  0
 50 49  2  0  0  0  0
 51 49  1  0  0  0  0
 52 53  1  0  0  0  0
 52 48  2  0  0  0  0
 53 51  2  0  0  0  0
M  END
>  <MODEL>
7

>  <REMARK>
 VINA RESULT:      -6.9      3.059      6.710
  Name = 
  13 active torsions:
  status: ('A' for Active; 'I' for Inactive)
    1  A    between atoms: N_3  and  C_18
    2  A    between atoms: N_3  and  C_52
    3  A    between atoms: C_5  and  C_14
    4  A    between atoms: N_7  and  C_39
    5  A    between atoms: C_10  and  C_39
    6  A    between atoms: C_10  and  C_52
    7  A    between atoms: C_11  and  C_27
    8  A    between atoms: C_12  and  C_34
    9  A    between atoms: C_14  and  C_43
   10  A    between atoms: C_15  and  N_22
   11  A    between atoms: N_26  and  C_48
   12  A    between atoms: C_33  and  C_43
   13  A    between atoms: C_47  and  C_48
                            x       y       z     vdW  Elec       q    Type
                         _______ _______ _______ _____ _____    ______ ____

>  <TORSDO>
F 13

$$$$
=
 OpenBabel11062420203D

 53 60  0  0  1  0  0  0  0  0999 V2000
  194.1830  176.2710  146.7810 N   0  0  0  0  0  0  0  0  0  0  0  0
  192.7580  176.0550  143.6840 N   0  0  0  0  0  0  0  0  0  0  0  0
  195.3020  174.6560  145.4630 C   0  0  2  0  0  3  0  0  0  0  0  0
  194.0290  176.5900  144.2660 C   0  0  1  0  0  0  0  0  0  0  0  0
  195.2370  175.5640  144.2270 C   0  0  2  0  0  3  0  0  0  0  0  0
  194.0130  175.5020  143.2460 C   0  0  1  0  0  0  0  0  0  0  0  0
  195.0600  175.1710  146.5990 N   0  0  0  0  0  2  0  0  0  0  0  0
  193.6370  176.8000  145.7360 C   0  0  0  0  0  3  0  0  0  0  0  0
  196.1270  173.4720  145.5170 C   0  0  0  0  0  1  0  0  0  0  0  0
  192.5900  173.8290  142.0480 O   0  0  0  0  0  1  0  0  0  0  0  0
  193.7180  174.1040  142.6190 C   0  0  1  0  0  3  0  0  0  0  0  0
  194.9580  173.2910  142.2460 C   0  0  0  0  0  2  0  0  0  0  0  0
  195.3890  173.4570  140.8390 C   0  0  2  0  0  3  0  0  0  0  0  0
  194.7000  174.7850  139.0540 C   0  0  0  0  0  0  0  0  0  0  0  0
  195.3780  174.8210  140.3270 N   0  0  0  0  0  0  0  0  0  0  0  0
  194.0310  173.5230  138.9580 N   0  0  0  0  0  0  0  0  0  0  0  0
  195.0900  175.3960  138.0570 O   0  0  0  0  0  0  0  0  0  0  0  0
  194.4050  172.6810  140.0510 C   0  0  0  0  0  2  0  0  0  0  0  0
  196.5180  175.7250  140.6710 C   0  0  0  0  0  2  0  0  0  0  0  0
  197.8930  174.9970  140.8580 C   0  0  0  0  0  1  0  0  0  0  0  0
  193.6060  173.0510  137.6250 C   0  0  0  0  0  2  0  0  0  0  0  0
  191.4810  172.4690  136.7500 N   0  0  1  0  0  0  0  0  0  0  0  0
  189.6130  171.2250  138.5400 C   0  0  0  0  0  1  0  0  0  0  0  0
  190.8650  173.3040  137.8460 C   0  0  2  0  0  0  0  0  0  0  0  0
  191.3050  173.0950  139.1500 O   0  0  0  0  0  1  0  0  0  0  0  0
  188.2960  173.1840  138.1380 C   0  0  0  0  0  1  0  0  0  0  0  0
  189.4530  171.8320  135.8350 S   0  0  0  0  0  0  0  0  0  0  0  0
  189.5170  172.4690  137.6620 C   0  0  0  0  0  0  0  0  0  0  0  0
  190.8650  172.8670  135.6680 O   0  0  0  0  0  0  0  0  0  0  0  0
  192.2200  173.6000  137.2460 C   0  0  1  0  0  0  0  0  0  0  0  0
  192.0940  175.0110  136.4730 C   0  0  0  0  0  1  0  0  0  0  0  0
  192.0630  177.0890  142.7310 C   0  0  0  0  0  2  0  0  0  0  0  0
  190.7100  177.7410  143.1740 C   0  0  0  0  0  0  0  0  0  0  0  0
  189.7860  177.8810  142.3880 O   0  0  0  0  0  0  0  0  0  0  0  0
  190.3310  177.6650  144.6210 C   0  0  0  0  0  2  0  0  0  0  0  0
  189.4020  176.5510  145.0210 N   0  0  0  0  0  0  0  0  0  0  0  0
  189.8500  175.1400  145.2290 C   0  0  0  0  0  0  0  0  0  0  0  0
  190.5660  174.8380  146.1950 O   0  0  0  0  0  0  0  0  0  0  0  0
  185.5640  177.4720  146.3830 C   0  0  0  0  0  3  0  0  0  0  0  0
  187.2810  177.7430  144.8030 C   0  0  0  0  0  3  0  0  0  0  0  0
  188.1440  176.9740  145.5880 C   0  0  0  0  0  0  0  0  0  0  0  0
  186.3760  176.7060  147.1940 N   0  0  0  0  0  0  0  0  0  0  0  0
  187.6370  176.4510  146.7890 C   0  0  0  0  0  3  0  0  0  0  0  0
  185.9970  177.9810  145.1730 C   0  0  0  0  0  0  0  0  0  0  0  0
  185.1580  178.7700  144.2430 C   0  0  2  0  0  3  0  0  0  0  0  0
  185.8180  179.8980  143.7540 F   0  0  0  0  0  0  0  0  0  0  0  0
  183.9010  179.0900  144.8760 N   0  0  0  0  0  1  0  0  0  0  0  0
  188.5890  173.6470  142.1240 C   0  0  0  0  0  3  0  0  0  0  0  0
  189.6010  174.1610  144.2240 C   0  0  0  0  0  0  0  0  0  0  0  0
  188.9860  174.5830  143.0660 C   0  0  0  0  0  3  0  0  0  0  0  0
  190.0560  172.8800  144.4000 C   0  0  0  0  0  3  0  0  0  0  0  0
  188.8970  172.2770  142.3750 C   0  0  0  0  0  3  0  0  0  0  0  0
  189.6680  171.8940  143.4970 C   0  0  0  0  0  3  0  0  0  0  0  0
  2  4  1  0  0  0  0
  3  9  1  1  0  0  0
  3  7  1  0  0  0  0
  4  8  1  6  0  0  0
  5  4  1  0  0  0  0
  5  3  1  0  0  0  0
  6  2  1  0  0  0  0
  6  5  1  0  0  0  0
  6  4  1  0  0  0  0
  7  1  1  0  0  0  0
  8  1  2  0  0  0  0
 10 11  1  0  0  0  0
 11  6  1  0  0  0  0
 12 11  1  0  0  0  0
 13 12  1  0  0  0  0
 14 15  1  0  0  0  0
 15 19  1  0  0  0  0
 15 13  1  0  0  0  0
 16 14  1  0  0  0  0
 16 18  1  0  0  0  0
 17 14  2  0  0  0  0
 18 13  1  0  0  0  0
 19 20  1  0  0  0  0
 21 16  1  0  0  0  0
 22 30  1  0  0  0  0
 22 24  1  0  0  0  0
 24 25  1  0  0  0  0
 27 28  1  0  0  0  0
 28 24  1  0  0  0  0
 28 26  1  0  0  0  0
 28 23  1  0  0  0  0
 29 27  1  0  0  0  0
 29 22  1  0  0  0  0
 30 21  1  0  0  0  0
 30 24  1  0  0  0  0
 31 30  1  0  0  0  0
 32 33  1  0  0  0  0
 32  2  1  0  0  0  0
 33 35  1  0  0  0  0
 34 33  2  0  0  0  0
 35 36  1  0  0  0  0
 36 37  1  0  0  0  0
 36 41  1  0  0  0  0
 37 38  2  0  0  0  0
 39 42  1  0  0  0  0
 40 44  1  0  0  0  0
 40 41  2  0  0  0  0
 41 43  1  0  0  0  0
 43 42  2  0  0  0  0
 44 39  2  0  0  0  0
 45 47  1  0  0  0  0
 45 44  1  0  0  0  0
 46 45  1  0  0  0  0
 48 52  2  0  0  0  0
 48 50  1  0  0  0  0
 49 51  1  0  0  0  0
 49 37  1  0  0  0  0
 50 49  2  0  0  0  0
 52 53  1  0  0  0  0
 53 51  2  0  0  0  0
M  END
>  <MODEL>
8

>  <REMARK>
 VINA RESULT:      -6.9      2.899      7.277
  Name = 
  13 active torsions:
  status: ('A' for Active; 'I' for Inactive)
    1  A    between atoms: N_3  and  C_18
    2  A    between atoms: N_3  and  C_52
    3  A    between atoms: C_5  and  C_14
    4  A    between atoms: N_7  and  C_39
    5  A    between atoms: C_10  and  C_39
    6  A    between atoms: C_10  and  C_52
    7  A    between atoms: C_11  and  C_27
    8  A    between atoms: C_12  and  C_34
    9  A    between atoms: C_14  and  C_43
   10  A    between atoms: C_15  and  N_22
   11  A    between atoms: N_26  and  C_48
   12  A    between atoms: C_33  and  C_43
   13  A    between atoms: C_47  and  C_48
                            x       y       z     vdW  Elec       q    Type
                         _______ _______ _______ _____ _____    ______ ____

>  <TORSDO>
F 13

$$$$
=
 OpenBabel11062420203D

 53 60  0  0  1  0  0  0  0  0999 V2000
  190.8370  169.8300  141.9520 N   0  0  0  0  0  0  0  0  0  0  0  0
  190.5070  172.9440  140.5860 N   0  0  0  0  0  0  0  0  0  0  0  0
  192.5640  170.2370  140.3880 C   0  0  2  0  0  3  0  0  0  0  0  0
  191.4250  172.2690  141.5570 C   0  0  1  0  0  0  0  0  0  0  0  0
  192.7390  171.6760  140.8960 C   0  0  2  0  0  3  0  0  0  0  0  0
  191.9100  172.8540  140.2740 C   0  0  1  0  0  0  0  0  0  0  0  0
  191.8970  169.4250  141.1020 N   0  0  0  0  0  2  0  0  0  0  0  0
  190.5650  171.0910  142.0360 C   0  0  0  0  0  3  0  0  0  0  0  0
  193.5160  169.6030  139.5070 C   0  0  0  0  0  1  0  0  0  0  0  0
  191.3030  172.4400  137.8820 O   0  0  0  0  0  1  0  0  0  0  0  0
  192.0630  173.0510  138.7330 C   0  0  1  0  0  3  0  0  0  0  0  0
  192.7560  174.3480  138.3150 C   0  0  0  0  0  2  0  0  0  0  0  0
  194.2290  174.2420  138.2210 C   0  0  2  0  0  3  0  0  0  0  0  0
  195.8410  172.8440  139.1550 C   0  0  0  0  0  0  0  0  0  0  0  0
  194.7700  172.8900  138.1890 N   0  0  0  0  0  0  0  0  0  0  0  0
  195.7300  174.0110  139.9770 N   0  0  0  0  0  0  0  0  0  0  0  0
  196.9230  172.2910  138.9470 O   0  0  0  0  0  0  0  0  0  0  0  0
  194.7310  174.8890  139.4550 C   0  0  0  0  0  2  0  0  0  0  0  0
  194.7410  172.1370  136.8980 C   0  0  0  0  0  2  0  0  0  0  0  0
  194.7110  173.0400  135.6180 C   0  0  0  0  0  1  0  0  0  0  0  0
  196.9060  174.4290  140.7660 C   0  0  0  0  0  2  0  0  0  0  0  0
  195.5370  173.9550  142.6430 N   0  0  1  0  0  0  0  0  0  0  0  0
  196.4580  171.9470  144.4750 C   0  0  0  0  0  1  0  0  0  0  0  0
  196.7270  174.2660  143.5180 C   0  0  2  0  0  0  0  0  0  0  0  0
  197.9400  173.6580  143.2070 O   0  0  0  0  0  1  0  0  0  0  0  0
  196.5170  173.7530  146.0460 C   0  0  0  0  0  1  0  0  0  0  0  0
  194.1280  173.4570  144.4100 S   0  0  0  0  0  0  0  0  0  0  0  0
  196.0450  173.4020  144.6740 C   0  0  0  0  0  0  0  0  0  0  0  0
  194.5630  174.6400  143.1830 O   0  0  0  0  0  0  0  0  0  0  0  0
  196.5020  174.9120  142.1700 C   0  0  1  0  0  0  0  0  0  0  0  0
  196.2380  176.4810  142.4380 C   0  0  0  0  0  1  0  0  0  0  0  0
  189.9820  174.3190  141.1260 C   0  0  0  0  0  2  0  0  0  0  0  0
  188.4470  174.5040  141.3720 C   0  0  0  0  0  0  0  0  0  0  0  0
  187.8060  173.6930  142.0220 O   0  0  0  0  0  0  0  0  0  0  0  0
  187.8880  175.8930  141.3290 C   0  0  0  0  0  2  0  0  0  0  0  0
  187.6260  176.5600  142.6510 N   0  0  0  0  0  0  0  0  0  0  0  0
  188.7110  176.9810  143.5910 C   0  0  0  0  0  0  0  0  0  0  0  0
  189.4640  177.9250  143.3080 O   0  0  0  0  0  0  0  0  0  0  0  0
  184.0420  178.6420  143.1470 C   0  0  0  0  0  3  0  0  0  0  0  0
  185.8910  177.5280  144.0720 C   0  0  0  0  0  3  0  0  0  0  0  0
  186.3140  177.1420  142.7970 C   0  0  0  0  0  0  0  0  0  0  0  0
  184.4160  178.2880  141.8680 N   0  0  0  0  0  0  0  0  0  0  0  0
  185.5430  177.5650  141.7020 C   0  0  0  0  0  3  0  0  0  0  0  0
  184.7810  178.2860  144.2590 C   0  0  0  0  0  0  0  0  0  0  0  0
  184.4510  178.6760  145.6490 C   0  0  2  0  0  3  0  0  0  0  0  0
  185.3050  179.6630  146.1430 F   0  0  0  0  0  0  0  0  0  0  0  0
  184.4130  177.5010  146.4860 N   0  0  0  0  0  1  0  0  0  0  0  0
  190.1380  174.2990  145.6460 C   0  0  0  0  0  3  0  0  0  0  0  0
  189.0000  176.1920  144.7410 C   0  0  0  0  0  0  0  0  0  0  0  0
  189.9330  175.1870  144.6020 C   0  0  0  0  0  3  0  0  0  0  0  0
  188.4210  176.5090  145.9420 C   0  0  0  0  0  3  0  0  0  0  0  0
  189.4080  174.5070  146.8540 C   0  0  0  0  0  3  0  0  0  0  0  0
  188.5750  175.6390  147.0190 C   0  0  0  0  0  3  0  0  0  0  0  0
  1  8  2  0  0  0  0
  2 32  1  0  0  0  0
  2  4  1  0  0  0  0
  3  9  1  1  0  0  0
  3  5  1  0  0  0  0
  3  7  1  0  0  0  0
  4  8  1  1  0  0  0
  5  4  1  0  0  0  0
  6  2  1  0  0  0  0
  6  5  1  0  0  0  0
  6  4  1  0  0  0  0
  7  1  1  0  0  0  0
 10 11  1  0  0  0  0
 11  6  1  0  0  0  0
 12 11  1  0  0  0  0
 13 12  1  0  0  0  0
 13 18  1  0  0  0  0
 14 16  1  0  0  0  0
 15 13  1  0  0  0  0
 15 14  1  0  0  0  0
 16 21  1  0  0  0  0
 17 14  2  0  0  0  0
 18 16  1  0  0  0  0
 19 15  1  0  0  0  0
 20 19  1  0  0  0  0
 21 30  1  0  0  0  0
 22 29  1  0  0  0  0
 22 24  1  0  0  0  0
 23 28  1  0  0  0  0
 24 28  1  0  0  0  0
 25 24  1  0  0  0  0
 27 28  1  0  0  0  0
 28 26  1  0  0  0  0
 29 27  1  0  0  0  0
 30 31  1  0  0  0  0
 30 22  1  0  0  0  0
 30 24  1  0  0  0  0
 32 33  1  0  0  0  0
 33 34  2  0  0  0  0
 35 33  1  0  0  0  0
 35 36  1  0  0  0  0
 36 41  1  0  0  0  0
 36 37  1  0  0  0  0
 37 49  1  0  0  0  0
 38 37  2  0  0  0  0
 39 44  1  0  0  0  0
 40 44  2  0  0  0  0
 41 40  1  0  0  0  0
 42 39  2  0  0  0  0
 43 42  1  0  0  0  0
 43 41  2  0  0  0  0
 44 45  1  0  0  0  0
 45 46  1  0  0  0  0
 45 47  1  0  0  0  0
 48 52  1  0  0  0  0
 49 51  2  0  0  0  0
 50 49  1  0  0  0  0
 50 48  2  0  0  0  0
 51 53  1  0  0  0  0
 52 53  2  0  0  0  0
M  END
>  <MODEL>
9

>  <REMARK>
 VINA RESULT:      -6.9      3.579      8.942
  Name = 
  13 active torsions:
  status: ('A' for Active; 'I' for Inactive)
    1  A    between atoms: N_3  and  C_18
    2  A    between atoms: N_3  and  C_52
    3  A    between atoms: C_5  and  C_14
    4  A    between atoms: N_7  and  C_39
    5  A    between atoms: C_10  and  C_39
    6  A    between atoms: C_10  and  C_52
    7  A    between atoms: C_11  and  C_27
    8  A    between atoms: C_12  and  C_34
    9  A    between atoms: C_14  and  C_43
   10  A    between atoms: C_15  and  N_22
   11  A    between atoms: N_26  and  C_48
   12  A    between atoms: C_33  and  C_43
   13  A    between atoms: C_47  and  C_48
                            x       y       z     vdW  Elec       q    Type
                         _______ _______ _______ _____ _____    ______ ____

>  <TORSDO>
F 13

$$$$
