=
 OpenBabel11062419353D

 42 45  0  0  1  0  0  0  0  0999 V2000
  184.5750  178.2350  142.3980 C   0  0  0  0  0  0  0  0  0  0  0  0
  185.5020  177.4310  145.0470 C   0  0  0  0  0  0  0  0  0  0  0  0
  184.4700  178.2800  144.9630 C   0  0  0  0  0  3  0  0  0  0  0  0
  187.2710  175.9610  142.2760 C   0  0  0  0  0  0  0  0  0  0  0  0
  184.0050  178.8870  143.6460 C   0  0  0  0  0  2  0  0  0  0  0  0
  187.0990  176.1470  143.6840 N   0  0  0  0  0  0  0  0  0  0  0  0
  185.6080  177.3870  142.5240 C   0  0  0  0  0  0  0  0  0  0  0  0
  186.1340  176.9940  143.8010 C   0  0  0  0  0  0  0  0  0  0  0  0
  186.3920  176.6520  141.5430 C   0  0  0  0  0  3  0  0  0  0  0  0
  188.2610  174.9930  141.7080 C   0  0  0  0  0  2  0  0  0  0  0  0
  187.8390  173.5410  141.9220 C   0  0  0  0  0  2  0  0  0  0  0  0
  189.2820  171.8920  143.7670 O   0  0  0  0  0  0  0  0  0  0  0  0
  188.9280  172.6330  141.5820 N   0  0  0  0  0  2  0  0  0  0  0  0
  189.5580  171.7820  142.5400 C   0  0  0  0  0  0  0  0  0  0  0  0
  190.4640  170.8210  142.1010 O   0  0  0  0  0  0  0  0  0  0  0  0
  191.6430  171.1830  141.4880 N   0  0  0  0  0  2  0  0  0  0  0  0
  194.4020  171.0890  141.9730 O   0  0  0  0  0  1  0  0  0  0  0  0
  192.9760  168.9030  141.8970 O   0  0  0  0  0  0  0  0  0  0  0  0
  192.9290  170.3480  142.3330 P   0  0  2  0  0  0  0  0  0  0  0  0
  193.4070  171.5260  144.6930 N   0  0  0  0  0  1  0  0  0  0  0  0
  192.6330  170.4400  144.1210 C   0  0  0  0  0  2  0  0  0  0  0  0
  184.0130  178.6080  141.1300 N   0  0  0  0  0  2  0  0  0  0  0  0
  182.7430  178.2320  140.6630 C   0  0  0  0  0  0  0  0  0  0  0  0
  181.6960  177.9230  140.2780 N   0  0  0  0  0  0  0  0  0  0  0  0
  185.8790  176.8260  146.3570 C   0  0  0  0  0  2  0  0  0  0  0  0
  186.8150  177.7660  147.0970 C   0  0  0  0  0  2  0  0  0  0  0  0
  188.2210  177.1960  147.1470 C   0  0  0  0  0  2  0  0  0  0  0  0
  188.2010  175.6790  147.0050 C   0  0  0  0  0  2  0  0  0  0  0  0
  189.6060  175.0990  146.9570 C   0  0  0  0  0  2  0  0  0  0  0  0
  190.6560  176.1970  147.0530 C   0  0  1  0  0  3  0  0  0  0  0  0
  191.4890  175.9710  148.1520 O   0  0  0  0  0  1  0  0  0  0  0  0
  193.6210  174.4170  142.1020 N   0  0  0  0  0  1  0  0  0  0  0  0
  192.8220  176.6150  146.0290 O   0  0  0  0  0  0  0  0  0  0  0  0
  193.1520  175.3480  143.1130 C   0  0  1  0  0  3  0  0  0  0  0  0
  190.7930  177.1510  144.7280 C   0  0  1  0  0  3  0  0  0  0  0  0
  190.9040  176.6100  143.2930 C   0  0  2  0  0  3  0  0  0  0  0  0
  191.6300  175.2510  143.2000 C   0  0  0  0  0  2  0  0  0  0  0  0
  195.0320  176.0310  146.0490 O   0  0  0  0  0  0  0  0  0  0  0  0
  193.9080  175.9150  145.4950 C   0  0  0  0  0  0  0  0  0  0  0  0
  191.4710  176.2440  145.7690 C   0  0  2  0  0  3  0  0  0  0  0  0
  193.7750  175.0100  144.3900 N   0  0  0  0  0  2  0  0  0  0  0  0
  191.7780  177.7670  143.7510 C   0  0  0  0  0  2  0  0  0  0  0  0
  1  7  2  0  0  0  0
  1  5  1  0  0  0  0
  2 25  1  0  0  0  0
  3  2  2  0  0  0  0
  4  6  1  0  0  0  0
  5  3  1  0  0  0  0
  6  8  2  0  0  0  0
  7  8  1  0  0  0  0
  8  2  1  0  0  0  0
  9  4  2  0  0  0  0
  9  7  1  0  0  0  0
 10 11  1  0  0  0  0
 10  4  1  0  0  0  0
 13 11  1  0  0  0  0
 13 14  1  0  0  0  0
 14 12  2  0  0  0  0
 15 14  1  0  0  0  0
 16 15  1  0  0  0  0
 16 19  1  0  0  0  0
 17 19  1  0  0  0  0
 19 18  2  6  0  0  0
 19 21  1  0  0  0  0
 21 20  1  0  0  0  0
 22  1  1  0  0  0  0
 23 22  1  0  0  0  0
 24 23  3  0  0  0  0
 25 26  1  0  0  0  0
 26 27  1  0  0  0  0
 28 27  1  0  0  0  0
 29 28  1  0  0  0  0
 29 30  1  0  0  0  0
 30 31  1  1  0  0  0
 34 32  1  6  0  0  0
 34 37  1  0  0  0  0
 34 41  1  0  0  0  0
 35 42  1  6  0  0  0
 35 40  1  0  0  0  0
 36 37  1  1  0  0  0
 36 42  1  0  0  0  0
 36 35  1  0  0  0  0
 39 33  1  0  0  0  0
 39 38  2  0  0  0  0
 40 33  1  0  0  0  0
 40 30  1  1  0  0  0
 41 39  1  0  0  0  0
M  END
>  <MODEL>
1

>  <REMARK>
 VINA RESULT:      -6.6      0.000      0.000
  Name = 
  16 active torsions:
  status: ('A' for Active; 'I' for Inactive)
    1  A    between atoms: C_1  and  N_30
    2  A    between atoms: C_2  and  C_29
    3  A    between atoms: C_3  and  C_21
    4  A    between atoms: C_3  and  C_22
    5  A    between atoms: C_8  and  C_36
    6  A    between atoms: N_14  and  C_40
    7  A    between atoms: N_18  and  O_25
    8  A    between atoms: N_18  and  P_41
    9  A    between atoms: C_21  and  C_35
   10  A    between atoms: C_22  and  C_33
   11  A    between atoms: O_25  and  C_34
   12  A    between atoms: C_26  and  P_41
   13  A    between atoms: C_28  and  C_35
   14  A    between atoms: C_29  and  C_33
   15  A    between atoms: N_30  and  C_37
   16  A    between atoms: C_36  and  C_40
                            x       y       z     vdW  Elec       q    Type
                         _______ _______ _______ _____ _____    ______ ____

>  <TORSDO>
F 16

$$$$
=
 OpenBabel11062419353D

 42 45  0  0  1  0  0  0  0  0999 V2000
  195.3070  175.1150  145.1770 C   0  0  0  0  0  0  0  0  0  0  0  0
  192.8030  176.5290  144.6720 C   0  0  0  0  0  0  0  0  0  0  0  0
  193.1480  176.2760  145.9410 C   0  0  0  0  0  3  0  0  0  0  0  0
  194.7140  175.6690  141.7430 C   0  0  0  0  0  0  0  0  0  0  0  0
  194.3450  175.4120  146.3150 C   0  0  0  0  0  2  0  0  0  0  0  0
  193.5420  176.2290  142.3440 N   0  0  0  0  0  0  0  0  0  0  0  0
  194.9260  175.3860  143.9190 C   0  0  0  0  0  0  0  0  0  0  0  0
  193.6840  176.0380  143.6100 C   0  0  0  0  0  0  0  0  0  0  0  0
  195.5810  175.1810  142.6360 C   0  0  0  0  0  3  0  0  0  0  0  0
  194.9760  175.7420  140.2720 C   0  0  0  0  0  2  0  0  0  0  0  0
  194.6070  174.4470  139.5520 C   0  0  0  0  0  2  0  0  0  0  0  0
  192.8620  172.3950  140.5270 O   0  0  0  0  0  0  0  0  0  0  0  0
  193.1690  174.3740  139.3270 N   0  0  0  0  0  2  0  0  0  0  0  0
  192.3430  173.3620  139.9030 C   0  0  0  0  0  0  0  0  0  0  0  0
  190.9590  173.4670  139.7840 O   0  0  0  0  0  0  0  0  0  0  0  0
  190.1190  172.7080  140.5680 N   0  0  0  0  0  2  0  0  0  0  0  0
  190.4940  175.1730  141.8480 O   0  0  0  0  0  0  0  0  0  0  0  0
  190.2830  172.9630  143.2230 O   0  0  0  0  0  1  0  0  0  0  0  0
  189.7570  173.6610  141.9910 P   0  0  2  0  0  0  0  0  0  0  0  0
  187.2890  172.6330  141.8180 N   0  0  0  0  0  1  0  0  0  0  0  0
  187.9620  173.8800  142.1290 C   0  0  0  0  0  2  0  0  0  0  0  0
  196.5620  174.4990  145.5050 N   0  0  0  0  0  2  0  0  0  0  0  0
  196.7500  173.1330  145.7760 C   0  0  0  0  0  0  0  0  0  0  0  0
  196.9050  172.0090  146.0000 N   0  0  0  0  0  0  0  0  0  0  0  0
  191.6520  177.4250  144.3650 C   0  0  0  0  0  2  0  0  0  0  0  0
  190.5480  177.1960  145.3830 C   0  0  0  0  0  2  0  0  0  0  0  0
  189.9970  175.7860  145.2700 C   0  0  0  0  0  2  0  0  0  0  0  0
  188.7610  175.6100  146.1430 C   0  0  0  0  0  2  0  0  0  0  0  0
  188.0340  176.9280  146.3620 C   0  0  0  0  0  2  0  0  0  0  0  0
  186.5510  176.7960  146.0430 C   0  0  1  0  0  3  0  0  0  0  0  0
  185.7850  177.2210  147.1310 O   0  0  0  0  0  1  0  0  0  0  0  0
  184.6760  178.2380  140.4860 N   0  0  0  0  0  1  0  0  0  0  0  0
  187.3990  178.0710  144.1540 O   0  0  0  0  0  0  0  0  0  0  0  0
  185.2860  178.4550  141.7860 C   0  0  1  0  0  3  0  0  0  0  0  0
  185.2470  178.7560  145.1520 C   0  0  1  0  0  3  0  0  0  0  0  0
  184.1920  179.0050  144.0620 C   0  0  2  0  0  3  0  0  0  0  0  0
  184.2950  178.0320  142.8690 C   0  0  0  0  0  2  0  0  0  0  0  0
  188.7680  177.9980  142.3240 O   0  0  0  0  0  0  0  0  0  0  0  0
  187.5940  177.9430  142.7750 C   0  0  0  0  0  0  0  0  0  0  0  0
  186.2160  177.6140  144.8040 C   0  0  2  0  0  3  0  0  0  0  0  0
  186.5180  177.6760  141.8650 N   0  0  0  0  0  2  0  0  0  0  0  0
  185.3770  179.9450  144.2190 C   0  0  0  0  0  2  0  0  0  0  0  0
  1 22  1  0  0  0  0
  1  5  1  0  0  0  0
  2  3  2  0  0  0  0
  3  5  1  0  0  0  0
  4  6  1  0  0  0  0
  4  9  2  0  0  0  0
  6  8  2  0  0  0  0
  7  1  2  0  0  0  0
  8  7  1  0  0  0  0
  8  2  1  0  0  0  0
  9  7  1  0  0  0  0
 10  4  1  0  0  0  0
 11 10  1  0  0  0  0
 13 11  1  0  0  0  0
 13 14  1  0  0  0  0
 14 12  2  0  0  0  0
 15 14  1  0  0  0  0
 15 16  1  0  0  0  0
 16 19  1  0  0  0  0
 19 17  2  6  0  0  0
 19 21  1  0  0  0  0
 19 18  1  0  0  0  0
 20 21  1  0  0  0  0
 22 23  1  0  0  0  0
 23 24  3  0  0  0  0
 25  2  1  0  0  0  0
 25 26  1  0  0  0  0
 27 26  1  0  0  0  0
 27 28  1  0  0  0  0
 28 29  1  0  0  0  0
 30 29  1  0  0  0  0
 30 31  1  1  0  0  0
 33 40  1  0  0  0  0
 34 32  1  6  0  0  0
 34 41  1  0  0  0  0
 34 37  1  0  0  0  0
 35 42  1  6  0  0  0
 36 37  1  6  0  0  0
 36 42  1  0  0  0  0
 36 35  1  0  0  0  0
 38 39  2  0  0  0  0
 39 33  1  0  0  0  0
 40 35  1  0  0  0  0
 40 30  1  1  0  0  0
 41 39  1  0  0  0  0
M  END
>  <MODEL>
2

>  <REMARK>
 VINA RESULT:      -6.6      2.692      7.787
  Name = 
  16 active torsions:
  status: ('A' for Active; 'I' for Inactive)
    1  A    between atoms: C_1  and  N_30
    2  A    between atoms: C_2  and  C_29
    3  A    between atoms: C_3  and  C_21
    4  A    between atoms: C_3  and  C_22
    5  A    between atoms: C_8  and  C_36
    6  A    between atoms: N_14  and  C_40
    7  A    between atoms: N_18  and  O_25
    8  A    between atoms: N_18  and  P_41
    9  A    between atoms: C_21  and  C_35
   10  A    between atoms: C_22  and  C_33
   11  A    between atoms: O_25  and  C_34
   12  A    between atoms: C_26  and  P_41
   13  A    between atoms: C_28  and  C_35
   14  A    between atoms: C_29  and  C_33
   15  A    between atoms: N_30  and  C_37
   16  A    between atoms: C_36  and  C_40
                            x       y       z     vdW  Elec       q    Type
                         _______ _______ _______ _____ _____    ______ ____

>  <TORSDO>
F 16

$$$$
=
 OpenBabel11062419353D

 42 45  0  0  1  0  0  0  0  0999 V2000
  186.6730  178.0420  142.5690 C   0  0  0  0  0  0  0  0  0  0  0  0
  187.1060  177.7250  145.4390 C   0  0  0  0  0  0  0  0  0  0  0  0
  185.8470  177.8170  144.9900 C   0  0  0  0  0  3  0  0  0  0  0  0
  190.0880  177.7830  143.4210 C   0  0  0  0  0  0  0  0  0  0  0  0
  185.5090  178.1400  143.5410 C   0  0  0  0  0  2  0  0  0  0  0  0
  189.4540  177.7240  144.7020 N   0  0  0  0  0  0  0  0  0  0  0  0
  187.9190  177.9490  143.0590 C   0  0  0  0  0  0  0  0  0  0  0  0
  188.1920  177.8370  144.4640 C   0  0  0  0  0  0  0  0  0  0  0  0
  189.2200  177.8870  142.4100 C   0  0  0  0  0  3  0  0  0  0  0  0
  191.5650  177.6200  143.2470 C   0  0  0  0  0  2  0  0  0  0  0  0
  192.2540  177.1710  144.5330 C   0  0  0  0  0  2  0  0  0  0  0  0
  194.8880  177.4010  145.6370 O   0  0  0  0  0  0  0  0  0  0  0  0
  193.3820  176.2970  144.2340 N   0  0  0  0  0  2  0  0  0  0  0  0
  194.6520  176.4210  144.8760 C   0  0  0  0  0  0  0  0  0  0  0  0
  195.6170  175.4400  144.6660 O   0  0  0  0  0  0  0  0  0  0  0  0
  196.0530  174.6380  145.6980 N   0  0  0  0  0  2  0  0  0  0  0  0
  196.8170  171.9770  146.1340 O   0  0  0  0  0  1  0  0  0  0  0  0
  196.3240  172.8560  143.7250 O   0  0  0  0  0  0  0  0  0  0  0  0
  195.8720  172.9810  145.1610 P   0  0  2  0  0  0  0  0  0  0  0  0
  193.5130  172.4860  143.9900 N   0  0  0  0  0  1  0  0  0  0  0  0
  194.1320  172.4890  145.3020 C   0  0  0  0  0  2  0  0  0  0  0  0
  186.3820  178.1150  141.1650 N   0  0  0  0  0  2  0  0  0  0  0  0
  185.0950  178.1120  140.6020 C   0  0  0  0  0  0  0  0  0  0  0  0
  184.0350  178.1070  140.1360 N   0  0  0  0  0  0  0  0  0  0  0  0
  187.3780  177.3530  146.8570 C   0  0  0  0  0  2  0  0  0  0  0  0
  188.7780  176.7760  146.9680 C   0  0  0  0  0  2  0  0  0  0  0  0
  188.7240  175.2800  147.2230 C   0  0  0  0  0  2  0  0  0  0  0  0
  189.7630  174.5450  146.3870 C   0  0  0  0  0  2  0  0  0  0  0  0
  189.2870  174.3280  144.9590 C   0  0  0  0  0  2  0  0  0  0  0  0
  190.1300  173.2750  144.2530 C   0  0  1  0  0  3  0  0  0  0  0  0
  189.6800  171.9950  144.5860 O   0  0  0  0  0  1  0  0  0  0  0  0
  190.6310  172.2790  138.3180 N   0  0  0  0  0  1  0  0  0  0  0  0
  191.0240  174.4490  142.3210 O   0  0  0  0  0  0  0  0  0  0  0  0
  190.3730  173.0440  139.5250 C   0  0  1  0  0  3  0  0  0  0  0  0
  188.6320  173.8380  142.3110 C   0  0  1  0  0  3  0  0  0  0  0  0
  188.2370  173.1970  140.9700 C   0  0  2  0  0  3  0  0  0  0  0  0
  189.3380  172.3000  140.3660 C   0  0  0  0  0  2  0  0  0  0  0  0
  192.9280  174.9110  141.1420 O   0  0  0  0  0  0  0  0  0  0  0  0
  191.8730  174.2300  141.2310 C   0  0  0  0  0  0  0  0  0  0  0  0
  190.0640  173.4870  142.7480 C   0  0  2  0  0  3  0  0  0  0  0  0
  191.6270  173.2080  140.2560 N   0  0  0  0  0  2  0  0  0  0  0  0
  188.5900  174.6740  141.0450 C   0  0  0  0  0  2  0  0  0  0  0  0
  1  7  2  0  0  0  0
  1  5  1  0  0  0  0
  2 25  1  0  0  0  0
  3  2  2  0  0  0  0
  4  6  1  0  0  0  0
  5  3  1  0  0  0  0
  7  8  1  0  0  0  0
  8  6  2  0  0  0  0
  8  2  1  0  0  0  0
  9  7  1  0  0  0  0
  9  4  2  0  0  0  0
 10  4  1  0  0  0  0
 10 11  1  0  0  0  0
 13 11  1  0  0  0  0
 13 14  1  0  0  0  0
 14 12  2  0  0  0  0
 15 14  1  0  0  0  0
 15 16  1  0  0  0  0
 19 18  2  6  0  0  0
 19 21  1  0  0  0  0
 19 16  1  0  0  0  0
 19 17  1  0  0  0  0
 20 21  1  0  0  0  0
 22  1  1  0  0  0  0
 23 22  1  0  0  0  0
 24 23  3  0  0  0  0
 25 26  1  0  0  0  0
 26 27  1  0  0  0  0
 28 27  1  0  0  0  0
 29 28  1  0  0  0  0
 30 31  1  6  0  0  0
 30 29  1  0  0  0  0
 33 40  1  0  0  0  0
 34 32  1  6  0  0  0
 34 41  1  0  0  0  0
 34 37  1  0  0  0  0
 35 42  1  6  0  0  0
 35 40  1  0  0  0  0
 36 37  1  6  0  0  0
 36 42  1  0  0  0  0
 36 35  1  0  0  0  0
 38 39  2  0  0  0  0
 39 33  1  0  0  0  0
 40 30  1  1  0  0  0
 41 39  1  0  0  0  0
M  END
>  <MODEL>
3

>  <REMARK>
 VINA RESULT:      -6.5      2.233      4.415
  Name = 
  16 active torsions:
  status: ('A' for Active; 'I' for Inactive)
    1  A    between atoms: C_1  and  N_30
    2  A    between atoms: C_2  and  C_29
    3  A    between atoms: C_3  and  C_21
    4  A    between atoms: C_3  and  C_22
    5  A    between atoms: C_8  and  C_36
    6  A    between atoms: N_14  and  C_40
    7  A    between atoms: N_18  and  O_25
    8  A    between atoms: N_18  and  P_41
    9  A    between atoms: C_21  and  C_35
   10  A    between atoms: C_22  and  C_33
   11  A    between atoms: O_25  and  C_34
   12  A    between atoms: C_26  and  P_41
   13  A    between atoms: C_28  and  C_35
   14  A    between atoms: C_29  and  C_33
   15  A    between atoms: N_30  and  C_37
   16  A    between atoms: C_36  and  C_40
                            x       y       z     vdW  Elec       q    Type
                         _______ _______ _______ _____ _____    ______ ____

>  <TORSDO>
F 16

$$$$
=
 OpenBabel11062419353D

 42 45  0  0  1  0  0  0  0  0999 V2000
  194.8430  174.5800  144.4230 C   0  0  0  0  0  0  0  0  0  0  0  0
  192.7420  174.9590  146.4130 C   0  0  0  0  0  0  0  0  0  0  0  0
  193.8520  175.7000  146.5100 C   0  0  0  0  0  3  0  0  0  0  0  0
  192.0360  172.5160  143.8630 C   0  0  0  0  0  0  0  0  0  0  0  0
  195.0720  175.4780  145.6260 C   0  0  0  0  0  2  0  0  0  0  0  0
  191.6670  173.2040  145.0620 N   0  0  0  0  0  0  0  0  0  0  0  0
  193.7160  173.8540  144.3620 C   0  0  0  0  0  0  0  0  0  0  0  0
  192.6690  173.9670  145.3390 C   0  0  0  0  0  0  0  0  0  0  0  0
  193.2300  172.8860  143.3900 C   0  0  0  0  0  3  0  0  0  0  0  0
  191.1110  171.5710  143.1630 C   0  0  0  0  0  2  0  0  0  0  0  0
  189.6850  172.1080  143.0830 C   0  0  0  0  0  2  0  0  0  0  0  0
  189.3730  174.7030  141.9090 O   0  0  0  0  0  0  0  0  0  0  0  0
  189.3110  172.3780  141.7000 N   0  0  0  0  0  2  0  0  0  0  0  0
  189.2450  173.6970  141.1570 C   0  0  0  0  0  0  0  0  0  0  0  0
  189.0550  173.8570  139.7870 O   0  0  0  0  0  0  0  0  0  0  0  0
  189.1720  172.7900  138.9230 N   0  0  0  0  0  2  0  0  0  0  0  0
  190.9910  174.1710  137.2990 O   0  0  0  0  0  1  0  0  0  0  0  0
  188.4160  174.5000  137.0140 O   0  0  0  0  0  0  0  0  0  0  0  0
  189.4610  173.4570  137.3310 P   0  0  2  0  0  0  0  0  0  0  0  0
  190.2510  171.0310  136.5110 N   0  0  0  0  0  1  0  0  0  0  0  0
  189.3940  172.1270  136.0990 C   0  0  0  0  0  2  0  0  0  0  0  0
  195.8810  174.5070  143.4330 N   0  0  0  0  0  2  0  0  0  0  0  0
  196.4310  175.6050  142.7510 C   0  0  0  0  0  0  0  0  0  0  0  0
  196.8860  176.5100  142.1910 N   0  0  0  0  0  0  0  0  0  0  0  0
  191.5570  175.2560  147.2690 C   0  0  0  0  0  2  0  0  0  0  0  0
  191.1980  176.7260  147.1410 C   0  0  0  0  0  2  0  0  0  0  0  0
  190.0370  176.9150  146.1820 C   0  0  0  0  0  2  0  0  0  0  0  0
  188.7490  176.3480  146.7640 C   0  0  0  0  0  2  0  0  0  0  0  0
  187.6060  177.3490  146.6850 C   0  0  0  0  0  2  0  0  0  0  0  0
  186.4140  176.7630  145.9420 C   0  0  1  0  0  3  0  0  0  0  0  0
  185.3010  176.7100  146.7840 O   0  0  0  0  0  1  0  0  0  0  0  0
  184.6450  178.3170  140.3810 N   0  0  0  0  0  1  0  0  0  0  0  0
  187.3090  178.0540  144.0860 O   0  0  0  0  0  0  0  0  0  0  0  0
  185.2380  178.5050  141.6930 C   0  0  1  0  0  3  0  0  0  0  0  0
  185.1520  178.7550  145.0620 C   0  0  1  0  0  3  0  0  0  0  0  0
  184.1180  179.0370  143.9600 C   0  0  2  0  0  3  0  0  0  0  0  0
  184.2250  178.0800  142.7540 C   0  0  0  0  0  2  0  0  0  0  0  0
  188.7040  177.9880  142.2760 O   0  0  0  0  0  0  0  0  0  0  0  0
  187.5230  177.9440  142.7080 C   0  0  0  0  0  0  0  0  0  0  0  0
  186.1100  177.6040  144.7110 C   0  0  2  0  0  3  0  0  0  0  0  0
  186.4570  177.7060  141.7790 N   0  0  0  0  0  2  0  0  0  0  0  0
  185.3130  179.9560  144.1500 C   0  0  0  0  0  2  0  0  0  0  0  0
  1  5  1  0  0  0  0
  2  3  2  0  0  0  0
  2 25  1  0  0  0  0
  4  6  1  0  0  0  0
  5  3  1  0  0  0  0
  6  8  2  0  0  0  0
  7  1  2  0  0  0  0
  7  8  1  0  0  0  0
  8  2  1  0  0  0  0
  9  4  2  0  0  0  0
  9  7  1  0  0  0  0
 10  4  1  0  0  0  0
 11 10  1  0  0  0  0
 13 11  1  0  0  0  0
 14 13  1  0  0  0  0
 14 12  2  0  0  0  0
 15 14  1  0  0  0  0
 16 15  1  0  0  0  0
 17 19  1  0  0  0  0
 19 18  2  6  0  0  0
 19 16  1  0  0  0  0
 21 20  1  0  0  0  0
 21 19  1  0  0  0  0
 22  1  1  0  0  0  0
 23 22  1  0  0  0  0
 24 23  3  0  0  0  0
 26 25  1  0  0  0  0
 27 28  1  0  0  0  0
 27 26  1  0  0  0  0
 29 28  1  0  0  0  0
 30 29  1  0  0  0  0
 30 31  1  1  0  0  0
 33 40  1  0  0  0  0
 34 32  1  6  0  0  0
 34 41  1  0  0  0  0
 34 37  1  0  0  0  0
 35 42  1  6  0  0  0
 36 37  1  6  0  0  0
 36 42  1  0  0  0  0
 36 35  1  0  0  0  0
 38 39  2  0  0  0  0
 39 33  1  0  0  0  0
 40 35  1  0  0  0  0
 40 30  1  1  0  0  0
 41 39  1  0  0  0  0
M  END
>  <MODEL>
4

>  <REMARK>
 VINA RESULT:      -6.4      3.206      7.607
  Name = 
  16 active torsions:
  status: ('A' for Active; 'I' for Inactive)
    1  A    between atoms: C_1  and  N_30
    2  A    between atoms: C_2  and  C_29
    3  A    between atoms: C_3  and  C_21
    4  A    between atoms: C_3  and  C_22
    5  A    between atoms: C_8  and  C_36
    6  A    between atoms: N_14  and  C_40
    7  A    between atoms: N_18  and  O_25
    8  A    between atoms: N_18  and  P_41
    9  A    between atoms: C_21  and  C_35
   10  A    between atoms: C_22  and  C_33
   11  A    between atoms: O_25  and  C_34
   12  A    between atoms: C_26  and  P_41
   13  A    between atoms: C_28  and  C_35
   14  A    between atoms: C_29  and  C_33
   15  A    between atoms: N_30  and  C_37
   16  A    between atoms: C_36  and  C_40
                            x       y       z     vdW  Elec       q    Type
                         _______ _______ _______ _____ _____    ______ ____

>  <TORSDO>
F 16

$$$$
=
 OpenBabel11062419353D

 42 45  0  0  1  0  0  0  0  0999 V2000
  191.4830  174.1660  142.0450 C   0  0  0  0  0  0  0  0  0  0  0  0
  191.3770  175.3310  144.7200 C   0  0  0  0  0  0  0  0  0  0  0  0
  190.7220  175.9490  143.7290 C   0  0  0  0  0  3  0  0  0  0  0  0
  193.2640  172.2770  144.4350 C   0  0  0  0  0  0  0  0  0  0  0  0
  190.8370  175.5220  142.2720 C   0  0  0  0  0  3  0  0  0  0  0  0
  192.7930  173.3800  145.2150 N   0  0  0  0  0  2  0  0  0  0  0  0
  192.1270  173.5770  143.0650 C   0  0  0  0  0  0  0  0  0  0  0  0
  192.1460  174.1300  144.3900 C   0  0  0  0  0  0  0  0  0  0  0  0
  192.8720  172.3310  143.1580 C   0  0  0  0  0  3  0  0  0  0  0  0
  194.0150  171.1300  145.0360 C   0  0  0  0  0  2  0  0  0  0  0  0
  195.5110  171.1990  144.7420 C   0  0  0  0  0  2  0  0  0  0  0  0
  197.0860  172.8270  146.4970 O   0  0  0  0  0  0  0  0  0  0  0  0
  195.9230  172.5740  144.4880 N   0  0  0  0  0  2  0  0  0  0  0  0
  196.7720  173.3070  145.3720 C   0  0  0  0  0  0  0  0  0  0  0  0
  197.2610  174.5470  144.9700 O   0  0  0  0  0  0  0  0  0  0  0  0
  197.6360  174.7740  143.6640 N   0  0  0  0  0  2  0  0  0  0  0  0
  196.5910  176.0650  141.4060 O   0  0  0  0  0  0  0  0  0  0  0  0
  197.3230  177.4230  143.5130 O   0  0  0  0  0  1  0  0  0  0  0  0
  196.6790  176.1240  143.0910 P   0  0  2  0  0  0  0  0  0  0  0  0
  194.8840  176.9100  144.9190 N   0  0  0  0  0  1  0  0  0  0  0  0
  195.0070  176.0140  143.7840 C   0  0  0  0  0  2  0  0  0  0  0  0
  191.4220  173.6070  140.7240 N   0  0  0  0  0  2  0  0  0  0  0  0
  190.3700  172.8210  140.2230 C   0  0  0  0  0  0  0  0  0  0  0  0
  189.5050  172.1730  139.8090 N   0  0  0  0  0  0  0  0  0  0  0  0
  191.1850  175.7590  146.1350 C   0  0  0  0  0  2  0  0  0  0  0  0
  190.1890  174.8340  146.8120 C   0  0  0  0  0  2  0  0  0  0  0  0
  188.7930  175.4310  146.7810 C   0  0  0  0  0  2  0  0  0  0  0  0
  188.8490  176.9530  146.8000 C   0  0  0  0  0  2  0  0  0  0  0  0
  187.4600  177.5680  146.8650 C   0  0  0  0  0  2  0  0  0  0  0  0
  186.4800  176.8020  145.9870 C   0  0  1  0  0  3  0  0  0  0  0  0
  185.3380  176.4680  146.7180 O   0  0  0  0  0  1  0  0  0  0  0  0
  184.4520  178.3500  140.5130 N   0  0  0  0  0  1  0  0  0  0  0  0
  187.2710  178.1220  144.1040 O   0  0  0  0  0  0  0  0  0  0  0  0
  185.0950  178.5430  141.8010 C   0  0  1  0  0  3  0  0  0  0  0  0
  185.1420  178.7720  145.1730 C   0  0  1  0  0  3  0  0  0  0  0  0
  184.0570  179.0380  144.1150 C   0  0  2  0  0  3  0  0  0  0  0  0
  184.1350  178.0910  142.8990 C   0  0  0  0  0  2  0  0  0  0  0  0
  188.5920  178.0960  142.2380 O   0  0  0  0  0  0  0  0  0  0  0  0
  187.4310  178.0250  142.7180 C   0  0  0  0  0  0  0  0  0  0  0  0
  186.1080  177.6440  144.7750 C   0  0  2  0  0  3  0  0  0  0  0  0
  186.3330  177.7700  141.8310 N   0  0  0  0  0  2  0  0  0  0  0  0
  185.2400  179.9820  144.2620 C   0  0  0  0  0  2  0  0  0  0  0  0
  1  5  2  0  0  0  0
  1  7  1  0  0  0  0
  2 25  1  0  0  0  0
  3  2  2  0  0  0  0
  4 10  1  0  0  0  0
  4  6  1  0  0  0  0
  5  3  1  0  0  0  0
  7  9  1  0  0  0  0
  7  8  2  0  0  0  0
  8  2  1  0  0  0  0
  8  6  1  0  0  0  0
  9  4  2  0  0  0  0
 11 10  1  0  0  0  0
 13 11  1  0  0  0  0
 13 14  1  0  0  0  0
 14 12  2  0  0  0  0
 15 14  1  0  0  0  0
 16 15  1  0  0  0  0
 19 17  2  6  0  0  0
 19 18  1  0  0  0  0
 19 16  1  0  0  0  0
 19 21  1  0  0  0  0
 21 20  1  0  0  0  0
 22  1  1  0  0  0  0
 23 22  1  0  0  0  0
 24 23  3  0  0  0  0
 25 26  1  0  0  0  0
 27 28  1  0  0  0  0
 27 26  1  0  0  0  0
 28 29  1  0  0  0  0
 30 31  1  1  0  0  0
 30 29  1  0  0  0  0
 33 40  1  0  0  0  0
 34 32  1  6  0  0  0
 34 41  1  0  0  0  0
 34 37  1  0  0  0  0
 35 42  1  6  0  0  0
 36 37  1  6  0  0  0
 36 42  1  0  0  0  0
 36 35  1  0  0  0  0
 38 39  2  0  0  0  0
 39 33  1  0  0  0  0
 40 35  1  0  0  0  0
 40 30  1  1  0  0  0
 41 39  1  0  0  0  0
M  END
>  <MODEL>
5

>  <REMARK>
 VINA RESULT:      -6.4      3.131      7.191
  Name = 
  16 active torsions:
  status: ('A' for Active; 'I' for Inactive)
    1  A    between atoms: C_1  and  N_30
    2  A    between atoms: C_2  and  C_29
    3  A    between atoms: C_3  and  C_21
    4  A    between atoms: C_3  and  C_22
    5  A    between atoms: C_8  and  C_36
    6  A    between atoms: N_14  and  C_40
    7  A    between atoms: N_18  and  O_25
    8  A    between atoms: N_18  and  P_41
    9  A    between atoms: C_21  and  C_35
   10  A    between atoms: C_22  and  C_33
   11  A    between atoms: O_25  and  C_34
   12  A    between atoms: C_26  and  P_41
   13  A    between atoms: C_28  and  C_35
   14  A    between atoms: C_29  and  C_33
   15  A    between atoms: N_30  and  C_37
   16  A    between atoms: C_36  and  C_40
                            x       y       z     vdW  Elec       q    Type
                         _______ _______ _______ _____ _____    ______ ____

>  <TORSDO>
F 16

$$$$
=
 OpenBabel11062419353D

 42 45  0  0  1  0  0  0  0  0999 V2000
  184.1490  178.2580  142.5770 C   0  0  0  0  0  0  0  0  0  0  0  0
  185.6650  178.4500  145.0640 C   0  0  0  0  0  0  0  0  0  0  0  0
  184.4180  178.9360  145.0390 C   0  0  0  0  0  3  0  0  0  0  0  0
  187.3740  176.8470  142.3300 C   0  0  0  0  0  0  0  0  0  0  0  0
  183.5950  179.0320  143.7620 C   0  0  0  0  0  2  0  0  0  0  0  0
  187.3640  177.3380  143.6730 N   0  0  0  0  0  0  0  0  0  0  0  0
  185.4030  177.7840  142.6420 C   0  0  0  0  0  0  0  0  0  0  0  0
  186.2100  177.8920  143.8250 C   0  0  0  0  0  0  0  0  0  0  0  0
  186.2230  177.0600  141.6830 C   0  0  0  0  0  3  0  0  0  0  0  0
  188.5210  176.0690  141.7660 C   0  0  0  0  0  2  0  0  0  0  0  0
  188.3200  174.5620  141.8970 C   0  0  0  0  0  2  0  0  0  0  0  0
  188.4500  173.5190  139.2310 O   0  0  0  0  0  0  0  0  0  0  0  0
  189.4460  173.8390  141.3190 N   0  0  0  0  0  2  0  0  0  0  0  0
  189.4770  173.4090  139.9580 C   0  0  0  0  0  0  0  0  0  0  0  0
  190.6580  172.8850  139.4390 O   0  0  0  0  0  0  0  0  0  0  0  0
  191.3480  173.5370  138.4410 N   0  0  0  0  0  2  0  0  0  0  0  0
  192.4950  172.9720  135.9470 O   0  0  0  0  0  0  0  0  0  0  0  0
  189.9370  172.6450  136.3540 O   0  0  0  0  0  1  0  0  0  0  0  0
  191.2830  172.5090  137.0260 P   0  0  2  0  0  0  0  0  0  0  0  0
  192.7560  170.6820  138.3210 N   0  0  0  0  0  1  0  0  0  0  0  0
  191.5480  170.7840  137.5220 C   0  0  0  0  0  2  0  0  0  0  0  0
  183.3150  178.1240  141.4160 N   0  0  0  0  0  2  0  0  0  0  0  0
  181.9340  178.3790  141.3730 C   0  0  0  0  0  0  0  0  0  0  0  0
  180.7970  178.5890  141.3400 N   0  0  0  0  0  0  0  0  0  0  0  0
  186.4050  178.3300  146.3540 C   0  0  0  0  0  2  0  0  0  0  0  0
  186.3650  176.8870  146.8260 C   0  0  0  0  0  2  0  0  0  0  0  0
  187.7700  176.3530  147.0450 C   0  0  0  0  0  2  0  0  0  0  0  0
  188.8050  177.4570  146.8770 C   0  0  0  0  0  2  0  0  0  0  0  0
  190.2000  176.8920  146.6540 C   0  0  0  0  0  2  0  0  0  0  0  0
  190.5370  176.8330  145.1710 C   0  0  1  0  0  3  0  0  0  0  0  0
  190.4380  178.1060  144.6040 O   0  0  0  0  0  1  0  0  0  0  0  0
  196.3840  176.4530  143.7070 N   0  0  0  0  0  1  0  0  0  0  0  0
  191.9710  175.2900  143.9560 O   0  0  0  0  0  0  0  0  0  0  0  0
  195.0870  175.9750  144.1520 C   0  0  1  0  0  3  0  0  0  0  0  0
  192.5030  175.7610  146.3200 C   0  0  1  0  0  3  0  0  0  0  0  0
  194.0030  176.0530  146.4960 C   0  0  2  0  0  3  0  0  0  0  0  0
  194.6200  176.8400  145.3210 C   0  0  0  0  0  2  0  0  0  0  0  0
  192.6920  174.6660  141.8780 O   0  0  0  0  0  0  0  0  0  0  0  0
  192.9330  175.2940  142.9410 C   0  0  0  0  0  0  0  0  0  0  0  0
  191.9410  176.2750  144.9840 C   0  0  2  0  0  3  0  0  0  0  0  0
  194.1490  176.0490  143.0340 N   0  0  0  0  0  2  0  0  0  0  0  0
  193.5250  174.6540  146.1430 C   0  0  0  0  0  2  0  0  0  0  0  0
  1  7  2  0  0  0  0
  1  5  1  0  0  0  0
  2 25  1  0  0  0  0
  3  2  2  0  0  0  0
  4  6  1  0  0  0  0
  5  3  1  0  0  0  0
  6  8  2  0  0  0  0
  7  8  1  0  0  0  0
  8  2  1  0  0  0  0
  9  4  2  0  0  0  0
  9  7  1  0  0  0  0
 10 11  1  0  0  0  0
 10  4  1  0  0  0  0
 12 14  2  0  0  0  0
 13 11  1  0  0  0  0
 14 13  1  0  0  0  0
 15 14  1  0  0  0  0
 16 15  1  0  0  0  0
 18 19  1  0  0  0  0
 19 17  2  6  0  0  0
 19 21  1  0  0  0  0
 19 16  1  0  0  0  0
 21 20  1  0  0  0  0
 22  1  1  0  0  0  0
 23 22  1  0  0  0  0
 24 23  3  0  0  0  0
 25 26  1  0  0  0  0
 26 27  1  0  0  0  0
 28 27  1  0  0  0  0
 29 28  1  0  0  0  0
 30 31  1  1  0  0  0
 30 29  1  0  0  0  0
 33 40  1  0  0  0  0
 34 32  1  6  0  0  0
 34 37  1  0  0  0  0
 35 42  1  6  0  0  0
 35 36  1  0  0  0  0
 36 37  1  6  0  0  0
 38 39  2  0  0  0  0
 39 41  1  0  0  0  0
 39 33  1  0  0  0  0
 40 30  1  1  0  0  0
 40 35  1  0  0  0  0
 41 34  1  0  0  0  0
 42 36  1  0  0  0  0
M  END
>  <MODEL>
6

>  <REMARK>
 VINA RESULT:      -6.3      2.590      3.280
  Name = 
  16 active torsions:
  status: ('A' for Active; 'I' for Inactive)
    1  A    between atoms: C_1  and  N_30
    2  A    between atoms: C_2  and  C_29
    3  A    between atoms: C_3  and  C_21
    4  A    between atoms: C_3  and  C_22
    5  A    between atoms: C_8  and  C_36
    6  A    between atoms: N_14  and  C_40
    7  A    between atoms: N_18  and  O_25
    8  A    between atoms: N_18  and  P_41
    9  A    between atoms: C_21  and  C_35
   10  A    between atoms: C_22  and  C_33
   11  A    between atoms: O_25  and  C_34
   12  A    between atoms: C_26  and  P_41
   13  A    between atoms: C_28  and  C_35
   14  A    between atoms: C_29  and  C_33
   15  A    between atoms: N_30  and  C_37
   16  A    between atoms: C_36  and  C_40
                            x       y       z     vdW  Elec       q    Type
                         _______ _______ _______ _____ _____    ______ ____

>  <TORSDO>
F 16

$$$$
=
 OpenBabel11062419353D

 42 45  0  0  1  0  0  0  0  0999 V2000
  192.0500  174.4790  141.9750 C   0  0  0  0  0  0  0  0  0  0  0  0
  192.1890  175.8370  144.5550 C   0  0  0  0  0  0  0  0  0  0  0  0
  191.0230  175.2930  144.1840 C   0  0  0  0  0  3  0  0  0  0  0  0
  195.2620  175.7600  142.6800 C   0  0  0  0  0  0  0  0  0  0  0  0
  190.7930  174.7010  142.8000 C   0  0  0  0  0  2  0  0  0  0  0  0
  194.5140  176.1780  143.8260 N   0  0  0  0  0  0  0  0  0  0  0  0
  193.1990  175.0400  142.3830 C   0  0  0  0  0  0  0  0  0  0  0  0
  193.3130  175.7580  143.6210 C   0  0  0  0  0  0  0  0  0  0  0  0
  194.5350  175.0560  141.8060 C   0  0  0  0  0  3  0  0  0  0  0  0
  196.7340  175.9940  142.5510 C   0  0  0  0  0  2  0  0  0  0  0  0
  197.5250  175.3440  143.6820 C   0  0  0  0  0  2  0  0  0  0  0  0
  197.2240  173.7310  146.0310 O   0  0  0  0  0  0  0  0  0  0  0  0
  197.3040  173.9030  143.7040 N   0  0  0  0  0  2  0  0  0  0  0  0
  197.0880  173.1680  144.9090 C   0  0  0  0  0  0  0  0  0  0  0  0
  196.7100  171.8300  144.8290 O   0  0  0  0  0  0  0  0  0  0  0  0
  195.7060  171.4250  143.9770 N   0  0  0  0  0  2  0  0  0  0  0  0
  193.8800  172.8230  145.5790 O   0  0  0  0  0  0  0  0  0  0  0  0
  194.4520  170.3210  146.0620 O   0  0  0  0  0  1  0  0  0  0  0  0
  194.2460  171.3060  144.9360 P   0  0  2  0  0  0  0  0  0  0  0  0
  191.6760  171.5010  144.2040 N   0  0  0  0  0  1  0  0  0  0  0  0
  192.8770  170.7540  143.8820 C   0  0  0  0  0  2  0  0  0  0  0  0
  191.9290  173.7250  140.7590 N   0  0  0  0  0  2  0  0  0  0  0  0
  190.7220  173.4320  140.1020 C   0  0  0  0  0  0  0  0  0  0  0  0
  189.7290  173.1890  139.5600 N   0  0  0  0  0  0  0  0  0  0  0  0
  192.3740  176.3540  145.9420 C   0  0  0  0  0  2  0  0  0  0  0  0
  191.5910  175.4870  146.9130 C   0  0  0  0  0  2  0  0  0  0  0  0
  190.4940  176.2910  147.5880 C   0  0  0  0  0  2  0  0  0  0  0  0
  189.1230  175.9080  147.0450 C   0  0  0  0  0  2  0  0  0  0  0  0
  188.5110  177.0280  146.2190 C   0  0  0  0  0  2  0  0  0  0  0  0
  187.0350  176.7690  145.9510 C   0  0  1  0  0  3  0  0  0  0  0  0
  186.2760  177.1060  147.0750 O   0  0  0  0  0  1  0  0  0  0  0  0
  184.7090  178.1470  140.5510 N   0  0  0  0  0  1  0  0  0  0  0  0
  187.6970  178.0750  144.0100 O   0  0  0  0  0  0  0  0  0  0  0  0
  185.4040  178.3850  141.8040 C   0  0  1  0  0  3  0  0  0  0  0  0
  185.6010  178.6830  145.1650 C   0  0  1  0  0  3  0  0  0  0  0  0
  184.4610  178.8950  144.1550 C   0  0  2  0  0  3  0  0  0  0  0  0
  184.5110  177.9260  142.9550 C   0  0  0  0  0  2  0  0  0  0  0  0
  188.9300  178.0500  142.0840 O   0  0  0  0  0  0  0  0  0  0  0  0
  187.7950  177.9540  142.6190 C   0  0  0  0  0  0  0  0  0  0  0  0
  186.5820  177.5760  144.7430 C   0  0  2  0  0  3  0  0  0  0  0  0
  186.6650  177.6490  141.7900 N   0  0  0  0  0  2  0  0  0  0  0  0
  185.6200  179.8760  144.2280 C   0  0  0  0  0  2  0  0  0  0  0  0
  1  7  2  0  0  0  0
  1  5  1  0  0  0  0
  2 25  1  0  0  0  0
  3  2  2  0  0  0  0
  4  6  1  0  0  0  0
  5  3  1  0  0  0  0
  7  8  1  0  0  0  0
  8  6  2  0  0  0  0
  8  2  1  0  0  0  0
  9  7  1  0  0  0  0
  9  4  2  0  0  0  0
 10  4  1  0  0  0  0
 10 11  1  0  0  0  0
 11 13  1  0  0  0  0
 13 14  1  0  0  0  0
 14 12  2  0  0  0  0
 15 14  1  0  0  0  0
 16 15  1  0  0  0  0
 16 19  1  0  0  0  0
 19 17  2  1  0  0  0
 19 18  1  0  0  0  0
 21 20  1  0  0  0  0
 21 19  1  0  0  0  0
 22  1  1  0  0  0  0
 23 22  1  0  0  0  0
 24 23  3  0  0  0  0
 25 26  1  0  0  0  0
 26 27  1  0  0  0  0
 28 27  1  0  0  0  0
 29 28  1  0  0  0  0
 30 29  1  0  0  0  0
 30 31  1  1  0  0  0
 33 40  1  0  0  0  0
 34 32  1  6  0  0  0
 34 37  1  0  0  0  0
 35 42  1  6  0  0  0
 36 37  1  6  0  0  0
 36 42  1  0  0  0  0
 36 35  1  0  0  0  0
 38 39  2  0  0  0  0
 39 33  1  0  0  0  0
 40 35  1  0  0  0  0
 40 30  1  1  0  0  0
 41 34  1  0  0  0  0
 41 39  1  0  0  0  0
M  END
>  <MODEL>
7

>  <REMARK>
 VINA RESULT:      -6.3      2.647      6.915
  Name = 
  16 active torsions:
  status: ('A' for Active; 'I' for Inactive)
    1  A    between atoms: C_1  and  N_30
    2  A    between atoms: C_2  and  C_29
    3  A    between atoms: C_3  and  C_21
    4  A    between atoms: C_3  and  C_22
    5  A    between atoms: C_8  and  C_36
    6  A    between atoms: N_14  and  C_40
    7  A    between atoms: N_18  and  O_25
    8  A    between atoms: N_18  and  P_41
    9  A    between atoms: C_21  and  C_35
   10  A    between atoms: C_22  and  C_33
   11  A    between atoms: O_25  and  C_34
   12  A    between atoms: C_26  and  P_41
   13  A    between atoms: C_28  and  C_35
   14  A    between atoms: C_29  and  C_33
   15  A    between atoms: N_30  and  C_37
   16  A    between atoms: C_36  and  C_40
                            x       y       z     vdW  Elec       q    Type
                         _______ _______ _______ _____ _____    ______ ____

>  <TORSDO>
F 16

$$$$
=
 OpenBabel11062419353D

 42 45  0  0  1  0  0  0  0  0999 V2000
  188.8390  173.0650  140.7600 C   0  0  0  0  0  0  0  0  0  0  0  0
  189.9280  173.4210  143.4450 C   0  0  0  0  0  0  0  0  0  0  0  0
  188.8280  174.1050  143.1070 C   0  0  0  0  0  3  0  0  0  0  0  0
  191.7050  171.0920  141.3500 C   0  0  0  0  0  0  0  0  0  0  0  0
  188.2660  174.1190  141.6920 C   0  0  0  0  0  2  0  0  0  0  0  0
  191.5720  171.8040  142.5840 N   0  0  0  0  0  0  0  0  0  0  0  0
  189.9420  172.3990  141.1360 C   0  0  0  0  0  0  0  0  0  0  0  0
  190.5470  172.5690  142.4270 C   0  0  0  0  0  0  0  0  0  0  0  0
  190.7460  171.3860  140.4670 C   0  0  0  0  0  3  0  0  0  0  0  0
  192.7480  170.0400  141.1380 C   0  0  0  0  0  2  0  0  0  0  0  0
  194.0110  170.5990  140.4880 C   0  0  0  0  0  2  0  0  0  0  0  0
  194.3720  173.4400  140.3940 O   0  0  0  0  0  0  0  0  0  0  0  0
  194.7740  171.3920  141.4430 N   0  0  0  0  0  2  0  0  0  0  0  0
  194.8540  172.8170  141.3810 C   0  0  0  0  0  0  0  0  0  0  0  0
  195.4550  173.5090  142.4300 O   0  0  0  0  0  0  0  0  0  0  0  0
  194.8330  174.5890  143.0170 N   0  0  0  0  0  2  0  0  0  0  0  0
  197.5450  175.1710  143.4250 O   0  0  0  0  0  0  0  0  0  0  0  0
  195.6810  176.7950  144.2640 O   0  0  0  0  0  1  0  0  0  0  0  0
  196.0320  175.8600  143.1320 P   0  0  2  0  0  0  0  0  0  0  0  0
  196.7340  175.9810  140.5480 N   0  0  0  0  0  1  0  0  0  0  0  0
  196.0850  176.7810  141.5700 C   0  0  0  0  0  2  0  0  0  0  0  0
  188.2010  172.8770  139.4880 N   0  0  0  0  0  2  0  0  0  0  0  0
  188.6050  173.4710  138.2810 C   0  0  0  0  0  0  0  0  0  0  0  0
  188.9400  173.9600  137.2860 N   0  0  0  0  0  0  0  0  0  0  0  0
  190.4030  173.4010  144.8580 C   0  0  0  0  0  2  0  0  0  0  0  0
  190.0940  174.7370  145.5140 C   0  0  0  0  0  2  0  0  0  0  0  0
  189.5870  174.5360  146.9310 C   0  0  0  0  0  2  0  0  0  0  0  0
  188.4930  175.5400  147.2680 C   0  0  0  0  0  2  0  0  0  0  0  0
  188.1520  176.4220  146.0770 C   0  0  0  0  0  2  0  0  0  0  0  0
  186.6480  176.6300  145.9600 C   0  0  1  0  0  3  0  0  0  0  0  0
  186.1560  177.2420  147.1160 O   0  0  0  0  0  1  0  0  0  0  0  0
  184.8280  178.2240  140.4270 N   0  0  0  0  0  1  0  0  0  0  0  0
  187.5360  177.9140  144.0960 O   0  0  0  0  0  0  0  0  0  0  0  0
  185.4400  178.4000  141.7320 C   0  0  1  0  0  3  0  0  0  0  0  0
  185.4020  178.6420  145.1030 C   0  0  1  0  0  3  0  0  0  0  0  0
  184.3570  178.9400  144.0150 C   0  0  2  0  0  3  0  0  0  0  0  0
  184.4360  177.9850  142.8050 C   0  0  0  0  0  2  0  0  0  0  0  0
  188.9070  177.8350  142.2680 O   0  0  0  0  0  0  0  0  0  0  0  0
  187.7310  177.8060  142.7160 C   0  0  0  0  0  0  0  0  0  0  0  0
  186.3400  177.4790  144.7360 C   0  0  2  0  0  3  0  0  0  0  0  0
  186.6500  177.5850  141.8000 N   0  0  0  0  0  2  0  0  0  0  0  0
  185.5670  179.8430  144.1910 C   0  0  0  0  0  2  0  0  0  0  0  0
  1  7  2  0  0  0  0
  1  5  1  0  0  0  0
  2 25  1  0  0  0  0
  3  2  2  0  0  0  0
  4  6  1  0  0  0  0
  5  3  1  0  0  0  0
  7  8  1  0  0  0  0
  8  6  2  0  0  0  0
  8  2  1  0  0  0  0
  9  7  1  0  0  0  0
  9  4  2  0  0  0  0
 10  4  1  0  0  0  0
 11 10  1  0  0  0  0
 11 13  1  0  0  0  0
 12 14  2  0  0  0  0
 14 13  1  0  0  0  0
 14 15  1  0  0  0  0
 15 16  1  0  0  0  0
 16 19  1  0  0  0  0
 19 17  2  1  0  0  0
 19 18  1  0  0  0  0
 20 21  1  0  0  0  0
 21 19  1  0  0  0  0
 22  1  1  0  0  0  0
 23 22  1  0  0  0  0
 24 23  3  0  0  0  0
 25 26  1  0  0  0  0
 26 27  1  0  0  0  0
 27 28  1  0  0  0  0
 29 28  1  0  0  0  0
 30 29  1  0  0  0  0
 30 31  1  1  0  0  0
 33 40  1  0  0  0  0
 34 32  1  6  0  0  0
 34 41  1  0  0  0  0
 34 37  1  0  0  0  0
 35 42  1  6  0  0  0
 36 37  1  6  0  0  0
 36 42  1  0  0  0  0
 36 35  1  0  0  0  0
 38 39  2  0  0  0  0
 39 33  1  0  0  0  0
 40 35  1  0  0  0  0
 40 30  1  1  0  0  0
 41 39  1  0  0  0  0
M  END
>  <MODEL>
8

>  <REMARK>
 VINA RESULT:      -6.3      2.859      6.524
  Name = 
  16 active torsions:
  status: ('A' for Active; 'I' for Inactive)
    1  A    between atoms: C_1  and  N_30
    2  A    between atoms: C_2  and  C_29
    3  A    between atoms: C_3  and  C_21
    4  A    between atoms: C_3  and  C_22
    5  A    between atoms: C_8  and  C_36
    6  A    between atoms: N_14  and  C_40
    7  A    between atoms: N_18  and  O_25
    8  A    between atoms: N_18  and  P_41
    9  A    between atoms: C_21  and  C_35
   10  A    between atoms: C_22  and  C_33
   11  A    between atoms: O_25  and  C_34
   12  A    between atoms: C_26  and  P_41
   13  A    between atoms: C_28  and  C_35
   14  A    between atoms: C_29  and  C_33
   15  A    between atoms: N_30  and  C_37
   16  A    between atoms: C_36  and  C_40
                            x       y       z     vdW  Elec       q    Type
                         _______ _______ _______ _____ _____    ______ ____

>  <TORSDO>
F 16

$$$$
=
 OpenBabel11062419353D

 42 45  0  0  1  0  0  0  0  0999 V2000
  195.4210  176.0120  144.5310 C   0  0  0  0  0  0  0  0  0  0  0  0
  193.3360  175.6840  146.5460 C   0  0  0  0  0  0  0  0  0  0  0  0
  193.7950  176.9170  146.2990 C   0  0  0  0  0  3  0  0  0  0  0  0
  194.3970  172.6570  144.9100 C   0  0  0  0  0  0  0  0  0  0  0  0
  194.9850  177.1880  145.3880 C   0  0  0  0  0  2  0  0  0  0  0  0
  193.5990  173.3270  145.8910 N   0  0  0  0  0  0  0  0  0  0  0  0
  194.9360  174.7920  144.8090 C   0  0  0  0  0  0  0  0  0  0  0  0
  193.9430  174.5670  145.8210 C   0  0  0  0  0  0  0  0  0  0  0  0
  195.1870  173.4850  144.2200 C   0  0  0  0  0  3  0  0  0  0  0  0
  194.2560  171.1950  144.6210 C   0  0  0  0  0  2  0  0  0  0  0  0
  192.9060  170.8560  143.9960 C   0  0  0  0  0  2  0  0  0  0  0  0
  193.2940  170.6040  141.1680 O   0  0  0  0  0  0  0  0  0  0  0  0
  192.5380  171.8490  142.9940 N   0  0  0  0  0  2  0  0  0  0  0  0
  192.6920  171.6300  141.5910 C   0  0  0  0  0  0  0  0  0  0  0  0
  192.1530  172.5530  140.6980 O   0  0  0  0  0  0  0  0  0  0  0  0
  191.1710  173.4350  141.0920 N   0  0  0  0  0  2  0  0  0  0  0  0
  189.8850  171.2500  139.8960 O   0  0  0  0  0  1  0  0  0  0  0  0
  189.2070  173.7000  139.3000 O   0  0  0  0  0  0  0  0  0  0  0  0
  189.6600  172.8300  140.4480 P   0  0  2  0  0  0  0  0  0  0  0  0
  188.2170  174.1840  142.2540 N   0  0  0  0  0  1  0  0  0  0  0  0
  188.4030  172.8350  141.7550 C   0  0  0  0  0  2  0  0  0  0  0  0
  196.3850  176.2590  143.4960 N   0  0  0  0  0  2  0  0  0  0  0  0
  196.0850  176.4800  142.1410 C   0  0  0  0  0  0  0  0  0  0  0  0
  195.8350  176.6620  141.0260 N   0  0  0  0  0  0  0  0  0  0  0  0
  192.1330  175.4830  147.4050 C   0  0  0  0  0  2  0  0  0  0  0  0
  190.8930  175.9260  146.6490 C   0  0  0  0  0  2  0  0  0  0  0  0
  189.6910  175.0880  147.0490 C   0  0  0  0  0  2  0  0  0  0  0  0
  188.4740  175.4400  146.2040 C   0  0  0  0  0  2  0  0  0  0  0  0
  187.8430  176.7520  146.6440 C   0  0  0  0  0  2  0  0  0  0  0  0
  186.3690  176.8060  146.2670 C   0  0  1  0  0  3  0  0  0  0  0  0
  185.6310  177.4000  147.2940 O   0  0  0  0  0  1  0  0  0  0  0  0
  185.0770  178.0960  140.5100 N   0  0  0  0  0  1  0  0  0  0  0  0
  187.4600  177.9310  144.4080 O   0  0  0  0  0  0  0  0  0  0  0  0
  185.5870  178.3360  141.8490 C   0  0  1  0  0  3  0  0  0  0  0  0
  185.2830  178.8010  145.1820 C   0  0  1  0  0  3  0  0  0  0  0  0
  184.3440  179.0650  143.9930 C   0  0  2  0  0  3  0  0  0  0  0  0
  184.4810  178.0300  142.8570 C   0  0  0  0  0  2  0  0  0  0  0  0
  188.9710  177.6810  142.7100 O   0  0  0  0  0  0  0  0  0  0  0  0
  187.7620  177.7240  143.0580 C   0  0  0  0  0  0  0  0  0  0  0  0
  186.1980  177.5830  144.9700 C   0  0  2  0  0  3  0  0  0  0  0  0
  186.7520  177.4830  142.0690 N   0  0  0  0  0  2  0  0  0  0  0  0
  185.5720  179.9330  144.2150 C   0  0  0  0  0  2  0  0  0  0  0  0
  1  7  2  0  0  0  0
  1  5  1  0  0  0  0
  2 25  1  0  0  0  0
  3  2  2  0  0  0  0
  4  6  1  0  0  0  0
  5  3  1  0  0  0  0
  7  8  1  0  0  0  0
  8  6  2  0  0  0  0
  8  2  1  0  0  0  0
  9  7  1  0  0  0  0
  9  4  2  0  0  0  0
 10  4  1  0  0  0  0
 11 10  1  0  0  0  0
 12 14  2  0  0  0  0
 13 11  1  0  0  0  0
 14 13  1  0  0  0  0
 15 16  1  0  0  0  0
 15 14  1  0  0  0  0
 17 19  1  0  0  0  0
 19 18  2  6  0  0  0
 19 16  1  0  0  0  0
 19 21  1  0  0  0  0
 21 20  1  0  0  0  0
 22  1  1  0  0  0  0
 23 22  1  0  0  0  0
 24 23  3  0  0  0  0
 26 27  1  0  0  0  0
 26 25  1  0  0  0  0
 28 29  1  0  0  0  0
 28 27  1  0  0  0  0
 30 29  1  0  0  0  0
 30 31  1  1  0  0  0
 33 40  1  0  0  0  0
 34 32  1  6  0  0  0
 34 41  1  0  0  0  0
 34 37  1  0  0  0  0
 35 42  1  6  0  0  0
 36 37  1  6  0  0  0
 36 42  1  0  0  0  0
 36 35  1  0  0  0  0
 38 39  2  0  0  0  0
 39 33  1  0  0  0  0
 40 35  1  0  0  0  0
 40 30  1  1  0  0  0
 41 39  1  0  0  0  0
M  END
>  <MODEL>
9

>  <REMARK>
 VINA RESULT:      -6.2      2.588      7.500
  Name = 
  16 active torsions:
  status: ('A' for Active; 'I' for Inactive)
    1  A    between atoms: C_1  and  N_30
    2  A    between atoms: C_2  and  C_29
    3  A    between atoms: C_3  and  C_21
    4  A    between atoms: C_3  and  C_22
    5  A    between atoms: C_8  and  C_36
    6  A    between atoms: N_14  and  C_40
    7  A    between atoms: N_18  and  O_25
    8  A    between atoms: N_18  and  P_41
    9  A    between atoms: C_21  and  C_35
   10  A    between atoms: C_22  and  C_33
   11  A    between atoms: O_25  and  C_34
   12  A    between atoms: C_26  and  P_41
   13  A    between atoms: C_28  and  C_35
   14  A    between atoms: C_29  and  C_33
   15  A    between atoms: N_30  and  C_37
   16  A    between atoms: C_36  and  C_40
                            x       y       z     vdW  Elec       q    Type
                         _______ _______ _______ _____ _____    ______ ____

>  <TORSDO>
F 16

$$$$
