=
 OpenBabel11062422463D

 29 32  0  0  1  0  0  0  0  0999 V2000
  190.3510  172.6050  143.5750 C   0  0  0  0  0  0  0  0  0  0  0  0
  187.4210  172.9610  141.7310 O   0  0  0  0  0  0  0  0  0  0  0  0
  188.7900  174.6540  142.5650 C   0  0  1  0  0  3  0  0  0  0  0  0
  192.2060  172.4910  144.6450 N   0  0  0  0  0  0  0  0  0  0  0  0
  189.2490  172.2800  142.8670 N   0  0  0  0  0  0  0  0  0  0  0  0
  188.4580  173.2770  142.3740 C   0  0  0  0  0  0  0  0  0  0  0  0
  191.9210  173.8130  144.5230 C   0  0  0  0  0  0  0  0  0  0  0  0
  190.4880  176.4050  143.3490 C   0  0  0  0  0  1  0  0  0  0  0  0
  191.2580  171.7550  144.0700 N   0  0  0  0  0  2  0  0  0  0  0  0
  190.7270  173.9550  143.8210 C   0  0  0  0  0  0  0  0  0  0  0  0
  189.9790  175.0040  143.2800 C   0  0  0  0  0  0  0  0  0  0  0  0
  192.7720  174.8610  145.1170 C   0  0  0  0  0  0  0  0  0  0  0  0
  193.1580  176.4800  146.8880 C   0  0  0  0  0  3  0  0  0  0  0  0
  193.9030  175.3450  144.4470 C   0  0  0  0  0  3  0  0  0  0  0  0
  192.3940  175.4490  146.3330 C   0  0  0  0  0  3  0  0  0  0  0  0
  194.6680  176.3760  145.0000 C   0  0  0  0  0  3  0  0  0  0  0  0
  194.2970  176.9410  146.2230 C   0  0  0  0  0  3  0  0  0  0  0  0
  187.2980  176.6380  142.6340 C   0  0  0  0  0  0  0  0  0  0  0  0
  186.7310  177.6140  143.2860 C   0  0  0  0  0  3  0  0  0  0  0  0
  187.8600  175.6560  141.9800 C   0  0  0  0  0  3  0  0  0  0  0  0
  185.6680  178.9840  147.3130 C   0  0  0  0  0  2  0  0  0  0  0  0
  185.8610  177.3210  144.4620 C   0  0  2  0  0  3  0  0  0  0  0  0
  186.7170  177.9000  147.5390 C   0  0  0  0  0  2  0  0  0  0  0  0
  183.9550  178.8590  143.9640 C   0  0  0  0  0  1  0  0  0  0  0  0
  188.6900  176.9750  146.7170 C   0  0  0  0  0  1  0  0  0  0  0  0
  185.1200  178.5960  144.9010 C   0  0  1  0  0  3  0  0  0  0  0  0
  187.4620  177.6350  146.3160 N   0  0  0  0  0  0  0  0  0  0  0  0
  186.6940  176.6530  145.5620 C   0  0  0  0  0  2  0  0  0  0  0  0
  184.5940  178.5310  146.3310 C   0  0  0  0  0  2  0  0  0  0  0  0
  1 10  1  0  0  0  0
  1  9  1  0  0  0  0
  2  6  2  0  0  0  0
  3 20  1  6  0  0  0
  3 11  1  0  0  0  0
  5  1  2  0  0  0  0
  6  3  1  0  0  0  0
  6  5  1  0  0  0  0
  7  4  2  0  0  0  0
  7 12  1  0  0  0  0
  9  4  1  0  0  0  0
 10  7  1  0  0  0  0
 11  8  1  0  0  0  0
 11 10  2  0  0  0  0
 12 15  1  0  0  0  0
 14 16  1  0  0  0  0
 14 12  2  0  0  0  0
 15 13  2  0  0  0  0
 16 17  2  0  0  0  0
 17 13  1  0  0  0  0
 18 19  2  0  0  0  0
 20 18  2  0  0  0  0
 21 23  1  0  0  0  0
 22 19  1  6  0  0  0
 22 26  1  0  0  0  0
 22 28  1  0  0  0  0
 26 24  1  6  0  0  0
 26 29  1  0  0  0  0
 27 25  1  0  0  0  0
 27 23  1  0  0  0  0
 28 27  1  0  0  0  0
 29 21  1  0  0  0  0
M  END
>  <MODEL>
1

>  <REMARK>
 VINA RESULT:      -8.4      0.000      0.000
  Name = 
  3 active torsions:
  status: ('A' for Active; 'I' for Inactive)
    1  A    between atoms: C_4  and  C_19
    2  A    between atoms: C_5  and  C_7
    3  A    between atoms: C_12  and  C_15
                            x       y       z     vdW  Elec       q    Type
                         _______ _______ _______ _____ _____    ______ ____

>  <TORSDO>
F 3

$$$$
=
 OpenBabel11062422463D

 29 32  0  0  1  0  0  0  0  0999 V2000
  193.1160  175.0490  145.3740 C   0  0  0  0  0  0  0  0  0  0  0  0
  191.5130  176.8180  147.9070 O   0  0  0  0  0  0  0  0  0  0  0  0
  190.6090  175.1570  146.5420 C   0  0  1  0  0  3  0  0  0  0  0  0
  194.0350  173.8500  143.8510 N   0  0  0  0  0  0  0  0  0  0  0  0
  192.9220  175.9140  146.3920 N   0  0  0  0  0  0  0  0  0  0  0  0
  191.6880  175.9920  146.9710 C   0  0  0  0  0  0  0  0  0  0  0  0
  192.7320  173.4680  143.8990 C   0  0  0  0  0  0  0  0  0  0  0  0
  189.8070  173.1780  145.1270 C   0  0  0  0  0  1  0  0  0  0  0  0
  194.2720  174.8070  144.7450 N   0  0  0  0  0  2  0  0  0  0  0  0
  192.0810  174.2040  144.8840 C   0  0  0  0  0  0  0  0  0  0  0  0
  190.8220  174.2100  145.4900 C   0  0  0  0  0  0  0  0  0  0  0  0
  192.1730  172.4610  142.9790 C   0  0  0  0  0  0  0  0  0  0  0  0
  190.9130  171.9450  140.9650 C   0  0  0  0  0  3  0  0  0  0  0  0
  192.2240  171.0930  143.2800 C   0  0  0  0  0  3  0  0  0  0  0  0
  191.4970  172.8820  141.8240 C   0  0  0  0  0  3  0  0  0  0  0  0
  191.6410  170.1560  142.4220 C   0  0  0  0  0  3  0  0  0  0  0  0
  190.9890  170.5820  141.2630 C   0  0  0  0  0  3  0  0  0  0  0  0
  188.2330  175.8530  146.7290 C   0  0  0  0  0  0  0  0  0  0  0  0
  187.1600  176.3870  146.2180 C   0  0  0  0  0  3  0  0  0  0  0  0
  189.3110  175.3240  147.2460 C   0  0  0  0  0  3  0  0  0  0  0  0
  185.4330  179.0820  143.2220 C   0  0  0  0  0  2  0  0  0  0  0  0
  187.1930  177.7860  145.7030 C   0  0  2  0  0  3  0  0  0  0  0  0
  186.7300  178.5840  142.5910 C   0  0  0  0  0  2  0  0  0  0  0  0
  185.2590  178.7410  146.9660 C   0  0  0  0  0  1  0  0  0  0  0  0
  188.1310  176.7390  142.3520 C   0  0  0  0  0  1  0  0  0  0  0  0
  185.7630  178.3420  145.5910 C   0  0  1  0  0  3  0  0  0  0  0  0
  187.2100  177.3860  143.2660 N   0  0  0  0  0  0  0  0  0  0  0  0
  188.0030  177.8340  144.4030 C   0  0  0  0  0  2  0  0  0  0  0  0
  185.6490  179.5430  144.6590 C   0  0  0  0  0  2  0  0  0  0  0  0
  1  5  2  0  0  0  0
  3  6  1  0  0  0  0
  3 20  1  1  0  0  0
  4  7  2  0  0  0  0
  4  9  1  0  0  0  0
  5  6  1  0  0  0  0
  6  2  2  0  0  0  0
  7 10  1  0  0  0  0
  8 11  1  0  0  0  0
  9  1  1  0  0  0  0
 10  1  1  0  0  0  0
 10 11  2  0  0  0  0
 11  3  1  0  0  0  0
 12 14  1  0  0  0  0
 12  7  1  0  0  0  0
 13 17  2  0  0  0  0
 13 15  1  0  0  0  0
 15 12  2  0  0  0  0
 16 14  2  0  0  0  0
 17 16  1  0  0  0  0
 18 20  2  0  0  0  0
 19 18  2  0  0  0  0
 21 29  1  0  0  0  0
 22 19  1  6  0  0  0
 23 21  1  0  0  0  0
 23 27  1  0  0  0  0
 25 27  1  0  0  0  0
 26 22  1  0  0  0  0
 26 24  1  1  0  0  0
 27 28  1  0  0  0  0
 28 22  1  0  0  0  0
 29 26  1  0  0  0  0
M  END
>  <MODEL>
2

>  <REMARK>
 VINA RESULT:      -8.0      2.549      4.693
  Name = 
  3 active torsions:
  status: ('A' for Active; 'I' for Inactive)
    1  A    between atoms: C_4  and  C_19
    2  A    between atoms: C_5  and  C_7
    3  A    between atoms: C_12  and  C_15
                            x       y       z     vdW  Elec       q    Type
                         _______ _______ _______ _____ _____    ______ ____

>  <TORSDO>
F 3

$$$$
=
 OpenBabel11062422463D

 29 32  0  0  1  0  0  0  0  0999 V2000
  188.5020  175.3510  142.4620 C   0  0  0  0  0  0  0  0  0  0  0  0
  191.3470  173.3840  142.8550 O   0  0  0  0  0  0  0  0  0  0  0  0
  190.1510  174.5010  144.5160 C   0  0  1  0  0  3  0  0  0  0  0  0
  186.7030  176.5130  142.3360 N   0  0  0  0  0  0  0  0  0  0  0  0
  189.5370  174.5410  142.1570 N   0  0  0  0  0  0  0  0  0  0  0  0
  190.3710  174.1240  143.1550 C   0  0  0  0  0  0  0  0  0  0  0  0
  187.0770  176.5340  143.6420 C   0  0  0  0  0  0  0  0  0  0  0  0
  188.6290  175.5950  146.2620 C   0  0  0  0  0  1  0  0  0  0  0  0
  187.5630  175.7950  141.6180 N   0  0  0  0  0  2  0  0  0  0  0  0
  188.2380  175.7820  143.7930 C   0  0  0  0  0  0  0  0  0  0  0  0
  189.0300  175.3260  144.8500 C   0  0  0  0  0  0  0  0  0  0  0  0
  186.3380  177.3030  144.6600 C   0  0  0  0  0  0  0  0  0  0  0  0
  184.8150  177.3330  146.5540 C   0  0  0  0  0  3  0  0  0  0  0  0
  186.3160  178.7040  144.6390 C   0  0  0  0  0  3  0  0  0  0  0  0
  185.5660  176.6220  145.6130 C   0  0  0  0  0  3  0  0  0  0  0  0
  185.5660  179.4160  145.5790 C   0  0  0  0  0  3  0  0  0  0  0  0
  184.8180  178.7300  146.5390 C   0  0  0  0  0  3  0  0  0  0  0  0
  192.1200  174.6570  146.0190 C   0  0  0  0  0  0  0  0  0  0  0  0
  193.1260  175.3240  146.5130 C   0  0  0  0  0  3  0  0  0  0  0  0
  191.1170  173.9840  145.5200 C   0  0  0  0  0  3  0  0  0  0  0  0
  195.2020  174.6440  142.7120 C   0  0  0  0  0  2  0  0  0  0  0  0
  194.1780  175.8690  145.6070 C   0  0  2  0  0  3  0  0  0  0  0  0
  196.1170  174.0290  143.7660 C   0  0  0  0  0  2  0  0  0  0  0  0
  192.7380  177.1660  144.0280 C   0  0  0  0  0  1  0  0  0  0  0  0
  196.1640  172.8300  145.7630 C   0  0  0  0  0  1  0  0  0  0  0  0
  193.6420  175.9550  144.1670 C   0  0  1  0  0  3  0  0  0  0  0  0
  195.3970  173.8050  145.0120 N   0  0  0  0  0  0  0  0  0  0  0  0
  195.4640  175.0510  145.7640 C   0  0  0  0  0  2  0  0  0  0  0  0
  194.7420  176.0410  143.1140 C   0  0  0  0  0  2  0  0  0  0  0  0
  1 10  1  0  0  0  0
  2  6  2  0  0  0  0
  3 11  1  0  0  0  0
  3 20  1  1  0  0  0
  4  7  2  0  0  0  0
  5  1  2  0  0  0  0
  5  6  1  0  0  0  0
  6  3  1  0  0  0  0
  7 10  1  0  0  0  0
  7 12  1  0  0  0  0
  9  4  1  0  0  0  0
  9  1  1  0  0  0  0
 10 11  2  0  0  0  0
 11  8  1  0  0  0  0
 12 15  1  0  0  0  0
 14 12  2  0  0  0  0
 14 16  1  0  0  0  0
 15 13  2  0  0  0  0
 16 17  2  0  0  0  0
 17 13  1  0  0  0  0
 18 19  2  0  0  0  0
 20 18  2  0  0  0  0
 21 29  1  0  0  0  0
 21 23  1  0  0  0  0
 22 28  1  0  0  0  0
 22 19  1  1  0  0  0
 23 27  1  0  0  0  0
 26 24  1  1  0  0  0
 26 22  1  0  0  0  0
 27 25  1  0  0  0  0
 27 28  1  0  0  0  0
 29 26  1  0  0  0  0
M  END
>  <MODEL>
3

>  <REMARK>
 VINA RESULT:      -7.9      2.098      7.349
  Name = 
  3 active torsions:
  status: ('A' for Active; 'I' for Inactive)
    1  A    between atoms: C_4  and  C_19
    2  A    between atoms: C_5  and  C_7
    3  A    between atoms: C_12  and  C_15
                            x       y       z     vdW  Elec       q    Type
                         _______ _______ _______ _____ _____    ______ ____

>  <TORSDO>
F 3

$$$$
=
 OpenBabel11062422463D

 29 32  0  0  1  0  0  0  0  0999 V2000
  189.0740  176.0030  146.8450 C   0  0  0  0  0  0  0  0  0  0  0  0
  192.5170  175.5320  147.0350 O   0  0  0  0  0  0  0  0  0  0  0  0
  191.3190  176.5930  145.3390 C   0  0  1  0  0  3  0  0  0  0  0  0
  186.9750  176.4140  146.6740 N   0  0  0  0  0  0  0  0  0  0  0  0
  190.2790  175.6320  147.3230 N   0  0  0  0  0  0  0  0  0  0  0  0
  191.3970  175.9010  146.5870 C   0  0  0  0  0  0  0  0  0  0  0  0
  187.5500  176.9010  145.5430 C   0  0  0  0  0  0  0  0  0  0  0  0
  189.9100  177.9160  143.6590 C   0  0  0  0  0  1  0  0  0  0  0  0
  187.8960  175.8710  147.4660 N   0  0  0  0  0  2  0  0  0  0  0  0
  188.9220  176.6760  145.6000 C   0  0  0  0  0  0  0  0  0  0  0  0
  190.0460  177.0240  144.8470 C   0  0  0  0  0  0  0  0  0  0  0  0
  186.7590  177.5090  144.4570 C   0  0  0  0  0  0  0  0  0  0  0  0
  185.5210  179.4130  143.5920 C   0  0  0  0  0  3  0  0  0  0  0  0
  186.3620  176.7610  143.3410 C   0  0  0  0  0  3  0  0  0  0  0  0
  186.3160  178.8340  144.5850 C   0  0  0  0  0  3  0  0  0  0  0  0
  185.5670  177.3390  142.3470 C   0  0  0  0  0  3  0  0  0  0  0  0
  185.1490  178.6660  142.4710 C   0  0  0  0  0  3  0  0  0  0  0  0
  193.0690  176.1100  143.6450 C   0  0  0  0  0  0  0  0  0  0  0  0
  193.5430  175.3810  142.6730 C   0  0  0  0  0  3  0  0  0  0  0  0
  192.6000  176.8370  144.6250 C   0  0  0  0  0  3  0  0  0  0  0  0
  194.1940  172.3300  145.7540 C   0  0  0  0  0  2  0  0  0  0  0  0
  193.8020  173.9280  142.8860 C   0  0  2  0  0  3  0  0  0  0  0  0
  195.5960  172.7430  145.3170 C   0  0  0  0  0  2  0  0  0  0  0  0
  191.4640  173.1430  143.2940 C   0  0  0  0  0  1  0  0  0  0  0  0
  196.9190  174.5410  144.6520 C   0  0  0  0  0  1  0  0  0  0  0  0
  192.8240  173.3650  143.9310 C   0  0  1  0  0  3  0  0  0  0  0  0
  195.5670  174.0160  144.6110 N   0  0  0  0  0  0  0  0  0  0  0  0
  195.2830  173.7140  143.2140 C   0  0  0  0  0  2  0  0  0  0  0  0
  193.2910  172.0550  144.5570 C   0  0  0  0  0  2  0  0  0  0  0  0
  1  5  2  0  0  0  0
  1  9  1  0  0  0  0
  3 20  1  1  0  0  0
  3  6  1  0  0  0  0
  4  9  1  0  0  0  0
  6  2  2  0  0  0  0
  6  5  1  0  0  0  0
  7 10  1  0  0  0  0
  7  4  2  0  0  0  0
  8 11  1  0  0  0  0
 10  1  1  0  0  0  0
 11  3  1  0  0  0  0
 11 10  2  0  0  0  0
 12 15  1  0  0  0  0
 12  7  1  0  0  0  0
 13 15  2  0  0  0  0
 14 12  2  0  0  0  0
 16 17  2  0  0  0  0
 16 14  1  0  0  0  0
 17 13  1  0  0  0  0
 18 20  2  0  0  0  0
 19 18  2  0  0  0  0
 22 19  1  1  0  0  0
 22 28  1  0  0  0  0
 22 26  1  0  0  0  0
 23 21  1  0  0  0  0
 26 24  1  6  0  0  0
 26 29  1  0  0  0  0
 27 25  1  0  0  0  0
 27 23  1  0  0  0  0
 28 27  1  0  0  0  0
 29 21  1  0  0  0  0
M  END
>  <MODEL>
4

>  <REMARK>
 VINA RESULT:      -7.8      2.753      7.659
  Name = 
  3 active torsions:
  status: ('A' for Active; 'I' for Inactive)
    1  A    between atoms: C_4  and  C_19
    2  A    between atoms: C_5  and  C_7
    3  A    between atoms: C_12  and  C_15
                            x       y       z     vdW  Elec       q    Type
                         _______ _______ _______ _____ _____    ______ ____

>  <TORSDO>
F 3

$$$$
=
 OpenBabel11062422463D

 29 32  0  0  1  0  0  0  0  0999 V2000
  188.5880  175.0270  142.7610 C   0  0  0  0  0  0  0  0  0  0  0  0
  191.5760  173.3600  143.4000 O   0  0  0  0  0  0  0  0  0  0  0  0
  190.3640  174.7140  144.8610 C   0  0  1  0  0  3  0  0  0  0  0  0
  186.7090  176.0260  142.4940 N   0  0  0  0  0  0  0  0  0  0  0  0
  189.6660  174.2380  142.5740 N   0  0  0  0  0  0  0  0  0  0  0  0
  190.5620  174.0830  143.5930 C   0  0  0  0  0  0  0  0  0  0  0  0
  187.1260  176.3340  143.7500 C   0  0  0  0  0  0  0  0  0  0  0  0
  188.8310  176.0420  146.4250 C   0  0  0  0  0  1  0  0  0  0  0  0
  187.5910  175.2320  141.8930 N   0  0  0  0  0  2  0  0  0  0  0  0
  188.3410  175.7010  143.9910 C   0  0  0  0  0  0  0  0  0  0  0  0
  189.2010  175.5190  145.0770 C   0  0  0  0  0  0  0  0  0  0  0  0
  186.3700  177.2460  144.6280 C   0  0  0  0  0  0  0  0  0  0  0  0
  184.7740  177.5570  146.4340 C   0  0  0  0  0  3  0  0  0  0  0  0
  186.3950  178.6330  144.4290 C   0  0  0  0  0  3  0  0  0  0  0  0
  185.5400  176.7130  145.6250 C   0  0  0  0  0  3  0  0  0  0  0  0
  185.6290  179.4790  145.2380 C   0  0  0  0  0  3  0  0  0  0  0  0
  184.8220  178.9400  146.2430 C   0  0  0  0  0  3  0  0  0  0  0  0
  192.6860  174.6270  145.7340 C   0  0  0  0  0  0  0  0  0  0  0  0
  193.9710  174.7750  145.5690 C   0  0  0  0  0  3  0  0  0  0  0  0
  191.3990  174.4720  145.9000 C   0  0  0  0  0  3  0  0  0  0  0  0
  197.9350  173.4900  144.2080 C   0  0  0  0  0  2  0  0  0  0  0  0
  194.6830  174.0000  144.5120 C   0  0  2  0  0  3  0  0  0  0  0  0
  197.6380  174.7470  143.3960 C   0  0  0  0  0  2  0  0  0  0  0  0
  194.9120  171.8060  145.6880 C   0  0  0  0  0  1  0  0  0  0  0  0
  196.6660  176.8630  143.4730 C   0  0  0  0  0  1  0  0  0  0  0  0
  195.6680  173.0100  145.1570 C   0  0  1  0  0  3  0  0  0  0  0  0
  196.5640  175.5180  144.0080 N   0  0  0  0  0  0  0  0  0  0  0  0
  195.3130  174.9670  143.5050 C   0  0  0  0  0  2  0  0  0  0  0  0
  196.7550  172.5260  144.2020 C   0  0  0  0  0  2  0  0  0  0  0  0
  1 10  1  0  0  0  0
  2  6  2  0  0  0  0
  3 11  1  0  0  0  0
  3 20  1  1  0  0  0
  4  7  2  0  0  0  0
  5  1  2  0  0  0  0
  5  6  1  0  0  0  0
  6  3  1  0  0  0  0
  7 10  1  0  0  0  0
  7 12  1  0  0  0  0
  9  4  1  0  0  0  0
  9  1  1  0  0  0  0
 10 11  2  0  0  0  0
 11  8  1  0  0  0  0
 12 15  1  0  0  0  0
 14 12  2  0  0  0  0
 14 16  1  0  0  0  0
 15 13  2  0  0  0  0
 16 17  2  0  0  0  0
 17 13  1  0  0  0  0
 18 20  2  0  0  0  0
 19 18  2  0  0  0  0
 22 26  1  0  0  0  0
 22 19  1  1  0  0  0
 23 27  1  0  0  0  0
 23 21  1  0  0  0  0
 25 27  1  0  0  0  0
 26 24  1  6  0  0  0
 28 27  1  0  0  0  0
 28 22  1  0  0  0  0
 29 21  1  0  0  0  0
 29 26  1  0  0  0  0
M  END
>  <MODEL>
5

>  <REMARK>
 VINA RESULT:      -7.5      2.560      8.129
  Name = 
  3 active torsions:
  status: ('A' for Active; 'I' for Inactive)
    1  A    between atoms: C_4  and  C_19
    2  A    between atoms: C_5  and  C_7
    3  A    between atoms: C_12  and  C_15
                            x       y       z     vdW  Elec       q    Type
                         _______ _______ _______ _____ _____    ______ ____

>  <TORSDO>
F 3

$$$$
=
 OpenBabel11062422463D

 29 32  0  0  1  0  0  0  0  0999 V2000
  189.0220  175.9960  146.8330 C   0  0  0  0  0  0  0  0  0  0  0  0
  192.4250  175.5170  147.3870 O   0  0  0  0  0  0  0  0  0  0  0  0
  191.4130  176.5170  145.5400 C   0  0  1  0  0  3  0  0  0  0  0  0
  186.9550  176.4100  146.4360 N   0  0  0  0  0  0  0  0  0  0  0  0
  190.1710  175.6390  147.4440 N   0  0  0  0  0  0  0  0  0  0  0  0
  191.3590  175.8740  146.8150 C   0  0  0  0  0  0  0  0  0  0  0  0
  187.6450  176.8500  145.3510 C   0  0  0  0  0  0  0  0  0  0  0  0
  190.1900  177.7810  143.6770 C   0  0  0  0  0  1  0  0  0  0  0  0
  187.7870  175.8940  147.3370 N   0  0  0  0  0  2  0  0  0  0  0  0
  189.0020  176.6210  145.5540 C   0  0  0  0  0  0  0  0  0  0  0  0
  190.1990  176.9350  144.9060 C   0  0  0  0  0  0  0  0  0  0  0  0
  186.9720  177.4190  144.1690 C   0  0  0  0  0  0  0  0  0  0  0  0
  185.7310  179.2440  143.1510 C   0  0  0  0  0  3  0  0  0  0  0  0
  186.7930  176.6650  143.0020 C   0  0  0  0  0  3  0  0  0  0  0  0
  186.4200  178.7060  144.2430 C   0  0  0  0  0  3  0  0  0  0  0  0
  186.1050  177.2020  141.9090 C   0  0  0  0  0  3  0  0  0  0  0  0
  185.5770  178.4930  141.9830 C   0  0  0  0  0  3  0  0  0  0  0  0
  193.5850  175.7780  144.5910 C   0  0  0  0  0  0  0  0  0  0  0  0
  194.4120  174.8340  144.2400 C   0  0  0  0  0  3  0  0  0  0  0  0
  192.7610  176.7270  144.9490 C   0  0  0  0  0  3  0  0  0  0  0  0
  195.9580  170.7580  144.7100 C   0  0  0  0  0  2  0  0  0  0  0  0
  194.8790  173.8370  145.2470 C   0  0  2  0  0  3  0  0  0  0  0  0
  194.4570  170.6320  144.9560 C   0  0  0  0  0  2  0  0  0  0  0  0
  197.3430  174.2340  145.1130 C   0  0  0  0  0  1  0  0  0  0  0  0
  192.3600  171.3970  144.2910 C   0  0  0  0  0  1  0  0  0  0  0  0
  196.2320  173.2450  144.8150 C   0  0  1  0  0  3  0  0  0  0  0  0
  193.7470  171.7950  144.4420 N   0  0  0  0  0  0  0  0  0  0  0  0
  193.7760  172.8020  145.4940 C   0  0  0  0  0  2  0  0  0  0  0  0
  196.5590  171.9190  145.4940 C   0  0  0  0  0  2  0  0  0  0  0  0
  1  9  1  0  0  0  0
  1  5  2  0  0  0  0
  3 20  1  1  0  0  0
  3  6  1  0  0  0  0
  4  9  1  0  0  0  0
  6  2  2  0  0  0  0
  6  5  1  0  0  0  0
  7 10  1  0  0  0  0
  7  4  2  0  0  0  0
  8 11  1  0  0  0  0
 10  1  1  0  0  0  0
 11  3  1  0  0  0  0
 11 10  2  0  0  0  0
 12 15  1  0  0  0  0
 12  7  1  0  0  0  0
 13 15  2  0  0  0  0
 14 12  2  0  0  0  0
 16 17  2  0  0  0  0
 16 14  1  0  0  0  0
 17 13  1  0  0  0  0
 18 20  2  0  0  0  0
 19 18  2  0  0  0  0
 21 23  1  0  0  0  0
 21 29  1  0  0  0  0
 22 19  1  6  0  0  0
 22 28  1  0  0  0  0
 25 27  1  0  0  0  0
 26 24  1  1  0  0  0
 26 22  1  0  0  0  0
 26 29  1  0  0  0  0
 27 23  1  0  0  0  0
 27 28  1  0  0  0  0
M  END
>  <MODEL>
6

>  <REMARK>
 VINA RESULT:      -7.5      2.718      8.278
  Name = 
  3 active torsions:
  status: ('A' for Active; 'I' for Inactive)
    1  A    between atoms: C_4  and  C_19
    2  A    between atoms: C_5  and  C_7
    3  A    between atoms: C_12  and  C_15
                            x       y       z     vdW  Elec       q    Type
                         _______ _______ _______ _____ _____    ______ ____

>  <TORSDO>
F 3

$$$$
=
 OpenBabel11062422463D

 29 32  0  0  1  0  0  0  0  0999 V2000
  188.7800  175.7020  142.5640 C   0  0  0  0  0  0  0  0  0  0  0  0
  192.1680  175.3340  141.8600 O   0  0  0  0  0  0  0  0  0  0  0  0
  191.2050  176.4540  143.6640 C   0  0  1  0  0  3  0  0  0  0  0  0
  186.7210  175.9160  143.1280 N   0  0  0  0  0  0  0  0  0  0  0  0
  189.9120  175.3130  141.9420 N   0  0  0  0  0  0  0  0  0  0  0  0
  191.1180  175.6860  142.4610 C   0  0  0  0  0  0  0  0  0  0  0  0
  187.4410  176.5970  144.0580 C   0  0  0  0  0  0  0  0  0  0  0  0
  190.0280  177.4610  145.7050 C   0  0  0  0  0  1  0  0  0  0  0  0
  187.5290  175.3710  142.2230 N   0  0  0  0  0  2  0  0  0  0  0  0
  188.7940  176.4850  143.7530 C   0  0  0  0  0  0  0  0  0  0  0  0
  190.0080  176.8340  144.3500 C   0  0  0  0  0  0  0  0  0  0  0  0
  186.8010  177.3510  145.1520 C   0  0  0  0  0  0  0  0  0  0  0  0
  186.0330  177.4360  147.4560 C   0  0  0  0  0  3  0  0  0  0  0  0
  186.2270  178.6090  144.9280 C   0  0  0  0  0  3  0  0  0  0  0  0
  186.6830  176.7610  146.4180 C   0  0  0  0  0  3  0  0  0  0  0  0
  185.5760  179.2860  145.9640 C   0  0  0  0  0  3  0  0  0  0  0  0
  185.4830  178.7010  147.2290 C   0  0  0  0  0  3  0  0  0  0  0  0
  193.5550  175.9540  144.2930 C   0  0  0  0  0  0  0  0  0  0  0  0
  194.5360  175.1110  144.4500 C   0  0  0  0  0  3  0  0  0  0  0  0
  192.5700  176.8000  144.1420 C   0  0  0  0  0  3  0  0  0  0  0  0
  194.8870  170.7480  144.7050 C   0  0  0  0  0  2  0  0  0  0  0  0
  194.3820  173.9470  145.3700 C   0  0  2  0  0  3  0  0  0  0  0  0
  193.4100  171.0000  144.4190 C   0  0  0  0  0  2  0  0  0  0  0  0
  196.7530  173.6930  146.1220 C   0  0  0  0  0  1  0  0  0  0  0  0
  191.9120  172.3410  143.2420 C   0  0  0  0  0  1  0  0  0  0  0  0
  195.6370  173.0580  145.3120 C   0  0  1  0  0  3  0  0  0  0  0  0
  193.2030  172.3470  143.9050 N   0  0  0  0  0  0  0  0  0  0  0  0
  193.0680  173.2210  145.0620 C   0  0  0  0  0  2  0  0  0  0  0  0
  195.4030  171.6420  145.8270 C   0  0  0  0  0  2  0  0  0  0  0  0
  1 10  1  0  0  0  0
  2  6  2  0  0  0  0
  3 20  1  1  0  0  0
  3 11  1  0  0  0  0
  4  7  2  0  0  0  0
  5  6  1  0  0  0  0
  5  1  2  0  0  0  0
  6  3  1  0  0  0  0
  7 12  1  0  0  0  0
  9  1  1  0  0  0  0
  9  4  1  0  0  0  0
 10  7  1  0  0  0  0
 10 11  2  0  0  0  0
 11  8  1  0  0  0  0
 12 15  1  0  0  0  0
 14 12  2  0  0  0  0
 14 16  1  0  0  0  0
 15 13  2  0  0  0  0
 16 17  2  0  0  0  0
 17 13  1  0  0  0  0
 18 19  2  0  0  0  0
 20 18  2  0  0  0  0
 21 29  1  0  0  0  0
 22 19  1  6  0  0  0
 23 21  1  0  0  0  0
 25 27  1  0  0  0  0
 26 22  1  0  0  0  0
 26 29  1  0  0  0  0
 26 24  1  1  0  0  0
 27 23  1  0  0  0  0
 27 28  1  0  0  0  0
 28 22  1  0  0  0  0
M  END
>  <MODEL>
7

>  <REMARK>
 VINA RESULT:      -7.5      2.388      7.703
  Name = 
  3 active torsions:
  status: ('A' for Active; 'I' for Inactive)
    1  A    between atoms: C_4  and  C_19
    2  A    between atoms: C_5  and  C_7
    3  A    between atoms: C_12  and  C_15
                            x       y       z     vdW  Elec       q    Type
                         _______ _______ _______ _____ _____    ______ ____

>  <TORSDO>
F 3

$$$$
=
 OpenBabel11062422463D

 29 32  0  0  1  0  0  0  0  0999 V2000
  189.1250  175.8650  146.8880 C   0  0  0  0  0  0  0  0  0  0  0  0
  192.5760  175.4150  146.9120 O   0  0  0  0  0  0  0  0  0  0  0  0
  191.2990  176.5290  145.3100 C   0  0  1  0  0  3  0  0  0  0  0  0
  187.0180  176.2660  146.8230 N   0  0  0  0  0  0  0  0  0  0  0  0
  190.3520  175.4870  147.2990 N   0  0  0  0  0  0  0  0  0  0  0  0
  191.4350  175.7920  146.5270 C   0  0  0  0  0  0  0  0  0  0  0  0
  187.5400  176.8000  145.6880 C   0  0  0  0  0  0  0  0  0  0  0  0
  189.8100  177.9040  143.7440 C   0  0  0  0  0  1  0  0  0  0  0  0
  187.9750  175.7010  147.5540 N   0  0  0  0  0  2  0  0  0  0  0  0
  188.9150  176.5840  145.6770 C   0  0  0  0  0  0  0  0  0  0  0  0
  190.0030  176.9690  144.8910 C   0  0  0  0  0  0  0  0  0  0  0  0
  186.6990  177.4420  144.6610 C   0  0  0  0  0  0  0  0  0  0  0  0
  185.5980  177.3320  142.4970 C   0  0  0  0  0  3  0  0  0  0  0  0
  186.3160  178.7860  144.7720 C   0  0  0  0  0  3  0  0  0  0  0  0
  186.3500  176.7250  143.5080 C   0  0  0  0  0  3  0  0  0  0  0  0
  185.5640  179.3940  143.7630 C   0  0  0  0  0  3  0  0  0  0  0  0
  185.2020  178.6660  142.6270 C   0  0  0  0  0  3  0  0  0  0  0  0
  192.7930  176.4160  143.3300 C   0  0  0  0  0  0  0  0  0  0  0  0
  193.0430  176.0180  142.1150 C   0  0  0  0  0  3  0  0  0  0  0  0
  192.5460  176.8100  144.5520 C   0  0  0  0  0  3  0  0  0  0  0  0
  191.2570  173.0130  139.4690 C   0  0  0  0  0  2  0  0  0  0  0  0
  193.0320  174.5630  141.7870 C   0  0  2  0  0  3  0  0  0  0  0  0
  190.4130  172.9590  140.7380 C   0  0  0  0  0  2  0  0  0  0  0  0
  194.6660  174.5500  139.8950 C   0  0  0  0  0  1  0  0  0  0  0  0
  189.4720  174.2410  142.4410 C   0  0  0  0  0  1  0  0  0  0  0  0
  193.2080  174.3620  140.2720 C   0  0  1  0  0  3  0  0  0  0  0  0
  190.6090  174.1570  141.5440 N   0  0  0  0  0  0  0  0  0  0  0  0
  191.7770  173.9140  142.3790 C   0  0  0  0  0  2  0  0  0  0  0  0
  192.7480  172.9920  139.7840 C   0  0  0  0  0  2  0  0  0  0  0  0
  1  5  2  0  0  0  0
  1  9  1  0  0  0  0
  3 20  1  1  0  0  0
  3  6  1  0  0  0  0
  4  9  1  0  0  0  0
  6  2  2  0  0  0  0
  6  5  1  0  0  0  0
  7  4  2  0  0  0  0
  8 11  1  0  0  0  0
 10  7  1  0  0  0  0
 10  1  1  0  0  0  0
 11  3  1  0  0  0  0
 11 10  2  0  0  0  0
 12 14  1  0  0  0  0
 12  7  1  0  0  0  0
 13 17  2  0  0  0  0
 13 15  1  0  0  0  0
 15 12  2  0  0  0  0
 16 14  2  0  0  0  0
 17 16  1  0  0  0  0
 18 20  2  0  0  0  0
 19 18  2  0  0  0  0
 21 29  1  0  0  0  0
 21 23  1  0  0  0  0
 22 19  1  6  0  0  0
 22 28  1  0  0  0  0
 23 27  1  0  0  0  0
 26 24  1  1  0  0  0
 26 22  1  0  0  0  0
 27 28  1  0  0  0  0
 27 25  1  0  0  0  0
 29 26  1  0  0  0  0
M  END
>  <MODEL>
8

>  <REMARK>
 VINA RESULT:      -7.4      2.776      7.478
  Name = 
  3 active torsions:
  status: ('A' for Active; 'I' for Inactive)
    1  A    between atoms: C_4  and  C_19
    2  A    between atoms: C_5  and  C_7
    3  A    between atoms: C_12  and  C_15
                            x       y       z     vdW  Elec       q    Type
                         _______ _______ _______ _____ _____    ______ ____

>  <TORSDO>
F 3

$$$$
=
 OpenBabel11062422463D

 29 32  0  0  1  0  0  0  0  0999 V2000
  189.0050  175.2410  142.3130 C   0  0  0  0  0  0  0  0  0  0  0  0
  191.4400  172.7880  141.9030 O   0  0  0  0  0  0  0  0  0  0  0  0
  190.5390  173.5760  143.9040 C   0  0  1  0  0  3  0  0  0  0  0  0
  187.4540  176.6800  142.6680 N   0  0  0  0  0  0  0  0  0  0  0  0
  189.8570  174.3870  141.7100 N   0  0  0  0  0  0  0  0  0  0  0  0
  190.6330  173.5680  142.4780 C   0  0  0  0  0  0  0  0  0  0  0  0
  187.8730  176.2660  143.8920 C   0  0  0  0  0  0  0  0  0  0  0  0
  189.3170  174.3730  146.0100 C   0  0  0  0  0  1  0  0  0  0  0  0
  188.1350  176.0590  141.7090 N   0  0  0  0  0  2  0  0  0  0  0  0
  188.8760  175.3150  143.7290 C   0  0  0  0  0  0  0  0  0  0  0  0
  189.6080  174.4510  144.5480 C   0  0  0  0  0  0  0  0  0  0  0  0
  187.3310  176.8290  145.1420 C   0  0  0  0  0  0  0  0  0  0  0  0
  185.4060  177.3660  146.5260 C   0  0  0  0  0  3  0  0  0  0  0  0
  188.1580  177.4850  146.0640 C   0  0  0  0  0  3  0  0  0  0  0  0
  185.9480  176.7900  145.3720 C   0  0  0  0  0  3  0  0  0  0  0  0
  187.6180  178.0600  147.2180 C   0  0  0  0  0  3  0  0  0  0  0  0
  186.2430  177.9970  147.4500 C   0  0  0  0  0  3  0  0  0  0  0  0
  192.6620  172.8880  144.9940 C   0  0  0  0  0  0  0  0  0  0  0  0
  193.8940  173.1310  145.3400 C   0  0  0  0  0  3  0  0  0  0  0  0
  191.4280  172.6390  144.6410 C   0  0  0  0  0  3  0  0  0  0  0  0
  196.5250  176.3190  143.8760 C   0  0  0  0  0  2  0  0  0  0  0  0
  194.9110  173.4640  144.3010 C   0  0  2  0  0  3  0  0  0  0  0  0
  195.2770  176.4170  143.0030 C   0  0  0  0  0  2  0  0  0  0  0  0
  196.9980  173.0060  145.5990 C   0  0  0  0  0  1  0  0  0  0  0  0
  192.9550  176.2340  142.9930 C   0  0  0  0  0  1  0  0  0  0  0  0
  196.1520  174.0920  144.9590 C   0  0  1  0  0  3  0  0  0  0  0  0
  194.1580  175.7140  143.6160 N   0  0  0  0  0  0  0  0  0  0  0  0
  194.2650  174.3200  143.2070 C   0  0  0  0  0  2  0  0  0  0  0  0
  197.0220  174.8820  143.9860 C   0  0  0  0  0  2  0  0  0  0  0  0
  1 10  1  0  0  0  0
  2  6  2  0  0  0  0
  3 11  1  0  0  0  0
  3 20  1  6  0  0  0
  4  7  2  0  0  0  0
  5  1  2  0  0  0  0
  5  6  1  0  0  0  0
  6  3  1  0  0  0  0
  7 12  1  0  0  0  0
  9  1  1  0  0  0  0
  9  4  1  0  0  0  0
 10  7  1  0  0  0  0
 10 11  2  0  0  0  0
 11  8  1  0  0  0  0
 12 15  2  0  0  0  0
 12 14  1  0  0  0  0
 13 17  2  0  0  0  0
 14 16  2  0  0  0  0
 15 13  1  0  0  0  0
 16 17  1  0  0  0  0
 18 19  2  0  0  0  0
 20 18  2  0  0  0  0
 21 29  1  0  0  0  0
 22 26  1  0  0  0  0
 22 19  1  1  0  0  0
 23 27  1  0  0  0  0
 23 21  1  0  0  0  0
 25 27  1  0  0  0  0
 26 24  1  6  0  0  0
 28 27  1  0  0  0  0
 28 22  1  0  0  0  0
 29 26  1  0  0  0  0
M  END
>  <MODEL>
9

>  <REMARK>
 VINA RESULT:      -7.3      2.286      7.496
  Name = 
  3 active torsions:
  status: ('A' for Active; 'I' for Inactive)
    1  A    between atoms: C_4  and  C_19
    2  A    between atoms: C_5  and  C_7
    3  A    between atoms: C_12  and  C_15
                            x       y       z     vdW  Elec       q    Type
                         _______ _______ _______ _____ _____    ______ ____

>  <TORSDO>
F 3

$$$$
