=
 OpenBabel11062419453D

 30 31  0  0  1  0  0  0  0  0999 V2000
  185.6180  178.5250  144.7170 C   0  0  1  0  0  3  0  0  0  0  0  0
  185.4710  178.0870  147.2730 C   0  0  0  0  0  2  0  0  0  0  0  0
  183.6670  178.9040  146.0050 O   0  0  0  0  0  0  0  0  0  0  0  0
  187.1800  176.8110  145.8620 C   0  0  1  0  0  3  0  0  0  0  0  0
  186.1760  176.7570  147.0280 C   0  0  0  0  0  2  0  0  0  0  0  0
  185.6350  179.9120  144.0970 C   0  0  0  0  0  1  0  0  0  0  0  0
  187.0620  178.0510  144.9500 C   0  0  1  0  0  3  0  0  0  0  0  0
  184.8330  178.5430  146.0000 C   0  0  0  0  0  0  0  0  0  0  0  0
  187.7630  177.8560  143.7180 O   0  0  0  0  0  0  0  0  0  0  0  0
  186.7380  177.7230  141.6770 O   0  0  0  0  0  0  0  0  0  0  0  0
  187.2830  177.1090  142.6340 C   0  0  0  0  0  0  0  0  0  0  0  0
  187.4000  175.6350  142.6110 C   0  0  0  0  0  3  0  0  0  0  0  0
  188.5060  174.9400  142.3250 C   0  0  0  0  0  0  0  0  0  0  0  0
  187.4410  172.8680  141.8110 O   0  0  0  0  0  0  0  0  0  0  0  0
  189.4510  172.6810  142.9390 N   0  0  0  0  0  1  0  0  0  0  0  0
  188.4250  173.4590  142.3260 C   0  0  0  0  0  0  0  0  0  0  0  0
  189.6950  175.6260  142.0230 O   0  0  0  0  0  0  0  0  0  0  0  0
  191.8420  175.1340  142.6950 O   0  0  0  0  0  1  0  0  0  0  0  0
  190.7220  175.9180  142.9640 C   0  0  1  0  0  3  0  0  0  0  0  0
  191.0640  177.9600  144.1780 O   0  0  0  0  0  1  0  0  0  0  0  0
  191.0980  177.3940  142.9030 C   0  0  0  0  0  2  0  0  0  0  0  0
  188.6110  176.6190  146.3580 C   0  0  0  0  0  2  0  0  0  0  0  0
  188.8630  174.9710  147.0990 S   0  0  0  0  0  0  0  0  0  0  0  0
  190.6200  175.2900  147.4160 C   0  0  1  0  0  3  0  0  0  0  0  0
  192.3390  177.0720  147.7890 C   0  0  0  0  0  2  0  0  0  0  0  0
  191.4500  174.7280  146.2670 C   0  0  0  0  0  2  0  0  0  0  0  0
  193.1750  176.5070  146.6420 C   0  0  0  0  0  2  0  0  0  0  0  0
  192.9330  175.0050  146.5030 C   0  0  2  0  0  3  0  0  0  0  0  0
  190.8580  176.7950  147.5470 C   0  0  0  0  0  2  0  0  0  0  0  0
  193.6740  174.5140  145.4290 O   0  0  0  0  0  1  0  0  0  0  0  0
  1  6  1  1  0  0  0
  1  7  1  0  0  0  0
  1  8  1  0  0  0  0
  4 22  1  1  0  0  0
  4  5  1  0  0  0  0
  5  2  1  0  0  0  0
  7  9  1  6  0  0  0
  7  4  1  0  0  0  0
  8  3  2  0  0  0  0
  8  2  1  0  0  0  0
 10 11  2  0  0  0  0
 11  9  1  0  0  0  0
 12 11  1  0  0  0  0
 13 16  1  0  0  0  0
 13 12  2  0  0  0  0
 14 16  2  0  0  0  0
 16 15  1  0  0  0  0
 17 13  1  0  0  0  0
 17 19  1  0  0  0  0
 19 18  1  6  0  0  0
 21 19  1  0  0  0  0
 21 20  1  0  0  0  0
 22 23  1  0  0  0  0
 24 23  1  6  0  0  0
 24 29  1  0  0  0  0
 26 28  1  0  0  0  0
 26 24  1  0  0  0  0
 27 25  1  0  0  0  0
 28 30  1  6  0  0  0
 28 27  1  0  0  0  0
 29 25  1  0  0  0  0
M  END
>  <MODEL>
1

>  <REMARK>
 VINA RESULT:      -6.5      0.000      0.000
  Name = 
  10 active torsions:
  status: ('A' for Active; 'I' for Inactive)
    1  A    between atoms: O_5  and  C_13
    2  A    between atoms: O_5  and  C_21
    3  A    between atoms: C_6  and  S_24
    4  A    between atoms: C_10  and  C_27
    5  A    between atoms: C_11  and  C_21
    6  A    between atoms: C_13  and  C_26
    7  A    between atoms: C_14  and  C_25
    8  A    between atoms: O_17  and  C_25
    9  A    between atoms: O_17  and  C_28
   10  A    between atoms: S_24  and  C_27
                            x       y       z     vdW  Elec       q    Type
                         _______ _______ _______ _____ _____    ______ ____

>  <TORSDO>
F 10

$$$$
=
 OpenBabel11062419453D

 30 31  0  0  1  0  0  0  0  0999 V2000
  185.2970  177.5980  144.6400 C   0  0  1  0  0  3  0  0  0  0  0  0
  185.6960  178.7870  146.9150 C   0  0  0  0  0  2  0  0  0  0  0  0
  183.6640  178.9150  145.7390 O   0  0  0  0  0  0  0  0  0  0  0  0
  187.0670  176.7150  146.3080 C   0  0  1  0  0  3  0  0  0  0  0  0
  186.3330  177.4940  147.4150 C   0  0  0  0  0  2  0  0  0  0  0  0
  185.1820  178.3290  143.3140 C   0  0  0  0  0  1  0  0  0  0  0  0
  186.7580  177.1740  144.8660 C   0  0  1  0  0  3  0  0  0  0  0  0
  184.8020  178.4750  145.7580 C   0  0  0  0  0  0  0  0  0  0  0  0
  187.1820  176.1980  143.9100 O   0  0  0  0  0  0  0  0  0  0  0  0
  188.6450  177.5490  142.7840 O   0  0  0  0  0  0  0  0  0  0  0  0
  188.0050  176.4640  142.8070 C   0  0  0  0  0  0  0  0  0  0  0  0
  188.1160  175.5030  141.6890 C   0  0  0  0  0  3  0  0  0  0  0  0
  189.0460  174.5510  141.5600 C   0  0  0  0  0  0  0  0  0  0  0  0
  188.1120  172.8270  140.2000 O   0  0  0  0  0  0  0  0  0  0  0  0
  190.0170  173.8230  139.3470 N   0  0  0  0  0  1  0  0  0  0  0  0
  189.0120  173.6940  140.3500 C   0  0  0  0  0  0  0  0  0  0  0  0
  190.0230  174.4010  142.5580 O   0  0  0  0  0  0  0  0  0  0  0  0
  191.9970  173.4600  143.2830 O   0  0  0  0  0  1  0  0  0  0  0  0
  190.7010  173.1830  142.8510 C   0  0  1  0  0  3  0  0  0  0  0  0
  188.8890  171.6960  143.3660 O   0  0  0  0  0  1  0  0  0  0  0  0
  189.9550  172.4020  143.9260 C   0  0  0  0  0  2  0  0  0  0  0  0
  188.5700  176.6740  146.5680 C   0  0  0  0  0  2  0  0  0  0  0  0
  189.1300  175.0160  147.0840 S   0  0  0  0  0  0  0  0  0  0  0  0
  190.7040  175.1790  146.1970 C   0  0  1  0  0  3  0  0  0  0  0  0
  193.1850  175.3820  146.4590 C   0  0  0  0  0  2  0  0  0  0  0  0
  190.6840  176.4590  145.3680 C   0  0  0  0  0  2  0  0  0  0  0  0
  193.1690  176.6610  145.6240 C   0  0  0  0  0  2  0  0  0  0  0  0
  192.0100  176.6280  144.6290 C   0  0  2  0  0  3  0  0  0  0  0  0
  191.8600  175.2190  147.1980 C   0  0  0  0  0  2  0  0  0  0  0  0
  191.9890  177.8170  143.9030 O   0  0  0  0  0  1  0  0  0  0  0  0
  1  6  1  6  0  0  0
  1  7  1  0  0  0  0
  1  8  1  0  0  0  0
  2  5  1  0  0  0  0
  3  8  2  0  0  0  0
  4 22  1  1  0  0  0
  4  5  1  0  0  0  0
  7  9  1  6  0  0  0
  7  4  1  0  0  0  0
  8  2  1  0  0  0  0
 10 11  2  0  0  0  0
 11  9  1  0  0  0  0
 12 11  1  0  0  0  0
 13 12  2  0  0  0  0
 13 17  1  0  0  0  0
 14 16  2  0  0  0  0
 15 16  1  0  0  0  0
 16 13  1  0  0  0  0
 17 19  1  0  0  0  0
 19 18  1  1  0  0  0
 19 21  1  0  0  0  0
 20 21  1  0  0  0  0
 22 23  1  0  0  0  0
 24 23  1  1  0  0  0
 24 29  1  0  0  0  0
 25 29  1  0  0  0  0
 26 24  1  0  0  0  0
 27 25  1  0  0  0  0
 28 30  1  1  0  0  0
 28 26  1  0  0  0  0
 28 27  1  0  0  0  0
M  END
>  <MODEL>
2

>  <REMARK>
 VINA RESULT:      -6.5      1.542      2.336
  Name = 
  10 active torsions:
  status: ('A' for Active; 'I' for Inactive)
    1  A    between atoms: O_5  and  C_13
    2  A    between atoms: O_5  and  C_21
    3  A    between atoms: C_6  and  S_24
    4  A    between atoms: C_10  and  C_27
    5  A    between atoms: C_11  and  C_21
    6  A    between atoms: C_13  and  C_26
    7  A    between atoms: C_14  and  C_25
    8  A    between atoms: O_17  and  C_25
    9  A    between atoms: O_17  and  C_28
   10  A    between atoms: S_24  and  C_27
                            x       y       z     vdW  Elec       q    Type
                         _______ _______ _______ _____ _____    ______ ____

>  <TORSDO>
F 10

$$$$
=
 OpenBabel11062419453D

 30 31  0  0  1  0  0  0  0  0999 V2000
  185.5990  178.2600  144.6860 C   0  0  1  0  0  3  0  0  0  0  0  0
  185.5390  178.3460  147.2820 C   0  0  0  0  0  2  0  0  0  0  0  0
  183.6860  178.8810  145.9370 O   0  0  0  0  0  0  0  0  0  0  0  0
  187.2180  176.8200  146.1000 C   0  0  1  0  0  3  0  0  0  0  0  0
  186.2520  176.9970  147.2850 C   0  0  0  0  0  2  0  0  0  0  0  0
  185.5800  179.4940  143.8000 C   0  0  0  0  0  1  0  0  0  0  0  0
  187.0550  177.8500  144.9610 C   0  0  1  0  0  3  0  0  0  0  0  0
  184.8560  178.5320  145.9650 C   0  0  0  0  0  0  0  0  0  0  0  0
  187.7200  177.4160  143.7710 O   0  0  0  0  0  0  0  0  0  0  0  0
  186.4240  175.9620  142.5690 O   0  0  0  0  0  0  0  0  0  0  0  0
  187.5210  176.1730  143.1530 C   0  0  0  0  0  0  0  0  0  0  0  0
  188.5660  175.1270  143.1900 C   0  0  0  0  0  3  0  0  0  0  0  0
  189.0430  174.4550  142.1360 C   0  0  0  0  0  0  0  0  0  0  0  0
  189.7550  172.2660  142.7640 O   0  0  0  0  0  0  0  0  0  0  0  0
  191.4580  173.7220  142.1890 N   0  0  0  0  0  1  0  0  0  0  0  0
  190.0760  173.4190  142.3740 C   0  0  0  0  0  0  0  0  0  0  0  0
  188.5470  174.7410  140.8530 O   0  0  0  0  0  0  0  0  0  0  0  0
  187.9490  172.6970  139.9750 O   0  0  0  0  0  1  0  0  0  0  0  0
  188.6580  173.8720  139.7300 C   0  0  1  0  0  3  0  0  0  0  0  0
  188.4920  173.8340  137.3370 O   0  0  0  0  0  1  0  0  0  0  0  0
  188.1180  174.5480  138.4760 C   0  0  0  0  0  2  0  0  0  0  0  0
  188.6650  176.7400  146.5750 C   0  0  0  0  0  2  0  0  0  0  0  0
  189.1390  175.0410  147.0400 S   0  0  0  0  0  0  0  0  0  0  0  0
  190.7450  175.1700  146.2050 C   0  0  1  0  0  3  0  0  0  0  0  0
  193.2190  175.3320  146.5470 C   0  0  0  0  0  2  0  0  0  0  0  0
  190.7760  176.4460  145.3690 C   0  0  0  0  0  2  0  0  0  0  0  0
  193.2540  176.6060  145.7050 C   0  0  0  0  0  2  0  0  0  0  0  0
  192.1280  176.5870  144.6730 C   0  0  2  0  0  3  0  0  0  0  0  0
  191.8670  175.1970  147.2430 C   0  0  0  0  0  2  0  0  0  0  0  0
  192.1510  177.7720  143.9400 O   0  0  0  0  0  1  0  0  0  0  0  0
  1  6  1  6  0  0  0
  1  7  1  0  0  0  0
  1  8  1  0  0  0  0
  2  5  1  0  0  0  0
  3  8  2  0  0  0  0
  4 22  1  1  0  0  0
  4  5  1  0  0  0  0
  7  9  1  6  0  0  0
  7  4  1  0  0  0  0
  8  2  1  0  0  0  0
 10 11  2  0  0  0  0
 11 12  1  0  0  0  0
 11  9  1  0  0  0  0
 13 16  1  0  0  0  0
 13 12  2  0  0  0  0
 15 16  1  0  0  0  0
 16 14  2  0  0  0  0
 17 13  1  0  0  0  0
 19 18  1  1  0  0  0
 19 17  1  0  0  0  0
 20 21  1  0  0  0  0
 21 19  1  0  0  0  0
 22 23  1  0  0  0  0
 24 23  1  1  0  0  0
 24 29  1  0  0  0  0
 25 29  1  0  0  0  0
 26 24  1  0  0  0  0
 27 25  1  0  0  0  0
 28 30  1  1  0  0  0
 28 26  1  0  0  0  0
 28 27  1  0  0  0  0
M  END
>  <MODEL>
3

>  <REMARK>
 VINA RESULT:      -6.4      1.700      2.701
  Name = 
  10 active torsions:
  status: ('A' for Active; 'I' for Inactive)
    1  A    between atoms: O_5  and  C_13
    2  A    between atoms: O_5  and  C_21
    3  A    between atoms: C_6  and  S_24
    4  A    between atoms: C_10  and  C_27
    5  A    between atoms: C_11  and  C_21
    6  A    between atoms: C_13  and  C_26
    7  A    between atoms: C_14  and  C_25
    8  A    between atoms: O_17  and  C_25
    9  A    between atoms: O_17  and  C_28
   10  A    between atoms: S_24  and  C_27
                            x       y       z     vdW  Elec       q    Type
                         _______ _______ _______ _____ _____    ______ ____

>  <TORSDO>
F 10

$$$$
=
 OpenBabel11062419453D

 30 31  0  0  1  0  0  0  0  0999 V2000
  185.3170  177.6450  144.6580 C   0  0  1  0  0  3  0  0  0  0  0  0
  185.9680  178.6650  146.9570 C   0  0  0  0  0  2  0  0  0  0  0  0
  183.9010  179.0700  145.9120 O   0  0  0  0  0  0  0  0  0  0  0  0
  187.0690  176.4930  146.1740 C   0  0  1  0  0  3  0  0  0  0  0  0
  186.4860  177.2870  147.3570 C   0  0  0  0  0  2  0  0  0  0  0  0
  185.2100  178.4520  143.3760 C   0  0  0  0  0  1  0  0  0  0  0  0
  186.7320  177.0560  144.7760 C   0  0  1  0  0  3  0  0  0  0  0  0
  184.9830  178.5110  145.8420 C   0  0  0  0  0  0  0  0  0  0  0  0
  186.9950  176.0910  143.7530 O   0  0  0  0  0  0  0  0  0  0  0  0
  187.4240  175.9230  141.5120 O   0  0  0  0  0  0  0  0  0  0  0  0
  187.8230  176.3090  142.6430 C   0  0  0  0  0  0  0  0  0  0  0  0
  189.1400  176.9660  142.7910 C   0  0  0  0  0  3  0  0  0  0  0  0
  190.3230  176.3470  142.8660 C   0  0  0  0  0  0  0  0  0  0  0  0
  192.6660  176.7550  142.6680 O   0  0  0  0  0  0  0  0  0  0  0  0
  191.4560  178.4590  143.6610 N   0  0  0  0  0  1  0  0  0  0  0  0
  191.5400  177.1770  143.0410 C   0  0  0  0  0  0  0  0  0  0  0  0
  190.3750  174.9450  142.7900 O   0  0  0  0  0  0  0  0  0  0  0  0
  191.9360  173.6320  141.7200 O   0  0  0  0  0  1  0  0  0  0  0  0
  190.6730  174.2090  141.6080 C   0  0  1  0  0  3  0  0  0  0  0  0
  188.8470  172.9470  142.5200 O   0  0  0  0  0  1  0  0  0  0  0  0
  189.6280  173.1230  141.3770 C   0  0  0  0  0  2  0  0  0  0  0  0
  188.5700  176.2780  146.3410 C   0  0  0  0  0  2  0  0  0  0  0  0
  188.9430  174.7630  147.2870 S   0  0  0  0  0  0  0  0  0  0  0  0
  190.7130  175.1490  147.3690 C   0  0  1  0  0  3  0  0  0  0  0  0
  192.3980  176.9940  147.5320 C   0  0  0  0  0  2  0  0  0  0  0  0
  191.4000  174.6310  146.1090 C   0  0  0  0  0  2  0  0  0  0  0  0
  193.0910  176.4740  146.2740 C   0  0  0  0  0  2  0  0  0  0  0  0
  192.8900  174.9640  146.1470 C   0  0  2  0  0  3  0  0  0  0  0  0
  190.9090  176.6610  147.4880 C   0  0  0  0  0  2  0  0  0  0  0  0
  193.4960  174.5140  144.9750 O   0  0  0  0  0  1  0  0  0  0  0  0
  1  6  1  6  0  0  0
  1  7  1  0  0  0  0
  1  8  1  0  0  0  0
  2  5  1  0  0  0  0
  4 22  1  1  0  0  0
  4  5  1  0  0  0  0
  7  9  1  6  0  0  0
  7  4  1  0  0  0  0
  8  3  2  0  0  0  0
  8  2  1  0  0  0  0
 10 11  2  0  0  0  0
 11 12  1  0  0  0  0
 11  9  1  0  0  0  0
 12 13  2  0  0  0  0
 13 16  1  0  0  0  0
 14 16  2  0  0  0  0
 16 15  1  0  0  0  0
 17 13  1  0  0  0  0
 19 18  1  1  0  0  0
 19 17  1  0  0  0  0
 21 19  1  0  0  0  0
 21 20  1  0  0  0  0
 22 23  1  0  0  0  0
 24 23  1  6  0  0  0
 24 29  1  0  0  0  0
 26 28  1  0  0  0  0
 26 24  1  0  0  0  0
 27 25  1  0  0  0  0
 28 30  1  6  0  0  0
 28 27  1  0  0  0  0
 29 25  1  0  0  0  0
M  END
>  <MODEL>
4

>  <REMARK>
 VINA RESULT:      -6.3      1.573      2.557
  Name = 
  10 active torsions:
  status: ('A' for Active; 'I' for Inactive)
    1  A    between atoms: O_5  and  C_13
    2  A    between atoms: O_5  and  C_21
    3  A    between atoms: C_6  and  S_24
    4  A    between atoms: C_10  and  C_27
    5  A    between atoms: C_11  and  C_21
    6  A    between atoms: C_13  and  C_26
    7  A    between atoms: C_14  and  C_25
    8  A    between atoms: O_17  and  C_25
    9  A    between atoms: O_17  and  C_28
   10  A    between atoms: S_24  and  C_27
                            x       y       z     vdW  Elec       q    Type
                         _______ _______ _______ _____ _____    ______ ____

>  <TORSDO>
F 10

$$$$
=
 OpenBabel11062419453D

 30 31  0  0  1  0  0  0  0  0999 V2000
  188.4140  174.7320  142.1720 C   0  0  1  0  0  3  0  0  0  0  0  0
  189.0310  172.3110  142.8860 C   0  0  0  0  0  2  0  0  0  0  0  0
  187.5710  172.7910  141.1070 O   0  0  0  0  0  0  0  0  0  0  0  0
  190.6350  174.2360  143.4040 C   0  0  1  0  0  3  0  0  0  0  0  0
  190.4850  172.7670  142.9670 C   0  0  0  0  0  2  0  0  0  0  0  0
  187.0490  175.3570  142.4010 C   0  0  0  0  0  1  0  0  0  0  0  0
  189.3370  175.0710  143.3540 C   0  0  1  0  0  3  0  0  0  0  0  0
  188.2770  173.2440  141.9940 C   0  0  0  0  0  0  0  0  0  0  0  0
  189.6210  176.4720  143.4230 O   0  0  0  0  0  0  0  0  0  0  0  0
  190.3820  178.1190  144.8170 O   0  0  0  0  0  0  0  0  0  0  0  0
  189.4950  177.2570  144.5780 C   0  0  0  0  0  0  0  0  0  0  0  0
  188.3550  177.0750  145.5030 C   0  0  0  0  0  3  0  0  0  0  0  0
  187.1350  177.6050  145.3590 C   0  0  0  0  0  0  0  0  0  0  0  0
  185.2200  176.4740  146.2240 O   0  0  0  0  0  0  0  0  0  0  0  0
  186.1420  178.0580  147.6350 N   0  0  0  0  0  1  0  0  0  0  0  0
  186.1230  177.3310  146.4080 C   0  0  0  0  0  0  0  0  0  0  0  0
  186.8570  178.4050  144.2380 O   0  0  0  0  0  0  0  0  0  0  0  0
  185.5790  180.3160  144.1020 O   0  0  0  0  0  1  0  0  0  0  0  0
  185.5740  178.9350  143.9200 C   0  0  1  0  0  3  0  0  0  0  0  0
  183.9400  178.0110  142.4250 O   0  0  0  0  0  1  0  0  0  0  0  0
  185.2020  178.6040  142.4800 C   0  0  0  0  0  2  0  0  0  0  0  0
  191.3120  174.3390  144.7670 C   0  0  0  0  0  2  0  0  0  0  0  0
  192.7170  173.1850  144.9220 S   0  0  0  0  0  0  0  0  0  0  0  0
  193.8350  174.4920  145.4980 C   0  0  1  0  0  3  0  0  0  0  0  0
  193.9690  176.6870  146.6950 C   0  0  0  0  0  2  0  0  0  0  0  0
  194.5600  175.1000  144.3010 C   0  0  0  0  0  2  0  0  0  0  0  0
  194.6990  177.2960  145.5000 C   0  0  0  0  0  2  0  0  0  0  0  0
  195.4920  176.2190  144.7610 C   0  0  2  0  0  3  0  0  0  0  0  0
  193.0370  175.5720  146.2300 C   0  0  0  0  0  2  0  0  0  0  0  0
  196.1200  176.7840  143.6530 O   0  0  0  0  0  1  0  0  0  0  0  0
  1  6  1  1  0  0  0
  1  7  1  0  0  0  0
  2  5  1  0  0  0  0
  3  8  2  0  0  0  0
  4 22  1  1  0  0  0
  5  4  1  0  0  0  0
  7  4  1  0  0  0  0
  7  9  1  6  0  0  0
  8  1  1  0  0  0  0
  8  2  1  0  0  0  0
  9 11  1  0  0  0  0
 11 10  2  0  0  0  0
 11 12  1  0  0  0  0
 13 12  2  0  0  0  0
 13 16  1  0  0  0  0
 14 16  2  0  0  0  0
 16 15  1  0  0  0  0
 17 13  1  0  0  0  0
 19 18  1  6  0  0  0
 19 17  1  0  0  0  0
 20 21  1  0  0  0  0
 21 19  1  0  0  0  0
 22 23  1  0  0  0  0
 24 23  1  6  0  0  0
 24 29  1  0  0  0  0
 26 28  1  0  0  0  0
 26 24  1  0  0  0  0
 27 25  1  0  0  0  0
 28 30  1  6  0  0  0
 28 27  1  0  0  0  0
 29 25  1  0  0  0  0
M  END
>  <MODEL>
5

>  <REMARK>
 VINA RESULT:      -6.2      2.457      5.388
  Name = 
  10 active torsions:
  status: ('A' for Active; 'I' for Inactive)
    1  A    between atoms: O_5  and  C_13
    2  A    between atoms: O_5  and  C_21
    3  A    between atoms: C_6  and  S_24
    4  A    between atoms: C_10  and  C_27
    5  A    between atoms: C_11  and  C_21
    6  A    between atoms: C_13  and  C_26
    7  A    between atoms: C_14  and  C_25
    8  A    between atoms: O_17  and  C_25
    9  A    between atoms: O_17  and  C_28
   10  A    between atoms: S_24  and  C_27
                            x       y       z     vdW  Elec       q    Type
                         _______ _______ _______ _____ _____    ______ ____

>  <TORSDO>
F 10

$$$$
=
 OpenBabel11062419453D

 30 31  0  0  1  0  0  0  0  0999 V2000
  191.3190  173.5700  142.9870 C   0  0  1  0  0  3  0  0  0  0  0  0
  189.6700  172.3980  144.6170 C   0  0  0  0  0  2  0  0  0  0  0  0
  191.5090  171.3030  143.6460 O   0  0  0  0  0  0  0  0  0  0  0  0
  189.9620  174.9380  144.7130 C   0  0  1  0  0  3  0  0  0  0  0  0
  189.7620  173.6340  145.5070 C   0  0  0  0  0  2  0  0  0  0  0  0
  191.3850  173.2770  141.4970 C   0  0  0  0  0  1  0  0  0  0  0  0
  190.3670  174.7510  143.2340 C   0  0  1  0  0  3  0  0  0  0  0  0
  190.8750  172.3420  143.7340 C   0  0  0  0  0  0  0  0  0  0  0  0
  190.8720  175.9680  142.6780 O   0  0  0  0  0  0  0  0  0  0  0  0
  191.5270  177.8050  143.8760 O   0  0  0  0  0  0  0  0  0  0  0  0
  191.8710  176.7590  143.2630 C   0  0  0  0  0  0  0  0  0  0  0  0
  193.2980  176.3860  143.1580 C   0  0  0  0  0  3  0  0  0  0  0  0
  194.0170  175.7560  144.0940 C   0  0  0  0  0  0  0  0  0  0  0  0
  196.2710  176.4340  143.7040 O   0  0  0  0  0  0  0  0  0  0  0  0
  195.9120  174.1500  143.6480 N   0  0  0  0  0  1  0  0  0  0  0  0
  195.4490  175.4880  143.8180 C   0  0  0  0  0  0  0  0  0  0  0  0
  193.4020  175.3820  145.3010 O   0  0  0  0  0  0  0  0  0  0  0  0
  194.3190  177.2220  146.3400 O   0  0  0  0  0  1  0  0  0  0  0  0
  193.5750  176.0610  146.5410 C   0  0  1  0  0  3  0  0  0  0  0  0
  191.6920  175.3130  147.8260 O   0  0  0  0  0  1  0  0  0  0  0  0
  192.2230  176.4120  147.1510 C   0  0  0  0  0  2  0  0  0  0  0  0
  188.7510  175.8560  144.8470 C   0  0  0  0  0  2  0  0  0  0  0  0
  188.2550  176.0830  146.5880 S   0  0  0  0  0  0  0  0  0  0  0  0
  187.0470  177.3680  146.1640 C   0  0  1  0  0  3  0  0  0  0  0  0
  184.6110  177.9430  146.1020 C   0  0  0  0  0  2  0  0  0  0  0  0
  187.1630  177.6980  144.6790 C   0  0  0  0  0  2  0  0  0  0  0  0
  184.7260  178.2790  144.6170 C   0  0  0  0  0  2  0  0  0  0  0  0
  186.1390  178.7640  144.2940 C   0  0  2  0  0  3  0  0  0  0  0  0
  185.6340  176.8760  146.4810 C   0  0  0  0  0  2  0  0  0  0  0  0
  186.2370  179.0300  142.9300 O   0  0  0  0  0  1  0  0  0  0  0  0
  1  6  1  6  0  0  0
  1  7  1  0  0  0  0
  1  8  1  0  0  0  0
  2  5  1  0  0  0  0
  3  8  2  0  0  0  0
  4 22  1  6  0  0  0
  4  5  1  0  0  0  0
  7  9  1  1  0  0  0
  7  4  1  0  0  0  0
  8  2  1  0  0  0  0
  9 11  1  0  0  0  0
 11 10  2  0  0  0  0
 12 11  1  0  0  0  0
 12 13  2  0  0  0  0
 13 17  1  0  0  0  0
 14 16  2  0  0  0  0
 15 16  1  0  0  0  0
 16 13  1  0  0  0  0
 17 19  1  0  0  0  0
 19 18  1  6  0  0  0
 19 21  1  0  0  0  0
 21 20  1  0  0  0  0
 22 23  1  0  0  0  0
 24 29  1  0  0  0  0
 24 23  1  6  0  0  0
 25 29  1  0  0  0  0
 26 24  1  0  0  0  0
 27 25  1  0  0  0  0
 28 30  1  6  0  0  0
 28 27  1  0  0  0  0
 28 26  1  0  0  0  0
M  END
>  <MODEL>
6

>  <REMARK>
 VINA RESULT:      -6.2      2.445      6.524
  Name = 
  10 active torsions:
  status: ('A' for Active; 'I' for Inactive)
    1  A    between atoms: O_5  and  C_13
    2  A    between atoms: O_5  and  C_21
    3  A    between atoms: C_6  and  S_24
    4  A    between atoms: C_10  and  C_27
    5  A    between atoms: C_11  and  C_21
    6  A    between atoms: C_13  and  C_26
    7  A    between atoms: C_14  and  C_25
    8  A    between atoms: O_17  and  C_25
    9  A    between atoms: O_17  and  C_28
   10  A    between atoms: S_24  and  C_27
                            x       y       z     vdW  Elec       q    Type
                         _______ _______ _______ _____ _____    ______ ____

>  <TORSDO>
F 10

$$$$
=
 OpenBabel11062419453D

 30 31  0  0  1  0  0  0  0  0999 V2000
  189.8210  174.6180  145.4290 C   0  0  1  0  0  3  0  0  0  0  0  0
  191.8220  173.1790  144.6100 C   0  0  0  0  0  2  0  0  0  0  0  0
  189.6850  172.2890  145.0210 O   0  0  0  0  0  0  0  0  0  0  0  0
  191.7770  175.6880  144.1160 C   0  0  1  0  0  3  0  0  0  0  0  0
  192.1270  174.2810  143.6000 C   0  0  0  0  0  2  0  0  0  0  0  0
  189.2410  174.5370  146.8310 C   0  0  0  0  0  1  0  0  0  0  0  0
  190.8900  175.7220  145.3800 C   0  0  1  0  0  3  0  0  0  0  0  0
  190.3910  173.2850  145.0290 C   0  0  0  0  0  0  0  0  0  0  0  0
  190.3250  177.0200  145.5810 O   0  0  0  0  0  0  0  0  0  0  0  0
  189.7200  178.0680  143.6390 O   0  0  0  0  0  0  0  0  0  0  0  0
  189.3570  177.6070  144.7540 C   0  0  0  0  0  0  0  0  0  0  0  0
  187.9430  177.6950  145.1790 C   0  0  0  0  0  3  0  0  0  0  0  0
  186.9170  177.0290  144.6380 C   0  0  0  0  0  0  0  0  0  0  0  0
  184.7050  177.9150  144.5240 O   0  0  0  0  0  0  0  0  0  0  0  0
  185.2080  176.7880  146.4800 N   0  0  0  0  0  1  0  0  0  0  0  0
  185.5590  177.2680  145.1830 C   0  0  0  0  0  0  0  0  0  0  0  0
  187.1530  176.1430  143.5730 O   0  0  0  0  0  0  0  0  0  0  0  0
  186.8420  177.8150  142.0190 O   0  0  0  0  0  1  0  0  0  0  0  0
  186.8900  176.4340  142.2040 C   0  0  1  0  0  3  0  0  0  0  0  0
  188.8450  175.0500  142.0660 O   0  0  0  0  0  1  0  0  0  0  0  0
  187.9690  175.8320  141.3120 C   0  0  0  0  0  2  0  0  0  0  0  0
  193.0310  176.5380  144.2930 C   0  0  0  0  0  2  0  0  0  0  0  0
  193.6750  176.4620  145.9980 S   0  0  0  0  0  0  0  0  0  0  0  0
  195.3320  175.9780  145.4400 C   0  0  1  0  0  3  0  0  0  0  0  0
  196.8370  175.7640  143.4510 C   0  0  0  0  0  2  0  0  0  0  0  0
  195.5690  174.5100  145.7800 C   0  0  0  0  0  2  0  0  0  0  0  0
  197.0810  174.2950  143.7920 C   0  0  0  0  0  2  0  0  0  0  0  0
  196.9520  174.0750  145.2990 C   0  0  2  0  0  3  0  0  0  0  0  0
  195.4530  176.1930  143.9310 C   0  0  0  0  0  2  0  0  0  0  0  0
  197.1400  172.7250  145.5880 O   0  0  0  0  0  1  0  0  0  0  0  0
  1  6  1  1  0  0  0
  2  8  1  0  0  0  0
  3  8  2  0  0  0  0
  4 22  1  1  0  0  0
  4  7  1  0  0  0  0
  5  4  1  0  0  0  0
  5  2  1  0  0  0  0
  7  1  1  0  0  0  0
  7  9  1  6  0  0  0
  8  1  1  0  0  0  0
 10 11  2  0  0  0  0
 11 12  1  0  0  0  0
 11  9  1  0  0  0  0
 13 12  2  0  0  0  0
 13 16  1  0  0  0  0
 14 16  2  0  0  0  0
 16 15  1  0  0  0  0
 17 13  1  0  0  0  0
 19 18  1  1  0  0  0
 19 17  1  0  0  0  0
 21 20  1  0  0  0  0
 21 19  1  0  0  0  0
 22 23  1  0  0  0  0
 24 26  1  0  0  0  0
 24 23  1  6  0  0  0
 25 27  1  0  0  0  0
 25 29  1  0  0  0  0
 27 28  1  0  0  0  0
 28 30  1  6  0  0  0
 28 26  1  0  0  0  0
 29 24  1  0  0  0  0
M  END
>  <MODEL>
7

>  <REMARK>
 VINA RESULT:      -6.1      2.920      5.446
  Name = 
  10 active torsions:
  status: ('A' for Active; 'I' for Inactive)
    1  A    between atoms: O_5  and  C_13
    2  A    between atoms: O_5  and  C_21
    3  A    between atoms: C_6  and  S_24
    4  A    between atoms: C_10  and  C_27
    5  A    between atoms: C_11  and  C_21
    6  A    between atoms: C_13  and  C_26
    7  A    between atoms: C_14  and  C_25
    8  A    between atoms: O_17  and  C_25
    9  A    between atoms: O_17  and  C_28
   10  A    between atoms: S_24  and  C_27
                            x       y       z     vdW  Elec       q    Type
                         _______ _______ _______ _____ _____    ______ ____

>  <TORSDO>
F 10

$$$$
=
 OpenBabel11062419453D

 30 31  0  0  1  0  0  0  0  0999 V2000
  192.2000  175.7600  145.2670 C   0  0  1  0  0  3  0  0  0  0  0  0
  191.1550  176.6450  147.4750 C   0  0  0  0  0  2  0  0  0  0  0  0
  193.4740  176.5550  147.0990 O   0  0  0  0  0  0  0  0  0  0  0  0
  189.7980  176.7200  145.3080 C   0  0  1  0  0  3  0  0  0  0  0  0
  190.1640  177.4320  146.6230 C   0  0  0  0  0  2  0  0  0  0  0  0
  192.9450  174.4410  145.1550 C   0  0  0  0  0  1  0  0  0  0  0  0
  190.7180  175.5420  144.9210 C   0  0  1  0  0  3  0  0  0  0  0  0
  192.3610  176.3270  146.6510 C   0  0  0  0  0  0  0  0  0  0  0  0
  190.5400  175.1750  143.5500 O   0  0  0  0  0  0  0  0  0  0  0  0
  189.7700  173.0580  143.9520 O   0  0  0  0  0  0  0  0  0  0  0  0
  189.9550  173.9790  143.1120 C   0  0  0  0  0  0  0  0  0  0  0  0
  189.5690  173.7930  141.6960 C   0  0  0  0  0  3  0  0  0  0  0  0
  188.4550  174.2540  141.1180 C   0  0  0  0  0  0  0  0  0  0  0  0
  188.1200  174.8650  138.8360 O   0  0  0  0  0  0  0  0  0  0  0  0
  188.0950  172.5900  139.2540 N   0  0  0  0  0  1  0  0  0  0  0  0
  188.2260  173.9430  139.6860 C   0  0  0  0  0  0  0  0  0  0  0  0
  187.5390  175.0000  141.8800 O   0  0  0  0  0  0  0  0  0  0  0  0
  188.7370  176.9420  141.5660 O   0  0  0  0  0  1  0  0  0  0  0  0
  187.4950  176.4220  141.9280 C   0  0  1  0  0  3  0  0  0  0  0  0
  186.9850  177.7790  140.0160 O   0  0  0  0  0  1  0  0  0  0  0  0
  186.4190  176.9550  140.9900 C   0  0  0  0  0  2  0  0  0  0  0  0
  188.3290  176.3080  145.2950 C   0  0  0  0  0  2  0  0  0  0  0  0
  187.5790  176.3950  146.9560 S   0  0  0  0  0  0  0  0  0  0  0  0
  186.4710  177.7480  146.4760 C   0  0  1  0  0  3  0  0  0  0  0  0
  184.0780  178.4460  146.2450 C   0  0  0  0  0  2  0  0  0  0  0  0
  186.7190  178.1090  145.0150 C   0  0  0  0  0  2  0  0  0  0  0  0
  184.3250  178.8130  144.7830 C   0  0  0  0  0  2  0  0  0  0  0  0
  185.7800  179.2340  144.5830 C   0  0  2  0  0  3  0  0  0  0  0  0
  185.0160  177.3200  146.6710 C   0  0  0  0  0  2  0  0  0  0  0  0
  185.9960  179.5280  143.2380 O   0  0  0  0  0  1  0  0  0  0  0  0
  1  6  1  1  0  0  0
  1  8  1  0  0  0  0
  4 22  1  1  0  0  0
  4  5  1  0  0  0  0
  5  2  1  0  0  0  0
  7  9  1  6  0  0  0
  7  1  1  0  0  0  0
  7  4  1  0  0  0  0
  8  3  2  0  0  0  0
  8  2  1  0  0  0  0
 11  9  1  0  0  0  0
 11 10  2  0  0  0  0
 12 11  1  0  0  0  0
 13 12  2  0  0  0  0
 13 17  1  0  0  0  0
 14 16  2  0  0  0  0
 15 16  1  0  0  0  0
 16 13  1  0  0  0  0
 17 19  1  0  0  0  0
 19 18  1  6  0  0  0
 20 21  1  0  0  0  0
 21 19  1  0  0  0  0
 22 23  1  0  0  0  0
 24 29  1  0  0  0  0
 24 23  1  6  0  0  0
 25 29  1  0  0  0  0
 26 24  1  0  0  0  0
 27 25  1  0  0  0  0
 28 30  1  6  0  0  0
 28 27  1  0  0  0  0
 28 26  1  0  0  0  0
M  END
>  <MODEL>
8

>  <REMARK>
 VINA RESULT:      -6.1      1.886      5.788
  Name = 
  10 active torsions:
  status: ('A' for Active; 'I' for Inactive)
    1  A    between atoms: O_5  and  C_13
    2  A    between atoms: O_5  and  C_21
    3  A    between atoms: C_6  and  S_24
    4  A    between atoms: C_10  and  C_27
    5  A    between atoms: C_11  and  C_21
    6  A    between atoms: C_13  and  C_26
    7  A    between atoms: C_14  and  C_25
    8  A    between atoms: O_17  and  C_25
    9  A    between atoms: O_17  and  C_28
   10  A    between atoms: S_24  and  C_27
                            x       y       z     vdW  Elec       q    Type
                         _______ _______ _______ _____ _____    ______ ____

>  <TORSDO>
F 10

$$$$
=
 OpenBabel11062419453D

 30 31  0  0  1  0  0  0  0  0999 V2000
  186.6810  177.6960  146.4990 C   0  0  1  0  0  3  0  0  0  0  0  0
  185.5570  178.0740  144.1880 C   0  0  0  0  0  2  0  0  0  0  0  0
  184.7120  178.9740  146.1880 O   0  0  0  0  0  0  0  0  0  0  0  0
  188.0570  177.5460  144.3130 C   0  0  1  0  0  3  0  0  0  0  0  0
  186.9460  178.3580  143.6230 C   0  0  0  0  0  2  0  0  0  0  0  0
  186.0940  176.8170  147.5900 C   0  0  0  0  0  1  0  0  0  0  0  0
  187.6470  176.8660  145.6380 C   0  0  1  0  0  3  0  0  0  0  0  0
  185.5790  178.2910  145.6670 C   0  0  0  0  0  0  0  0  0  0  0  0
  188.7950  176.4450  146.3800 O   0  0  0  0  0  0  0  0  0  0  0  0
  188.7610  174.5390  147.6440 O   0  0  0  0  0  0  0  0  0  0  0  0
  189.1630  175.1100  146.5960 C   0  0  0  0  0  0  0  0  0  0  0  0
  190.0090  174.3850  145.6230 C   0  0  0  0  0  3  0  0  0  0  0  0
  191.3440  174.3130  145.6440 C   0  0  0  0  0  0  0  0  0  0  0  0
  191.8710  172.3140  144.4530 O   0  0  0  0  0  0  0  0  0  0  0  0
  192.8860  174.2290  143.6460 N   0  0  0  0  0  1  0  0  0  0  0  0
  192.0240  173.5580  144.5630 C   0  0  0  0  0  0  0  0  0  0  0  0
  192.0550  174.9580  146.6700 O   0  0  0  0  0  0  0  0  0  0  0  0
  192.1780  176.9750  147.7760 O   0  0  0  0  0  1  0  0  0  0  0  0
  192.5280  176.3000  146.6070 C   0  0  1  0  0  3  0  0  0  0  0  0
  194.5650  177.5380  146.8790 O   0  0  0  0  0  1  0  0  0  0  0  0
  194.0410  176.3260  146.4290 C   0  0  0  0  0  2  0  0  0  0  0  0
  188.6910  176.5490  143.3480 C   0  0  0  0  0  2  0  0  0  0  0  0
  188.0670  176.7530  141.6460 S   0  0  0  0  0  0  0  0  0  0  0  0
  188.2510  174.9860  141.2770 C   0  0  1  0  0  3  0  0  0  0  0  0
  187.6470  172.6710  142.0140 C   0  0  0  0  0  2  0  0  0  0  0  0
  189.7300  174.6150  141.3160 C   0  0  0  0  0  2  0  0  0  0  0  0
  189.1270  172.2950  142.0480 C   0  0  0  0  0  2  0  0  0  0  0  0
  189.9060  173.1250  141.0280 C   0  0  2  0  0  3  0  0  0  0  0  0
  187.4760  174.1600  142.3040 C   0  0  0  0  0  2  0  0  0  0  0  0
  191.2590  172.7960  141.1000 O   0  0  0  0  0  1  0  0  0  0  0  0
  1  6  1  1  0  0  0
  2  8  1  0  0  0  0
  4 22  1  6  0  0  0
  4  7  1  0  0  0  0
  5  2  1  0  0  0  0
  5  4  1  0  0  0  0
  7  9  1  1  0  0  0
  7  1  1  0  0  0  0
  8  3  2  0  0  0  0
  8  1  1  0  0  0  0
  9 11  1  0  0  0  0
 11 10  2  0  0  0  0
 12 13  2  0  0  0  0
 12 11  1  0  0  0  0
 13 17  1  0  0  0  0
 14 16  2  0  0  0  0
 15 16  1  0  0  0  0
 16 13  1  0  0  0  0
 19 17  1  0  0  0  0
 19 18  1  1  0  0  0
 21 19  1  0  0  0  0
 21 20  1  0  0  0  0
 23 22  1  0  0  0  0
 24 26  1  0  0  0  0
 24 23  1  1  0  0  0
 24 29  1  0  0  0  0
 25 27  1  0  0  0  0
 25 29  1  0  0  0  0
 28 30  1  1  0  0  0
 28 26  1  0  0  0  0
 28 27  1  0  0  0  0
M  END
>  <MODEL>
9

>  <REMARK>
 VINA RESULT:      -6.0      2.435      4.878
  Name = 
  10 active torsions:
  status: ('A' for Active; 'I' for Inactive)
    1  A    between atoms: O_5  and  C_13
    2  A    between atoms: O_5  and  C_21
    3  A    between atoms: C_6  and  S_24
    4  A    between atoms: C_10  and  C_27
    5  A    between atoms: C_11  and  C_21
    6  A    between atoms: C_13  and  C_26
    7  A    between atoms: C_14  and  C_25
    8  A    between atoms: O_17  and  C_25
    9  A    between atoms: O_17  and  C_28
   10  A    between atoms: S_24  and  C_27
                            x       y       z     vdW  Elec       q    Type
                         _______ _______ _______ _____ _____    ______ ____

>  <TORSDO>
F 10

$$$$
