=
 OpenBabel11062422573D

 29 32  0  0  1  0  0  0  0  0999 V2000
  185.4380  178.4090  147.3530 C   0  0  0  0  0  3  0  0  0  0  0  0
  188.8410  178.3050  142.2110 C   0  0  0  0  0  1  0  0  0  0  0  0
  186.0940  177.3990  139.3450 C   0  0  0  0  0  2  0  0  0  0  0  0
  186.9410  176.8230  141.5630 C   0  0  0  0  0  2  0  0  0  0  0  0
  185.5100  178.1270  145.0040 C   0  0  0  0  0  0  0  0  0  0  0  0
  184.5970  178.1090  142.5780 C   0  0  0  0  0  0  0  0  0  0  0  0
  187.5380  177.1940  143.9100 O   0  0  0  0  0  0  0  0  0  0  0  0
  187.4580  177.5260  146.3350 C   0  0  0  0  0  0  0  0  0  0  0  0
  183.5490  178.4190  140.3660 C   0  0  0  0  0  1  0  0  0  0  0  0
  184.8540  178.4980  146.1330 N   0  0  0  0  0  0  0  0  0  0  0  0
  186.7380  177.9220  147.4720 C   0  0  0  0  0  3  0  0  0  0  0  0
  184.6440  177.9400  141.1960 N   0  0  0  0  0  0  0  0  0  0  0  0
  187.4690  177.8080  142.6170 C   0  0  1  0  0  3  0  0  0  0  0  0
  186.8400  177.6310  145.0640 C   0  0  0  0  0  0  0  0  0  0  0  0
  184.8400  178.1740  143.7470 C   0  0  0  0  0  0  0  0  0  0  0  0
  185.8890  177.4400  140.6560 C   0  0  0  0  0  0  0  0  0  0  0  0
  189.9290  177.5900  145.7640 C   0  0  0  0  0  2  0  0  0  0  0  0
  191.3930  175.0710  148.1350 C   0  0  0  0  0  1  0  0  0  0  0  0
  189.1650  175.8740  147.3050 C   0  0  2  0  0  3  0  0  0  0  0  0
  189.4870  174.6830  146.4130 C   0  0  0  0  0  2  0  0  0  0  0  0
  188.8050  177.0340  146.5040 N   0  0  0  0  0  0  0  0  0  0  0  0
  191.1300  176.7110  146.0800 C   0  0  1  0  0  3  0  0  0  0  0  0
  190.5990  175.5670  146.9450 C   0  0  2  0  0  0  0  0  0  0  0  0
  191.7800  176.1930  144.7960 C   0  0  1  0  0  3  0  0  0  0  0  0
  191.8380  177.2140  143.8450 O   0  0  0  0  0  1  0  0  0  0  0  0
  193.1950  175.6910  145.0800 C   0  0  0  0  0  2  0  0  0  0  0  0
  195.4820  176.4490  144.3340 C   0  0  0  0  0  1  0  0  0  0  0  0
  194.5550  177.1510  146.4230 O   0  0  0  0  0  1  0  0  0  0  0  0
  194.2270  176.8160  145.1080 C   0  0  2  0  0  3  0  0  0  0  0  0
  1 11  1  0  0  0  0
  3 16  2  0  0  0  0
  4 13  1  0  0  0  0
  5 14  2  0  0  0  0
  5 10  1  0  0  0  0
  6 15  3  0  0  0  0
  7 14  1  0  0  0  0
  8 21  1  0  0  0  0
  8 11  2  0  0  0  0
  9 12  1  0  0  0  0
 10  1  2  0  0  0  0
 12  6  1  0  0  0  0
 13  2  1  6  0  0  0
 13  7  1  0  0  0  0
 14  8  1  0  0  0  0
 15  5  1  0  0  0  0
 16 12  1  0  0  0  0
 16  4  1  0  0  0  0
 17 22  1  0  0  0  0
 17 21  1  0  0  0  0
 19 20  1  6  0  0  0
 20 23  1  0  0  0  0
 21 19  1  0  0  0  0
 22 24  1  6  0  0  0
 22 23  1  0  0  0  0
 23 19  1  0  0  0  0
 23 18  1  1  0  0  0
 24 25  1  6  0  0  0
 24 26  1  0  0  0  0
 26 29  1  0  0  0  0
 29 27  1  6  0  0  0
 29 28  1  0  0  0  0
M  END
>  <MODEL>
1

>  <REMARK>
 VINA RESULT:      -8.1      0.000      0.000
  Name = 
  4 active torsions:
  status: ('A' for Active; 'I' for Inactive)
    1  A    between atoms: C_7  and  C_24
    2  A    between atoms: C_7  and  C_29
    3  A    between atoms: C_13  and  N_21
    4  A    between atoms: C_14  and  C_29
                            x       y       z     vdW  Elec       q    Type
                         _______ _______ _______ _____ _____    ______ ____

>  <TORSDO>
F 4

$$$$
=
 OpenBabel11062422573D

 29 32  0  0  1  0  0  0  0  0999 V2000
  189.4940  174.6450  141.2930 C   0  0  0  0  0  3  0  0  0  0  0  0
  186.6630  176.8480  146.3090 C   0  0  0  0  0  1  0  0  0  0  0  0
  183.8370  179.3150  144.7250 C   0  0  0  0  0  2  0  0  0  0  0  0
  186.1880  178.6550  144.6540 C   0  0  0  0  0  2  0  0  0  0  0  0
  187.7850  176.0160  142.1890 C   0  0  0  0  0  0  0  0  0  0  0  0
  185.5330  177.3000  142.2230 C   0  0  0  0  0  0  0  0  0  0  0  0
  188.0920  177.1350  144.3870 O   0  0  0  0  0  0  0  0  0  0  0  0
  189.8350  175.6860  143.4600 C   0  0  0  0  0  0  0  0  0  0  0  0
  183.2440  178.2100  142.0810 C   0  0  0  0  0  1  0  0  0  0  0  0
  188.2690  175.2190  141.2020 N   0  0  0  0  0  0  0  0  0  0  0  0
  190.2900  174.8710  142.4130 C   0  0  0  0  0  3  0  0  0  0  0  0
  184.5300  178.1080  142.7540 N   0  0  0  0  0  0  0  0  0  0  0  0
  186.7380  177.2320  144.8460 C   0  0  1  0  0  3  0  0  0  0  0  0
  188.5490  176.2740  143.3580 C   0  0  0  0  0  0  0  0  0  0  0  0
  186.5200  176.6530  142.0290 C   0  0  0  0  0  0  0  0  0  0  0  0
  184.7890  178.6690  144.0610 C   0  0  0  0  0  0  0  0  0  0  0  0
  192.1420  175.8780  144.4980 C   0  0  0  0  0  2  0  0  0  0  0  0
  191.3730  176.7650  148.0660 C   0  0  0  0  0  1  0  0  0  0  0  0
  190.2190  175.9850  145.9790 C   0  0  2  0  0  3  0  0  0  0  0  0
  190.5150  174.7010  146.7410 C   0  0  0  0  0  2  0  0  0  0  0  0
  190.6910  175.8870  144.6060 N   0  0  0  0  0  0  0  0  0  0  0  0
  192.6800  175.9500  145.9200 C   0  0  1  0  0  3  0  0  0  0  0  0
  191.4570  175.8850  146.8360 C   0  0  2  0  0  0  0  0  0  0  0  0
  193.6520  174.8010  146.1940 C   0  0  1  0  0  3  0  0  0  0  0  0
  193.4740  173.7890  145.2470 O   0  0  0  0  0  1  0  0  0  0  0  0
  195.0960  175.2980  146.1330 C   0  0  0  0  0  2  0  0  0  0  0  0
  196.9570  173.5990  146.2020 C   0  0  0  0  0  1  0  0  0  0  0  0
  196.7200  175.1130  144.3680 O   0  0  0  0  0  1  0  0  0  0  0  0
  196.0030  174.3810  145.3170 C   0  0  2  0  0  3  0  0  0  0  0  0
  1 11  1  0  0  0  0
  4 13  1  0  0  0  0
  5 14  2  0  0  0  0
  6 12  1  0  0  0  0
  7 13  1  0  0  0  0
  8 21  1  0  0  0  0
  9 12  1  0  0  0  0
 10  1  2  0  0  0  0
 10  5  1  0  0  0  0
 11  8  2  0  0  0  0
 12 16  1  0  0  0  0
 13  2  1  1  0  0  0
 14  8  1  0  0  0  0
 14  7  1  0  0  0  0
 15  5  1  0  0  0  0
 15  6  3  0  0  0  0
 16  4  1  0  0  0  0
 16  3  2  0  0  0  0
 17 21  1  0  0  0  0
 17 22  1  0  0  0  0
 19 20  1  1  0  0  0
 19 23  1  0  0  0  0
 20 23  1  0  0  0  0
 21 19  1  0  0  0  0
 22 24  1  1  0  0  0
 22 23  1  0  0  0  0
 23 18  1  1  0  0  0
 24 25  1  6  0  0  0
 26 24  1  0  0  0  0
 28 29  1  0  0  0  0
 29 26  1  0  0  0  0
 29 27  1  1  0  0  0
M  END
>  <MODEL>
2

>  <REMARK>
 VINA RESULT:      -7.7      2.152      3.752
  Name = 
  4 active torsions:
  status: ('A' for Active; 'I' for Inactive)
    1  A    between atoms: C_7  and  C_24
    2  A    between atoms: C_7  and  C_29
    3  A    between atoms: C_13  and  N_21
    4  A    between atoms: C_14  and  C_29
                            x       y       z     vdW  Elec       q    Type
                         _______ _______ _______ _____ _____    ______ ____

>  <TORSDO>
F 4

$$$$
=
 OpenBabel11062422573D

 29 32  0  0  1  0  0  0  0  0999 V2000
  189.4010  175.1630  147.2950 C   0  0  0  0  0  3  0  0  0  0  0  0
  192.3240  174.7230  141.8840 C   0  0  0  0  0  1  0  0  0  0  0  0
  196.2320  175.1500  142.9470 C   0  0  0  0  0  2  0  0  0  0  0  0
  193.9730  176.0390  143.2180 C   0  0  0  0  0  2  0  0  0  0  0  0
  191.4590  175.1410  146.1270 C   0  0  0  0  0  0  0  0  0  0  0  0
  194.0090  174.8110  145.8000 C   0  0  0  0  0  0  0  0  0  0  0  0
  191.5930  175.9960  143.7970 O   0  0  0  0  0  0  0  0  0  0  0  0
  189.4650  175.9800  145.0100 C   0  0  0  0  0  0  0  0  0  0  0  0
  196.3920  174.1790  145.7020 C   0  0  0  0  0  1  0  0  0  0  0  0
  190.7290  174.8950  147.2450 N   0  0  0  0  0  0  0  0  0  0  0  0
  188.7540  175.7080  146.1890 C   0  0  0  0  0  3  0  0  0  0  0  0
  195.2190  174.8010  145.1080 N   0  0  0  0  0  0  0  0  0  0  0  0
  192.6750  175.2180  143.2720 C   0  0  1  0  0  3  0  0  0  0  0  0
  190.8510  175.6880  144.9650 C   0  0  0  0  0  0  0  0  0  0  0  0
  192.8640  174.9060  146.1340 C   0  0  0  0  0  0  0  0  0  0  0  0
  195.1750  175.2720  143.7420 C   0  0  0  0  0  0  0  0  0  0  0  0
  188.3390  177.9330  143.8460 C   0  0  0  0  0  2  0  0  0  0  0  0
  187.4280  176.4880  140.5000 C   0  0  0  0  0  1  0  0  0  0  0  0
  188.2660  175.7640  142.7520 C   0  0  2  0  0  3  0  0  0  0  0  0
  186.7580  175.5770  142.8390 C   0  0  0  0  0  2  0  0  0  0  0  0
  188.7530  176.5380  143.8840 N   0  0  0  0  0  0  0  0  0  0  0  0
  187.4840  178.0940  142.5970 C   0  0  1  0  0  3  0  0  0  0  0  0
  187.3450  176.6940  141.9980 C   0  0  2  0  0  0  0  0  0  0  0  0
  186.1210  178.6970  142.9440 C   0  0  1  0  0  3  0  0  0  0  0  0
  185.1000  177.8760  142.4600 O   0  0  0  0  0  1  0  0  0  0  0  0
  185.9730  178.8440  144.4580 C   0  0  0  0  0  2  0  0  0  0  0  0
  183.9670  178.7490  145.9820 C   0  0  0  0  0  1  0  0  0  0  0  0
  185.3920  176.8540  145.6770 O   0  0  0  0  0  1  0  0  0  0  0  0
  184.8590  177.9720  145.0300 C   0  0  2  0  0  3  0  0  0  0  0  0
  3 16  2  0  0  0  0
  4 13  1  0  0  0  0
  4 16  1  0  0  0  0
  5 15  1  0  0  0  0
  5 10  2  0  0  0  0
  6 15  3  0  0  0  0
  7 14  1  0  0  0  0
  8 11  1  0  0  0  0
 10  1  1  0  0  0  0
 11  1  2  0  0  0  0
 12  9  1  0  0  0  0
 12  6  1  0  0  0  0
 13  2  1  6  0  0  0
 13  7  1  0  0  0  0
 14  8  2  0  0  0  0
 14  5  1  0  0  0  0
 16 12  1  0  0  0  0
 17 21  1  0  0  0  0
 19 20  1  1  0  0  0
 19 21  1  0  0  0  0
 21  8  1  0  0  0  0
 22 24  1  1  0  0  0
 22 17  1  0  0  0  0
 23 18  1  6  0  0  0
 23 22  1  0  0  0  0
 23 19  1  0  0  0  0
 23 20  1  0  0  0  0
 24 25  1  1  0  0  0
 24 26  1  0  0  0  0
 26 29  1  0  0  0  0
 29 28  1  0  0  0  0
 29 27  1  1  0  0  0
M  END
>  <MODEL>
3

>  <REMARK>
 VINA RESULT:      -7.4      2.312      7.682
  Name = 
  4 active torsions:
  status: ('A' for Active; 'I' for Inactive)
    1  A    between atoms: C_7  and  C_24
    2  A    between atoms: C_7  and  C_29
    3  A    between atoms: C_13  and  N_21
    4  A    between atoms: C_14  and  C_29
                            x       y       z     vdW  Elec       q    Type
                         _______ _______ _______ _____ _____    ______ ____

>  <TORSDO>
F 4

$$$$
=
 OpenBabel11062422573D

 29 32  0  0  1  0  0  0  0  0999 V2000
  185.5520  178.6290  147.3770 C   0  0  0  0  0  3  0  0  0  0  0  0
  188.6390  178.3400  142.0470 C   0  0  0  0  0  1  0  0  0  0  0  0
  185.7020  177.4710  139.3640 C   0  0  0  0  0  2  0  0  0  0  0  0
  186.6610  176.9050  141.5380 C   0  0  0  0  0  2  0  0  0  0  0  0
  185.4760  178.3070  145.0330 C   0  0  0  0  0  0  0  0  0  0  0  0
  184.4210  178.2770  142.6650 C   0  0  0  0  0  0  0  0  0  0  0  0
  187.4070  177.2970  143.8380 O   0  0  0  0  0  0  0  0  0  0  0  0
  187.4810  177.6690  146.2580 C   0  0  0  0  0  0  0  0  0  0  0  0
  183.2520  178.5830  140.5140 C   0  0  0  0  0  1  0  0  0  0  0  0
  184.8990  178.7160  146.1920 N   0  0  0  0  0  0  0  0  0  0  0  0
  186.8410  178.1060  147.4280 C   0  0  0  0  0  3  0  0  0  0  0  0
  184.3800  178.0850  141.2860 N   0  0  0  0  0  0  0  0  0  0  0  0
  187.2800  177.8910  142.5410 C   0  0  1  0  0  3  0  0  0  0  0  0
  186.7930  177.7730  145.0230 C   0  0  0  0  0  0  0  0  0  0  0  0
  184.7340  178.3540  143.8180 C   0  0  0  0  0  0  0  0  0  0  0  0
  185.5760  177.5390  140.6840 C   0  0  0  0  0  0  0  0  0  0  0  0
  189.8770  177.5370  145.4360 C   0  0  0  0  0  2  0  0  0  0  0  0
  191.5000  175.2920  147.9740 C   0  0  0  0  0  1  0  0  0  0  0  0
  189.2250  176.0820  147.2700 C   0  0  2  0  0  3  0  0  0  0  0  0
  189.4090  174.7680  146.5240 C   0  0  0  0  0  2  0  0  0  0  0  0
  188.8210  177.1400  146.3560 N   0  0  0  0  0  0  0  0  0  0  0  0
  191.0750  176.6510  145.7480 C   0  0  1  0  0  3  0  0  0  0  0  0
  190.6000  175.6610  146.8130 C   0  0  2  0  0  0  0  0  0  0  0  0
  191.5660  175.9340  144.4890 C   0  0  1  0  0  3  0  0  0  0  0  0
  192.2740  174.7820  144.8420 O   0  0  0  0  0  1  0  0  0  0  0  0
  190.3840  175.5440  143.6030 C   0  0  0  0  0  2  0  0  0  0  0  0
  191.0700  174.2060  141.5790 C   0  0  0  0  0  1  0  0  0  0  0  0
  189.3130  173.4700  143.0230 O   0  0  0  0  0  1  0  0  0  0  0  0
  190.5320  174.1500  142.9980 C   0  0  2  0  0  3  0  0  0  0  0  0
  1 11  1  0  0  0  0
  3 16  2  0  0  0  0
  4 13  1  0  0  0  0
  5 10  1  0  0  0  0
  6 15  3  0  0  0  0
  7 14  1  0  0  0  0
  8 21  1  0  0  0  0
  8 11  2  0  0  0  0
  9 12  1  0  0  0  0
 10  1  2  0  0  0  0
 12  6  1  0  0  0  0
 13  2  1  6  0  0  0
 13  7  1  0  0  0  0
 14  5  2  0  0  0  0
 14  8  1  0  0  0  0
 15  5  1  0  0  0  0
 16 12  1  0  0  0  0
 16  4  1  0  0  0  0
 17 22  1  0  0  0  0
 17 21  1  0  0  0  0
 19 20  1  6  0  0  0
 20 23  1  0  0  0  0
 21 19  1  0  0  0  0
 22 24  1  6  0  0  0
 22 23  1  0  0  0  0
 23 19  1  0  0  0  0
 23 18  1  1  0  0  0
 24 25  1  1  0  0  0
 26 24  1  0  0  0  0
 29 27  1  6  0  0  0
 29 28  1  0  0  0  0
 29 26  1  0  0  0  0
M  END
>  <MODEL>
4

>  <REMARK>
 VINA RESULT:      -7.4      1.367      2.108
  Name = 
  4 active torsions:
  status: ('A' for Active; 'I' for Inactive)
    1  A    between atoms: C_7  and  C_24
    2  A    between atoms: C_7  and  C_29
    3  A    between atoms: C_13  and  N_21
    4  A    between atoms: C_14  and  C_29
                            x       y       z     vdW  Elec       q    Type
                         _______ _______ _______ _____ _____    ______ ____

>  <TORSDO>
F 4

$$$$
=
 OpenBabel11062422573D

 29 32  0  0  1  0  0  0  0  0999 V2000
  188.6050  174.7800  141.0810 C   0  0  0  0  0  3  0  0  0  0  0  0
  188.8370  175.1250  147.2330 C   0  0  0  0  0  1  0  0  0  0  0  0
  186.2420  178.1530  148.0530 C   0  0  0  0  0  2  0  0  0  0  0  0
  188.1070  177.4380  146.6470 C   0  0  0  0  0  2  0  0  0  0  0  0
  187.8200  175.8140  143.0600 C   0  0  0  0  0  0  0  0  0  0  0  0
  186.1660  177.1160  144.5730 C   0  0  0  0  0  0  0  0  0  0  0  0
  189.3030  176.0230  145.0440 O   0  0  0  0  0  0  0  0  0  0  0  0
  190.0860  174.9260  142.9990 C   0  0  0  0  0  0  0  0  0  0  0  0
  184.3180  178.1380  145.8480 C   0  0  0  0  0  1  0  0  0  0  0  0
  187.6290  175.4130  141.7770 N   0  0  0  0  0  0  0  0  0  0  0  0
  189.8400  174.5310  141.6760 C   0  0  0  0  0  3  0  0  0  0  0  0
  185.7080  177.7240  145.7390 N   0  0  0  0  0  0  0  0  0  0  0  0
  188.3480  176.0180  146.1120 C   0  0  1  0  0  3  0  0  0  0  0  0
  189.0560  175.5790  143.7210 C   0  0  0  0  0  0  0  0  0  0  0  0
  186.7940  176.5330  143.7370 C   0  0  0  0  0  0  0  0  0  0  0  0
  186.6330  177.7470  146.8510 C   0  0  0  0  0  0  0  0  0  0  0  0
  192.4160  175.6570  143.6880 C   0  0  0  0  0  2  0  0  0  0  0  0
  193.7700  172.5990  145.4000 C   0  0  0  0  0  1  0  0  0  0  0  0
  191.8250  173.3180  143.9860 C   0  0  2  0  0  3  0  0  0  0  0  0
  192.8250  172.7580  142.9850 C   0  0  0  0  0  2  0  0  0  0  0  0
  191.3780  174.6420  143.5790 N   0  0  0  0  0  0  0  0  0  0  0  0
  193.6650  174.9430  144.1850 C   0  0  1  0  0  3  0  0  0  0  0  0
  193.3070  173.4570  144.2410 C   0  0  2  0  0  0  0  0  0  0  0  0
  194.8490  175.2030  143.2530 C   0  0  1  0  0  3  0  0  0  0  0  0
  194.4940  176.1410  142.2800 O   0  0  0  0  0  1  0  0  0  0  0  0
  196.0460  175.7290  144.0450 C   0  0  0  0  0  2  0  0  0  0  0  0
  196.9990  173.5100  143.3210 C   0  0  0  0  0  1  0  0  0  0  0  0
  196.9760  174.1670  145.6190 O   0  0  0  0  0  1  0  0  0  0  0  0
  197.0950  174.6540  144.3150 C   0  0  2  0  0  3  0  0  0  0  0  0
  1 11  2  0  0  0  0
  1 10  1  0  0  0  0
  4 16  1  0  0  0  0
  5 14  1  0  0  0  0
  5 15  1  0  0  0  0
  6 12  1  0  0  0  0
  7 13  1  0  0  0  0
  8 21  1  0  0  0  0
  8 14  2  0  0  0  0
 10  5  2  0  0  0  0
 11  8  1  0  0  0  0
 12  9  1  0  0  0  0
 12 16  1  0  0  0  0
 13  4  1  0  0  0  0
 13  2  1  1  0  0  0
 14  7  1  0  0  0  0
 15  6  3  0  0  0  0
 16  3  2  0  0  0  0
 17 22  1  0  0  0  0
 19 20  1  6  0  0  0
 19 23  1  0  0  0  0
 20 23  1  0  0  0  0
 21 17  1  0  0  0  0
 21 19  1  0  0  0  0
 22 24  1  6  0  0  0
 22 23  1  0  0  0  0
 23 18  1  1  0  0  0
 24 25  1  6  0  0  0
 24 26  1  0  0  0  0
 26 29  1  0  0  0  0
 29 27  1  6  0  0  0
 29 28  1  0  0  0  0
M  END
>  <MODEL>
5

>  <REMARK>
 VINA RESULT:      -7.2      2.519      4.849
  Name = 
  4 active torsions:
  status: ('A' for Active; 'I' for Inactive)
    1  A    between atoms: C_7  and  C_24
    2  A    between atoms: C_7  and  C_29
    3  A    between atoms: C_13  and  N_21
    4  A    between atoms: C_14  and  C_29
                            x       y       z     vdW  Elec       q    Type
                         _______ _______ _______ _____ _____    ______ ____

>  <TORSDO>
F 4

$$$$
=
 OpenBabel11062422573D

 29 32  0  0  1  0  0  0  0  0999 V2000
  190.0310  173.5910  140.0770 C   0  0  0  0  0  3  0  0  0  0  0  0
  192.1370  177.0210  144.7490 C   0  0  0  0  0  1  0  0  0  0  0  0
  195.3850  174.9120  146.0080 C   0  0  0  0  0  2  0  0  0  0  0  0
  193.0340  174.7730  145.3580 C   0  0  0  0  0  2  0  0  0  0  0  0
  191.6690  173.8970  141.7580 C   0  0  0  0  0  0  0  0  0  0  0  0
  193.9800  173.6470  142.9060 C   0  0  0  0  0  0  0  0  0  0  0  0
  191.0860  175.0260  143.8940 O   0  0  0  0  0  0  0  0  0  0  0  0
  189.4120  174.7300  142.1300 C   0  0  0  0  0  0  0  0  0  0  0  0
  196.3270  173.4640  143.6460 C   0  0  0  0  0  1  0  0  0  0  0  0
  191.2970  173.4330  140.5380 N   0  0  0  0  0  0  0  0  0  0  0  0
  189.0770  174.2340  140.8610 C   0  0  0  0  0  3  0  0  0  0  0  0
  194.9410  173.8290  143.8980 N   0  0  0  0  0  0  0  0  0  0  0  0
  192.3450  175.6020  144.2620 C   0  0  1  0  0  3  0  0  0  0  0  0
  190.7410  174.5680  142.5980 C   0  0  0  0  0  0  0  0  0  0  0  0
  192.9910  173.6560  142.2330 C   0  0  0  0  0  0  0  0  0  0  0  0
  194.5100  174.5430  145.0790 C   0  0  0  0  0  0  0  0  0  0  0  0
  187.0600  175.6470  142.3790 C   0  0  0  0  0  2  0  0  0  0  0  0
  186.9950  176.7970  145.9550 C   0  0  0  0  0  1  0  0  0  0  0  0
  188.6150  175.9980  144.2140 C   0  0  2  0  0  3  0  0  0  0  0  0
  188.6720  177.5150  144.1050 C   0  0  0  0  0  2  0  0  0  0  0  0
  188.3940  175.3980  142.9070 N   0  0  0  0  0  0  0  0  0  0  0  0
  186.3430  176.5060  143.4110 C   0  0  1  0  0  3  0  0  0  0  0  0
  187.3800  176.8210  144.4910 C   0  0  2  0  0  0  0  0  0  0  0  0
  185.7910  177.7810  142.7710 C   0  0  1  0  0  3  0  0  0  0  0  0
  185.7790  177.6490  141.3800 O   0  0  0  0  0  1  0  0  0  0  0  0
  184.3700  178.0520  143.2630 C   0  0  0  0  0  2  0  0  0  0  0  0
  185.5660  180.0380  144.2550 C   0  0  0  0  0  1  0  0  0  0  0  0
  184.0670  178.7080  145.5570 O   0  0  0  0  0  1  0  0  0  0  0  0
  184.3020  179.1970  144.2710 C   0  0  2  0  0  3  0  0  0  0  0  0
  1 10  2  0  0  0  0
  1 11  1  0  0  0  0
  5 15  1  0  0  0  0
  5 14  2  0  0  0  0
  6 12  1  0  0  0  0
  7 13  1  0  0  0  0
  8 14  1  0  0  0  0
  8 21  1  0  0  0  0
  9 12  1  0  0  0  0
 10  5  1  0  0  0  0
 11  8  2  0  0  0  0
 12 16  1  0  0  0  0
 13  2  1  1  0  0  0
 13  4  1  0  0  0  0
 14  7  1  0  0  0  0
 15  6  3  0  0  0  0
 16  4  1  0  0  0  0
 16  3  2  0  0  0  0
 17 21  1  0  0  0  0
 17 22  1  0  0  0  0
 19 20  1  6  0  0  0
 19 23  1  0  0  0  0
 20 23  1  0  0  0  0
 21 19  1  0  0  0  0
 22 24  1  6  0  0  0
 22 23  1  0  0  0  0
 23 18  1  1  0  0  0
 24 25  1  6  0  0  0
 24 26  1  0  0  0  0
 26 29  1  0  0  0  0
 29 27  1  1  0  0  0
 29 28  1  0  0  0  0
M  END
>  <MODEL>
6

>  <REMARK>
 VINA RESULT:      -7.1      3.184      8.122
  Name = 
  4 active torsions:
  status: ('A' for Active; 'I' for Inactive)
    1  A    between atoms: C_7  and  C_24
    2  A    between atoms: C_7  and  C_29
    3  A    between atoms: C_13  and  N_21
    4  A    between atoms: C_14  and  C_29
                            x       y       z     vdW  Elec       q    Type
                         _______ _______ _______ _____ _____    ______ ____

>  <TORSDO>
F 4

$$$$
=
 OpenBabel11062422573D

 29 32  0  0  1  0  0  0  0  0999 V2000
  188.5740  175.5530  147.4940 C   0  0  0  0  0  3  0  0  0  0  0  0
  189.2480  178.2890  142.0090 C   0  0  0  0  0  1  0  0  0  0  0  0
  185.4520  178.2760  140.5360 C   0  0  0  0  0  2  0  0  0  0  0  0
  187.1830  176.9410  141.6260 C   0  0  0  0  0  2  0  0  0  0  0  0
  187.5520  176.3430  145.5110 C   0  0  0  0  0  0  0  0  0  0  0  0
  185.6340  177.2340  144.0110 C   0  0  0  0  0  0  0  0  0  0  0  0
  188.8030  176.3440  143.3630 O   0  0  0  0  0  0  0  0  0  0  0  0
  189.8560  175.5610  145.4320 C   0  0  0  0  0  0  0  0  0  0  0  0
  183.7110  178.2970  142.8880 C   0  0  0  0  0  1  0  0  0  0  0  0
  187.5030  176.0660  146.8390 N   0  0  0  0  0  0  0  0  0  0  0  0
  189.7560  175.2920  146.8050 C   0  0  0  0  0  3  0  0  0  0  0  0
  185.0360  177.6980  142.8410 N   0  0  0  0  0  0  0  0  0  0  0  0
  188.1860  177.4400  142.6770 C   0  0  1  0  0  3  0  0  0  0  0  0
  188.7340  176.1060  144.7590 C   0  0  0  0  0  0  0  0  0  0  0  0
  186.3860  176.8210  144.8450 C   0  0  0  0  0  0  0  0  0  0  0  0
  185.8690  177.7040  141.6590 C   0  0  0  0  0  0  0  0  0  0  0  0
  191.6290  173.9310  144.6360 C   0  0  0  0  0  2  0  0  0  0  0  0
  193.9680  176.1360  142.6920 C   0  0  0  0  0  1  0  0  0  0  0  0
  192.0150  176.3000  144.2590 C   0  0  2  0  0  3  0  0  0  0  0  0
  193.2300  176.4250  145.1660 C   0  0  0  0  0  2  0  0  0  0  0  0
  191.1030  175.2820  144.7590 N   0  0  0  0  0  0  0  0  0  0  0  0
  193.0180  174.0630  144.0270 C   0  0  1  0  0  3  0  0  0  0  0  0
  193.2880  175.5650  143.9190 C   0  0  2  0  0  0  0  0  0  0  0  0
  194.0640  173.3620  144.8950 C   0  0  1  0  0  3  0  0  0  0  0  0
  193.5440  172.1660  145.3960 O   0  0  0  0  0  1  0  0  0  0  0  0
  195.3190  173.0610  144.0780 C   0  0  0  0  0  2  0  0  0  0  0  0
  196.8030  172.9890  146.1150 C   0  0  0  0  0  1  0  0  0  0  0  0
  196.5670  174.9800  144.8140 O   0  0  0  0  0  1  0  0  0  0  0  0
  196.5930  173.5870  144.7350 C   0  0  2  0  0  3  0  0  0  0  0  0
  3 16  2  0  0  0  0
  4 16  1  0  0  0  0
  4 13  1  0  0  0  0
  5 10  2  0  0  0  0
  6 15  3  0  0  0  0
  7 14  1  0  0  0  0
  8 11  1  0  0  0  0
 10  1  1  0  0  0  0
 11  1  2  0  0  0  0
 12  9  1  0  0  0  0
 12  6  1  0  0  0  0
 13  2  1  6  0  0  0
 13  7  1  0  0  0  0
 14  8  2  0  0  0  0
 14  5  1  0  0  0  0
 15  5  1  0  0  0  0
 16 12  1  0  0  0  0
 17 21  1  0  0  0  0
 19 21  1  0  0  0  0
 19 20  1  1  0  0  0
 21  8  1  0  0  0  0
 22 17  1  0  0  0  0
 22 24  1  1  0  0  0
 23 18  1  6  0  0  0
 23 22  1  0  0  0  0
 23 19  1  0  0  0  0
 23 20  1  0  0  0  0
 24 25  1  6  0  0  0
 26 29  1  0  0  0  0
 26 24  1  0  0  0  0
 29 28  1  0  0  0  0
 29 27  1  1  0  0  0
M  END
>  <MODEL>
7

>  <REMARK>
 VINA RESULT:      -7.0      2.154      3.386
  Name = 
  4 active torsions:
  status: ('A' for Active; 'I' for Inactive)
    1  A    between atoms: C_7  and  C_24
    2  A    between atoms: C_7  and  C_29
    3  A    between atoms: C_13  and  N_21
    4  A    between atoms: C_14  and  C_29
                            x       y       z     vdW  Elec       q    Type
                         _______ _______ _______ _____ _____    ______ ____

>  <TORSDO>
F 4

$$$$
=
 OpenBabel11062422573D

 29 32  0  0  1  0  0  0  0  0999 V2000
  186.2530  178.3900  148.0130 C   0  0  0  0  0  3  0  0  0  0  0  0
  187.2460  178.6670  141.9330 C   0  0  0  0  0  1  0  0  0  0  0  0
  183.4940  178.2730  140.4000 C   0  0  0  0  0  2  0  0  0  0  0  0
  185.1020  177.3920  142.0150 C   0  0  0  0  0  2  0  0  0  0  0  0
  185.3350  178.3770  145.8310 C   0  0  0  0  0  0  0  0  0  0  0  0
  183.5200  178.6970  144.0080 C   0  0  0  0  0  0  0  0  0  0  0  0
  186.6350  177.4520  143.9250 O   0  0  0  0  0  0  0  0  0  0  0  0
  187.5810  177.5050  146.1840 C   0  0  0  0  0  0  0  0  0  0  0  0
  181.7040  179.3260  142.4610 C   0  0  0  0  0  1  0  0  0  0  0  0
  185.2360  178.6560  147.1560 N   0  0  0  0  0  0  0  0  0  0  0  0
  187.4290  177.8120  147.5440 C   0  0  0  0  0  3  0  0  0  0  0  0
  182.9840  178.6870  142.7220 N   0  0  0  0  0  0  0  0  0  0  0  0
  186.1120  178.2140  142.8300 C   0  0  1  0  0  3  0  0  0  0  0  0
  186.5150  177.7950  145.2950 C   0  0  0  0  0  0  0  0  0  0  0  0
  184.2220  178.6120  144.9730 C   0  0  0  0  0  0  0  0  0  0  0  0
  183.8440  178.1750  141.6780 C   0  0  0  0  0  0  0  0  0  0  0  0
  189.6920  176.1750  146.6420 C   0  0  0  0  0  2  0  0  0  0  0  0
  191.2340  175.8690  143.2300 C   0  0  0  0  0  1  0  0  0  0  0  0
  189.3910  177.0950  144.4130 C   0  0  2  0  0  3  0  0  0  0  0  0
  190.5700  178.0580  144.4620 C   0  0  0  0  0  2  0  0  0  0  0  0
  188.8210  176.9130  145.7390 N   0  0  0  0  0  0  0  0  0  0  0  0
  190.9580  175.8610  145.8570 C   0  0  1  0  0  3  0  0  0  0  0  0
  190.8000  176.5590  144.5060 C   0  0  2  0  0  0  0  0  0  0  0  0
  192.1990  176.3540  146.6050 C   0  0  1  0  0  3  0  0  0  0  0  0
  191.8910  176.5700  147.9500 O   0  0  0  0  0  1  0  0  0  0  0  0
  193.3240  175.3240  146.5060 C   0  0  0  0  0  2  0  0  0  0  0  0
  194.5630  177.3700  145.7080 C   0  0  0  0  0  1  0  0  0  0  0  0
  195.4540  175.1730  145.4010 O   0  0  0  0  0  1  0  0  0  0  0  0
  194.6890  175.9620  146.2620 C   0  0  2  0  0  3  0  0  0  0  0  0
  3 16  2  0  0  0  0
  4 13  1  0  0  0  0
  5 10  1  0  0  0  0
  6 15  3  0  0  0  0
  7 14  1  0  0  0  0
  8 11  2  0  0  0  0
  9 12  1  0  0  0  0
 10  1  2  0  0  0  0
 11  1  1  0  0  0  0
 12  6  1  0  0  0  0
 13  2  1  6  0  0  0
 13  7  1  0  0  0  0
 14  5  2  0  0  0  0
 14  8  1  0  0  0  0
 15  5  1  0  0  0  0
 16  4  1  0  0  0  0
 16 12  1  0  0  0  0
 19 20  1  1  0  0  0
 19 23  1  0  0  0  0
 19 21  1  0  0  0  0
 20 23  1  0  0  0  0
 21  8  1  0  0  0  0
 21 17  1  0  0  0  0
 22 24  1  1  0  0  0
 22 17  1  0  0  0  0
 23 18  1  6  0  0  0
 23 22  1  0  0  0  0
 24 25  1  1  0  0  0
 26 24  1  0  0  0  0
 28 29  1  0  0  0  0
 29 27  1  6  0  0  0
 29 26  1  0  0  0  0
M  END
>  <MODEL>
8

>  <REMARK>
 VINA RESULT:      -7.0      1.611      2.232
  Name = 
  4 active torsions:
  status: ('A' for Active; 'I' for Inactive)
    1  A    between atoms: C_7  and  C_24
    2  A    between atoms: C_7  and  C_29
    3  A    between atoms: C_13  and  N_21
    4  A    between atoms: C_14  and  C_29
                            x       y       z     vdW  Elec       q    Type
                         _______ _______ _______ _____ _____    ______ ____

>  <TORSDO>
F 4

$$$$
=
 OpenBabel11062422573D

 29 32  0  0  1  0  0  0  0  0999 V2000
  189.6290  171.4830  142.6690 C   0  0  0  0  0  3  0  0  0  0  0  0
  193.6070  176.0400  143.8650 C   0  0  0  0  0  1  0  0  0  0  0  0
  196.4690  174.1660  146.0730 C   0  0  0  0  0  2  0  0  0  0  0  0
  194.0670  174.4860  145.7630 C   0  0  0  0  0  2  0  0  0  0  0  0
  191.6640  172.1520  143.6740 C   0  0  0  0  0  0  0  0  0  0  0  0
  194.0630  171.8680  144.6160 C   0  0  0  0  0  0  0  0  0  0  0  0
  191.9290  174.4570  144.5670 O   0  0  0  0  0  0  0  0  0  0  0  0
  189.8420  173.7560  143.4940 C   0  0  0  0  0  0  0  0  0  0  0  0
  196.4070  171.3720  145.2040 C   0  0  0  0  0  1  0  0  0  0  0  0
  190.8940  171.2100  143.0710 N   0  0  0  0  0  0  0  0  0  0  0  0
  189.0860  172.7490  142.8750 C   0  0  0  0  0  3  0  0  0  0  0  0
  195.2590  172.2660  145.2080 N   0  0  0  0  0  0  0  0  0  0  0  0
  193.3400  174.6560  144.4200 C   0  0  1  0  0  3  0  0  0  0  0  0
  191.1670  173.4630  143.9020 C   0  0  0  0  0  0  0  0  0  0  0  0
  192.9660  171.8100  144.1400 C   0  0  0  0  0  0  0  0  0  0  0  0
  195.3250  173.6420  145.6470 C   0  0  0  0  0  0  0  0  0  0  0  0
  189.0170  175.6200  145.0050 C   0  0  0  0  0  2  0  0  0  0  0  0
  188.0210  178.2900  142.5570 C   0  0  0  0  0  1  0  0  0  0  0  0
  188.6910  175.8730  142.6100 C   0  0  2  0  0  3  0  0  0  0  0  0
  187.1690  175.8370  142.6370 C   0  0  0  0  0  2  0  0  0  0  0  0
  189.2430  175.0570  143.6810 N   0  0  0  0  0  0  0  0  0  0  0  0
  188.2270  176.9040  144.7970 C   0  0  1  0  0  3  0  0  0  0  0  0
  187.9230  176.9740  143.3000 C   0  0  2  0  0  0  0  0  0  0  0  0
  186.9460  176.8980  145.6330 C   0  0  1  0  0  3  0  0  0  0  0  0
  187.1960  176.3270  146.8840 O   0  0  0  0  0  1  0  0  0  0  0  0
  186.4280  178.3220  145.8260 C   0  0  0  0  0  2  0  0  0  0  0  0
  185.1010  179.7910  144.2630 C   0  0  0  0  0  1  0  0  0  0  0  0
  184.0640  178.6680  146.1010 O   0  0  0  0  0  1  0  0  0  0  0  0
  185.0800  178.5580  145.1500 C   0  0  2  0  0  3  0  0  0  0  0  0
  1 11  2  0  0  0  0
  1 10  1  0  0  0  0
  5 14  1  0  0  0  0
  5 15  1  0  0  0  0
  6 12  1  0  0  0  0
  8 21  1  0  0  0  0
  8 14  2  0  0  0  0
  9 12  1  0  0  0  0
 10  5  2  0  0  0  0
 11  8  1  0  0  0  0
 12 16  1  0  0  0  0
 13  2  1  1  0  0  0
 13  7  1  0  0  0  0
 13  4  1  0  0  0  0
 14  7  1  0  0  0  0
 15  6  3  0  0  0  0
 16  4  1  0  0  0  0
 16  3  2  0  0  0  0
 19 20  1  6  0  0  0
 19 23  1  0  0  0  0
 19 21  1  0  0  0  0
 20 23  1  0  0  0  0
 21 17  1  0  0  0  0
 22 17  1  0  0  0  0
 22 24  1  1  0  0  0
 23 18  1  6  0  0  0
 23 22  1  0  0  0  0
 24 26  1  0  0  0  0
 24 25  1  1  0  0  0
 29 27  1  1  0  0  0
 29 26  1  0  0  0  0
 29 28  1  0  0  0  0
M  END
>  <MODEL>
9

>  <REMARK>
 VINA RESULT:      -6.9      3.445      8.436
  Name = 
  4 active torsions:
  status: ('A' for Active; 'I' for Inactive)
    1  A    between atoms: C_7  and  C_24
    2  A    between atoms: C_7  and  C_29
    3  A    between atoms: C_13  and  N_21
    4  A    between atoms: C_14  and  C_29
                            x       y       z     vdW  Elec       q    Type
                         _______ _______ _______ _____ _____    ______ ____

>  <TORSDO>
F 4

$$$$
