=
 OpenBabel11062422143D

 44 50  0  0  1  0  0  0  0  0999 V2000
  192.5010  176.3710  146.7330 C   0  0  0  0  0  0  0  0  0  0  0  0
  190.4470  175.7180  145.3630 C   0  0  2  0  0  3  0  0  0  0  0  0
  190.4900  175.2650  147.6790 C   0  0  0  0  0  2  0  0  0  0  0  0
  189.7780  175.9880  146.6370 N   0  0  0  0  0  2  0  0  0  0  0  0
  193.5930  177.1010  146.9270 C   0  0  0  0  0  2  0  0  0  0  0  0
  191.9350  176.1870  145.3350 C   0  0  2  0  0  3  0  0  0  0  0  0
  191.7850  175.8910  147.8720 N   0  0  0  0  0  2  0  0  0  0  0  0
  191.3600  172.4020  142.7180 C   0  0  2  0  0  3  0  0  0  0  0  0
  192.9280  174.4400  142.3050 C   0  0  1  0  0  3  0  0  0  0  0  0
  192.1550  174.5560  141.0160 C   0  0  0  0  0  3  0  0  0  0  0  0
  191.4710  173.5300  140.4970 C   0  0  0  0  0  3  0  0  0  0  0  0
  192.8020  175.2740  144.5570 N   0  0  1  0  0  0  0  0  0  0  0  0
  192.3100  173.8930  144.5850 C   0  0  0  0  0  2  0  0  0  0  0  0
  192.7270  175.6730  143.1510 C   0  0  0  0  0  2  0  0  0  0  0  0
  192.5340  173.2790  143.2140 C   0  0  1  0  0  3  0  0  0  0  0  0
  191.4410  172.1970  141.1940 C   0  0  2  0  0  3  0  0  0  0  0  0
  190.1230  170.2340  138.6940 C   0  0  1  0  0  3  0  0  0  0  0  0
  192.3350  169.5640  137.6190 N   0  0  0  0  0  0  0  0  0  0  0  0
  193.3040  169.6260  136.5340 C   0  0  0  0  0  1  0  0  0  0  0  0
  190.3200  171.2860  140.6620 C   0  0  2  0  0  3  0  0  0  0  0  0
  190.7660  169.9440  140.0600 C   0  0  2  0  0  3  0  0  0  0  0  0
  192.2940  169.7360  140.0300 C   0  0  0  0  0  2  0  0  0  0  0  0
  190.7180  170.7730  136.4400 O   0  0  0  0  0  0  0  0  0  0  0  0
  189.5970  171.9250  139.1100 S   0  0  0  0  0  0  0  0  0  0  0  0
  192.6920  168.8720  138.8480 C   0  0  0  0  0  2  0  0  0  0  0  0
  191.0690  170.2270  137.5220 C   0  0  0  0  0  0  0  0  0  0  0  0
  189.4910  171.9170  144.4100 C   0  0  0  0  0  1  0  0  0  0  0  0
  189.9610  172.7780  143.2480 C   0  0  0  0  0  2  0  0  0  0  0  0
  189.5290  176.5490  144.0300 S   0  0  0  0  0  0  0  0  0  0  0  0
  187.0400  177.4910  144.5430 C   0  0  1  0  0  3  0  0  0  0  0  0
  187.9140  176.2900  144.8480 C   0  0  1  0  0  3  0  0  0  0  0  0
  186.6950  176.1450  143.9210 C   0  0  2  0  0  3  0  0  0  0  0  0
  187.7470  174.9890  141.9180 C   0  0  0  0  0  3  0  0  0  0  0  0
  187.0260  176.0700  142.4540 C   0  0  0  0  0  0  0  0  0  0  0  0
  187.6580  176.0040  139.7220 C   0  0  0  0  0  3  0  0  0  0  0  0
  188.0550  174.9540  140.5560 C   0  0  0  0  0  3  0  0  0  0  0  0
  186.6470  177.1270  141.6160 C   0  0  0  0  0  3  0  0  0  0  0  0
  186.9570  177.0930  140.2540 C   0  0  0  0  0  3  0  0  0  0  0  0
  186.1210  177.7670  145.7240 C   0  0  2  0  0  3  0  0  0  0  0  0
  185.4060  179.8420  144.3140 C   0  0  0  0  0  1  0  0  0  0  0  0
  185.1280  178.8420  145.3880 C   0  0  0  0  0  0  0  0  0  0  0  0
  184.0880  178.9160  146.0160 O   0  0  0  0  0  0  0  0  0  0  0  0
  186.9450  178.1590  146.9440 C   0  0  0  0  0  2  0  0  0  0  0  0
  186.2590  177.8220  148.1070 O   0  0  0  0  0  1  0  0  0  0  0  0
  1  5  2  0  0  0  0
  1  7  1  0  0  0  0
  2 29  1  6  0  0  0
  2  4  1  0  0  0  0
  3  7  1  0  0  0  0
  4  3  1  0  0  0  0
  6  2  1  0  0  0  0
  6  1  1  1  0  0  0
  8 15  1  0  0  0  0
  8 28  1  6  0  0  0
  9 10  1  6  0  0  0
  9 14  1  0  0  0  0
  9 15  1  0  0  0  0
 11 10  2  0  0  0  0
 12 14  1  6  0  0  0
 12 13  1  0  0  0  0
 12  6  1  0  0  0  0
 15 13  1  1  0  0  0
 16 11  1  6  0  0  0
 16  8  1  0  0  0  0
 17 26  1  6  0  0  0
 17 24  1  0  0  0  0
 17 21  1  0  0  0  0
 18 25  1  0  0  0  0
 19 18  1  0  0  0  0
 20 24  1  6  0  0  0
 20 16  1  0  0  0  0
 21 22  1  6  0  0  0
 21 20  1  0  0  0  0
 23 26  2  0  0  0  0
 25 22  1  0  0  0  0
 26 18  1  0  0  0  0
 28 27  1  0  0  0  0
 30 31  1  0  0  0  0
 30 39  1  1  0  0  0
 31 29  1  6  0  0  0
 32 34  1  6  0  0  0
 32 30  1  0  0  0  0
 32 31  1  0  0  0  0
 33 34  1  0  0  0  0
 35 38  2  0  0  0  0
 35 36  1  0  0  0  0
 36 33  2  0  0  0  0
 37 34  2  0  0  0  0
 38 37  1  0  0  0  0
 39 43  1  1  0  0  0
 40 41  1  0  0  0  0
 41 39  1  0  0  0  0
 41 42  2  0  0  0  0
 43 44  1  0  0  0  0
M  END
>  <MODEL>
1

>  <REMARK>
 VINA RESULT:      -6.9      0.000      0.000
  Name = 
  9 active torsions:
  status: ('A' for Active; 'I' for Inactive)
    1  A    between atoms: C_5  and  S_26
    2  A    between atoms: C_7  and  C_40
    3  A    between atoms: C_10  and  C_44
    4  A    between atoms: C_12  and  C_42
    5  A    between atoms: C_14  and  C_40
    6  A    between atoms: C_15  and  C_39
    7  A    between atoms: C_20  and  C_40
    8  A    between atoms: S_26  and  C_38
    9  A    between atoms: N_27  and  C_32
                            x       y       z     vdW  Elec       q    Type
                         _______ _______ _______ _____ _____    ______ ____

>  <TORSDO>
F 9

$$$$
=
 OpenBabel11062422143D

 44 50  0  0  1  0  0  0  0  0999 V2000
  192.2020  172.4700  141.0710 C   0  0  0  0  0  0  0  0  0  0  0  0
  192.7970  170.6400  142.7500 C   0  0  2  0  0  3  0  0  0  0  0  0
  192.7960  170.1430  140.4420 C   0  0  0  0  0  2  0  0  0  0  0  0
  193.6300  170.1860  141.6340 N   0  0  0  0  0  2  0  0  0  0  0  0
  192.0910  173.7460  140.7240 C   0  0  0  0  0  1  0  0  0  0  0  0
  192.2010  172.0670  142.5360 C   0  0  2  0  0  3  0  0  0  0  0  0
  192.4760  171.5050  140.0550 N   0  0  0  0  0  0  0  0  0  0  0  0
  189.2860  175.5340  143.5310 C   0  0  2  0  0  3  0  0  0  0  0  0
  188.7550  173.2220  142.4570 C   0  0  1  0  0  3  0  0  0  0  0  0
  188.2110  174.0630  141.3300 C   0  0  0  0  0  3  0  0  0  0  0  0
  187.8560  175.3420  141.4980 C   0  0  0  0  0  3  0  0  0  0  0  0
  190.8370  172.2000  143.0930 N   0  0  1  0  0  0  0  0  0  0  0  0
  190.6910  173.4130  143.9050 C   0  0  0  0  0  2  0  0  0  0  0  0
  189.9110  172.3810  141.9740 C   0  0  0  0  0  2  0  0  0  0  0  0
  189.3100  173.9920  143.6520 C   0  0  1  0  0  3  0  0  0  0  0  0
  187.9940  176.0050  142.8410 C   0  0  2  0  0  3  0  0  0  0  0  0
  186.3760  178.9530  143.5740 C   0  0  1  0  0  3  0  0  0  0  0  0
  185.2720  178.1780  145.7370 N   0  0  0  0  0  0  0  0  0  0  0  0
  184.1020  177.7900  146.5100 C   0  0  0  0  0  1  0  0  0  0  0  0
  187.9030  177.5390  142.7440 C   0  0  2  0  0  3  0  0  0  0  0  0
  187.6730  178.2900  144.0660 C   0  0  2  0  0  3  0  0  0  0  0  0
  187.5100  177.3750  145.2960 C   0  0  0  0  0  2  0  0  0  0  0  0
  184.0070  178.8610  143.8930 O   0  0  0  0  0  0  0  0  0  0  0  0
  186.3390  178.0860  141.9750 S   0  0  0  0  0  0  0  0  0  0  0  0
  186.5940  178.0170  146.3220 C   0  0  0  0  0  2  0  0  0  0  0  0
  185.1470  178.6510  144.3900 C   0  0  0  0  0  0  0  0  0  0  0  0
  191.2990  177.0470  144.0390 C   0  0  0  0  0  1  0  0  0  0  0  0
  190.5790  176.1930  143.0060 C   0  0  0  0  0  2  0  0  0  0  0  0
  193.7960  170.6280  144.2700 S   0  0  0  0  0  0  0  0  0  0  0  0
  194.9210  172.9310  145.1510 C   0  0  1  0  0  3  0  0  0  0  0  0
  194.6250  172.2040  143.8540 C   0  0  1  0  0  3  0  0  0  0  0  0
  196.0760  172.3610  144.3410 C   0  0  2  0  0  3  0  0  0  0  0  0
  197.4130  170.2070  144.1830 C   0  0  0  0  0  3  0  0  0  0  0  0
  196.6730  171.1210  144.9510 C   0  0  0  0  0  0  0  0  0  0  0  0
  197.7190  168.8010  146.1300 C   0  0  0  0  0  3  0  0  0  0  0  0
  197.9390  169.0550  144.7730 C   0  0  0  0  0  3  0  0  0  0  0  0
  196.4400  170.8520  146.3060 C   0  0  0  0  0  3  0  0  0  0  0  0
  196.9650  169.6980  146.8960 C   0  0  0  0  0  3  0  0  0  0  0  0
  194.8230  174.4340  144.9290 C   0  0  2  0  0  3  0  0  0  0  0  0
  194.1960  176.4090  146.5120 C   0  0  0  0  0  1  0  0  0  0  0  0
  193.9050  175.0630  145.9370 C   0  0  0  0  0  0  0  0  0  0  0  0
  192.9180  174.4560  146.3110 O   0  0  0  0  0  0  0  0  0  0  0  0
  194.3420  174.7200  143.5120 C   0  0  0  0  0  2  0  0  0  0  0  0
  194.8060  175.9650  143.0970 O   0  0  0  0  0  1  0  0  0  0  0  0
  2 29  1  1  0  0  0
  3  4  1  0  0  0  0
  4  2  1  0  0  0  0
  5  1  1  0  0  0  0
  6  1  1  6  0  0  0
  6  2  1  0  0  0  0
  6 12  1  0  0  0  0
  7  3  1  0  0  0  0
  7  1  2  0  0  0  0
  8 28  1  6  0  0  0
  8 15  1  0  0  0  0
  9 10  1  6  0  0  0
  9 15  1  0  0  0  0
 10 11  2  0  0  0  0
 12 14  1  6  0  0  0
 12 13  1  0  0  0  0
 14  9  1  0  0  0  0
 15 13  1  6  0  0  0
 16 11  1  6  0  0  0
 16  8  1  0  0  0  0
 17 24  1  6  0  0  0
 17 21  1  0  0  0  0
 17 26  1  0  0  0  0
 18 25  1  0  0  0  0
 18 19  1  0  0  0  0
 20 24  1  6  0  0  0
 20 16  1  0  0  0  0
 20 21  1  0  0  0  0
 21 22  1  1  0  0  0
 22 25  1  0  0  0  0
 23 26  2  0  0  0  0
 26 18  1  0  0  0  0
 28 27  1  0  0  0  0
 30 39  1  6  0  0  0
 31 29  1  1  0  0  0
 31 32  1  0  0  0  0
 31 30  1  0  0  0  0
 32 34  1  1  0  0  0
 32 30  1  0  0  0  0
 33 36  2  0  0  0  0
 33 34  1  0  0  0  0
 34 37  2  0  0  0  0
 35 38  2  0  0  0  0
 36 35  1  0  0  0  0
 37 38  1  0  0  0  0
 39 43  1  6  0  0  0
 39 41  1  0  0  0  0
 41 42  2  0  0  0  0
 41 40  1  0  0  0  0
 44 43  1  0  0  0  0
M  END
>  <MODEL>
2

>  <REMARK>
 VINA RESULT:      -6.7      3.716      9.229
  Name = 
  9 active torsions:
  status: ('A' for Active; 'I' for Inactive)
    1  A    between atoms: C_5  and  S_26
    2  A    between atoms: C_7  and  C_40
    3  A    between atoms: C_10  and  C_44
    4  A    between atoms: C_12  and  C_42
    5  A    between atoms: C_14  and  C_40
    6  A    between atoms: C_15  and  C_39
    7  A    between atoms: C_20  and  C_40
    8  A    between atoms: S_26  and  C_38
    9  A    between atoms: N_27  and  C_32
                            x       y       z     vdW  Elec       q    Type
                         _______ _______ _______ _____ _____    ______ ____

>  <TORSDO>
F 9

$$$$
=
 OpenBabel11062422143D

 44 50  0  0  1  0  0  0  0  0999 V2000
  195.7070  171.4730  145.1640 C   0  0  0  0  0  0  0  0  0  0  0  0
  194.8130  172.8830  143.2310 C   0  0  2  0  0  3  0  0  0  0  0  0
  196.7540  173.5820  144.3780 C   0  0  0  0  0  2  0  0  0  0  0  0
  196.2380  173.1860  143.0760 N   0  0  0  0  0  2  0  0  0  0  0  0
  195.8230  170.3230  145.8160 C   0  0  0  0  0  1  0  0  0  0  0  0
  194.5350  171.7140  144.2270 C   0  0  2  0  0  3  0  0  0  0  0  0
  196.7780  172.4150  145.2390 N   0  0  0  0  0  0  0  0  0  0  0  0
  191.3640  175.0660  144.7000 C   0  0  2  0  0  3  0  0  0  0  0  0
  191.0010  172.4890  144.5850 C   0  0  1  0  0  3  0  0  0  0  0  0
  190.1280  172.8380  143.4050 C   0  0  0  0  0  3  0  0  0  0  0  0
  189.6190  174.0630  143.2290 C   0  0  0  0  0  3  0  0  0  0  0  0
  193.2980  171.9240  145.0130 N   0  0  1  0  0  0  0  0  0  0  0  0
  193.1250  173.3280  145.4000 C   0  0  0  0  0  2  0  0  0  0  0  0
  192.1590  171.6280  144.1440 C   0  0  0  0  0  2  0  0  0  0  0  0
  191.6490  173.6700  145.3030 C   0  0  1  0  0  3  0  0  0  0  0  0
  189.9060  175.1610  144.2150 C   0  0  2  0  0  3  0  0  0  0  0  0
  187.6600  177.7300  143.7670 C   0  0  1  0  0  3  0  0  0  0  0  0
  186.2650  177.2980  145.8550 N   0  0  0  0  0  0  0  0  0  0  0  0
  185.0430  176.8550  146.5110 C   0  0  0  0  0  1  0  0  0  0  0  0
  189.5620  176.5530  143.6520 C   0  0  2  0  0  3  0  0  0  0  0  0
  188.9140  177.5400  144.6350 C   0  0  2  0  0  3  0  0  0  0  0  0
  188.6520  176.9610  146.0400 C   0  0  0  0  0  2  0  0  0  0  0  0
  185.3350  177.1650  143.7140 O   0  0  0  0  0  0  0  0  0  0  0  0
  188.1340  176.4990  142.5150 S   0  0  0  0  0  0  0  0  0  0  0  0
  187.4310  177.6090  146.6670 C   0  0  0  0  0  2  0  0  0  0  0  0
  186.3570  177.3660  144.4270 C   0  0  0  0  0  0  0  0  0  0  0  0
  193.2070  176.7900  144.2250 C   0  0  0  0  0  1  0  0  0  0  0  0
  192.4150  175.6020  143.7040 C   0  0  0  0  0  2  0  0  0  0  0  0
  194.1250  172.4590  141.6010 S   0  0  0  0  0  0  0  0  0  0  0  0
  194.8910  174.0860  139.5720 C   0  0  1  0  0  3  0  0  0  0  0  0
  194.3080  174.1660  140.9700 C   0  0  1  0  0  3  0  0  0  0  0  0
  193.4490  174.5390  139.7500 C   0  0  2  0  0  3  0  0  0  0  0  0
  192.7410  172.5350  138.3570 C   0  0  0  0  0  3  0  0  0  0  0  0
  192.4460  173.4910  139.3430 C   0  0  0  0  0  0  0  0  0  0  0  0
  190.5230  171.5940  138.5890 C   0  0  0  0  0  3  0  0  0  0  0  0
  191.7850  171.5860  137.9880 C   0  0  0  0  0  3  0  0  0  0  0  0
  191.1730  173.5060  139.9280 C   0  0  0  0  0  3  0  0  0  0  0  0
  190.2160  172.5580  139.5570 C   0  0  0  0  0  3  0  0  0  0  0  0
  195.7860  175.2910  139.3230 C   0  0  2  0  0  3  0  0  0  0  0  0
  195.4130  175.2040  136.7430 C   0  0  0  0  0  1  0  0  0  0  0  0
  196.3260  175.2730  137.9220 C   0  0  0  0  0  0  0  0  0  0  0  0
  197.5300  175.2910  137.7430 O   0  0  0  0  0  0  0  0  0  0  0  0
  196.9230  175.3140  140.3360 C   0  0  0  0  0  2  0  0  0  0  0  0
  196.8140  176.4430  141.1440 O   0  0  0  0  0  1  0  0  0  0  0  0
  1  7  2  0  0  0  0
  1  5  1  0  0  0  0
  2 29  1  6  0  0  0
  2  6  1  0  0  0  0
  3  7  1  0  0  0  0
  4  2  1  0  0  0  0
  4  3  1  0  0  0  0
  6 12  1  0  0  0  0
  6  1  1  1  0  0  0
  8 28  1  6  0  0  0
  8 15  1  0  0  0  0
  9 10  1  6  0  0  0
  9 15  1  0  0  0  0
 11 10  2  0  0  0  0
 12 14  1  6  0  0  0
 12 13  1  0  0  0  0
 14  9  1  0  0  0  0
 15 13  1  6  0  0  0
 16 11  1  6  0  0  0
 16  8  1  0  0  0  0
 17 24  1  6  0  0  0
 17 26  1  0  0  0  0
 17 21  1  0  0  0  0
 18 19  1  0  0  0  0
 18 25  1  0  0  0  0
 20 24  1  6  0  0  0
 20 16  1  0  0  0  0
 20 21  1  0  0  0  0
 21 22  1  1  0  0  0
 22 25  1  0  0  0  0
 23 26  2  0  0  0  0
 26 18  1  0  0  0  0
 28 27  1  0  0  0  0
 30 39  1  1  0  0  0
 30 32  1  0  0  0  0
 30 31  1  0  0  0  0
 31 29  1  6  0  0  0
 32 34  1  6  0  0  0
 32 31  1  0  0  0  0
 33 34  1  0  0  0  0
 34 37  2  0  0  0  0
 35 38  2  0  0  0  0
 36 33  2  0  0  0  0
 36 35  1  0  0  0  0
 38 37  1  0  0  0  0
 39 43  1  1  0  0  0
 40 41  1  0  0  0  0
 41 39  1  0  0  0  0
 42 41  2  0  0  0  0
 43 44  1  0  0  0  0
M  END
>  <MODEL>
3

>  <REMARK>
 VINA RESULT:      -6.6      3.388      8.495
  Name = 
  9 active torsions:
  status: ('A' for Active; 'I' for Inactive)
    1  A    between atoms: C_5  and  S_26
    2  A    between atoms: C_7  and  C_40
    3  A    between atoms: C_10  and  C_44
    4  A    between atoms: C_12  and  C_42
    5  A    between atoms: C_14  and  C_40
    6  A    between atoms: C_15  and  C_39
    7  A    between atoms: C_20  and  C_40
    8  A    between atoms: S_26  and  C_38
    9  A    between atoms: N_27  and  C_32
                            x       y       z     vdW  Elec       q    Type
                         _______ _______ _______ _____ _____    ______ ____

>  <TORSDO>
F 9

$$$$
=
 OpenBabel11062422143D

 44 50  0  0  1  0  0  0  0  0999 V2000
  193.4680  170.4130  144.4450 C   0  0  0  0  0  0  0  0  0  0  0  0
  193.6580  172.8820  143.8200 C   0  0  2  0  0  3  0  0  0  0  0  0
  195.1340  171.9730  145.4230 C   0  0  0  0  0  2  0  0  0  0  0  0
  195.0680  172.6290  144.1260 N   0  0  0  0  0  2  0  0  0  0  0  0
  193.0990  169.1660  144.1810 C   0  0  0  0  0  2  0  0  0  0  0  0
  192.8010  171.5810  143.7370 C   0  0  2  0  0  3  0  0  0  0  0  0
  194.6010  170.6300  145.2870 N   0  0  0  0  0  2  0  0  0  0  0  0
  189.7660  175.0730  144.0590 C   0  0  2  0  0  3  0  0  0  0  0  0
  189.3170  172.5800  143.4510 C   0  0  1  0  0  3  0  0  0  0  0  0
  188.7480  173.1700  142.1850 C   0  0  0  0  0  3  0  0  0  0  0  0
  188.3490  174.4450  142.1060 C   0  0  0  0  0  3  0  0  0  0  0  0
  191.4310  171.7710  144.2640 N   0  0  1  0  0  0  0  0  0  0  0  0
  191.2410  173.1120  144.8280 C   0  0  0  0  0  2  0  0  0  0  0  0
  190.5030  171.7020  143.1340 C   0  0  0  0  0  2  0  0  0  0  0  0
  189.8420  173.5840  144.4740 C   0  0  1  0  0  3  0  0  0  0  0  0
  188.4600  175.3580  143.2950 C   0  0  2  0  0  3  0  0  0  0  0  0
  186.7260  178.3280  143.4330 C   0  0  1  0  0  3  0  0  0  0  0  0
  185.6100  177.9370  145.6910 N   0  0  0  0  0  0  0  0  0  0  0  0
  184.4400  177.6590  146.5110 C   0  0  0  0  0  1  0  0  0  0  0  0
  188.3170  176.8410  142.9070 C   0  0  2  0  0  3  0  0  0  0  0  0
  188.0350  177.8200  144.0570 C   0  0  2  0  0  3  0  0  0  0  0  0
  187.8820  177.1510  145.4380 C   0  0  0  0  0  2  0  0  0  0  0  0
  184.3550  178.2070  143.7360 O   0  0  0  0  0  0  0  0  0  0  0  0
  186.7490  177.1710  142.0290 S   0  0  0  0  0  0  0  0  0  0  0  0
  186.9250  177.9410  146.3120 C   0  0  0  0  0  2  0  0  0  0  0  0
  185.4930  178.1400  144.2770 C   0  0  0  0  0  0  0  0  0  0  0  0
  191.7310  176.7130  144.2650 C   0  0  0  0  0  1  0  0  0  0  0  0
  191.0370  175.6630  143.4120 C   0  0  0  0  0  2  0  0  0  0  0  0
  193.5530  173.7730  142.2370 S   0  0  0  0  0  0  0  0  0  0  0  0
  193.0710  172.5960  139.8430 C   0  0  1  0  0  3  0  0  0  0  0  0
  193.4560  172.2280  141.2620 C   0  0  1  0  0  3  0  0  0  0  0  0
  194.4750  172.0770  140.1190 C   0  0  2  0  0  3  0  0  0  0  0  0
  195.3490  174.3150  139.2940 C   0  0  0  0  0  3  0  0  0  0  0  0
  195.5250  173.1550  140.0670 C   0  0  0  0  0  0  0  0  0  0  0  0
  197.5350  175.1090  139.9670 C   0  0  0  0  0  3  0  0  0  0  0  0
  196.3480  175.2910  139.2510 C   0  0  0  0  0  3  0  0  0  0  0  0
  196.7250  172.9700  140.7670 C   0  0  0  0  0  3  0  0  0  0  0  0
  197.7250  173.9450  140.7220 C   0  0  0  0  0  3  0  0  0  0  0  0
  192.2180  171.4890  139.2410 C   0  0  2  0  0  3  0  0  0  0  0  0
  190.4780  173.4140  138.9720 C   0  0  0  0  0  1  0  0  0  0  0  0
  190.8080  171.9590  139.0290 C   0  0  0  0  0  0  0  0  0  0  0  0
  189.9120  171.1410  138.9260 O   0  0  0  0  0  0  0  0  0  0  0  0
  192.2460  170.2620  140.1430 C   0  0  0  0  0  2  0  0  0  0  0  0
  192.5570  169.1310  139.3940 O   0  0  0  0  0  1  0  0  0  0  0  0
  1  7  1  0  0  0  0
  2 29  1  6  0  0  0
  2  4  1  0  0  0  0
  4  3  1  0  0  0  0
  5  1  2  0  0  0  0
  6  2  1  0  0  0  0
  6 12  1  0  0  0  0
  6  1  1  1  0  0  0
  7  3  1  0  0  0  0
  8 28  1  6  0  0  0
  8 15  1  0  0  0  0
  9 10  1  6  0  0  0
  9 15  1  0  0  0  0
 11 10  2  0  0  0  0
 12 14  1  6  0  0  0
 12 13  1  0  0  0  0
 14  9  1  0  0  0  0
 15 13  1  6  0  0  0
 16 11  1  6  0  0  0
 16  8  1  0  0  0  0
 17 24  1  6  0  0  0
 17 21  1  0  0  0  0
 17 26  1  0  0  0  0
 18 25  1  0  0  0  0
 18 19  1  0  0  0  0
 20 24  1  6  0  0  0
 20 16  1  0  0  0  0
 20 21  1  0  0  0  0
 21 22  1  1  0  0  0
 22 25  1  0  0  0  0
 23 26  2  0  0  0  0
 26 18  1  0  0  0  0
 28 27  1  0  0  0  0
 30 39  1  6  0  0  0
 30 32  1  0  0  0  0
 30 31  1  0  0  0  0
 31 29  1  1  0  0  0
 32 34  1  1  0  0  0
 32 31  1  0  0  0  0
 33 34  1  0  0  0  0
 34 37  2  0  0  0  0
 35 38  2  0  0  0  0
 36 33  2  0  0  0  0
 36 35  1  0  0  0  0
 38 37  1  0  0  0  0
 39 43  1  1  0  0  0
 40 41  1  0  0  0  0
 41 39  1  0  0  0  0
 42 41  2  0  0  0  0
 44 43  1  0  0  0  0
M  END
>  <MODEL>
4

>  <REMARK>
 VINA RESULT:      -6.5      2.877      8.708
  Name = 
  9 active torsions:
  status: ('A' for Active; 'I' for Inactive)
    1  A    between atoms: C_5  and  S_26
    2  A    between atoms: C_7  and  C_40
    3  A    between atoms: C_10  and  C_44
    4  A    between atoms: C_12  and  C_42
    5  A    between atoms: C_14  and  C_40
    6  A    between atoms: C_15  and  C_39
    7  A    between atoms: C_20  and  C_40
    8  A    between atoms: S_26  and  C_38
    9  A    between atoms: N_27  and  C_32
                            x       y       z     vdW  Elec       q    Type
                         _______ _______ _______ _____ _____    ______ ____

>  <TORSDO>
F 9

$$$$
=
 OpenBabel11062422143D

 44 50  0  0  1  0  0  0  0  0999 V2000
  194.9050  176.3560  144.5480 C   0  0  0  0  0  0  0  0  0  0  0  0
  192.5130  175.4940  144.3040 C   0  0  2  0  0  3  0  0  0  0  0  0
  193.5490  175.4580  146.4250 C   0  0  0  0  0  2  0  0  0  0  0  0
  192.4210  175.9940  145.6780 N   0  0  0  0  0  2  0  0  0  0  0  0
  195.9280  177.0960  144.1400 C   0  0  0  0  0  2  0  0  0  0  0  0
  193.8190  175.9350  143.5720 C   0  0  2  0  0  3  0  0  0  0  0  0
  194.7630  176.0930  145.9450 N   0  0  0  0  0  2  0  0  0  0  0  0
  192.1270  172.1920  141.4180 C   0  0  2  0  0  3  0  0  0  0  0  0
  193.7860  173.9820  140.5060 C   0  0  1  0  0  3  0  0  0  0  0  0
  192.7330  174.1670  139.4420 C   0  0  0  0  0  3  0  0  0  0  0  0
  191.8160  173.2300  139.1730 C   0  0  0  0  0  3  0  0  0  0  0  0
  194.3390  174.8890  142.6630 N   0  0  1  0  0  0  0  0  0  0  0  0
  193.6990  173.5900  142.8970 C   0  0  0  0  0  2  0  0  0  0  0  0
  193.9630  175.2540  141.2970 C   0  0  0  0  0  2  0  0  0  0  0  0
  193.4900  172.9130  141.5540 C   0  0  1  0  0  3  0  0  0  0  0  0
  191.7940  171.9360  139.9370 C   0  0  2  0  0  3  0  0  0  0  0  0
  189.4940  170.3900  137.8960 C   0  0  1  0  0  3  0  0  0  0  0  0
  191.1150  169.7160  136.0480 N   0  0  0  0  0  0  0  0  0  0  0  0
  191.6490  169.8500  134.7000 C   0  0  0  0  0  1  0  0  0  0  0  0
  190.4690  171.1730  139.7550 C   0  0  2  0  0  3  0  0  0  0  0  0
  190.5350  169.8910  138.9110 C   0  0  2  0  0  3  0  0  0  0  0  0
  191.9270  169.5880  138.3210 C   0  0  0  0  0  2  0  0  0  0  0  0
  189.3260  171.1660  135.6390 O   0  0  0  0  0  0  0  0  0  0  0  0
  189.3260  172.0470  138.6290 S   0  0  0  0  0  0  0  0  0  0  0  0
  191.7990  168.8540  136.9980 C   0  0  0  0  0  2  0  0  0  0  0  0
  189.9700  170.4680  136.4690 C   0  0  0  0  0  0  0  0  0  0  0  0
  190.3310  171.7720  143.2050 C   0  0  0  0  0  1  0  0  0  0  0  0
  190.9660  172.7730  142.2520 C   0  0  0  0  0  2  0  0  0  0  0  0
  191.0710  176.0870  143.3670 S   0  0  0  0  0  0  0  0  0  0  0  0
  189.0560  176.8450  145.0150 C   0  0  1  0  0  3  0  0  0  0  0  0
  189.8970  175.6260  144.6920 C   0  0  1  0  0  3  0  0  0  0  0  0
  188.4040  175.6570  144.3220 C   0  0  2  0  0  3  0  0  0  0  0  0
  187.7120  177.1650  142.3990 C   0  0  0  0  0  3  0  0  0  0  0  0
  188.1220  175.9040  142.8640 C   0  0  0  0  0  0  0  0  0  0  0  0
  187.5620  176.2970  140.1440 C   0  0  0  0  0  3  0  0  0  0  0  0
  187.4400  177.3610  141.0430 C   0  0  0  0  0  3  0  0  0  0  0  0
  188.2230  174.8370  141.9620 C   0  0  0  0  0  3  0  0  0  0  0  0
  187.9490  175.0330  140.6050 C   0  0  0  0  0  3  0  0  0  0  0  0
  188.7000  176.8420  146.4950 C   0  0  2  0  0  3  0  0  0  0  0  0
  186.6430  178.2830  145.7910 C   0  0  0  0  0  1  0  0  0  0  0  0
  187.2820  177.2880  146.7030 C   0  0  0  0  0  0  0  0  0  0  0  0
  186.6480  176.8510  147.6450 O   0  0  0  0  0  0  0  0  0  0  0  0
  189.6640  177.7370  147.2630 C   0  0  0  0  0  2  0  0  0  0  0  0
  190.5360  176.9570  148.0180 O   0  0  0  0  0  1  0  0  0  0  0  0
  1  7  1  0  0  0  0
  2 29  1  6  0  0  0
  2  4  1  0  0  0  0
  4  3  1  0  0  0  0
  5  1  2  0  0  0  0
  6  2  1  0  0  0  0
  6  1  1  1  0  0  0
  7  3  1  0  0  0  0
  8 15  1  0  0  0  0
  8 28  1  6  0  0  0
  9 10  1  6  0  0  0
  9 14  1  0  0  0  0
  9 15  1  0  0  0  0
 11 10  2  0  0  0  0
 12 14  1  6  0  0  0
 12 13  1  0  0  0  0
 12  6  1  0  0  0  0
 15 13  1  1  0  0  0
 16 11  1  6  0  0  0
 16  8  1  0  0  0  0
 17 26  1  6  0  0  0
 17 24  1  0  0  0  0
 17 21  1  0  0  0  0
 18 26  1  0  0  0  0
 18 25  1  0  0  0  0
 19 18  1  0  0  0  0
 20 24  1  6  0  0  0
 20 16  1  0  0  0  0
 21 22  1  6  0  0  0
 21 20  1  0  0  0  0
 23 26  2  0  0  0  0
 25 22  1  0  0  0  0
 28 27  1  0  0  0  0
 30 39  1  1  0  0  0
 31 29  1  6  0  0  0
 31 30  1  0  0  0  0
 32 34  1  6  0  0  0
 32 31  1  0  0  0  0
 32 30  1  0  0  0  0
 33 34  1  0  0  0  0
 35 38  2  0  0  0  0
 35 36  1  0  0  0  0
 36 33  2  0  0  0  0
 37 34  2  0  0  0  0
 38 37  1  0  0  0  0
 39 41  1  0  0  0  0
 39 43  1  1  0  0  0
 40 41  1  0  0  0  0
 41 42  2  0  0  0  0
 43 44  1  0  0  0  0
M  END
>  <MODEL>
5

>  <REMARK>
 VINA RESULT:      -6.4      1.682      2.315
  Name = 
  9 active torsions:
  status: ('A' for Active; 'I' for Inactive)
    1  A    between atoms: C_5  and  S_26
    2  A    between atoms: C_7  and  C_40
    3  A    between atoms: C_10  and  C_44
    4  A    between atoms: C_12  and  C_42
    5  A    between atoms: C_14  and  C_40
    6  A    between atoms: C_15  and  C_39
    7  A    between atoms: C_20  and  C_40
    8  A    between atoms: S_26  and  C_38
    9  A    between atoms: N_27  and  C_32
                            x       y       z     vdW  Elec       q    Type
                         _______ _______ _______ _____ _____    ______ ____

>  <TORSDO>
F 9

$$$$
=
 OpenBabel11062422143D

 44 50  0  0  1  0  0  0  0  0999 V2000
  190.3550  176.6360  147.1950 C   0  0  0  0  0  0  0  0  0  0  0  0
  190.0780  175.5410  144.9040 C   0  0  2  0  0  3  0  0  0  0  0  0
  189.0320  174.5750  146.7870 C   0  0  0  0  0  2  0  0  0  0  0  0
  188.7850  175.1630  145.4800 N   0  0  0  0  0  2  0  0  0  0  0  0
  190.6120  177.6850  147.9650 C   0  0  0  0  0  1  0  0  0  0  0  0
  190.8520  176.5920  145.7600 C   0  0  2  0  0  3  0  0  0  0  0  0
  189.4780  175.6220  147.6880 N   0  0  0  0  0  0  0  0  0  0  0  0
  193.7880  173.6220  143.7430 C   0  0  2  0  0  3  0  0  0  0  0  0
  194.0580  176.1890  144.0940 C   0  0  1  0  0  3  0  0  0  0  0  0
  194.1950  176.2070  142.5920 C   0  0  0  0  0  3  0  0  0  0  0  0
  194.5320  175.1180  141.8920 C   0  0  0  0  0  3  0  0  0  0  0  0
  192.3150  176.3710  145.7400 N   0  0  1  0  0  0  0  0  0  0  0  0
  192.6540  174.9480  145.6320 C   0  0  0  0  0  2  0  0  0  0  0  0
  192.8450  176.9790  144.5190 C   0  0  0  0  0  2  0  0  0  0  0  0
  193.8660  174.8140  144.7270 C   0  0  1  0  0  3  0  0  0  0  0  0
  194.7860  173.8080  142.5860 C   0  0  2  0  0  3  0  0  0  0  0  0
  195.2850  172.5390  139.4250 C   0  0  1  0  0  3  0  0  0  0  0  0
  197.0230  174.2440  138.6710 N   0  0  0  0  0  0  0  0  0  0  0  0
  197.4360  175.3820  137.8630 C   0  0  0  0  0  1  0  0  0  0  0  0
  194.7810  172.6200  141.6070 C   0  0  2  0  0  3  0  0  0  0  0  0
  196.0470  172.4360  140.7560 C   0  0  2  0  0  3  0  0  0  0  0  0
  197.1240  173.5180  140.9750 C   0  0  0  0  0  2  0  0  0  0  0  0
  194.9680  174.0270  137.5780 O   0  0  0  0  0  0  0  0  0  0  0  0
  193.6730  172.9090  140.1830 S   0  0  0  0  0  0  0  0  0  0  0  0
  197.9190  173.7460  139.7030 C   0  0  0  0  0  2  0  0  0  0  0  0
  195.7280  173.6520  138.5120 C   0  0  0  0  0  0  0  0  0  0  0  0
  191.8940  171.9040  143.9720 C   0  0  0  0  0  1  0  0  0  0  0  0
  192.3710  173.1890  143.3130 C   0  0  0  0  0  2  0  0  0  0  0  0
  189.8030  176.2100  143.2350 S   0  0  0  0  0  0  0  0  0  0  0  0
  187.3780  176.7100  142.1320 C   0  0  1  0  0  3  0  0  0  0  0  0
  187.9840  176.2180  143.4310 C   0  0  1  0  0  3  0  0  0  0  0  0
  187.1960  175.2520  142.5280 C   0  0  2  0  0  3  0  0  0  0  0  0
  188.4710  173.0740  142.2410 C   0  0  0  0  0  3  0  0  0  0  0  0
  188.0480  174.3090  141.7210 C   0  0  0  0  0  0  0  0  0  0  0  0
  189.6760  172.6120  140.1920 C   0  0  0  0  0  3  0  0  0  0  0  0
  189.2760  172.2270  141.4750 C   0  0  0  0  0  3  0  0  0  0  0  0
  188.4680  174.6980  140.4420 C   0  0  0  0  0  3  0  0  0  0  0  0
  189.2740  173.8510  139.6770 C   0  0  0  0  0  3  0  0  0  0  0  0
  186.1050  177.4910  142.4260 C   0  0  2  0  0  3  0  0  0  0  0  0
  185.9820  177.5320  139.8210 C   0  0  0  0  0  1  0  0  0  0  0  0
  185.3800  177.8280  141.1550 C   0  0  0  0  0  0  0  0  0  0  0  0
  184.2940  178.3750  141.2110 O   0  0  0  0  0  0  0  0  0  0  0  0
  186.4380  178.7550  143.2070 C   0  0  0  0  0  2  0  0  0  0  0  0
  185.3790  179.0850  144.0490 O   0  0  0  0  0  1  0  0  0  0  0  0
  1  7  2  0  0  0  0
  1  5  1  0  0  0  0
  2 29  1  6  0  0  0
  2  4  1  0  0  0  0
  2  6  1  0  0  0  0
  3  7  1  0  0  0  0
  4  3  1  0  0  0  0
  6  1  1  1  0  0  0
  8 28  1  6  0  0  0
  8 15  1  0  0  0  0
  9 10  1  6  0  0  0
  9 14  1  0  0  0  0
  9 15  1  0  0  0  0
 11 10  2  0  0  0  0
 12 14  1  6  0  0  0
 12  6  1  0  0  0  0
 13 12  1  0  0  0  0
 15 13  1  6  0  0  0
 16 11  1  6  0  0  0
 16  8  1  0  0  0  0
 17 26  1  6  0  0  0
 17 24  1  0  0  0  0
 17 21  1  0  0  0  0
 18 25  1  0  0  0  0
 19 18  1  0  0  0  0
 20 24  1  6  0  0  0
 20 16  1  0  0  0  0
 21 22  1  6  0  0  0
 21 20  1  0  0  0  0
 23 26  2  0  0  0  0
 25 22  1  0  0  0  0
 26 18  1  0  0  0  0
 28 27  1  0  0  0  0
 30 39  1  1  0  0  0
 30 32  1  0  0  0  0
 30 31  1  0  0  0  0
 31 29  1  6  0  0  0
 32 34  1  6  0  0  0
 32 31  1  0  0  0  0
 34 33  1  0  0  0  0
 35 36  1  0  0  0  0
 36 33  2  0  0  0  0
 37 34  2  0  0  0  0
 38 35  2  0  0  0  0
 38 37  1  0  0  0  0
 39 43  1  6  0  0  0
 40 41  1  0  0  0  0
 41 42  2  0  0  0  0
 41 39  1  0  0  0  0
 43 44  1  0  0  0  0
M  END
>  <MODEL>
6

>  <REMARK>
 VINA RESULT:      -6.2      2.791      3.865
  Name = 
  9 active torsions:
  status: ('A' for Active; 'I' for Inactive)
    1  A    between atoms: C_5  and  S_26
    2  A    between atoms: C_7  and  C_40
    3  A    between atoms: C_10  and  C_44
    4  A    between atoms: C_12  and  C_42
    5  A    between atoms: C_14  and  C_40
    6  A    between atoms: C_15  and  C_39
    7  A    between atoms: C_20  and  C_40
    8  A    between atoms: S_26  and  C_38
    9  A    between atoms: N_27  and  C_32
                            x       y       z     vdW  Elec       q    Type
                         _______ _______ _______ _____ _____    ______ ____

>  <TORSDO>
F 9

$$$$
=
 OpenBabel11062422143D

 44 50  0  0  1  0  0  0  0  0999 V2000
  193.7170  175.5740  144.8640 C   0  0  0  0  0  0  0  0  0  0  0  0
  193.6830  173.0490  144.4810 C   0  0  2  0  0  3  0  0  0  0  0  0
  194.2020  174.4890  142.6840 C   0  0  0  0  0  2  0  0  0  0  0  0
  194.7140  173.4000  143.5020 N   0  0  0  0  0  2  0  0  0  0  0  0
  193.8290  176.6350  145.6530 C   0  0  0  0  0  1  0  0  0  0  0  0
  193.3110  174.2270  145.4370 C   0  0  2  0  0  3  0  0  0  0  0  0
  194.1320  175.6860  143.5020 N   0  0  0  0  0  0  0  0  0  0  0  0
  189.5630  176.6580  144.1930 C   0  0  2  0  0  3  0  0  0  0  0  0
  189.7690  174.0980  144.6280 C   0  0  1  0  0  3  0  0  0  0  0  0
  189.2680  173.9910  143.2100 C   0  0  0  0  0  3  0  0  0  0  0  0
  188.6120  174.9880  142.6050 C   0  0  0  0  0  3  0  0  0  0  0  0
  191.8730  174.2410  145.7840 N   0  0  1  0  0  0  0  0  0  0  0  0
  191.3120  175.5960  145.7490 C   0  0  0  0  0  2  0  0  0  0  0  0
  191.1520  173.5070  144.7430 C   0  0  0  0  0  2  0  0  0  0  0  0
  189.9080  175.5160  145.1780 C   0  0  1  0  0  3  0  0  0  0  0  0
  188.3480  176.2800  143.3270 C   0  0  2  0  0  3  0  0  0  0  0  0
  186.0230  178.5690  142.2300 C   0  0  1  0  0  3  0  0  0  0  0  0
  184.7930  178.8560  144.4440 N   0  0  0  0  0  0  0  0  0  0  0  0
  183.6320  178.6610  145.3000 C   0  0  0  0  0  1  0  0  0  0  0  0
  187.9350  177.4100  142.3660 C   0  0  2  0  0  3  0  0  0  0  0  0
  187.3410  178.6700  143.0150 C   0  0  2  0  0  3  0  0  0  0  0  0
  187.1940  178.5870  144.5480 C   0  0  0  0  0  2  0  0  0  0  0  0
  183.7130  178.0300  142.5420 O   0  0  0  0  0  0  0  0  0  0  0  0
  186.4290  176.9910  141.4210 S   0  0  0  0  0  0  0  0  0  0  0  0
  186.0100  179.4120  145.0160 C   0  0  0  0  0  2  0  0  0  0  0  0
  184.7790  178.4490  143.0700 C   0  0  0  0  0  0  0  0  0  0  0  0
  191.1430  178.6580  143.8810 C   0  0  0  0  0  1  0  0  0  0  0  0
  190.7490  177.2650  143.4150 C   0  0  0  0  0  2  0  0  0  0  0  0
  194.2680  171.6370  145.4680 S   0  0  0  0  0  0  0  0  0  0  0  0
  194.0360  169.7470  143.5390 C   0  0  1  0  0  3  0  0  0  0  0  0
  193.1930  170.4490  144.5850 C   0  0  1  0  0  3  0  0  0  0  0  0
  193.5460  168.9600  144.7460 C   0  0  2  0  0  3  0  0  0  0  0  0
  194.3370  168.4090  147.0960 C   0  0  0  0  0  3  0  0  0  0  0  0
  194.6330  168.6760  145.7490 C   0  0  0  0  0  0  0  0  0  0  0  0
  196.6990  168.2010  147.5840 C   0  0  0  0  0  3  0  0  0  0  0  0
  195.3670  168.1660  148.0080 C   0  0  0  0  0  3  0  0  0  0  0  0
  195.9700  168.7280  145.3340 C   0  0  0  0  0  3  0  0  0  0  0  0
  197.0000  168.4870  146.2470 C   0  0  0  0  0  3  0  0  0  0  0  0
  193.1780  169.4230  142.3250 C   0  0  2  0  0  3  0  0  0  0  0  0
  195.2680  170.3630  141.0780 C   0  0  0  0  0  1  0  0  0  0  0  0
  193.9170  169.7290  141.0540 C   0  0  0  0  0  0  0  0  0  0  0  0
  193.3960  169.4770  139.9820 O   0  0  0  0  0  0  0  0  0  0  0  0
  191.8720  170.2030  142.3880 C   0  0  0  0  0  2  0  0  0  0  0  0
  190.8180  169.3990  141.9610 O   0  0  0  0  0  1  0  0  0  0  0  0
  1  5  1  0  0  0  0
  2  6  1  0  0  0  0
  2 29  1  1  0  0  0
  3  4  1  0  0  0  0
  3  7  1  0  0  0  0
  4  2  1  0  0  0  0
  6  1  1  6  0  0  0
  6 12  1  0  0  0  0
  7  1  2  0  0  0  0
  8 28  1  6  0  0  0
  8 15  1  0  0  0  0
  9 10  1  6  0  0  0
  9 14  1  0  0  0  0
  9 15  1  0  0  0  0
 11 10  2  0  0  0  0
 12 14  1  6  0  0  0
 13 12  1  0  0  0  0
 15 13  1  6  0  0  0
 16 11  1  6  0  0  0
 16  8  1  0  0  0  0
 17 24  1  6  0  0  0
 17 21  1  0  0  0  0
 17 26  1  0  0  0  0
 18 25  1  0  0  0  0
 18 19  1  0  0  0  0
 20 24  1  6  0  0  0
 20 21  1  0  0  0  0
 20 16  1  0  0  0  0
 21 22  1  1  0  0  0
 22 25  1  0  0  0  0
 23 26  2  0  0  0  0
 26 18  1  0  0  0  0
 28 27  1  0  0  0  0
 30 39  1  6  0  0  0
 30 31  1  0  0  0  0
 30 32  1  0  0  0  0
 31 32  1  0  0  0  0
 31 29  1  1  0  0  0
 32 34  1  1  0  0  0
 33 36  1  0  0  0  0
 34 33  2  0  0  0  0
 35 36  2  0  0  0  0
 37 34  1  0  0  0  0
 37 38  2  0  0  0  0
 38 35  1  0  0  0  0
 39 43  1  1  0  0  0
 41 40  1  0  0  0  0
 41 39  1  0  0  0  0
 42 41  2  0  0  0  0
 44 43  1  0  0  0  0
M  END
>  <MODEL>
7

>  <REMARK>
 VINA RESULT:      -6.2      3.667      9.431
  Name = 
  9 active torsions:
  status: ('A' for Active; 'I' for Inactive)
    1  A    between atoms: C_5  and  S_26
    2  A    between atoms: C_7  and  C_40
    3  A    between atoms: C_10  and  C_44
    4  A    between atoms: C_12  and  C_42
    5  A    between atoms: C_14  and  C_40
    6  A    between atoms: C_15  and  C_39
    7  A    between atoms: C_20  and  C_40
    8  A    between atoms: S_26  and  C_38
    9  A    between atoms: N_27  and  C_32
                            x       y       z     vdW  Elec       q    Type
                         _______ _______ _______ _____ _____    ______ ____

>  <TORSDO>
F 9

$$$$
=
 OpenBabel11062422143D

 44 50  0  0  1  0  0  0  0  0999 V2000
  195.4130  175.3100  141.3010 C   0  0  0  0  0  0  0  0  0  0  0  0
  193.8890  173.3710  141.9620 C   0  0  2  0  0  3  0  0  0  0  0  0
  195.4440  173.0810  140.2090 C   0  0  0  0  0  2  0  0  0  0  0  0
  195.0480  172.5910  141.5210 N   0  0  0  0  0  2  0  0  0  0  0  0
  196.0370  176.4510  141.5700 C   0  0  0  0  0  1  0  0  0  0  0  0
  194.1850  174.8980  142.0940 C   0  0  2  0  0  3  0  0  0  0  0  0
  196.0050  174.4100  140.3630 N   0  0  0  0  0  0  0  0  0  0  0  0
  189.7860  175.4320  143.4630 C   0  0  2  0  0  3  0  0  0  0  0  0
  191.5040  177.2600  142.7630 C   0  0  1  0  0  3  0  0  0  0  0  0
  191.2310  177.8020  144.1430 C   0  0  0  0  0  3  0  0  0  0  0  0
  190.1250  177.4900  144.8290 C   0  0  0  0  0  3  0  0  0  0  0  0
  193.0290  175.7340  141.7010 N   0  0  1  0  0  0  0  0  0  0  0  0
  191.7560  175.0230  141.8620 C   0  0  0  0  0  2  0  0  0  0  0  0
  192.9520  176.8600  142.6320 C   0  0  0  0  0  2  0  0  0  0  0  0
  190.7210  176.0090  142.3740 C   0  0  1  0  0  3  0  0  0  0  0  0
  189.0940  176.5650  144.2420 C   0  0  2  0  0  3  0  0  0  0  0  0
  186.2810  176.9830  146.1800 C   0  0  1  0  0  3  0  0  0  0  0  0
  185.0490  178.5690  144.6110 N   0  0  0  0  0  0  0  0  0  0  0  0
  184.5380  179.8870  144.2630 C   0  0  0  0  0  1  0  0  0  0  0  0
  188.1130  176.0370  145.3040 C   0  0  2  0  0  3  0  0  0  0  0  0
  186.6200  176.1230  144.9510 C   0  0  2  0  0  3  0  0  0  0  0  0
  186.3250  176.7870  143.5910 C   0  0  0  0  0  2  0  0  0  0  0  0
  185.6700  179.2200  146.7690 O   0  0  0  0  0  0  0  0  0  0  0  0
  188.0010  177.1500  146.7480 S   0  0  0  0  0  0  0  0  0  0  0  0
  184.9870  177.5030  143.6240 C   0  0  0  0  0  2  0  0  0  0  0  0
  185.6700  178.3260  145.8790 C   0  0  0  0  0  0  0  0  0  0  0  0
  189.6800  172.9690  144.1820 C   0  0  0  0  0  1  0  0  0  0  0  0
  190.3790  174.3100  144.3410 C   0  0  0  0  0  2  0  0  0  0  0  0
  193.3250  172.7270  143.5670 S   0  0  0  0  0  0  0  0  0  0  0  0
  193.7590  173.9210  145.9620 C   0  0  1  0  0  3  0  0  0  0  0  0
  194.1460  174.0670  144.5030 C   0  0  1  0  0  3  0  0  0  0  0  0
  195.1930  173.6320  145.5420 C   0  0  2  0  0  3  0  0  0  0  0  0
  196.6630  171.6710  144.8740 C   0  0  0  0  0  3  0  0  0  0  0  0
  195.5210  172.1620  145.5280 C   0  0  0  0  0  0  0  0  0  0  0  0
  196.0570  169.4100  145.4890 C   0  0  0  0  0  3  0  0  0  0  0  0
  196.9330  170.3000  144.8610 C   0  0  0  0  0  3  0  0  0  0  0  0
  194.6370  171.2630  146.1380 C   0  0  0  0  0  3  0  0  0  0  0  0
  194.9060  169.8910  146.1240 C   0  0  0  0  0  3  0  0  0  0  0  0
  193.6750  175.2960  146.6090 C   0  0  2  0  0  3  0  0  0  0  0  0
  191.9790  176.7940  147.9060 C   0  0  0  0  0  1  0  0  0  0  0  0
  192.2970  175.5460  147.1520 C   0  0  0  0  0  0  0  0  0  0  0  0
  191.4300  174.7060  146.9960 O   0  0  0  0  0  0  0  0  0  0  0  0
  194.0580  176.3700  145.6000 C   0  0  0  0  0  2  0  0  0  0  0  0
  194.7260  177.4080  146.2430 O   0  0  0  0  0  1  0  0  0  0  0  0
  1  5  1  0  0  0  0
  2  6  1  0  0  0  0
  2 29  1  1  0  0  0
  3  7  1  0  0  0  0
  3  4  1  0  0  0  0
  4  2  1  0  0  0  0
  6  1  1  6  0  0  0
  7  1  2  0  0  0  0
  8 16  1  0  0  0  0
  8 28  1  1  0  0  0
  9 14  1  1  0  0  0
  9 10  1  0  0  0  0
 10 11  2  0  0  0  0
 12 13  1  1  0  0  0
 12  6  1  0  0  0  0
 12 14  1  0  0  0  0
 15 13  1  1  0  0  0
 15  9  1  0  0  0  0
 15  8  1  0  0  0  0
 16 11  1  1  0  0  0
 16 20  1  0  0  0  0
 17 26  1  6  0  0  0
 17 24  1  0  0  0  0
 18 26  1  0  0  0  0
 19 18  1  0  0  0  0
 20 24  1  1  0  0  0
 21 22  1  6  0  0  0
 21 20  1  0  0  0  0
 21 17  1  0  0  0  0
 22 25  1  0  0  0  0
 25 18  1  0  0  0  0
 26 23  2  0  0  0  0
 27 28  1  0  0  0  0
 30 39  1  1  0  0  0
 31 29  1  6  0  0  0
 31 32  1  0  0  0  0
 31 30  1  0  0  0  0
 32 34  1  6  0  0  0
 32 30  1  0  0  0  0
 33 34  1  0  0  0  0
 34 37  2  0  0  0  0
 35 38  2  0  0  0  0
 36 33  2  0  0  0  0
 36 35  1  0  0  0  0
 38 37  1  0  0  0  0
 39 43  1  6  0  0  0
 39 41  1  0  0  0  0
 41 40  1  0  0  0  0
 42 41  2  0  0  0  0
 43 44  1  0  0  0  0
M  END
>  <MODEL>
8

>  <REMARK>
 VINA RESULT:      -6.2      3.642      8.555
  Name = 
  9 active torsions:
  status: ('A' for Active; 'I' for Inactive)
    1  A    between atoms: C_5  and  S_26
    2  A    between atoms: C_7  and  C_40
    3  A    between atoms: C_10  and  C_44
    4  A    between atoms: C_12  and  C_42
    5  A    between atoms: C_14  and  C_40
    6  A    between atoms: C_15  and  C_39
    7  A    between atoms: C_20  and  C_40
    8  A    between atoms: S_26  and  C_38
    9  A    between atoms: N_27  and  C_32
                            x       y       z     vdW  Elec       q    Type
                         _______ _______ _______ _____ _____    ______ ____

>  <TORSDO>
F 9

$$$$
=
 OpenBabel11062422143D

 44 50  0  0  1  0  0  0  0  0999 V2000
  191.8220  171.6850  140.1060 C   0  0  0  0  0  0  0  0  0  0  0  0
  193.3820  170.8430  141.9450 C   0  0  2  0  0  3  0  0  0  0  0  0
  192.9230  169.4600  140.0880 C   0  0  0  0  0  2  0  0  0  0  0  0
  193.9870  170.1390  140.8120 N   0  0  0  0  0  2  0  0  0  0  0  0
  191.2300  172.6630  139.4340 C   0  0  0  0  0  1  0  0  0  0  0  0
  192.3360  171.9200  141.5170 C   0  0  2  0  0  3  0  0  0  0  0  0
  192.1030  170.4590  139.4290 N   0  0  0  0  0  0  0  0  0  0  0  0
  189.7970  175.2980  143.4270 C   0  0  2  0  0  3  0  0  0  0  0  0
  189.0060  172.9960  142.4990 C   0  0  1  0  0  3  0  0  0  0  0  0
  188.1370  173.8470  141.6080 C   0  0  0  0  0  3  0  0  0  0  0  0
  187.8280  175.1140  141.9080 C   0  0  0  0  0  3  0  0  0  0  0  0
  191.1990  172.0100  142.4590 N   0  0  1  0  0  0  0  0  0  0  0  0
  191.2820  173.2020  143.3090 C   0  0  0  0  0  2  0  0  0  0  0  0
  189.9780  172.1920  141.6720 C   0  0  0  0  0  2  0  0  0  0  0  0
  189.8800  173.7540  143.4950 C   0  0  1  0  0  3  0  0  0  0  0  0
  188.3490  175.7530  143.1660 C   0  0  2  0  0  3  0  0  0  0  0  0
  186.6460  178.6110  144.0480 C   0  0  1  0  0  3  0  0  0  0  0  0
  185.5870  177.7020  146.1800 N   0  0  0  0  0  0  0  0  0  0  0  0
  184.4370  177.2410  146.9440 C   0  0  0  0  0  1  0  0  0  0  0  0
  188.2090  177.2860  143.1420 C   0  0  2  0  0  3  0  0  0  0  0  0
  187.9670  177.9660  144.4980 C   0  0  2  0  0  3  0  0  0  0  0  0
  187.8440  176.9910  145.6860 C   0  0  0  0  0  2  0  0  0  0  0  0
  184.2840  178.4280  144.3800 O   0  0  0  0  0  0  0  0  0  0  0  0
  186.6220  177.8180  142.4100 S   0  0  0  0  0  0  0  0  0  0  0  0
  186.9180  177.5560  146.7480 C   0  0  0  0  0  2  0  0  0  0  0  0
  185.4350  178.2320  144.8580 C   0  0  0  0  0  0  0  0  0  0  0  0
  191.5830  177.1350  143.2640 C   0  0  0  0  0  1  0  0  0  0  0  0
  190.8630  175.9970  142.5580 C   0  0  0  0  0  2  0  0  0  0  0  0
  194.7010  171.6390  142.9130 S   0  0  0  0  0  0  0  0  0  0  0  0
  195.5070  170.6180  145.2910 C   0  0  1  0  0  3  0  0  0  0  0  0
  194.2570  170.7390  144.4420 C   0  0  1  0  0  3  0  0  0  0  0  0
  194.3790  171.5280  145.7580 C   0  0  2  0  0  3  0  0  0  0  0  0
  196.0050  173.4420  145.3780 C   0  0  0  0  0  3  0  0  0  0  0  0
  194.6910  172.9910  145.5870 C   0  0  0  0  0  0  0  0  0  0  0  0
  195.2220  175.7320  145.3260 C   0  0  0  0  0  3  0  0  0  0  0  0
  196.2670  174.8080  145.2410 C   0  0  0  0  0  3  0  0  0  0  0  0
  193.6500  173.9230  145.6900 C   0  0  0  0  0  3  0  0  0  0  0  0
  193.9130  175.2900  145.5550 C   0  0  0  0  0  3  0  0  0  0  0  0
  195.4720  169.3090  146.0670 C   0  0  2  0  0  3  0  0  0  0  0  0
  196.8930  168.4160  148.0640 C   0  0  0  0  0  1  0  0  0  0  0  0
  196.8020  169.0330  146.7070 C   0  0  0  0  0  0  0  0  0  0  0  0
  197.8240  169.3380  146.1210 O   0  0  0  0  0  0  0  0  0  0  0  0
  195.0730  168.1660  145.1430 C   0  0  0  0  0  2  0  0  0  0  0  0
  195.8580  168.1900  143.9930 O   0  0  0  0  0  1  0  0  0  0  0  0
  2 29  1  6  0  0  0
  3  4  1  0  0  0  0
  4  2  1  0  0  0  0
  5  1  1  0  0  0  0
  6  1  1  6  0  0  0
  6  2  1  0  0  0  0
  6 12  1  0  0  0  0
  7  3  1  0  0  0  0
  7  1  2  0  0  0  0
  8 28  1  6  0  0  0
  8 15  1  0  0  0  0
  9 10  1  6  0  0  0
  9 15  1  0  0  0  0
 10 11  2  0  0  0  0
 12 14  1  6  0  0  0
 12 13  1  0  0  0  0
 14  9  1  0  0  0  0
 15 13  1  6  0  0  0
 16 11  1  6  0  0  0
 16  8  1  0  0  0  0
 17 24  1  6  0  0  0
 17 21  1  0  0  0  0
 17 26  1  0  0  0  0
 18 25  1  0  0  0  0
 18 19  1  0  0  0  0
 20 24  1  6  0  0  0
 20 16  1  0  0  0  0
 20 21  1  0  0  0  0
 21 22  1  1  0  0  0
 22 25  1  0  0  0  0
 23 26  2  0  0  0  0
 26 18  1  0  0  0  0
 28 27  1  0  0  0  0
 30 32  1  0  0  0  0
 30 39  1  1  0  0  0
 31 29  1  6  0  0  0
 31 30  1  0  0  0  0
 31 32  1  0  0  0  0
 32 34  1  6  0  0  0
 33 34  1  0  0  0  0
 34 37  2  0  0  0  0
 35 38  2  0  0  0  0
 36 35  1  0  0  0  0
 36 33  2  0  0  0  0
 38 37  1  0  0  0  0
 39 43  1  6  0  0  0
 39 41  1  0  0  0  0
 41 40  1  0  0  0  0
 42 41  2  0  0  0  0
 44 43  1  0  0  0  0
M  END
>  <MODEL>
9

>  <REMARK>
 VINA RESULT:      -6.2      3.897      9.720
  Name = 
  9 active torsions:
  status: ('A' for Active; 'I' for Inactive)
    1  A    between atoms: C_5  and  S_26
    2  A    between atoms: C_7  and  C_40
    3  A    between atoms: C_10  and  C_44
    4  A    between atoms: C_12  and  C_42
    5  A    between atoms: C_14  and  C_40
    6  A    between atoms: C_15  and  C_39
    7  A    between atoms: C_20  and  C_40
    8  A    between atoms: S_26  and  C_38
    9  A    between atoms: N_27  and  C_32
                            x       y       z     vdW  Elec       q    Type
                         _______ _______ _______ _____ _____    ______ ____

>  <TORSDO>
F 9

$$$$
