=
 OpenBabel11062422243D

 36 40  0  0  1  0  0  0  0  0999 V2000
  190.1140  174.4680  143.0490 C   0  0  1  0  0  3  0  0  0  0  0  0
  195.2050  175.5010  143.9310 C   0  0  2  0  0  3  0  0  0  0  0  0
  191.1690  176.7430  145.5430 S   0  0  0  0  0  0  0  0  0  0  0  0
  189.8970  171.3970  140.1060 O   0  0  0  0  0  1  0  0  0  0  0  0
  189.5570  175.1390  144.0600 C   0  0  2  0  0  3  0  0  0  0  0  0
  192.5280  176.6270  144.3910 C   0  0  0  0  0  2  0  0  0  0  0  0
  187.3600  176.3120  144.1670 N   0  0  0  0  0  0  0  0  0  0  0  0
  189.9970  172.4040  141.0560 C   0  0  0  0  0  0  0  0  0  0  0  0
  188.3030  175.6130  142.1170 N   0  0  0  0  0  2  0  0  0  0  0  0
  191.7920  173.0610  144.1890 C   0  0  0  0  0  3  0  0  0  0  0  0
  189.1240  173.5960  140.9580 C   0  0  0  0  0  0  0  0  0  0  0  0
  197.2000  173.9190  143.8270 C   0  0  0  0  0  2  0  0  0  0  0  0
  188.9110  174.2720  147.1670 O   0  0  0  0  0  0  0  0  0  0  0  0
  194.7080  177.3810  145.8540 O   0  0  0  0  0  0  0  0  0  0  0  0
  190.8840  172.2790  142.0510 C   0  0  0  0  0  3  0  0  0  0  0  0
  193.8970  171.8910  143.4520 C   0  0  0  0  0  2  0  0  0  0  0  0
  196.5360  175.0760  144.5810 C   0  0  0  0  0  2  0  0  0  0  0  0
  193.8100  174.9720  146.3700 O   0  0  0  0  0  1  0  0  0  0  0  0
  190.3530  177.9490  145.1720 O   0  0  0  0  0  0  0  0  0  0  0  0
  187.1150  176.4420  145.5770 C   0  0  0  0  0  0  0  0  0  0  0  0
  194.0910  176.1640  145.2020 P   0  0  2  0  0  0  0  0  0  0  0  0
  194.8170  173.0170  143.8920 C   0  0  1  0  0  3  0  0  0  0  0  0
  196.3050  172.6690  143.7760 C   0  0  0  0  0  2  0  0  0  0  0  0
  192.6580  171.8430  144.3450 C   0  0  0  0  0  2  0  0  0  0  0  0
  188.1880  176.4380  146.6130 C   0  0  0  0  0  2  0  0  0  0  0  0
  188.3840  175.8350  143.5170 C   0  0  0  0  0  0  0  0  0  0  0  0
  191.6680  176.9090  146.9520 O   0  0  0  0  0  0  0  0  0  0  0  0
  189.0830  175.2590  146.4710 C   0  0  0  0  0  0  0  0  0  0  0  0
  188.1650  173.6110  140.1410 O   0  0  0  0  0  0  0  0  0  0  0  0
  190.1490  175.2650  145.4320 C   0  0  2  0  0  3  0  0  0  0  0  0
  191.0050  173.2850  143.1330 C   0  0  0  0  0  0  0  0  0  0  0  0
  185.9360  176.6510  145.9610 O   0  0  0  0  0  0  0  0  0  0  0  0
  194.4750  174.3510  143.2230 C   0  0  2  0  0  3  0  0  0  0  0  0
  189.4700  174.8290  141.7430 C   0  0  2  0  0  3  0  0  0  0  0  0
  193.5450  174.8400  140.9600 C   0  0  0  0  0  1  0  0  0  0  0  0
  194.7590  174.3450  141.7240 C   0  0  0  0  0  2  0  0  0  0  0  0
  1 31  1  1  0  0  0
  1  5  1  0  0  0  0
  2 17  1  1  0  0  0
  2 21  1  0  0  0  0
  3 27  2  0  0  0  0
  4  8  1  0  0  0  0
  5 26  1  6  0  0  0
  5 30  1  0  0  0  0
  6 21  1  0  0  0  0
  6  3  1  0  0  0  0
  7 20  1  0  0  0  0
  8 15  2  0  0  0  0
  9 26  1  0  0  0  0
 10 24  1  0  0  0  0
 11  8  1  0  0  0  0
 12 17  1  0  0  0  0
 15 31  1  0  0  0  0
 16 24  1  0  0  0  0
 19  3  2  0  0  0  0
 20 32  2  0  0  0  0
 20 25  1  0  0  0  0
 21 14  2  1  0  0  0
 21 18  1  0  0  0  0
 22 16  1  6  0  0  0
 23 12  1  0  0  0  0
 23 22  1  0  0  0  0
 26  7  2  0  0  0  0
 28 25  1  0  0  0  0
 28 13  2  0  0  0  0
 29 11  2  0  0  0  0
 30  3  1  0  0  0  0
 30 28  1  1  0  0  0
 31 10  2  0  0  0  0
 33 36  1  6  0  0  0
 33 22  1  0  0  0  0
 33  2  1  0  0  0  0
 34 11  1  1  0  0  0
 34  9  1  0  0  0  0
 34  1  1  0  0  0  0
 35 36  1  0  0  0  0
M  END
>  <MODEL>
1

>  <REMARK>
 VINA RESULT:      -8.4      0.000      0.000
  Name = 
  1 active torsions:
  status: ('A' for Active; 'I' for Inactive)
    1  A    between atoms: C_26  and  C_35
                            x       y       z     vdW  Elec       q    Type
                         _______ _______ _______ _____ _____    ______ ____

>  <TORSDO>
F 1

$$$$
=
 OpenBabel11062422243D

 36 40  0  0  1  0  0  0  0  0999 V2000
  189.1240  175.3740  142.8470 C   0  0  1  0  0  3  0  0  0  0  0  0
  193.9320  174.4690  144.8040 C   0  0  2  0  0  3  0  0  0  0  0  0
  190.4240  177.2110  145.5760 S   0  0  0  0  0  0  0  0  0  0  0  0
  188.3740  172.4640  139.8290 O   0  0  0  0  0  1  0  0  0  0  0  0
  188.6670  176.2560  143.7400 C   0  0  2  0  0  3  0  0  0  0  0  0
  191.8430  176.5360  144.7300 C   0  0  0  0  0  2  0  0  0  0  0  0
  187.1020  178.1690  143.4230 N   0  0  0  0  0  0  0  0  0  0  0  0
  188.6490  173.4070  140.8100 C   0  0  0  0  0  0  0  0  0  0  0  0
  188.1100  177.0660  141.5940 N   0  0  0  0  0  2  0  0  0  0  0  0
  189.8770  173.5010  144.2680 C   0  0  0  0  0  3  0  0  0  0  0  0
  188.3300  174.8330  140.5700 C   0  0  0  0  0  0  0  0  0  0  0  0
  195.1600  172.2510  145.0680 C   0  0  0  0  0  2  0  0  0  0  0  0
  187.1200  175.8510  146.6150 O   0  0  0  0  0  0  0  0  0  0  0  0
  193.7970  176.4920  146.6390 O   0  0  0  0  0  0  0  0  0  0  0  0
  189.2000  173.0090  141.9640 C   0  0  0  0  0  3  0  0  0  0  0  0
  191.4880  171.5920  143.9490 C   0  0  0  0  0  2  0  0  0  0  0  0
  194.8420  173.6090  145.7030 C   0  0  0  0  0  2  0  0  0  0  0  0
  191.9730  174.6240  146.8810 O   0  0  0  0  0  1  0  0  0  0  0  0
  190.2160  178.6150  145.0810 O   0  0  0  0  0  0  0  0  0  0  0  0
  186.6400  178.4520  144.7540 C   0  0  0  0  0  0  0  0  0  0  0  0
  192.9150  175.5640  145.8340 P   0  0  2  0  0  0  0  0  0  0  0  0
  192.6530  172.3120  144.6070 C   0  0  1  0  0  3  0  0  0  0  0  0
  193.8910  171.4260  144.7930 C   0  0  0  0  0  2  0  0  0  0  0  0
  190.1680  172.0570  144.5620 C   0  0  0  0  0  2  0  0  0  0  0  0
  187.3970  178.0990  145.9900 C   0  0  0  0  0  2  0  0  0  0  0  0
  187.9810  177.3120  142.9860 C   0  0  0  0  0  0  0  0  0  0  0  0
  190.6480  177.2480  147.0630 O   0  0  0  0  0  0  0  0  0  0  0  0
  187.7900  176.6660  146.0020 C   0  0  0  0  0  0  0  0  0  0  0  0
  187.6360  175.1640  139.5710 O   0  0  0  0  0  0  0  0  0  0  0  0
  188.9680  176.2200  145.2090 C   0  0  2  0  0  3  0  0  0  0  0  0
  189.4670  173.9500  143.0780 C   0  0  0  0  0  0  0  0  0  0  0  0
  185.5750  179.1070  144.8910 O   0  0  0  0  0  0  0  0  0  0  0  0
  192.9850  173.6420  143.9230 C   0  0  2  0  0  3  0  0  0  0  0  0
  188.9460  175.8840  141.4480 C   0  0  2  0  0  3  0  0  0  0  0  0
  192.8070  174.3450  141.5370 C   0  0  0  0  0  1  0  0  0  0  0  0
  193.5460  173.4540  142.5170 C   0  0  0  0  0  2  0  0  0  0  0  0
  1 31  1  6  0  0  0
  1  5  1  0  0  0  0
  2 17  1  1  0  0  0
  2 21  1  0  0  0  0
  3 27  2  0  0  0  0
  4  8  1  0  0  0  0
  5 26  1  6  0  0  0
  5 30  1  0  0  0  0
  6  3  1  0  0  0  0
  6 21  1  0  0  0  0
  7 20  1  0  0  0  0
  8 15  2  0  0  0  0
  9 26  1  0  0  0  0
 10 24  1  0  0  0  0
 11  8  1  0  0  0  0
 12 17  1  0  0  0  0
 15 31  1  0  0  0  0
 16 24  1  0  0  0  0
 19  3  2  0  0  0  0
 20 32  2  0  0  0  0
 20 25  1  0  0  0  0
 21 14  2  1  0  0  0
 21 18  1  0  0  0  0
 22 16  1  6  0  0  0
 22 23  1  0  0  0  0
 23 12  1  0  0  0  0
 25 28  1  0  0  0  0
 26  7  2  0  0  0  0
 28 13  2  0  0  0  0
 29 11  2  0  0  0  0
 30  3  1  0  0  0  0
 30 28  1  1  0  0  0
 31 10  2  0  0  0  0
 33 36  1  6  0  0  0
 33 22  1  0  0  0  0
 33  2  1  0  0  0  0
 34 11  1  6  0  0  0
 34  9  1  0  0  0  0
 34  1  1  0  0  0  0
 35 36  1  0  0  0  0
M  END
>  <MODEL>
2

>  <REMARK>
 VINA RESULT:      -7.9      1.505      1.884
  Name = 
  1 active torsions:
  status: ('A' for Active; 'I' for Inactive)
    1  A    between atoms: C_26  and  C_35
                            x       y       z     vdW  Elec       q    Type
                         _______ _______ _______ _____ _____    ______ ____

>  <TORSDO>
F 1

$$$$
=
 OpenBabel11062422243D

 36 40  0  0  1  0  0  0  0  0999 V2000
  193.1360  174.5540  143.8120 C   0  0  1  0  0  3  0  0  0  0  0  0
  188.3310  175.9480  142.1600 C   0  0  2  0  0  3  0  0  0  0  0  0
  191.3580  172.6800  141.3950 S   0  0  0  0  0  0  0  0  0  0  0  0
  194.2740  177.2320  146.9220 O   0  0  0  0  0  1  0  0  0  0  0  0
  193.2640  173.3740  143.2000 C   0  0  2  0  0  3  0  0  0  0  0  0
  190.6410  174.3150  141.3610 C   0  0  0  0  0  2  0  0  0  0  0  0
  195.3080  172.2660  142.3010 N   0  0  0  0  0  0  0  0  0  0  0  0
  193.8820  176.3800  145.8980 C   0  0  0  0  0  0  0  0  0  0  0  0
  195.2900  174.5490  142.9050 N   0  0  0  0  0  2  0  0  0  0  0  0
  190.9800  174.3250  144.9920 C   0  0  0  0  0  3  0  0  0  0  0  0
  194.8380  176.0350  144.8220 C   0  0  0  0  0  0  0  0  0  0  0  0
  186.4190  176.9820  143.4910 C   0  0  0  0  0  2  0  0  0  0  0  0
  192.3740  170.3380  144.1020 O   0  0  0  0  0  0  0  0  0  0  0  0
  188.1410  173.9230  140.3310 O   0  0  0  0  0  0  0  0  0  0  0  0
  192.6400  175.8800  145.9040 C   0  0  0  0  0  3  0  0  0  0  0  0
  189.2960  175.9580  145.9070 C   0  0  0  0  0  2  0  0  0  0  0  0
  186.8100  175.9650  142.4130 C   0  0  0  0  0  2  0  0  0  0  0  0
  188.4400  173.1690  142.8240 O   0  0  0  0  0  1  0  0  0  0  0  0
  192.3860  172.6040  140.3010 O   0  0  0  0  0  0  0  0  0  0  0  0
  194.9210  170.8870  142.1840 C   0  0  0  0  0  0  0  0  0  0  0  0
  188.8400  174.2900  141.6210 P   0  0  2  0  0  0  0  0  0  0  0  0
  188.4110  175.9180  144.6730 C   0  0  1  0  0  3  0  0  0  0  0  0
  187.0960  176.6890  144.8400 C   0  0  0  0  0  2  0  0  0  0  0  0
  190.0010  174.6160  146.0940 C   0  0  0  0  0  2  0  0  0  0  0  0
  193.5090  170.4270  142.0460 C   0  0  0  0  0  2  0  0  0  0  0  0
  194.6270  173.3180  142.6580 C   0  0  0  0  0  0  0  0  0  0  0  0
  190.3130  171.6270  141.1540 O   0  0  0  0  0  0  0  0  0  0  0  0
  192.6400  170.9960  143.1090 C   0  0  0  0  0  0  0  0  0  0  0  0
  196.0540  176.3490  144.9330 O   0  0  0  0  0  0  0  0  0  0  0  0
  192.1480  172.3960  142.9870 C   0  0  2  0  0  3  0  0  0  0  0  0
  192.1710  174.9200  144.8770 C   0  0  0  0  0  0  0  0  0  0  0  0
  195.8260  170.0160  142.1140 O   0  0  0  0  0  0  0  0  0  0  0  0
  189.1610  176.3130  143.3980 C   0  0  2  0  0  3  0  0  0  0  0  0
  194.3250  175.4300  143.5470 C   0  0  2  0  0  3  0  0  0  0  0  0
  191.0650  177.9110  143.1850 C   0  0  0  0  0  1  0  0  0  0  0  0
  189.5670  177.7830  143.3880 C   0  0  0  0  0  2  0  0  0  0  0  0
  1 31  1  1  0  0  0
  2 17  1  1  0  0  0
  2 33  1  0  0  0  0
  3 30  1  0  0  0  0
  5 26  1  6  0  0  0
  5  1  1  0  0  0  0
  6  3  1  0  0  0  0
  6 21  1  0  0  0  0
  7 26  2  0  0  0  0
  8 15  2  0  0  0  0
  8  4  1  0  0  0  0
 10 24  1  0  0  0  0
 11 29  2  0  0  0  0
 11  8  1  0  0  0  0
 12 23  1  0  0  0  0
 16 24  1  0  0  0  0
 17 12  1  0  0  0  0
 19  3  2  0  0  0  0
 20  7  1  0  0  0  0
 21 14  2  6  0  0  0
 21  2  1  0  0  0  0
 21 18  1  0  0  0  0
 22 23  1  1  0  0  0
 22 16  1  0  0  0  0
 25 20  1  0  0  0  0
 25 28  1  0  0  0  0
 26  9  1  0  0  0  0
 27  3  2  0  0  0  0
 28 13  2  0  0  0  0
 30 28  1  6  0  0  0
 30  5  1  0  0  0  0
 31 10  2  0  0  0  0
 31 15  1  0  0  0  0
 32 20  2  0  0  0  0
 33 36  1  1  0  0  0
 33 22  1  0  0  0  0
 34  9  1  1  0  0  0
 34  1  1  0  0  0  0
 34 11  1  0  0  0  0
 35 36  1  0  0  0  0
M  END
>  <MODEL>
3

>  <REMARK>
 VINA RESULT:      -7.9      3.077      7.356
  Name = 
  1 active torsions:
  status: ('A' for Active; 'I' for Inactive)
    1  A    between atoms: C_26  and  C_35
                            x       y       z     vdW  Elec       q    Type
                         _______ _______ _______ _____ _____    ______ ____

>  <TORSDO>
F 1

$$$$
=
 OpenBabel11062422243D

 36 40  0  0  1  0  0  0  0  0999 V2000
  190.6380  175.9730  144.5080 C   0  0  1  0  0  3  0  0  0  0  0  0
  191.8340  171.9380  141.3380 C   0  0  2  0  0  3  0  0  0  0  0  0
  188.4730  174.9020  141.9240 S   0  0  0  0  0  0  0  0  0  0  0  0
  193.9860  176.6770  147.0440 O   0  0  0  0  0  1  0  0  0  0  0  0
  189.5210  176.4120  143.9210 C   0  0  2  0  0  3  0  0  0  0  0  0
  189.5310  173.5080  142.2750 C   0  0  0  0  0  2  0  0  0  0  0  0
  187.5030  177.4630  144.9390 N   0  0  0  0  0  0  0  0  0  0  0  0
  192.9050  176.4180  146.2120 C   0  0  0  0  0  0  0  0  0  0  0  0
  189.1260  176.3530  146.2480 N   0  0  0  0  0  2  0  0  0  0  0  0
  192.2470  175.9140  142.6360 C   0  0  0  0  0  3  0  0  0  0  0  0
  191.5360  176.3890  146.7730 C   0  0  0  0  0  0  0  0  0  0  0  0
  194.1030  171.2610  140.3960 C   0  0  0  0  0  2  0  0  0  0  0  0
  189.0360  178.5520  141.4700 O   0  0  0  0  0  0  0  0  0  0  0  0
  189.4610  172.0250  139.9810 O   0  0  0  0  0  1  0  0  0  0  0  0
  193.1220  176.2020  144.9080 C   0  0  0  0  0  3  0  0  0  0  0  0
  194.4080  174.6900  142.2160 C   0  0  0  0  0  2  0  0  0  0  0  0
  192.6060  171.4190  140.1090 C   0  0  0  0  0  2  0  0  0  0  0  0
  190.9200  174.1990  139.8470 O   0  0  0  0  0  0  0  0  0  0  0  0
  187.1970  174.7190  142.6980 O   0  0  0  0  0  0  0  0  0  0  0  0
  186.8650  178.1150  143.8280 C   0  0  0  0  0  0  0  0  0  0  0  0
  190.3930  172.8980  140.7920 P   0  0  2  0  0  0  0  0  0  0  0  0
  193.7530  173.5600  141.4410 C   0  0  1  0  0  3  0  0  0  0  0  0
  194.7590  172.5890  140.8110 C   0  0  0  0  0  2  0  0  0  0  0  0
  193.6180  175.9850  142.0270 C   0  0  0  0  0  2  0  0  0  0  0  0
  187.0520  177.7080  142.4050 C   0  0  0  0  0  2  0  0  0  0  0  0
  188.5620  176.7060  144.9940 C   0  0  0  0  0  0  0  0  0  0  0  0
  188.1450  174.9760  140.4580 O   0  0  0  0  0  0  0  0  0  0  0  0
  188.4910  177.6230  142.0430 C   0  0  0  0  0  0  0  0  0  0  0  0
  191.3270  176.7870  147.9500 O   0  0  0  0  0  0  0  0  0  0  0  0
  189.2800  176.4250  142.4420 C   0  0  2  0  0  3  0  0  0  0  0  0
  192.0130  175.9790  143.9500 C   0  0  0  0  0  0  0  0  0  0  0  0
  186.0370  179.0310  144.0680 O   0  0  0  0  0  0  0  0  0  0  0  0
  192.6750  172.8370  142.2540 C   0  0  2  0  0  3  0  0  0  0  0  0
  190.4270  175.7610  145.9770 C   0  0  2  0  0  3  0  0  0  0  0  0
  192.5930  172.4940  144.7240 C   0  0  0  0  0  1  0  0  0  0  0  0
  193.2520  172.0560  143.4300 C   0  0  0  0  0  2  0  0  0  0  0  0
  1 31  1  1  0  0  0
  1 34  1  0  0  0  0
  2 17  1  6  0  0  0
  2 33  1  0  0  0  0
  3  6  1  0  0  0  0
  3 30  1  0  0  0  0
  3 19  2  0  0  0  0
  5  1  1  0  0  0  0
  5 26  1  1  0  0  0
  7 26  2  0  0  0  0
  8 11  1  0  0  0  0
  8  4  1  0  0  0  0
 10 31  2  0  0  0  0
 11 29  2  0  0  0  0
 12 23  1  0  0  0  0
 13 28  2  0  0  0  0
 14 21  1  0  0  0  0
 15  8  2  0  0  0  0
 17 12  1  0  0  0  0
 20 32  2  0  0  0  0
 20  7  1  0  0  0  0
 21 18  2  6  0  0  0
 21  2  1  0  0  0  0
 21  6  1  0  0  0  0
 22 23  1  1  0  0  0
 22 16  1  0  0  0  0
 22 33  1  0  0  0  0
 24 16  1  0  0  0  0
 24 10  1  0  0  0  0
 25 20  1  0  0  0  0
 26  9  1  0  0  0  0
 27  3  2  0  0  0  0
 28 25  1  0  0  0  0
 30 28  1  1  0  0  0
 30  5  1  0  0  0  0
 31 15  1  0  0  0  0
 33 36  1  1  0  0  0
 34  9  1  1  0  0  0
 34 11  1  0  0  0  0
 36 35  1  0  0  0  0
M  END
>  <MODEL>
4

>  <REMARK>
 VINA RESULT:      -7.7      2.351      5.292
  Name = 
  1 active torsions:
  status: ('A' for Active; 'I' for Inactive)
    1  A    between atoms: C_26  and  C_35
                            x       y       z     vdW  Elec       q    Type
                         _______ _______ _______ _____ _____    ______ ____

>  <TORSDO>
F 1

$$$$
=
 OpenBabel11062422243D

 36 40  0  0  1  0  0  0  0  0999 V2000
  190.9730  175.0200  142.5430 C   0  0  1  0  0  3  0  0  0  0  0  0
  194.5300  172.3190  145.3370 C   0  0  2  0  0  3  0  0  0  0  0  0
  191.5250  171.5610  142.0480 S   0  0  0  0  0  0  0  0  0  0  0  0
  191.2880  179.1220  143.6440 O   0  0  0  0  0  1  0  0  0  0  0  0
  190.6040  174.0860  141.6620 C   0  0  2  0  0  3  0  0  0  0  0  0
  192.1290  171.9160  143.6900 C   0  0  0  0  0  2  0  0  0  0  0  0
  188.3900  173.7080  140.5810 N   0  0  0  0  0  0  0  0  0  0  0  0
  191.2000  177.7770  143.3120 C   0  0  0  0  0  0  0  0  0  0  0  0
  188.6400  175.1310  142.4500 N   0  0  0  0  0  2  0  0  0  0  0  0
  193.4310  175.0350  142.3230 C   0  0  0  0  0  3  0  0  0  0  0  0
  189.8710  177.1330  143.2010 C   0  0  0  0  0  0  0  0  0  0  0  0
  196.8180  173.0730  146.1690 C   0  0  0  0  0  2  0  0  0  0  0  0
  191.8450  173.2300  138.7370 O   0  0  0  0  0  0  0  0  0  0  0  0
  193.9200  169.9140  144.1870 O   0  0  0  0  0  1  0  0  0  0  0  0
  192.3240  177.0810  143.0930 C   0  0  0  0  0  3  0  0  0  0  0  0
  195.3220  175.7840  143.8080 C   0  0  0  0  0  2  0  0  0  0  0  0
  196.0050  171.9280  145.5550 C   0  0  0  0  0  2  0  0  0  0  0  0
  194.7670  171.7710  142.5410 O   0  0  0  0  0  0  0  0  0  0  0  0
  190.1210  171.0410  142.1750 O   0  0  0  0  0  0  0  0  0  0  0  0
  188.7060  172.8950  139.4400 C   0  0  0  0  0  0  0  0  0  0  0  0
  193.8600  171.4010  143.9210 P   0  0  2  0  0  0  0  0  0  0  0  0
  195.5710  174.4020  144.3870 C   0  0  1  0  0  3  0  0  0  0  0  0
  196.8120  174.3310  145.2840 C   0  0  0  0  0  2  0  0  0  0  0  0
  194.7920  175.6690  142.3800 C   0  0  0  0  0  2  0  0  0  0  0  0
  189.9170  172.0300  139.3420 C   0  0  0  0  0  2  0  0  0  0  0  0
  189.1430  174.1610  141.5440 C   0  0  0  0  0  0  0  0  0  0  0  0
  192.3710  170.5150  141.3750 O   0  0  0  0  0  0  0  0  0  0  0  0
  191.1580  172.7900  139.6450 C   0  0  0  0  0  0  0  0  0  0  0  0
  188.8260  177.8360  143.2130 O   0  0  0  0  0  0  0  0  0  0  0  0
  191.5250  173.0660  141.0610 C   0  0  2  0  0  3  0  0  0  0  0  0
  192.3040  175.6590  142.6780 C   0  0  0  0  0  0  0  0  0  0  0  0
  187.8750  172.8420  138.4960 O   0  0  0  0  0  0  0  0  0  0  0  0
  194.3280  173.8150  145.0630 C   0  0  2  0  0  3  0  0  0  0  0  0
  189.7760  175.6330  143.2080 C   0  0  2  0  0  3  0  0  0  0  0  0
  192.4670  174.9350  146.2900 C   0  0  0  0  0  1  0  0  0  0  0  0
  193.9380  174.5700  146.3300 C   0  0  0  0  0  2  0  0  0  0  0  0
  1 31  1  6  0  0  0
  1 34  1  0  0  0  0
  2 17  1  6  0  0  0
  3 19  2  0  0  0  0
  3  6  1  0  0  0  0
  5 26  1  1  0  0  0
  5  1  1  0  0  0  0
  6 21  1  0  0  0  0
  7 26  2  0  0  0  0
  8  4  1  0  0  0  0
 10 24  1  0  0  0  0
 10 31  2  0  0  0  0
 11 34  1  0  0  0  0
 11 29  2  0  0  0  0
 11  8  1  0  0  0  0
 13 28  2  0  0  0  0
 15  8  2  0  0  0  0
 17 12  1  0  0  0  0
 20  7  1  0  0  0  0
 21 18  2  6  0  0  0
 21 14  1  0  0  0  0
 21  2  1  0  0  0  0
 22 16  1  1  0  0  0
 22 33  1  0  0  0  0
 22 23  1  0  0  0  0
 23 12  1  0  0  0  0
 24 16  1  0  0  0  0
 25 20  1  0  0  0  0
 25 28  1  0  0  0  0
 26  9  1  0  0  0  0
 27  3  2  0  0  0  0
 30 28  1  6  0  0  0
 30  5  1  0  0  0  0
 30  3  1  0  0  0  0
 31 15  1  0  0  0  0
 32 20  2  0  0  0  0
 33  2  1  0  0  0  0
 33 36  1  1  0  0  0
 34  9  1  6  0  0  0
 35 36  1  0  0  0  0
M  END
>  <MODEL>
5

>  <REMARK>
 VINA RESULT:      -7.7      2.745      5.374
  Name = 
  1 active torsions:
  status: ('A' for Active; 'I' for Inactive)
    1  A    between atoms: C_26  and  C_35
                            x       y       z     vdW  Elec       q    Type
                         _______ _______ _______ _____ _____    ______ ____

>  <TORSDO>
F 1

$$$$
=
 OpenBabel11062422243D

 36 40  0  0  1  0  0  0  0  0999 V2000
  193.4330  174.9050  141.8780 C   0  0  1  0  0  3  0  0  0  0  0  0
  188.8270  176.3180  144.0090 C   0  0  2  0  0  3  0  0  0  0  0  0
  190.3770  173.4030  140.9230 S   0  0  0  0  0  0  0  0  0  0  0  0
  196.5160  177.0400  143.8980 O   0  0  0  0  0  1  0  0  0  0  0  0
  193.0440  173.8610  141.1410 C   0  0  2  0  0  3  0  0  0  0  0  0
  189.9370  174.9780  141.6390 C   0  0  0  0  0  2  0  0  0  0  0  0
  193.9270  173.0410  138.9590 N   0  0  0  0  0  0  0  0  0  0  0  0
  195.4900  176.3650  143.2490 C   0  0  0  0  0  0  0  0  0  0  0  0
  194.4810  175.1750  139.8060 N   0  0  0  0  0  2  0  0  0  0  0  0
  192.5430  174.3560  144.1130 C   0  0  0  0  0  3  0  0  0  0  0  0
  195.4930  176.2690  141.7720 C   0  0  0  0  0  0  0  0  0  0  0  0
  188.3170  176.9970  146.4120 C   0  0  0  0  0  2  0  0  0  0  0  0
  192.7180  170.6710  141.8730 O   0  0  0  0  0  0  0  0  0  0  0  0
  187.3440  174.6460  142.4330 O   0  0  0  0  0  0  0  0  0  0  0  0
  194.5120  175.8080  143.9750 C   0  0  0  0  0  3  0  0  0  0  0  0
  191.9840  175.7090  146.1620 C   0  0  0  0  0  2  0  0  0  0  0  0
  187.8390  176.2110  145.1870 C   0  0  0  0  0  2  0  0  0  0  0  0
  189.1250  173.4750  143.9600 O   0  0  0  0  0  1  0  0  0  0  0  0
  190.4430  173.5770  139.4310 O   0  0  0  0  0  0  0  0  0  0  0  0
  193.4520  171.6860  138.8910 C   0  0  0  0  0  0  0  0  0  0  0  0
  188.7360  174.8130  142.9980 P   0  0  2  0  0  0  0  0  0  0  0  0
  190.5110  175.8440  145.8160 C   0  0  1  0  0  3  0  0  0  0  0  0
  189.6810  176.5020  146.9230 C   0  0  0  0  0  2  0  0  0  0  0  0
  192.5360  174.3940  145.6150 C   0  0  0  0  0  2  0  0  0  0  0  0
  192.2550  171.1850  139.6270 C   0  0  0  0  0  2  0  0  0  0  0  0
  193.7230  173.9750  139.8440 C   0  0  0  0  0  0  0  0  0  0  0  0
  189.3460  172.3560  141.2440 O   0  0  0  0  0  0  0  0  0  0  0  0
  192.3280  171.5080  141.0760 C   0  0  0  0  0  0  0  0  0  0  0  0
  196.5110  176.6200  141.1180 O   0  0  0  0  0  0  0  0  0  0  0  0
  191.9840  172.8800  141.5410 C   0  0  2  0  0  3  0  0  0  0  0  0
  193.4180  175.0230  143.3560 C   0  0  0  0  0  0  0  0  0  0  0  0
  194.0260  170.8910  138.1030 O   0  0  0  0  0  0  0  0  0  0  0  0
  190.2860  176.4990  144.4490 C   0  0  2  0  0  3  0  0  0  0  0  0
  194.2320  175.8750  141.0570 C   0  0  2  0  0  3  0  0  0  0  0  0
  191.6060  178.2370  143.2410 C   0  0  0  0  0  1  0  0  0  0  0  0
  190.7010  177.9660  144.4270 C   0  0  0  0  0  2  0  0  0  0  0  0
  1 31  1  1  0  0  0
  2 33  1  0  0  0  0
  2 17  1  1  0  0  0
  3 27  2  0  0  0  0
  3 30  1  0  0  0  0
  3  6  1  0  0  0  0
  5 26  1  6  0  0  0
  5 30  1  0  0  0  0
  5  1  1  0  0  0  0
  6 21  1  0  0  0  0
  7 26  2  0  0  0  0
  8  4  1  0  0  0  0
  8 15  2  0  0  0  0
  9 26  1  0  0  0  0
 10 24  1  0  0  0  0
 11  8  1  0  0  0  0
 12 23  1  0  0  0  0
 17 12  1  0  0  0  0
 19  3  2  0  0  0  0
 20  7  1  0  0  0  0
 20 25  1  0  0  0  0
 21 14  2  6  0  0  0
 21 18  1  0  0  0  0
 21  2  1  0  0  0  0
 22 16  1  1  0  0  0
 22 23  1  0  0  0  0
 24 16  1  0  0  0  0
 25 28  1  0  0  0  0
 28 13  2  0  0  0  0
 29 11  2  0  0  0  0
 30 28  1  6  0  0  0
 31 15  1  0  0  0  0
 31 10  2  0  0  0  0
 32 20  2  0  0  0  0
 33 36  1  1  0  0  0
 33 22  1  0  0  0  0
 34  9  1  6  0  0  0
 34 11  1  0  0  0  0
 34  1  1  0  0  0  0
 35 36  1  0  0  0  0
M  END
>  <MODEL>
6

>  <REMARK>
 VINA RESULT:      -7.2      3.231      6.991
  Name = 
  1 active torsions:
  status: ('A' for Active; 'I' for Inactive)
    1  A    between atoms: C_26  and  C_35
                            x       y       z     vdW  Elec       q    Type
                         _______ _______ _______ _____ _____    ______ ____

>  <TORSDO>
F 1

$$$$
=
 OpenBabel11062422243D

 36 40  0  0  1  0  0  0  0  0999 V2000
  192.0140  173.5870  141.7780 C   0  0  1  0  0  3  0  0  0  0  0  0
  191.8500  175.5720  146.6570 C   0  0  2  0  0  3  0  0  0  0  0  0
  194.9350  174.5890  143.5030 S   0  0  0  0  0  0  0  0  0  0  0  0
  188.0030  173.0000  140.4720 O   0  0  0  0  0  1  0  0  0  0  0  0
  193.3070  173.7650  141.4930 C   0  0  2  0  0  3  0  0  0  0  0  0
  193.7060  174.2980  144.7650 C   0  0  0  0  0  2  0  0  0  0  0  0
  194.8260  172.3810  140.0820 N   0  0  0  0  0  0  0  0  0  0  0  0
  189.3010  173.1920  140.9280 C   0  0  0  0  0  0  0  0  0  0  0  0
  192.7200  171.5860  140.8000 N   0  0  0  0  0  2  0  0  0  0  0  0
  191.3010  175.8390  142.4970 C   0  0  0  0  0  3  0  0  0  0  0  0
  190.3180  172.1370  140.7150 C   0  0  0  0  0  0  0  0  0  0  0  0
  190.1050  177.1080  147.7000 C   0  0  0  0  0  2  0  0  0  0  0  0
  194.9300  176.3230  140.2110 O   0  0  0  0  0  0  0  0  0  0  0  0
  194.5660  175.7870  146.8880 O   0  0  0  0  0  1  0  0  0  0  0  0
  189.6120  174.3350  141.5530 C   0  0  0  0  0  3  0  0  0  0  0  0
  189.3960  176.7160  143.8920 C   0  0  0  0  0  2  0  0  0  0  0  0
  191.5980  176.7870  147.5700 C   0  0  0  0  0  2  0  0  0  0  0  0
  193.4860  177.1660  144.9370 O   0  0  0  0  0  0  0  0  0  0  0  0
  195.7670  173.3440  143.3740 O   0  0  0  0  0  0  0  0  0  0  0  0
  195.9140  173.2710  139.7840 C   0  0  0  0  0  0  0  0  0  0  0  0
  193.4680  175.7410  145.8500 P   0  0  2  0  0  0  0  0  0  0  0  0
  190.2050  176.7670  145.1760 C   0  0  1  0  0  3  0  0  0  0  0  0
  189.4580  177.4260  146.3410 C   0  0  0  0  0  2  0  0  0  0  0  0
  190.3060  176.9480  142.6860 C   0  0  0  0  0  2  0  0  0  0  0  0
  196.2830  174.4460  140.6250 C   0  0  0  0  0  2  0  0  0  0  0  0
  193.7720  172.5390  140.8330 C   0  0  0  0  0  0  0  0  0  0  0  0
  195.8330  175.7360  143.8780 O   0  0  0  0  0  0  0  0  0  0  0  0
  195.1120  175.3230  140.8860 C   0  0  0  0  0  0  0  0  0  0  0  0
  190.0660  171.1620  139.9580 O   0  0  0  0  0  0  0  0  0  0  0  0
  194.1260  174.9400  141.9350 C   0  0  2  0  0  3  0  0  0  0  0  0
  190.9890  174.6330  142.0130 C   0  0  0  0  0  0  0  0  0  0  0  0
  196.6510  173.0040  138.8010 O   0  0  0  0  0  0  0  0  0  0  0  0
  190.7940  175.4050  145.5560 C   0  0  2  0  0  3  0  0  0  0  0  0
  191.5930  172.1730  141.5080 C   0  0  2  0  0  3  0  0  0  0  0  0
  189.8470  173.1400  145.1110 C   0  0  0  0  0  1  0  0  0  0  0  0
  189.7230  174.3940  145.9540 C   0  0  0  0  0  2  0  0  0  0  0  0
  1 31  1  6  0  0  0
  2 17  1  6  0  0  0
  3 27  2  0  0  0  0
  3  6  1  0  0  0  0
  4  8  1  0  0  0  0
  5 26  1  1  0  0  0
  5  1  1  0  0  0  0
  5 30  1  0  0  0  0
  6 21  1  0  0  0  0
  7 26  2  0  0  0  0
  8 15  2  0  0  0  0
  9 26  1  0  0  0  0
  9 34  1  0  0  0  0
 10 24  1  0  0  0  0
 11  8  1  0  0  0  0
 13 28  2  0  0  0  0
 15 31  1  0  0  0  0
 17 12  1  0  0  0  0
 19  3  2  0  0  0  0
 20  7  1  0  0  0  0
 20 25  1  0  0  0  0
 21 18  2  6  0  0  0
 21  2  1  0  0  0  0
 21 14  1  0  0  0  0
 22 16  1  6  0  0  0
 22 33  1  0  0  0  0
 22 23  1  0  0  0  0
 23 12  1  0  0  0  0
 24 16  1  0  0  0  0
 25 28  1  0  0  0  0
 29 11  2  0  0  0  0
 30 28  1  6  0  0  0
 30  3  1  0  0  0  0
 31 10  2  0  0  0  0
 32 20  2  0  0  0  0
 33 36  1  1  0  0  0
 33  2  1  0  0  0  0
 34 11  1  6  0  0  0
 34  1  1  0  0  0  0
 35 36  1  0  0  0  0
M  END
>  <MODEL>
7

>  <REMARK>
 VINA RESULT:      -7.2      2.974      6.204
  Name = 
  1 active torsions:
  status: ('A' for Active; 'I' for Inactive)
    1  A    between atoms: C_26  and  C_35
                            x       y       z     vdW  Elec       q    Type
                         _______ _______ _______ _____ _____    ______ ____

>  <TORSDO>
F 1

$$$$
=
 OpenBabel11062422243D

 36 40  0  0  1  0  0  0  0  0999 V2000
  189.8820  174.4800  142.0180 C   0  0  1  0  0  3  0  0  0  0  0  0
  193.9210  173.0880  145.1020 C   0  0  2  0  0  3  0  0  0  0  0  0
  192.0860  171.8490  141.1620 S   0  0  0  0  0  0  0  0  0  0  0  0
  188.0470  177.9160  143.7420 O   0  0  0  0  0  1  0  0  0  0  0  0
  190.1210  173.7110  140.9520 C   0  0  2  0  0  3  0  0  0  0  0  0
  192.2350  172.0470  142.9300 C   0  0  0  0  0  2  0  0  0  0  0  0
  188.5140  172.6460  139.3720 N   0  0  0  0  0  0  0  0  0  0  0  0
  188.6580  176.7890  143.2080 C   0  0  0  0  0  0  0  0  0  0  0  0
  187.8160  173.5580  141.4360 N   0  0  0  0  0  2  0  0  0  0  0  0
  192.0360  175.6410  142.3450 C   0  0  0  0  0  3  0  0  0  0  0  0
  187.8280  175.6650  142.7180 C   0  0  0  0  0  0  0  0  0  0  0  0
  195.4410  174.5690  146.5130 C   0  0  0  0  0  2  0  0  0  0  0  0
  191.9730  174.1980  138.2770 O   0  0  0  0  0  0  0  0  0  0  0  0
  194.6910  171.0010  143.5110 O   0  0  0  0  0  1  0  0  0  0  0  0
  189.9950  176.7400  143.1420 C   0  0  0  0  0  3  0  0  0  0  0  0
  193.1330  176.7910  144.2990 C   0  0  0  0  0  2  0  0  0  0  0  0
  195.3620  173.3580  145.5770 C   0  0  0  0  0  2  0  0  0  0  0  0
  194.7370  173.3640  142.3750 O   0  0  0  0  0  0  0  0  0  0  0  0
  191.1010  170.7440  140.9030 O   0  0  0  0  0  0  0  0  0  0  0  0
  189.3220  172.3460  138.2220 C   0  0  0  0  0  0  0  0  0  0  0  0
  193.9560  172.3210  143.4560 P   0  0  2  0  0  0  0  0  0  0  0  0
  193.9410  175.5730  144.7120 C   0  0  1  0  0  3  0  0  0  0  0  0
  194.9410  175.8590  145.8380 C   0  0  0  0  0  2  0  0  0  0  0  0
  192.9050  176.7830  142.7880 C   0  0  0  0  0  2  0  0  0  0  0  0
  190.8010  172.1610  138.2680 C   0  0  0  0  0  2  0  0  0  0  0  0
  188.8310  173.1510  140.5310 C   0  0  0  0  0  0  0  0  0  0  0  0
  193.4060  171.4770  140.5460 O   0  0  0  0  0  0  0  0  0  0  0  0
  191.4760  173.3020  138.9400 C   0  0  0  0  0  0  0  0  0  0  0  0
  186.5820  175.8050  142.6030 O   0  0  0  0  0  0  0  0  0  0  0  0
  191.4850  173.3780  140.4270 C   0  0  2  0  0  3  0  0  0  0  0  0
  190.7130  175.5960  142.5310 C   0  0  0  0  0  0  0  0  0  0  0  0
  188.7440  172.1470  137.1220 O   0  0  0  0  0  0  0  0  0  0  0  0
  193.0600  174.3560  145.0090 C   0  0  2  0  0  3  0  0  0  0  0  0
  188.4660  174.3250  142.4880 C   0  0  2  0  0  3  0  0  0  0  0  0
  190.7320  174.4070  145.9040 C   0  0  0  0  0  1  0  0  0  0  0  0
  192.2020  174.5430  146.2560 C   0  0  0  0  0  2  0  0  0  0  0  0
  1 34  1  0  0  0  0
  1 31  1  6  0  0  0
  2 17  1  6  0  0  0
  3  6  1  0  0  0  0
  5 26  1  1  0  0  0
  5  1  1  0  0  0  0
  6 21  1  0  0  0  0
  7 26  2  0  0  0  0
  8  4  1  0  0  0  0
 10 31  2  0  0  0  0
 10 24  1  0  0  0  0
 11  8  1  0  0  0  0
 13 28  2  0  0  0  0
 15  8  2  0  0  0  0
 17 12  1  0  0  0  0
 19  3  2  0  0  0  0
 20 25  1  0  0  0  0
 20  7  1  0  0  0  0
 21 18  2  6  0  0  0
 21 14  1  0  0  0  0
 21  2  1  0  0  0  0
 22 16  1  1  0  0  0
 22 33  1  0  0  0  0
 22 23  1  0  0  0  0
 23 12  1  0  0  0  0
 24 16  1  0  0  0  0
 25 28  1  0  0  0  0
 26  9  1  0  0  0  0
 27  3  2  0  0  0  0
 29 11  2  0  0  0  0
 30 28  1  6  0  0  0
 30  5  1  0  0  0  0
 30  3  1  0  0  0  0
 31 15  1  0  0  0  0
 32 20  2  0  0  0  0
 33  2  1  0  0  0  0
 33 36  1  1  0  0  0
 34  9  1  6  0  0  0
 34 11  1  0  0  0  0
 35 36  1  0  0  0  0
M  END
>  <MODEL>
8

>  <REMARK>
 VINA RESULT:      -6.9      2.877      5.632
  Name = 
  1 active torsions:
  status: ('A' for Active; 'I' for Inactive)
    1  A    between atoms: C_26  and  C_35
                            x       y       z     vdW  Elec       q    Type
                         _______ _______ _______ _____ _____    ______ ____

>  <TORSDO>
F 1

$$$$
=
 OpenBabel11062422243D

 36 40  0  0  1  0  0  0  0  0999 V2000
  189.6360  175.9750  142.8220 C   0  0  1  0  0  3  0  0  0  0  0  0
  192.3700  172.2900  140.2310 C   0  0  2  0  0  3  0  0  0  0  0  0
  192.2910  174.1890  144.3310 S   0  0  0  0  0  0  0  0  0  0  0  0
  186.4850  177.2930  140.2780 O   0  0  0  0  0  1  0  0  0  0  0  0
  190.1470  175.8310  144.0480 C   0  0  2  0  0  3  0  0  0  0  0  0
  192.5610  174.0590  142.5710 C   0  0  0  0  0  2  0  0  0  0  0  0
  190.5200  177.5410  145.8220 N   0  0  0  0  0  0  0  0  0  0  0  0
  187.5280  176.8530  141.0820 C   0  0  0  0  0  0  0  0  0  0  0  0
  190.0460  178.1440  143.5880 N   0  0  0  0  0  2  0  0  0  0  0  0
  188.9490  173.6750  142.2450 C   0  0  0  0  0  3  0  0  0  0  0  0
  188.3500  177.8350  141.8240 C   0  0  0  0  0  0  0  0  0  0  0  0
  191.5430  170.5950  138.5160 C   0  0  0  0  0  2  0  0  0  0  0  0
  189.3160  173.8530  146.5420 O   0  0  0  0  0  0  0  0  0  0  0  0
  194.0950  171.8150  142.2980 O   0  0  0  0  0  0  0  0  0  0  0  0
  187.7710  175.5390  141.1750 C   0  0  0  0  0  3  0  0  0  0  0  0
  188.5070  172.4650  140.0810 C   0  0  0  0  0  2  0  0  0  0  0  0
  192.4570  170.8380  139.7210 C   0  0  0  0  0  2  0  0  0  0  0  0
  191.5640  171.3670  142.8140 O   0  0  0  0  0  1  0  0  0  0  0  0
  193.1270  175.3280  144.8430 O   0  0  0  0  0  0  0  0  0  0  0  0
  190.6520  176.7590  147.0220 C   0  0  0  0  0  0  0  0  0  0  0  0
  192.7020  172.3310  142.0150 P   0  0  2  0  0  0  0  0  0  0  0  0
  189.9010  171.8690  139.9920 C   0  0  1  0  0  3  0  0  0  0  0  0
  190.0650  170.8680  138.8430 C   0  0  0  0  0  2  0  0  0  0  0  0
  188.1050  172.6490  141.5440 C   0  0  0  0  0  2  0  0  0  0  0  0
  191.0750  175.3290  147.0420 C   0  0  0  0  0  2  0  0  0  0  0  0
  190.3730  177.1810  144.5790 C   0  0  0  0  0  0  0  0  0  0  0  0
  192.7050  172.9270  145.0360 O   0  0  0  0  0  0  0  0  0  0  0  0
  190.2570  174.5030  146.1160 C   0  0  0  0  0  0  0  0  0  0  0  0
  187.9900  179.0410  141.8860 O   0  0  0  0  0  0  0  0  0  0  0  0
  190.5520  174.5220  144.6570 C   0  0  2  0  0  3  0  0  0  0  0  0
  188.8280  174.9930  142.0590 C   0  0  0  0  0  0  0  0  0  0  0  0
  190.4790  177.3310  148.1280 O   0  0  0  0  0  0  0  0  0  0  0  0
  190.9980  172.9380  139.9960 C   0  0  2  0  0  3  0  0  0  0  0  0
  189.6760  177.4100  142.3880 C   0  0  2  0  0  3  0  0  0  0  0  0
  192.4080  174.1660  138.3440 C   0  0  0  0  0  1  0  0  0  0  0  0
  190.9900  173.7910  138.7310 C   0  0  0  0  0  2  0  0  0  0  0  0
  1 31  1  1  0  0  0
  1  5  1  0  0  0  0
  2 17  1  1  0  0  0
  2 21  1  0  0  0  0
  3 30  1  0  0  0  0
  3 19  2  0  0  0  0
  3 27  2  0  0  0  0
  4  8  1  0  0  0  0
  5 26  1  6  0  0  0
  5 30  1  0  0  0  0
  6  3  1  0  0  0  0
  7 20  1  0  0  0  0
  8 15  2  0  0  0  0
  8 11  1  0  0  0  0
  9 26  1  0  0  0  0
 11 29  2  0  0  0  0
 12 23  1  0  0  0  0
 12 17  1  0  0  0  0
 15 31  1  0  0  0  0
 16 24  1  0  0  0  0
 20 25  1  0  0  0  0
 20 32  2  0  0  0  0
 21 14  2  1  0  0  0
 21  6  1  0  0  0  0
 21 18  1  0  0  0  0
 22 23  1  6  0  0  0
 22 33  1  0  0  0  0
 22 16  1  0  0  0  0
 24 10  1  0  0  0  0
 26  7  2  0  0  0  0
 28 13  2  0  0  0  0
 28 25  1  0  0  0  0
 30 28  1  1  0  0  0
 31 10  2  0  0  0  0
 33 36  1  6  0  0  0
 33  2  1  0  0  0  0
 34 11  1  1  0  0  0
 34  1  1  0  0  0  0
 34  9  1  0  0  0  0
 35 36  1  0  0  0  0
M  END
>  <MODEL>
9

>  <REMARK>
 VINA RESULT:      -6.9      2.814      4.758
  Name = 
  1 active torsions:
  status: ('A' for Active; 'I' for Inactive)
    1  A    between atoms: C_26  and  C_35
                            x       y       z     vdW  Elec       q    Type
                         _______ _______ _______ _____ _____    ______ ____

>  <TORSDO>
F 1

$$$$
