=
 OpenBabel11062418203D

 49 53  0  0  1  0  0  0  0  0999 V2000
  192.0090  176.1550  145.7770 C   0  0  1  0  0  3  0  0  0  0  0  0
  191.1780  175.2190  146.4180 O   0  0  0  0  0  0  0  0  0  0  0  0
  190.9180  176.5790  146.6770 C   0  0  2  0  0  3  0  0  0  0  0  0
  193.2760  176.2480  146.4820 N   0  0  0  0  0  2  0  0  0  0  0  0
  194.5080  175.9620  145.8210 C   0  0  0  0  0  0  0  0  0  0  0  0
  195.2010  174.9000  146.2180 C   0  0  0  0  0  2  0  0  0  0  0  0
  194.9320  176.7880  144.7630 O   0  0  0  0  0  0  0  0  0  0  0  0
  196.8200  176.3470  143.0740 C   0  0  0  0  0  2  0  0  0  0  0  0
  196.8590  175.8730  141.3090 S   0  0  0  0  0  0  0  0  0  0  0  0
  195.1030  175.6350  141.3370 N   0  0  0  0  0  0  0  0  0  0  0  0
  195.3820  176.3800  143.4990 C   0  0  0  0  0  0  0  0  0  0  0  0
  194.5140  176.0060  142.5750 C   0  0  0  0  0  3  0  0  0  0  0  0
  192.4470  173.8520  139.3870 C   0  0  0  0  0  0  0  0  0  0  0  0
  194.7610  175.3610  138.9090 C   0  0  0  0  0  3  0  0  0  0  0  0
  194.3590  175.1040  140.2320 C   0  0  0  0  0  0  0  0  0  0  0  0
  192.8560  174.1230  138.0760 C   0  0  0  0  0  3  0  0  0  0  0  0
  194.0130  174.8700  137.8270 C   0  0  0  0  0  0  0  0  0  0  0  0
  193.2000  174.3460  140.4600 C   0  0  0  0  0  3  0  0  0  0  0  0
  190.1080  170.8250  139.5130 C   0  0  0  0  0  2  0  0  0  0  0  0
  188.8770  172.5980  138.8550 C   0  0  0  0  0  2  0  0  0  0  0  0
  189.2500  171.2870  138.4980 O   0  0  0  0  0  0  0  0  0  0  0  0
  191.1960  173.0660  139.6170 C   0  0  0  0  0  3  0  0  0  0  0  0
  191.4430  171.5660  139.4500 C   0  0  0  0  0  2  0  0  0  0  0  0
  190.0700  173.5390  138.7010 C   0  0  0  0  0  2  0  0  0  0  0  0
  194.3910  175.1160  136.5000 O   0  0  0  0  0  0  0  0  0  0  0  0
  195.6230  175.7300  136.1480 C   0  0  0  0  0  1  0  0  0  0  0  0
  189.7410  177.0390  145.8440 C   0  0  0  0  0  2  0  0  0  0  0  0
  188.5420  178.2040  147.4940 O   0  0  0  0  0  0  0  0  0  0  0  0
  188.5470  177.2600  146.7210 C   0  0  0  0  0  0  0  0  0  0  0  0
  187.3570  176.3430  146.6430 C   0  0  0  0  0  2  0  0  0  0  0  0
  185.4920  177.8470  147.4730 C   0  0  0  0  0  1  0  0  0  0  0  0
  186.0350  177.0450  146.3020 C   0  0  1  0  0  3  0  0  0  0  0  0
  186.0400  177.8610  145.0000 C   0  0  2  0  0  3  0  0  0  0  0  0
  185.7130  180.1040  144.3290 O   0  0  0  0  0  0  0  0  0  0  0  0
  185.6570  179.2890  145.2400 C   0  0  0  0  0  3  0  0  0  0  0  0
  185.2060  177.2900  144.0340 O   0  0  0  0  0  0  0  0  0  0  0  0
  186.0180  176.3720  143.3520 C   0  0  0  0  0  2  0  0  0  0  0  0
  185.6160  177.8620  141.4490 C   0  0  0  0  0  2  0  0  0  0  0  0
  186.3590  176.9050  141.9930 C   0  0  0  0  0  0  0  0  0  0  0  0
  187.4020  176.2220  141.1690 C   0  0  0  0  0  2  0  0  0  0  0  0
  188.6800  176.0750  141.9350 C   0  0  0  0  0  0  0  0  0  0  0  0
  189.9380  178.1880  142.5940 O   0  0  0  0  0  0  0  0  0  0  0  0
  189.3290  177.1600  142.2740 C   0  0  0  0  0  0  0  0  0  0  0  0
  190.8870  173.3240  143.3340 C   0  0  0  0  0  3  0  0  0  0  0  0
  188.7960  172.3410  142.6080 C   0  0  0  0  0  3  0  0  0  0  0  0
  190.4270  174.5850  142.9390 C   0  0  0  0  0  3  0  0  0  0  0  0
  188.3350  173.5990  142.2160 C   0  0  0  0  0  3  0  0  0  0  0  0
  189.1480  174.7370  142.3740 C   0  0  0  0  0  0  0  0  0  0  0  0
  190.0720  172.2030  143.1640 C   0  0  0  0  0  3  0  0  0  0  0  0
  1  2  1  0  0  0  0
  1  4  1  1  0  0  0
  1  3  1  0  0  0  0
  2  3  1  0  0  0  0
  3 27  1  6  0  0  0
  5  6  2  0  0  0  0
  5  4  1  0  0  0  0
  7  5  1  0  0  0  0
  8 11  1  0  0  0  0
  9 10  1  0  0  0  0
  9  8  1  0  0  0  0
 10 12  1  0  0  0  0
 11  7  1  0  0  0  0
 12 11  2  0  0  0  0
 13 22  1  0  0  0  0
 13 18  1  0  0  0  0
 14 15  1  0  0  0  0
 15 18  2  0  0  0  0
 15 10  1  0  0  0  0
 16 13  2  0  0  0  0
 17 16  1  0  0  0  0
 17 14  2  0  0  0  0
 21 20  1  0  0  0  0
 21 19  1  0  0  0  0
 23 19  1  0  0  0  0
 23 22  1  0  0  0  0
 24 20  1  0  0  0  0
 24 22  1  0  0  0  0
 25 17  1  0  0  0  0
 26 25  1  0  0  0  0
 27 29  1  0  0  0  0
 29 28  2  0  0  0  0
 30 29  1  0  0  0  0
 32 30  1  0  0  0  0
 32 31  1  1  0  0  0
 33 35  1  1  0  0  0
 33 32  1  0  0  0  0
 34 35  2  0  0  0  0
 36 33  1  0  0  0  0
 37 36  1  0  0  0  0
 38 39  2  0  0  0  0
 39 37  1  0  0  0  0
 40 41  1  0  0  0  0
 40 39  1  0  0  0  0
 41 43  2  0  0  0  0
 41 48  1  0  0  0  0
 43 42  2  0  0  0  0
 45 49  2  0  0  0  0
 46 44  2  0  0  0  0
 47 48  2  0  0  0  0
 47 45  1  0  0  0  0
 48 46  1  0  0  0  0
 49 44  1  0  0  0  0
M  END
>  <MODEL>
1

>  <REMARK>
 VINA RESULT:      -6.5      0.000      0.000
  Name = 
  19 active torsions:
  status: ('A' for Active; 'I' for Inactive)
    1  A    between atoms: O_1  and  C_6
    2  A    between atoms: O_1  and  C_10
    3  A    between atoms: C_2  and  N_25
    4  A    between atoms: C_2  and  O_36
    5  A    between atoms: C_4  and  C_44
    6  A    between atoms: C_6  and  C_20
    7  A    between atoms: C_6  and  C_47
    8  A    between atoms: C_7  and  C_28
    9  A    between atoms: C_7  and  C_48
   10  A    between atoms: C_10  and  C_39
   11  A    between atoms: C_14  and  N_25
   12  A    between atoms: O_15  and  C_30
   13  A    between atoms: N_16  and  C_18
   14  A    between atoms: C_19  and  O_36
   15  A    between atoms: C_20  and  C_26
   16  A    between atoms: C_26  and  C_29
   17  A    between atoms: C_29  and  C_40
   18  A    between atoms: C_32  and  C_40
   19  A    between atoms: C_39  and  C_48
                            x       y       z     vdW  Elec       q    Type
                         _______ _______ _______ _____ _____    ______ ____

>  <TORSDO>
F 19

$$$$
=
 OpenBabel11062418203D

 49 53  0  0  1  0  0  0  0  0999 V2000
  194.4220  175.5690  146.0510 C   0  0  1  0  0  3  0  0  0  0  0  0
  194.5960  176.9590  146.1800 O   0  0  0  0  0  0  0  0  0  0  0  0
  194.2590  176.4790  144.9000 C   0  0  2  0  0  3  0  0  0  0  0  0
  195.7190  174.9190  145.9690 N   0  0  0  0  0  2  0  0  0  0  0  0
  195.8260  173.5300  145.6620 C   0  0  0  0  0  0  0  0  0  0  0  0
  197.0350  173.0300  145.4290 C   0  0  0  0  0  2  0  0  0  0  0  0
  194.6640  172.7350  145.6420 O   0  0  0  0  0  0  0  0  0  0  0  0
  192.6500  171.5540  144.5630 C   0  0  0  0  0  2  0  0  0  0  0  0
  192.0110  171.4440  142.8540 S   0  0  0  0  0  0  0  0  0  0  0  0
  193.2050  172.6440  142.3320 N   0  0  0  0  0  0  0  0  0  0  0  0
  193.8410  172.4660  144.5390 C   0  0  0  0  0  0  0  0  0  0  0  0
  194.1050  173.0160  143.3660 C   0  0  0  0  0  3  0  0  0  0  0  0
  192.1690  173.5930  138.8590 C   0  0  0  0  0  0  0  0  0  0  0  0
  194.3540  173.9460  140.5790 C   0  0  0  0  0  3  0  0  0  0  0  0
  193.2440  173.1990  141.0090 C   0  0  0  0  0  0  0  0  0  0  0  0
  193.2790  174.3420  138.4480 C   0  0  0  0  0  3  0  0  0  0  0  0
  194.3770  174.5180  139.2970 C   0  0  0  0  0  0  0  0  0  0  0  0
  192.1560  173.0260  140.1390 C   0  0  0  0  0  3  0  0  0  0  0  0
  189.8410  174.3080  135.9070 C   0  0  0  0  0  2  0  0  0  0  0  0
  188.5480  173.6690  137.6420 C   0  0  0  0  0  2  0  0  0  0  0  0
  188.7470  174.6990  136.7020 O   0  0  0  0  0  0  0  0  0  0  0  0
  191.0050  173.4400  137.9320 C   0  0  0  0  0  3  0  0  0  0  0  0
  191.1300  174.3680  136.7240 C   0  0  0  0  0  2  0  0  0  0  0  0
  189.6850  173.6680  138.6630 C   0  0  0  0  0  2  0  0  0  0  0  0
  195.4700  175.2710  138.8470 O   0  0  0  0  0  0  0  0  0  0  0  0
  196.7820  175.1200  139.3720 C   0  0  0  0  0  1  0  0  0  0  0  0
  192.7820  176.6970  144.6470 C   0  0  0  0  0  2  0  0  0  0  0  0
  193.2460  176.6710  142.3450 O   0  0  0  0  0  0  0  0  0  0  0  0
  192.4520  176.3750  143.2230 C   0  0  0  0  0  0  0  0  0  0  0  0
  191.1660  175.6770  142.8710 C   0  0  0  0  0  2  0  0  0  0  0  0
  189.8450  177.8260  143.1230 C   0  0  0  0  0  1  0  0  0  0  0  0
  189.9060  176.3410  143.4420 C   0  0  1  0  0  3  0  0  0  0  0  0
  188.5820  175.6300  143.1190 C   0  0  2  0  0  3  0  0  0  0  0  0
  188.7530  173.2950  142.7950 O   0  0  0  0  0  0  0  0  0  0  0  0
  188.8000  174.4060  142.2840 C   0  0  0  0  0  3  0  0  0  0  0  0
  187.6770  176.4920  142.4920 O   0  0  0  0  0  0  0  0  0  0  0  0
  186.4390  176.2130  143.0870 C   0  0  0  0  0  2  0  0  0  0  0  0
  186.3280  178.5130  143.9250 C   0  0  0  0  0  2  0  0  0  0  0  0
  186.1520  177.2180  144.1620 C   0  0  0  0  0  0  0  0  0  0  0  0
  185.8670  176.7530  145.5540 C   0  0  0  0  0  2  0  0  0  0  0  0
  186.8120  177.3770  146.5330 C   0  0  0  0  0  0  0  0  0  0  0  0
  186.0210  179.4160  147.8370 O   0  0  0  0  0  0  0  0  0  0  0  0
  186.4080  178.4260  147.2040 C   0  0  0  0  0  0  0  0  0  0  0  0
  189.5050  174.7850  147.1810 C   0  0  0  0  0  3  0  0  0  0  0  0
  190.5210  176.9830  147.2360 C   0  0  0  0  0  3  0  0  0  0  0  0
  188.2640  175.3690  146.9080 C   0  0  0  0  0  3  0  0  0  0  0  0
  189.2830  177.5670  146.9610 C   0  0  0  0  0  3  0  0  0  0  0  0
  188.1380  176.7660  146.7970 C   0  0  0  0  0  0  0  0  0  0  0  0
  190.6320  175.5930  147.3490 C   0  0  0  0  0  3  0  0  0  0  0  0
  1  4  1  6  0  0  0
  1  2  1  0  0  0  0
  3 27  1  1  0  0  0
  3  1  1  0  0  0  0
  3  2  1  0  0  0  0
  5  4  1  0  0  0  0
  6  5  2  0  0  0  0
  7  5  1  0  0  0  0
  9  8  1  0  0  0  0
 10  9  1  0  0  0  0
 10 12  1  0  0  0  0
 11  8  1  0  0  0  0
 11  7  1  0  0  0  0
 12 11  2  0  0  0  0
 13 18  1  0  0  0  0
 14 15  1  0  0  0  0
 15 10  1  0  0  0  0
 16 13  2  0  0  0  0
 16 17  1  0  0  0  0
 17 14  2  0  0  0  0
 18 15  2  0  0  0  0
 19 21  1  0  0  0  0
 19 23  1  0  0  0  0
 20 24  1  0  0  0  0
 21 20  1  0  0  0  0
 22 24  1  0  0  0  0
 22 13  1  0  0  0  0
 23 22  1  0  0  0  0
 25 17  1  0  0  0  0
 25 26  1  0  0  0  0
 28 29  2  0  0  0  0
 29 27  1  0  0  0  0
 30 29  1  0  0  0  0
 30 32  1  0  0  0  0
 32 31  1  6  0  0  0
 33 35  1  6  0  0  0
 33 32  1  0  0  0  0
 35 34  2  0  0  0  0
 36 37  1  0  0  0  0
 36 33  1  0  0  0  0
 37 39  1  0  0  0  0
 38 39  2  0  0  0  0
 39 40  1  0  0  0  0
 40 41  1  0  0  0  0
 41 48  1  0  0  0  0
 41 43  2  0  0  0  0
 43 42  2  0  0  0  0
 44 49  1  0  0  0  0
 45 49  2  0  0  0  0
 46 44  2  0  0  0  0
 47 45  1  0  0  0  0
 48 46  1  0  0  0  0
 48 47  2  0  0  0  0
M  END
>  <MODEL>
2

>  <REMARK>
 VINA RESULT:      -6.4      2.277      4.348
  Name = 
  19 active torsions:
  status: ('A' for Active; 'I' for Inactive)
    1  A    between atoms: O_1  and  C_6
    2  A    between atoms: O_1  and  C_10
    3  A    between atoms: C_2  and  N_25
    4  A    between atoms: C_2  and  O_36
    5  A    between atoms: C_4  and  C_44
    6  A    between atoms: C_6  and  C_20
    7  A    between atoms: C_6  and  C_47
    8  A    between atoms: C_7  and  C_28
    9  A    between atoms: C_7  and  C_48
   10  A    between atoms: C_10  and  C_39
   11  A    between atoms: C_14  and  N_25
   12  A    between atoms: O_15  and  C_30
   13  A    between atoms: N_16  and  C_18
   14  A    between atoms: C_19  and  O_36
   15  A    between atoms: C_20  and  C_26
   16  A    between atoms: C_26  and  C_29
   17  A    between atoms: C_29  and  C_40
   18  A    between atoms: C_32  and  C_40
   19  A    between atoms: C_39  and  C_48
                            x       y       z     vdW  Elec       q    Type
                         _______ _______ _______ _____ _____    ______ ____

>  <TORSDO>
F 19

$$$$
=
 OpenBabel11062418203D

 49 53  0  0  1  0  0  0  0  0999 V2000
  186.8350  176.7740  146.9370 C   0  0  1  0  0  3  0  0  0  0  0  0
  186.1580  177.5870  147.8640 O   0  0  0  0  0  0  0  0  0  0  0  0
  186.1810  178.0330  146.5280 C   0  0  2  0  0  3  0  0  0  0  0  0
  188.2670  176.9910  147.0500 N   0  0  0  0  0  2  0  0  0  0  0  0
  189.1960  175.9770  146.6690 C   0  0  0  0  0  0  0  0  0  0  0  0
  189.0780  174.7770  147.2260 C   0  0  0  0  0  2  0  0  0  0  0  0
  190.1810  176.2700  145.7060 O   0  0  0  0  0  0  0  0  0  0  0  0
  192.3430  176.7140  147.0270 C   0  0  0  0  0  2  0  0  0  0  0  0
  194.1180  176.4400  146.6850 S   0  0  0  0  0  0  0  0  0  0  0  0
  193.6950  175.5610  145.2050 N   0  0  0  0  0  0  0  0  0  0  0  0
  191.5720  176.1690  145.8610 C   0  0  0  0  0  0  0  0  0  0  0  0
  192.3010  175.5770  144.9320 C   0  0  0  0  0  3  0  0  0  0  0  0
  195.9390  172.8840  143.8550 C   0  0  0  0  0  0  0  0  0  0  0  0
  195.2170  175.5270  143.2640 C   0  0  0  0  0  3  0  0  0  0  0  0
  194.6570  174.8860  144.3840 C   0  0  0  0  0  0  0  0  0  0  0  0
  196.4830  173.5330  142.7390 C   0  0  0  0  0  3  0  0  0  0  0  0
  196.1330  174.8540  142.4400 C   0  0  0  0  0  0  0  0  0  0  0  0
  195.0270  173.5630  144.6720 C   0  0  0  0  0  3  0  0  0  0  0  0
  195.5110  169.1630  144.6430 C   0  0  0  0  0  2  0  0  0  0  0  0
  197.3420  169.8780  145.7530 C   0  0  0  0  0  2  0  0  0  0  0  0
  196.0980  169.2370  145.9200 O   0  0  0  0  0  0  0  0  0  0  0  0
  196.3210  171.4640  144.1350 C   0  0  0  0  0  3  0  0  0  0  0  0
  195.0920  170.5560  144.1780 C   0  0  0  0  0  2  0  0  0  0  0  0
  197.1270  171.3550  145.4270 C   0  0  0  0  0  2  0  0  0  0  0  0
  196.7020  175.4690  141.3170 O   0  0  0  0  0  0  0  0  0  0  0  0
  196.0770  175.4770  140.0400 C   0  0  0  0  0  1  0  0  0  0  0  0
  184.8600  177.7110  145.8610 C   0  0  0  0  0  2  0  0  0  0  0  0
  184.3610  178.9080  143.9030 O   0  0  0  0  0  0  0  0  0  0  0  0
  184.9560  177.9590  144.3880 C   0  0  0  0  0  0  0  0  0  0  0  0
  185.7890  177.0650  143.5100 C   0  0  0  0  0  2  0  0  0  0  0  0
  188.1690  177.9390  143.4880 C   0  0  0  0  0  1  0  0  0  0  0  0
  186.8730  177.7950  142.7060 C   0  0  1  0  0  3  0  0  0  0  0  0
  187.1160  177.2570  141.2870 C   0  0  2  0  0  3  0  0  0  0  0  0
  185.0650  177.7510  140.2210 O   0  0  0  0  0  0  0  0  0  0  0  0
  186.2690  177.9640  140.2740 C   0  0  0  0  0  3  0  0  0  0  0  0
  186.9060  175.8770  141.2200 O   0  0  0  0  0  0  0  0  0  0  0  0
  188.1700  175.3300  140.9570 C   0  0  0  0  0  2  0  0  0  0  0  0
  187.8340  173.0010  141.6430 C   0  0  0  0  0  2  0  0  0  0  0  0
  188.4230  174.1700  141.8720 C   0  0  0  0  0  0  0  0  0  0  0  0
  189.1710  174.3820  143.1490 C   0  0  0  0  0  2  0  0  0  0  0  0
  190.0600  173.2170  143.4510 C   0  0  0  0  0  0  0  0  0  0  0  0
  189.4420  171.7070  145.4060 O   0  0  0  0  0  0  0  0  0  0  0  0
  189.7450  172.4400  144.4570 C   0  0  0  0  0  0  0  0  0  0  0  0
  192.7870  171.2770  141.6640 C   0  0  0  0  0  3  0  0  0  0  0  0
  192.9830  173.6140  141.0630 C   0  0  0  0  0  3  0  0  0  0  0  0
  191.6820  171.5790  142.4670 C   0  0  0  0  0  3  0  0  0  0  0  0
  191.8790  173.9170  141.8620 C   0  0  0  0  0  3  0  0  0  0  0  0
  191.2170  172.9030  142.5780 C   0  0  0  0  0  0  0  0  0  0  0  0
  193.4390  172.2950  140.9660 C   0  0  0  0  0  3  0  0  0  0  0  0
  1  4  1  1  0  0  0
  1  2  1  0  0  0  0
  3 27  1  6  0  0  0
  3  1  1  0  0  0  0
  3  2  1  0  0  0  0
  5  4  1  0  0  0  0
  5  6  2  0  0  0  0
  7 11  1  0  0  0  0
  7  5  1  0  0  0  0
  9  8  1  0  0  0  0
 10  9  1  0  0  0  0
 11  8  1  0  0  0  0
 12 10  1  0  0  0  0
 12 11  2  0  0  0  0
 13 22  1  0  0  0  0
 13 18  1  0  0  0  0
 14 15  1  0  0  0  0
 15 18  2  0  0  0  0
 15 10  1  0  0  0  0
 16 13  2  0  0  0  0
 17 16  1  0  0  0  0
 17 14  2  0  0  0  0
 19 21  1  0  0  0  0
 20 21  1  0  0  0  0
 22 23  1  0  0  0  0
 22 24  1  0  0  0  0
 23 19  1  0  0  0  0
 24 20  1  0  0  0  0
 25 17  1  0  0  0  0
 26 25  1  0  0  0  0
 28 29  2  0  0  0  0
 29 27  1  0  0  0  0
 30 29  1  0  0  0  0
 32 31  1  1  0  0  0
 32 30  1  0  0  0  0
 33 35  1  6  0  0  0
 33 32  1  0  0  0  0
 34 35  2  0  0  0  0
 36 33  1  0  0  0  0
 37 36  1  0  0  0  0
 37 39  1  0  0  0  0
 38 39  2  0  0  0  0
 39 40  1  0  0  0  0
 40 41  1  0  0  0  0
 41 43  2  0  0  0  0
 43 42  2  0  0  0  0
 44 46  1  0  0  0  0
 45 47  2  0  0  0  0
 46 48  2  0  0  0  0
 47 48  1  0  0  0  0
 48 41  1  0  0  0  0
 49 45  1  0  0  0  0
 49 44  2  0  0  0  0
M  END
>  <MODEL>
3

>  <REMARK>
 VINA RESULT:      -6.2      2.872      5.402
  Name = 
  19 active torsions:
  status: ('A' for Active; 'I' for Inactive)
    1  A    between atoms: O_1  and  C_6
    2  A    between atoms: O_1  and  C_10
    3  A    between atoms: C_2  and  N_25
    4  A    between atoms: C_2  and  O_36
    5  A    between atoms: C_4  and  C_44
    6  A    between atoms: C_6  and  C_20
    7  A    between atoms: C_6  and  C_47
    8  A    between atoms: C_7  and  C_28
    9  A    between atoms: C_7  and  C_48
   10  A    between atoms: C_10  and  C_39
   11  A    between atoms: C_14  and  N_25
   12  A    between atoms: O_15  and  C_30
   13  A    between atoms: N_16  and  C_18
   14  A    between atoms: C_19  and  O_36
   15  A    between atoms: C_20  and  C_26
   16  A    between atoms: C_26  and  C_29
   17  A    between atoms: C_29  and  C_40
   18  A    between atoms: C_32  and  C_40
   19  A    between atoms: C_39  and  C_48
                            x       y       z     vdW  Elec       q    Type
                         _______ _______ _______ _____ _____    ______ ____

>  <TORSDO>
F 19

$$$$
=
 OpenBabel11062418203D

 49 53  0  0  1  0  0  0  0  0999 V2000
  188.5920  172.3780  139.5890 C   0  0  1  0  0  3  0  0  0  0  0  0
  189.8870  172.4080  140.1360 O   0  0  0  0  0  0  0  0  0  0  0  0
  188.9480  173.3050  140.6820 C   0  0  2  0  0  3  0  0  0  0  0  0
  188.5760  173.1040  138.3310 N   0  0  0  0  0  2  0  0  0  0  0  0
  189.5630  172.8620  137.3300 C   0  0  0  0  0  0  0  0  0  0  0  0
  189.6400  171.6430  136.8070 C   0  0  0  0  0  2  0  0  0  0  0  0
  190.3970  173.9170  136.9120 O   0  0  0  0  0  0  0  0  0  0  0  0
  192.8350  174.3210  136.2000 C   0  0  0  0  0  2  0  0  0  0  0  0
  194.4290  174.3520  137.0940 S   0  0  0  0  0  0  0  0  0  0  0  0
  193.5650  174.2170  138.6350 N   0  0  0  0  0  0  0  0  0  0  0  0
  191.7550  174.0920  137.2160 C   0  0  0  0  0  0  0  0  0  0  0  0
  192.1660  174.0430  138.4710 C   0  0  0  0  0  3  0  0  0  0  0  0
  194.8390  173.2600  142.0260 C   0  0  0  0  0  0  0  0  0  0  0  0
  194.9060  175.4610  140.2920 C   0  0  0  0  0  3  0  0  0  0  0  0
  194.2110  174.2990  139.9140 C   0  0  0  0  0  0  0  0  0  0  0  0
  195.5330  174.4220  142.3850 C   0  0  0  0  0  3  0  0  0  0  0  0
  195.5670  175.5280  141.5280 C   0  0  0  0  0  0  0  0  0  0  0  0
  194.1820  173.2030  140.7900 C   0  0  0  0  0  3  0  0  0  0  0  0
  194.2360  171.2460  145.2240 C   0  0  0  0  0  2  0  0  0  0  0  0
  196.2070  170.5640  144.3630 C   0  0  0  0  0  2  0  0  0  0  0  0
  195.6000  171.0780  145.5260 O   0  0  0  0  0  0  0  0  0  0  0  0
  194.8380  172.0890  142.9580 C   0  0  0  0  0  3  0  0  0  0  0  0
  194.0550  172.3960  144.2340 C   0  0  0  0  0  2  0  0  0  0  0  0
  196.2610  171.6430  143.2830 C   0  0  0  0  0  2  0  0  0  0  0  0
  196.2690  176.6730  141.9260 O   0  0  0  0  0  0  0  0  0  0  0  0
  196.8200  176.8310  143.2270 C   0  0  0  0  0  1  0  0  0  0  0  0
  188.4190  172.7540  141.9900 C   0  0  0  0  0  2  0  0  0  0  0  0
  190.1230  171.8820  143.3510 O   0  0  0  0  0  0  0  0  0  0  0  0
  189.4670  172.8670  143.0540 C   0  0  0  0  0  0  0  0  0  0  0  0
  189.7250  174.1800  143.7420 C   0  0  0  0  0  2  0  0  0  0  0  0
  191.5170  175.1700  142.2460 C   0  0  0  0  0  1  0  0  0  0  0  0
  191.1740  174.6750  143.6420 C   0  0  1  0  0  3  0  0  0  0  0  0
  191.6060  175.6730  144.7280 C   0  0  2  0  0  3  0  0  0  0  0  0
  193.5530  177.0070  144.8550 O   0  0  0  0  0  0  0  0  0  0  0  0
  193.0890  175.8820  144.7290 C   0  0  0  0  0  3  0  0  0  0  0  0
  191.1700  175.2720  145.9940 O   0  0  0  0  0  0  0  0  0  0  0  0
  190.6550  176.4350  146.5850 C   0  0  0  0  0  2  0  0  0  0  0  0
  188.7530  175.0140  147.1940 C   0  0  0  0  0  2  0  0  0  0  0  0
  189.2100  176.2340  146.9300 C   0  0  0  0  0  0  0  0  0  0  0  0
  188.2470  177.3660  146.7770 C   0  0  0  0  0  2  0  0  0  0  0  0
  187.1940  177.0430  145.7630 C   0  0  0  0  0  0  0  0  0  0  0  0
  184.8160  176.6470  146.5830 O   0  0  0  0  0  0  0  0  0  0  0  0
  185.9700  176.8380  146.1830 C   0  0  0  0  0  0  0  0  0  0  0  0
  187.0470  176.2610  142.0540 C   0  0  0  0  0  3  0  0  0  0  0  0
  188.9120  177.7540  142.4540 C   0  0  0  0  0  3  0  0  0  0  0  0
  186.7390  176.2850  143.4180 C   0  0  0  0  0  3  0  0  0  0  0  0
  188.6030  177.7810  143.8150 C   0  0  0  0  0  3  0  0  0  0  0  0
  187.5140  177.0440  144.3150 C   0  0  0  0  0  0  0  0  0  0  0  0
  188.1360  176.9920  141.5740 C   0  0  0  0  0  3  0  0  0  0  0  0
  1  4  1  6  0  0  0
  1  2  1  0  0  0  0
  1  3  1  0  0  0  0
  2  3  1  0  0  0  0
  3 27  1  1  0  0  0
  5  4  1  0  0  0  0
  6  5  2  0  0  0  0
  7 11  1  0  0  0  0
  7  5  1  0  0  0  0
  8  9  1  0  0  0  0
  8 11  1  0  0  0  0
  9 10  1  0  0  0  0
 10 15  1  0  0  0  0
 11 12  2  0  0  0  0
 12 10  1  0  0  0  0
 13 16  1  0  0  0  0
 13 22  1  0  0  0  0
 14 17  1  0  0  0  0
 15 14  2  0  0  0  0
 15 18  1  0  0  0  0
 17 25  1  0  0  0  0
 17 16  2  0  0  0  0
 18 13  2  0  0  0  0
 19 21  1  0  0  0  0
 20 21  1  0  0  0  0
 22 24  1  0  0  0  0
 22 23  1  0  0  0  0
 23 19  1  0  0  0  0
 24 20  1  0  0  0  0
 25 26  1  0  0  0  0
 27 29  1  0  0  0  0
 29 28  2  0  0  0  0
 29 30  1  0  0  0  0
 32 31  1  6  0  0  0
 32 30  1  0  0  0  0
 32 33  1  0  0  0  0
 33 35  1  1  0  0  0
 33 36  1  0  0  0  0
 35 34  2  0  0  0  0
 36 37  1  0  0  0  0
 37 39  1  0  0  0  0
 39 38  2  0  0  0  0
 40 39  1  0  0  0  0
 41 43  2  0  0  0  0
 41 40  1  0  0  0  0
 43 42  2  0  0  0  0
 44 46  1  0  0  0  0
 45 47  2  0  0  0  0
 46 48  2  0  0  0  0
 47 48  1  0  0  0  0
 48 41  1  0  0  0  0
 49 44  2  0  0  0  0
 49 45  1  0  0  0  0
M  END
>  <MODEL>
4

>  <REMARK>
 VINA RESULT:      -6.2      2.596      6.575
  Name = 
  19 active torsions:
  status: ('A' for Active; 'I' for Inactive)
    1  A    between atoms: O_1  and  C_6
    2  A    between atoms: O_1  and  C_10
    3  A    between atoms: C_2  and  N_25
    4  A    between atoms: C_2  and  O_36
    5  A    between atoms: C_4  and  C_44
    6  A    between atoms: C_6  and  C_20
    7  A    between atoms: C_6  and  C_47
    8  A    between atoms: C_7  and  C_28
    9  A    between atoms: C_7  and  C_48
   10  A    between atoms: C_10  and  C_39
   11  A    between atoms: C_14  and  N_25
   12  A    between atoms: O_15  and  C_30
   13  A    between atoms: N_16  and  C_18
   14  A    between atoms: C_19  and  O_36
   15  A    between atoms: C_20  and  C_26
   16  A    between atoms: C_26  and  C_29
   17  A    between atoms: C_29  and  C_40
   18  A    between atoms: C_32  and  C_40
   19  A    between atoms: C_39  and  C_48
                            x       y       z     vdW  Elec       q    Type
                         _______ _______ _______ _____ _____    ______ ____

>  <TORSDO>
F 19

$$$$
=
 OpenBabel11062418203D

 49 53  0  0  1  0  0  0  0  0999 V2000
  186.9130  176.6810  146.7940 C   0  0  1  0  0  3  0  0  0  0  0  0
  186.3420  177.3800  147.8720 O   0  0  0  0  0  0  0  0  0  0  0  0
  186.2940  178.0090  146.6140 C   0  0  2  0  0  3  0  0  0  0  0  0
  188.3580  176.8250  146.8270 N   0  0  0  0  0  2  0  0  0  0  0  0
  189.2140  175.7080  146.5940 C   0  0  0  0  0  0  0  0  0  0  0  0
  189.0290  174.6130  147.3230 C   0  0  0  0  0  2  0  0  0  0  0  0
  190.1990  175.7890  145.5900 O   0  0  0  0  0  0  0  0  0  0  0  0
  192.2900  176.8020  146.6940 C   0  0  0  0  0  2  0  0  0  0  0  0
  194.0870  176.5630  146.4630 S   0  0  0  0  0  0  0  0  0  0  0  0
  193.7640  175.2180  145.3560 N   0  0  0  0  0  0  0  0  0  0  0  0
  191.5880  175.8490  145.7720 C   0  0  0  0  0  0  0  0  0  0  0  0
  192.3810  175.0400  145.0900 C   0  0  0  0  0  3  0  0  0  0  0  0
  196.2550  173.7910  142.9480 C   0  0  0  0  0  0  0  0  0  0  0  0
  195.3980  173.3830  145.5850 C   0  0  0  0  0  3  0  0  0  0  0  0
  194.7920  174.3830  144.8040 C   0  0  0  0  0  0  0  0  0  0  0  0
  196.8530  172.8050  143.7410 C   0  0  0  0  0  3  0  0  0  0  0  0
  196.4280  172.5900  145.0570 C   0  0  0  0  0  0  0  0  0  0  0  0
  195.2270  174.5780  143.4840 C   0  0  0  0  0  3  0  0  0  0  0  0
  197.5380  175.6640  139.8670 C   0  0  0  0  0  2  0  0  0  0  0  0
  196.1680  174.0270  139.1350 C   0  0  0  0  0  2  0  0  0  0  0  0
  196.3940  175.4170  139.0840 O   0  0  0  0  0  0  0  0  0  0  0  0
  196.7460  174.0070  141.5520 C   0  0  0  0  0  3  0  0  0  0  0  0
  197.2190  175.4460  141.3450 C   0  0  0  0  0  2  0  0  0  0  0  0
  195.6800  173.6290  140.5270 C   0  0  0  0  0  2  0  0  0  0  0  0
  197.0500  171.5900  145.8170 O   0  0  0  0  0  0  0  0  0  0  0  0
  196.5420  170.2660  145.9170 C   0  0  0  0  0  1  0  0  0  0  0  0
  184.9170  177.8360  146.0100 C   0  0  0  0  0  2  0  0  0  0  0  0
  183.7570  178.9320  144.2860 O   0  0  0  0  0  0  0  0  0  0  0  0
  184.8400  178.5470  144.6940 C   0  0  0  0  0  0  0  0  0  0  0  0
  186.0840  178.8040  143.8870 C   0  0  0  0  0  2  0  0  0  0  0  0
  186.2960  178.1020  141.4600 C   0  0  0  0  0  1  0  0  0  0  0  0
  186.4520  177.6780  142.9110 C   0  0  1  0  0  3  0  0  0  0  0  0
  187.8070  177.0000  143.1690 C   0  0  2  0  0  3  0  0  0  0  0  0
  189.8480  178.1590  142.8900 O   0  0  0  0  0  0  0  0  0  0  0  0
  188.8990  177.6120  142.3460 C   0  0  0  0  0  3  0  0  0  0  0  0
  187.7410  175.6220  142.9420 O   0  0  0  0  0  0  0  0  0  0  0  0
  188.6410  175.3840  141.8940 C   0  0  0  0  0  2  0  0  0  0  0  0
  189.2710  173.4310  143.2330 C   0  0  0  0  0  2  0  0  0  0  0  0
  189.5980  174.2970  142.2810 C   0  0  0  0  0  0  0  0  0  0  0  0
  190.9940  174.3130  141.7440 C   0  0  0  0  0  2  0  0  0  0  0  0
  191.2910  173.0580  140.9840 C   0  0  0  0  0  0  0  0  0  0  0  0
  190.0910  172.6800  138.7700 O   0  0  0  0  0  0  0  0  0  0  0  0
  190.6740  172.8610  139.8460 C   0  0  0  0  0  0  0  0  0  0  0  0
  193.9530  170.3550  141.0060 C   0  0  0  0  0  3  0  0  0  0  0  0
  193.5930  171.1020  143.2810 C   0  0  0  0  0  3  0  0  0  0  0  0
  192.9940  171.2690  140.5570 C   0  0  0  0  0  3  0  0  0  0  0  0
  192.6380  172.0170  142.8350 C   0  0  0  0  0  3  0  0  0  0  0  0
  192.3240  172.1090  141.4660 C   0  0  0  0  0  0  0  0  0  0  0  0
  194.2480  170.2690  142.3680 C   0  0  0  0  0  3  0  0  0  0  0  0
  1  4  1  1  0  0  0
  1  2  1  0  0  0  0
  3 27  1  6  0  0  0
  3  1  1  0  0  0  0
  3  2  1  0  0  0  0
  5  4  1  0  0  0  0
  5  6  2  0  0  0  0
  7 11  1  0  0  0  0
  7  5  1  0  0  0  0
  9  8  1  0  0  0  0
 10  9  1  0  0  0  0
 11  8  1  0  0  0  0
 12 10  1  0  0  0  0
 12 11  2  0  0  0  0
 13 18  2  0  0  0  0
 13 16  1  0  0  0  0
 15 10  1  0  0  0  0
 15 14  2  0  0  0  0
 16 17  2  0  0  0  0
 17 14  1  0  0  0  0
 17 25  1  0  0  0  0
 18 15  1  0  0  0  0
 19 23  1  0  0  0  0
 20 24  1  0  0  0  0
 21 20  1  0  0  0  0
 21 19  1  0  0  0  0
 22 13  1  0  0  0  0
 23 22  1  0  0  0  0
 24 22  1  0  0  0  0
 25 26  1  0  0  0  0
 28 29  2  0  0  0  0
 29 27  1  0  0  0  0
 30 29  1  0  0  0  0
 32 31  1  6  0  0  0
 32 33  1  0  0  0  0
 32 30  1  0  0  0  0
 33 35  1  6  0  0  0
 35 34  2  0  0  0  0
 36 33  1  0  0  0  0
 37 39  1  0  0  0  0
 37 36  1  0  0  0  0
 39 38  2  0  0  0  0
 40 39  1  0  0  0  0
 41 48  1  0  0  0  0
 41 40  1  0  0  0  0
 42 43  2  0  0  0  0
 43 41  2  0  0  0  0
 44 49  1  0  0  0  0
 46 44  2  0  0  0  0
 46 48  1  0  0  0  0
 47 45  1  0  0  0  0
 48 47  2  0  0  0  0
 49 45  2  0  0  0  0
M  END
>  <MODEL>
5

>  <REMARK>
 VINA RESULT:      -6.1      2.496      5.718
  Name = 
  19 active torsions:
  status: ('A' for Active; 'I' for Inactive)
    1  A    between atoms: O_1  and  C_6
    2  A    between atoms: O_1  and  C_10
    3  A    between atoms: C_2  and  N_25
    4  A    between atoms: C_2  and  O_36
    5  A    between atoms: C_4  and  C_44
    6  A    between atoms: C_6  and  C_20
    7  A    between atoms: C_6  and  C_47
    8  A    between atoms: C_7  and  C_28
    9  A    between atoms: C_7  and  C_48
   10  A    between atoms: C_10  and  C_39
   11  A    between atoms: C_14  and  N_25
   12  A    between atoms: O_15  and  C_30
   13  A    between atoms: N_16  and  C_18
   14  A    between atoms: C_19  and  O_36
   15  A    between atoms: C_20  and  C_26
   16  A    between atoms: C_26  and  C_29
   17  A    between atoms: C_29  and  C_40
   18  A    between atoms: C_32  and  C_40
   19  A    between atoms: C_39  and  C_48
                            x       y       z     vdW  Elec       q    Type
                         _______ _______ _______ _____ _____    ______ ____

>  <TORSDO>
F 19

$$$$
=
 OpenBabel11062418203D

 49 53  0  0  1  0  0  0  0  0999 V2000
  186.7380  177.5030  139.3560 C   0  0  1  0  0  3  0  0  0  0  0  0
  185.7200  177.9740  140.2040 O   0  0  0  0  0  0  0  0  0  0  0  0
  186.5940  177.0090  140.7400 C   0  0  2  0  0  3  0  0  0  0  0  0
  186.1930  176.5190  138.4370 N   0  0  0  0  0  2  0  0  0  0  0  0
  187.0340  175.8330  137.5100 C   0  0  0  0  0  0  0  0  0  0  0  0
  187.3360  176.4410  136.3680 C   0  0  0  0  0  2  0  0  0  0  0  0
  187.5340  174.5590  137.8440 O   0  0  0  0  0  0  0  0  0  0  0  0
  189.8290  174.1610  136.7550 C   0  0  0  0  0  2  0  0  0  0  0  0
  191.4080  173.4530  137.3440 S   0  0  0  0  0  0  0  0  0  0  0  0
  190.7570  173.3800  138.9910 N   0  0  0  0  0  0  0  0  0  0  0  0
  188.8800  174.1710  137.9160 C   0  0  0  0  0  0  0  0  0  0  0  0
  189.3910  173.7600  139.0630 C   0  0  0  0  0  3  0  0  0  0  0  0
  193.3850  173.4270  141.6600 C   0  0  0  0  0  0  0  0  0  0  0  0
  191.1870  171.8670  140.8920 C   0  0  0  0  0  3  0  0  0  0  0  0
  191.5360  172.9980  140.1340 C   0  0  0  0  0  0  0  0  0  0  0  0
  193.0210  172.3020  142.4100 C   0  0  0  0  0  3  0  0  0  0  0  0
  191.9280  171.5130  142.0300 C   0  0  0  0  0  0  0  0  0  0  0  0
  192.6390  173.7720  140.5260 C   0  0  0  0  0  3  0  0  0  0  0  0
  195.7120  176.4550  141.9260 C   0  0  0  0  0  2  0  0  0  0  0  0
  197.0050  174.6070  141.9900 C   0  0  0  0  0  2  0  0  0  0  0  0
  196.8090  175.8240  141.3090 O   0  0  0  0  0  0  0  0  0  0  0  0
  194.5470  174.2590  142.1040 C   0  0  0  0  0  3  0  0  0  0  0  0
  194.4240  175.6980  141.6040 C   0  0  0  0  0  2  0  0  0  0  0  0
  195.8700  173.6380  141.6630 C   0  0  0  0  0  2  0  0  0  0  0  0
  191.5980  170.3930  142.8050 O   0  0  0  0  0  0  0  0  0  0  0  0
  191.5850  169.0700  142.2850 C   0  0  0  0  0  1  0  0  0  0  0  0
  187.6250  177.6870  141.6180 C   0  0  0  0  0  2  0  0  0  0  0  0
  186.6250  178.9330  143.3390 O   0  0  0  0  0  0  0  0  0  0  0  0
  187.0870  177.8540  143.0050 C   0  0  0  0  0  0  0  0  0  0  0  0
  187.0940  176.7050  143.9760 C   0  0  0  0  0  2  0  0  0  0  0  0
  188.4840  176.0960  146.0080 C   0  0  0  0  0  1  0  0  0  0  0  0
  188.4850  176.3290  144.5050 C   0  0  1  0  0  3  0  0  0  0  0  0
  189.1940  175.1950  143.7490 C   0  0  2  0  0  3  0  0  0  0  0  0
  189.6980  172.9600  144.3290 O   0  0  0  0  0  0  0  0  0  0  0  0
  189.6880  174.1320  144.6800 C   0  0  0  0  0  3  0  0  0  0  0  0
  190.2450  175.6810  142.9640 O   0  0  0  0  0  0  0  0  0  0  0  0
  191.3940  175.5060  143.7490 C   0  0  0  0  0  2  0  0  0  0  0  0
  191.5650  177.9330  143.4570 C   0  0  0  0  0  2  0  0  0  0  0  0
  191.9960  176.8390  144.0760 C   0  0  0  0  0  0  0  0  0  0  0  0
  193.2120  176.9110  144.9410 C   0  0  0  0  0  2  0  0  0  0  0  0
  193.2340  175.7870  145.9310 C   0  0  0  0  0  0  0  0  0  0  0  0
  191.4810  175.7770  147.7780 O   0  0  0  0  0  0  0  0  0  0  0  0
  192.3340  175.7810  146.8830 C   0  0  0  0  0  0  0  0  0  0  0  0
  194.6350  172.2740  145.6430 C   0  0  0  0  0  3  0  0  0  0  0  0
  196.4750  173.8470  145.5640 C   0  0  0  0  0  3  0  0  0  0  0  0
  193.7350  173.3380  145.7600 C   0  0  0  0  0  3  0  0  0  0  0  0
  195.5770  174.9100  145.6790 C   0  0  0  0  0  3  0  0  0  0  0  0
  194.1950  174.6680  145.7820 C   0  0  0  0  0  0  0  0  0  0  0  0
  196.0050  172.5300  145.5500 C   0  0  0  0  0  3  0  0  0  0  0  0
  1  4  1  6  0  0  0
  1  2  1  0  0  0  0
  1  3  1  0  0  0  0
  2  3  1  0  0  0  0
  3 27  1  1  0  0  0
  5  7  1  0  0  0  0
  5  4  1  0  0  0  0
  6  5  2  0  0  0  0
  7 11  1  0  0  0  0
  8  9  1  0  0  0  0
  8 11  1  0  0  0  0
  9 10  1  0  0  0  0
 10 12  1  0  0  0  0
 10 15  1  0  0  0  0
 11 12  2  0  0  0  0
 13 22  1  0  0  0  0
 13 16  1  0  0  0  0
 14 17  1  0  0  0  0
 15 18  1  0  0  0  0
 15 14  2  0  0  0  0
 17 16  2  0  0  0  0
 17 25  1  0  0  0  0
 18 13  2  0  0  0  0
 21 19  1  0  0  0  0
 21 20  1  0  0  0  0
 23 19  1  0  0  0  0
 23 22  1  0  0  0  0
 24 20  1  0  0  0  0
 24 22  1  0  0  0  0
 26 25  1  0  0  0  0
 27 29  1  0  0  0  0
 29 28  2  0  0  0  0
 29 30  1  0  0  0  0
 30 32  1  0  0  0  0
 32 31  1  1  0  0  0
 33 32  1  0  0  0  0
 33 35  1  1  0  0  0
 34 35  2  0  0  0  0
 36 33  1  0  0  0  0
 36 37  1  0  0  0  0
 37 39  1  0  0  0  0
 38 39  2  0  0  0  0
 39 40  1  0  0  0  0
 40 41  1  0  0  0  0
 41 43  2  0  0  0  0
 43 42  2  0  0  0  0
 44 46  1  0  0  0  0
 45 47  2  0  0  0  0
 46 48  2  0  0  0  0
 47 48  1  0  0  0  0
 48 41  1  0  0  0  0
 49 45  1  0  0  0  0
 49 44  2  0  0  0  0
M  END
>  <MODEL>
6

>  <REMARK>
 VINA RESULT:      -6.0      2.930      6.950
  Name = 
  19 active torsions:
  status: ('A' for Active; 'I' for Inactive)
    1  A    between atoms: O_1  and  C_6
    2  A    between atoms: O_1  and  C_10
    3  A    between atoms: C_2  and  N_25
    4  A    between atoms: C_2  and  O_36
    5  A    between atoms: C_4  and  C_44
    6  A    between atoms: C_6  and  C_20
    7  A    between atoms: C_6  and  C_47
    8  A    between atoms: C_7  and  C_28
    9  A    between atoms: C_7  and  C_48
   10  A    between atoms: C_10  and  C_39
   11  A    between atoms: C_14  and  N_25
   12  A    between atoms: O_15  and  C_30
   13  A    between atoms: N_16  and  C_18
   14  A    between atoms: C_19  and  O_36
   15  A    between atoms: C_20  and  C_26
   16  A    between atoms: C_26  and  C_29
   17  A    between atoms: C_29  and  C_40
   18  A    between atoms: C_32  and  C_40
   19  A    between atoms: C_39  and  C_48
                            x       y       z     vdW  Elec       q    Type
                         _______ _______ _______ _____ _____    ______ ____

>  <TORSDO>
F 19

$$$$
=
 OpenBabel11062418203D

 49 53  0  0  1  0  0  0  0  0999 V2000
  187.8360  174.0450  137.8880 C   0  0  1  0  0  3  0  0  0  0  0  0
  188.7450  173.3370  137.0820 O   0  0  0  0  0  0  0  0  0  0  0  0
  189.1370  173.5830  138.4120 C   0  0  2  0  0  3  0  0  0  0  0  0
  187.9170  175.4640  137.5860 N   0  0  0  0  0  2  0  0  0  0  0  0
  186.7760  176.3100  137.7250 C   0  0  0  0  0  0  0  0  0  0  0  0
  185.6910  176.0230  137.0150 C   0  0  0  0  0  2  0  0  0  0  0  0
  186.8270  177.3960  138.6210 O   0  0  0  0  0  0  0  0  0  0  0  0
  184.6650  177.9680  139.8890 C   0  0  0  0  0  2  0  0  0  0  0  0
  184.2390  178.1370  141.6590 S   0  0  0  0  0  0  0  0  0  0  0  0
  185.8450  177.5320  142.1010 N   0  0  0  0  0  0  0  0  0  0  0  0
  186.1020  177.5450  139.8120 C   0  0  0  0  0  0  0  0  0  0  0  0
  186.6880  177.3270  140.9760 C   0  0  0  0  0  3  0  0  0  0  0  0
  187.9510  176.5650  145.0440 C   0  0  0  0  0  0  0  0  0  0  0  0
  185.3510  177.4690  144.5170 C   0  0  0  0  0  3  0  0  0  0  0  0
  186.2430  177.2570  143.4510 C   0  0  0  0  0  0  0  0  0  0  0  0
  187.0540  176.7880  146.0950 C   0  0  0  0  0  3  0  0  0  0  0  0
  185.7520  177.2340  145.8420 C   0  0  0  0  0  0  0  0  0  0  0  0
  187.5420  176.8020  143.7260 C   0  0  0  0  0  3  0  0  0  0  0  0
  190.9050  175.2620  147.1000 C   0  0  0  0  0  2  0  0  0  0  0  0
  191.7230  176.7600  145.6240 C   0  0  0  0  0  2  0  0  0  0  0  0
  191.6620  176.4440  146.9960 O   0  0  0  0  0  0  0  0  0  0  0  0
  189.3410  176.1050  145.3520 C   0  0  0  0  0  3  0  0  0  0  0  0
  189.4400  175.5460  146.7720 C   0  0  0  0  0  2  0  0  0  0  0  0
  190.3540  177.2270  145.1350 C   0  0  0  0  0  2  0  0  0  0  0  0
  184.8830  177.4420  146.9210 O   0  0  0  0  0  0  0  0  0  0  0  0
  184.8270  178.6640  147.6450 C   0  0  0  0  0  1  0  0  0  0  0  0
  188.9210  172.3370  139.2450 C   0  0  0  0  0  2  0  0  0  0  0  0
  189.5380  170.2350  138.3990 O   0  0  0  0  0  0  0  0  0  0  0  0
  189.9250  171.2910  138.8720 C   0  0  0  0  0  0  0  0  0  0  0  0
  191.3970  171.5380  139.0580 C   0  0  0  0  0  2  0  0  0  0  0  0
  191.0980  170.4320  141.3200 C   0  0  0  0  0  1  0  0  0  0  0  0
  191.8760  171.4610  140.5140 C   0  0  1  0  0  3  0  0  0  0  0  0
  193.3940  171.3100  140.7020 C   0  0  2  0  0  3  0  0  0  0  0  0
  194.3000  169.4410  139.5740 O   0  0  0  0  0  0  0  0  0  0  0  0
  194.0330  170.6340  139.5290 C   0  0  0  0  0  3  0  0  0  0  0  0
  193.6970  170.6250  141.8830 O   0  0  0  0  0  0  0  0  0  0  0  0
  194.6770  171.4050  142.5130 C   0  0  0  0  0  2  0  0  0  0  0  0
  195.6920  170.6030  144.5940 C   0  0  0  0  0  2  0  0  0  0  0  0
  194.6490  171.1630  143.9920 C   0  0  0  0  0  0  0  0  0  0  0  0
  193.3760  171.3590  144.7510 C   0  0  0  0  0  2  0  0  0  0  0  0
  192.9330  172.7880  144.6960 C   0  0  0  0  0  0  0  0  0  0  0  0
  194.4290  174.5530  145.7590 O   0  0  0  0  0  0  0  0  0  0  0  0
  193.7000  173.6970  145.2430 C   0  0  0  0  0  0  0  0  0  0  0  0
  189.3150  172.8780  143.5580 C   0  0  0  0  0  3  0  0  0  0  0  0
  190.5760  174.4770  142.2460 C   0  0  0  0  0  3  0  0  0  0  0  0
  190.4770  172.5420  144.2600 C   0  0  0  0  0  3  0  0  0  0  0  0
  191.7360  174.1440  142.9490 C   0  0  0  0  0  3  0  0  0  0  0  0
  191.7010  173.1690  143.9630 C   0  0  0  0  0  0  0  0  0  0  0  0
  189.3670  173.8420  142.5490 C   0  0  0  0  0  3  0  0  0  0  0  0
  1  4  1  6  0  0  0
  1  3  1  0  0  0  0
  2  1  1  0  0  0  0
  2  3  1  0  0  0  0
  3 27  1  1  0  0  0
  4  5  1  0  0  0  0
  5  7  1  0  0  0  0
  6  5  2  0  0  0  0
  7 11  1  0  0  0  0
  8  9  1  0  0  0  0
  9 10  1  0  0  0  0
 10 15  1  0  0  0  0
 11  8  1  0  0  0  0
 11 12  2  0  0  0  0
 12 10  1  0  0  0  0
 13 22  1  0  0  0  0
 13 16  1  0  0  0  0
 14 17  1  0  0  0  0
 15 18  1  0  0  0  0
 15 14  2  0  0  0  0
 17 16  2  0  0  0  0
 17 25  1  0  0  0  0
 18 13  2  0  0  0  0
 20 21  1  0  0  0  0
 21 19  1  0  0  0  0
 22 23  1  0  0  0  0
 23 19  1  0  0  0  0
 24 22  1  0  0  0  0
 24 20  1  0  0  0  0
 25 26  1  0  0  0  0
 28 29  2  0  0  0  0
 29 30  1  0  0  0  0
 29 27  1  0  0  0  0
 30 32  1  0  0  0  0
 32 33  1  0  0  0  0
 32 31  1  6  0  0  0
 33 35  1  6  0  0  0
 33 36  1  0  0  0  0
 35 34  2  0  0  0  0
 36 37  1  0  0  0  0
 37 39  1  0  0  0  0
 39 38  2  0  0  0  0
 39 40  1  0  0  0  0
 41 40  1  0  0  0  0
 41 43  2  0  0  0  0
 43 42  2  0  0  0  0
 44 46  1  0  0  0  0
 45 49  1  0  0  0  0
 45 47  2  0  0  0  0
 47 48  1  0  0  0  0
 48 46  2  0  0  0  0
 48 41  1  0  0  0  0
 49 44  2  0  0  0  0
M  END
>  <MODEL>
7

>  <REMARK>
 VINA RESULT:      -5.8      3.586      9.759
  Name = 
  19 active torsions:
  status: ('A' for Active; 'I' for Inactive)
    1  A    between atoms: O_1  and  C_6
    2  A    between atoms: O_1  and  C_10
    3  A    between atoms: C_2  and  N_25
    4  A    between atoms: C_2  and  O_36
    5  A    between atoms: C_4  and  C_44
    6  A    between atoms: C_6  and  C_20
    7  A    between atoms: C_6  and  C_47
    8  A    between atoms: C_7  and  C_28
    9  A    between atoms: C_7  and  C_48
   10  A    between atoms: C_10  and  C_39
   11  A    between atoms: C_14  and  N_25
   12  A    between atoms: O_15  and  C_30
   13  A    between atoms: N_16  and  C_18
   14  A    between atoms: C_19  and  O_36
   15  A    between atoms: C_20  and  C_26
   16  A    between atoms: C_26  and  C_29
   17  A    between atoms: C_29  and  C_40
   18  A    between atoms: C_32  and  C_40
   19  A    between atoms: C_39  and  C_48
                            x       y       z     vdW  Elec       q    Type
                         _______ _______ _______ _____ _____    ______ ____

>  <TORSDO>
F 19

$$$$
=
 OpenBabel11062418203D

 49 53  0  0  1  0  0  0  0  0999 V2000
  189.0530  173.7870  138.0240 C   0  0  1  0  0  3  0  0  0  0  0  0
  188.5830  172.5720  138.5520 O   0  0  0  0  0  0  0  0  0  0  0  0
  189.4350  173.3330  139.3760 C   0  0  2  0  0  3  0  0  0  0  0  0
  190.1480  173.5310  137.1040 N   0  0  0  0  0  2  0  0  0  0  0  0
  190.3770  172.2230  136.5810 C   0  0  0  0  0  0  0  0  0  0  0  0
  189.6410  171.8220  135.5510 C   0  0  0  0  0  2  0  0  0  0  0  0
  191.3830  171.4180  137.1490 O   0  0  0  0  0  0  0  0  0  0  0  0
  193.6440  172.5250  137.6750 C   0  0  0  0  0  2  0  0  0  0  0  0
  194.6480  172.7020  139.1920 S   0  0  0  0  0  0  0  0  0  0  0  0
  193.3250  172.0070  140.1460 N   0  0  0  0  0  0  0  0  0  0  0  0
  192.3760  171.8190  138.0550 C   0  0  0  0  0  0  0  0  0  0  0  0
  192.2400  171.5640  139.3450 C   0  0  0  0  0  3  0  0  0  0  0  0
  193.3290  173.0210  143.7520 C   0  0  0  0  0  0  0  0  0  0  0  0
  193.3180  170.6730  142.2210 C   0  0  0  0  0  3  0  0  0  0  0  0
  193.3420  171.9230  141.5780 C   0  0  0  0  0  0  0  0  0  0  0  0
  193.2980  171.7680  144.3780 C   0  0  0  0  0  3  0  0  0  0  0  0
  193.2990  170.5910  143.6220 C   0  0  0  0  0  0  0  0  0  0  0  0
  193.3490  173.0920  142.3530 C   0  0  0  0  0  3  0  0  0  0  0  0
  193.3700  176.7510  144.6070 C   0  0  0  0  0  2  0  0  0  0  0  0
  194.5460  175.6830  146.2080 C   0  0  0  0  0  2  0  0  0  0  0  0
  194.6180  176.7180  145.2550 O   0  0  0  0  0  0  0  0  0  0  0  0
  193.3090  174.2600  144.5900 C   0  0  0  0  0  3  0  0  0  0  0  0
  193.2040  175.5150  143.7240 C   0  0  0  0  0  2  0  0  0  0  0  0
  194.5290  174.3270  145.5050 C   0  0  0  0  0  2  0  0  0  0  0  0
  193.2710  169.3570  144.2860 O   0  0  0  0  0  0  0  0  0  0  0  0
  194.1640  169.0280  145.3420 C   0  0  0  0  0  1  0  0  0  0  0  0
  188.6130  174.0850  140.4020 C   0  0  0  0  0  2  0  0  0  0  0  0
  187.3370  172.7590  141.8620 O   0  0  0  0  0  0  0  0  0  0  0  0
  188.4320  173.2450  141.6280 C   0  0  0  0  0  0  0  0  0  0  0  0
  189.5860  172.9830  142.5570 C   0  0  0  0  0  2  0  0  0  0  0  0
  189.8510  172.1690  144.9440 C   0  0  0  0  0  1  0  0  0  0  0  0
  189.2830  173.2500  144.0380 C   0  0  1  0  0  3  0  0  0  0  0  0
  189.6320  174.6600  144.5390 C   0  0  2  0  0  3  0  0  0  0  0  0
  190.5270  175.6330  146.4980 O   0  0  0  0  0  0  0  0  0  0  0  0
  189.9830  174.6600  145.9950 C   0  0  0  0  0  3  0  0  0  0  0  0
  188.5940  175.5630  144.2890 O   0  0  0  0  0  0  0  0  0  0  0  0
  189.1220  176.4750  143.3640 C   0  0  0  0  0  2  0  0  0  0  0  0
  188.1880  178.2100  141.9080 C   0  0  0  0  0  2  0  0  0  0  0  0
  188.0190  177.0460  142.5250 C   0  0  0  0  0  0  0  0  0  0  0  0
  186.6650  176.4120  142.5500 C   0  0  0  0  0  2  0  0  0  0  0  0
  185.6040  177.4240  142.8550 C   0  0  0  0  0  0  0  0  0  0  0  0
  184.3740  178.5030  140.9040 O   0  0  0  0  0  0  0  0  0  0  0  0
  184.9710  177.9810  141.8530 C   0  0  0  0  0  0  0  0  0  0  0  0
  185.4800  177.2920  146.6440 C   0  0  0  0  0  3  0  0  0  0  0  0
  183.8450  178.9050  145.8750 C   0  0  0  0  0  3  0  0  0  0  0  0
  185.8500  177.0400  145.3190 C   0  0  0  0  0  3  0  0  0  0  0  0
  184.2160  178.6560  144.5520 C   0  0  0  0  0  3  0  0  0  0  0  0
  185.2210  177.7170  144.2570 C   0  0  0  0  0  0  0  0  0  0  0  0
  184.4740  178.2210  146.9200 C   0  0  0  0  0  3  0  0  0  0  0  0
  1  4  1  6  0  0  0
  1  2  1  0  0  0  0
  1  3  1  0  0  0  0
  2  3  1  0  0  0  0
  3 27  1  1  0  0  0
  5  4  1  0  0  0  0
  5  7  1  0  0  0  0
  6  5  2  0  0  0  0
  7 11  1  0  0  0  0
  8 11  1  0  0  0  0
  8  9  1  0  0  0  0
  9 10  1  0  0  0  0
 10 15  1  0  0  0  0
 11 12  2  0  0  0  0
 12 10  1  0  0  0  0
 13 16  1  0  0  0  0
 13 22  1  0  0  0  0
 14 17  1  0  0  0  0
 15 14  2  0  0  0  0
 15 18  1  0  0  0  0
 17 25  1  0  0  0  0
 17 16  2  0  0  0  0
 18 13  2  0  0  0  0
 19 21  1  0  0  0  0
 21 20  1  0  0  0  0
 22 24  1  0  0  0  0
 23 22  1  0  0  0  0
 23 19  1  0  0  0  0
 24 20  1  0  0  0  0
 25 26  1  0  0  0  0
 27 29  1  0  0  0  0
 29 28  2  0  0  0  0
 29 30  1  0  0  0  0
 30 32  1  0  0  0  0
 32 33  1  0  0  0  0
 32 31  1  1  0  0  0
 33 35  1  1  0  0  0
 35 34  2  0  0  0  0
 36 33  1  0  0  0  0
 37 36  1  0  0  0  0
 38 39  2  0  0  0  0
 39 40  1  0  0  0  0
 39 37  1  0  0  0  0
 40 41  1  0  0  0  0
 41 48  1  0  0  0  0
 42 43  2  0  0  0  0
 43 41  2  0  0  0  0
 44 49  1  0  0  0  0
 45 49  2  0  0  0  0
 46 44  2  0  0  0  0
 47 45  1  0  0  0  0
 48 47  2  0  0  0  0
 48 46  1  0  0  0  0
M  END
>  <MODEL>
8

>  <REMARK>
 VINA RESULT:      -5.8      2.643      7.121
  Name = 
  19 active torsions:
  status: ('A' for Active; 'I' for Inactive)
    1  A    between atoms: O_1  and  C_6
    2  A    between atoms: O_1  and  C_10
    3  A    between atoms: C_2  and  N_25
    4  A    between atoms: C_2  and  O_36
    5  A    between atoms: C_4  and  C_44
    6  A    between atoms: C_6  and  C_20
    7  A    between atoms: C_6  and  C_47
    8  A    between atoms: C_7  and  C_28
    9  A    between atoms: C_7  and  C_48
   10  A    between atoms: C_10  and  C_39
   11  A    between atoms: C_14  and  N_25
   12  A    between atoms: O_15  and  C_30
   13  A    between atoms: N_16  and  C_18
   14  A    between atoms: C_19  and  O_36
   15  A    between atoms: C_20  and  C_26
   16  A    between atoms: C_26  and  C_29
   17  A    between atoms: C_29  and  C_40
   18  A    between atoms: C_32  and  C_40
   19  A    between atoms: C_39  and  C_48
                            x       y       z     vdW  Elec       q    Type
                         _______ _______ _______ _____ _____    ______ ____

>  <TORSDO>
F 19

$$$$
=
 OpenBabel11062418203D

 49 53  0  0  1  0  0  0  0  0999 V2000
  187.0730  176.8540  146.7920 C   0  0  1  0  0  3  0  0  0  0  0  0
  186.3140  177.0070  147.9660 O   0  0  0  0  0  0  0  0  0  0  0  0
  186.0890  177.9450  146.9390 C   0  0  2  0  0  3  0  0  0  0  0  0
  188.4100  177.3830  147.0000 N   0  0  0  0  0  2  0  0  0  0  0  0
  189.4860  177.0220  146.1350 C   0  0  0  0  0  0  0  0  0  0  0  0
  189.6000  177.6610  144.9760 C   0  0  0  0  0  2  0  0  0  0  0  0
  190.3980  176.0300  146.5440 O   0  0  0  0  0  0  0  0  0  0  0  0
  189.7200  173.8870  145.2950 C   0  0  0  0  0  2  0  0  0  0  0  0
  190.6470  172.4560  144.6350 S   0  0  0  0  0  0  0  0  0  0  0  0
  192.1730  173.2730  145.0130 N   0  0  0  0  0  0  0  0  0  0  0  0
  190.7220  174.8470  145.8640 C   0  0  0  0  0  0  0  0  0  0  0  0
  191.9880  174.5010  145.7020 C   0  0  0  0  0  3  0  0  0  0  0  0
  195.6780  173.1110  143.7000 C   0  0  0  0  0  0  0  0  0  0  0  0
  193.7990  171.4200  144.9110 C   0  0  0  0  0  3  0  0  0  0  0  0
  193.4600  172.7580  144.6420 C   0  0  0  0  0  0  0  0  0  0  0  0
  196.0040  171.7790  143.9810 C   0  0  0  0  0  3  0  0  0  0  0  0
  195.0700  170.9250  144.5800 C   0  0  0  0  0  0  0  0  0  0  0  0
  194.4070  173.5960  144.0340 C   0  0  0  0  0  3  0  0  0  0  0  0
  197.5070  176.3410  142.7650 C   0  0  0  0  0  2  0  0  0  0  0  0
  197.5920  174.9770  140.9690 C   0  0  0  0  0  2  0  0  0  0  0  0
  197.2050  176.2630  141.3920 O   0  0  0  0  0  0  0  0  0  0  0  0
  196.7060  174.0010  143.0750 C   0  0  0  0  0  3  0  0  0  0  0  0
  196.5610  175.4430  143.5610 C   0  0  0  0  0  2  0  0  0  0  0  0
  196.6460  173.9290  141.5520 C   0  0  0  0  0  2  0  0  0  0  0  0
  195.4340  169.5980  144.8410 O   0  0  0  0  0  0  0  0  0  0  0  0
  195.8570  169.1490  146.1220 C   0  0  0  0  0  1  0  0  0  0  0  0
  184.8280  177.5800  146.1850 C   0  0  0  0  0  2  0  0  0  0  0  0
  183.6080  179.1080  144.8830 O   0  0  0  0  0  0  0  0  0  0  0  0
  184.6530  178.4890  145.0080 C   0  0  0  0  0  0  0  0  0  0  0  0
  185.7550  178.6600  143.9980 C   0  0  0  0  0  2  0  0  0  0  0  0
  185.0210  178.2920  141.5990 C   0  0  0  0  0  1  0  0  0  0  0  0
  185.6920  177.6800  142.8180 C   0  0  1  0  0  3  0  0  0  0  0  0
  187.0200  176.9950  142.4590 C   0  0  2  0  0  3  0  0  0  0  0  0
  188.4880  178.6630  141.6540 O   0  0  0  0  0  0  0  0  0  0  0  0
  187.7480  177.7300  141.3760 C   0  0  0  0  0  3  0  0  0  0  0  0
  186.8240  175.6590  142.0940 O   0  0  0  0  0  0  0  0  0  0  0  0
  187.9520  174.9820  142.5790 C   0  0  0  0  0  2  0  0  0  0  0  0
  187.8200  172.6000  142.0210 C   0  0  0  0  0  2  0  0  0  0  0  0
  188.2610  173.8100  141.6970 C   0  0  0  0  0  0  0  0  0  0  0  0
  189.2320  173.9660  140.5710 C   0  0  0  0  0  2  0  0  0  0  0  0
  190.6380  173.7590  141.0410 C   0  0  0  0  0  0  0  0  0  0  0  0
  191.7420  175.6190  142.3870 O   0  0  0  0  0  0  0  0  0  0  0  0
  191.2080  174.7150  141.7320 C   0  0  0  0  0  0  0  0  0  0  0  0
  193.3460  171.1050  140.9470 C   0  0  0  0  0  3  0  0  0  0  0  0
  191.3390  170.1950  139.9430 C   0  0  0  0  0  3  0  0  0  0  0  0
  192.6770  172.3090  141.1860 C   0  0  0  0  0  3  0  0  0  0  0  0
  190.6690  171.3950  140.1840 C   0  0  0  0  0  3  0  0  0  0  0  0
  191.3320  172.4700  140.8060 C   0  0  0  0  0  0  0  0  0  0  0  0
  192.6780  170.0500  140.3210 C   0  0  0  0  0  3  0  0  0  0  0  0
  1  3  1  0  0  0  0
  1  4  1  1  0  0  0
  1  2  1  0  0  0  0
  3 27  1  6  0  0  0
  3  2  1  0  0  0  0
  5  7  1  0  0  0  0
  5  4  1  0  0  0  0
  6  5  2  0  0  0  0
  8 11  1  0  0  0  0
  9 10  1  0  0  0  0
  9  8  1  0  0  0  0
 10 12  1  0  0  0  0
 11  7  1  0  0  0  0
 12 11  2  0  0  0  0
 13 16  2  0  0  0  0
 13 18  1  0  0  0  0
 15 14  1  0  0  0  0
 15 10  1  0  0  0  0
 16 17  1  0  0  0  0
 17 25  1  0  0  0  0
 17 14  2  0  0  0  0
 18 15  2  0  0  0  0
 19 23  1  0  0  0  0
 20 21  1  0  0  0  0
 20 24  1  0  0  0  0
 21 19  1  0  0  0  0
 22 23  1  0  0  0  0
 22 13  1  0  0  0  0
 24 22  1  0  0  0  0
 25 26  1  0  0  0  0
 28 29  2  0  0  0  0
 29 27  1  0  0  0  0
 30 29  1  0  0  0  0
 32 31  1  6  0  0  0
 32 30  1  0  0  0  0
 33 35  1  6  0  0  0
 33 32  1  0  0  0  0
 35 34  2  0  0  0  0
 36 33  1  0  0  0  0
 36 37  1  0  0  0  0
 39 38  2  0  0  0  0
 39 37  1  0  0  0  0
 40 41  1  0  0  0  0
 40 39  1  0  0  0  0
 41 43  2  0  0  0  0
 43 42  2  0  0  0  0
 44 46  1  0  0  0  0
 45 47  2  0  0  0  0
 45 49  1  0  0  0  0
 47 48  1  0  0  0  0
 48 41  1  0  0  0  0
 48 46  2  0  0  0  0
 49 44  2  0  0  0  0
M  END
>  <MODEL>
9

>  <REMARK>
 VINA RESULT:      -5.7      2.821      5.865
  Name = 
  19 active torsions:
  status: ('A' for Active; 'I' for Inactive)
    1  A    between atoms: O_1  and  C_6
    2  A    between atoms: O_1  and  C_10
    3  A    between atoms: C_2  and  N_25
    4  A    between atoms: C_2  and  O_36
    5  A    between atoms: C_4  and  C_44
    6  A    between atoms: C_6  and  C_20
    7  A    between atoms: C_6  and  C_47
    8  A    between atoms: C_7  and  C_28
    9  A    between atoms: C_7  and  C_48
   10  A    between atoms: C_10  and  C_39
   11  A    between atoms: C_14  and  N_25
   12  A    between atoms: O_15  and  C_30
   13  A    between atoms: N_16  and  C_18
   14  A    between atoms: C_19  and  O_36
   15  A    between atoms: C_20  and  C_26
   16  A    between atoms: C_26  and  C_29
   17  A    between atoms: C_29  and  C_40
   18  A    between atoms: C_32  and  C_40
   19  A    between atoms: C_39  and  C_48
                            x       y       z     vdW  Elec       q    Type
                         _______ _______ _______ _____ _____    ______ ____

>  <TORSDO>
F 19

$$$$
