=
 OpenBabel11062419563D

 28 29  0  0  1  0  0  0  0  0999 V2000
  190.5870  175.6040  144.1690 C   0  0  2  0  0  3  0  0  0  0  0  0
  193.0220  175.8320  144.7780 N   0  0  0  0  0  2  0  0  0  0  0  0
  192.0270  177.2830  143.2430 O   0  0  0  0  0  0  0  0  0  0  0  0
  191.9070  176.2920  144.0150 C   0  0  0  0  0  0  0  0  0  0  0  0
  194.5910  177.2800  145.9230 C   0  0  0  0  0  1  0  0  0  0  0  0
  194.3320  176.4560  144.6790 C   0  0  0  0  0  2  0  0  0  0  0  0
  190.0360  177.1460  146.0350 C   0  0  0  0  0  2  0  0  0  0  0  0
  188.7490  176.4850  145.5830 C   0  0  1  0  0  3  0  0  0  0  0  0
  190.0450  175.6980  145.5900 C   0  0  1  0  0  3  0  0  0  0  0  0
  187.9350  176.0990  146.7980 C   0  0  0  0  0  2  0  0  0  0  0  0
  186.6080  176.6780  146.6950 N   0  0  0  0  0  2  0  0  0  0  0  0
  186.5800  177.8180  147.5930 C   0  0  0  0  0  2  0  0  0  0  0  0
  184.2710  178.1700  146.7290 C   0  0  0  0  0  1  0  0  0  0  0  0
  185.5780  178.8450  147.0970 C   0  0  0  0  0  2  0  0  0  0  0  0
  190.6470  173.8770  143.5660 S   0  0  0  0  0  0  0  0  0  0  0  0
  189.0140  173.9100  142.7560 C   0  0  0  0  0  2  0  0  0  0  0  0
  188.9480  175.0560  141.7570 C   0  0  2  0  0  3  0  0  0  0  0  0
  186.7370  175.6940  142.8020 C   0  0  0  0  0  3  0  0  0  0  0  0
  187.2740  178.4000  142.3610 C   0  0  0  0  0  3  0  0  0  0  0  0
  188.2010  177.4320  141.9670 C   0  0  0  0  0  3  0  0  0  0  0  0
  185.8090  176.6630  143.1930 C   0  0  0  0  0  3  0  0  0  0  0  0
  187.9360  176.0760  142.1820 C   0  0  0  0  0  0  0  0  0  0  0  0
  186.0710  178.0230  142.9730 C   0  0  0  0  0  0  0  0  0  0  0  0
  185.5240  180.2520  143.9160 O   0  0  0  0  0  1  0  0  0  0  0  0
  183.8590  178.8420  143.2310 O   0  0  0  0  0  0  0  0  0  0  0  0
  185.0930  179.0470  143.3740 C   0  0  0  0  0  0  0  0  0  0  0  0
  188.4430  173.3880  140.2730 O   0  0  0  0  0  0  0  0  0  0  0  0
  188.6270  174.5540  140.4450 N   0  0  0  0  0  0  0  0  0  0  0  0
  1 15  1  1  0  0  0
  3  4  2  0  0  0  0
  4  1  1  0  0  0  0
  4  2  1  0  0  0  0
  6  2  1  0  0  0  0
  6  5  1  0  0  0  0
  8  9  1  0  0  0  0
  8  7  1  0  0  0  0
  8 10  1  1  0  0  0
  9  1  1  6  0  0  0
  9  7  1  0  0  0  0
 11 10  1  0  0  0  0
 11 12  1  0  0  0  0
 13 14  1  0  0  0  0
 14 12  1  0  0  0  0
 16 15  1  0  0  0  0
 17 22  1  0  0  0  0
 17 16  1  1  0  0  0
 18 21  1  0  0  0  0
 19 23  1  0  0  0  0
 20 22  1  0  0  0  0
 20 19  2  0  0  0  0
 22 18  2  0  0  0  0
 23 21  2  0  0  0  0
 23 26  1  0  0  0  0
 25 26  2  0  0  0  0
 26 24  1  0  0  0  0
 27 28  2  0  0  0  0
 28 17  1  0  0  0  0
M  END
>  <MODEL>
1

>  <REMARK>
 VINA RESULT:      -5.9      0.000      0.000
  Name = 
  13 active torsions:
  status: ('A' for Active; 'I' for Inactive)
    1  A    between atoms: C_1  and  C_18
    2  A    between atoms: C_1  and  N_22
    3  A    between atoms: C_2  and  N_22
    4  A    between atoms: C_2  and  C_27
    5  A    between atoms: C_3  and  C_6
    6  A    between atoms: C_3  and  S_20
    7  A    between atoms: N_4  and  C_23
    8  A    between atoms: C_6  and  N_19
    9  A    between atoms: C_6  and  C_21
   10  A    between atoms: C_13  and  C_15
   11  A    between atoms: C_13  and  S_20
   12  A    between atoms: C_13  and  C_24
   13  A    between atoms: C_26  and  C_28
                            x       y       z     vdW  Elec       q    Type
                         _______ _______ _______ _____ _____    ______ ____

>  <TORSDO>
F 13

$$$$
=
 OpenBabel11062419563D

 28 29  0  0  1  0  0  0  0  0999 V2000
  190.3460  175.4940  145.9800 C   0  0  2  0  0  3  0  0  0  0  0  0
  192.7640  176.2040  145.9280 N   0  0  0  0  0  2  0  0  0  0  0  0
  191.8480  175.1960  147.8250 O   0  0  0  0  0  0  0  0  0  0  0  0
  191.6780  175.6220  146.6490 C   0  0  0  0  0  0  0  0  0  0  0  0
  195.0190  175.3190  145.9310 C   0  0  0  0  0  1  0  0  0  0  0  0
  194.0850  176.3560  146.5170 C   0  0  0  0  0  2  0  0  0  0  0  0
  189.1810  177.3610  147.1300 C   0  0  0  0  0  2  0  0  0  0  0  0
  188.2050  176.7350  146.1540 C   0  0  1  0  0  3  0  0  0  0  0  0
  189.1930  175.8630  146.9050 C   0  0  1  0  0  3  0  0  0  0  0  0
  186.8490  176.6180  146.8150 C   0  0  0  0  0  2  0  0  0  0  0  0
  185.8100  176.7690  145.8130 N   0  0  0  0  0  2  0  0  0  0  0  0
  184.7910  177.6240  146.3940 C   0  0  0  0  0  2  0  0  0  0  0  0
  185.6890  179.4060  144.9050 C   0  0  0  0  0  1  0  0  0  0  0  0
  185.2220  179.0770  146.3100 C   0  0  0  0  0  2  0  0  0  0  0  0
  190.1230  173.8430  145.2230 S   0  0  0  0  0  0  0  0  0  0  0  0
  190.3930  174.3920  143.5060 C   0  0  0  0  0  2  0  0  0  0  0  0
  190.3790  175.9110  143.4330 C   0  0  2  0  0  3  0  0  0  0  0  0
  187.9610  175.5540  142.7940 C   0  0  0  0  0  3  0  0  0  0  0  0
  187.7260  178.2380  142.0540 C   0  0  0  0  0  3  0  0  0  0  0  0
  188.9430  177.7520  142.5410 C   0  0  0  0  0  3  0  0  0  0  0  0
  186.7460  176.0400  142.3040 C   0  0  0  0  0  3  0  0  0  0  0  0
  189.0670  176.4090  142.9080 C   0  0  0  0  0  0  0  0  0  0  0  0
  186.6210  177.3850  141.9300 C   0  0  0  0  0  0  0  0  0  0  0  0
  184.1970  177.8530  142.1860 O   0  0  0  0  0  1  0  0  0  0  0  0
  185.2840  178.3890  140.2460 O   0  0  0  0  0  0  0  0  0  0  0  0
  185.3470  177.9010  141.4050 C   0  0  0  0  0  0  0  0  0  0  0  0
  192.4510  175.7290  142.4760 O   0  0  0  0  0  0  0  0  0  0  0  0
  191.4580  176.3800  142.6000 N   0  0  0  0  0  0  0  0  0  0  0  0
  1 15  1  1  0  0  0
  1  4  1  0  0  0  0
  2  6  1  0  0  0  0
  2  4  1  0  0  0  0
  4  3  2  0  0  0  0
  5  6  1  0  0  0  0
  8 10  1  1  0  0  0
  8  9  1  0  0  0  0
  8  7  1  0  0  0  0
  9  1  1  6  0  0  0
  9  7  1  0  0  0  0
 11 12  1  0  0  0  0
 11 10  1  0  0  0  0
 13 14  1  0  0  0  0
 14 12  1  0  0  0  0
 16 15  1  0  0  0  0
 17 16  1  6  0  0  0
 18 22  1  0  0  0  0
 19 20  1  0  0  0  0
 20 22  2  0  0  0  0
 21 18  2  0  0  0  0
 22 17  1  0  0  0  0
 23 19  2  0  0  0  0
 23 21  1  0  0  0  0
 25 26  2  0  0  0  0
 26 23  1  0  0  0  0
 26 24  1  0  0  0  0
 27 28  2  0  0  0  0
 28 17  1  0  0  0  0
M  END
>  <MODEL>
2

>  <REMARK>
 VINA RESULT:      -5.7      1.831      2.351
  Name = 
  13 active torsions:
  status: ('A' for Active; 'I' for Inactive)
    1  A    between atoms: C_1  and  C_18
    2  A    between atoms: C_1  and  N_22
    3  A    between atoms: C_2  and  N_22
    4  A    between atoms: C_2  and  C_27
    5  A    between atoms: C_3  and  C_6
    6  A    between atoms: C_3  and  S_20
    7  A    between atoms: N_4  and  C_23
    8  A    between atoms: C_6  and  N_19
    9  A    between atoms: C_6  and  C_21
   10  A    between atoms: C_13  and  C_15
   11  A    between atoms: C_13  and  S_20
   12  A    between atoms: C_13  and  C_24
   13  A    between atoms: C_26  and  C_28
                            x       y       z     vdW  Elec       q    Type
                         _______ _______ _______ _____ _____    ______ ____

>  <TORSDO>
F 13

$$$$
=
 OpenBabel11062419563D

 28 29  0  0  1  0  0  0  0  0999 V2000
  190.5470  175.6880  145.2630 C   0  0  2  0  0  3  0  0  0  0  0  0
  192.7750  175.7140  146.4420 N   0  0  0  0  0  2  0  0  0  0  0  0
  192.3630  177.1170  144.6220 O   0  0  0  0  0  0  0  0  0  0  0  0
  191.9410  176.2170  145.4000 C   0  0  0  0  0  0  0  0  0  0  0  0
  195.1030  175.1930  146.0200 C   0  0  0  0  0  1  0  0  0  0  0  0
  194.1370  176.1850  146.6330 C   0  0  0  0  0  2  0  0  0  0  0  0
  189.6270  177.4480  146.7550 C   0  0  0  0  0  2  0  0  0  0  0  0
  188.4600  176.7320  146.1060 C   0  0  1  0  0  3  0  0  0  0  0  0
  189.7010  175.9550  146.5030 C   0  0  1  0  0  3  0  0  0  0  0  0
  187.3830  176.4950  147.1420 C   0  0  0  0  0  2  0  0  0  0  0  0
  186.4900  177.6390  147.1800 N   0  0  0  0  0  2  0  0  0  0  0  0
  185.2180  177.1930  146.6400 C   0  0  0  0  0  2  0  0  0  0  0  0
  185.5750  179.2560  145.2920 C   0  0  0  0  0  1  0  0  0  0  0  0
  184.5380  178.3320  145.9030 C   0  0  0  0  0  2  0  0  0  0  0  0
  190.5350  173.9220  144.7870 S   0  0  0  0  0  0  0  0  0  0  0  0
  189.2320  174.0830  143.5230 C   0  0  0  0  0  2  0  0  0  0  0  0
  189.4760  175.3220  142.6730 C   0  0  2  0  0  3  0  0  0  0  0  0
  187.0330  175.7630  143.1440 C   0  0  0  0  0  3  0  0  0  0  0  0
  186.9730  177.7280  141.1580 C   0  0  0  0  0  3  0  0  0  0  0  0
  188.1580  177.0350  141.4180 C   0  0  0  0  0  3  0  0  0  0  0  0
  185.8480  176.4550  142.8810 C   0  0  0  0  0  3  0  0  0  0  0  0
  188.1930  176.0480  142.4080 C   0  0  0  0  0  0  0  0  0  0  0  0
  185.8100  177.4400  141.8850 C   0  0  0  0  0  0  0  0  0  0  0  0
  183.5680  178.2610  142.5650 O   0  0  0  0  0  1  0  0  0  0  0  0
  184.3810  178.7050  140.4740 O   0  0  0  0  0  0  0  0  0  0  0  0
  184.5620  178.1650  141.5970 C   0  0  0  0  0  0  0  0  0  0  0  0
  190.1950  173.8110  141.1120 O   0  0  0  0  0  0  0  0  0  0  0  0
  190.1080  174.9570  141.4310 N   0  0  0  0  0  0  0  0  0  0  0  0
  1 15  1  1  0  0  0
  1  4  1  0  0  0  0
  2  6  1  0  0  0  0
  3  4  2  0  0  0  0
  4  2  1  0  0  0  0
  5  6  1  0  0  0  0
  8  9  1  0  0  0  0
  8  7  1  0  0  0  0
  8 10  1  1  0  0  0
  9  1  1  6  0  0  0
  9  7  1  0  0  0  0
 10 11  1  0  0  0  0
 12 11  1  0  0  0  0
 13 14  1  0  0  0  0
 14 12  1  0  0  0  0
 16 15  1  0  0  0  0
 17 16  1  1  0  0  0
 19 20  2  0  0  0  0
 19 23  1  0  0  0  0
 20 22  1  0  0  0  0
 21 18  1  0  0  0  0
 22 17  1  0  0  0  0
 22 18  2  0  0  0  0
 23 21  2  0  0  0  0
 25 26  2  0  0  0  0
 26 23  1  0  0  0  0
 26 24  1  0  0  0  0
 27 28  2  0  0  0  0
 28 17  1  0  0  0  0
M  END
>  <MODEL>
3

>  <REMARK>
 VINA RESULT:      -5.6      1.374      1.562
  Name = 
  13 active torsions:
  status: ('A' for Active; 'I' for Inactive)
    1  A    between atoms: C_1  and  C_18
    2  A    between atoms: C_1  and  N_22
    3  A    between atoms: C_2  and  N_22
    4  A    between atoms: C_2  and  C_27
    5  A    between atoms: C_3  and  C_6
    6  A    between atoms: C_3  and  S_20
    7  A    between atoms: N_4  and  C_23
    8  A    between atoms: C_6  and  N_19
    9  A    between atoms: C_6  and  C_21
   10  A    between atoms: C_13  and  C_15
   11  A    between atoms: C_13  and  S_20
   12  A    between atoms: C_13  and  C_24
   13  A    between atoms: C_26  and  C_28
                            x       y       z     vdW  Elec       q    Type
                         _______ _______ _______ _____ _____    ______ ____

>  <TORSDO>
F 13

$$$$
=
 OpenBabel11062419563D

 28 29  0  0  1  0  0  0  0  0999 V2000
  192.1370  176.6550  145.6790 C   0  0  2  0  0  3  0  0  0  0  0  0
  194.1600  175.2450  145.1560 N   0  0  0  0  0  2  0  0  0  0  0  0
  194.3320  177.1380  146.5130 O   0  0  0  0  0  0  0  0  0  0  0  0
  193.6030  176.3850  145.8100 C   0  0  0  0  0  0  0  0  0  0  0  0
  196.2830  175.4280  144.0050 C   0  0  0  0  0  1  0  0  0  0  0  0
  195.5750  174.9230  145.2450 C   0  0  0  0  0  2  0  0  0  0  0  0
  191.4510  175.4430  147.7350 C   0  0  0  0  0  2  0  0  0  0  0  0
  190.2150  176.0880  147.1410 C   0  0  1  0  0  3  0  0  0  0  0  0
  191.2850  175.5170  146.2310 C   0  0  1  0  0  3  0  0  0  0  0  0
  189.0620  175.1100  147.2130 C   0  0  0  0  0  2  0  0  0  0  0  0
  187.8310  175.7880  146.8500 N   0  0  0  0  0  2  0  0  0  0  0  0
  188.1950  177.1460  146.4860 C   0  0  0  0  0  2  0  0  0  0  0  0
  185.7170  177.1970  146.7270 C   0  0  0  0  0  1  0  0  0  0  0  0
  186.9470  177.9980  146.3450 C   0  0  0  0  0  2  0  0  0  0  0  0
  191.6770  177.0900  143.9620 S   0  0  0  0  0  0  0  0  0  0  0  0
  190.4500  175.7580  143.7580 C   0  0  0  0  0  2  0  0  0  0  0  0
  189.7490  175.8920  142.4140 C   0  0  2  0  0  3  0  0  0  0  0  0
  188.2250  177.9050  142.3200 C   0  0  0  0  0  3  0  0  0  0  0  0
  186.0540  176.3380  143.1200 C   0  0  0  0  0  3  0  0  0  0  0  0
  187.3160  175.7570  142.9700 C   0  0  0  0  0  3  0  0  0  0  0  0
  186.9630  178.4860  142.4740 C   0  0  0  0  0  3  0  0  0  0  0  0
  188.4070  176.5370  142.5740 C   0  0  0  0  0  0  0  0  0  0  0  0
  185.8700  177.7060  142.8760 C   0  0  0  0  0  0  0  0  0  0  0  0
  184.2990  179.1790  144.1090 O   0  0  0  0  0  1  0  0  0  0  0  0
  183.6110  178.0570  142.2380 O   0  0  0  0  0  0  0  0  0  0  0  0
  184.5410  178.3140  143.0480 C   0  0  0  0  0  0  0  0  0  0  0  0
  189.7300  173.6030  142.4420 O   0  0  0  0  0  0  0  0  0  0  0  0
  189.6090  174.5980  141.7950 N   0  0  0  0  0  0  0  0  0  0  0  0
  1 15  1  6  0  0  0
  1  4  1  0  0  0  0
  2  6  1  0  0  0  0
  2  4  1  0  0  0  0
  4  3  2  0  0  0  0
  5  6  1  0  0  0  0
  8 10  1  1  0  0  0
  8  7  1  0  0  0  0
  9  1  1  6  0  0  0
  9  8  1  0  0  0  0
  9  7  1  0  0  0  0
 11 10  1  0  0  0  0
 12 11  1  0  0  0  0
 14 12  1  0  0  0  0
 14 13  1  0  0  0  0
 16 15  1  0  0  0  0
 17 22  1  0  0  0  0
 17 16  1  1  0  0  0
 18 21  2  0  0  0  0
 18 22  1  0  0  0  0
 20 19  1  0  0  0  0
 21 23  1  0  0  0  0
 22 20  2  0  0  0  0
 23 26  1  0  0  0  0
 23 19  2  0  0  0  0
 25 26  2  0  0  0  0
 26 24  1  0  0  0  0
 28 17  1  0  0  0  0
 28 27  2  0  0  0  0
M  END
>  <MODEL>
4

>  <REMARK>
 VINA RESULT:      -5.5      1.699      2.172
  Name = 
  13 active torsions:
  status: ('A' for Active; 'I' for Inactive)
    1  A    between atoms: C_1  and  C_18
    2  A    between atoms: C_1  and  N_22
    3  A    between atoms: C_2  and  N_22
    4  A    between atoms: C_2  and  C_27
    5  A    between atoms: C_3  and  C_6
    6  A    between atoms: C_3  and  S_20
    7  A    between atoms: N_4  and  C_23
    8  A    between atoms: C_6  and  N_19
    9  A    between atoms: C_6  and  C_21
   10  A    between atoms: C_13  and  C_15
   11  A    between atoms: C_13  and  S_20
   12  A    between atoms: C_13  and  C_24
   13  A    between atoms: C_26  and  C_28
                            x       y       z     vdW  Elec       q    Type
                         _______ _______ _______ _____ _____    ______ ____

>  <TORSDO>
F 13

$$$$
=
 OpenBabel11062419563D

 28 29  0  0  1  0  0  0  0  0999 V2000
  190.6990  174.6360  145.7930 C   0  0  2  0  0  3  0  0  0  0  0  0
  188.5810  175.9880  145.9950 N   0  0  0  0  0  2  0  0  0  0  0  0
  189.0960  174.3230  147.5490 O   0  0  0  0  0  0  0  0  0  0  0  0
  189.4180  174.9490  146.5010 C   0  0  0  0  0  0  0  0  0  0  0  0
  187.1220  177.8420  146.5420 C   0  0  0  0  0  1  0  0  0  0  0  0
  187.3260  176.3450  146.6350 C   0  0  0  0  0  2  0  0  0  0  0  0
  192.0820  176.3880  146.8810 C   0  0  0  0  0  2  0  0  0  0  0  0
  192.9840  175.5890  145.9620 C   0  0  1  0  0  3  0  0  0  0  0  0
  191.5510  175.8780  145.5570 C   0  0  1  0  0  3  0  0  0  0  0  0
  193.9020  176.5360  145.2200 C   0  0  0  0  0  2  0  0  0  0  0  0
  195.2150  175.9320  145.0900 N   0  0  0  0  0  2  0  0  0  0  0  0
  195.1400  174.6290  145.7270 C   0  0  0  0  0  2  0  0  0  0  0  0
  196.4540  172.5210  145.9010 C   0  0  0  0  0  1  0  0  0  0  0  0
  196.5300  174.0360  145.8620 C   0  0  0  0  0  2  0  0  0  0  0  0
  190.4100  173.6940  144.2510 S   0  0  0  0  0  0  0  0  0  0  0  0
  190.6010  175.1180  143.1290 C   0  0  0  0  0  2  0  0  0  0  0  0
  189.5340  175.0780  142.0450 C   0  0  2  0  0  3  0  0  0  0  0  0
  187.1360  175.5480  142.6880 C   0  0  0  0  0  3  0  0  0  0  0  0
  187.6300  178.2980  142.6420 C   0  0  0  0  0  3  0  0  0  0  0  0
  188.6580  177.4000  142.3440 C   0  0  0  0  0  3  0  0  0  0  0  0
  186.1080  176.4490  142.9820 C   0  0  0  0  0  3  0  0  0  0  0  0
  188.4160  176.0230  142.3620 C   0  0  0  0  0  0  0  0  0  0  0  0
  186.3480  177.8290  142.9600 C   0  0  0  0  0  0  0  0  0  0  0  0
  183.9500  178.4660  142.9480 O   0  0  0  0  0  0  0  0  0  0  0  0
  185.5240  179.8890  143.8010 O   0  0  0  0  0  1  0  0  0  0  0  0
  185.2670  178.7820  143.2600 C   0  0  0  0  0  0  0  0  0  0  0  0
  189.1740  173.1470  140.8700 O   0  0  0  0  0  0  0  0  0  0  0  0
  189.0260  173.7380  141.8960 N   0  0  0  0  0  0  0  0  0  0  0  0
  1 15  1  6  0  0  0
  1  4  1  0  0  0  0
  2  4  1  0  0  0  0
  2  6  1  0  0  0  0
  4  3  2  0  0  0  0
  5  6  1  0  0  0  0
  8 10  1  6  0  0  0
  8  7  1  0  0  0  0
  9  1  1  1  0  0  0
  9  8  1  0  0  0  0
  9  7  1  0  0  0  0
 11 10  1  0  0  0  0
 11 12  1  0  0  0  0
 12 14  1  0  0  0  0
 14 13  1  0  0  0  0
 16 15  1  0  0  0  0
 17 22  1  0  0  0  0
 17 16  1  1  0  0  0
 18 21  1  0  0  0  0
 19 23  1  0  0  0  0
 20 22  1  0  0  0  0
 20 19  2  0  0  0  0
 22 18  2  0  0  0  0
 23 21  2  0  0  0  0
 23 26  1  0  0  0  0
 24 26  2  0  0  0  0
 26 25  1  0  0  0  0
 27 28  2  0  0  0  0
 28 17  1  0  0  0  0
M  END
>  <MODEL>
5

>  <REMARK>
 VINA RESULT:      -5.4      1.982      5.211
  Name = 
  13 active torsions:
  status: ('A' for Active; 'I' for Inactive)
    1  A    between atoms: C_1  and  C_18
    2  A    between atoms: C_1  and  N_22
    3  A    between atoms: C_2  and  N_22
    4  A    between atoms: C_2  and  C_27
    5  A    between atoms: C_3  and  C_6
    6  A    between atoms: C_3  and  S_20
    7  A    between atoms: N_4  and  C_23
    8  A    between atoms: C_6  and  N_19
    9  A    between atoms: C_6  and  C_21
   10  A    between atoms: C_13  and  C_15
   11  A    between atoms: C_13  and  S_20
   12  A    between atoms: C_13  and  C_24
   13  A    between atoms: C_26  and  C_28
                            x       y       z     vdW  Elec       q    Type
                         _______ _______ _______ _____ _____    ______ ____

>  <TORSDO>
F 13

$$$$
=
 OpenBabel11062419563D

 28 29  0  0  1  0  0  0  0  0999 V2000
  190.1410  174.4450  142.7240 C   0  0  2  0  0  3  0  0  0  0  0  0
  190.4840  172.1180  141.8170 N   0  0  0  0  0  2  0  0  0  0  0  0
  189.8010  172.4580  144.0240 O   0  0  0  0  0  0  0  0  0  0  0  0
  190.1360  172.9600  142.9160 C   0  0  0  0  0  0  0  0  0  0  0  0
  191.8550  170.1430  141.5210 C   0  0  0  0  0  1  0  0  0  0  0  0
  190.4960  170.6690  141.9330 C   0  0  0  0  0  2  0  0  0  0  0  0
  187.7260  174.5660  142.1590 C   0  0  0  0  0  2  0  0  0  0  0  0
  188.2470  175.9840  142.2790 C   0  0  1  0  0  3  0  0  0  0  0  0
  189.1250  174.9000  141.6830 C   0  0  1  0  0  3  0  0  0  0  0  0
  187.6740  176.8200  141.1560 C   0  0  0  0  0  2  0  0  0  0  0  0
  186.3520  177.2900  141.5300 N   0  0  0  0  0  2  0  0  0  0  0  0
  186.5480  178.4210  142.4180 C   0  0  0  0  0  2  0  0  0  0  0  0
  185.5340  179.7410  144.2710 C   0  0  0  0  0  1  0  0  0  0  0  0
  185.4410  178.4650  143.4560 C   0  0  0  0  0  2  0  0  0  0  0  0
  191.8220  175.0780  142.3720 S   0  0  0  0  0  0  0  0  0  0  0  0
  191.8410  176.3030  143.7210 C   0  0  0  0  0  2  0  0  0  0  0  0
  191.5120  175.6300  145.0450 C   0  0  2  0  0  3  0  0  0  0  0  0
  189.6380  177.3190  145.1850 C   0  0  0  0  0  3  0  0  0  0  0  0
  188.1930  175.6240  146.8730 C   0  0  0  0  0  3  0  0  0  0  0  0
  189.4450  175.2300  146.3940 C   0  0  0  0  0  3  0  0  0  0  0  0
  188.3870  177.7140  145.6680 C   0  0  0  0  0  3  0  0  0  0  0  0
  190.1740  176.0760  145.5520 C   0  0  0  0  0  0  0  0  0  0  0  0
  187.6570  176.8690  146.5160 C   0  0  0  0  0  0  0  0  0  0  0  0
  185.1810  176.7040  146.5400 O   0  0  0  0  0  0  0  0  0  0  0  0
  186.2600  178.1640  147.9310 O   0  0  0  0  0  1  0  0  0  0  0  0
  186.3440  177.2830  147.0350 C   0  0  0  0  0  0  0  0  0  0  0  0
  193.3290  176.7860  145.8190 O   0  0  0  0  0  0  0  0  0  0  0  0
  192.5340  175.9190  146.0190 N   0  0  0  0  0  0  0  0  0  0  0  0
  1 15  1  6  0  0  0
  1  4  1  0  0  0  0
  2  6  1  0  0  0  0
  2  4  1  0  0  0  0
  4  3  2  0  0  0  0
  5  6  1  0  0  0  0
  7  8  1  0  0  0  0
  8 10  1  6  0  0  0
  9  7  1  0  0  0  0
  9  8  1  0  0  0  0
  9  1  1  1  0  0  0
 10 11  1  0  0  0  0
 11 12  1  0  0  0  0
 12 14  1  0  0  0  0
 14 13  1  0  0  0  0
 15 16  1  0  0  0  0
 17 16  1  6  0  0  0
 17 22  1  0  0  0  0
 17 28  1  0  0  0  0
 18 22  2  0  0  0  0
 18 21  1  0  0  0  0
 20 19  2  0  0  0  0
 21 23  2  0  0  0  0
 22 20  1  0  0  0  0
 23 19  1  0  0  0  0
 23 26  1  0  0  0  0
 24 26  2  0  0  0  0
 26 25  1  0  0  0  0
 27 28  2  0  0  0  0
M  END
>  <MODEL>
6

>  <REMARK>
 VINA RESULT:      -5.4      2.323      5.040
  Name = 
  13 active torsions:
  status: ('A' for Active; 'I' for Inactive)
    1  A    between atoms: C_1  and  C_18
    2  A    between atoms: C_1  and  N_22
    3  A    between atoms: C_2  and  N_22
    4  A    between atoms: C_2  and  C_27
    5  A    between atoms: C_3  and  C_6
    6  A    between atoms: C_3  and  S_20
    7  A    between atoms: N_4  and  C_23
    8  A    between atoms: C_6  and  N_19
    9  A    between atoms: C_6  and  C_21
   10  A    between atoms: C_13  and  C_15
   11  A    between atoms: C_13  and  S_20
   12  A    between atoms: C_13  and  C_24
   13  A    between atoms: C_26  and  C_28
                            x       y       z     vdW  Elec       q    Type
                         _______ _______ _______ _____ _____    ______ ____

>  <TORSDO>
F 13

$$$$
=
 OpenBabel11062419563D

 28 29  0  0  1  0  0  0  0  0999 V2000
  190.6010  175.2070  145.1720 C   0  0  2  0  0  3  0  0  0  0  0  0
  192.7970  176.2140  145.8920 N   0  0  0  0  0  2  0  0  0  0  0  0
  192.3920  173.9260  146.1200 O   0  0  0  0  0  0  0  0  0  0  0  0
  191.9670  175.0600  145.7650 C   0  0  0  0  0  0  0  0  0  0  0  0
  195.1350  175.8960  145.3460 C   0  0  0  0  0  1  0  0  0  0  0  0
  194.1350  176.1410  146.4560 C   0  0  0  0  0  2  0  0  0  0  0  0
  189.9500  175.8660  147.4760 C   0  0  0  0  0  2  0  0  0  0  0  0
  188.9950  176.5410  146.5130 C   0  0  1  0  0  3  0  0  0  0  0  0
  189.5000  175.1410  146.2240 C   0  0  1  0  0  3  0  0  0  0  0  0
  187.5880  176.4510  147.0620 C   0  0  0  0  0  2  0  0  0  0  0  0
  186.9360  177.7400  146.9330 N   0  0  0  0  0  2  0  0  0  0  0  0
  185.5350  177.5330  147.2540 C   0  0  0  0  0  2  0  0  0  0  0  0
  185.4240  179.3130  145.5160 C   0  0  0  0  0  1  0  0  0  0  0  0
  184.6580  178.2050  146.2140 C   0  0  0  0  0  2  0  0  0  0  0  0
  190.3220  174.0220  143.8060 S   0  0  0  0  0  0  0  0  0  0  0  0
  190.1310  175.2850  142.5050 C   0  0  0  0  0  2  0  0  0  0  0  0
  189.7420  176.6200  143.1240 C   0  0  2  0  0  3  0  0  0  0  0  0
  188.1700  177.9230  141.6350 C   0  0  0  0  0  3  0  0  0  0  0  0
  185.9640  176.8470  142.9690 C   0  0  0  0  0  3  0  0  0  0  0  0
  187.2570  176.4860  143.3570 C   0  0  0  0  0  3  0  0  0  0  0  0
  186.8760  178.2850  141.2500 C   0  0  0  0  0  3  0  0  0  0  0  0
  188.3650  177.0250  142.6950 C   0  0  0  0  0  0  0  0  0  0  0  0
  185.7650  177.7500  141.9160 C   0  0  0  0  0  0  0  0  0  0  0  0
  183.4090  178.2860  142.4850 O   0  0  0  0  0  1  0  0  0  0  0  0
  184.1170  178.3300  140.3100 O   0  0  0  0  0  0  0  0  0  0  0  0
  184.4000  178.1350  141.5220 C   0  0  0  0  0  0  0  0  0  0  0  0
  191.8650  177.3990  142.7710 O   0  0  0  0  0  0  0  0  0  0  0  0
  190.6960  177.6360  142.7570 N   0  0  0  0  0  0  0  0  0  0  0  0
  1 15  1  6  0  0  0
  1  4  1  0  0  0  0
  2  6  1  0  0  0  0
  4  2  1  0  0  0  0
  4  3  2  0  0  0  0
  5  6  1  0  0  0  0
  8 10  1  1  0  0  0
  8  7  1  0  0  0  0
  9  1  1  6  0  0  0
  9  8  1  0  0  0  0
  9  7  1  0  0  0  0
 11 10  1  0  0  0  0
 11 12  1  0  0  0  0
 13 14  1  0  0  0  0
 14 12  1  0  0  0  0
 16 15  1  0  0  0  0
 17 16  1  6  0  0  0
 18 22  1  0  0  0  0
 19 20  1  0  0  0  0
 21 18  2  0  0  0  0
 21 23  1  0  0  0  0
 22 17  1  0  0  0  0
 22 20  2  0  0  0  0
 23 19  2  0  0  0  0
 25 26  2  0  0  0  0
 26 23  1  0  0  0  0
 26 24  1  0  0  0  0
 28 27  2  0  0  0  0
 28 17  1  0  0  0  0
M  END
>  <MODEL>
7

>  <REMARK>
 VINA RESULT:      -5.3      1.877      2.388
  Name = 
  13 active torsions:
  status: ('A' for Active; 'I' for Inactive)
    1  A    between atoms: C_1  and  C_18
    2  A    between atoms: C_1  and  N_22
    3  A    between atoms: C_2  and  N_22
    4  A    between atoms: C_2  and  C_27
    5  A    between atoms: C_3  and  C_6
    6  A    between atoms: C_3  and  S_20
    7  A    between atoms: N_4  and  C_23
    8  A    between atoms: C_6  and  N_19
    9  A    between atoms: C_6  and  C_21
   10  A    between atoms: C_13  and  C_15
   11  A    between atoms: C_13  and  S_20
   12  A    between atoms: C_13  and  C_24
   13  A    between atoms: C_26  and  C_28
                            x       y       z     vdW  Elec       q    Type
                         _______ _______ _______ _____ _____    ______ ____

>  <TORSDO>
F 13

$$$$
=
 OpenBabel11062419563D

 28 29  0  0  1  0  0  0  0  0999 V2000
  190.3880  174.3480  143.1790 C   0  0  2  0  0  3  0  0  0  0  0  0
  191.0200  173.1700  141.0420 N   0  0  0  0  0  2  0  0  0  0  0  0
  190.3390  171.9650  142.9230 O   0  0  0  0  0  0  0  0  0  0  0  0
  190.5840  173.0860  142.3990 C   0  0  0  0  0  0  0  0  0  0  0  0
  190.3020  172.0310  139.0280 C   0  0  0  0  0  1  0  0  0  0  0  0
  191.2270  171.9840  140.2270 C   0  0  0  0  0  2  0  0  0  0  0  0
  188.0930  174.8180  142.3560 C   0  0  0  0  0  2  0  0  0  0  0  0
  188.4390  175.8690  143.3920 C   0  0  1  0  0  3  0  0  0  0  0  0
  189.5070  175.3540  142.4470 C   0  0  1  0  0  3  0  0  0  0  0  0
  187.9670  177.2210  142.9060 C   0  0  0  0  0  2  0  0  0  0  0  0
  186.5280  177.3180  143.0720 N   0  0  0  0  0  2  0  0  0  0  0  0
  186.1660  178.6920  142.7730 C   0  0  0  0  0  2  0  0  0  0  0  0
  184.1460  179.0370  144.1880 C   0  0  0  0  0  1  0  0  0  0  0  0
  185.6170  179.3670  144.0160 C   0  0  0  0  0  2  0  0  0  0  0  0
  191.9830  175.0790  143.7010 S   0  0  0  0  0  0  0  0  0  0  0  0
  192.0320  174.2630  145.3300 C   0  0  0  0  0  2  0  0  0  0  0  0
  191.9310  175.3010  146.4380 C   0  0  2  0  0  3  0  0  0  0  0  0
  189.4940  174.8970  146.9680 C   0  0  0  0  0  3  0  0  0  0  0  0
  188.9170  177.5950  146.5240 C   0  0  0  0  0  3  0  0  0  0  0  0
  190.2270  177.1290  146.3780 C   0  0  0  0  0  3  0  0  0  0  0  0
  188.1840  175.3650  147.1100 C   0  0  0  0  0  3  0  0  0  0  0  0
  190.5200  175.7790  146.5950 C   0  0  0  0  0  0  0  0  0  0  0  0
  187.8880  176.7170  146.8880 C   0  0  0  0  0  0  0  0  0  0  0  0
  186.2300  178.2720  147.8850 O   0  0  0  0  0  1  0  0  0  0  0  0
  185.5710  176.6850  146.3740 O   0  0  0  0  0  0  0  0  0  0  0  0
  186.5090  177.2130  147.0280 C   0  0  0  0  0  0  0  0  0  0  0  0
  193.8610  176.5020  146.7080 O   0  0  0  0  0  0  0  0  0  0  0  0
  192.8040  176.4130  146.1610 N   0  0  0  0  0  0  0  0  0  0  0  0
  1  4  1  6  0  0  0
  1 15  1  0  0  0  0
  2  4  1  0  0  0  0
  4  3  2  0  0  0  0
  5  6  1  0  0  0  0
  6  2  1  0  0  0  0
  7  9  1  0  0  0  0
  7  8  1  0  0  0  0
  8 10  1  6  0  0  0
  9  1  1  1  0  0  0
  9  8  1  0  0  0  0
 10 11  1  0  0  0  0
 12 11  1  0  0  0  0
 12 14  1  0  0  0  0
 14 13  1  0  0  0  0
 15 16  1  0  0  0  0
 17 16  1  6  0  0  0
 17 22  1  0  0  0  0
 18 21  1  0  0  0  0
 19 23  1  0  0  0  0
 20 19  2  0  0  0  0
 20 22  1  0  0  0  0
 22 18  2  0  0  0  0
 23 26  1  0  0  0  0
 23 21  2  0  0  0  0
 25 26  2  0  0  0  0
 26 24  1  0  0  0  0
 28 17  1  0  0  0  0
 28 27  2  0  0  0  0
M  END
>  <MODEL>
8

>  <REMARK>
 VINA RESULT:      -5.3      2.370      5.019
  Name = 
  13 active torsions:
  status: ('A' for Active; 'I' for Inactive)
    1  A    between atoms: C_1  and  C_18
    2  A    between atoms: C_1  and  N_22
    3  A    between atoms: C_2  and  N_22
    4  A    between atoms: C_2  and  C_27
    5  A    between atoms: C_3  and  C_6
    6  A    between atoms: C_3  and  S_20
    7  A    between atoms: N_4  and  C_23
    8  A    between atoms: C_6  and  N_19
    9  A    between atoms: C_6  and  C_21
   10  A    between atoms: C_13  and  C_15
   11  A    between atoms: C_13  and  S_20
   12  A    between atoms: C_13  and  C_24
   13  A    between atoms: C_26  and  C_28
                            x       y       z     vdW  Elec       q    Type
                         _______ _______ _______ _____ _____    ______ ____

>  <TORSDO>
F 13

$$$$
=
 OpenBabel11062419563D

 28 29  0  0  1  0  0  0  0  0999 V2000
  191.7630  174.4790  144.3810 C   0  0  2  0  0  3  0  0  0  0  0  0
  194.2040  174.1540  143.8430 N   0  0  0  0  0  2  0  0  0  0  0  0
  193.3720  173.6940  145.9760 O   0  0  0  0  0  0  0  0  0  0  0  0
  193.1470  174.0940  144.8000 C   0  0  0  0  0  0  0  0  0  0  0  0
  196.4100  175.0480  144.2940 C   0  0  0  0  0  1  0  0  0  0  0  0
  195.5700  173.7920  144.1830 C   0  0  0  0  0  2  0  0  0  0  0  0
  190.0280  172.7160  144.6050 C   0  0  0  0  0  2  0  0  0  0  0  0
  189.5650  173.6910  143.5420 C   0  0  1  0  0  3  0  0  0  0  0  0
  191.0360  173.3460  143.6650 C   0  0  1  0  0  3  0  0  0  0  0  0
  188.9770  172.9190  142.3810 C   0  0  0  0  0  2  0  0  0  0  0  0
  187.6570  173.4390  142.0740 N   0  0  0  0  0  2  0  0  0  0  0  0
  187.7100  174.8720  142.3030 C   0  0  0  0  0  2  0  0  0  0  0  0
  187.6480  177.0650  141.1260 C   0  0  0  0  0  1  0  0  0  0  0  0
  188.0040  175.5960  141.0020 C   0  0  0  0  0  2  0  0  0  0  0  0
  191.7550  176.0280  143.4060 S   0  0  0  0  0  0  0  0  0  0  0  0
  191.2990  177.1160  144.7960 C   0  0  0  0  0  2  0  0  0  0  0  0
  190.4780  176.3430  145.8180 C   0  0  2  0  0  3  0  0  0  0  0  0
  188.1000  176.2350  146.6670 C   0  0  0  0  0  3  0  0  0  0  0  0
  187.2640  177.9660  144.6380 C   0  0  0  0  0  3  0  0  0  0  0  0
  188.6080  177.5930  144.7270 C   0  0  0  0  0  3  0  0  0  0  0  0
  186.7560  176.6060  146.5740 C   0  0  0  0  0  3  0  0  0  0  0  0
  189.0310  176.7240  145.7380 C   0  0  0  0  0  0  0  0  0  0  0  0
  186.3290  177.4730  145.5590 C   0  0  0  0  0  0  0  0  0  0  0  0
  184.3800  178.2310  144.2220 O   0  0  0  0  0  0  0  0  0  0  0  0
  184.1710  177.8560  146.4690 O   0  0  0  0  0  1  0  0  0  0  0  0
  184.9130  177.8590  145.4510 C   0  0  0  0  0  0  0  0  0  0  0  0
  191.4990  175.7030  147.7640 O   0  0  0  0  0  0  0  0  0  0  0  0
  190.9830  176.5840  147.1460 N   0  0  0  0  0  0  0  0  0  0  0  0
  1 15  1  6  0  0  0
  1  4  1  0  0  0  0
  2  6  1  0  0  0  0
  2  4  1  0  0  0  0
  4  3  2  0  0  0  0
  6  5  1  0  0  0  0
  8 10  1  6  0  0  0
  8  9  1  0  0  0  0
  8  7  1  0  0  0  0
  9  1  1  1  0  0  0
  9  7  1  0  0  0  0
 11 12  1  0  0  0  0
 11 10  1  0  0  0  0
 14 13  1  0  0  0  0
 14 12  1  0  0  0  0
 15 16  1  0  0  0  0
 17 16  1  6  0  0  0
 17 28  1  0  0  0  0
 19 20  2  0  0  0  0
 19 23  1  0  0  0  0
 20 22  1  0  0  0  0
 21 18  1  0  0  0  0
 22 17  1  0  0  0  0
 22 18  2  0  0  0  0
 23 21  2  0  0  0  0
 24 26  2  0  0  0  0
 26 23  1  0  0  0  0
 26 25  1  0  0  0  0
 28 27  2  0  0  0  0
M  END
>  <MODEL>
9

>  <REMARK>
 VINA RESULT:      -5.1      2.528      4.467
  Name = 
  13 active torsions:
  status: ('A' for Active; 'I' for Inactive)
    1  A    between atoms: C_1  and  C_18
    2  A    between atoms: C_1  and  N_22
    3  A    between atoms: C_2  and  N_22
    4  A    between atoms: C_2  and  C_27
    5  A    between atoms: C_3  and  C_6
    6  A    between atoms: C_3  and  S_20
    7  A    between atoms: N_4  and  C_23
    8  A    between atoms: C_6  and  N_19
    9  A    between atoms: C_6  and  C_21
   10  A    between atoms: C_13  and  C_15
   11  A    between atoms: C_13  and  S_20
   12  A    between atoms: C_13  and  C_24
   13  A    between atoms: C_26  and  C_28
                            x       y       z     vdW  Elec       q    Type
                         _______ _______ _______ _____ _____    ______ ____

>  <TORSDO>
F 13

$$$$
