=
 OpenBabel11062422153D

 44 50  0  0  1  0  0  0  0  0999 V2000
  192.8680  173.5420  139.2910 C   0  0  0  0  0  2  0  0  0  0  0  0
  193.0280  171.5220  143.0590 C   0  0  1  0  0  3  0  0  0  0  0  0
  189.7540  173.6940  142.7750 C   0  0  0  0  0  0  0  0  0  0  0  0
  192.9870  172.2310  145.3090 O   0  0  0  0  0  0  0  0  0  0  0  0
  191.6540  174.5130  141.2850 C   0  0  0  0  0  2  0  0  0  0  0  0
  190.9830  178.1660  143.6260 C   0  0  0  0  0  2  0  0  0  0  0  0
  190.8920  174.7570  146.2700 C   0  0  1  0  0  3  0  0  0  0  0  0
  190.5620  176.7080  147.7900 O   0  0  0  0  0  1  0  0  0  0  0  0
  189.2470  174.4360  147.9750 O   0  0  0  0  0  1  0  0  0  0  0  0
  193.7470  170.2100  143.2550 C   0  0  0  0  0  2  0  0  0  0  0  0
  190.8400  172.0280  144.3570 C   0  0  0  0  0  2  0  0  0  0  0  0
  191.3060  176.9440  142.7810 C   0  0  0  0  0  2  0  0  0  0  0  0
  194.3190  172.1480  140.2550 C   0  0  0  0  0  2  0  0  0  0  0  0
  190.2640  173.4410  144.1760 C   0  0  1  0  0  3  0  0  0  0  0  0
  195.0090  170.1190  141.9620 S   0  0  0  0  0  0  0  0  0  0  0  0
  191.0070  177.8190  145.1100 C   0  0  0  0  0  2  0  0  0  0  0  0
  194.0190  173.5040  140.0890 O   0  0  0  0  0  0  0  0  0  0  0  0
  188.8500  172.9860  142.3600 O   0  0  0  0  0  0  0  0  0  0  0  0
  190.0270  176.2040  142.3960 C   0  0  0  0  0  2  0  0  0  0  0  0
  192.3370  171.9530  144.3130 C   0  0  0  0  0  0  0  0  0  0  0  0
  194.8710  171.9090  141.6550 C   0  0  2  0  0  3  0  0  0  0  0  0
  191.1080  174.5680  144.7680 C   0  0  0  0  0  2  0  0  0  0  0  0
  190.2430  176.1050  146.5660 C   0  0  1  0  0  0  0  0  0  0  0  0
  189.8630  176.9820  145.4530 N   0  0  0  0  0  0  0  0  0  0  0  0
  190.2650  174.7840  141.8620 C   0  0  2  0  0  3  0  0  0  0  0  0
  191.5850  173.5190  140.1290 C   0  0  2  0  0  3  0  0  0  0  0  0
  194.0070  172.5200  142.6600 N   0  0  0  0  0  2  0  0  0  0  0  0
  189.4070  174.8430  146.6490 C   0  0  1  0  0  3  0  0  0  0  0  0
  188.8760  177.8070  145.8890 O   0  0  0  0  0  0  0  0  0  0  0  0
  185.5620  176.0080  143.4700 O   0  0  0  0  0  1  0  0  0  0  0  0
  186.5030  177.9140  146.0910 C   0  0  0  0  0  2  0  0  0  0  0  0
  186.0070  177.3010  143.7760 C   0  0  1  0  0  0  0  0  0  0  0  0
  187.6860  177.1820  145.5020 C   0  0  1  0  0  3  0  0  0  0  0  0
  185.3770  177.7420  145.0890 C   0  0  0  0  0  2  0  0  0  0  0  0
  187.5060  177.2780  144.0060 C   0  0  0  0  0  2  0  0  0  0  0  0
  184.3720  178.7780  142.8070 O   0  0  0  0  0  0  0  0  0  0  0  0
  185.6650  178.3180  142.6760 C   0  0  2  0  0  3  0  0  0  0  0  0
  184.5740  177.8320  141.7590 C   0  0  0  0  0  0  0  0  0  0  0  0
  183.8570  178.5790  140.6240 C   0  0  0  0  0  2  0  0  0  0  0  0
  185.2880  178.2840  140.4740 C   0  0  0  0  0  2  0  0  0  0  0  0
  191.3540  172.2310  140.6140 O   0  0  0  0  0  0  0  0  0  0  0  0
  190.3710  171.7440  139.8430 O   0  0  0  0  0  0  0  0  0  0  0  0
  189.6490  172.5690  139.0050 N   0  0  0  0  0  0  0  0  0  0  0  0
  188.3560  172.5470  138.9770 C   0  0  0  0  0  2  0  0  0  0  0  0
  1 17  1  0  0  0  0
  1 26  1  0  0  0  0
  2 10  1  1  0  0  0
  2 20  1  0  0  0  0
  3 14  1  0  0  0  0
  6 16  1  0  0  0  0
  7 22  1  6  0  0  0
  7 23  1  0  0  0  0
  7 28  1  0  0  0  0
 12  6  1  0  0  0  0
 14 11  1  6  0  0  0
 14 22  1  0  0  0  0
 15 10  1  0  0  0  0
 16 24  1  0  0  0  0
 17 13  1  0  0  0  0
 18  3  2  0  0  0  0
 19 12  1  0  0  0  0
 20 11  1  0  0  0  0
 20  4  2  0  0  0  0
 21 13  1  6  0  0  0
 21 15  1  0  0  0  0
 21 27  1  0  0  0  0
 23 28  1  0  0  0  0
 23  8  1  1  0  0  0
 24 29  1  0  0  0  0
 24 23  1  0  0  0  0
 25  5  1  1  0  0  0
 25 19  1  0  0  0  0
 25  3  1  0  0  0  0
 26 41  1  1  0  0  0
 26  5  1  0  0  0  0
 27  2  1  0  0  0  0
 28  9  1  1  0  0  0
 32 30  1  6  0  0  0
 32 35  1  0  0  0  0
 32 34  1  0  0  0  0
 33 29  1  6  0  0  0
 33 31  1  0  0  0  0
 34 31  1  0  0  0  0
 35 33  1  0  0  0  0
 37 36  1  1  0  0  0
 37 32  1  0  0  0  0
 38 37  1  0  0  0  0
 38 36  1  0  0  0  0
 39 38  1  0  0  0  0
 40 39  1  0  0  0  0
 40 38  1  0  0  0  0
 42 41  1  0  0  0  0
 43 42  1  0  0  0  0
 44 43  2  0  0  0  0
M  END
>  <MODEL>
1

>  <REMARK>
 VINA RESULT:      -7.4      0.000      0.000
  Name = 
  6 active torsions:
  status: ('A' for Active; 'I' for Inactive)
    1  A    between atoms: O_9  and  C_29
    2  A    between atoms: O_9  and  N_37
    3  A    between atoms: C_11  and  C_25
    4  A    between atoms: N_20  and  O_40
    5  A    between atoms: O_33  and  C_39
    6  A    between atoms: O_33  and  O_40
                            x       y       z     vdW  Elec       q    Type
                         _______ _______ _______ _____ _____    ______ ____

>  <TORSDO>
F 6

$$$$
=
 OpenBabel11062422153D

 44 50  0  0  1  0  0  0  0  0999 V2000
  195.9670  172.4330  145.7340 C   0  0  0  0  0  2  0  0  0  0  0  0
  195.7470  171.6620  141.5320 C   0  0  1  0  0  3  0  0  0  0  0  0
  193.3110  174.5870  142.5470 C   0  0  0  0  0  0  0  0  0  0  0  0
  194.0010  171.0760  140.0560 O   0  0  0  0  0  0  0  0  0  0  0  0
  193.8540  173.0000  144.4670 C   0  0  0  0  0  2  0  0  0  0  0  0
  189.4820  172.6010  144.4520 C   0  0  0  0  0  2  0  0  0  0  0  0
  190.9210  172.5250  140.3840 C   0  0  1  0  0  3  0  0  0  0  0  0
  188.4560  172.2210  140.1580 O   0  0  0  0  0  1  0  0  0  0  0  0
  189.9190  173.7490  138.5930 O   0  0  0  0  0  1  0  0  0  0  0  0
  196.9010  171.1000  140.7400 C   0  0  0  0  0  2  0  0  0  0  0  0
  194.1380  173.3940  140.4620 C   0  0  0  0  0  2  0  0  0  0  0  0
  191.0000  172.6550  144.5210 C   0  0  0  0  0  2  0  0  0  0  0  0
  196.9740  170.9960  144.3550 C   0  0  0  0  0  2  0  0  0  0  0  0
  192.9260  173.8010  141.3140 C   0  0  1  0  0  3  0  0  0  0  0  0
  197.9410  170.2030  141.9170 S   0  0  0  0  0  0  0  0  0  0  0  0
  189.0160  172.2750  143.0380 C   0  0  0  0  0  2  0  0  0  0  0  0
  195.8680  171.1410  145.1990 O   0  0  0  0  0  0  0  0  0  0  0  0
  193.8890  175.6510  142.3880 O   0  0  0  0  0  0  0  0  0  0  0  0
  191.5000  174.0760  144.2720 C   0  0  0  0  0  2  0  0  0  0  0  0
  194.5830  171.9730  140.6450 C   0  0  0  0  0  0  0  0  0  0  0  0
  196.5880  170.1670  143.1350 C   0  0  2  0  0  3  0  0  0  0  0  0
  191.8970  172.6970  141.5500 C   0  0  0  0  0  2  0  0  0  0  0  0
  189.5020  172.8980  140.7990 C   0  0  1  0  0  0  0  0  0  0  0  0
  189.2560  173.4080  142.1510 N   0  0  0  0  0  0  0  0  0  0  0  0
  193.0020  174.1640  143.9640 C   0  0  2  0  0  3  0  0  0  0  0  0
  195.2490  173.4720  144.8680 C   0  0  2  0  0  3  0  0  0  0  0  0
  195.3620  170.6790  142.5320 N   0  0  0  0  0  2  0  0  0  0  0  0
  190.2990  173.8530  139.9320 C   0  0  1  0  0  3  0  0  0  0  0  0
  188.1140  174.1430  142.1200 O   0  0  0  0  0  0  0  0  0  0  0  0
  188.7460  177.9190  144.4480 O   0  0  0  0  0  1  0  0  0  0  0  0
  188.0040  176.4440  141.5050 C   0  0  0  0  0  2  0  0  0  0  0  0
  187.6810  177.3140  143.7670 C   0  0  1  0  0  0  0  0  0  0  0  0
  188.5030  175.4300  142.5070 C   0  0  1  0  0  3  0  0  0  0  0  0
  187.7450  177.7100  142.2990 C   0  0  0  0  0  2  0  0  0  0  0  0
  187.8440  175.8070  143.8120 C   0  0  0  0  0  2  0  0  0  0  0  0
  186.2930  179.0330  144.7210 O   0  0  0  0  0  0  0  0  0  0  0  0
  186.3130  177.7080  144.3450 C   0  0  2  0  0  3  0  0  0  0  0  0
  186.3910  178.1010  145.7960 C   0  0  0  0  0  0  0  0  0  0  0  0
  185.2920  178.6730  146.7060 C   0  0  0  0  0  2  0  0  0  0  0  0
  185.1430  177.3000  146.2050 C   0  0  0  0  0  2  0  0  0  0  0  0
  196.0080  173.7540  143.7310 O   0  0  0  0  0  0  0  0  0  0  0  0
  196.8820  174.6920  144.1240 O   0  0  0  0  0  0  0  0  0  0  0  0
  197.4820  175.5330  143.2090 N   0  0  0  0  0  0  0  0  0  0  0  0
  197.1470  176.7790  143.1070 C   0  0  0  0  0  2  0  0  0  0  0  0
  2 10  1  6  0  0  0
  2 27  1  0  0  0  0
  3 25  1  0  0  0  0
  4 20  2  0  0  0  0
  5 26  1  0  0  0  0
  6 12  1  0  0  0  0
  7 23  1  0  0  0  0
  7 22  1  1  0  0  0
 10 15  1  0  0  0  0
 11 20  1  0  0  0  0
 13 17  1  0  0  0  0
 14 11  1  1  0  0  0
 14 22  1  0  0  0  0
 14  3  1  0  0  0  0
 15 21  1  0  0  0  0
 16  6  1  0  0  0  0
 17  1  1  0  0  0  0
 18  3  2  0  0  0  0
 19 12  1  0  0  0  0
 20  2  1  0  0  0  0
 21 13  1  1  0  0  0
 23  8  1  6  0  0  0
 23 24  1  0  0  0  0
 24 16  1  0  0  0  0
 25 19  1  6  0  0  0
 25  5  1  0  0  0  0
 26 41  1  6  0  0  0
 26  1  1  0  0  0  0
 27 21  1  0  0  0  0
 28  9  1  6  0  0  0
 28  7  1  0  0  0  0
 28 23  1  0  0  0  0
 29 24  1  0  0  0  0
 31 34  1  0  0  0  0
 31 33  1  0  0  0  0
 32 35  1  0  0  0  0
 32 37  1  0  0  0  0
 32 30  1  1  0  0  0
 33 29  1  6  0  0  0
 33 35  1  0  0  0  0
 34 32  1  0  0  0  0
 36 38  1  0  0  0  0
 37 36  1  6  0  0  0
 37 38  1  0  0  0  0
 38 40  1  0  0  0  0
 38 39  1  0  0  0  0
 40 39  1  0  0  0  0
 41 42  1  0  0  0  0
 43 42  1  0  0  0  0
 44 43  2  0  0  0  0
M  END
>  <MODEL>
2

>  <REMARK>
 VINA RESULT:      -7.3      2.550      5.470
  Name = 
  6 active torsions:
  status: ('A' for Active; 'I' for Inactive)
    1  A    between atoms: O_9  and  C_29
    2  A    between atoms: O_9  and  N_37
    3  A    between atoms: C_11  and  C_25
    4  A    between atoms: N_20  and  O_40
    5  A    between atoms: O_33  and  C_39
    6  A    between atoms: O_33  and  O_40
                            x       y       z     vdW  Elec       q    Type
                         _______ _______ _______ _____ _____    ______ ____

>  <TORSDO>
F 6

$$$$
=
 OpenBabel11062422153D

 44 50  0  0  1  0  0  0  0  0999 V2000
  194.2030  173.7920  139.6060 C   0  0  0  0  0  2  0  0  0  0  0  0
  194.8300  172.3920  143.5990 C   0  0  1  0  0  3  0  0  0  0  0  0
  191.1040  173.5680  143.0990 C   0  0  0  0  0  0  0  0  0  0  0  0
  194.5660  173.3500  145.7390 O   0  0  0  0  0  0  0  0  0  0  0  0
  192.7440  174.6580  141.4800 C   0  0  0  0  0  2  0  0  0  0  0  0
  191.0960  178.2770  143.3410 C   0  0  0  0  0  2  0  0  0  0  0  0
  191.8640  175.3370  146.4050 C   0  0  1  0  0  3  0  0  0  0  0  0
  191.0070  177.3120  147.6650 O   0  0  0  0  0  1  0  0  0  0  0  0
  190.3350  174.8170  148.1670 O   0  0  0  0  0  1  0  0  0  0  0  0
  195.8660  171.3530  143.9510 C   0  0  0  0  0  2  0  0  0  0  0  0
  192.5650  172.4670  144.8620 C   0  0  0  0  0  2  0  0  0  0  0  0
  191.7430  177.0840  142.6550 C   0  0  0  0  0  2  0  0  0  0  0  0
  195.9550  172.9670  140.7150 C   0  0  0  0  0  2  0  0  0  0  0  0
  191.6390  173.6420  144.5110 C   0  0  1  0  0  3  0  0  0  0  0  0
  197.1280  171.4310  142.6560 S   0  0  0  0  0  0  0  0  0  0  0  0
  191.1860  178.1430  144.8570 C   0  0  0  0  0  2  0  0  0  0  0  0
  195.3110  174.1620  140.3800 O   0  0  0  0  0  0  0  0  0  0  0  0
  190.4250  172.5990  142.7960 O   0  0  0  0  0  0  0  0  0  0  0  0
  190.7110  175.9900  142.3930 C   0  0  0  0  0  2  0  0  0  0  0  0
  194.0290  172.7840  144.8000 C   0  0  0  0  0  0  0  0  0  0  0  0
  196.5270  173.0650  142.1240 C   0  0  2  0  0  3  0  0  0  0  0  0
  192.1460  175.0190  144.9360 C   0  0  0  0  0  2  0  0  0  0  0  0
  190.8780  176.4930  146.5360 C   0  0  1  0  0  0  0  0  0  0  0  0
  190.2980  177.0870  145.3270 N   0  0  0  0  0  0  0  0  0  0  0  0
  191.3230  174.6260  142.0430 C   0  0  2  0  0  3  0  0  0  0  0  0
  192.9590  173.5400  140.4640 C   0  0  2  0  0  3  0  0  0  0  0  0
  195.5170  173.5520  143.0570 N   0  0  0  0  0  2  0  0  0  0  0  0
  190.4040  175.0780  146.7970 C   0  0  1  0  0  3  0  0  0  0  0  0
  189.1220  177.6720  145.6710 O   0  0  0  0  0  0  0  0  0  0  0  0
  186.2930  175.7230  142.7940 O   0  0  0  0  0  1  0  0  0  0  0  0
  186.8380  177.0160  145.8640 C   0  0  0  0  0  2  0  0  0  0  0  0
  186.3710  176.9510  143.4640 C   0  0  1  0  0  0  0  0  0  0  0  0
  188.1350  176.8580  145.1060 C   0  0  1  0  0  3  0  0  0  0  0  0
  185.7380  176.8050  144.8400 C   0  0  0  0  0  2  0  0  0  0  0  0
  187.8270  177.3070  143.6970 C   0  0  0  0  0  2  0  0  0  0  0  0
  184.3240  178.1200  142.9760 O   0  0  0  0  0  0  0  0  0  0  0  0
  185.6740  178.0860  142.6980 C   0  0  2  0  0  3  0  0  0  0  0  0
  184.6660  177.5760  141.7030 C   0  0  0  0  0  0  0  0  0  0  0  0
  183.6760  178.3670  140.8340 C   0  0  0  0  0  2  0  0  0  0  0  0
  185.1130  178.5290  140.5800 C   0  0  0  0  0  2  0  0  0  0  0  0
  193.0680  172.3110  141.1160 O   0  0  0  0  0  0  0  0  0  0  0  0
  192.4090  171.4450  140.3310 O   0  0  0  0  0  0  0  0  0  0  0  0
  191.3130  171.8450  139.5940 N   0  0  0  0  0  0  0  0  0  0  0  0
  190.9380  171.2090  138.5320 C   0  0  0  0  0  2  0  0  0  0  0  0
  1 17  1  0  0  0  0
  1 26  1  0  0  0  0
  2 10  1  1  0  0  0
  2 20  1  0  0  0  0
  3 14  1  0  0  0  0
  6 16  1  0  0  0  0
  7 22  1  6  0  0  0
  7 23  1  0  0  0  0
  7 28  1  0  0  0  0
 12  6  1  0  0  0  0
 14 11  1  6  0  0  0
 14 22  1  0  0  0  0
 15 10  1  0  0  0  0
 16 24  1  0  0  0  0
 17 13  1  0  0  0  0
 18  3  2  0  0  0  0
 19 12  1  0  0  0  0
 20 11  1  0  0  0  0
 20  4  2  0  0  0  0
 21 13  1  6  0  0  0
 21 15  1  0  0  0  0
 21 27  1  0  0  0  0
 23 28  1  0  0  0  0
 23  8  1  1  0  0  0
 24 29  1  0  0  0  0
 24 23  1  0  0  0  0
 25  5  1  1  0  0  0
 25 19  1  0  0  0  0
 25  3  1  0  0  0  0
 26 41  1  1  0  0  0
 26  5  1  0  0  0  0
 27  2  1  0  0  0  0
 28  9  1  1  0  0  0
 32 30  1  6  0  0  0
 32 35  1  0  0  0  0
 32 34  1  0  0  0  0
 33 29  1  1  0  0  0
 33 31  1  0  0  0  0
 34 31  1  0  0  0  0
 35 33  1  0  0  0  0
 37 36  1  1  0  0  0
 37 32  1  0  0  0  0
 38 37  1  0  0  0  0
 38 36  1  0  0  0  0
 39 38  1  0  0  0  0
 40 39  1  0  0  0  0
 40 38  1  0  0  0  0
 42 41  1  0  0  0  0
 43 42  1  0  0  0  0
 44 43  2  0  0  0  0
M  END
>  <MODEL>
3

>  <REMARK>
 VINA RESULT:      -7.0      1.341      1.411
  Name = 
  6 active torsions:
  status: ('A' for Active; 'I' for Inactive)
    1  A    between atoms: O_9  and  C_29
    2  A    between atoms: O_9  and  N_37
    3  A    between atoms: C_11  and  C_25
    4  A    between atoms: N_20  and  O_40
    5  A    between atoms: O_33  and  C_39
    6  A    between atoms: O_33  and  O_40
                            x       y       z     vdW  Elec       q    Type
                         _______ _______ _______ _____ _____    ______ ____

>  <TORSDO>
F 6

$$$$
=
 OpenBabel11062422153D

 44 50  0  0  1  0  0  0  0  0999 V2000
  196.4550  172.2210  143.9690 C   0  0  0  0  0  2  0  0  0  0  0  0
  195.2050  171.7960  139.8990 C   0  0  1  0  0  3  0  0  0  0  0  0
  193.1700  174.6500  141.6960 C   0  0  0  0  0  0  0  0  0  0  0  0
  193.1390  171.3470  138.8510 O   0  0  0  0  0  0  0  0  0  0  0  0
  194.1160  172.9080  143.3000 C   0  0  0  0  0  2  0  0  0  0  0  0
  189.8600  172.5490  144.3160 C   0  0  0  0  0  2  0  0  0  0  0  0
  190.2720  172.7910  140.0280 C   0  0  1  0  0  3  0  0  0  0  0  0
  187.8170  172.5280  140.3840 O   0  0  0  0  0  1  0  0  0  0  0  0
  188.9020  174.1660  138.6320 O   0  0  0  0  0  1  0  0  0  0  0  0
  196.1180  171.2910  138.8100 C   0  0  0  0  0  2  0  0  0  0  0  0
  193.4350  173.6230  139.3880 C   0  0  0  0  0  2  0  0  0  0  0  0
  191.3500  172.5840  144.0180 C   0  0  0  0  0  2  0  0  0  0  0  0
  197.0580  170.8930  142.2800 C   0  0  0  0  0  2  0  0  0  0  0  0
  192.4770  173.9700  140.5380 C   0  0  1  0  0  3  0  0  0  0  0  0
  197.3860  170.2920  139.6280 S   0  0  0  0  0  0  0  0  0  0  0  0
  189.0570  172.3440  143.0370 C   0  0  0  0  0  2  0  0  0  0  0  0
  196.1940  170.9790  143.3760 O   0  0  0  0  0  0  0  0  0  0  0  0
  193.7220  175.7180  141.4840 O   0  0  0  0  0  0  0  0  0  0  0  0
  191.8150  174.0160  143.7650 C   0  0  0  0  0  2  0  0  0  0  0  0
  193.8710  172.1880  139.3480 C   0  0  0  0  0  0  0  0  0  0  0  0
  196.3670  170.1690  141.1310 C   0  0  2  0  0  3  0  0  0  0  0  0
  191.5040  172.8590  140.9310 C   0  0  0  0  0  2  0  0  0  0  0  0
  189.0050  173.1420  140.8010 C   0  0  1  0  0  0  0  0  0  0  0  0
  189.1080  173.5420  142.2080 N   0  0  0  0  0  0  0  0  0  0  0  0
  193.2000  174.1170  143.1090 C   0  0  2  0  0  3  0  0  0  0  0  0
  195.5780  173.3340  143.3850 C   0  0  2  0  0  3  0  0  0  0  0  0
  195.0460  170.7390  140.8850 N   0  0  0  0  0  2  0  0  0  0  0  0
  189.5960  174.1570  139.8430 C   0  0  1  0  0  3  0  0  0  0  0  0
  188.0130  174.2880  142.5110 O   0  0  0  0  0  0  0  0  0  0  0  0
  189.5200  178.1240  144.2690 O   0  0  0  0  0  1  0  0  0  0  0  0
  187.5680  176.5720  141.9950 C   0  0  0  0  0  2  0  0  0  0  0  0
  188.2810  177.4810  144.1510 C   0  0  1  0  0  0  0  0  0  0  0  0
  188.4970  175.5910  142.6690 C   0  0  1  0  0  3  0  0  0  0  0  0
  187.6590  177.8480  142.8110 C   0  0  0  0  0  2  0  0  0  0  0  0
  188.4910  175.9790  144.1290 C   0  0  0  0  0  2  0  0  0  0  0  0
  187.3350  176.9120  146.2890 O   0  0  0  0  0  0  0  0  0  0  0  0
  187.3120  177.8540  145.2840 C   0  0  2  0  0  3  0  0  0  0  0  0
  186.1930  176.8600  145.4370 C   0  0  0  0  0  0  0  0  0  0  0  0
  185.0970  176.7910  146.5120 C   0  0  0  0  0  2  0  0  0  0  0  0
  185.0990  177.9320  145.5880 C   0  0  0  0  0  2  0  0  0  0  0  0
  196.0480  173.7000  142.1230 O   0  0  0  0  0  0  0  0  0  0  0  0
  196.8200  174.7750  142.3410 O   0  0  0  0  0  0  0  0  0  0  0  0
  197.2260  175.5830  141.2980 N   0  0  0  0  0  0  0  0  0  0  0  0
  196.9470  175.2980  140.0680 C   0  0  0  0  0  2  0  0  0  0  0  0
  2 10  1  6  0  0  0
  2 27  1  0  0  0  0
  3 25  1  0  0  0  0
  4 20  2  0  0  0  0
  5 26  1  0  0  0  0
  7 23  1  0  0  0  0
  7 22  1  1  0  0  0
 10 15  1  0  0  0  0
 12  6  1  0  0  0  0
 13 17  1  0  0  0  0
 14 11  1  6  0  0  0
 14 22  1  0  0  0  0
 14  3  1  0  0  0  0
 15 21  1  0  0  0  0
 16  6  1  0  0  0  0
 17  1  1  0  0  0  0
 18  3  2  0  0  0  0
 19 12  1  0  0  0  0
 20 11  1  0  0  0  0
 20  2  1  0  0  0  0
 21 13  1  1  0  0  0
 23  8  1  6  0  0  0
 23 24  1  0  0  0  0
 24 29  1  0  0  0  0
 24 16  1  0  0  0  0
 25  5  1  6  0  0  0
 25 19  1  0  0  0  0
 26 41  1  6  0  0  0
 26  1  1  0  0  0  0
 27 21  1  0  0  0  0
 28  9  1  6  0  0  0
 28  7  1  0  0  0  0
 28 23  1  0  0  0  0
 31 33  1  0  0  0  0
 31 34  1  0  0  0  0
 32 30  1  1  0  0  0
 32 37  1  0  0  0  0
 33 29  1  1  0  0  0
 33 35  1  0  0  0  0
 34 32  1  0  0  0  0
 35 32  1  0  0  0  0
 37 38  1  0  0  0  0
 37 36  1  1  0  0  0
 38 40  1  0  0  0  0
 38 36  1  0  0  0  0
 38 39  1  0  0  0  0
 40 39  1  0  0  0  0
 41 42  1  0  0  0  0
 43 42  1  0  0  0  0
 44 43  2  0  0  0  0
M  END
>  <MODEL>
4

>  <REMARK>
 VINA RESULT:      -6.8      2.584      5.324
  Name = 
  6 active torsions:
  status: ('A' for Active; 'I' for Inactive)
    1  A    between atoms: O_9  and  C_29
    2  A    between atoms: O_9  and  N_37
    3  A    between atoms: C_11  and  C_25
    4  A    between atoms: N_20  and  O_40
    5  A    between atoms: O_33  and  C_39
    6  A    between atoms: O_33  and  O_40
                            x       y       z     vdW  Elec       q    Type
                         _______ _______ _______ _____ _____    ______ ____

>  <TORSDO>
F 6

$$$$
=
 OpenBabel11062422153D

 44 50  0  0  1  0  0  0  0  0999 V2000
  185.6790  176.4700  143.2920 C   0  0  0  0  0  2  0  0  0  0  0  0
  188.1990  177.5410  146.5790 C   0  0  1  0  0  3  0  0  0  0  0  0
  190.3340  176.8960  143.3320 C   0  0  0  0  0  0  0  0  0  0  0  0
  190.0190  176.5030  147.6630 O   0  0  0  0  0  0  0  0  0  0  0  0
  188.0850  175.6950  143.3290 C   0  0  0  0  0  2  0  0  0  0  0  0
  190.7270  172.2230  142.8420 C   0  0  0  0  0  2  0  0  0  0  0  0
  192.3890  174.8530  145.8310 C   0  0  1  0  0  3  0  0  0  0  0  0
  193.9860  172.9380  145.7580 O   0  0  0  0  0  1  0  0  0  0  0  0
  194.6970  175.4660  145.9330 O   0  0  0  0  0  1  0  0  0  0  0  0
  187.7330  178.4130  147.7190 C   0  0  0  0  0  2  0  0  0  0  0  0
  190.6440  177.6910  145.7250 C   0  0  0  0  0  2  0  0  0  0  0  0
  189.7330  173.3570  143.0310 C   0  0  0  0  0  2  0  0  0  0  0  0
  185.3180  176.9920  145.4320 C   0  0  0  0  0  2  0  0  0  0  0  0
  191.0430  176.6700  144.6490 C   0  0  1  0  0  3  0  0  0  0  0  0
  185.9330  178.2460  147.7890 S   0  0  0  0  0  0  0  0  0  0  0  0
  191.7980  172.2550  143.9260 C   0  0  0  0  0  2  0  0  0  0  0  0
  185.5440  175.9130  144.5710 O   0  0  0  0  0  0  0  0  0  0  0  0
  190.5140  177.9610  142.7630 O   0  0  0  0  0  0  0  0  0  0  0  0
  190.1700  174.5920  142.2450 C   0  0  0  0  0  2  0  0  0  0  0  0
  189.6450  177.1880  146.7240 C   0  0  0  0  0  0  0  0  0  0  0  0
  186.0010  176.7380  146.7700 C   0  0  2  0  0  3  0  0  0  0  0  0
  191.0870  175.2160  145.1160 C   0  0  0  0  0  2  0  0  0  0  0  0
  193.1880  173.8310  145.0300 C   0  0  1  0  0  0  0  0  0  0  0  0
  192.6900  173.3900  143.7230 N   0  0  0  0  0  0  0  0  0  0  0  0
  189.4440  175.8810  142.6540 C   0  0  2  0  0  3  0  0  0  0  0  0
  187.1330  176.8320  142.9720 C   0  0  2  0  0  3  0  0  0  0  0  0
  187.3890  176.3340  146.5710 N   0  0  0  0  0  2  0  0  0  0  0  0
  193.6360  175.2790  145.0450 C   0  0  1  0  0  3  0  0  0  0  0  0
  193.7500  172.9450  143.0000 O   0  0  0  0  0  0  0  0  0  0  0  0
  193.9750  173.6750  138.5850 O   0  0  0  0  0  1  0  0  0  0  0  0
  193.8360  174.9470  141.7080 C   0  0  0  0  0  2  0  0  0  0  0  0
  194.7880  173.9310  139.6970 C   0  0  1  0  0  0  0  0  0  0  0  0
  193.5540  173.4630  141.7150 C   0  0  1  0  0  3  0  0  0  0  0  0
  194.3700  175.2540  140.3210 C   0  0  0  0  0  2  0  0  0  0  0  0
  194.5500  172.8660  140.7510 C   0  0  0  0  0  2  0  0  0  0  0  0
  196.7890  175.2530  139.5040 O   0  0  0  0  0  0  0  0  0  0  0  0
  196.2800  173.9830  139.3370 C   0  0  2  0  0  3  0  0  0  0  0  0
  196.5560  174.8680  138.1510 C   0  0  0  0  0  0  0  0  0  0  0  0
  197.9060  175.2900  137.5500 C   0  0  0  0  0  2  0  0  0  0  0  0
  197.5210  173.8750  137.4810 C   0  0  0  0  0  2  0  0  0  0  0  0
  187.4960  177.9970  143.6500 O   0  0  0  0  0  0  0  0  0  0  0  0
  187.0780  178.9990  142.8630 O   0  0  0  0  0  0  0  0  0  0  0  0
  185.8750  179.6330  143.0970 N   0  0  0  0  0  0  0  0  0  0  0  0
  185.5650  180.0970  144.2640 C   0  0  0  0  0  2  0  0  0  0  0  0
  1 17  1  0  0  0  0
  2 20  1  0  0  0  0
  2 10  1  1  0  0  0
  3 14  1  0  0  0  0
  6 12  1  0  0  0  0
  6 16  1  0  0  0  0
  7 22  1  6  0  0  0
 10 15  1  0  0  0  0
 11 20  1  0  0  0  0
 14 22  1  1  0  0  0
 14 11  1  0  0  0  0
 17 13  1  0  0  0  0
 18  3  2  0  0  0  0
 19 12  1  0  0  0  0
 20  4  2  0  0  0  0
 21 13  1  6  0  0  0
 21 15  1  0  0  0  0
 23 28  1  0  0  0  0
 23  8  1  1  0  0  0
 23  7  1  0  0  0  0
 24 16  1  0  0  0  0
 24 23  1  0  0  0  0
 25 19  1  1  0  0  0
 25  5  1  0  0  0  0
 25  3  1  0  0  0  0
 26  1  1  0  0  0  0
 26  5  1  0  0  0  0
 26 41  1  1  0  0  0
 27  2  1  0  0  0  0
 27 21  1  0  0  0  0
 28  7  1  0  0  0  0
 28  9  1  1  0  0  0
 29 24  1  0  0  0  0
 31 33  1  0  0  0  0
 32 30  1  6  0  0  0
 32 34  1  0  0  0  0
 32 35  1  0  0  0  0
 33 29  1  1  0  0  0
 34 31  1  0  0  0  0
 35 33  1  0  0  0  0
 37 36  1  1  0  0  0
 37 32  1  0  0  0  0
 38 37  1  0  0  0  0
 38 36  1  0  0  0  0
 39 38  1  0  0  0  0
 40 39  1  0  0  0  0
 40 38  1  0  0  0  0
 42 43  1  0  0  0  0
 42 41  1  0  0  0  0
 43 44  2  0  0  0  0
M  END
>  <MODEL>
5

>  <REMARK>
 VINA RESULT:      -6.7      3.109      8.389
  Name = 
  6 active torsions:
  status: ('A' for Active; 'I' for Inactive)
    1  A    between atoms: O_9  and  C_29
    2  A    between atoms: O_9  and  N_37
    3  A    between atoms: C_11  and  C_25
    4  A    between atoms: N_20  and  O_40
    5  A    between atoms: O_33  and  C_39
    6  A    between atoms: O_33  and  O_40
                            x       y       z     vdW  Elec       q    Type
                         _______ _______ _______ _____ _____    ______ ____

>  <TORSDO>
F 6

$$$$
=
 OpenBabel11062422153D

 44 50  0  0  1  0  0  0  0  0999 V2000
  191.2010  176.9130  145.4160 C   0  0  0  0  0  2  0  0  0  0  0  0
  188.1490  175.6870  142.6800 C   0  0  1  0  0  3  0  0  0  0  0  0
  190.7020  172.7580  143.3330 C   0  0  0  0  0  0  0  0  0  0  0  0
  188.1570  174.8480  140.4750 O   0  0  0  0  0  0  0  0  0  0  0  0
  191.6810  175.0760  143.7470 C   0  0  0  0  0  2  0  0  0  0  0  0
  194.5270  173.6500  140.7230 C   0  0  0  0  0  2  0  0  0  0  0  0
  190.5260  172.5760  139.5150 C   0  0  1  0  0  3  0  0  0  0  0  0
  191.9630  171.7460  137.6520 O   0  0  0  0  0  1  0  0  0  0  0  0
  189.9230  170.4260  138.6640 O   0  0  0  0  0  1  0  0  0  0  0  0
  186.7590  176.2720  142.6870 C   0  0  0  0  0  2  0  0  0  0  0  0
  188.5190  173.1840  142.1050 C   0  0  0  0  0  2  0  0  0  0  0  0
  193.5810  174.2410  141.7570 C   0  0  0  0  0  2  0  0  0  0  0  0
  189.4120  177.9050  144.5240 C   0  0  0  0  0  2  0  0  0  0  0  0
  189.9820  172.7270  142.0030 C   0  0  1  0  0  3  0  0  0  0  0  0
  186.8980  177.9120  143.4370 S   0  0  0  0  0  0  0  0  0  0  0  0
  193.7540  173.1350  139.5150 C   0  0  0  0  0  2  0  0  0  0  0  0
  190.7830  177.7010  144.3350 O   0  0  0  0  0  0  0  0  0  0  0  0
  190.2690  172.0540  144.2320 O   0  0  0  0  0  0  0  0  0  0  0  0
  193.1560  173.1770  142.7670 C   0  0  0  0  0  2  0  0  0  0  0  0
  188.2720  174.5960  141.6640 C   0  0  0  0  0  0  0  0  0  0  0  0
  188.7000  177.9140  143.1770 C   0  0  2  0  0  3  0  0  0  0  0  0
  190.7670  173.3150  140.8320 C   0  0  0  0  0  2  0  0  0  0  0  0
  191.7960  171.8810  139.0370 C   0  0  1  0  0  0  0  0  0  0  0  0
  193.0040  171.9350  139.8660 N   0  0  0  0  0  0  0  0  0  0  0  0
  191.9400  173.5750  143.6170 C   0  0  2  0  0  3  0  0  0  0  0  0
  191.0920  175.4150  145.1140 C   0  0  2  0  0  3  0  0  0  0  0  0
  189.0890  176.7540  142.3810 N   0  0  0  0  0  2  0  0  0  0  0  0
  190.6820  171.0560  139.6510 C   0  0  1  0  0  3  0  0  0  0  0  0
  193.7800  170.8670  139.5460 O   0  0  0  0  0  0  0  0  0  0  0  0
  192.6100  168.6690  143.2700 O   0  0  0  0  0  1  0  0  0  0  0  0
  194.4180  168.7440  140.4220 C   0  0  0  0  0  2  0  0  0  0  0  0
  193.7890  169.2070  142.7400 C   0  0  1  0  0  0  0  0  0  0  0  0
  193.4100  169.8680  140.4520 C   0  0  1  0  0  3  0  0  0  0  0  0
  194.4370  168.1750  141.8280 C   0  0  0  0  0  2  0  0  0  0  0  0
  193.4510  170.3990  141.8650 C   0  0  0  0  0  2  0  0  0  0  0  0
  195.2070  168.5410  144.5660 O   0  0  0  0  0  0  0  0  0  0  0  0
  194.7880  169.6270  143.8290 C   0  0  2  0  0  3  0  0  0  0  0  0
  194.2610  169.3850  145.2180 C   0  0  0  0  0  0  0  0  0  0  0  0
  194.9780  169.5460  146.5680 C   0  0  0  0  0  2  0  0  0  0  0  0
  194.7270  170.7470  145.7620 C   0  0  0  0  0  2  0  0  0  0  0  0
  189.7580  175.0100  145.1780 O   0  0  0  0  0  0  0  0  0  0  0  0
  189.5950  174.5570  146.4290 O   0  0  0  0  0  0  0  0  0  0  0  0
  188.6390  175.0990  147.2640 N   0  0  0  0  0  0  0  0  0  0  0  0
  187.8370  176.0330  146.8650 C   0  0  0  0  0  2  0  0  0  0  0  0
  2 10  1  6  0  0  0
  3 25  1  0  0  0  0
  3 18  2  0  0  0  0
  4 20  2  0  0  0  0
  5 26  1  0  0  0  0
  6 12  1  0  0  0  0
  7 28  1  0  0  0  0
  7 22  1  1  0  0  0
 10 15  1  0  0  0  0
 12 19  1  0  0  0  0
 14 22  1  6  0  0  0
 14 11  1  0  0  0  0
 14  3  1  0  0  0  0
 16 24  1  0  0  0  0
 16  6  1  0  0  0  0
 17 13  1  0  0  0  0
 17  1  1  0  0  0  0
 20 11  1  0  0  0  0
 20  2  1  0  0  0  0
 21 15  1  0  0  0  0
 21 13  1  1  0  0  0
 23  8  1  6  0  0  0
 23  7  1  0  0  0  0
 23 28  1  0  0  0  0
 23 24  1  0  0  0  0
 25 19  1  6  0  0  0
 25  5  1  0  0  0  0
 26 41  1  6  0  0  0
 26  1  1  0  0  0  0
 27  2  1  0  0  0  0
 27 21  1  0  0  0  0
 28  9  1  6  0  0  0
 29 24  1  0  0  0  0
 31 33  1  0  0  0  0
 31 34  1  0  0  0  0
 32 30  1  1  0  0  0
 32 37  1  0  0  0  0
 33 29  1  6  0  0  0
 33 35  1  0  0  0  0
 34 32  1  0  0  0  0
 35 32  1  0  0  0  0
 36 38  1  0  0  0  0
 37 36  1  6  0  0  0
 37 38  1  0  0  0  0
 38 40  1  0  0  0  0
 38 39  1  0  0  0  0
 40 39  1  0  0  0  0
 41 42  1  0  0  0  0
 42 43  1  0  0  0  0
 44 43  2  0  0  0  0
M  END
>  <MODEL>
6

>  <REMARK>
 VINA RESULT:      -6.5      2.944      8.866
  Name = 
  6 active torsions:
  status: ('A' for Active; 'I' for Inactive)
    1  A    between atoms: O_9  and  C_29
    2  A    between atoms: O_9  and  N_37
    3  A    between atoms: C_11  and  C_25
    4  A    between atoms: N_20  and  O_40
    5  A    between atoms: O_33  and  C_39
    6  A    between atoms: O_33  and  O_40
                            x       y       z     vdW  Elec       q    Type
                         _______ _______ _______ _____ _____    ______ ____

>  <TORSDO>
F 6

$$$$
=
 OpenBabel11062422153D

 44 50  0  0  1  0  0  0  0  0999 V2000
  191.0920  178.2490  143.5860 C   0  0  0  0  0  2  0  0  0  0  0  0
  188.1770  175.2530  142.6750 C   0  0  1  0  0  3  0  0  0  0  0  0
  191.5170  173.6080  143.9620 C   0  0  0  0  0  0  0  0  0  0  0  0
  188.1290  173.3910  141.2270 O   0  0  0  0  0  0  0  0  0  0  0  0
  191.8460  175.9230  142.9430 C   0  0  0  0  0  2  0  0  0  0  0  0
  194.5500  173.6330  140.3510 C   0  0  0  0  0  2  0  0  0  0  0  0
  190.8940  171.4070  140.8940 C   0  0  1  0  0  3  0  0  0  0  0  0
  192.2460  169.9810  139.3570 O   0  0  0  0  0  1  0  0  0  0  0  0
  190.8170  169.0660  141.3690 O   0  0  0  0  0  1  0  0  0  0  0  0
  186.6910  175.5010  142.7630 C   0  0  0  0  0  2  0  0  0  0  0  0
  189.1600  172.9340  143.2970 C   0  0  0  0  0  2  0  0  0  0  0  0
  193.6230  174.5070  141.1800 C   0  0  0  0  0  2  0  0  0  0  0  0
  188.9930  178.2910  142.8280 C   0  0  0  0  0  2  0  0  0  0  0  0
  190.6650  172.7550  143.0490 C   0  0  1  0  0  3  0  0  0  0  0  0
  186.4580  177.2850  142.5680 S   0  0  0  0  0  0  0  0  0  0  0  0
  193.8020  172.4320  139.7860 C   0  0  0  0  0  2  0  0  0  0  0  0
  190.3280  178.2590  142.4110 O   0  0  0  0  0  0  0  0  0  0  0  0
  191.4260  173.4250  145.1650 O   0  0  0  0  0  0  0  0  0  0  0  0
  193.6540  174.0840  142.6470 C   0  0  0  0  0  2  0  0  0  0  0  0
  188.4670  173.8310  142.3150 C   0  0  0  0  0  0  0  0  0  0  0  0
  188.1350  177.4620  141.8800 C   0  0  2  0  0  3  0  0  0  0  0  0
  191.0890  172.7600  141.5810 C   0  0  0  0  0  2  0  0  0  0  0  0
  192.2340  170.7970  140.4970 C   0  0  1  0  0  0  0  0  0  0  0  0
  193.4760  171.4910  140.8510 N   0  0  0  0  0  0  0  0  0  0  0  0
  192.5000  174.6520  143.4860 C   0  0  2  0  0  3  0  0  0  0  0  0
  191.3720  176.8260  144.0790 C   0  0  2  0  0  3  0  0  0  0  0  0
  188.7280  176.1450  141.6680 N   0  0  0  0  0  2  0  0  0  0  0  0
  191.4910  170.2440  141.6970 C   0  0  1  0  0  3  0  0  0  0  0  0
  194.4730  170.5690  140.8930 O   0  0  0  0  0  0  0  0  0  0  0  0
  194.6250  170.3810  145.3670 O   0  0  0  0  0  1  0  0  0  0  0  0
  195.5880  169.0950  142.3980 C   0  0  0  0  0  2  0  0  0  0  0  0
  195.5430  170.5950  144.3290 C   0  0  1  0  0  0  0  0  0  0  0  0
  194.4880  170.1140  142.2150 C   0  0  1  0  0  3  0  0  0  0  0  0
  196.0530  169.2500  143.8340 C   0  0  0  0  0  2  0  0  0  0  0  0
  194.8340  171.2440  143.1550 C   0  0  0  0  0  2  0  0  0  0  0  0
  196.8160  171.5430  146.1380 O   0  0  0  0  0  0  0  0  0  0  0  0
  196.7320  171.4650  144.7650 C   0  0  2  0  0  3  0  0  0  0  0  0
  196.3010  172.7080  145.4960 C   0  0  0  0  0  0  0  0  0  0  0  0
  197.1630  173.7670  146.2000 C   0  0  0  0  0  2  0  0  0  0  0  0
  197.2690  173.6340  144.7420 C   0  0  0  0  0  2  0  0  0  0  0  0
  190.2280  176.2920  144.6740 O   0  0  0  0  0  0  0  0  0  0  0  0
  190.2700  176.7170  145.9450 O   0  0  0  0  0  0  0  0  0  0  0  0
  191.3420  176.4150  146.7610 N   0  0  0  0  0  0  0  0  0  0  0  0
  191.1910  175.7740  147.8740 C   0  0  0  0  0  2  0  0  0  0  0  0
  1 26  1  0  0  0  0
  2 10  1  6  0  0  0
  3 18  2  0  0  0  0
  4 20  2  0  0  0  0
  5 25  1  0  0  0  0
  5 26  1  0  0  0  0
  6 12  1  0  0  0  0
  7 22  1  1  0  0  0
  7 28  1  0  0  0  0
 12 19  1  0  0  0  0
 14 22  1  6  0  0  0
 14 11  1  0  0  0  0
 14  3  1  0  0  0  0
 15 10  1  0  0  0  0
 16  6  1  0  0  0  0
 16 24  1  0  0  0  0
 17 13  1  0  0  0  0
 17  1  1  0  0  0  0
 20  2  1  0  0  0  0
 20 11  1  0  0  0  0
 21 15  1  0  0  0  0
 21 13  1  1  0  0  0
 23  8  1  6  0  0  0
 23 24  1  0  0  0  0
 23  7  1  0  0  0  0
 23 28  1  0  0  0  0
 24 29  1  0  0  0  0
 25 19  1  6  0  0  0
 25  3  1  0  0  0  0
 26 41  1  6  0  0  0
 27 21  1  0  0  0  0
 27  2  1  0  0  0  0
 28  9  1  6  0  0  0
 31 34  1  0  0  0  0
 32 37  1  0  0  0  0
 32 30  1  1  0  0  0
 33 29  1  6  0  0  0
 33 31  1  0  0  0  0
 33 35  1  0  0  0  0
 34 32  1  0  0  0  0
 35 32  1  0  0  0  0
 37 38  1  0  0  0  0
 37 36  1  1  0  0  0
 38 36  1  0  0  0  0
 38 39  1  0  0  0  0
 40 38  1  0  0  0  0
 40 39  1  0  0  0  0
 41 42  1  0  0  0  0
 42 43  1  0  0  0  0
 43 44  2  0  0  0  0
M  END
>  <MODEL>
7

>  <REMARK>
 VINA RESULT:      -6.5      3.071      8.785
  Name = 
  6 active torsions:
  status: ('A' for Active; 'I' for Inactive)
    1  A    between atoms: O_9  and  C_29
    2  A    between atoms: O_9  and  N_37
    3  A    between atoms: C_11  and  C_25
    4  A    between atoms: N_20  and  O_40
    5  A    between atoms: O_33  and  C_39
    6  A    between atoms: O_33  and  O_40
                            x       y       z     vdW  Elec       q    Type
                         _______ _______ _______ _____ _____    ______ ____

>  <TORSDO>
F 6

$$$$
=
 OpenBabel11062422153D

 44 50  0  0  1  0  0  0  0  0999 V2000
  195.6970  174.3210  140.5030 C   0  0  0  0  0  2  0  0  0  0  0  0
  195.3040  172.8280  144.4920 C   0  0  1  0  0  3  0  0  0  0  0  0
  191.7760  173.6970  142.9710 C   0  0  0  0  0  0  0  0  0  0  0  0
  194.3610  173.6770  146.4820 O   0  0  0  0  0  0  0  0  0  0  0  0
  193.6970  174.9870  141.8970 C   0  0  0  0  0  2  0  0  0  0  0  0
  191.2610  178.3750  143.2600 C   0  0  0  0  0  2  0  0  0  0  0  0
  191.4080  175.3970  146.3790 C   0  0  1  0  0  3  0  0  0  0  0  0
  190.0500  177.2410  147.3690 O   0  0  0  0  0  1  0  0  0  0  0  0
  189.5000  174.6800  147.6290 O   0  0  0  0  0  1  0  0  0  0  0  0
  196.2920  171.8690  145.1100 C   0  0  0  0  0  2  0  0  0  0  0  0
  192.7790  172.6590  145.0620 C   0  0  0  0  0  2  0  0  0  0  0  0
  192.1830  177.2700  142.7710 C   0  0  0  0  0  2  0  0  0  0  0  0
  197.1360  173.6080  142.0530 C   0  0  0  0  0  2  0  0  0  0  0  0
  191.8840  173.7630  144.4770 C   0  0  1  0  0  3  0  0  0  0  0  0
  197.8540  172.1050  144.2280 S   0  0  0  0  0  0  0  0  0  0  0  0
  190.9330  178.1920  144.7370 C   0  0  0  0  0  2  0  0  0  0  0  0
  196.5040  174.7550  141.5640 O   0  0  0  0  0  0  0  0  0  0  0  0
  191.3030  172.6860  142.4760 O   0  0  0  0  0  0  0  0  0  0  0  0
  191.3730  176.1020  142.2130 C   0  0  0  0  0  2  0  0  0  0  0  0
  194.1650  173.1040  145.4220 C   0  0  0  0  0  0  0  0  0  0  0  0
  197.2780  173.7010  143.5670 C   0  0  2  0  0  3  0  0  0  0  0  0
  192.1200  175.1610  145.0460 C   0  0  0  0  0  2  0  0  0  0  0  0
  190.3210  176.4580  146.2390 C   0  0  1  0  0  0  0  0  0  0  0  0
  190.0520  177.0450  144.9230 N   0  0  0  0  0  0  0  0  0  0  0  0
  192.1840  174.8100  142.0340 C   0  0  2  0  0  3  0  0  0  0  0  0
  194.2920  173.9310  140.9700 C   0  0  2  0  0  3  0  0  0  0  0  0
  196.0040  174.0630  144.1820 N   0  0  0  0  0  2  0  0  0  0  0  0
  189.9270  174.9980  146.3380 C   0  0  1  0  0  3  0  0  0  0  0  0
  188.7770  177.5140  144.9270 O   0  0  0  0  0  0  0  0  0  0  0  0
  186.8840  176.7140  140.9450 O   0  0  0  0  0  1  0  0  0  0  0  0
  186.8860  176.2130  144.2830 C   0  0  0  0  0  2  0  0  0  0  0  0
  186.5020  177.3330  142.1430 C   0  0  1  0  0  0  0  0  0  0  0  0
  188.1600  176.8900  143.8370 C   0  0  1  0  0  3  0  0  0  0  0  0
  185.9500  176.2780  143.0900 C   0  0  0  0  0  2  0  0  0  0  0  0
  187.7260  177.9190  142.8200 C   0  0  0  0  0  2  0  0  0  0  0  0
  184.7030  178.6340  143.0700 O   0  0  0  0  0  0  0  0  0  0  0  0
  185.4500  178.4310  141.9290 C   0  0  2  0  0  3  0  0  0  0  0  0
  184.0420  177.9090  142.0350 C   0  0  0  0  0  0  0  0  0  0  0  0
  182.7160  178.6860  142.0120 C   0  0  0  0  0  2  0  0  0  0  0  0
  183.5380  178.6690  140.7960 C   0  0  0  0  0  2  0  0  0  0  0  0
  194.3270  172.6920  141.6100 O   0  0  0  0  0  0  0  0  0  0  0  0
  194.4150  171.7930  140.6180 O   0  0  0  0  0  0  0  0  0  0  0  0
  193.2820  171.2980  140.0050 N   0  0  0  0  0  0  0  0  0  0  0  0
  192.7240  170.1970  140.3920 C   0  0  0  0  0  2  0  0  0  0  0  0
  1 26  1  0  0  0  0
  1 17  1  0  0  0  0
  2 10  1  1  0  0  0
  2 20  1  0  0  0  0
  3 14  1  0  0  0  0
  6 16  1  0  0  0  0
  7 22  1  6  0  0  0
 11 20  1  0  0  0  0
 12  6  1  0  0  0  0
 14 22  1  6  0  0  0
 14 11  1  0  0  0  0
 15 10  1  0  0  0  0
 16 24  1  0  0  0  0
 17 13  1  0  0  0  0
 18  3  2  0  0  0  0
 19 12  1  0  0  0  0
 20  4  2  0  0  0  0
 21 13  1  6  0  0  0
 21 27  1  0  0  0  0
 21 15  1  0  0  0  0
 23 28  1  0  0  0  0
 23  7  1  0  0  0  0
 23  8  1  1  0  0  0
 24 29  1  0  0  0  0
 24 23  1  0  0  0  0
 25  5  1  1  0  0  0
 25 19  1  0  0  0  0
 25  3  1  0  0  0  0
 26 41  1  1  0  0  0
 26  5  1  0  0  0  0
 27  2  1  0  0  0  0
 28  7  1  0  0  0  0
 28  9  1  1  0  0  0
 32 30  1  6  0  0  0
 32 35  1  0  0  0  0
 32 34  1  0  0  0  0
 33 31  1  0  0  0  0
 33 29  1  1  0  0  0
 34 31  1  0  0  0  0
 35 33  1  0  0  0  0
 37 38  1  0  0  0  0
 37 32  1  0  0  0  0
 37 36  1  1  0  0  0
 38 36  1  0  0  0  0
 39 38  1  0  0  0  0
 40 39  1  0  0  0  0
 40 38  1  0  0  0  0
 42 41  1  0  0  0  0
 43 44  2  0  0  0  0
 43 42  1  0  0  0  0
M  END
>  <MODEL>
8

>  <REMARK>
 VINA RESULT:      -6.5      2.032      2.402
  Name = 
  6 active torsions:
  status: ('A' for Active; 'I' for Inactive)
    1  A    between atoms: O_9  and  C_29
    2  A    between atoms: O_9  and  N_37
    3  A    between atoms: C_11  and  C_25
    4  A    between atoms: N_20  and  O_40
    5  A    between atoms: O_33  and  C_39
    6  A    between atoms: O_33  and  O_40
                            x       y       z     vdW  Elec       q    Type
                         _______ _______ _______ _____ _____    ______ ____

>  <TORSDO>
F 6

$$$$
=
 OpenBabel11062422153D

 44 50  0  0  1  0  0  0  0  0999 V2000
  197.1320  175.6400  142.4830 C   0  0  0  0  0  2  0  0  0  0  0  0
  195.4180  171.9080  143.6810 C   0  0  1  0  0  3  0  0  0  0  0  0
  192.6770  174.2700  142.1240 C   0  0  0  0  0  0  0  0  0  0  0  0
  193.6760  171.2930  145.1490 O   0  0  0  0  0  0  0  0  0  0  0  0
  194.6790  175.5240  143.0830 C   0  0  0  0  0  2  0  0  0  0  0  0
  191.4890  177.3910  145.4520 C   0  0  0  0  0  2  0  0  0  0  0  0
  190.7980  173.1370  145.2590 C   0  0  1  0  0  3  0  0  0  0  0  0
  188.9370  173.9860  146.6870 O   0  0  0  0  0  1  0  0  0  0  0  0
  188.6650  172.1510  144.8190 O   0  0  0  0  0  1  0  0  0  0  0  0
  196.2040  170.6210  143.7230 C   0  0  0  0  0  2  0  0  0  0  0  0
  192.9140  171.8970  143.0020 C   0  0  0  0  0  2  0  0  0  0  0  0
  192.6630  176.7890  144.6980 C   0  0  0  0  0  2  0  0  0  0  0  0
  197.9350  173.7820  143.4230 C   0  0  0  0  0  2  0  0  0  0  0  0
  192.1820  173.2430  143.1170 C   0  0  1  0  0  3  0  0  0  0  0  0
  197.9410  171.0880  143.9170 S   0  0  0  0  0  0  0  0  0  0  0  0
  190.6410  176.3000  146.0950 C   0  0  0  0  0  2  0  0  0  0  0  0
  197.3990  175.0390  143.7210 O   0  0  0  0  0  0  0  0  0  0  0  0
  192.5680  174.0130  140.9360 O   0  0  0  0  0  0  0  0  0  0  0  0
  192.2920  176.5340  143.2390 C   0  0  0  0  0  2  0  0  0  0  0  0
  193.9830  171.6760  144.0310 C   0  0  0  0  0  0  0  0  0  0  0  0
  197.4650  172.7620  144.4520 C   0  0  2  0  0  3  0  0  0  0  0  0
  191.9960  173.7620  144.5420 C   0  0  0  0  0  2  0  0  0  0  0  0
  189.7240  174.1810  145.5440 C   0  0  1  0  0  0  0  0  0  0  0  0
  189.9130  175.5570  145.0730 N   0  0  0  0  0  0  0  0  0  0  0  0
  193.2680  175.6080  142.4990 C   0  0  2  0  0  3  0  0  0  0  0  0
  195.7180  175.3260  141.9840 C   0  0  2  0  0  3  0  0  0  0  0  0
  196.0180  172.8360  144.6260 N   0  0  0  0  0  2  0  0  0  0  0  0
  189.5140  173.1850  144.4200 C   0  0  1  0  0  3  0  0  0  0  0  0
  188.6870  176.1300  144.9540 O   0  0  0  0  0  0  0  0  0  0  0  0
  188.1060  178.5600  141.2350 O   0  0  0  0  0  1  0  0  0  0  0  0
  187.6680  175.6330  142.8570 C   0  0  0  0  0  2  0  0  0  0  0  0
  187.2780  177.9530  142.1890 C   0  0  1  0  0  0  0  0  0  0  0  0
  188.6080  176.5380  143.6180 C   0  0  1  0  0  3  0  0  0  0  0  0
  187.0390  176.5050  141.7860 C   0  0  0  0  0  2  0  0  0  0  0  0
  187.9930  177.9140  143.5260 C   0  0  0  0  0  2  0  0  0  0  0  0
  185.9690  179.5970  143.3620 O   0  0  0  0  0  0  0  0  0  0  0  0
  185.9290  178.6720  142.3410 C   0  0  2  0  0  3  0  0  0  0  0  0
  185.2720  178.3900  143.6660 C   0  0  0  0  0  0  0  0  0  0  0  0
  183.9940  179.0000  144.2630 C   0  0  0  0  0  2  0  0  0  0  0  0
  183.8750  178.1630  143.0620 C   0  0  0  0  0  2  0  0  0  0  0  0
  195.6620  174.0180  141.4980 O   0  0  0  0  0  0  0  0  0  0  0  0
  195.8380  174.1350  140.1730 O   0  0  0  0  0  0  0  0  0  0  0  0
  195.1070  175.0430  139.4360 N   0  0  0  0  0  0  0  0  0  0  0  0
  194.8330  174.8440  138.1880 C   0  0  0  0  0  2  0  0  0  0  0  0
  1 17  1  0  0  0  0
  2 10  1  1  0  0  0
  2 20  1  0  0  0  0
  2 27  1  0  0  0  0
  3 25  1  0  0  0  0
  3 14  1  0  0  0  0
  6 16  1  0  0  0  0
  7 22  1  6  0  0  0
  7 23  1  0  0  0  0
 10 15  1  0  0  0  0
 11 20  1  0  0  0  0
 12  6  1  0  0  0  0
 13 17  1  0  0  0  0
 14 11  1  1  0  0  0
 14 22  1  0  0  0  0
 15 21  1  0  0  0  0
 18  3  2  0  0  0  0
 19 12  1  0  0  0  0
 20  4  2  0  0  0  0
 21 13  1  6  0  0  0
 21 27  1  0  0  0  0
 23  8  1  1  0  0  0
 24 23  1  0  0  0  0
 24 16  1  0  0  0  0
 25  5  1  1  0  0  0
 25 19  1  0  0  0  0
 26 41  1  1  0  0  0
 26  1  1  0  0  0  0
 26  5  1  0  0  0  0
 28  9  1  1  0  0  0
 28  7  1  0  0  0  0
 28 23  1  0  0  0  0
 29 24  1  0  0  0  0
 31 33  1  0  0  0  0
 32 30  1  6  0  0  0
 32 37  1  0  0  0  0
 32 35  1  0  0  0  0
 33 29  1  1  0  0  0
 34 32  1  0  0  0  0
 34 31  1  0  0  0  0
 35 33  1  0  0  0  0
 36 38  1  0  0  0  0
 37 36  1  1  0  0  0
 37 38  1  0  0  0  0
 38 39  1  0  0  0  0
 40 38  1  0  0  0  0
 40 39  1  0  0  0  0
 42 41  1  0  0  0  0
 43 42  1  0  0  0  0
 44 43  2  0  0  0  0
M  END
>  <MODEL>
9

>  <REMARK>
 VINA RESULT:      -6.4      2.412      3.459
  Name = 
  6 active torsions:
  status: ('A' for Active; 'I' for Inactive)
    1  A    between atoms: O_9  and  C_29
    2  A    between atoms: O_9  and  N_37
    3  A    between atoms: C_11  and  C_25
    4  A    between atoms: N_20  and  O_40
    5  A    between atoms: O_33  and  C_39
    6  A    between atoms: O_33  and  O_40
                            x       y       z     vdW  Elec       q    Type
                         _______ _______ _______ _____ _____    ______ ____

>  <TORSDO>
F 6

$$$$
