=
 OpenBabel11062421413D

 41 45  0  0  1  0  0  0  0  0999 V2000
  191.4120  174.4180  143.9210 C   0  0  0  0  0  0  0  0  0  0  0  0
  193.0300  170.7160  142.7140 O   0  0  0  0  0  1  0  0  0  0  0  0
  188.8290  172.1600  142.6830 N   0  0  0  0  0  0  0  0  0  0  0  0
  190.6330  173.3820  143.4070 C   0  0  0  0  0  0  0  0  0  0  0  0
  190.0510  171.3440  142.5250 C   0  0  0  0  0  3  0  0  0  0  0  0
  192.8580  175.2600  146.7130 N   0  0  0  0  0  2  0  0  0  0  0  0
  192.8160  174.2050  144.0370 C   0  0  0  0  0  0  0  0  0  0  0  0
  189.2730  173.3590  143.2170 O   0  0  0  0  0  0  0  0  0  0  0  0
  190.7990  175.0730  148.3390 O   0  0  0  0  0  0  0  0  0  0  0  0
  190.7370  175.6700  144.3880 C   0  0  0  0  0  2  0  0  0  0  0  0
  191.1580  172.2070  143.0110 C   0  0  0  0  0  0  0  0  0  0  0  0
  192.5190  171.9440  143.1180 C   0  0  0  0  0  0  0  0  0  0  0  0
  191.2590  175.7990  147.1060 S   0  0  0  0  0  0  0  0  0  0  0  0
  193.3660  172.9380  143.6490 C   0  0  0  0  0  0  0  0  0  0  0  0
  193.7510  175.3360  144.4150 C   0  0  2  0  0  3  0  0  0  0  0  0
  193.3520  176.1310  145.6580 C   0  0  0  0  0  2  0  0  0  0  0  0
  190.1150  175.4340  145.7610 C   0  0  1  0  0  3  0  0  0  0  0  0
  191.2860  177.2750  147.3940 O   0  0  0  0  0  0  0  0  0  0  0  0
  186.5190  177.8740  145.9200 C   0  0  2  0  0  0  0  0  0  0  0  0
  188.7620  176.1390  145.8850 C   0  0  1  0  0  3  0  0  0  0  0  0
  185.4610  179.2250  144.1870 C   0  0  1  0  0  3  0  0  0  0  0  0
  188.8040  177.2750  146.9310 C   0  0  0  0  0  2  0  0  0  0  0  0
  187.4360  177.9670  147.1430 C   0  0  0  0  0  2  0  0  0  0  0  0
  185.6160  176.6490  146.0540 C   0  0  0  0  0  1  0  0  0  0  0  0
  187.3580  177.8430  144.6630 C   0  0  1  0  0  3  0  0  0  0  0  0
  185.6490  179.0990  145.7090 C   0  0  0  0  0  2  0  0  0  0  0  0
  188.1650  176.5560  144.5190 C   0  0  0  0  0  2  0  0  0  0  0  0
  186.4360  178.2410  143.5360 C   0  0  2  0  0  3  0  0  0  0  0  0
  184.0500  177.8780  142.8110 O   0  0  0  0  0  1  0  0  0  0  0  0
  184.0380  178.8690  143.7940 C   0  0  0  0  0  2  0  0  0  0  0  0
  187.1920  178.8690  142.3650 C   0  0  0  0  0  2  0  0  0  0  0  0
  188.0810  177.8650  141.6290 C   0  0  0  0  0  2  0  0  0  0  0  0
  186.7640  177.1390  139.7380 O   0  0  0  0  0  1  0  0  0  0  0  0
  187.2760  176.7430  140.9770 C   0  0  1  0  0  3  0  0  0  0  0  0
  188.0010  174.9360  139.5560 O   0  0  0  0  0  1  0  0  0  0  0  0
  188.0650  175.4440  140.8550 C   0  0  0  0  0  2  0  0  0  0  0  0
  194.7300  172.6240  143.7570 O   0  0  0  0  0  0  0  0  0  0  0  0
  195.3430  172.1210  144.9350 C   0  0  0  0  0  1  0  0  0  0  0  0
  193.9160  176.2030  143.3320 O   0  0  0  0  0  0  0  0  0  0  0  0
  195.2540  176.0640  142.9590 C   0  0  0  0  0  2  0  0  0  0  0  0
  195.3910  176.2970  141.4680 C   0  0  0  0  0  1  0  0  0  0  0  0
  1  7  1  0  0  0  0
  1 10  1  0  0  0  0
  2 12  1  0  0  0  0
  3  8  1  0  0  0  0
  4  1  2  0  0  0  0
  5  3  2  0  0  0  0
  5 11  1  0  0  0  0
  6 13  1  0  0  0  0
  7 15  1  0  0  0  0
  8  4  1  0  0  0  0
 11 12  2  0  0  0  0
 11  4  1  0  0  0  0
 12 14  1  0  0  0  0
 13 18  2  0  0  0  0
 13  9  2  0  0  0  0
 14 37  1  0  0  0  0
 14  7  2  0  0  0  0
 15 39  1  6  0  0  0
 15 16  1  0  0  0  0
 16  6  1  0  0  0  0
 17 10  1  6  0  0  0
 17 20  1  0  0  0  0
 17 13  1  0  0  0  0
 19 24  1  1  0  0  0
 19 23  1  0  0  0  0
 20 27  1  6  0  0  0
 20 22  1  0  0  0  0
 21 30  1  1  0  0  0
 21 26  1  0  0  0  0
 22 23  1  0  0  0  0
 25 27  1  6  0  0  0
 25 19  1  0  0  0  0
 26 19  1  0  0  0  0
 28 31  1  6  0  0  0
 28 21  1  0  0  0  0
 28 25  1  0  0  0  0
 29 30  1  0  0  0  0
 32 31  1  0  0  0  0
 34 33  1  6  0  0  0
 34 32  1  0  0  0  0
 35 36  1  0  0  0  0
 36 34  1  0  0  0  0
 37 38  1  0  0  0  0
 40 39  1  0  0  0  0
 41 40  1  0  0  0  0
M  END
>  <MODEL>
1

>  <REMARK>
 VINA RESULT:      -8.0      0.000      0.000
  Name = 
  9 active torsions:
  status: ('A' for Active; 'I' for Inactive)
    1  A    between atoms: C_11  and  C_16
    2  A    between atoms: C_11  and  C_31
    3  A    between atoms: C_16  and  C_41
    4  A    between atoms: C_18  and  C_35
    5  A    between atoms: O_19  and  C_21
    6  A    between atoms: C_22  and  C_28
    7  A    between atoms: C_27  and  O_34
    8  A    between atoms: C_30  and  C_31
    9  A    between atoms: O_34  and  C_37
                            x       y       z     vdW  Elec       q    Type
                         _______ _______ _______ _____ _____    ______ ____

>  <TORSDO>
F 9

$$$$
=
 OpenBabel11062421413D

 41 45  0  0  1  0  0  0  0  0999 V2000
  193.0080  173.4310  144.2490 C   0  0  0  0  0  0  0  0  0  0  0  0
  196.9040  174.0930  145.7210 O   0  0  0  0  0  1  0  0  0  0  0  0
  193.3040  176.6940  145.8520 N   0  0  0  0  0  0  0  0  0  0  0  0
  193.3790  174.6020  144.9070 C   0  0  0  0  0  0  0  0  0  0  0  0
  194.6660  176.1450  146.0190 C   0  0  0  0  0  3  0  0  0  0  0  0
  193.2860  172.0640  141.3080 N   0  0  0  0  0  2  0  0  0  0  0  0
  193.9960  172.4190  144.0730 C   0  0  0  0  0  0  0  0  0  0  0  0
  192.6060  175.7050  145.1770 O   0  0  0  0  0  0  0  0  0  0  0  0
  192.3310  174.0190  139.8310 O   0  0  0  0  0  0  0  0  0  0  0  0
  191.6190  173.3180  143.7000 C   0  0  0  0  0  2  0  0  0  0  0  0
  194.6230  174.8020  145.3860 C   0  0  0  0  0  0  0  0  0  0  0  0
  195.6250  173.8530  145.2270 C   0  0  0  0  0  0  0  0  0  0  0  0
  191.9440  173.1020  140.9570 S   0  0  0  0  0  0  0  0  0  0  0  0
  195.3280  172.6520  144.5520 C   0  0  0  0  0  0  0  0  0  0  0  0
  193.6290  171.0520  143.5310 C   0  0  2  0  0  3  0  0  0  0  0  0
  192.8100  171.0550  142.2400 C   0  0  0  0  0  2  0  0  0  0  0  0
  191.5190  174.1030  142.3960 C   0  0  1  0  0  3  0  0  0  0  0  0
  190.7690  172.2700  140.5230 O   0  0  0  0  0  0  0  0  0  0  0  0
  187.5750  175.9280  142.5550 C   0  0  2  0  0  0  0  0  0  0  0  0
  190.1700  174.8170  142.2810 C   0  0  1  0  0  3  0  0  0  0  0  0
  186.5580  177.3180  144.2800 C   0  0  1  0  0  3  0  0  0  0  0  0
  188.9970  173.8150  142.2100 C   0  0  0  0  0  2  0  0  0  0  0  0
  187.6200  174.4940  142.0180 C   0  0  0  0  0  2  0  0  0  0  0  0
  187.9100  176.9020  141.4260 C   0  0  0  0  0  1  0  0  0  0  0  0
  188.5160  176.0540  143.7300 C   0  0  1  0  0  3  0  0  0  0  0  0
  186.2380  176.3190  143.1540 C   0  0  0  0  0  2  0  0  0  0  0  0
  189.9850  175.9390  143.3330 C   0  0  0  0  0  2  0  0  0  0  0  0
  188.0740  177.2820  144.4890 C   0  0  2  0  0  3  0  0  0  0  0  0
  185.8890  179.4840  145.0290 O   0  0  0  0  0  1  0  0  0  0  0  0
  186.1300  178.7210  143.8850 C   0  0  0  0  0  2  0  0  0  0  0  0
  188.4510  177.2150  145.9690 C   0  0  0  0  0  2  0  0  0  0  0  0
  187.9570  175.9370  146.6480 C   0  0  0  0  0  2  0  0  0  0  0  0
  189.4470  174.0510  146.4010 O   0  0  0  0  0  1  0  0  0  0  0  0
  189.0990  175.1130  147.2400 C   0  0  1  0  0  3  0  0  0  0  0  0
  191.3170  175.1850  148.1780 O   0  0  0  0  0  1  0  0  0  0  0  0
  190.3180  175.9610  147.5880 C   0  0  0  0  0  2  0  0  0  0  0  0
  196.3750  171.7300  144.3960 O   0  0  0  0  0  0  0  0  0  0  0  0
  197.3010  171.7460  143.3200 C   0  0  0  0  0  1  0  0  0  0  0  0
  192.9650  170.3110  144.5120 O   0  0  0  0  0  0  0  0  0  0  0  0
  193.5830  169.0590  144.4980 C   0  0  0  0  0  2  0  0  0  0  0  0
  194.5620  168.9660  145.6500 C   0  0  0  0  0  1  0  0  0  0  0  0
  1  4  1  0  0  0  0
  3  5  2  0  0  0  0
  4  8  1  0  0  0  0
  4 11  2  0  0  0  0
  6 16  1  0  0  0  0
  7  1  2  0  0  0  0
  7 14  1  0  0  0  0
  8  3  1  0  0  0  0
  9 13  2  0  0  0  0
 10  1  1  0  0  0  0
 11  5  1  0  0  0  0
 12 11  1  0  0  0  0
 12  2  1  0  0  0  0
 13  6  1  0  0  0  0
 13 17  1  0  0  0  0
 14 12  2  0  0  0  0
 15  7  1  0  0  0  0
 15 39  1  1  0  0  0
 16 15  1  0  0  0  0
 17 10  1  1  0  0  0
 18 13  2  0  0  0  0
 19 24  1  6  0  0  0
 19 26  1  0  0  0  0
 19 25  1  0  0  0  0
 20 22  1  1  0  0  0
 20 17  1  0  0  0  0
 20 27  1  0  0  0  0
 21 30  1  6  0  0  0
 21 28  1  0  0  0  0
 23 22  1  0  0  0  0
 23 19  1  0  0  0  0
 25 27  1  6  0  0  0
 25 28  1  0  0  0  0
 26 21  1  0  0  0  0
 28 31  1  1  0  0  0
 30 29  1  0  0  0  0
 31 32  1  0  0  0  0
 32 34  1  0  0  0  0
 34 33  1  6  0  0  0
 34 36  1  0  0  0  0
 36 35  1  0  0  0  0
 37 14  1  0  0  0  0
 38 37  1  0  0  0  0
 40 39  1  0  0  0  0
 40 41  1  0  0  0  0
M  END
>  <MODEL>
2

>  <REMARK>
 VINA RESULT:      -7.8      2.419      5.379
  Name = 
  9 active torsions:
  status: ('A' for Active; 'I' for Inactive)
    1  A    between atoms: C_11  and  C_16
    2  A    between atoms: C_11  and  C_31
    3  A    between atoms: C_16  and  C_41
    4  A    between atoms: C_18  and  C_35
    5  A    between atoms: O_19  and  C_21
    6  A    between atoms: C_22  and  C_28
    7  A    between atoms: C_27  and  O_34
    8  A    between atoms: C_30  and  C_31
    9  A    between atoms: O_34  and  C_37
                            x       y       z     vdW  Elec       q    Type
                         _______ _______ _______ _____ _____    ______ ____

>  <TORSDO>
F 9

$$$$
=
 OpenBabel11062421413D

 41 45  0  0  1  0  0  0  0  0999 V2000
  188.6560  175.5150  143.2360 C   0  0  0  0  0  0  0  0  0  0  0  0
  186.4590  177.2880  140.1040 O   0  0  0  0  0  1  0  0  0  0  0  0
  189.1150  173.7260  140.0910 N   0  0  0  0  0  0  0  0  0  0  0  0
  188.6600  175.0180  141.9340 C   0  0  0  0  0  0  0  0  0  0  0  0
  188.1840  174.8040  139.6970 C   0  0  0  0  0  3  0  0  0  0  0  0
  190.0200  177.9140  144.9620 N   0  0  0  0  0  2  0  0  0  0  0  0
  187.8700  176.6720  143.5100 C   0  0  0  0  0  0  0  0  0  0  0  0
  189.3450  173.9340  141.4420 O   0  0  0  0  0  0  0  0  0  0  0  0
  192.5500  177.4640  144.4030 O   0  0  0  0  0  0  0  0  0  0  0  0
  189.5240  174.8580  144.2640 C   0  0  0  0  0  2  0  0  0  0  0  0
  187.9450  175.5830  140.9400 C   0  0  0  0  0  0  0  0  0  0  0  0
  187.1760  176.7200  141.1520 C   0  0  0  0  0  0  0  0  0  0  0  0
  191.3480  176.8030  145.0160 S   0  0  0  0  0  0  0  0  0  0  0  0
  187.1410  177.2900  142.4400 C   0  0  0  0  0  0  0  0  0  0  0  0
  187.6700  177.1660  144.9280 C   0  0  2  0  0  3  0  0  0  0  0  0
  188.9470  177.3320  145.7520 C   0  0  0  0  0  2  0  0  0  0  0  0
  190.9690  175.3100  144.0790 C   0  0  1  0  0  3  0  0  0  0  0  0
  191.6590  176.4660  146.4480 O   0  0  0  0  0  0  0  0  0  0  0  0
  193.7470  171.9680  144.2330 C   0  0  2  0  0  0  0  0  0  0  0  0
  191.9460  174.1570  144.3210 C   0  0  1  0  0  3  0  0  0  0  0  0
  195.8430  171.6130  143.0380 C   0  0  1  0  0  3  0  0  0  0  0  0
  191.3340  172.7960  143.9220 C   0  0  0  0  0  2  0  0  0  0  0  0
  192.2620  171.5940  144.2200 C   0  0  0  0  0  2  0  0  0  0  0  0
  194.1730  172.3050  145.6610 C   0  0  0  0  0  1  0  0  0  0  0  0
  193.9870  173.1090  143.2710 C   0  0  1  0  0  3  0  0  0  0  0  0
  194.6600  170.8820  143.6970 C   0  0  0  0  0  2  0  0  0  0  0  0
  193.3530  174.4180  143.7310 C   0  0  0  0  0  2  0  0  0  0  0  0
  195.4650  173.0950  142.9680 C   0  0  2  0  0  3  0  0  0  0  0  0
  197.4010  172.6420  144.5260 O   0  0  0  0  0  1  0  0  0  0  0  0
  197.1020  171.4460  143.8710 C   0  0  0  0  0  2  0  0  0  0  0  0
  195.7820  173.7070  141.6030 C   0  0  0  0  0  2  0  0  0  0  0  0
  197.0320  174.5880  141.6250 C   0  0  0  0  0  2  0  0  0  0  0  0
  195.3520  176.3160  141.4520 O   0  0  0  0  0  1  0  0  0  0  0  0
  196.6940  176.0730  141.7540 C   0  0  1  0  0  3  0  0  0  0  0  0
  195.9400  176.7540  143.9390 O   0  0  0  0  0  1  0  0  0  0  0  0
  197.0640  176.6450  143.1180 C   0  0  0  0  0  2  0  0  0  0  0  0
  186.3660  178.4500  142.6060 O   0  0  0  0  0  0  0  0  0  0  0  0
  184.9760  178.4480  142.8930 C   0  0  0  0  0  1  0  0  0  0  0  0
  186.7770  176.3300  145.6050 O   0  0  0  0  0  0  0  0  0  0  0  0
  186.2880  177.1030  146.6600 C   0  0  0  0  0  2  0  0  0  0  0  0
  184.8120  177.3690  146.4510 C   0  0  0  0  0  1  0  0  0  0  0  0
  1  7  1  0  0  0  0
  1 10  1  0  0  0  0
  2 12  1  0  0  0  0
  3  8  1  0  0  0  0
  4  1  2  0  0  0  0
  5  3  2  0  0  0  0
  5 11  1  0  0  0  0
  6 13  1  0  0  0  0
  6 16  1  0  0  0  0
  7 15  1  0  0  0  0
  8  4  1  0  0  0  0
  9 13  2  0  0  0  0
 11 12  2  0  0  0  0
 11  4  1  0  0  0  0
 12 14  1  0  0  0  0
 13 18  2  0  0  0  0
 14 37  1  0  0  0  0
 14  7  2  0  0  0  0
 15 39  1  1  0  0  0
 15 16  1  0  0  0  0
 17 10  1  1  0  0  0
 17 20  1  0  0  0  0
 17 13  1  0  0  0  0
 19 24  1  1  0  0  0
 20 27  1  6  0  0  0
 21 26  1  0  0  0  0
 21 30  1  1  0  0  0
 22 23  1  0  0  0  0
 22 20  1  0  0  0  0
 23 19  1  0  0  0  0
 25 27  1  1  0  0  0
 25 19  1  0  0  0  0
 26 19  1  0  0  0  0
 28 31  1  6  0  0  0
 28 21  1  0  0  0  0
 28 25  1  0  0  0  0
 30 29  1  0  0  0  0
 31 32  1  0  0  0  0
 32 34  1  0  0  0  0
 34 33  1  1  0  0  0
 34 36  1  0  0  0  0
 36 35  1  0  0  0  0
 37 38  1  0  0  0  0
 39 40  1  0  0  0  0
 41 40  1  0  0  0  0
M  END
>  <MODEL>
3

>  <REMARK>
 VINA RESULT:      -7.8      1.903      8.239
  Name = 
  9 active torsions:
  status: ('A' for Active; 'I' for Inactive)
    1  A    between atoms: C_11  and  C_16
    2  A    between atoms: C_11  and  C_31
    3  A    between atoms: C_16  and  C_41
    4  A    between atoms: C_18  and  C_35
    5  A    between atoms: O_19  and  C_21
    6  A    between atoms: C_22  and  C_28
    7  A    between atoms: C_27  and  O_34
    8  A    between atoms: C_30  and  C_31
    9  A    between atoms: O_34  and  C_37
                            x       y       z     vdW  Elec       q    Type
                         _______ _______ _______ _____ _____    ______ ____

>  <TORSDO>
F 9

$$$$
=
 OpenBabel11062421413D

 41 45  0  0  1  0  0  0  0  0999 V2000
  193.3770  173.5950  143.5110 C   0  0  0  0  0  0  0  0  0  0  0  0
  194.7890  169.8980  144.9670 O   0  0  0  0  0  1  0  0  0  0  0  0
  191.0680  170.8770  142.7450 N   0  0  0  0  0  0  0  0  0  0  0  0
  192.6790  172.4000  143.3450 C   0  0  0  0  0  0  0  0  0  0  0  0
  192.1520  170.1670  143.4550 C   0  0  0  0  0  3  0  0  0  0  0  0
  193.9200  175.8300  145.8140 N   0  0  0  0  0  2  0  0  0  0  0  0
  194.6220  173.5530  144.2040 C   0  0  0  0  0  0  0  0  0  0  0  0
  191.4680  172.2040  142.7270 O   0  0  0  0  0  0  0  0  0  0  0  0
  191.4340  176.3860  146.4710 O   0  0  0  0  0  0  0  0  0  0  0  0
  192.7610  174.8680  143.0200 C   0  0  0  0  0  2  0  0  0  0  0  0
  193.1430  171.2200  143.8010 C   0  0  0  0  0  0  0  0  0  0  0  0
  194.3430  171.1280  144.4950 C   0  0  0  0  0  0  0  0  0  0  0  0
  192.3690  176.4020  145.2950 S   0  0  0  0  0  0  0  0  0  0  0  0
  195.0930  172.3000  144.7200 C   0  0  0  0  0  0  0  0  0  0  0  0
  195.5230  174.7690  144.2690 C   0  0  2  0  0  3  0  0  0  0  0  0
  194.8470  176.0650  144.7180 C   0  0  0  0  0  2  0  0  0  0  0  0
  191.6950  175.3340  144.0070 C   0  0  1  0  0  3  0  0  0  0  0  0
  192.4980  177.8160  144.7980 O   0  0  0  0  0  0  0  0  0  0  0  0
  187.9640  176.6370  142.1920 C   0  0  2  0  0  0  0  0  0  0  0  0
  190.4850  175.9240  143.2790 C   0  0  1  0  0  3  0  0  0  0  0  0
  185.8370  177.2280  143.2280 C   0  0  1  0  0  3  0  0  0  0  0  0
  189.8710  174.9160  142.2820 C   0  0  0  0  0  2  0  0  0  0  0  0
  188.6890  175.4970  141.4690 C   0  0  0  0  0  2  0  0  0  0  0  0
  188.5650  177.9740  141.7620 C   0  0  0  0  0  1  0  0  0  0  0  0
  188.0440  176.4160  143.6850 C   0  0  1  0  0  3  0  0  0  0  0  0
  186.4690  176.6730  141.9390 C   0  0  0  0  0  2  0  0  0  0  0  0
  189.4570  176.5770  144.2360 C   0  0  0  0  0  2  0  0  0  0  0  0
  186.9400  177.2510  144.2890 C   0  0  2  0  0  3  0  0  0  0  0  0
  186.0580  179.5440  143.7620 O   0  0  0  0  0  1  0  0  0  0  0  0
  185.3180  178.6370  143.0020 C   0  0  0  0  0  2  0  0  0  0  0  0
  186.4620  176.6940  145.6300 C   0  0  0  0  0  2  0  0  0  0  0  0
  186.8570  177.5790  146.8130 C   0  0  0  0  0  2  0  0  0  0  0  0
  185.8100  179.5740  147.6860 O   0  0  0  0  0  1  0  0  0  0  0  0
  185.6450  178.1980  147.5070 C   0  0  1  0  0  3  0  0  0  0  0  0
  183.8880  178.9950  146.0630 O   0  0  0  0  0  1  0  0  0  0  0  0
  184.3340  177.8910  146.7910 C   0  0  0  0  0  2  0  0  0  0  0  0
  196.2890  172.1650  145.4420 O   0  0  0  0  0  0  0  0  0  0  0  0
  197.5430  171.8430  144.8590 C   0  0  0  0  0  1  0  0  0  0  0  0
  196.1520  174.9670  143.0370 O   0  0  0  0  0  0  0  0  0  0  0  0
  196.0840  176.3440  142.8140 C   0  0  0  0  0  2  0  0  0  0  0  0
  196.2480  176.6250  141.3350 C   0  0  0  0  0  1  0  0  0  0  0  0
  1  7  1  0  0  0  0
  3  5  2  0  0  0  0
  4  1  2  0  0  0  0
  4 11  1  0  0  0  0
  5 11  1  0  0  0  0
  7 15  1  0  0  0  0
  7 14  2  0  0  0  0
  8  3  1  0  0  0  0
  8  4  1  0  0  0  0
 10  1  1  0  0  0  0
 11 12  2  0  0  0  0
 12 14  1  0  0  0  0
 12  2  1  0  0  0  0
 13  6  1  0  0  0  0
 13  9  2  0  0  0  0
 14 37  1  0  0  0  0
 15 39  1  6  0  0  0
 15 16  1  0  0  0  0
 16  6  1  0  0  0  0
 17 10  1  6  0  0  0
 17 13  1  0  0  0  0
 18 13  2  0  0  0  0
 19 24  1  6  0  0  0
 19 25  1  0  0  0  0
 20 22  1  1  0  0  0
 20 17  1  0  0  0  0
 20 27  1  0  0  0  0
 21 30  1  6  0  0  0
 21 28  1  0  0  0  0
 23 19  1  0  0  0  0
 23 22  1  0  0  0  0
 25 27  1  1  0  0  0
 25 28  1  0  0  0  0
 26 19  1  0  0  0  0
 26 21  1  0  0  0  0
 28 31  1  1  0  0  0
 30 29  1  0  0  0  0
 31 32  1  0  0  0  0
 32 34  1  0  0  0  0
 34 33  1  6  0  0  0
 35 36  1  0  0  0  0
 36 34  1  0  0  0  0
 38 37  1  0  0  0  0
 40 39  1  0  0  0  0
 41 40  1  0  0  0  0
M  END
>  <MODEL>
4

>  <REMARK>
 VINA RESULT:      -7.8      1.965      3.751
  Name = 
  9 active torsions:
  status: ('A' for Active; 'I' for Inactive)
    1  A    between atoms: C_11  and  C_16
    2  A    between atoms: C_11  and  C_31
    3  A    between atoms: C_16  and  C_41
    4  A    between atoms: C_18  and  C_35
    5  A    between atoms: O_19  and  C_21
    6  A    between atoms: C_22  and  C_28
    7  A    between atoms: C_27  and  O_34
    8  A    between atoms: C_30  and  C_31
    9  A    between atoms: O_34  and  C_37
                            x       y       z     vdW  Elec       q    Type
                         _______ _______ _______ _____ _____    ______ ____

>  <TORSDO>
F 9

$$$$
=
 OpenBabel11062421413D

 41 45  0  0  1  0  0  0  0  0999 V2000
  194.3530  173.9860  144.9930 C   0  0  0  0  0  0  0  0  0  0  0  0
  197.8270  174.9420  142.8010 O   0  0  0  0  0  1  0  0  0  0  0  0
  195.0470  177.5660  145.0640 N   0  0  0  0  0  0  0  0  0  0  0  0
  194.8350  175.2880  144.8680 C   0  0  0  0  0  0  0  0  0  0  0  0
  196.1680  177.0530  144.2490 C   0  0  0  0  0  3  0  0  0  0  0  0
  192.6660  171.8070  143.2610 N   0  0  0  0  0  2  0  0  0  0  0  0
  195.0760  172.9400  144.3490 C   0  0  0  0  0  0  0  0  0  0  0  0
  194.3030  176.4430  145.3880 O   0  0  0  0  0  0  0  0  0  0  0  0
  190.5610  173.2670  142.6640 O   0  0  0  0  0  0  0  0  0  0  0  0
  193.0730  173.7560  145.7340 C   0  0  0  0  0  2  0  0  0  0  0  0
  195.9530  175.5850  144.1770 C   0  0  0  0  0  0  0  0  0  0  0  0
  196.6840  174.6030  143.5190 C   0  0  0  0  0  0  0  0  0  0  0  0
  191.3220  172.7340  143.8440 S   0  0  0  0  0  0  0  0  0  0  0  0
  196.2440  173.2660  143.5840 C   0  0  0  0  0  0  0  0  0  0  0  0
  194.7230  171.4850  144.5830 C   0  0  2  0  0  3  0  0  0  0  0  0
  193.2450  171.1310  144.4110 C   0  0  0  0  0  2  0  0  0  0  0  0
  191.8920  174.1250  144.8410 C   0  0  1  0  0  3  0  0  0  0  0  0
  190.4120  171.8440  144.6450 O   0  0  0  0  0  0  0  0  0  0  0  0
  188.8050  176.4930  146.7830 C   0  0  2  0  0  0  0  0  0  0  0  0
  190.7840  174.8120  145.6430 C   0  0  1  0  0  3  0  0  0  0  0  0
  186.8570  177.6120  145.8350 C   0  0  1  0  0  3  0  0  0  0  0  0
  191.3070  176.0610  146.3850 C   0  0  0  0  0  2  0  0  0  0  0  0
  190.2360  176.7450  147.2680 C   0  0  0  0  0  2  0  0  0  0  0  0
  188.2320  175.2730  147.5030 C   0  0  0  0  0  1  0  0  0  0  0  0
  188.8040  176.3330  145.2800 C   0  0  1  0  0  3  0  0  0  0  0  0
  187.8680  177.6660  146.9940 C   0  0  0  0  0  2  0  0  0  0  0  0
  189.4970  175.0560  144.8170 C   0  0  0  0  0  2  0  0  0  0  0  0
  187.3830  176.5800  144.8350 C   0  0  2  0  0  3  0  0  0  0  0  0
  184.5090  178.0430  145.8410 O   0  0  0  0  0  1  0  0  0  0  0  0
  185.4900  177.1840  146.3390 C   0  0  0  0  0  2  0  0  0  0  0  0
  187.3080  177.0830  143.3930 C   0  0  0  0  0  2  0  0  0  0  0  0
  185.9480  176.8160  142.7440 C   0  0  0  0  0  2  0  0  0  0  0  0
  185.8540  179.2250  142.9080 O   0  0  0  0  0  1  0  0  0  0  0  0
  185.2250  178.1040  142.3580 C   0  0  1  0  0  3  0  0  0  0  0  0
  183.7570  178.6610  140.5290 O   0  0  0  0  0  1  0  0  0  0  0  0
  185.0540  178.2550  140.8500 C   0  0  0  0  0  2  0  0  0  0  0  0
  197.0010  172.3100  142.8880 O   0  0  0  0  0  0  0  0  0  0  0  0
  196.7300  171.8870  141.5600 C   0  0  0  0  0  1  0  0  0  0  0  0
  195.1600  171.0840  145.8480 O   0  0  0  0  0  0  0  0  0  0  0  0
  195.9850  169.9820  145.6120 C   0  0  0  0  0  2  0  0  0  0  0  0
  196.6550  169.5660  146.9050 C   0  0  0  0  0  1  0  0  0  0  0  0
  1 10  1  0  0  0  0
  2 12  1  0  0  0  0
  3  8  1  0  0  0  0
  4  1  1  0  0  0  0
  4  8  1  0  0  0  0
  5  3  2  0  0  0  0
  6 13  1  0  0  0  0
  6 16  1  0  0  0  0
  7 15  1  0  0  0  0
  7  1  2  0  0  0  0
  9 13  2  0  0  0  0
 11  5  1  0  0  0  0
 11  4  2  0  0  0  0
 12 14  2  0  0  0  0
 12 11  1  0  0  0  0
 13 18  2  0  0  0  0
 13 17  1  0  0  0  0
 14  7  1  0  0  0  0
 15 39  1  1  0  0  0
 16 15  1  0  0  0  0
 17 20  1  0  0  0  0
 17 10  1  1  0  0  0
 19 26  1  0  0  0  0
 19 23  1  0  0  0  0
 19 24  1  1  0  0  0
 20 27  1  6  0  0  0
 20 22  1  0  0  0  0
 21 30  1  1  0  0  0
 21 26  1  0  0  0  0
 22 23  1  0  0  0  0
 25 27  1  1  0  0  0
 25 19  1  0  0  0  0
 28 31  1  6  0  0  0
 28 25  1  0  0  0  0
 28 21  1  0  0  0  0
 29 30  1  0  0  0  0
 32 31  1  0  0  0  0
 34 32  1  0  0  0  0
 34 33  1  6  0  0  0
 35 36  1  0  0  0  0
 36 34  1  0  0  0  0
 37 14  1  0  0  0  0
 38 37  1  0  0  0  0
 40 39  1  0  0  0  0
 40 41  1  0  0  0  0
M  END
>  <MODEL>
5

>  <REMARK>
 VINA RESULT:      -7.7      2.422      4.590
  Name = 
  9 active torsions:
  status: ('A' for Active; 'I' for Inactive)
    1  A    between atoms: C_11  and  C_16
    2  A    between atoms: C_11  and  C_31
    3  A    between atoms: C_16  and  C_41
    4  A    between atoms: C_18  and  C_35
    5  A    between atoms: O_19  and  C_21
    6  A    between atoms: C_22  and  C_28
    7  A    between atoms: C_27  and  O_34
    8  A    between atoms: C_30  and  C_31
    9  A    between atoms: O_34  and  C_37
                            x       y       z     vdW  Elec       q    Type
                         _______ _______ _______ _____ _____    ______ ____

>  <TORSDO>
F 9

$$$$
=
 OpenBabel11062421413D

 41 45  0  0  1  0  0  0  0  0999 V2000
  192.4180  174.6670  141.6650 C   0  0  0  0  0  0  0  0  0  0  0  0
  192.7340  172.2570  138.2190 O   0  0  0  0  0  1  0  0  0  0  0  0
  189.1410  173.6550  140.4250 N   0  0  0  0  0  0  0  0  0  0  0  0
  191.3080  174.1530  140.9960 C   0  0  0  0  0  0  0  0  0  0  0  0
  190.0480  173.0210  139.4460 C   0  0  0  0  0  3  0  0  0  0  0  0
  194.7020  173.6840  143.7660 N   0  0  0  0  0  2  0  0  0  0  0  0
  193.7120  174.3590  141.1510 C   0  0  0  0  0  0  0  0  0  0  0  0
  189.9810  174.3080  141.3130 O   0  0  0  0  0  0  0  0  0  0  0  0
  193.1570  172.6970  145.6520 O   0  0  0  0  0  0  0  0  0  0  0  0
  192.2070  175.4550  142.9200 C   0  0  0  0  0  2  0  0  0  0  0  0
  191.4160  173.3940  139.8880 C   0  0  0  0  0  0  0  0  0  0  0  0
  192.6540  173.0540  139.3570 C   0  0  0  0  0  0  0  0  0  0  0  0
  193.4370  173.9760  144.9140 S   0  0  0  0  0  0  0  0  0  0  0  0
  193.8220  173.5200  139.9930 C   0  0  0  0  0  0  0  0  0  0  0  0
  194.9540  175.0220  141.7090 C   0  0  2  0  0  3  0  0  0  0  0  0
  195.0960  174.9780  143.2310 C   0  0  0  0  0  2  0  0  0  0  0  0
  191.9280  174.5040  144.0800 C   0  0  1  0  0  3  0  0  0  0  0  0
  193.8900  175.0150  145.9020 O   0  0  0  0  0  0  0  0  0  0  0  0
  188.8620  176.5310  146.4040 C   0  0  2  0  0  0  0  0  0  0  0  0
  190.8630  175.0740  145.0200 C   0  0  1  0  0  3  0  0  0  0  0  0
  186.6720  177.3630  145.7260 C   0  0  1  0  0  3  0  0  0  0  0  0
  191.3180  176.4040  145.6590 C   0  0  0  0  0  2  0  0  0  0  0  0
  190.3020  176.9780  146.6750 C   0  0  0  0  0  2  0  0  0  0  0  0
  188.5590  175.2750  147.2190 C   0  0  0  0  0  1  0  0  0  0  0  0
  188.6720  176.3200  144.9190 C   0  0  1  0  0  3  0  0  0  0  0  0
  187.8190  177.5840  146.7270 C   0  0  0  0  0  2  0  0  0  0  0  0
  189.4530  175.1250  144.3830 C   0  0  0  0  0  2  0  0  0  0  0  0
  187.1830  176.3700  144.6780 C   0  0  2  0  0  3  0  0  0  0  0  0
  184.3880  177.6770  146.3420 O   0  0  0  0  0  1  0  0  0  0  0  0
  185.4570  176.7830  146.4280 C   0  0  0  0  0  2  0  0  0  0  0  0
  186.8420  176.8090  143.2540 C   0  0  0  0  0  2  0  0  0  0  0  0
  186.0070  178.0910  143.2140 C   0  0  0  0  0  2  0  0  0  0  0  0
  183.6420  178.5830  143.1520 O   0  0  0  0  0  1  0  0  0  0  0  0
  184.6700  177.8930  142.5030 C   0  0  1  0  0  3  0  0  0  0  0  0
  183.4520  178.2770  140.4600 O   0  0  0  0  0  1  0  0  0  0  0  0
  184.7290  178.2580  141.0240 C   0  0  0  0  0  2  0  0  0  0  0  0
  195.0510  173.1360  139.4340 O   0  0  0  0  0  0  0  0  0  0  0  0
  195.8090  172.0150  139.8630 C   0  0  0  0  0  1  0  0  0  0  0  0
  195.0320  176.3450  141.2660 O   0  0  0  0  0  0  0  0  0  0  0  0
  196.3920  176.6590  141.3020 C   0  0  0  0  0  2  0  0  0  0  0  0
  197.1410  175.7760  140.3260 C   0  0  0  0  0  1  0  0  0  0  0  0
  1 10  1  0  0  0  0
  2 12  1  0  0  0  0
  3  8  1  0  0  0  0
  4  8  1  0  0  0  0
  4  1  2  0  0  0  0
  5 11  1  0  0  0  0
  5  3  2  0  0  0  0
  6 13  1  0  0  0  0
  7  1  1  0  0  0  0
  7 15  1  0  0  0  0
 11  4  1  0  0  0  0
 12 11  2  0  0  0  0
 12 14  1  0  0  0  0
 13  9  2  0  0  0  0
 13 18  2  0  0  0  0
 14  7  2  0  0  0  0
 15 39  1  1  0  0  0
 15 16  1  0  0  0  0
 16  6  1  0  0  0  0
 17 10  1  6  0  0  0
 17 13  1  0  0  0  0
 17 20  1  0  0  0  0
 19 23  1  0  0  0  0
 19 26  1  0  0  0  0
 19 24  1  1  0  0  0
 20 27  1  6  0  0  0
 20 22  1  0  0  0  0
 21 30  1  1  0  0  0
 21 26  1  0  0  0  0
 22 23  1  0  0  0  0
 25 27  1  1  0  0  0
 25 19  1  0  0  0  0
 28 31  1  6  0  0  0
 28 25  1  0  0  0  0
 28 21  1  0  0  0  0
 29 30  1  0  0  0  0
 32 31  1  0  0  0  0
 34 33  1  1  0  0  0
 34 32  1  0  0  0  0
 35 36  1  0  0  0  0
 36 34  1  0  0  0  0
 37 38  1  0  0  0  0
 37 14  1  0  0  0  0
 39 40  1  0  0  0  0
 41 40  1  0  0  0  0
M  END
>  <MODEL>
6

>  <REMARK>
 VINA RESULT:      -7.6      2.474      3.336
  Name = 
  9 active torsions:
  status: ('A' for Active; 'I' for Inactive)
    1  A    between atoms: C_11  and  C_16
    2  A    between atoms: C_11  and  C_31
    3  A    between atoms: C_16  and  C_41
    4  A    between atoms: C_18  and  C_35
    5  A    between atoms: O_19  and  C_21
    6  A    between atoms: C_22  and  C_28
    7  A    between atoms: C_27  and  O_34
    8  A    between atoms: C_30  and  C_31
    9  A    between atoms: O_34  and  C_37
                            x       y       z     vdW  Elec       q    Type
                         _______ _______ _______ _____ _____    ______ ____

>  <TORSDO>
F 9

$$$$
=
 OpenBabel11062421413D

 41 45  0  0  1  0  0  0  0  0999 V2000
  192.1080  174.3340  141.2800 C   0  0  0  0  0  0  0  0  0  0  0  0
  191.9230  171.8930  137.8460 O   0  0  0  0  0  1  0  0  0  0  0  0
  188.6630  173.5750  140.3520 N   0  0  0  0  0  0  0  0  0  0  0  0
  190.9050  173.9050  140.7200 C   0  0  0  0  0  0  0  0  0  0  0  0
  189.4260  172.8680  139.3020 C   0  0  0  0  0  3  0  0  0  0  0  0
  194.4900  173.1840  143.1770 N   0  0  0  0  0  2  0  0  0  0  0  0
  193.3220  173.9240  140.6550 C   0  0  0  0  0  0  0  0  0  0  0  0
  189.6280  174.1640  141.1530 O   0  0  0  0  0  0  0  0  0  0  0  0
  193.0510  172.3260  145.2050 O   0  0  0  0  0  0  0  0  0  0  0  0
  192.0720  175.1400  142.5410 C   0  0  0  0  0  2  0  0  0  0  0  0
  190.8540  173.1360  139.6150 C   0  0  0  0  0  0  0  0  0  0  0  0
  192.0080  172.6980  138.9780 C   0  0  0  0  0  0  0  0  0  0  0  0
  193.3600  173.5770  144.4320 S   0  0  0  0  0  0  0  0  0  0  0  0
  193.2610  173.0750  139.5010 C   0  0  0  0  0  0  0  0  0  0  0  0
  194.6570  174.4910  141.0920 C   0  0  2  0  0  3  0  0  0  0  0  0
  194.9320  174.4410  142.5960 C   0  0  0  0  0  2  0  0  0  0  0  0
  191.8270  174.2180  143.7310 C   0  0  1  0  0  3  0  0  0  0  0  0
  193.9800  174.5810  145.3640 O   0  0  0  0  0  0  0  0  0  0  0  0
  189.1080  176.4590  146.2790 C   0  0  2  0  0  0  0  0  0  0  0  0
  190.8990  174.8720  144.7580 C   0  0  1  0  0  3  0  0  0  0  0  0
  186.8560  177.2790  145.8320 C   0  0  1  0  0  3  0  0  0  0  0  0
  191.4450  176.2360  145.2330 C   0  0  0  0  0  2  0  0  0  0  0  0
  190.5750  176.8990  146.3280 C   0  0  0  0  0  2  0  0  0  0  0  0
  188.9040  175.2700  147.2160 C   0  0  0  0  0  1  0  0  0  0  0  0
  188.7240  176.1470  144.8510 C   0  0  1  0  0  3  0  0  0  0  0  0
  188.1250  177.5510  146.6570 C   0  0  0  0  0  2  0  0  0  0  0  0
  189.4180  174.9020  144.3070 C   0  0  0  0  0  2  0  0  0  0  0  0
  187.2170  176.2060  144.8020 C   0  0  2  0  0  3  0  0  0  0  0  0
  184.5830  177.5300  146.5190 O   0  0  0  0  0  1  0  0  0  0  0  0
  185.7370  176.7730  146.7260 C   0  0  0  0  0  2  0  0  0  0  0  0
  186.6960  176.5480  143.4060 C   0  0  0  0  0  2  0  0  0  0  0  0
  187.2450  177.8750  142.8790 C   0  0  0  0  0  2  0  0  0  0  0  0
  185.5420  178.2410  141.2040 O   0  0  0  0  0  1  0  0  0  0  0  0
  186.1440  178.7870  142.3410 C   0  0  1  0  0  3  0  0  0  0  0  0
  185.5480  180.1870  144.2090 O   0  0  0  0  0  1  0  0  0  0  0  0
  185.1030  179.1420  143.3970 C   0  0  0  0  0  2  0  0  0  0  0  0
  194.4020  172.5950  138.8380 O   0  0  0  0  0  0  0  0  0  0  0  0
  195.0340  173.2570  137.7530 C   0  0  0  0  0  1  0  0  0  0  0  0
  194.7960  175.8020  140.6300 O   0  0  0  0  0  0  0  0  0  0  0  0
  196.1080  176.1600  140.9460 C   0  0  0  0  0  2  0  0  0  0  0  0
  197.0420  175.6660  139.8610 C   0  0  0  0  0  1  0  0  0  0  0  0
  1 10  1  0  0  0  0
  2 12  1  0  0  0  0
  3  8  1  0  0  0  0
  4  8  1  0  0  0  0
  4  1  1  0  0  0  0
  5 11  1  0  0  0  0
  5  3  2  0  0  0  0
  6 13  1  0  0  0  0
  7 15  1  0  0  0  0
  7  1  2  0  0  0  0
 11  4  2  0  0  0  0
 12 14  2  0  0  0  0
 12 11  1  0  0  0  0
 13  9  2  0  0  0  0
 13 18  2  0  0  0  0
 14  7  1  0  0  0  0
 15 39  1  1  0  0  0
 15 16  1  0  0  0  0
 16  6  1  0  0  0  0
 17 10  1  6  0  0  0
 17 13  1  0  0  0  0
 17 20  1  0  0  0  0
 19 23  1  0  0  0  0
 19 26  1  0  0  0  0
 19 24  1  1  0  0  0
 20 27  1  6  0  0  0
 20 22  1  0  0  0  0
 21 26  1  0  0  0  0
 21 30  1  1  0  0  0
 22 23  1  0  0  0  0
 25 27  1  1  0  0  0
 25 19  1  0  0  0  0
 28 31  1  6  0  0  0
 28 25  1  0  0  0  0
 28 21  1  0  0  0  0
 29 30  1  0  0  0  0
 32 31  1  0  0  0  0
 34 33  1  6  0  0  0
 34 32  1  0  0  0  0
 34 36  1  0  0  0  0
 36 35  1  0  0  0  0
 37 14  1  0  0  0  0
 38 37  1  0  0  0  0
 39 40  1  0  0  0  0
 41 40  1  0  0  0  0
M  END
>  <MODEL>
7

>  <REMARK>
 VINA RESULT:      -7.5      2.629      3.704
  Name = 
  9 active torsions:
  status: ('A' for Active; 'I' for Inactive)
    1  A    between atoms: C_11  and  C_16
    2  A    between atoms: C_11  and  C_31
    3  A    between atoms: C_16  and  C_41
    4  A    between atoms: C_18  and  C_35
    5  A    between atoms: O_19  and  C_21
    6  A    between atoms: C_22  and  C_28
    7  A    between atoms: C_27  and  O_34
    8  A    between atoms: C_30  and  C_31
    9  A    between atoms: O_34  and  C_37
                            x       y       z     vdW  Elec       q    Type
                         _______ _______ _______ _____ _____    ______ ____

>  <TORSDO>
F 9

$$$$
=
 OpenBabel11062421413D

 41 45  0  0  1  0  0  0  0  0999 V2000
  193.6720  172.4320  144.8310 C   0  0  0  0  0  0  0  0  0  0  0  0
  197.3190  173.7380  146.4980 O   0  0  0  0  0  1  0  0  0  0  0  0
  193.5560  175.9680  145.7210 N   0  0  0  0  0  0  0  0  0  0  0  0
  193.8840  173.7430  145.2570 C   0  0  0  0  0  0  0  0  0  0  0  0
  194.9250  175.5930  146.1330 C   0  0  0  0  0  3  0  0  0  0  0  0
  194.3790  170.5220  142.2920 N   0  0  0  0  0  2  0  0  0  0  0  0
  194.7420  171.5010  144.9720 C   0  0  0  0  0  0  0  0  0  0  0  0
  193.0100  174.8010  145.2080 O   0  0  0  0  0  0  0  0  0  0  0  0
  193.4640  172.0360  140.3450 O   0  0  0  0  0  0  0  0  0  0  0  0
  192.3670  172.0820  144.1880 C   0  0  0  0  0  2  0  0  0  0  0  0
  195.0480  174.1500  145.8000 C   0  0  0  0  0  0  0  0  0  0  0  0
  196.1250  173.2850  145.9450 C   0  0  0  0  0  0  0  0  0  0  0  0
  193.0170  171.3390  141.5980 S   0  0  0  0  0  0  0  0  0  0  0  0
  195.9910  171.9490  145.5170 C   0  0  0  0  0  0  0  0  0  0  0  0
  194.5360  170.0240  144.7020 C   0  0  2  0  0  3  0  0  0  0  0  0
  193.8700  169.6870  143.3680 C   0  0  0  0  0  2  0  0  0  0  0  0
  192.3620  172.5690  142.7420 C   0  0  1  0  0  3  0  0  0  0  0  0
  191.9600  170.3300  141.2400 O   0  0  0  0  0  0  0  0  0  0  0  0
  188.3910  174.2370  142.1420 C   0  0  2  0  0  0  0  0  0  0  0  0
  190.9880  173.1180  142.3470 C   0  0  1  0  0  3  0  0  0  0  0  0
  187.4660  176.3810  142.8450 C   0  0  1  0  0  3  0  0  0  0  0  0
  189.8420  172.2760  142.9490 C   0  0  0  0  0  2  0  0  0  0  0  0
  188.4350  172.7520  142.5140 C   0  0  0  0  0  2  0  0  0  0  0  0
  188.6120  174.3910  140.6380 C   0  0  0  0  0  1  0  0  0  0  0  0
  189.4130  174.9910  142.9600 C   0  0  1  0  0  3  0  0  0  0  0  0
  187.0920  174.9260  142.5150 C   0  0  0  0  0  2  0  0  0  0  0  0
  190.8500  174.6420  142.5860 C   0  0  0  0  0  2  0  0  0  0  0  0
  188.9940  176.4410  142.9190 C   0  0  2  0  0  3  0  0  0  0  0  0
  188.0560  177.8830  141.0860 O   0  0  0  0  0  1  0  0  0  0  0  0
  186.9710  177.3190  141.7580 C   0  0  0  0  0  2  0  0  0  0  0  0
  189.4830  177.2200  144.1400 C   0  0  0  0  0  2  0  0  0  0  0  0
  188.3650  177.5060  145.1440 C   0  0  0  0  0  2  0  0  0  0  0  0
  187.5230  176.1820  146.9810 O   0  0  0  0  0  1  0  0  0  0  0  0
  188.6380  176.8820  146.5120 C   0  0  1  0  0  3  0  0  0  0  0  0
  189.5450  174.6510  146.4650 O   0  0  0  0  0  1  0  0  0  0  0  0
  189.8840  176.0040  146.5210 C   0  0  0  0  0  2  0  0  0  0  0  0
  197.1110  171.1150  145.6650 O   0  0  0  0  0  0  0  0  0  0  0  0
  197.9120  170.6540  144.5870 C   0  0  0  0  0  1  0  0  0  0  0  0
  193.8170  169.4420  145.7500 O   0  0  0  0  0  0  0  0  0  0  0  0
  194.6090  168.3770  146.1830 C   0  0  0  0  0  2  0  0  0  0  0  0
  194.9290  168.5510  147.6530 C   0  0  0  0  0  1  0  0  0  0  0  0
  1  7  2  0  0  0  0
  1  4  1  0  0  0  0
  3  5  2  0  0  0  0
  4 11  2  0  0  0  0
  6 16  1  0  0  0  0
  7 14  1  0  0  0  0
  8  4  1  0  0  0  0
  8  3  1  0  0  0  0
  9 13  2  0  0  0  0
 10  1  1  0  0  0  0
 11 12  1  0  0  0  0
 11  5  1  0  0  0  0
 12  2  1  0  0  0  0
 13  6  1  0  0  0  0
 13 17  1  0  0  0  0
 14 37  1  0  0  0  0
 14 12  2  0  0  0  0
 15  7  1  0  0  0  0
 15 39  1  1  0  0  0
 16 15  1  0  0  0  0
 17 10  1  1  0  0  0
 18 13  2  0  0  0  0
 19 24  1  6  0  0  0
 19 23  1  0  0  0  0
 19 26  1  0  0  0  0
 19 25  1  0  0  0  0
 20 27  1  1  0  0  0
 20 17  1  0  0  0  0
 20 22  1  0  0  0  0
 21 30  1  6  0  0  0
 21 28  1  0  0  0  0
 23 22  1  0  0  0  0
 25 27  1  6  0  0  0
 26 21  1  0  0  0  0
 28 25  1  0  0  0  0
 28 31  1  1  0  0  0
 29 30  1  0  0  0  0
 31 32  1  0  0  0  0
 32 34  1  0  0  0  0
 34 36  1  0  0  0  0
 34 33  1  6  0  0  0
 35 36  1  0  0  0  0
 38 37  1  0  0  0  0
 39 40  1  0  0  0  0
 40 41  1  0  0  0  0
M  END
>  <MODEL>
8

>  <REMARK>
 VINA RESULT:      -7.5      2.684      5.811
  Name = 
  9 active torsions:
  status: ('A' for Active; 'I' for Inactive)
    1  A    between atoms: C_11  and  C_16
    2  A    between atoms: C_11  and  C_31
    3  A    between atoms: C_16  and  C_41
    4  A    between atoms: C_18  and  C_35
    5  A    between atoms: O_19  and  C_21
    6  A    between atoms: C_22  and  C_28
    7  A    between atoms: C_27  and  O_34
    8  A    between atoms: C_30  and  C_31
    9  A    between atoms: O_34  and  C_37
                            x       y       z     vdW  Elec       q    Type
                         _______ _______ _______ _____ _____    ______ ____

>  <TORSDO>
F 9

$$$$
=
 OpenBabel11062421413D

 41 45  0  0  1  0  0  0  0  0999 V2000
  189.3200  176.6090  143.8870 C   0  0  0  0  0  0  0  0  0  0  0  0
  186.8520  177.1500  147.2640 O   0  0  0  0  0  1  0  0  0  0  0  0
  191.2790  176.9490  146.9460 N   0  0  0  0  0  0  0  0  0  0  0  0
  189.8250  176.7670  145.1770 C   0  0  0  0  0  0  0  0  0  0  0  0
  189.8960  177.0790  147.4510 C   0  0  0  0  0  3  0  0  0  0  0  0
  187.9660  174.2980  142.0390 N   0  0  0  0  0  2  0  0  0  0  0  0
  187.9050  176.6350  143.7150 C   0  0  0  0  0  0  0  0  0  0  0  0
  191.1380  176.7650  145.5800 O   0  0  0  0  0  0  0  0  0  0  0  0
  189.7810  172.4140  142.3040 O   0  0  0  0  0  0  0  0  0  0  0  0
  190.2740  176.3530  142.7630 C   0  0  0  0  0  2  0  0  0  0  0  0
  189.0310  176.9520  146.2500 C   0  0  0  0  0  0  0  0  0  0  0  0
  187.6460  176.9700  146.1360 C   0  0  0  0  0  0  0  0  0  0  0  0
  189.6200  173.8290  141.8250 S   0  0  0  0  0  0  0  0  0  0  0  0
  187.0630  176.7950  144.8650 C   0  0  0  0  0  0  0  0  0  0  0  0
  187.2860  176.6510  142.3320 C   0  0  2  0  0  3  0  0  0  0  0  0
  187.7980  175.5790  141.3700 C   0  0  0  0  0  2  0  0  0  0  0  0
  190.7130  174.8930  142.7870 C   0  0  1  0  0  3  0  0  0  0  0  0
  189.9710  173.8890  140.3640 O   0  0  0  0  0  0  0  0  0  0  0  0
  195.0230  174.6340  142.2710 C   0  0  2  0  0  0  0  0  0  0  0  0
  192.1940  174.7530  142.4260 C   0  0  1  0  0  3  0  0  0  0  0  0
  196.6890  173.4160  143.5700 C   0  0  1  0  0  3  0  0  0  0  0  0
  192.9310  176.1080  142.5030 C   0  0  0  0  0  2  0  0  0  0  0  0
  194.4160  176.0260  142.0730 C   0  0  0  0  0  2  0  0  0  0  0  0
  194.8850  173.8320  140.9780 C   0  0  0  0  0  1  0  0  0  0  0  0
  194.3590  173.9580  143.4480 C   0  0  1  0  0  3  0  0  0  0  0  0
  196.4850  174.6530  142.6770 C   0  0  0  0  0  2  0  0  0  0  0  0
  192.8990  173.6020  143.1840 C   0  0  0  0  0  2  0  0  0  0  0  0
  195.2980  172.8580  143.8810 C   0  0  2  0  0  3  0  0  0  0  0  0
  196.7110  171.2600  142.5460 O   0  0  0  0  0  1  0  0  0  0  0  0
  197.5100  172.3650  142.8430 C   0  0  0  0  0  2  0  0  0  0  0  0
  195.1350  172.5070  145.3600 C   0  0  0  0  0  2  0  0  0  0  0  0
  194.4000  171.1840  145.5760 C   0  0  0  0  0  2  0  0  0  0  0  0
  195.3960  169.1480  144.7380 O   0  0  0  0  0  1  0  0  0  0  0  0
  195.3570  170.0200  145.8290 C   0  0  1  0  0  3  0  0  0  0  0  0
  197.7200  169.9300  145.3670 O   0  0  0  0  0  1  0  0  0  0  0  0
  196.7580  170.4820  146.2140 C   0  0  0  0  0  2  0  0  0  0  0  0
  185.6610  176.8010  144.7980 O   0  0  0  0  0  0  0  0  0  0  0  0
  184.8610  177.9700  144.8910 C   0  0  0  0  0  1  0  0  0  0  0  0
  187.4360  177.9150  141.7540 O   0  0  0  0  0  0  0  0  0  0  0  0
  186.5390  177.9310  140.6840 C   0  0  0  0  0  2  0  0  0  0  0  0
  185.1510  178.2600  141.1930 C   0  0  0  0  0  1  0  0  0  0  0  0
  1  4  1  0  0  0  0
  3  5  2  0  0  0  0
  4  8  1  0  0  0  0
  4 11  2  0  0  0  0
  7  1  2  0  0  0  0
  7 14  1  0  0  0  0
  8  3  1  0  0  0  0
 10  1  1  0  0  0  0
 11  5  1  0  0  0  0
 12 11  1  0  0  0  0
 12  2  1  0  0  0  0
 13  6  1  0  0  0  0
 13  9  2  0  0  0  0
 13 17  1  0  0  0  0
 14 12  2  0  0  0  0
 15 39  1  6  0  0  0
 15  7  1  0  0  0  0
 16  6  1  0  0  0  0
 16 15  1  0  0  0  0
 17 10  1  6  0  0  0
 18 13  2  0  0  0  0
 19 24  1  6  0  0  0
 19 26  1  0  0  0  0
 19 25  1  0  0  0  0
 20 22  1  1  0  0  0
 20 17  1  0  0  0  0
 20 27  1  0  0  0  0
 21 30  1  6  0  0  0
 21 28  1  0  0  0  0
 23 19  1  0  0  0  0
 23 22  1  0  0  0  0
 25 27  1  6  0  0  0
 25 28  1  0  0  0  0
 26 21  1  0  0  0  0
 28 31  1  1  0  0  0
 29 30  1  0  0  0  0
 31 32  1  0  0  0  0
 32 34  1  0  0  0  0
 34 33  1  6  0  0  0
 34 36  1  0  0  0  0
 35 36  1  0  0  0  0
 37 14  1  0  0  0  0
 37 38  1  0  0  0  0
 40 41  1  0  0  0  0
 40 39  1  0  0  0  0
M  END
>  <MODEL>
9

>  <REMARK>
 VINA RESULT:      -7.4      2.265      8.981
  Name = 
  9 active torsions:
  status: ('A' for Active; 'I' for Inactive)
    1  A    between atoms: C_11  and  C_16
    2  A    between atoms: C_11  and  C_31
    3  A    between atoms: C_16  and  C_41
    4  A    between atoms: C_18  and  C_35
    5  A    between atoms: O_19  and  C_21
    6  A    between atoms: C_22  and  C_28
    7  A    between atoms: C_27  and  O_34
    8  A    between atoms: C_30  and  C_31
    9  A    between atoms: O_34  and  C_37
                            x       y       z     vdW  Elec       q    Type
                         _______ _______ _______ _____ _____    ______ ____

>  <TORSDO>
F 9

$$$$
