=
 OpenBabel11072408483D

 26 30  0  0  1  0  0  0  0  0999 V2000
  194.4320  174.1540  144.5000 C   0  0  0  0  0  2  0  0  0  0  0  0
  192.4290  172.6100  144.6080 C   0  0  0  0  0  0  0  0  0  0  0  0
  191.2630  173.2060  144.5580 N   0  0  0  0  0  0  0  0  0  0  0  0
  189.6770  174.5930  145.8800 C   0  0  0  0  0  2  0  0  0  0  0  0
  194.5300  171.8370  145.3870 C   0  0  0  0  0  2  0  0  0  0  0  0
  189.1740  177.3950  146.4140 C   0  0  0  0  0  2  0  0  0  0  0  0
  191.0340  177.0030  144.7120 N   0  0  0  0  0  2  0  0  0  0  0  0
  191.4510  175.6450  144.4570 C   0  0  0  0  0  0  0  0  0  0  0  0
  192.5730  171.2860  144.1390 N   0  0  0  0  0  2  0  0  0  0  0  0
  190.8160  177.1660  148.0860 O   0  0  0  0  0  0  0  0  0  0  0  0
  193.8260  169.4580  145.1300 C   0  0  0  0  0  1  0  0  0  0  0  0
  193.9060  170.8070  144.4430 C   0  0  2  0  0  3  0  0  0  0  0  0
  190.0730  176.5930  147.3080 C   0  0  0  0  0  0  0  0  0  0  0  0
  192.6950  175.4380  143.6760 C   0  0  2  0  0  3  0  0  0  0  0  0
  190.0610  175.0960  147.2630 C   0  0  0  0  0  2  0  0  0  0  0  0
  193.7060  175.4420  144.7510 C   0  0  2  0  0  3  0  0  0  0  0  0
  193.7070  176.4160  143.7400 O   0  0  0  0  0  0  0  0  0  0  0  0
  190.8650  174.5320  144.9780 C   0  0  0  0  0  0  0  0  0  0  0  0
  193.6700  173.0950  145.3020 C   0  0  1  0  0  3  0  0  0  0  0  0
  189.6970  177.5410  144.9760 C   0  0  1  0  0  3  0  0  0  0  0  0
  186.8480  176.6950  141.8990 C   0  0  0  0  0  3  0  0  0  0  0  0
  188.0620  177.2210  141.5840 N   0  0  0  0  0  0  0  0  0  0  0  0
  188.7120  177.2340  143.8880 C   0  0  0  0  0  0  0  0  0  0  0  0
  187.4660  176.6980  144.2270 C   0  0  0  0  0  3  0  0  0  0  0  0
  188.9890  177.4940  142.5400 C   0  0  0  0  0  3  0  0  0  0  0  0
  186.5270  176.4240  143.2300 C   0  0  0  0  0  3  0  0  0  0  0  0
  2 19  1  0  0  0  0
  3  2  2  0  0  0  0
  3 18  1  0  0  0  0
  4 15  1  0  0  0  0
  6 13  1  0  0  0  0
  7 20  1  0  0  0  0
  8  7  1  0  0  0  0
  8 18  2  0  0  0  0
  9 12  1  0  0  0  0
  9  2  1  0  0  0  0
 12 11  1  1  0  0  0
 12  5  1  0  0  0  0
 13 10  2  0  0  0  0
 14 17  1  6  0  0  0
 14  8  1  0  0  0  0
 14 16  1  0  0  0  0
 15 13  1  0  0  0  0
 16  1  1  6  0  0  0
 17 16  1  0  0  0  0
 18  4  1  0  0  0  0
 19  1  1  6  0  0  0
 19  5  1  0  0  0  0
 20 23  1  6  0  0  0
 20  6  1  0  0  0  0
 21 26  1  0  0  0  0
 22 21  2  0  0  0  0
 22 25  1  0  0  0  0
 23 24  1  0  0  0  0
 25 23  2  0  0  0  0
 26 24  2  0  0  0  0
M  END
>  <MODEL>
1

>  <REMARK>
 VINA RESULT:      -7.4      0.000      0.000
  Name = 
  1 active torsions:
  status: ('A' for Active; 'I' for Inactive)
    1  A    between atoms: C_10  and  C_26
                            x       y       z     vdW  Elec       q    Type
                         _______ _______ _______ _____ _____    ______ ____

>  <TORSDO>
F 1

$$$$
=
 OpenBabel11072408483D

 26 30  0  0  1  0  0  0  0  0999 V2000
  191.8760  173.9480  144.0690 C   0  0  0  0  0  2  0  0  0  0  0  0
  192.2620  176.3880  144.6210 C   0  0  0  0  0  0  0  0  0  0  0  0
  191.1750  177.0990  144.7930 N   0  0  0  0  0  0  0  0  0  0  0  0
  189.2750  178.1560  143.5840 C   0  0  0  0  0  2  0  0  0  0  0  0
  194.0000  175.1440  143.5960 C   0  0  0  0  0  2  0  0  0  0  0  0
  186.6180  177.4450  142.6800 C   0  0  0  0  0  2  0  0  0  0  0  0
  187.7580  175.6050  144.0300 N   0  0  0  0  0  2  0  0  0  0  0  0
  189.1300  175.8020  144.4310 C   0  0  0  0  0  0  0  0  0  0  0  0
  193.4600  176.7490  145.2760 N   0  0  0  0  0  2  0  0  0  0  0  0
  187.7110  176.5710  140.7860 O   0  0  0  0  0  0  0  0  0  0  0  0
  195.7210  176.7630  144.3930 C   0  0  0  0  0  1  0  0  0  0  0  0
  194.5410  175.9060  144.8070 C   0  0  2  0  0  3  0  0  0  0  0  0
  187.8060  177.2690  141.7820 C   0  0  0  0  0  0  0  0  0  0  0  0
  189.8650  174.6370  144.9790 C   0  0  2  0  0  3  0  0  0  0  0  0
  189.1040  177.9500  142.0870 C   0  0  0  0  0  2  0  0  0  0  0  0
  190.4150  174.0450  143.7450 C   0  0  2  0  0  3  0  0  0  0  0  0
  189.5050  173.3440  144.5510 O   0  0  0  0  0  0  0  0  0  0  0  0
  189.8500  176.9410  144.2340 C   0  0  0  0  0  0  0  0  0  0  0  0
  192.4800  175.2840  143.6260 C   0  0  1  0  0  3  0  0  0  0  0  0
  186.6570  176.5680  143.9410 C   0  0  1  0  0  3  0  0  0  0  0  0
  185.8280  178.5930  147.6170 C   0  0  0  0  0  3  0  0  0  0  0  0
  186.2410  177.2970  147.6260 N   0  0  0  0  0  0  0  0  0  0  0  0
  186.3840  177.2730  145.2370 C   0  0  0  0  0  0  0  0  0  0  0  0
  185.9550  178.6030  145.2120 C   0  0  0  0  0  3  0  0  0  0  0  0
  186.5180  176.6300  146.4740 C   0  0  0  0  0  3  0  0  0  0  0  0
  185.6760  179.2710  146.4060 C   0  0  0  0  0  3  0  0  0  0  0  0
  2  3  2  0  0  0  0
  2  9  1  0  0  0  0
  4 18  1  0  0  0  0
  5 12  1  0  0  0  0
  6 20  1  0  0  0  0
  7  8  1  0  0  0  0
 10 13  2  0  0  0  0
 12 11  1  6  0  0  0
 12  9  1  0  0  0  0
 13 15  1  0  0  0  0
 13  6  1  0  0  0  0
 14  8  1  6  0  0  0
 15  4  1  0  0  0  0
 16  1  1  1  0  0  0
 16 17  1  0  0  0  0
 16 14  1  0  0  0  0
 17 14  1  0  0  0  0
 18  8  2  0  0  0  0
 18  3  1  0  0  0  0
 19  5  1  1  0  0  0
 19  1  1  0  0  0  0
 19  2  1  0  0  0  0
 20  7  1  0  0  0  0
 20 23  1  1  0  0  0
 21 22  1  0  0  0  0
 23 25  1  0  0  0  0
 24 23  2  0  0  0  0
 24 26  1  0  0  0  0
 25 22  2  0  0  0  0
 26 21  2  0  0  0  0
M  END
>  <MODEL>
2

>  <REMARK>
 VINA RESULT:      -7.3      2.802      4.687
  Name = 
  1 active torsions:
  status: ('A' for Active; 'I' for Inactive)
    1  A    between atoms: C_10  and  C_26
                            x       y       z     vdW  Elec       q    Type
                         _______ _______ _______ _____ _____    ______ ____

>  <TORSDO>
F 1

$$$$
=
 OpenBabel11072408483D

 26 30  0  0  1  0  0  0  0  0999 V2000
  186.9500  177.3250  143.3770 C   0  0  0  0  0  2  0  0  0  0  0  0
  187.5350  177.2530  145.8390 C   0  0  0  0  0  0  0  0  0  0  0  0
  188.7110  176.7490  146.1170 N   0  0  0  0  0  0  0  0  0  0  0  0
  189.9890  174.6170  146.2300 C   0  0  0  0  0  2  0  0  0  0  0  0
  185.2610  177.4410  145.1940 C   0  0  0  0  0  2  0  0  0  0  0  0
  191.5820  172.9510  144.4780 C   0  0  0  0  0  2  0  0  0  0  0  0
  190.8020  175.1200  143.3840 N   0  0  0  0  0  2  0  0  0  0  0  0
  189.9030  175.9720  144.1240 C   0  0  0  0  0  0  0  0  0  0  0  0
  186.9460  178.2070  146.6990 N   0  0  0  0  0  2  0  0  0  0  0  0
  189.5230  172.0160  143.8210 O   0  0  0  0  0  0  0  0  0  0  0  0
  184.6350  178.3670  147.4230 C   0  0  0  0  0  1  0  0  0  0  0  0
  185.5950  178.4890  146.2570 C   0  0  2  0  0  3  0  0  0  0  0  0
  190.1100  172.7130  144.6320 C   0  0  0  0  0  0  0  0  0  0  0  0
  189.2490  177.0870  143.3950 C   0  0  2  0  0  3  0  0  0  0  0  0
  189.3520  173.3120  145.7760 C   0  0  0  0  0  2  0  0  0  0  0  0
  188.0370  176.4170  142.8860 C   0  0  2  0  0  3  0  0  0  0  0  0
  189.0030  176.9440  142.0160 O   0  0  0  0  0  0  0  0  0  0  0  0
  189.5060  175.7680  145.4100 C   0  0  0  0  0  0  0  0  0  0  0  0
  186.5810  176.8030  144.7690 C   0  0  1  0  0  3  0  0  0  0  0  0
  191.9300  174.3120  143.8550 C   0  0  1  0  0  3  0  0  0  0  0  0
  194.9340  176.5620  145.9090 C   0  0  0  0  0  3  0  0  0  0  0  0
  194.2530  177.1160  144.8690 N   0  0  0  0  0  0  0  0  0  0  0  0
  192.9700  175.1160  144.5780 C   0  0  0  0  0  0  0  0  0  0  0  0
  193.6660  174.5320  145.6410 C   0  0  0  0  0  3  0  0  0  0  0  0
  193.2900  176.4260  144.2020 C   0  0  0  0  0  3  0  0  0  0  0  0
  194.6520  175.2560  146.3130 C   0  0  0  0  0  3  0  0  0  0  0  0
  2  3  2  0  0  0  0
  2  9  1  0  0  0  0
  5 12  1  0  0  0  0
  6 13  1  0  0  0  0
  7 20  1  0  0  0  0
  7  8  1  0  0  0  0
  8 18  2  0  0  0  0
 10 13  2  0  0  0  0
 12  9  1  0  0  0  0
 12 11  1  1  0  0  0
 13 15  1  0  0  0  0
 14 17  1  6  0  0  0
 14  8  1  0  0  0  0
 15  4  1  0  0  0  0
 16  1  1  6  0  0  0
 16 14  1  0  0  0  0
 17 16  1  0  0  0  0
 18  3  1  0  0  0  0
 18  4  1  0  0  0  0
 19  1  1  6  0  0  0
 19  5  1  0  0  0  0
 19  2  1  0  0  0  0
 20  6  1  0  0  0  0
 20 23  1  1  0  0  0
 21 26  1  0  0  0  0
 22 21  2  0  0  0  0
 23 24  1  0  0  0  0
 24 26  2  0  0  0  0
 25 23  2  0  0  0  0
 25 22  1  0  0  0  0
M  END
>  <MODEL>
3

>  <REMARK>
 VINA RESULT:      -7.2      2.613      6.825
  Name = 
  1 active torsions:
  status: ('A' for Active; 'I' for Inactive)
    1  A    between atoms: C_10  and  C_26
                            x       y       z     vdW  Elec       q    Type
                         _______ _______ _______ _____ _____    ______ ____

>  <TORSDO>
F 1

$$$$
=
 OpenBabel11072408483D

 26 30  0  0  1  0  0  0  0  0999 V2000
  193.7330  173.9670  143.6230 C   0  0  0  0  0  2  0  0  0  0  0  0
  191.7750  172.5500  144.3740 C   0  0  0  0  0  0  0  0  0  0  0  0
  190.6920  173.2180  144.6860 N   0  0  0  0  0  0  0  0  0  0  0  0
  189.6920  174.6890  146.4260 C   0  0  0  0  0  2  0  0  0  0  0  0
  193.9620  171.6410  144.4590 C   0  0  0  0  0  2  0  0  0  0  0  0
  189.5580  177.5110  147.0610 C   0  0  0  0  0  2  0  0  0  0  0  0
  190.7580  177.0200  144.8630 N   0  0  0  0  0  2  0  0  0  0  0  0
  190.9890  175.6410  144.5050 C   0  0  0  0  0  0  0  0  0  0  0  0
  191.6820  171.2230  143.8980 N   0  0  0  0  0  2  0  0  0  0  0  0
  191.6260  177.1650  148.1320 O   0  0  0  0  0  0  0  0  0  0  0  0
  193.0680  169.3130  144.4630 C   0  0  0  0  0  1  0  0  0  0  0  0
  193.0110  170.6600  143.7720 C   0  0  2  0  0  3  0  0  0  0  0  0
  190.6410  176.6470  147.6340 C   0  0  0  0  0  0  0  0  0  0  0  0
  191.9080  175.3650  143.3740 C   0  0  2  0  0  3  0  0  0  0  0  0
  190.5230  175.1540  147.6120 C   0  0  0  0  0  2  0  0  0  0  0  0
  193.2040  175.2960  144.0750 C   0  0  2  0  0  3  0  0  0  0  0  0
  192.9470  176.2760  143.1050 O   0  0  0  0  0  0  0  0  0  0  0  0
  190.5300  174.5620  145.1960 C   0  0  0  0  0  0  0  0  0  0  0  0
  193.1990  172.9500  144.6360 C   0  0  1  0  0  3  0  0  0  0  0  0
  189.6090  177.6370  145.5290 C   0  0  1  0  0  3  0  0  0  0  0  0
  185.9410  176.9290  143.4450 C   0  0  0  0  0  3  0  0  0  0  0  0
  185.9980  176.7940  144.7970 N   0  0  0  0  0  0  0  0  0  0  0  0
  188.3140  177.4020  144.8100 C   0  0  0  0  0  0  0  0  0  0  0  0
  188.2710  177.5390  143.4200 C   0  0  0  0  0  3  0  0  0  0  0  0
  187.1490  177.0180  145.4860 C   0  0  0  0  0  3  0  0  0  0  0  0
  187.0800  177.3040  142.7300 C   0  0  0  0  0  3  0  0  0  0  0  0
  2 19  1  0  0  0  0
  2  3  2  0  0  0  0
  3 18  1  0  0  0  0
  4 15  1  0  0  0  0
  5 19  1  0  0  0  0
  6 13  1  0  0  0  0
  7 20  1  0  0  0  0
  8  7  1  0  0  0  0
  8 18  2  0  0  0  0
  9  2  1  0  0  0  0
 12  9  1  0  0  0  0
 12  5  1  0  0  0  0
 12 11  1  1  0  0  0
 13 10  2  0  0  0  0
 14 17  1  6  0  0  0
 14 16  1  0  0  0  0
 14  8  1  0  0  0  0
 15 13  1  0  0  0  0
 16  1  1  6  0  0  0
 17 16  1  0  0  0  0
 18  4  1  0  0  0  0
 19  1  1  6  0  0  0
 20 23  1  6  0  0  0
 20  6  1  0  0  0  0
 21 22  1  0  0  0  0
 22 25  2  0  0  0  0
 23 25  1  0  0  0  0
 24 23  2  0  0  0  0
 26 24  1  0  0  0  0
 26 21  2  0  0  0  0
M  END
>  <MODEL>
4

>  <REMARK>
 VINA RESULT:      -7.0      1.106      1.351
  Name = 
  1 active torsions:
  status: ('A' for Active; 'I' for Inactive)
    1  A    between atoms: C_10  and  C_26
                            x       y       z     vdW  Elec       q    Type
                         _______ _______ _______ _____ _____    ______ ____

>  <TORSDO>
F 1

$$$$
=
 OpenBabel11072408483D

 26 30  0  0  1  0  0  0  0  0999 V2000
  187.6600  176.4880  147.2660 C   0  0  0  0  0  2  0  0  0  0  0  0
  186.7950  176.9280  144.9280 C   0  0  0  0  0  0  0  0  0  0  0  0
  187.5160  176.4150  143.9620 N   0  0  0  0  0  0  0  0  0  0  0  0
  189.6540  176.6770  142.7160 C   0  0  0  0  0  2  0  0  0  0  0  0
  186.0810  178.3220  146.7070 C   0  0  0  0  0  2  0  0  0  0  0  0
  192.4060  175.8020  142.9290 C   0  0  0  0  0  2  0  0  0  0  0  0
  190.8830  174.8080  144.7180 N   0  0  0  0  0  2  0  0  0  0  0  0
  189.5160  175.2650  144.7820 C   0  0  0  0  0  0  0  0  0  0  0  0
  185.4090  177.1350  144.7500 N   0  0  0  0  0  2  0  0  0  0  0  0
  192.6770  177.6560  144.3560 O   0  0  0  0  0  0  0  0  0  0  0  0
  184.0660  179.0410  145.4260 C   0  0  0  0  0  1  0  0  0  0  0  0
  184.8760  177.8480  145.8930 C   0  0  2  0  0  3  0  0  0  0  0  0
  191.9650  177.1010  143.5350 C   0  0  0  0  0  0  0  0  0  0  0  0
  188.7150  174.8880  145.9720 C   0  0  2  0  0  3  0  0  0  0  0  0
  190.6670  177.7310  143.1380 C   0  0  0  0  0  2  0  0  0  0  0  0
  189.0280  176.0040  146.8860 C   0  0  2  0  0  3  0  0  0  0  0  0
  189.3780  174.6820  147.1980 O   0  0  0  0  0  0  0  0  0  0  0  0
  188.9310  176.1200  143.8990 C   0  0  0  0  0  0  0  0  0  0  0  0
  187.2910  177.5340  146.2100 C   0  0  1  0  0  3  0  0  0  0  0  0
  191.7390  174.5670  143.5540 C   0  0  1  0  0  3  0  0  0  0  0  0
  190.1240  171.7500  140.7680 C   0  0  0  0  0  3  0  0  0  0  0  0
  190.0700  171.5010  142.1040 N   0  0  0  0  0  0  0  0  0  0  0  0
  191.1560  173.5790  142.5870 C   0  0  0  0  0  0  0  0  0  0  0  0
  191.2230  173.8460  141.2160 C   0  0  0  0  0  3  0  0  0  0  0  0
  190.5700  172.3800  143.0130 C   0  0  0  0  0  3  0  0  0  0  0  0
  190.7040  172.9300  140.2990 C   0  0  0  0  0  3  0  0  0  0  0  0
  2 19  1  0  0  0  0
  3  2  2  0  0  0  0
  4 15  1  0  0  0  0
  4 18  1  0  0  0  0
  6 13  1  0  0  0  0
  6 20  1  0  0  0  0
  7  8  1  0  0  0  0
  9  2  1  0  0  0  0
  9 12  1  0  0  0  0
 12 11  1  6  0  0  0
 12  5  1  0  0  0  0
 13 10  2  0  0  0  0
 14  8  1  6  0  0  0
 14 16  1  0  0  0  0
 14 17  1  0  0  0  0
 15 13  1  0  0  0  0
 16 17  1  0  0  0  0
 16  1  1  1  0  0  0
 18  3  1  0  0  0  0
 18  8  2  0  0  0  0
 19  5  1  1  0  0  0
 19  1  1  0  0  0  0
 20 23  1  6  0  0  0
 20  7  1  0  0  0  0
 21 22  1  0  0  0  0
 22 25  2  0  0  0  0
 23 25  1  0  0  0  0
 24 23  2  0  0  0  0
 26 21  2  0  0  0  0
 26 24  1  0  0  0  0
M  END
>  <MODEL>
5

>  <REMARK>
 VINA RESULT:      -6.9      2.615      6.570
  Name = 
  1 active torsions:
  status: ('A' for Active; 'I' for Inactive)
    1  A    between atoms: C_10  and  C_26
                            x       y       z     vdW  Elec       q    Type
                         _______ _______ _______ _____ _____    ______ ____

>  <TORSDO>
F 1

$$$$
=
 OpenBabel11072408483D

 26 30  0  0  1  0  0  0  0  0999 V2000
  187.8630  176.2540  146.5380 C   0  0  0  0  0  2  0  0  0  0  0  0
  188.4050  176.6910  144.1040 C   0  0  0  0  0  0  0  0  0  0  0  0
  189.4860  176.0990  143.6600 N   0  0  0  0  0  0  0  0  0  0  0  0
  191.9710  176.1690  143.7420 C   0  0  0  0  0  2  0  0  0  0  0  0
  186.9670  178.1820  145.2560 C   0  0  0  0  0  2  0  0  0  0  0  0
  194.1170  175.1010  145.3680 C   0  0  0  0  0  2  0  0  0  0  0  0
  191.8050  174.2710  146.0620 N   0  0  0  0  0  2  0  0  0  0  0  0
  190.6520  174.8290  145.3980 C   0  0  0  0  0  0  0  0  0  0  0  0
  187.3440  176.9940  143.2220 N   0  0  0  0  0  2  0  0  0  0  0  0
  193.7320  176.9680  146.7490 O   0  0  0  0  0  0  0  0  0  0  0  0
  185.9990  179.0110  143.1120 C   0  0  0  0  0  1  0  0  0  0  0  0
  186.3430  177.7760  143.9190 C   0  0  2  0  0  3  0  0  0  0  0  0
  193.5230  176.4450  145.6680 C   0  0  0  0  0  0  0  0  0  0  0  0
  189.3160  174.5460  145.9770 C   0  0  2  0  0  3  0  0  0  0  0  0
  192.6850  177.1570  144.6520 C   0  0  0  0  0  2  0  0  0  0  0  0
  189.1820  175.6600  146.9340 C   0  0  2  0  0  3  0  0  0  0  0  0
  189.2100  174.3250  147.3640 O   0  0  0  0  0  0  0  0  0  0  0  0
  190.6920  175.6990  144.3520 C   0  0  0  0  0  0  0  0  0  0  0  0
  188.1910  177.2950  145.4630 C   0  0  1  0  0  3  0  0  0  0  0  0
  193.1270  173.9350  145.5250 C   0  0  1  0  0  3  0  0  0  0  0  0
  193.0200  171.1660  142.2660 C   0  0  0  0  0  3  0  0  0  0  0  0
  192.2000  170.9950  143.3370 N   0  0  0  0  0  0  0  0  0  0  0  0
  193.0700  172.9670  144.3810 C   0  0  0  0  0  0  0  0  0  0  0  0
  193.9230  173.1500  143.2890 C   0  0  0  0  0  3  0  0  0  0  0  0
  192.2080  171.8630  144.3850 C   0  0  0  0  0  3  0  0  0  0  0  0
  193.9000  172.2490  142.2230 C   0  0  0  0  0  3  0  0  0  0  0  0
  2 19  1  0  0  0  0
  3  2  2  0  0  0  0
  3 18  1  0  0  0  0
  4 18  1  0  0  0  0
  4 15  1  0  0  0  0
  6 20  1  0  0  0  0
  6 13  1  0  0  0  0
  8  7  1  0  0  0  0
  9 12  1  0  0  0  0
  9  2  1  0  0  0  0
 12 11  1  6  0  0  0
 12  5  1  0  0  0  0
 13 10  2  0  0  0  0
 14  8  1  1  0  0  0
 14 16  1  0  0  0  0
 14 17  1  0  0  0  0
 15 13  1  0  0  0  0
 16  1  1  6  0  0  0
 16 17  1  0  0  0  0
 18  8  2  0  0  0  0
 19  5  1  6  0  0  0
 19  1  1  0  0  0  0
 20 23  1  6  0  0  0
 20  7  1  0  0  0  0
 21 22  1  0  0  0  0
 22 25  2  0  0  0  0
 23 25  1  0  0  0  0
 24 23  2  0  0  0  0
 26 21  2  0  0  0  0
 26 24  1  0  0  0  0
M  END
>  <MODEL>
6

>  <REMARK>
 VINA RESULT:      -6.8      1.735      6.533
  Name = 
  1 active torsions:
  status: ('A' for Active; 'I' for Inactive)
    1  A    between atoms: C_10  and  C_26
                            x       y       z     vdW  Elec       q    Type
                         _______ _______ _______ _____ _____    ______ ____

>  <TORSDO>
F 1

$$$$
=
 OpenBabel11072408483D

 26 30  0  0  1  0  0  0  0  0999 V2000
  188.4300  174.4430  142.6380 C   0  0  0  0  0  2  0  0  0  0  0  0
  189.1730  176.8610  142.5420 C   0  0  0  0  0  0  0  0  0  0  0  0
  190.4510  177.0590  142.7510 N   0  0  0  0  0  0  0  0  0  0  0  0
  192.2000  177.0790  144.5200 C   0  0  0  0  0  2  0  0  0  0  0  0
  186.8830  176.3670  142.9030 C   0  0  0  0  0  2  0  0  0  0  0  0
  194.0260  175.2190  145.7820 C   0  0  0  0  0  2  0  0  0  0  0  0
  192.6860  174.1880  143.8700 N   0  0  0  0  0  2  0  0  0  0  0  0
  191.6610  174.9890  143.2460 C   0  0  0  0  0  0  0  0  0  0  0  0
  188.4330  177.7620  141.7450 N   0  0  0  0  0  2  0  0  0  0  0  0
  192.2080  174.6930  147.1830 O   0  0  0  0  0  0  0  0  0  0  0  0
  186.2010  178.6370  142.1260 C   0  0  0  0  0  1  0  0  0  0  0  0
  187.0280  177.4110  141.7950 C   0  0  2  0  0  3  0  0  0  0  0  0
  192.6640  175.4670  146.3590 C   0  0  0  0  0  0  0  0  0  0  0  0
  190.7170  174.3100  142.3260 C   0  0  2  0  0  3  0  0  0  0  0  0
  191.8620  176.6610  145.9430 C   0  0  0  0  0  2  0  0  0  0  0  0
  189.6670  173.8780  143.2680 C   0  0  2  0  0  3  0  0  0  0  0  0
  190.4230  172.9490  142.5380 O   0  0  0  0  0  0  0  0  0  0  0  0
  191.4070  176.2970  143.5250 C   0  0  0  0  0  0  0  0  0  0  0  0
  188.2860  175.8540  143.2170 C   0  0  1  0  0  3  0  0  0  0  0  0
  194.0010  174.5800  144.3840 C   0  0  1  0  0  3  0  0  0  0  0  0
  196.5150  176.4410  141.4650 C   0  0  0  0  0  3  0  0  0  0  0  0
  195.6080  175.5000  141.0890 N   0  0  0  0  0  0  0  0  0  0  0  0
  194.8670  175.2370  143.3500 C   0  0  0  0  0  0  0  0  0  0  0  0
  195.7990  176.1990  143.7510 C   0  0  0  0  0  3  0  0  0  0  0  0
  194.7920  174.8960  141.9940 C   0  0  0  0  0  3  0  0  0  0  0  0
  196.6280  176.8070  142.8070 C   0  0  0  0  0  3  0  0  0  0  0  0
  2  3  2  0  0  0  0
  2 19  1  0  0  0  0
  3 18  1  0  0  0  0
  4 15  1  0  0  0  0
  5 19  1  0  0  0  0
  6 13  1  0  0  0  0
  7 20  1  0  0  0  0
  8 18  2  0  0  0  0
  8  7  1  0  0  0  0
  9 12  1  0  0  0  0
  9  2  1  0  0  0  0
 12 11  1  1  0  0  0
 12  5  1  0  0  0  0
 13 10  2  0  0  0  0
 14 17  1  1  0  0  0
 14  8  1  0  0  0  0
 14 16  1  0  0  0  0
 15 13  1  0  0  0  0
 16  1  1  6  0  0  0
 17 16  1  0  0  0  0
 18  4  1  0  0  0  0
 19  1  1  6  0  0  0
 20 23  1  6  0  0  0
 20  6  1  0  0  0  0
 21 26  1  0  0  0  0
 22 21  2  0  0  0  0
 22 25  1  0  0  0  0
 23 24  1  0  0  0  0
 25 23  2  0  0  0  0
 26 24  2  0  0  0  0
M  END
>  <MODEL>
7

>  <REMARK>
 VINA RESULT:      -6.7      2.538      6.526
  Name = 
  1 active torsions:
  status: ('A' for Active; 'I' for Inactive)
    1  A    between atoms: C_10  and  C_26
                            x       y       z     vdW  Elec       q    Type
                         _______ _______ _______ _____ _____    ______ ____

>  <TORSDO>
F 1

$$$$
=
 OpenBabel11072408483D

 26 30  0  0  1  0  0  0  0  0999 V2000
  188.1260  176.1450  146.1190 C   0  0  0  0  0  2  0  0  0  0  0  0
  188.8990  176.4950  143.7340 C   0  0  0  0  0  0  0  0  0  0  0  0
  190.0410  175.9300  143.4310 N   0  0  0  0  0  0  0  0  0  0  0  0
  192.5010  176.1080  143.7600 C   0  0  0  0  0  2  0  0  0  0  0  0
  187.2950  177.9750  144.6600 C   0  0  0  0  0  2  0  0  0  0  0  0
  194.5050  175.2050  145.6450 C   0  0  0  0  0  2  0  0  0  0  0  0
  192.1670  174.3110  146.1410 N   0  0  0  0  0  2  0  0  0  0  0  0
  191.0690  174.7900  145.3380 C   0  0  0  0  0  0  0  0  0  0  0  0
  187.9240  176.7140  142.7350 N   0  0  0  0  0  2  0  0  0  0  0  0
  193.9110  177.1150  146.8880 O   0  0  0  0  0  0  0  0  0  0  0  0
  186.5230  178.6660  142.3920 C   0  0  0  0  0  1  0  0  0  0  0  0
  186.8280  177.4830  143.2890 C   0  0  2  0  0  3  0  0  0  0  0  0
  193.8340  176.5350  145.8180 C   0  0  0  0  0  0  0  0  0  0  0  0
  189.6920  174.4760  145.7920 C   0  0  2  0  0  3  0  0  0  0  0  0
  193.0790  177.1650  144.6890 C   0  0  0  0  0  2  0  0  0  0  0  0
  189.4180  175.6260  146.6750 C   0  0  2  0  0  3  0  0  0  0  0  0
  189.4520  174.3140  147.1700 O   0  0  0  0  0  0  0  0  0  0  0  0
  191.1840  175.6130  144.2600 C   0  0  0  0  0  0  0  0  0  0  0  0
  188.5230  177.1500  145.0330 C   0  0  1  0  0  3  0  0  0  0  0  0
  193.5490  174.0070  145.7580 C   0  0  1  0  0  3  0  0  0  0  0  0
  193.7730  171.1060  142.6230 C   0  0  0  0  0  3  0  0  0  0  0  0
  194.6460  172.1480  142.6560 N   0  0  0  0  0  0  0  0  0  0  0  0
  193.6460  172.9870  144.6630 C   0  0  0  0  0  0  0  0  0  0  0  0
  192.7390  171.9240  144.6380 C   0  0  0  0  0  3  0  0  0  0  0  0
  194.6020  173.0820  143.6430 C   0  0  0  0  0  3  0  0  0  0  0  0
  192.8010  170.9750  143.6160 C   0  0  0  0  0  3  0  0  0  0  0  0
  2 19  1  0  0  0  0
  3  2  2  0  0  0  0
  3 18  1  0  0  0  0
  4 18  1  0  0  0  0
  4 15  1  0  0  0  0
  6 20  1  0  0  0  0
  6 13  1  0  0  0  0
  8  7  1  0  0  0  0
  9 12  1  0  0  0  0
  9  2  1  0  0  0  0
 12 11  1  6  0  0  0
 12  5  1  0  0  0  0
 13 10  2  0  0  0  0
 14  8  1  1  0  0  0
 14 16  1  0  0  0  0
 14 17  1  0  0  0  0
 15 13  1  0  0  0  0
 16  1  1  6  0  0  0
 16 17  1  0  0  0  0
 18  8  2  0  0  0  0
 19  5  1  6  0  0  0
 19  1  1  0  0  0  0
 20 23  1  6  0  0  0
 20  7  1  0  0  0  0
 21 22  2  0  0  0  0
 21 26  1  0  0  0  0
 22 25  1  0  0  0  0
 24 23  1  0  0  0  0
 25 23  2  0  0  0  0
 26 24  2  0  0  0  0
M  END
>  <MODEL>
8

>  <REMARK>
 VINA RESULT:      -6.6      1.632      6.466
  Name = 
  1 active torsions:
  status: ('A' for Active; 'I' for Inactive)
    1  A    between atoms: C_10  and  C_26
                            x       y       z     vdW  Elec       q    Type
                         _______ _______ _______ _____ _____    ______ ____

>  <TORSDO>
F 1

$$$$
=
 OpenBabel11072408483D

 26 30  0  0  1  0  0  0  0  0999 V2000
  189.3370  177.9140  144.1260 C   0  0  0  0  0  2  0  0  0  0  0  0
  188.6870  176.0030  145.6520 C   0  0  0  0  0  0  0  0  0  0  0  0
  189.4090  174.9180  145.5250 N   0  0  0  0  0  0  0  0  0  0  0  0
  189.8300  172.9690  144.0360 C   0  0  0  0  0  2  0  0  0  0  0  0
  187.1170  177.7260  145.2220 C   0  0  0  0  0  2  0  0  0  0  0  0
  191.5000  172.2960  141.7680 C   0  0  0  0  0  2  0  0  0  0  0  0
  191.9570  174.6220  142.7120 N   0  0  0  0  0  2  0  0  0  0  0  0
  191.1030  175.1110  143.7670 C   0  0  0  0  0  0  0  0  0  0  0  0
  188.0690  176.3060  146.8860 N   0  0  0  0  0  2  0  0  0  0  0  0
  189.7980  173.2830  140.4740 O   0  0  0  0  0  0  0  0  0  0  0  0
  185.8350  177.1670  147.2870 C   0  0  0  0  0  1  0  0  0  0  0  0
  187.2110  177.4640  146.7260 C   0  0  2  0  0  3  0  0  0  0  0  0
  190.1200  172.8480  141.5670 C   0  0  0  0  0  0  0  0  0  0  0  0
  191.2000  176.5460  144.1280 C   0  0  2  0  0  3  0  0  0  0  0  0
  189.1300  172.8630  142.6900 C   0  0  0  0  0  2  0  0  0  0  0  0
  190.2210  177.1370  143.1960 C   0  0  2  0  0  3  0  0  0  0  0  0
  191.5820  177.4710  143.1360 O   0  0  0  0  0  0  0  0  0  0  0  0
  190.1230  174.3920  144.3810 C   0  0  0  0  0  0  0  0  0  0  0  0
  188.2430  176.9350  144.5610 C   0  0  1  0  0  3  0  0  0  0  0  0
  192.4640  173.2710  142.4630 C   0  0  1  0  0  3  0  0  0  0  0  0
  194.6950  171.6320  145.7250 C   0  0  0  0  0  3  0  0  0  0  0  0
  194.8340  172.9430  145.3900 N   0  0  0  0  0  0  0  0  0  0  0  0
  193.2400  172.7100  143.6190 C   0  0  0  0  0  0  0  0  0  0  0  0
  193.0920  171.3600  143.9490 C   0  0  0  0  0  3  0  0  0  0  0  0
  194.1340  173.4920  144.3620 C   0  0  0  0  0  3  0  0  0  0  0  0
  193.8200  170.8150  145.0080 C   0  0  0  0  0  3  0  0  0  0  0  0
  2  9  1  0  0  0  0
  3  2  2  0  0  0  0
  4 18  1  0  0  0  0
  5 12  1  0  0  0  0
  6 20  1  0  0  0  0
  7  8  1  0  0  0  0
  8 14  1  0  0  0  0
  8 18  2  0  0  0  0
 10 13  2  0  0  0  0
 12  9  1  0  0  0  0
 12 11  1  6  0  0  0
 13  6  1  0  0  0  0
 13 15  1  0  0  0  0
 14 17  1  6  0  0  0
 15  4  1  0  0  0  0
 16  1  1  1  0  0  0
 16 14  1  0  0  0  0
 17 16  1  0  0  0  0
 18  3  1  0  0  0  0
 19  1  1  1  0  0  0
 19  5  1  0  0  0  0
 19  2  1  0  0  0  0
 20  7  1  0  0  0  0
 20 23  1  1  0  0  0
 22 21  1  0  0  0  0
 23 24  2  0  0  0  0
 23 25  1  0  0  0  0
 24 26  1  0  0  0  0
 25 22  2  0  0  0  0
 26 21  2  0  0  0  0
M  END
>  <MODEL>
9

>  <REMARK>
 VINA RESULT:      -6.5      2.432      6.730
  Name = 
  1 active torsions:
  status: ('A' for Active; 'I' for Inactive)
    1  A    between atoms: C_10  and  C_26
                            x       y       z     vdW  Elec       q    Type
                         _______ _______ _______ _____ _____    ______ ____

>  <TORSDO>
F 1

$$$$
