=
 OpenBabel11062420493D

 45 49  0  0  1  0  0  0  0  0999 V2000
  190.4490  177.7480  144.6780 O   0  0  0  0  0  1  0  0  0  0  0  0
  194.3360  171.8840  142.5960 N   0  0  0  0  0  0  0  0  0  0  0  0
  195.2140  174.4480  144.4080 C   0  0  1  0  0  3  0  0  0  0  0  0
  189.3650  175.9700  145.9320 C   0  0  1  0  0  3  0  0  0  0  0  0
  191.6190  173.3150  144.3580 N   0  0  0  0  0  0  0  0  0  0  0  0
  195.2680  176.8240  144.6250 O   0  0  0  0  0  1  0  0  0  0  0  0
  195.5040  175.6390  145.3220 C   0  0  1  0  0  3  0  0  0  0  0  0
  193.3860  174.6910  146.0250 C   0  0  2  0  0  3  0  0  0  0  0  0
  191.7850  176.6340  146.3260 C   0  0  0  0  0  2  0  0  0  0  0  0
  192.3170  175.5550  145.3580 C   0  0  2  0  0  3  0  0  0  0  0  0
  190.0060  174.5910  145.7160 C   0  0  0  0  0  2  0  0  0  0  0  0
  191.1920  174.6760  144.7570 C   0  0  2  0  0  3  0  0  0  0  0  0
  196.4240  173.5010  144.2760 C   0  0  2  0  0  3  0  0  0  0  0  0
  193.3600  171.8610  143.6030 N   0  0  0  0  0  2  0  0  0  0  0  0
  194.5490  175.5430  146.4940 C   0  0  0  0  0  2  0  0  0  0  0  0
  190.3900  177.1250  145.9290 C   0  0  1  0  0  3  0  0  0  0  0  0
  194.0040  173.7320  145.0150 C   0  0  1  0  0  3  0  0  0  0  0  0
  195.5190  171.5650  143.1860 O   0  0  0  0  0  0  0  0  0  0  0  0
  197.7470  174.2530  144.2220 C   0  0  0  0  0  1  0  0  0  0  0  0
  196.3260  172.6880  142.9950 C   0  0  0  0  0  2  0  0  0  0  0  0
  193.0290  173.2450  143.9260 C   0  0  2  0  0  3  0  0  0  0  0  0
  194.3510  169.4410  142.0950 C   0  0  0  0  0  1  0  0  0  0  0  0
  193.9930  170.8460  141.6130 C   0  0  2  0  0  3  0  0  0  0  0  0
  194.1220  172.3360  139.9760 C   0  0  0  0  0  1  0  0  0  0  0  0
  194.6320  171.1050  140.3960 O   0  0  0  0  0  0  0  0  0  0  0  0
  188.3290  176.2030  144.9770 O   0  0  0  0  0  0  0  0  0  0  0  0
  185.6970  178.8360  144.9170 C   0  0  0  0  0  0  0  0  0  0  0  0
  185.1100  177.1290  146.5360 C   0  0  0  0  0  3  0  0  0  0  0  0
  185.4090  180.1150  144.2110 C   0  0  0  0  0  1  0  0  0  0  0  0
  186.2790  176.4270  146.2210 C   0  0  0  0  0  3  0  0  0  0  0  0
  187.1630  176.9240  145.2600 C   0  0  0  0  0  0  0  0  0  0  0  0
  186.8640  178.1320  144.6070 C   0  0  0  0  0  3  0  0  0  0  0  0
  184.8180  178.3330  145.8880 C   0  0  0  0  0  0  0  0  0  0  0  0
  183.6540  179.0200  146.2130 O   0  0  0  0  0  1  0  0  0  0  0  0
  190.7640  172.8020  143.2640 C   0  0  1  0  0  3  0  0  0  0  0  0
  190.3450  174.2310  141.2440 C   0  0  0  0  0  3  0  0  0  0  0  0
  191.1470  173.4160  141.9450 C   0  0  0  0  0  3  0  0  0  0  0  0
  188.9690  174.6250  141.6880 C   0  0  0  0  0  2  0  0  0  0  0  0
  188.1530  175.1520  140.5210 C   0  0  0  0  0  2  0  0  0  0  0  0
  186.7100  177.4540  139.6120 O   0  0  0  0  0  0  0  0  0  0  0  0
  188.5420  177.7560  141.6540 O   0  0  0  0  0  1  0  0  0  0  0  0
  186.2850  176.4760  142.0010 O   0  0  0  0  0  1  0  0  0  0  0  0
  187.3760  176.7260  140.9850 P   0  0  0  0  0  0  0  0  0  0  0  0
  190.3770  170.6900  142.0400 C   0  0  0  0  0  2  0  0  0  0  0  0
  190.6920  171.2970  143.1810 C   0  0  0  0  0  3  0  0  0  0  0  0
  1 16  1  0  0  0  0
  2 18  1  0  0  0  0
  2 14  1  0  0  0  0
  3 17  1  0  0  0  0
  3  7  1  0  0  0  0
  5 12  1  0  0  0  0
  6  7  1  0  0  0  0
  7 15  1  0  0  0  0
  8 15  1  0  0  0  0
 10  8  1  0  0  0  0
 10  9  1  0  0  0  0
 11  4  1  0  0  0  0
 12 10  1  0  0  0  0
 12 11  1  0  0  0  0
 13  3  1  0  0  0  0
 14 21  1  0  0  0  0
 16  4  1  0  0  0  0
 16  9  1  0  0  0  0
 17  8  1  0  0  0  0
 19 13  1  0  0  0  0
 20 18  1  0  0  0  0
 20 13  1  0  0  0  0
 21  5  1  0  0  0  0
 21 17  1  0  0  0  0
 23 22  1  0  0  0  0
 23  2  1  0  0  0  0
 24 25  1  0  0  0  0
 25 23  1  0  0  0  0
 26 31  1  0  0  0  0
 26  4  1  0  0  0  0
 27 33  1  0  0  0  0
 29 27  1  0  0  0  0
 30 28  1  0  0  0  0
 31 30  2  0  0  0  0
 32 27  2  0  0  0  0
 32 31  1  0  0  0  0
 33 34  1  0  0  0  0
 33 28  2  0  0  0  0
 35  5  1  0  0  0  0
 36 38  1  0  0  0  0
 36 37  2  0  0  0  0
 37 35  1  0  0  0  0
 39 43  1  0  0  0  0
 39 38  1  0  0  0  0
 40 43  2  0  0  0  0
 43 41  1  0  0  0  0
 43 42  1  0  0  0  0
 44 45  2  0  0  0  0
 45 35  1  0  0  0  0
M  END
>  <MODEL>
1

>  <REMARK>
 VINA RESULT:      -7.8      0.000      0.000
  Name = 
  10 active torsions:
  status: ('A' for Active; 'I' for Inactive)
    1  A    between atoms: O_5  and  C_9
    2  A    between atoms: O_5  and  C_24
    3  A    between atoms: N_7  and  C_26
    4  A    between atoms: C_10  and  N_11
    5  A    between atoms: C_10  and  C_40
    6  A    between atoms: C_10  and  C_44
    7  A    between atoms: C_21  and  C_43
    8  A    between atoms: C_26  and  O_31
    9  A    between atoms: P_30  and  C_42
   10  A    between atoms: C_42  and  C_43
                            x       y       z     vdW  Elec       q    Type
                         _______ _______ _______ _____ _____    ______ ____

>  <TORSDO>
F 10

$$$$
=
 OpenBabel11062420493D

 45 49  0  0  1  0  0  0  0  0999 V2000
  190.4420  177.7850  144.9260 O   0  0  0  0  0  1  0  0  0  0  0  0
  194.6240  172.6760  141.7260 N   0  0  0  0  0  0  0  0  0  0  0  0
  195.3200  174.7400  144.1520 C   0  0  1  0  0  3  0  0  0  0  0  0
  189.3520  175.7360  145.6470 C   0  0  1  0  0  3  0  0  0  0  0  0
  191.7720  173.5860  143.6170 N   0  0  0  0  0  0  0  0  0  0  0  0
  195.2850  176.9930  144.9370 O   0  0  0  0  0  1  0  0  0  0  0  0
  195.5220  175.6790  145.3420 C   0  0  1  0  0  3  0  0  0  0  0  0
  193.4020  174.5490  145.6680 C   0  0  2  0  0  3  0  0  0  0  0  0
  191.7240  176.3300  146.3330 C   0  0  0  0  0  2  0  0  0  0  0  0
  192.3420  175.5280  145.1660 C   0  0  2  0  0  3  0  0  0  0  0  0
  190.0480  174.4630  145.1430 C   0  0  0  0  0  2  0  0  0  0  0  0
  191.2800  174.8010  144.3050 C   0  0  2  0  0  3  0  0  0  0  0  0
  196.5660  173.8770  143.8670 C   0  0  2  0  0  3  0  0  0  0  0  0
  193.5970  172.3910  142.6380 N   0  0  0  0  0  2  0  0  0  0  0  0
  194.5100  175.2840  146.3970 C   0  0  0  0  0  2  0  0  0  0  0  0
  190.3360  176.8760  145.9840 C   0  0  1  0  0  3  0  0  0  0  0  0
  194.1040  173.8750  144.4950 C   0  0  1  0  0  3  0  0  0  0  0  0
  195.7830  172.2460  142.2900 O   0  0  0  0  0  0  0  0  0  0  0  0
  197.8640  174.6440  144.0740 C   0  0  0  0  0  1  0  0  0  0  0  0
  196.5620  173.3970  142.4240 C   0  0  0  0  0  2  0  0  0  0  0  0
  193.2040  173.6490  143.2650 C   0  0  2  0  0  3  0  0  0  0  0  0
  194.9340  170.4850  140.5770 C   0  0  0  0  0  1  0  0  0  0  0  0
  194.3670  171.9020  140.5030 C   0  0  2  0  0  3  0  0  0  0  0  0
  195.7180  171.6210  138.7670 C   0  0  0  0  0  1  0  0  0  0  0  0
  194.8990  172.5650  139.3920 O   0  0  0  0  0  0  0  0  0  0  0  0
  188.3610  176.1730  144.7170 O   0  0  0  0  0  0  0  0  0  0  0  0
  185.7120  178.7880  144.8310 C   0  0  0  0  0  0  0  0  0  0  0  0
  185.2790  177.1090  146.5280 C   0  0  0  0  0  3  0  0  0  0  0  0
  185.3540  180.0510  144.1280 C   0  0  0  0  0  1  0  0  0  0  0  0
  186.4220  176.4100  146.1280 C   0  0  0  0  0  3  0  0  0  0  0  0
  187.2170  176.8920  145.0850 C   0  0  0  0  0  0  0  0  0  0  0  0
  186.8540  178.0850  144.4360 C   0  0  0  0  0  3  0  0  0  0  0  0
  184.9220  178.2990  145.8840 C   0  0  0  0  0  0  0  0  0  0  0  0
  183.7850  178.9840  146.2940 O   0  0  0  0  0  1  0  0  0  0  0  0
  190.9930  173.3370  142.3820 C   0  0  1  0  0  3  0  0  0  0  0  0
  190.0860  171.0790  141.7700 C   0  0  0  0  0  3  0  0  0  0  0  0
  190.0640  172.1660  142.5550 C   0  0  0  0  0  3  0  0  0  0  0  0
  191.0340  170.9030  140.6230 C   0  0  0  0  0  2  0  0  0  0  0  0
  190.2930  170.4740  139.3690 C   0  0  0  0  0  2  0  0  0  0  0  0
  188.1690  172.3710  139.0550 O   0  0  0  0  0  1  0  0  0  0  0  0
  189.6030  171.6010  136.8250 O   0  0  0  0  0  0  0  0  0  0  0  0
  190.6590  173.0920  138.7010 O   0  0  0  0  0  1  0  0  0  0  0  0
  189.7010  171.9430  138.4810 P   0  0  0  0  0  0  0  0  0  0  0  0
  188.9640  174.5140  141.6030 C   0  0  0  0  0  2  0  0  0  0  0  0
  190.2710  174.5500  141.8450 C   0  0  0  0  0  3  0  0  0  0  0  0
  1 16  1  0  0  0  0
  2 18  1  0  0  0  0
  2 14  1  0  0  0  0
  3 17  1  0  0  0  0
  3  7  1  0  0  0  0
  4 16  1  0  0  0  0
  5 12  1  0  0  0  0
  6  7  1  0  0  0  0
  7 15  1  0  0  0  0
  8 15  1  0  0  0  0
 10  8  1  0  0  0  0
 10  9  1  0  0  0  0
 11  4  1  0  0  0  0
 12 11  1  0  0  0  0
 12 10  1  0  0  0  0
 13 19  1  0  0  0  0
 13  3  1  0  0  0  0
 14 21  1  0  0  0  0
 16  9  1  0  0  0  0
 17  8  1  0  0  0  0
 18 20  1  0  0  0  0
 20 13  1  0  0  0  0
 21  5  1  0  0  0  0
 21 17  1  0  0  0  0
 23 22  1  0  0  0  0
 23  2  1  0  0  0  0
 24 25  1  0  0  0  0
 25 23  1  0  0  0  0
 26 31  1  0  0  0  0
 26  4  1  0  0  0  0
 27 33  1  0  0  0  0
 29 27  1  0  0  0  0
 30 28  1  0  0  0  0
 31 30  2  0  0  0  0
 32 27  2  0  0  0  0
 32 31  1  0  0  0  0
 33 34  1  0  0  0  0
 33 28  2  0  0  0  0
 35 37  1  0  0  0  0
 35  5  1  0  0  0  0
 36 37  2  0  0  0  0
 38 36  1  0  0  0  0
 39 38  1  0  0  0  0
 41 43  2  0  0  0  0
 43 42  1  0  0  0  0
 43 40  1  0  0  0  0
 43 39  1  0  0  0  0
 44 45  2  0  0  0  0
 45 35  1  0  0  0  0
M  END
>  <MODEL>
2

>  <REMARK>
 VINA RESULT:      -7.5      1.853      2.496
  Name = 
  10 active torsions:
  status: ('A' for Active; 'I' for Inactive)
    1  A    between atoms: O_5  and  C_9
    2  A    between atoms: O_5  and  C_24
    3  A    between atoms: N_7  and  C_26
    4  A    between atoms: C_10  and  N_11
    5  A    between atoms: C_10  and  C_40
    6  A    between atoms: C_10  and  C_44
    7  A    between atoms: C_21  and  C_43
    8  A    between atoms: C_26  and  O_31
    9  A    between atoms: P_30  and  C_42
   10  A    between atoms: C_42  and  C_43
                            x       y       z     vdW  Elec       q    Type
                         _______ _______ _______ _____ _____    ______ ____

>  <TORSDO>
F 10

$$$$
=
 OpenBabel11062420493D

 45 49  0  0  1  0  0  0  0  0999 V2000
  187.8280  173.1370  141.3620 O   0  0  0  0  0  1  0  0  0  0  0  0
  194.3610  171.3630  144.1920 N   0  0  0  0  0  0  0  0  0  0  0  0
  193.1550  170.8440  141.2060 C   0  0  1  0  0  3  0  0  0  0  0  0
  188.8460  175.3240  141.6560 C   0  0  1  0  0  3  0  0  0  0  0  0
  191.9740  173.7950  143.2320 N   0  0  0  0  0  0  0  0  0  0  0  0
  191.3350  170.0340  139.8940 O   0  0  0  0  0  1  0  0  0  0  0  0
  192.5410  170.7310  139.8110 C   0  0  1  0  0  3  0  0  0  0  0  0
  192.2010  173.0100  140.5630 C   0  0  2  0  0  3  0  0  0  0  0  0
  189.7850  173.5890  140.0570 C   0  0  0  0  0  2  0  0  0  0  0  0
  190.7750  173.0450  141.1100 C   0  0  2  0  0  3  0  0  0  0  0  0
  190.2740  175.2640  142.2170 C   0  0  0  0  0  2  0  0  0  0  0  0
  190.7160  173.8200  142.4500 C   0  0  2  0  0  3  0  0  0  0  0  0
  194.5840  170.2660  141.2680 C   0  0  2  0  0  3  0  0  0  0  0  0
  193.9980  172.6620  143.8070 N   0  0  0  0  0  2  0  0  0  0  0  0
  192.2800  172.1400  139.3240 C   0  0  0  0  0  2  0  0  0  0  0  0
  188.5170  174.1580  140.7000 C   0  0  1  0  0  3  0  0  0  0  0  0
  193.1380  172.3350  141.5580 C   0  0  1  0  0  3  0  0  0  0  0  0
  195.4040  170.9940  143.4030 O   0  0  0  0  0  0  0  0  0  0  0  0
  194.7380  169.0100  140.4220 C   0  0  0  0  0  1  0  0  0  0  0  0
  194.9410  169.8830  142.6960 C   0  0  0  0  0  2  0  0  0  0  0  0
  192.7640  172.5650  143.0340 C   0  0  2  0  0  3  0  0  0  0  0  0
  196.2740  171.8290  145.7200 C   0  0  0  0  0  1  0  0  0  0  0  0
  194.8090  171.4160  145.5900 C   0  0  2  0  0  3  0  0  0  0  0  0
  195.8870  169.7690  146.6110 C   0  0  0  0  0  1  0  0  0  0  0  0
  194.6130  170.1760  146.2070 O   0  0  0  0  0  0  0  0  0  0  0  0
  187.8890  175.4050  142.7130 O   0  0  0  0  0  0  0  0  0  0  0  0
  186.3940  178.0600  144.8530 C   0  0  0  0  0  0  0  0  0  0  0  0
  186.3350  178.7510  142.5290 C   0  0  0  0  0  3  0  0  0  0  0  0
  186.1080  178.3080  146.2930 C   0  0  0  0  0  1  0  0  0  0  0  0
  186.9490  177.5510  142.1560 C   0  0  0  0  0  3  0  0  0  0  0  0
  187.2850  176.6000  143.1220 C   0  0  0  0  0  0  0  0  0  0  0  0
  187.0070  176.8620  144.4740 C   0  0  0  0  0  3  0  0  0  0  0  0
  186.0540  179.0080  143.8760 C   0  0  0  0  0  0  0  0  0  0  0  0
  185.4420  180.2040  144.2310 O   0  0  0  0  0  1  0  0  0  0  0  0
  191.6890  173.9470  144.6770 C   0  0  1  0  0  3  0  0  0  0  0  0
  192.7910  176.0300  145.5390 C   0  0  0  0  0  3  0  0  0  0  0  0
  191.7020  175.3960  145.0820 C   0  0  0  0  0  3  0  0  0  0  0  0
  194.1260  175.3690  145.7080 C   0  0  0  0  0  2  0  0  0  0  0  0
  195.2530  176.3380  145.3960 C   0  0  0  0  0  2  0  0  0  0  0  0
  197.0020  177.1880  143.2920 O   0  0  0  0  0  1  0  0  0  0  0  0
  194.7050  175.8070  142.6330 O   0  0  0  0  0  0  0  0  0  0  0  0
  196.7180  174.6450  143.8390 O   0  0  0  0  0  1  0  0  0  0  0  0
  195.9550  175.9490  143.7670 P   0  0  0  0  0  0  0  0  0  0  0  0
  189.5730  173.8570  145.9520 C   0  0  0  0  0  2  0  0  0  0  0  0
  190.4350  173.2470  145.1430 C   0  0  0  0  0  3  0  0  0  0  0  0
  2 23  1  0  0  0  0
  3 13  1  0  0  0  0
  3 17  1  0  0  0  0
  4 11  1  0  0  0  0
  4 26  1  0  0  0  0
  5 35  1  0  0  0  0
  7  6  1  0  0  0  0
  7  3  1  0  0  0  0
  8 10  1  0  0  0  0
  8 17  1  0  0  0  0
  9 16  1  0  0  0  0
  9 10  1  0  0  0  0
 10 12  1  0  0  0  0
 11 12  1  0  0  0  0
 12  5  1  0  0  0  0
 13 20  1  0  0  0  0
 14  2  1  0  0  0  0
 15  7  1  0  0  0  0
 15  8  1  0  0  0  0
 16  1  1  0  0  0  0
 16  4  1  0  0  0  0
 17 21  1  0  0  0  0
 18  2  1  0  0  0  0
 19 13  1  0  0  0  0
 20 18  1  0  0  0  0
 21  5  1  0  0  0  0
 21 14  1  0  0  0  0
 23 22  1  0  0  0  0
 23 25  1  0  0  0  0
 25 24  1  0  0  0  0
 26 31  1  0  0  0  0
 27 29  1  0  0  0  0
 28 33  1  0  0  0  0
 30 28  2  0  0  0  0
 30 31  1  0  0  0  0
 31 32  2  0  0  0  0
 32 27  1  0  0  0  0
 33 34  1  0  0  0  0
 33 27  2  0  0  0  0
 35 37  1  0  0  0  0
 35 45  1  0  0  0  0
 36 38  1  0  0  0  0
 37 36  2  0  0  0  0
 39 38  1  0  0  0  0
 40 43  1  0  0  0  0
 41 43  2  0  0  0  0
 43 42  1  0  0  0  0
 43 39  1  0  0  0  0
 45 44  2  0  0  0  0
M  END
>  <MODEL>
3

>  <REMARK>
 VINA RESULT:      -7.3      2.318      5.455
  Name = 
  10 active torsions:
  status: ('A' for Active; 'I' for Inactive)
    1  A    between atoms: O_5  and  C_9
    2  A    between atoms: O_5  and  C_24
    3  A    between atoms: N_7  and  C_26
    4  A    between atoms: C_10  and  N_11
    5  A    between atoms: C_10  and  C_40
    6  A    between atoms: C_10  and  C_44
    7  A    between atoms: C_21  and  C_43
    8  A    between atoms: C_26  and  O_31
    9  A    between atoms: P_30  and  C_42
   10  A    between atoms: C_42  and  C_43
                            x       y       z     vdW  Elec       q    Type
                         _______ _______ _______ _____ _____    ______ ____

>  <TORSDO>
F 10

$$$$
=
 OpenBabel11062420493D

 45 49  0  0  1  0  0  0  0  0999 V2000
  187.7940  172.5750  142.0550 O   0  0  0  0  0  1  0  0  0  0  0  0
  194.9140  173.4970  143.5680 N   0  0  0  0  0  0  0  0  0  0  0  0
  193.4730  171.6800  141.2750 C   0  0  1  0  0  3  0  0  0  0  0  0
  188.1350  174.8940  141.4160 C   0  0  1  0  0  3  0  0  0  0  0  0
  191.7840  174.8000  142.5470 N   0  0  0  0  0  0  0  0  0  0  0  0
  191.8020  170.0560  140.7640 O   0  0  0  0  0  1  0  0  0  0  0  0
  192.7130  170.9350  140.1780 C   0  0  1  0  0  3  0  0  0  0  0  0
  191.8210  173.1870  140.2700 C   0  0  2  0  0  3  0  0  0  0  0  0
  189.2950  172.9700  140.2310 C   0  0  0  0  0  2  0  0  0  0  0  0
  190.5540  173.0850  141.1180 C   0  0  2  0  0  3  0  0  0  0  0  0
  189.5840  175.3710  141.5950 C   0  0  0  0  0  2  0  0  0  0  0  0
  190.4720  174.2510  142.1330 C   0  0  2  0  0  3  0  0  0  0  0  0
  195.0010  171.5100  141.1510 C   0  0  2  0  0  3  0  0  0  0  0  0
  194.1210  174.4500  142.9140 N   0  0  0  0  0  2  0  0  0  0  0  0
  191.9650  171.9750  139.3700 C   0  0  0  0  0  2  0  0  0  0  0  0
  188.0300  173.4210  140.9670 C   0  0  1  0  0  3  0  0  0  0  0  0
  193.0610  173.1500  141.1550 C   0  0  1  0  0  3  0  0  0  0  0  0
  195.8840  173.1230  142.6930 O   0  0  0  0  0  0  0  0  0  0  0  0
  195.3950  170.1070  140.7110 C   0  0  0  0  0  1  0  0  0  0  0  0
  195.6750  171.7570  142.4920 C   0  0  0  0  0  2  0  0  0  0  0  0
  192.8690  173.8000  142.5390 C   0  0  2  0  0  3  0  0  0  0  0  0
  196.8590  174.8300  144.3770 C   0  0  0  0  0  1  0  0  0  0  0  0
  195.5370  174.1500  144.7280 C   0  0  2  0  0  3  0  0  0  0  0  0
  197.0670  173.4130  146.1540 C   0  0  0  0  0  1  0  0  0  0  0  0
  195.7430  173.2190  145.7520 O   0  0  0  0  0  0  0  0  0  0  0  0
  187.3750  175.1240  142.6020 O   0  0  0  0  0  0  0  0  0  0  0  0
  185.5880  177.8110  144.4590 C   0  0  0  0  0  0  0  0  0  0  0  0
  186.6770  178.7500  142.5060 C   0  0  0  0  0  3  0  0  0  0  0  0
  184.7470  177.9610  145.6790 C   0  0  0  0  0  1  0  0  0  0  0  0
  187.1700  177.4850  142.1720 C   0  0  0  0  0  3  0  0  0  0  0  0
  186.8750  176.3780  142.9710 C   0  0  0  0  0  0  0  0  0  0  0  0
  186.0830  176.5490  144.1200 C   0  0  0  0  0  3  0  0  0  0  0  0
  185.8840  178.9170  143.6470 C   0  0  0  0  0  0  0  0  0  0  0  0
  185.3990  180.1800  143.9650 O   0  0  0  0  0  1  0  0  0  0  0  0
  191.6950  175.3890  143.9030 C   0  0  1  0  0  3  0  0  0  0  0  0
  190.5940  173.9960  145.6760 C   0  0  0  0  0  3  0  0  0  0  0  0
  191.6800  174.3170  144.9590 C   0  0  0  0  0  3  0  0  0  0  0  0
  189.2660  174.6710  145.5180 C   0  0  0  0  0  2  0  0  0  0  0  0
  188.8200  175.3040  146.8240 C   0  0  0  0  0  2  0  0  0  0  0  0
  189.3460  177.5610  145.1410 O   0  0  0  0  0  0  0  0  0  0  0  0
  190.3920  177.5360  147.6950 O   0  0  0  0  0  1  0  0  0  0  0  0
  187.8250  177.8050  147.2570 O   0  0  0  0  0  1  0  0  0  0  0  0
  189.0610  177.1020  146.7430 P   0  0  0  0  0  0  0  0  0  0  0  0
  193.0510  176.7650  145.4460 C   0  0  0  0  0  2  0  0  0  0  0  0
  192.7330  176.4470  144.1940 C   0  0  0  0  0  3  0  0  0  0  0  0
  2 23  1  0  0  0  0
  4 11  1  0  0  0  0
  4 26  1  0  0  0  0
  5 35  1  0  0  0  0
  7  6  1  0  0  0  0
  7  3  1  0  0  0  0
  8 10  1  0  0  0  0
  8 17  1  0  0  0  0
  9 16  1  0  0  0  0
  9 10  1  0  0  0  0
 10 12  1  0  0  0  0
 11 12  1  0  0  0  0
 12  5  1  0  0  0  0
 13  3  1  0  0  0  0
 13 20  1  0  0  0  0
 14  2  1  0  0  0  0
 15  7  1  0  0  0  0
 15  8  1  0  0  0  0
 16  4  1  0  0  0  0
 16  1  1  0  0  0  0
 17  3  1  0  0  0  0
 17 21  1  0  0  0  0
 18  2  1  0  0  0  0
 19 13  1  0  0  0  0
 20 18  1  0  0  0  0
 21  5  1  0  0  0  0
 21 14  1  0  0  0  0
 22 23  1  0  0  0  0
 23 25  1  0  0  0  0
 25 24  1  0  0  0  0
 26 31  1  0  0  0  0
 27 29  1  0  0  0  0
 28 33  1  0  0  0  0
 30 28  2  0  0  0  0
 30 31  1  0  0  0  0
 31 32  2  0  0  0  0
 32 27  1  0  0  0  0
 33 34  1  0  0  0  0
 33 27  2  0  0  0  0
 35 45  1  0  0  0  0
 35 37  1  0  0  0  0
 37 36  2  0  0  0  0
 38 36  1  0  0  0  0
 38 39  1  0  0  0  0
 40 43  2  0  0  0  0
 43 39  1  0  0  0  0
 43 42  1  0  0  0  0
 43 41  1  0  0  0  0
 45 44  2  0  0  0  0
M  END
>  <MODEL>
4

>  <REMARK>
 VINA RESULT:      -7.3      2.083      4.983
  Name = 
  10 active torsions:
  status: ('A' for Active; 'I' for Inactive)
    1  A    between atoms: O_5  and  C_9
    2  A    between atoms: O_5  and  C_24
    3  A    between atoms: N_7  and  C_26
    4  A    between atoms: C_10  and  N_11
    5  A    between atoms: C_10  and  C_40
    6  A    between atoms: C_10  and  C_44
    7  A    between atoms: C_21  and  C_43
    8  A    between atoms: C_26  and  O_31
    9  A    between atoms: P_30  and  C_42
   10  A    between atoms: C_42  and  C_43
                            x       y       z     vdW  Elec       q    Type
                         _______ _______ _______ _____ _____    ______ ____

>  <TORSDO>
F 10

$$$$
=
 OpenBabel11062420493D

 45 49  0  0  1  0  0  0  0  0999 V2000
  190.4630  178.3350  143.8720 O   0  0  0  0  0  1  0  0  0  0  0  0
  194.2010  172.0800  143.0130 N   0  0  0  0  0  0  0  0  0  0  0  0
  194.6470  174.5180  145.1330 C   0  0  1  0  0  3  0  0  0  0  0  0
  188.8290  176.6850  144.5860 C   0  0  1  0  0  3  0  0  0  0  0  0
  191.2030  173.8010  143.7790 N   0  0  0  0  0  0  0  0  0  0  0  0
  194.8690  176.8700  145.4620 O   0  0  0  0  0  1  0  0  0  0  0  0
  194.7180  175.6630  146.1430 C   0  0  1  0  0  3  0  0  0  0  0  0
  192.4030  174.9570  146.0190 C   0  0  2  0  0  3  0  0  0  0  0  0
  191.0100  177.0680  145.8300 C   0  0  0  0  0  2  0  0  0  0  0  0
  191.7330  175.9410  145.0600 C   0  0  2  0  0  3  0  0  0  0  0  0
  189.3570  175.2430  144.5450 C   0  0  0  0  0  2  0  0  0  0  0  0
  190.8060  175.1990  144.0650 C   0  0  2  0  0  3  0  0  0  0  0  0
  195.7200  173.4400  145.3880 C   0  0  2  0  0  3  0  0  0  0  0  0
  192.9360  172.1630  143.6140 N   0  0  0  0  0  2  0  0  0  0  0  0
  193.4080  175.6690  146.9020 C   0  0  0  0  0  2  0  0  0  0  0  0
  189.9030  177.7160  144.9930 C   0  0  1  0  0  3  0  0  0  0  0  0
  193.2330  173.9400  145.2460 C   0  0  1  0  0  3  0  0  0  0  0  0
  195.0600  171.6260  143.9630 O   0  0  0  0  0  0  0  0  0  0  0  0
  197.0480  174.0380  145.8330 C   0  0  0  0  0  1  0  0  0  0  0  0
  195.9950  172.6510  144.1170 C   0  0  0  0  0  2  0  0  0  0  0  0
  192.6580  173.5730  143.8640 C   0  0  2  0  0  3  0  0  0  0  0  0
  193.9230  169.6690  142.4410 C   0  0  0  0  0  1  0  0  0  0  0  0
  194.1190  171.0940  141.9270 C   0  0  2  0  0  3  0  0  0  0  0  0
  195.6400  169.8230  140.9340 C   0  0  0  0  0  1  0  0  0  0  0  0
  195.2700  171.1550  141.1330 O   0  0  0  0  0  0  0  0  0  0  0  0
  188.2250  177.0390  143.3420 O   0  0  0  0  0  0  0  0  0  0  0  0
  184.9650  178.0640  141.8630 C   0  0  0  0  0  0  0  0  0  0  0  0
  184.8100  178.0870  144.2830 C   0  0  0  0  0  3  0  0  0  0  0  0
  184.3600  178.2690  140.5180 C   0  0  0  0  0  1  0  0  0  0  0  0
  186.1410  177.6680  144.3730 C   0  0  0  0  0  3  0  0  0  0  0  0
  186.8920  177.4480  143.2160 C   0  0  0  0  0  0  0  0  0  0  0  0
  186.2950  177.6450  141.9590 C   0  0  0  0  0  3  0  0  0  0  0  0
  184.2190  178.2880  143.0310 C   0  0  0  0  0  0  0  0  0  0  0  0
  182.8960  178.7080  142.9580 O   0  0  0  0  0  1  0  0  0  0  0  0
  190.7380  173.3950  142.4330 C   0  0  1  0  0  3  0  0  0  0  0  0
  189.9220  171.1410  141.6900 C   0  0  0  0  0  3  0  0  0  0  0  0
  189.8320  172.1960  142.5120 C   0  0  0  0  0  3  0  0  0  0  0  0
  190.9320  171.0320  140.5890 C   0  0  0  0  0  2  0  0  0  0  0  0
  190.2870  171.2710  139.2350 C   0  0  0  0  0  2  0  0  0  0  0  0
  190.1620  173.7800  137.8570 O   0  0  0  0  0  1  0  0  0  0  0  0
  191.9350  171.8620  136.9650 O   0  0  0  0  0  0  0  0  0  0  0  0
  192.2890  173.1220  139.2330 O   0  0  0  0  0  1  0  0  0  0  0  0
  191.2160  172.5470  138.3360 P   0  0  0  0  0  0  0  0  0  0  0  0
  188.9210  174.3690  141.0710 C   0  0  0  0  0  2  0  0  0  0  0  0
  190.1230  174.5100  141.6230 C   0  0  0  0  0  3  0  0  0  0  0  0
  1 16  1  0  0  0  0
  2 14  1  0  0  0  0
  2 18  1  0  0  0  0
  3 17  1  0  0  0  0
  3 13  1  0  0  0  0
  3  7  1  0  0  0  0
  4 16  1  0  0  0  0
  5 21  1  0  0  0  0
  5 12  1  0  0  0  0
  6  7  1  0  0  0  0
  7 15  1  0  0  0  0
  8 15  1  0  0  0  0
 10  9  1  0  0  0  0
 10  8  1  0  0  0  0
 11  4  1  0  0  0  0
 12 11  1  0  0  0  0
 12 10  1  0  0  0  0
 13 19  1  0  0  0  0
 14 21  1  0  0  0  0
 16  9  1  0  0  0  0
 17  8  1  0  0  0  0
 18 20  1  0  0  0  0
 20 13  1  0  0  0  0
 21 17  1  0  0  0  0
 23 22  1  0  0  0  0
 23  2  1  0  0  0  0
 24 25  1  0  0  0  0
 25 23  1  0  0  0  0
 26  4  1  0  0  0  0
 27 32  2  0  0  0  0
 27 33  1  0  0  0  0
 28 30  1  0  0  0  0
 29 27  1  0  0  0  0
 31 26  1  0  0  0  0
 31 30  2  0  0  0  0
 32 31  1  0  0  0  0
 33 28  2  0  0  0  0
 34 33  1  0  0  0  0
 35 37  1  0  0  0  0
 35  5  1  0  0  0  0
 36 37  2  0  0  0  0
 38 36  1  0  0  0  0
 39 38  1  0  0  0  0
 40 43  1  0  0  0  0
 41 43  2  0  0  0  0
 43 42  1  0  0  0  0
 43 39  1  0  0  0  0
 44 45  2  0  0  0  0
 45 35  1  0  0  0  0
M  END
>  <MODEL>
5

>  <REMARK>
 VINA RESULT:      -7.2      2.111      2.924
  Name = 
  10 active torsions:
  status: ('A' for Active; 'I' for Inactive)
    1  A    between atoms: O_5  and  C_9
    2  A    between atoms: O_5  and  C_24
    3  A    between atoms: N_7  and  C_26
    4  A    between atoms: C_10  and  N_11
    5  A    between atoms: C_10  and  C_40
    6  A    between atoms: C_10  and  C_44
    7  A    between atoms: C_21  and  C_43
    8  A    between atoms: C_26  and  O_31
    9  A    between atoms: P_30  and  C_42
   10  A    between atoms: C_42  and  C_43
                            x       y       z     vdW  Elec       q    Type
                         _______ _______ _______ _____ _____    ______ ____

>  <TORSDO>
F 10

$$$$
=
 OpenBabel11062420493D

 45 49  0  0  1  0  0  0  0  0999 V2000
  190.5880  178.0540  143.5550 O   0  0  0  0  0  1  0  0  0  0  0  0
  194.1120  171.6200  143.6750 N   0  0  0  0  0  0  0  0  0  0  0  0
  194.7240  174.3800  145.3010 C   0  0  1  0  0  3  0  0  0  0  0  0
  188.9470  176.6150  144.6220 C   0  0  1  0  0  3  0  0  0  0  0  0
  191.2010  173.5530  144.2470 N   0  0  0  0  0  0  0  0  0  0  0  0
  195.0240  176.7440  145.1930 O   0  0  0  0  0  1  0  0  0  0  0  0
  194.8750  175.6830  146.0860 C   0  0  1  0  0  3  0  0  0  0  0  0
  192.5380  175.0480  146.1890 C   0  0  2  0  0  3  0  0  0  0  0  0
  191.1950  177.1380  145.6830 C   0  0  0  0  0  2  0  0  0  0  0  0
  191.8490  175.8670  145.0990 C   0  0  2  0  0  3  0  0  0  0  0  0
  189.4340  175.1720  144.8190 C   0  0  0  0  0  2  0  0  0  0  0  0
  190.8570  174.9930  144.2930 C   0  0  2  0  0  3  0  0  0  0  0  0
  195.7800  173.3280  145.7010 C   0  0  2  0  0  3  0  0  0  0  0  0
  192.8810  171.8530  144.3050 N   0  0  0  0  0  2  0  0  0  0  0  0
  193.6030  175.8700  146.8870 C   0  0  0  0  0  2  0  0  0  0  0  0
  190.0660  177.6650  144.7920 C   0  0  1  0  0  3  0  0  0  0  0  0
  193.3030  173.8800  145.5760 C   0  0  1  0  0  3  0  0  0  0  0  0
  195.0040  171.3120  144.6540 O   0  0  0  0  0  0  0  0  0  0  0  0
  197.1430  173.9480  145.9740 C   0  0  0  0  0  1  0  0  0  0  0  0
  195.9720  172.3160  144.5810 C   0  0  0  0  0  2  0  0  0  0  0  0
  192.6530  173.2940  144.3090 C   0  0  2  0  0  3  0  0  0  0  0  0
  194.2220  169.1350  143.5000 C   0  0  0  0  0  1  0  0  0  0  0  0
  193.9520  170.4600  142.7880 C   0  0  2  0  0  3  0  0  0  0  0  0
  193.9400  170.6610  140.5800 C   0  0  0  0  0  1  0  0  0  0  0  0
  194.7980  170.5800  141.6800 O   0  0  0  0  0  0  0  0  0  0  0  0
  188.2930  176.7630  143.3610 O   0  0  0  0  0  0  0  0  0  0  0  0
  184.9440  178.1880  144.1460 C   0  0  0  0  0  0  0  0  0  0  0  0
  185.1090  177.7470  141.7670 C   0  0  0  0  0  3  0  0  0  0  0  0
  184.1810  178.6680  145.3320 C   0  0  0  0  0  1  0  0  0  0  0  0
  186.4140  177.2750  141.9450 C   0  0  0  0  0  3  0  0  0  0  0  0
  186.9900  177.2520  143.2170 C   0  0  0  0  0  0  0  0  0  0  0  0
  186.2480  177.7150  144.3180 C   0  0  0  0  0  3  0  0  0  0  0  0
  184.3710  178.2020  142.8650 C   0  0  0  0  0  0  0  0  0  0  0  0
  183.0750  178.6660  142.6740 O   0  0  0  0  0  1  0  0  0  0  0  0
  190.6620  172.9300  143.0160 C   0  0  1  0  0  3  0  0  0  0  0  0
  191.0320  173.7590  140.6770 C   0  0  0  0  0  3  0  0  0  0  0  0
  191.5170  173.2610  141.8230 C   0  0  0  0  0  3  0  0  0  0  0  0
  189.5780  174.0390  140.4440 C   0  0  0  0  0  2  0  0  0  0  0  0
  188.9550  172.9720  139.5610 C   0  0  0  0  0  2  0  0  0  0  0  0
  190.6140  174.1650  137.5530 O   0  0  0  0  0  1  0  0  0  0  0  0
  187.8890  174.5920  137.4500 O   0  0  0  0  0  1  0  0  0  0  0  0
  188.9410  172.2510  136.9320 O   0  0  0  0  0  0  0  0  0  0  0  0
  189.0980  173.4650  137.8190 P   0  0  0  0  0  0  0  0  0  0  0  0
  190.4400  170.6650  142.0520 C   0  0  0  0  0  2  0  0  0  0  0  0
  190.4070  171.4460  143.1290 C   0  0  0  0  0  3  0  0  0  0  0  0
  1 16  1  0  0  0  0
  2 14  1  0  0  0  0
  2 18  1  0  0  0  0
  3 17  1  0  0  0  0
  3 13  1  0  0  0  0
  3  7  1  0  0  0  0
  4 16  1  0  0  0  0
  4 11  1  0  0  0  0
  5 12  1  0  0  0  0
  5 21  1  0  0  0  0
  6  7  1  0  0  0  0
  7 15  1  0  0  0  0
  8 15  1  0  0  0  0
 10  9  1  0  0  0  0
 10  8  1  0  0  0  0
 12 11  1  0  0  0  0
 12 10  1  0  0  0  0
 13 19  1  0  0  0  0
 14 21  1  0  0  0  0
 16  9  1  0  0  0  0
 17  8  1  0  0  0  0
 20 18  1  0  0  0  0
 20 13  1  0  0  0  0
 21 17  1  0  0  0  0
 23 22  1  0  0  0  0
 23  2  1  0  0  0  0
 24 25  1  0  0  0  0
 25 23  1  0  0  0  0
 26  4  1  0  0  0  0
 27 32  1  0  0  0  0
 27 29  1  0  0  0  0
 28 30  2  0  0  0  0
 28 33  1  0  0  0  0
 30 31  1  0  0  0  0
 31 26  1  0  0  0  0
 31 32  2  0  0  0  0
 33 27  2  0  0  0  0
 34 33  1  0  0  0  0
 35 45  1  0  0  0  0
 35  5  1  0  0  0  0
 36 37  2  0  0  0  0
 37 35  1  0  0  0  0
 38 36  1  0  0  0  0
 39 38  1  0  0  0  0
 40 43  1  0  0  0  0
 41 43  1  0  0  0  0
 42 43  2  0  0  0  0
 43 39  1  0  0  0  0
 44 45  2  0  0  0  0
M  END
>  <MODEL>
6

>  <REMARK>
 VINA RESULT:      -7.1      2.084      2.394
  Name = 
  10 active torsions:
  status: ('A' for Active; 'I' for Inactive)
    1  A    between atoms: O_5  and  C_9
    2  A    between atoms: O_5  and  C_24
    3  A    between atoms: N_7  and  C_26
    4  A    between atoms: C_10  and  N_11
    5  A    between atoms: C_10  and  C_40
    6  A    between atoms: C_10  and  C_44
    7  A    between atoms: C_21  and  C_43
    8  A    between atoms: C_26  and  O_31
    9  A    between atoms: P_30  and  C_42
   10  A    between atoms: C_42  and  C_43
                            x       y       z     vdW  Elec       q    Type
                         _______ _______ _______ _____ _____    ______ ____

>  <TORSDO>
F 10

$$$$
=
 OpenBabel11062420493D

 45 49  0  0  1  0  0  0  0  0999 V2000
  189.7540  174.5410  147.6030 O   0  0  0  0  0  1  0  0  0  0  0  0
  187.3820  176.5410  140.9540 N   0  0  0  0  0  0  0  0  0  0  0  0
  186.3550  177.4540  143.9110 C   0  0  1  0  0  3  0  0  0  0  0  0
  191.6460  175.8180  146.7700 C   0  0  1  0  0  3  0  0  0  0  0  0
  189.9360  176.3930  143.4010 N   0  0  0  0  0  0  0  0  0  0  0  0
  185.6540  176.7710  146.0870 O   0  0  0  0  0  1  0  0  0  0  0  0
  186.0070  177.8910  145.3340 C   0  0  1  0  0  3  0  0  0  0  0  0
  188.4200  177.9840  145.1230 C   0  0  2  0  0  3  0  0  0  0  0  0
  189.3730  176.8700  147.1920 C   0  0  0  0  0  2  0  0  0  0  0  0
  188.9280  176.6750  145.7260 C   0  0  2  0  0  3  0  0  0  0  0  0
  191.4180  176.4080  145.3710 C   0  0  0  0  0  2  0  0  0  0  0  0
  190.0320  176.0490  144.8390 C   0  0  2  0  0  3  0  0  0  0  0  0
  185.5060  178.1810  142.8480 C   0  0  2  0  0  3  0  0  0  0  0  0
  188.5730  177.0010  141.5340 N   0  0  0  0  0  2  0  0  0  0  0  0
  187.2500  178.5250  145.9220 C   0  0  0  0  0  2  0  0  0  0  0  0
  190.3690  175.7960  147.6380 C   0  0  1  0  0  3  0  0  0  0  0  0
  187.8480  177.7440  143.7310 C   0  0  1  0  0  3  0  0  0  0  0  0
  186.5840  177.6270  140.7770 O   0  0  0  0  0  0  0  0  0  0  0  0
  184.0650  178.3850  143.2970 C   0  0  0  0  0  1  0  0  0  0  0  0
  185.4570  177.3710  141.5620 C   0  0  0  0  0  2  0  0  0  0  0  0
  188.5520  176.6230  142.9430 C   0  0  2  0  0  3  0  0  0  0  0  0
  186.6910  176.3360  138.5670 C   0  0  0  0  0  1  0  0  0  0  0  0
  187.7120  175.9670  139.6420 C   0  0  2  0  0  3  0  0  0  0  0  0
  188.2510  174.1600  138.4760 C   0  0  0  0  0  1  0  0  0  0  0  0
  187.8150  174.5750  139.7370 O   0  0  0  0  0  0  0  0  0  0  0  0
  192.2290  174.5170  146.6830 O   0  0  0  0  0  0  0  0  0  0  0  0
  195.2520  174.5990  144.5110 C   0  0  0  0  0  0  0  0  0  0  0  0
  193.9690  172.5920  144.0540 C   0  0  0  0  0  3  0  0  0  0  0  0
  196.4240  175.4810  144.2570 C   0  0  0  0  0  1  0  0  0  0  0  0
  193.0310  172.9710  145.0200 C   0  0  0  0  0  3  0  0  0  0  0  0
  193.1920  174.1620  145.7320 C   0  0  0  0  0  0  0  0  0  0  0  0
  194.3100  174.9740  145.4740 C   0  0  0  0  0  3  0  0  0  0  0  0
  195.0790  173.4040  143.7960 C   0  0  0  0  0  0  0  0  0  0  0  0
  196.0010  173.0150  142.8320 O   0  0  0  0  0  1  0  0  0  0  0  0
  190.5380  175.3260  142.5710 C   0  0  1  0  0  3  0  0  0  0  0  0
  192.7530  174.9290  141.4600 C   0  0  0  0  0  3  0  0  0  0  0  0
  192.0160  175.5460  142.3950 C   0  0  0  0  0  3  0  0  0  0  0  0
  192.1940  173.9420  140.4810 C   0  0  0  0  0  2  0  0  0  0  0  0
  193.0460  172.6850  140.4330 C   0  0  0  0  0  2  0  0  0  0  0  0
  190.5050  171.5880  139.6940 O   0  0  0  0  0  0  0  0  0  0  0  0
  191.6750  170.7590  142.0520 O   0  0  0  0  0  1  0  0  0  0  0  0
  192.6470  170.0850  139.7170 O   0  0  0  0  0  1  0  0  0  0  0  0
  191.9720  171.2220  140.4510 P   0  0  0  0  0  0  0  0  0  0  0  0
  189.2120  173.2410  142.5280 C   0  0  0  0  0  2  0  0  0  0  0  0
  190.2330  173.9230  143.0400 C   0  0  0  0  0  3  0  0  0  0  0  0
  1 16  1  0  0  0  0
  2 14  1  0  0  0  0
  3  7  1  0  0  0  0
  4 16  1  0  0  0  0
  5 12  1  0  0  0  0
  7 15  1  0  0  0  0
  7  6  1  0  0  0  0
  8 10  1  0  0  0  0
  8 15  1  0  0  0  0
  9 16  1  0  0  0  0
 10  9  1  0  0  0  0
 11  4  1  0  0  0  0
 12 11  1  0  0  0  0
 12 10  1  0  0  0  0
 13 19  1  0  0  0  0
 13  3  1  0  0  0  0
 14 21  1  0  0  0  0
 17  3  1  0  0  0  0
 17  8  1  0  0  0  0
 18  2  1  0  0  0  0
 18 20  1  0  0  0  0
 20 13  1  0  0  0  0
 21  5  1  0  0  0  0
 21 17  1  0  0  0  0
 22 23  1  0  0  0  0
 23 25  1  0  0  0  0
 23  2  1  0  0  0  0
 24 25  1  0  0  0  0
 26  4  1  0  0  0  0
 27 32  1  0  0  0  0
 28 30  2  0  0  0  0
 29 27  1  0  0  0  0
 30 31  1  0  0  0  0
 31 26  1  0  0  0  0
 32 31  2  0  0  0  0
 33 28  1  0  0  0  0
 33 27  2  0  0  0  0
 34 33  1  0  0  0  0
 35 45  1  0  0  0  0
 35  5  1  0  0  0  0
 36 37  2  0  0  0  0
 37 35  1  0  0  0  0
 38 36  1  0  0  0  0
 39 43  1  0  0  0  0
 39 38  1  0  0  0  0
 40 43  2  0  0  0  0
 42 43  1  0  0  0  0
 43 41  1  0  0  0  0
 44 45  2  0  0  0  0
M  END
>  <MODEL>
7

>  <REMARK>
 VINA RESULT:      -6.9      2.643      7.840
  Name = 
  10 active torsions:
  status: ('A' for Active; 'I' for Inactive)
    1  A    between atoms: O_5  and  C_9
    2  A    between atoms: O_5  and  C_24
    3  A    between atoms: N_7  and  C_26
    4  A    between atoms: C_10  and  N_11
    5  A    between atoms: C_10  and  C_40
    6  A    between atoms: C_10  and  C_44
    7  A    between atoms: C_21  and  C_43
    8  A    between atoms: C_26  and  O_31
    9  A    between atoms: P_30  and  C_42
   10  A    between atoms: C_42  and  C_43
                            x       y       z     vdW  Elec       q    Type
                         _______ _______ _______ _____ _____    ______ ____

>  <TORSDO>
F 10

$$$$
=
 OpenBabel11062420493D

 45 49  0  0  1  0  0  0  0  0999 V2000
  190.6260  178.4370  143.8360 O   0  0  0  0  0  1  0  0  0  0  0  0
  193.9500  171.9260  143.2130 N   0  0  0  0  0  0  0  0  0  0  0  0
  194.5480  174.4020  145.2500 C   0  0  1  0  0  3  0  0  0  0  0  0
  188.8850  176.9220  144.5980 C   0  0  1  0  0  3  0  0  0  0  0  0
  191.0680  173.8640  143.9040 N   0  0  0  0  0  0  0  0  0  0  0  0
  194.9220  176.7450  145.4990 O   0  0  0  0  0  1  0  0  0  0  0  0
  194.6910  175.5730  146.2210 C   0  0  1  0  0  3  0  0  0  0  0  0
  192.3340  175.0170  146.1080 C   0  0  2  0  0  3  0  0  0  0  0  0
  191.0830  177.2050  145.8390 C   0  0  0  0  0  2  0  0  0  0  0  0
  191.7330  176.0080  145.1130 C   0  0  2  0  0  3  0  0  0  0  0  0
  189.3180  175.4490  144.6100 C   0  0  0  0  0  2  0  0  0  0  0  0
  190.7630  175.2940  144.1390 C   0  0  2  0  0  3  0  0  0  0  0  0
  195.5480  173.2660  145.5480 C   0  0  2  0  0  3  0  0  0  0  0  0
  192.6920  172.1120  143.8040 N   0  0  0  0  0  2  0  0  0  0  0  0
  193.3810  175.6910  146.9720 C   0  0  0  0  0  2  0  0  0  0  0  0
  190.0230  177.8950  144.9750 C   0  0  1  0  0  3  0  0  0  0  0  0
  193.0990  173.9210  145.3750 C   0  0  1  0  0  3  0  0  0  0  0  0
  194.7750  171.4500  144.1830 O   0  0  0  0  0  0  0  0  0  0  0  0
  196.9100  173.7900  145.9790 C   0  0  0  0  0  1  0  0  0  0  0  0
  195.7740  172.4170  144.3060 C   0  0  0  0  0  2  0  0  0  0  0  0
  192.5060  173.5450  144.0040 C   0  0  2  0  0  3  0  0  0  0  0  0
  194.4920  171.3170  140.8570 C   0  0  0  0  0  1  0  0  0  0  0  0
  193.8070  170.9100  142.1610 C   0  0  2  0  0  3  0  0  0  0  0  0
  192.3630  170.4580  140.5410 C   0  0  0  0  0  1  0  0  0  0  0  0
  192.4530  170.6510  141.9210 O   0  0  0  0  0  0  0  0  0  0  0  0
  188.3090  177.2720  143.3390 O   0  0  0  0  0  0  0  0  0  0  0  0
  185.0480  178.1230  141.7580 C   0  0  0  0  0  0  0  0  0  0  0  0
  184.8190  178.1500  144.1720 C   0  0  0  0  0  3  0  0  0  0  0  0
  184.4750  178.2910  140.3930 C   0  0  0  0  0  1  0  0  0  0  0  0
  186.1660  177.7990  144.3040 C   0  0  0  0  0  3  0  0  0  0  0  0
  186.9620  177.6120  143.1710 C   0  0  0  0  0  0  0  0  0  0  0  0
  186.3940  177.7730  141.8960 C   0  0  0  0  0  3  0  0  0  0  0  0
  184.2570  178.3150  142.9010 C   0  0  0  0  0  0  0  0  0  0  0  0
  182.9170  178.6660  142.7860 O   0  0  0  0  0  1  0  0  0  0  0  0
  190.5820  173.4420  142.5700 C   0  0  1  0  0  3  0  0  0  0  0  0
  188.4130  172.6880  141.5580 C   0  0  0  0  0  3  0  0  0  0  0  0
  189.0930  173.2300  142.5790 C   0  0  0  0  0  3  0  0  0  0  0  0
  189.0550  172.2350  140.2820 C   0  0  0  0  0  2  0  0  0  0  0  0
  188.6420  173.1230  139.1220 C   0  0  0  0  0  2  0  0  0  0  0  0
  188.9430  173.1450  136.2720 O   0  0  0  0  0  0  0  0  0  0  0  0
  190.3170  171.2520  137.7380 O   0  0  0  0  0  1  0  0  0  0  0  0
  190.9460  173.7920  137.8270 O   0  0  0  0  0  1  0  0  0  0  0  0
  189.7650  172.8530  137.7200 P   0  0  0  0  0  0  0  0  0  0  0  0
  192.1910  174.1720  140.8410 C   0  0  0  0  0  2  0  0  0  0  0  0
  191.0130  174.3420  141.4360 C   0  0  0  0  0  3  0  0  0  0  0  0
  1 16  1  0  0  0  0
  2 14  1  0  0  0  0
  2 18  1  0  0  0  0
  3 17  1  0  0  0  0
  3 13  1  0  0  0  0
  3  7  1  0  0  0  0
  4 11  1  0  0  0  0
  4 16  1  0  0  0  0
  5 21  1  0  0  0  0
  5 12  1  0  0  0  0
  6  7  1  0  0  0  0
  7 15  1  0  0  0  0
  8 15  1  0  0  0  0
 10  9  1  0  0  0  0
 10  8  1  0  0  0  0
 12 11  1  0  0  0  0
 12 10  1  0  0  0  0
 13 19  1  0  0  0  0
 14 21  1  0  0  0  0
 16  9  1  0  0  0  0
 17  8  1  0  0  0  0
 18 20  1  0  0  0  0
 20 13  1  0  0  0  0
 21 17  1  0  0  0  0
 22 23  1  0  0  0  0
 23  2  1  0  0  0  0
 24 25  1  0  0  0  0
 25 23  1  0  0  0  0
 26  4  1  0  0  0  0
 27 32  2  0  0  0  0
 27 33  1  0  0  0  0
 28 30  1  0  0  0  0
 29 27  1  0  0  0  0
 31 26  1  0  0  0  0
 31 30  2  0  0  0  0
 32 31  1  0  0  0  0
 33 28  2  0  0  0  0
 34 33  1  0  0  0  0
 35 37  1  0  0  0  0
 35  5  1  0  0  0  0
 36 37  2  0  0  0  0
 38 36  1  0  0  0  0
 39 38  1  0  0  0  0
 40 43  2  0  0  0  0
 43 41  1  0  0  0  0
 43 42  1  0  0  0  0
 43 39  1  0  0  0  0
 44 45  2  0  0  0  0
 45 35  1  0  0  0  0
M  END
>  <MODEL>
8

>  <REMARK>
 VINA RESULT:      -6.8      2.333      2.822
  Name = 
  10 active torsions:
  status: ('A' for Active; 'I' for Inactive)
    1  A    between atoms: O_5  and  C_9
    2  A    between atoms: O_5  and  C_24
    3  A    between atoms: N_7  and  C_26
    4  A    between atoms: C_10  and  N_11
    5  A    between atoms: C_10  and  C_40
    6  A    between atoms: C_10  and  C_44
    7  A    between atoms: C_21  and  C_43
    8  A    between atoms: C_26  and  O_31
    9  A    between atoms: P_30  and  C_42
   10  A    between atoms: C_42  and  C_43
                            x       y       z     vdW  Elec       q    Type
                         _______ _______ _______ _____ _____    ______ ____

>  <TORSDO>
F 10

$$$$
=
 OpenBabel11062420493D

 45 49  0  0  1  0  0  0  0  0999 V2000
  187.3940  176.1330  147.1590 O   0  0  0  0  0  1  0  0  0  0  0  0
  187.0700  176.4720  139.8370 N   0  0  0  0  0  0  0  0  0  0  0  0
  185.2680  177.9910  142.0910 C   0  0  1  0  0  3  0  0  0  0  0  0
  189.4790  177.2620  146.6270 C   0  0  1  0  0  3  0  0  0  0  0  0
  188.8160  176.9870  142.8740 N   0  0  0  0  0  0  0  0  0  0  0  0
  183.9580  177.7940  144.0750 O   0  0  0  0  0  1  0  0  0  0  0  0
  184.5410  178.7270  143.2170 C   0  0  1  0  0  3  0  0  0  0  0  0
  186.9160  178.8660  143.6830 C   0  0  2  0  0  3  0  0  0  0  0  0
  187.2100  178.2910  146.1340 C   0  0  0  0  0  2  0  0  0  0  0  0
  187.1950  177.7500  144.6880 C   0  0  2  0  0  3  0  0  0  0  0  0
  189.6750  177.5090  145.1240 C   0  0  0  0  0  2  0  0  0  0  0  0
  188.4890  176.9820  144.3180 C   0  0  2  0  0  3  0  0  0  0  0  0
  184.7770  178.4230  140.6940 C   0  0  2  0  0  3  0  0  0  0  0  0
  188.0580  177.0990  140.6090 N   0  0  0  0  0  2  0  0  0  0  0  0
  185.5820  179.5270  143.9710 C   0  0  0  0  0  2  0  0  0  0  0  0
  188.0080  177.3870  147.0790 C   0  0  1  0  0  3  0  0  0  0  0  0
  186.7580  178.2920  142.2790 C   0  0  1  0  0  3  0  0  0  0  0  0
  186.3850  177.4560  139.1970 O   0  0  0  0  0  0  0  0  0  0  0  0
  183.2740  178.6660  140.6560 C   0  0  0  0  0  1  0  0  0  0  0  0
  185.0750  177.3410  139.6670 C   0  0  0  0  0  2  0  0  0  0  0  0
  187.6270  177.0510  142.0020 C   0  0  2  0  0  3  0  0  0  0  0  0
  187.0540  175.6650  137.4780 C   0  0  0  0  0  1  0  0  0  0  0  0
  187.7440  175.6280  138.8400 C   0  0  2  0  0  3  0  0  0  0  0  0
  188.9380  173.7690  138.6600 C   0  0  0  0  0  1  0  0  0  0  0  0
  187.8170  174.3070  139.2960 O   0  0  0  0  0  0  0  0  0  0  0  0
  190.0270  176.0000  147.0090 O   0  0  0  0  0  0  0  0  0  0  0  0
  192.6660  173.9060  145.4240 C   0  0  0  0  0  0  0  0  0  0  0  0
  193.6820  175.8260  146.5030 C   0  0  0  0  0  3  0  0  0  0  0  0
  192.7740  172.6460  144.6370 C   0  0  0  0  0  1  0  0  0  0  0  0
  192.4190  176.2680  146.9080 C   0  0  0  0  0  3  0  0  0  0  0  0
  191.2750  175.5360  146.5790 C   0  0  0  0  0  0  0  0  0  0  0  0
  191.4060  174.3520  145.8320 C   0  0  0  0  0  3  0  0  0  0  0  0
  193.8100  174.6450  145.7640 C   0  0  0  0  0  0  0  0  0  0  0  0
  195.0730  174.2170  145.3710 O   0  0  0  0  0  1  0  0  0  0  0  0
  189.6010  175.7840  142.5150 C   0  0  1  0  0  3  0  0  0  0  0  0
  192.0330  175.3230  142.1060 C   0  0  0  0  0  3  0  0  0  0  0  0
  191.0710  176.0110  142.7370 C   0  0  0  0  0  3  0  0  0  0  0  0
  191.7580  174.2390  141.1070 C   0  0  0  0  0  2  0  0  0  0  0  0
  192.9960  173.3910  140.8730 C   0  0  0  0  0  2  0  0  0  0  0  0
  194.4010  171.9380  138.8430 O   0  0  0  0  0  1  0  0  0  0  0  0
  192.5160  173.8030  138.0780 O   0  0  0  0  0  0  0  0  0  0  0  0
  191.8430  171.5490  139.2270 O   0  0  0  0  0  1  0  0  0  0  0  0
  192.9050  172.6250  139.2290 P   0  0  0  0  0  0  0  0  0  0  0  0
  188.5500  173.5470  142.4580 C   0  0  0  0  0  2  0  0  0  0  0  0
  189.1250  174.5100  143.1730 C   0  0  0  0  0  3  0  0  0  0  0  0
  2 14  1  0  0  0  0
  3 17  1  0  0  0  0
  3  7  1  0  0  0  0
  4 26  1  0  0  0  0
  4 16  1  0  0  0  0
  5 12  1  0  0  0  0
  7 15  1  0  0  0  0
  7  6  1  0  0  0  0
  8 15  1  0  0  0  0
  8 10  1  0  0  0  0
  9 16  1  0  0  0  0
 10  9  1  0  0  0  0
 11  4  1  0  0  0  0
 12 10  1  0  0  0  0
 12 11  1  0  0  0  0
 13  3  1  0  0  0  0
 14 21  1  0  0  0  0
 16  1  1  0  0  0  0
 17  8  1  0  0  0  0
 18 20  1  0  0  0  0
 18  2  1  0  0  0  0
 19 13  1  0  0  0  0
 20 13  1  0  0  0  0
 21 17  1  0  0  0  0
 21  5  1  0  0  0  0
 22 23  1  0  0  0  0
 23 25  1  0  0  0  0
 23  2  1  0  0  0  0
 24 25  1  0  0  0  0
 27 33  2  0  0  0  0
 27 32  1  0  0  0  0
 28 30  2  0  0  0  0
 29 27  1  0  0  0  0
 31 30  1  0  0  0  0
 31 26  1  0  0  0  0
 32 31  2  0  0  0  0
 33 28  1  0  0  0  0
 34 33  1  0  0  0  0
 35 37  1  0  0  0  0
 35  5  1  0  0  0  0
 35 45  1  0  0  0  0
 36 37  2  0  0  0  0
 38 36  1  0  0  0  0
 39 38  1  0  0  0  0
 40 43  1  0  0  0  0
 41 43  2  0  0  0  0
 42 43  1  0  0  0  0
 43 39  1  0  0  0  0
 44 45  2  0  0  0  0
M  END
>  <MODEL>
9

>  <REMARK>
 VINA RESULT:      -6.8      2.944      7.984
  Name = 
  10 active torsions:
  status: ('A' for Active; 'I' for Inactive)
    1  A    between atoms: O_5  and  C_9
    2  A    between atoms: O_5  and  C_24
    3  A    between atoms: N_7  and  C_26
    4  A    between atoms: C_10  and  N_11
    5  A    between atoms: C_10  and  C_40
    6  A    between atoms: C_10  and  C_44
    7  A    between atoms: C_21  and  C_43
    8  A    between atoms: C_26  and  O_31
    9  A    between atoms: P_30  and  C_42
   10  A    between atoms: C_42  and  C_43
                            x       y       z     vdW  Elec       q    Type
                         _______ _______ _______ _____ _____    ______ ____

>  <TORSDO>
F 10

$$$$
