=
 OpenBabel11062419503D

 30 31  0  0  1  0  0  0  0  0999 V2000
  187.8480  177.9010  141.6890 N   0  0  0  0  0  0  0  0  0  0  0  0
  189.2170  174.1000  142.8100 N   0  0  0  0  0  0  0  0  0  0  0  0
  187.5520  176.8400  140.8910 C   0  0  0  0  0  0  0  0  0  0  0  0
  187.2550  172.8650  142.0140 O   0  0  0  0  0  0  0  0  0  0  0  0
  188.5390  177.7500  142.8530 C   0  0  0  0  0  3  0  0  0  0  0  0
  186.8450  177.0400  139.6770 N   0  0  0  0  0  1  0  0  0  0  0  0
  189.1300  171.7680  142.7130 O   0  0  0  0  0  1  0  0  0  0  0  0
  188.9650  176.4810  143.2500 C   0  0  0  0  0  0  0  0  0  0  0  0
  188.6780  175.3750  142.4430 C   0  0  0  0  0  0  0  0  0  0  0  0
  187.9740  175.5570  141.2460 C   0  0  0  0  0  3  0  0  0  0  0  0
  190.7550  175.1820  144.4660 C   0  0  1  0  0  3  0  0  0  0  0  0
  189.6690  176.2810  144.5630 C   0  0  2  0  0  3  0  0  0  0  0  0
  188.5510  172.8660  142.5090 C   0  0  0  0  0  0  0  0  0  0  0  0
  190.5450  174.0730  143.4160 C   0  0  0  0  0  2  0  0  0  0  0  0
  193.0410  175.5080  145.4280 C   0  0  0  0  0  0  0  0  0  0  0  0
  194.1880  176.0290  145.4000 O   0  0  0  0  0  0  0  0  0  0  0  0
  192.6990  174.6800  146.4950 O   0  0  0  0  0  1  0  0  0  0  0  0
  192.0990  175.7540  144.3670 N   0  0  0  0  0  0  0  0  0  0  0  0
  192.4380  176.6520  143.2590 C   0  0  0  0  0  2  0  0  0  0  0  0
  193.0890  175.8860  142.1190 C   0  0  0  0  0  2  0  0  0  0  0  0
  196.9520  176.0850  142.0680 C   0  0  0  0  0  1  0  0  0  0  0  0
  195.5810  175.5470  142.2650 C   0  0  0  0  0  0  0  0  0  0  0  0
  194.4520  176.3520  141.9260 N   0  0  0  0  0  2  0  0  0  0  0  0
  195.4260  174.3800  142.7220 O   0  0  0  0  0  0  0  0  0  0  0  0
  188.6720  175.9670  145.6910 C   0  0  1  0  0  3  0  0  0  0  0  0
  189.3350  175.4940  146.9530 C   0  0  0  0  0  0  0  0  0  0  0  0
  189.1000  174.3420  147.4120 O   0  0  0  0  0  0  0  0  0  0  0  0
  190.2270  176.3310  147.6130 O   0  0  0  0  0  1  0  0  0  0  0  0
  186.2500  176.6860  145.8850 C   0  0  0  0  0  1  0  0  0  0  0  0
  187.6970  177.1160  145.9810 C   0  0  0  0  0  2  0  0  0  0  0  0
  1  5  1  0  0  0  0
  2 14  1  0  0  0  0
  3 10  1  0  0  0  0
  3  1  2  0  0  0  0
  4 13  2  0  0  0  0
  5  8  2  0  0  0  0
  6  3  1  0  0  0  0
  8 12  1  0  0  0  0
  9  2  1  0  0  0  0
  9  8  1  0  0  0  0
 10  9  2  0  0  0  0
 11 18  1  6  0  0  0
 11 12  1  0  0  0  0
 12 25  1  1  0  0  0
 13  7  1  0  0  0  0
 13  2  1  0  0  0  0
 14 11  1  0  0  0  0
 15 17  1  0  0  0  0
 16 15  2  0  0  0  0
 18 15  1  0  0  0  0
 19 18  1  0  0  0  0
 20 19  1  0  0  0  0
 21 22  1  0  0  0  0
 22 24  2  0  0  0  0
 23 20  1  0  0  0  0
 23 22  1  0  0  0  0
 25 30  1  1  0  0  0
 25 26  1  0  0  0  0
 26 27  2  0  0  0  0
 26 28  1  0  0  0  0
 29 30  1  0  0  0  0
M  END
>  <MODEL>
1

>  <REMARK>
 VINA RESULT:      -6.2      0.000      0.000
  Name = 
  7 active torsions:
  status: ('A' for Active; 'I' for Inactive)
    1  A    between atoms: C_2  and  C_30
    2  A    between atoms: N_15  and  C_27
    3  A    between atoms: C_21  and  N_28
    4  A    between atoms: C_22  and  C_30
    5  A    between atoms: C_23  and  C_27
    6  A    between atoms: C_23  and  N_28
    7  A    between atoms: C_24  and  C_30
                            x       y       z     vdW  Elec       q    Type
                         _______ _______ _______ _____ _____    ______ ____

>  <TORSDO>
F 7

$$$$
=
 OpenBabel11062419503D

 30 31  0  0  1  0  0  0  0  0999 V2000
  193.2670  176.4530  143.6370 N   0  0  0  0  0  0  0  0  0  0  0  0
  189.5340  175.8260  145.4420 N   0  0  0  0  0  0  0  0  0  0  0  0
  193.1380  176.6950  144.9700 C   0  0  0  0  0  0  0  0  0  0  0  0
  190.4070  174.9900  147.5740 O   0  0  0  0  0  1  0  0  0  0  0  0
  192.2300  175.9780  142.8930 C   0  0  0  0  0  3  0  0  0  0  0  0
  194.2370  177.2050  145.7090 N   0  0  0  0  0  1  0  0  0  0  0  0
  188.1880  175.4540  147.3140 O   0  0  0  0  0  0  0  0  0  0  0  0
  190.9950  175.7330  143.4960 C   0  0  0  0  0  0  0  0  0  0  0  0
  190.8360  175.9790  144.8640 C   0  0  0  0  0  0  0  0  0  0  0  0
  191.9150  176.4760  145.6070 C   0  0  0  0  0  3  0  0  0  0  0  0
  188.4930  175.7190  143.1650 C   0  0  1  0  0  3  0  0  0  0  0  0
  189.8570  175.1460  142.7090 C   0  0  2  0  0  3  0  0  0  0  0  0
  189.3380  175.4290  146.8060 C   0  0  0  0  0  0  0  0  0  0  0  0
  188.3820  176.1970  144.6260 C   0  0  0  0  0  2  0  0  0  0  0  0
  187.6570  176.3460  140.8930 C   0  0  0  0  0  0  0  0  0  0  0  0
  187.2750  177.2050  140.0540 O   0  0  0  0  0  0  0  0  0  0  0  0
  187.7400  175.0100  140.5040 O   0  0  0  0  0  1  0  0  0  0  0  0
  187.9930  176.7350  142.2380 N   0  0  0  0  0  0  0  0  0  0  0  0
  187.9430  178.1420  142.6440 C   0  0  0  0  0  2  0  0  0  0  0  0
  186.5170  178.6660  142.6100 C   0  0  0  0  0  2  0  0  0  0  0  0
  184.1260  178.8170  145.6470 C   0  0  0  0  0  1  0  0  0  0  0  0
  184.6020  178.6780  144.2470 C   0  0  0  0  0  0  0  0  0  0  0  0
  185.9970  178.7730  143.9640 N   0  0  0  0  0  2  0  0  0  0  0  0
  183.7690  178.4670  143.3220 O   0  0  0  0  0  0  0  0  0  0  0  0
  189.8580  173.6090  142.7840 C   0  0  1  0  0  3  0  0  0  0  0  0
  190.3300  172.9550  141.5180 C   0  0  0  0  0  0  0  0  0  0  0  0
  190.8810  173.6350  140.6080 O   0  0  0  0  0  0  0  0  0  0  0  0
  190.1700  171.5840  141.3540 O   0  0  0  0  0  1  0  0  0  0  0  0
  189.7240  172.2450  144.9160 C   0  0  0  0  0  1  0  0  0  0  0  0
  190.6130  173.0580  144.0010 C   0  0  0  0  0  2  0  0  0  0  0  0
  1  3  1  0  0  0  0
  2 13  1  0  0  0  0
  3 10  2  0  0  0  0
  3  6  1  0  0  0  0
  5  8  1  0  0  0  0
  5  1  2  0  0  0  0
  8  9  2  0  0  0  0
  9  2  1  0  0  0  0
  9 10  1  0  0  0  0
 11 18  1  6  0  0  0
 11 14  1  0  0  0  0
 12 25  1  1  0  0  0
 12 11  1  0  0  0  0
 12  8  1  0  0  0  0
 13  7  2  0  0  0  0
 13  4  1  0  0  0  0
 14  2  1  0  0  0  0
 15 18  1  0  0  0  0
 16 15  2  0  0  0  0
 17 15  1  0  0  0  0
 18 19  1  0  0  0  0
 20 19  1  0  0  0  0
 20 23  1  0  0  0  0
 22 21  1  0  0  0  0
 23 22  1  0  0  0  0
 24 22  2  0  0  0  0
 25 30  1  1  0  0  0
 26 25  1  0  0  0  0
 27 26  2  0  0  0  0
 28 26  1  0  0  0  0
 30 29  1  0  0  0  0
M  END
>  <MODEL>
2

>  <REMARK>
 VINA RESULT:      -6.0      2.379      6.941
  Name = 
  7 active torsions:
  status: ('A' for Active; 'I' for Inactive)
    1  A    between atoms: C_2  and  C_30
    2  A    between atoms: N_15  and  C_27
    3  A    between atoms: C_21  and  N_28
    4  A    between atoms: C_22  and  C_30
    5  A    between atoms: C_23  and  C_27
    6  A    between atoms: C_23  and  N_28
    7  A    between atoms: C_24  and  C_30
                            x       y       z     vdW  Elec       q    Type
                         _______ _______ _______ _____ _____    ______ ____

>  <TORSDO>
F 7

$$$$
=
 OpenBabel11062419503D

 30 31  0  0  1  0  0  0  0  0999 V2000
  188.0320  175.7710  147.0540 N   0  0  0  0  0  0  0  0  0  0  0  0
  188.0330  176.9610  143.0330 N   0  0  0  0  0  0  0  0  0  0  0  0
  187.1080  176.6810  146.6420 C   0  0  0  0  0  0  0  0  0  0  0  0
  185.6010  177.1710  142.8180 O   0  0  0  0  0  1  0  0  0  0  0  0
  188.9220  175.2140  146.1860 C   0  0  0  0  0  3  0  0  0  0  0  0
  186.2080  177.2520  147.5800 N   0  0  0  0  0  1  0  0  0  0  0  0
  186.9940  177.8940  141.1600 O   0  0  0  0  0  0  0  0  0  0  0  0
  188.9030  175.5790  144.8390 C   0  0  0  0  0  0  0  0  0  0  0  0
  187.9660  176.5180  144.3940 C   0  0  0  0  0  0  0  0  0  0  0  0
  187.0670  177.0830  145.3060 C   0  0  0  0  0  3  0  0  0  0  0  0
  190.2990  175.9270  142.7660 C   0  0  1  0  0  3  0  0  0  0  0  0
  189.8300  174.9280  143.8520 C   0  0  2  0  0  3  0  0  0  0  0  0
  186.8710  177.3700  142.2980 C   0  0  0  0  0  0  0  0  0  0  0  0
  189.3550  177.0960  142.4270 C   0  0  0  0  0  2  0  0  0  0  0  0
  192.7540  175.8010  142.3020 C   0  0  0  0  0  0  0  0  0  0  0  0
  193.9430  176.1510  142.5340 O   0  0  0  0  0  1  0  0  0  0  0  0
  192.5120  174.8290  141.3330 O   0  0  0  0  0  0  0  0  0  0  0  0
  191.6600  176.4040  143.0180 N   0  0  0  0  0  0  0  0  0  0  0  0
  191.9090  177.4010  144.0630 C   0  0  0  0  0  2  0  0  0  0  0  0
  191.9270  176.7530  145.4380 C   0  0  0  0  0  2  0  0  0  0  0  0
  195.3480  175.0500  146.0390 C   0  0  0  0  0  1  0  0  0  0  0  0
  194.2880  176.0900  146.0150 C   0  0  0  0  0  0  0  0  0  0  0  0
  192.9940  175.7680  145.5060 N   0  0  0  0  0  2  0  0  0  0  0  0
  194.5380  177.2470  146.4540 O   0  0  0  0  0  0  0  0  0  0  0  0
  189.1850  173.6860  143.2110 C   0  0  1  0  0  3  0  0  0  0  0  0
  189.2570  173.6890  141.7120 C   0  0  0  0  0  0  0  0  0  0  0  0
  190.2170  173.1280  141.1120 O   0  0  0  0  0  1  0  0  0  0  0  0
  188.2500  174.3030  140.9780 O   0  0  0  0  0  0  0  0  0  0  0  0
  191.0390  172.5230  144.4900 C   0  0  0  0  0  1  0  0  0  0  0  0
  189.7100  172.3630  143.7840 C   0  0  0  0  0  2  0  0  0  0  0  0
  2  9  1  0  0  0  0
  3  1  1  0  0  0  0
  3  6  1  0  0  0  0
  5  1  2  0  0  0  0
  7 13  2  0  0  0  0
  8  5  1  0  0  0  0
  9  8  2  0  0  0  0
  9 10  1  0  0  0  0
 10  3  2  0  0  0  0
 11 18  1  1  0  0  0
 11 12  1  0  0  0  0
 12 25  1  6  0  0  0
 12  8  1  0  0  0  0
 13  4  1  0  0  0  0
 13  2  1  0  0  0  0
 14 11  1  0  0  0  0
 14  2  1  0  0  0  0
 15 16  1  0  0  0  0
 15 18  1  0  0  0  0
 17 15  2  0  0  0  0
 18 19  1  0  0  0  0
 19 20  1  0  0  0  0
 20 23  1  0  0  0  0
 22 21  1  0  0  0  0
 22 24  2  0  0  0  0
 23 22  1  0  0  0  0
 25 30  1  1  0  0  0
 26 25  1  0  0  0  0
 27 26  1  0  0  0  0
 28 26  2  0  0  0  0
 30 29  1  0  0  0  0
M  END
>  <MODEL>
3

>  <REMARK>
 VINA RESULT:      -5.9      2.450      4.614
  Name = 
  7 active torsions:
  status: ('A' for Active; 'I' for Inactive)
    1  A    between atoms: C_2  and  C_30
    2  A    between atoms: N_15  and  C_27
    3  A    between atoms: C_21  and  N_28
    4  A    between atoms: C_22  and  C_30
    5  A    between atoms: C_23  and  C_27
    6  A    between atoms: C_23  and  N_28
    7  A    between atoms: C_24  and  C_30
                            x       y       z     vdW  Elec       q    Type
                         _______ _______ _______ _____ _____    ______ ____

>  <TORSDO>
F 7

$$$$
=
 OpenBabel11062419503D

 30 31  0  0  1  0  0  0  0  0999 V2000
  190.7070  172.7130  144.2990 N   0  0  0  0  0  0  0  0  0  0  0  0
  190.7960  176.8690  143.7440 N   0  0  0  0  0  0  0  0  0  0  0  0
  191.8720  173.2940  143.9030 C   0  0  0  0  0  0  0  0  0  0  0  0
  193.0810  177.1980  144.5670 O   0  0  0  0  0  1  0  0  0  0  0  0
  189.5910  173.4520  144.5550 C   0  0  0  0  0  3  0  0  0  0  0  0
  193.0080  172.4890  143.6290 N   0  0  0  0  0  1  0  0  0  0  0  0
  191.9370  178.8990  143.5640 O   0  0  0  0  0  0  0  0  0  0  0  0
  189.6250  174.8400  144.4070 C   0  0  0  0  0  0  0  0  0  0  0  0
  190.8100  175.4580  143.9950 C   0  0  0  0  0  0  0  0  0  0  0  0
  191.9420  174.6770  143.7290 C   0  0  0  0  0  3  0  0  0  0  0  0
  188.2910  176.8930  143.7970 C   0  0  1  0  0  3  0  0  0  0  0  0
  188.4270  175.6800  144.7490 C   0  0  2  0  0  3  0  0  0  0  0  0
  191.9490  177.6980  143.9400 C   0  0  0  0  0  0  0  0  0  0  0  0
  189.5850  177.4430  143.1650 C   0  0  0  0  0  2  0  0  0  0  0  0
  186.2860  177.7050  142.5400 C   0  0  0  0  0  0  0  0  0  0  0  0
  185.3550  177.5270  141.7110 O   0  0  0  0  0  0  0  0  0  0  0  0
  186.3690  178.9220  143.2140 O   0  0  0  0  0  1  0  0  0  0  0  0
  187.2610  176.6720  142.7810 N   0  0  0  0  0  0  0  0  0  0  0  0
  187.1600  175.3770  142.1020 C   0  0  0  0  0  2  0  0  0  0  0  0
  188.0280  175.3490  140.8540 C   0  0  0  0  0  2  0  0  0  0  0  0
  190.1950  172.1490  140.7010 C   0  0  0  0  0  1  0  0  0  0  0  0
  189.0660  173.0860  140.4710 C   0  0  0  0  0  0  0  0  0  0  0  0
  189.1140  174.3990  141.0290 N   0  0  0  0  0  2  0  0  0  0  0  0
  188.0790  172.7170  139.7750 O   0  0  0  0  0  0  0  0  0  0  0  0
  188.4650  176.1390  146.2170 C   0  0  1  0  0  3  0  0  0  0  0  0
  187.2110  176.8410  146.6500 C   0  0  0  0  0  0  0  0  0  0  0  0
  186.0770  176.4080  146.3020 O   0  0  0  0  0  0  0  0  0  0  0  0
  187.3010  177.9720  147.4540 O   0  0  0  0  0  1  0  0  0  0  0  0
  190.2440  175.1460  147.7240 C   0  0  0  0  0  1  0  0  0  0  0  0
  188.8320  175.0170  147.1980 C   0  0  0  0  0  2  0  0  0  0  0  0
  1  5  1  0  0  0  0
  2 13  1  0  0  0  0
  2  9  1  0  0  0  0
  3  1  2  0  0  0  0
  6  3  1  0  0  0  0
  7 13  2  0  0  0  0
  8  5  2  0  0  0  0
  8 12  1  0  0  0  0
  9  8  1  0  0  0  0
 10  3  1  0  0  0  0
 10  9  2  0  0  0  0
 11 18  1  6  0  0  0
 11 12  1  0  0  0  0
 12 25  1  1  0  0  0
 13  4  1  0  0  0  0
 14  2  1  0  0  0  0
 14 11  1  0  0  0  0
 15 18  1  0  0  0  0
 15 17  1  0  0  0  0
 16 15  2  0  0  0  0
 19 18  1  0  0  0  0
 20 23  1  0  0  0  0
 20 19  1  0  0  0  0
 22 21  1  0  0  0  0
 22 23  1  0  0  0  0
 24 22  2  0  0  0  0
 25 26  1  0  0  0  0
 25 30  1  1  0  0  0
 26 28  1  0  0  0  0
 27 26  2  0  0  0  0
 30 29  1  0  0  0  0
M  END
>  <MODEL>
4

>  <REMARK>
 VINA RESULT:      -5.9      2.494      5.730
  Name = 
  7 active torsions:
  status: ('A' for Active; 'I' for Inactive)
    1  A    between atoms: C_2  and  C_30
    2  A    between atoms: N_15  and  C_27
    3  A    between atoms: C_21  and  N_28
    4  A    between atoms: C_22  and  C_30
    5  A    between atoms: C_23  and  C_27
    6  A    between atoms: C_23  and  N_28
    7  A    between atoms: C_24  and  C_30
                            x       y       z     vdW  Elec       q    Type
                         _______ _______ _______ _____ _____    ______ ____

>  <TORSDO>
F 7

$$$$
=
 OpenBabel11062419503D

 30 31  0  0  1  0  0  0  0  0999 V2000
  187.7670  178.0670  141.7260 N   0  0  0  0  0  0  0  0  0  0  0  0
  189.3200  174.3090  142.7500 N   0  0  0  0  0  0  0  0  0  0  0  0
  187.5040  177.0080  140.9120 C   0  0  0  0  0  0  0  0  0  0  0  0
  187.4010  173.0040  141.9610 O   0  0  0  0  0  0  0  0  0  0  0  0
  188.4830  177.9240  142.8760 C   0  0  0  0  0  3  0  0  0  0  0  0
  186.7690  177.2000  139.7140 N   0  0  0  0  0  1  0  0  0  0  0  0
  189.3340  171.9770  142.6090 O   0  0  0  0  0  1  0  0  0  0  0  0
  188.9710  176.6680  143.2410 C   0  0  0  0  0  0  0  0  0  0  0  0
  188.7190  175.5660  142.4170 C   0  0  0  0  0  0  0  0  0  0  0  0
  187.9880  175.7390  141.2350 C   0  0  0  0  0  3  0  0  0  0  0  0
  190.8370  175.4270  144.4020 C   0  0  1  0  0  3  0  0  0  0  0  0
  189.7050  176.4750  144.5380 C   0  0  2  0  0  3  0  0  0  0  0  0
  188.7040  173.0530  142.4360 C   0  0  0  0  0  0  0  0  0  0  0  0
  190.6580  174.3300  143.3340 C   0  0  0  0  0  2  0  0  0  0  0  0
  192.8900  175.9270  143.0630 C   0  0  0  0  0  0  0  0  0  0  0  0
  194.0470  176.4130  142.9540 O   0  0  0  0  0  1  0  0  0  0  0  0
  192.3270  175.2680  141.9720 O   0  0  0  0  0  0  0  0  0  0  0  0
  192.1520  176.0590  144.2930 N   0  0  0  0  0  0  0  0  0  0  0  0
  192.7510  176.7190  145.4570 C   0  0  0  0  0  2  0  0  0  0  0  0
  193.3230  175.6970  146.4250 C   0  0  0  0  0  2  0  0  0  0  0  0
  196.7210  174.1880  145.3570 C   0  0  0  0  0  1  0  0  0  0  0  0
  195.2580  174.3270  145.5720 C   0  0  0  0  0  0  0  0  0  0  0  0
  194.7430  175.5160  146.1710 N   0  0  0  0  0  2  0  0  0  0  0  0
  194.4820  173.3970  145.2150 O   0  0  0  0  0  0  0  0  0  0  0  0
  188.7420  176.0950  145.6760 C   0  0  1  0  0  3  0  0  0  0  0  0
  189.4170  175.3760  146.8080 C   0  0  0  0  0  0  0  0  0  0  0  0
  190.1050  176.0120  147.6550 O   0  0  0  0  0  1  0  0  0  0  0  0
  189.2700  174.0000  146.9310 O   0  0  0  0  0  0  0  0  0  0  0  0
  186.6920  176.8350  146.9680 C   0  0  0  0  0  1  0  0  0  0  0  0
  187.9130  177.2780  146.1930 C   0  0  0  0  0  2  0  0  0  0  0  0
  1  5  1  0  0  0  0
  2 14  1  0  0  0  0
  3 10  1  0  0  0  0
  3  1  2  0  0  0  0
  4 13  2  0  0  0  0
  5  8  2  0  0  0  0
  6  3  1  0  0  0  0
  8 12  1  0  0  0  0
  9  2  1  0  0  0  0
  9  8  1  0  0  0  0
 10  9  2  0  0  0  0
 11 18  1  6  0  0  0
 11 12  1  0  0  0  0
 12 25  1  1  0  0  0
 13  7  1  0  0  0  0
 13  2  1  0  0  0  0
 14 11  1  0  0  0  0
 15 18  1  0  0  0  0
 16 15  1  0  0  0  0
 17 15  2  0  0  0  0
 18 19  1  0  0  0  0
 19 20  1  0  0  0  0
 21 22  1  0  0  0  0
 22 23  1  0  0  0  0
 23 20  1  0  0  0  0
 24 22  2  0  0  0  0
 25 30  1  1  0  0  0
 25 26  1  0  0  0  0
 26 28  2  0  0  0  0
 26 27  1  0  0  0  0
 30 29  1  0  0  0  0
M  END
>  <MODEL>
5

>  <REMARK>
 VINA RESULT:      -5.7      1.404      2.028
  Name = 
  7 active torsions:
  status: ('A' for Active; 'I' for Inactive)
    1  A    between atoms: C_2  and  C_30
    2  A    between atoms: N_15  and  C_27
    3  A    between atoms: C_21  and  N_28
    4  A    between atoms: C_22  and  C_30
    5  A    between atoms: C_23  and  C_27
    6  A    between atoms: C_23  and  N_28
    7  A    between atoms: C_24  and  C_30
                            x       y       z     vdW  Elec       q    Type
                         _______ _______ _______ _____ _____    ______ ____

>  <TORSDO>
F 7

$$$$
=
 OpenBabel11062419503D

 30 31  0  0  1  0  0  0  0  0999 V2000
  194.0430  176.4130  144.1130 N   0  0  0  0  0  0  0  0  0  0  0  0
  190.2970  175.4770  145.7490 N   0  0  0  0  0  0  0  0  0  0  0  0
  193.7850  176.7710  145.4000 C   0  0  0  0  0  0  0  0  0  0  0  0
  191.1090  174.9920  148.0110 O   0  0  0  0  0  1  0  0  0  0  0  0
  193.1330  175.7280  143.3660 C   0  0  0  0  0  3  0  0  0  0  0  0
  194.7520  177.5000  146.1410 N   0  0  0  0  0  1  0  0  0  0  0  0
  188.8740  175.1220  147.5670 O   0  0  0  0  0  0  0  0  0  0  0  0
  191.8990  175.3810  143.9180 C   0  0  0  0  0  0  0  0  0  0  0  0
  191.6080  175.7440  145.2370 C   0  0  0  0  0  0  0  0  0  0  0  0
  192.5560  176.4560  145.9830 C   0  0  0  0  0  3  0  0  0  0  0  0
  189.4510  174.9940  143.4410 C   0  0  1  0  0  3  0  0  0  0  0  0
  190.9070  174.5670  143.1350 C   0  0  2  0  0  3  0  0  0  0  0  0
  190.0530  175.2000  147.1350 C   0  0  0  0  0  0  0  0  0  0  0  0
  189.1710  175.6020  144.8300 C   0  0  0  0  0  2  0  0  0  0  0  0
  188.2260  175.2000  141.2700 C   0  0  0  0  0  0  0  0  0  0  0  0
  187.7830  175.8870  140.3110 O   0  0  0  0  0  0  0  0  0  0  0  0
  188.0480  173.8170  141.2510 O   0  0  0  0  0  1  0  0  0  0  0  0
  188.8950  175.8320  142.3770 N   0  0  0  0  0  0  0  0  0  0  0  0
  189.1180  177.2810  142.3880 C   0  0  0  0  0  2  0  0  0  0  0  0
  188.0680  177.9840  143.2320 C   0  0  0  0  0  2  0  0  0  0  0  0
  184.6470  178.2850  141.4500 C   0  0  0  0  0  1  0  0  0  0  0  0
  185.7150  177.7840  142.3530 C   0  0  0  0  0  0  0  0  0  0  0  0
  186.9800  178.4440  142.3840 N   0  0  0  0  0  2  0  0  0  0  0  0
  185.4910  176.7860  143.0930 O   0  0  0  0  0  0  0  0  0  0  0  0
  191.0990  173.0610  143.3820 C   0  0  1  0  0  3  0  0  0  0  0  0
  189.8700  172.3880  143.9230 C   0  0  0  0  0  0  0  0  0  0  0  0
  189.0050  171.9020  143.1420 O   0  0  0  0  0  0  0  0  0  0  0  0
  189.6920  172.2890  145.2980 O   0  0  0  0  0  1  0  0  0  0  0  0
  193.1530  172.1930  142.1790 C   0  0  0  0  0  1  0  0  0  0  0  0
  191.6450  172.3070  142.1620 C   0  0  0  0  0  2  0  0  0  0  0  0
  1  3  1  0  0  0  0
  2 13  1  0  0  0  0
  3 10  2  0  0  0  0
  3  6  1  0  0  0  0
  5  8  1  0  0  0  0
  5  1  2  0  0  0  0
  8  9  2  0  0  0  0
  9  2  1  0  0  0  0
  9 10  1  0  0  0  0
 11 18  1  6  0  0  0
 11 14  1  0  0  0  0
 12 25  1  1  0  0  0
 12 11  1  0  0  0  0
 12  8  1  0  0  0  0
 13  7  2  0  0  0  0
 13  4  1  0  0  0  0
 14  2  1  0  0  0  0
 15 18  1  0  0  0  0
 16 15  2  0  0  0  0
 17 15  1  0  0  0  0
 18 19  1  0  0  0  0
 19 20  1  0  0  0  0
 21 22  1  0  0  0  0
 22 23  1  0  0  0  0
 22 24  2  0  0  0  0
 23 20  1  0  0  0  0
 25 30  1  6  0  0  0
 25 26  1  0  0  0  0
 26 28  1  0  0  0  0
 27 26  2  0  0  0  0
 30 29  1  0  0  0  0
M  END
>  <MODEL>
6

>  <REMARK>
 VINA RESULT:      -5.7      2.276      6.612
  Name = 
  7 active torsions:
  status: ('A' for Active; 'I' for Inactive)
    1  A    between atoms: C_2  and  C_30
    2  A    between atoms: N_15  and  C_27
    3  A    between atoms: C_21  and  N_28
    4  A    between atoms: C_22  and  C_30
    5  A    between atoms: C_23  and  C_27
    6  A    between atoms: C_23  and  N_28
    7  A    between atoms: C_24  and  C_30
                            x       y       z     vdW  Elec       q    Type
                         _______ _______ _______ _____ _____    ______ ____

>  <TORSDO>
F 7

$$$$
=
 OpenBabel11062419503D

 30 31  0  0  1  0  0  0  0  0999 V2000
  188.4030  175.2550  146.8640 N   0  0  0  0  0  0  0  0  0  0  0  0
  189.4490  177.1340  143.2630 N   0  0  0  0  0  0  0  0  0  0  0  0
  187.7250  176.3740  146.4900 C   0  0  0  0  0  0  0  0  0  0  0  0
  187.1750  177.8070  142.6450 O   0  0  0  0  0  1  0  0  0  0  0  0
  189.3780  174.7150  146.0800 C   0  0  0  0  0  3  0  0  0  0  0  0
  186.7280  176.9160  147.3420 N   0  0  0  0  0  1  0  0  0  0  0  0
  188.9830  178.5590  141.4720 O   0  0  0  0  0  0  0  0  0  0  0  0
  189.7050  175.3160  144.8630 C   0  0  0  0  0  0  0  0  0  0  0  0
  189.0260  176.4700  144.4610 C   0  0  0  0  0  0  0  0  0  0  0  0
  188.0330  177.0120  145.2880 C   0  0  0  0  0  3  0  0  0  0  0  0
  191.5560  175.7790  143.2120 C   0  0  1  0  0  3  0  0  0  0  0  0
  190.7290  174.7000  143.9510 C   0  0  2  0  0  3  0  0  0  0  0  0
  188.5440  177.8680  142.4280 C   0  0  0  0  0  0  0  0  0  0  0  0
  190.8770  177.1400  142.9600 C   0  0  0  0  0  2  0  0  0  0  0  0
  193.9570  175.0980  143.3850 C   0  0  0  0  0  0  0  0  0  0  0  0
  195.0960  175.1860  143.9180 O   0  0  0  0  0  1  0  0  0  0  0  0
  193.7560  174.1670  142.3670 O   0  0  0  0  0  0  0  0  0  0  0  0
  192.8800  175.9540  143.8110 N   0  0  0  0  0  0  0  0  0  0  0  0
  193.0740  176.9110  144.9050 C   0  0  0  0  0  2  0  0  0  0  0  0
  193.0190  176.2110  146.2530 C   0  0  0  0  0  2  0  0  0  0  0  0
  191.4660  177.8680  149.3850 C   0  0  0  0  0  1  0  0  0  0  0  0
  191.7940  176.8410  148.3620 C   0  0  0  0  0  0  0  0  0  0  0  0
  192.6810  177.1690  147.2930 N   0  0  0  0  0  2  0  0  0  0  0  0
  191.2940  175.6860  148.4540 O   0  0  0  0  0  0  0  0  0  0  0  0
  190.0780  173.7290  142.9510 C   0  0  1  0  0  3  0  0  0  0  0  0
  190.2530  172.2860  143.3270 C   0  0  0  0  0  0  0  0  0  0  0  0
  190.8650  171.9650  144.3840 O   0  0  0  0  0  1  0  0  0  0  0  0
  189.7230  171.2950  142.5090 O   0  0  0  0  0  0  0  0  0  0  0  0
  188.3530  174.3670  141.2080 C   0  0  0  0  0  1  0  0  0  0  0  0
  188.6040  174.0460  142.6650 C   0  0  0  0  0  2  0  0  0  0  0  0
  2  9  1  0  0  0  0
  3  1  1  0  0  0  0
  3  6  1  0  0  0  0
  5  1  2  0  0  0  0
  7 13  2  0  0  0  0
  8  5  1  0  0  0  0
  9  8  2  0  0  0  0
  9 10  1  0  0  0  0
 10  3  2  0  0  0  0
 11 18  1  1  0  0  0
 11 12  1  0  0  0  0
 12 25  1  6  0  0  0
 12  8  1  0  0  0  0
 13  4  1  0  0  0  0
 13  2  1  0  0  0  0
 14 11  1  0  0  0  0
 14  2  1  0  0  0  0
 15 18  1  0  0  0  0
 15 16  1  0  0  0  0
 17 15  2  0  0  0  0
 18 19  1  0  0  0  0
 19 20  1  0  0  0  0
 20 23  1  0  0  0  0
 22 24  2  0  0  0  0
 22 21  1  0  0  0  0
 23 22  1  0  0  0  0
 25 30  1  1  0  0  0
 25 26  1  0  0  0  0
 26 27  1  0  0  0  0
 28 26  2  0  0  0  0
 29 30  1  0  0  0  0
M  END
>  <MODEL>
7

>  <REMARK>
 VINA RESULT:      -5.6      2.536      4.935
  Name = 
  7 active torsions:
  status: ('A' for Active; 'I' for Inactive)
    1  A    between atoms: C_2  and  C_30
    2  A    between atoms: N_15  and  C_27
    3  A    between atoms: C_21  and  N_28
    4  A    between atoms: C_22  and  C_30
    5  A    between atoms: C_23  and  C_27
    6  A    between atoms: C_23  and  N_28
    7  A    between atoms: C_24  and  C_30
                            x       y       z     vdW  Elec       q    Type
                         _______ _______ _______ _____ _____    ______ ____

>  <TORSDO>
F 7

$$$$
=
 OpenBabel11062419503D

 30 31  0  0  1  0  0  0  0  0999 V2000
  191.0580  171.2930  144.2690 N   0  0  0  0  0  0  0  0  0  0  0  0
  192.2660  175.1190  143.0490 N   0  0  0  0  0  0  0  0  0  0  0  0
  192.2970  171.4450  143.7280 C   0  0  0  0  0  0  0  0  0  0  0  0
  194.6170  174.8740  143.6960 O   0  0  0  0  0  1  0  0  0  0  0  0
  190.2250  172.3550  144.4570 C   0  0  0  0  0  3  0  0  0  0  0  0
  193.1290  170.3120  143.5320 N   0  0  0  0  0  1  0  0  0  0  0  0
  193.9120  176.6780  142.4890 O   0  0  0  0  0  0  0  0  0  0  0  0
  190.6370  173.6360  144.0860 C   0  0  0  0  0  0  0  0  0  0  0  0
  191.9040  173.8160  143.5230 C   0  0  0  0  0  0  0  0  0  0  0  0
  192.7390  172.7080  143.3310 C   0  0  0  0  0  3  0  0  0  0  0  0
  189.8860  175.8840  143.2190 C   0  0  1  0  0  3  0  0  0  0  0  0
  189.7620  174.8310  144.3460 C   0  0  2  0  0  3  0  0  0  0  0  0
  193.6200  175.5920  143.0530 C   0  0  0  0  0  0  0  0  0  0  0  0
  191.2180  175.9360  142.4440 C   0  0  0  0  0  2  0  0  0  0  0  0
  188.1910  177.0720  141.8140 C   0  0  0  0  0  0  0  0  0  0  0  0
  187.1760  177.0680  141.0670 O   0  0  0  0  0  0  0  0  0  0  0  0
  188.7780  178.2900  142.1520 O   0  0  0  0  0  1  0  0  0  0  0  0
  188.7450  175.8360  142.3030 N   0  0  0  0  0  0  0  0  0  0  0  0
  188.1120  174.5540  141.9800 C   0  0  0  0  0  2  0  0  0  0  0  0
  188.6250  174.0140  140.6560 C   0  0  0  0  0  2  0  0  0  0  0  0
  190.6770  170.7340  140.6480 C   0  0  0  0  0  1  0  0  0  0  0  0
  190.3370  172.1720  140.4930 C   0  0  0  0  0  0  0  0  0  0  0  0
  189.0200  172.6230  140.8100 N   0  0  0  0  0  2  0  0  0  0  0  0
  191.2170  172.9830  140.0930 O   0  0  0  0  0  0  0  0  0  0  0  0
  190.0650  175.4590  145.7180 C   0  0  1  0  0  3  0  0  0  0  0  0
  188.9160  175.3630  146.6800 C   0  0  0  0  0  0  0  0  0  0  0  0
  188.9450  174.5410  147.6380 O   0  0  0  0  0  1  0  0  0  0  0  0
  187.8160  176.1970  146.5190 O   0  0  0  0  0  0  0  0  0  0  0  0
  192.3710  176.0360  146.5960 C   0  0  0  0  0  1  0  0  0  0  0  0
  191.3590  174.9370  146.3550 C   0  0  0  0  0  2  0  0  0  0  0  0
  1  5  1  0  0  0  0
  2 13  1  0  0  0  0
  2  9  1  0  0  0  0
  3  1  2  0  0  0  0
  6  3  1  0  0  0  0
  7 13  2  0  0  0  0
  8 12  1  0  0  0  0
  8  5  2  0  0  0  0
  9  8  1  0  0  0  0
 10  9  2  0  0  0  0
 10  3  1  0  0  0  0
 11 18  1  6  0  0  0
 11 12  1  0  0  0  0
 12 25  1  1  0  0  0
 13  4  1  0  0  0  0
 14  2  1  0  0  0  0
 14 11  1  0  0  0  0
 15 17  1  0  0  0  0
 15 18  1  0  0  0  0
 16 15  2  0  0  0  0
 19 18  1  0  0  0  0
 20 23  1  0  0  0  0
 20 19  1  0  0  0  0
 22 21  1  0  0  0  0
 22 23  1  0  0  0  0
 24 22  2  0  0  0  0
 25 30  1  1  0  0  0
 25 26  1  0  0  0  0
 26 27  1  0  0  0  0
 28 26  2  0  0  0  0
 30 29  1  0  0  0  0
M  END
>  <MODEL>
8

>  <REMARK>
 VINA RESULT:      -5.5      2.569      5.621
  Name = 
  7 active torsions:
  status: ('A' for Active; 'I' for Inactive)
    1  A    between atoms: C_2  and  C_30
    2  A    between atoms: N_15  and  C_27
    3  A    between atoms: C_21  and  N_28
    4  A    between atoms: C_22  and  C_30
    5  A    between atoms: C_23  and  C_27
    6  A    between atoms: C_23  and  N_28
    7  A    between atoms: C_24  and  C_30
                            x       y       z     vdW  Elec       q    Type
                         _______ _______ _______ _____ _____    ______ ____

>  <TORSDO>
F 7

$$$$
=
 OpenBabel11062419503D

 30 31  0  0  1  0  0  0  0  0999 V2000
  193.5980  173.8750  141.1030 N   0  0  0  0  0  0  0  0  0  0  0  0
  194.0740  176.1920  144.5650 N   0  0  0  0  0  0  0  0  0  0  0  0
  194.1870  175.0970  140.9940 C   0  0  0  0  0  0  0  0  0  0  0  0
  196.2360  177.1630  143.9400 O   0  0  0  0  0  0  0  0  0  0  0  0
  193.2000  173.3770  142.3060 C   0  0  0  0  0  3  0  0  0  0  0  0
  194.5720  175.5890  139.7200 N   0  0  0  0  0  1  0  0  0  0  0  0
  195.0920  177.9190  145.7640 O   0  0  0  0  0  1  0  0  0  0  0  0
  193.3890  174.1290  143.4670 C   0  0  0  0  0  0  0  0  0  0  0  0
  193.9870  175.3910  143.3800 C   0  0  0  0  0  0  0  0  0  0  0  0
  194.3800  175.8850  142.1300 C   0  0  0  0  0  3  0  0  0  0  0  0
  192.4760  174.6730  145.7560 C   0  0  1  0  0  3  0  0  0  0  0  0
  193.0210  173.5720  144.8140 C   0  0  2  0  0  3  0  0  0  0  0  0
  195.1360  177.1300  144.7850 C   0  0  0  0  0  0  0  0  0  0  0  0
  192.9720  176.1130  145.5190 C   0  0  0  0  0  2  0  0  0  0  0  0
  190.3980  174.9150  147.1270 C   0  0  0  0  0  0  0  0  0  0  0  0
  189.1480  174.8330  147.2630 O   0  0  0  0  0  0  0  0  0  0  0  0
  191.1740  175.3000  148.2190 O   0  0  0  0  0  1  0  0  0  0  0  0
  191.0170  174.6280  145.8590 N   0  0  0  0  0  0  0  0  0  0  0  0
  190.2110  174.1880  144.7160 C   0  0  0  0  0  2  0  0  0  0  0  0
  189.8330  175.3670  143.8340 C   0  0  0  0  0  2  0  0  0  0  0  0
  186.5650  177.2690  144.6500 C   0  0  0  0  0  1  0  0  0  0  0  0
  188.0100  176.9950  144.4470 C   0  0  0  0  0  0  0  0  0  0  0  0
  188.4300  175.6970  144.0270 N   0  0  0  0  0  2  0  0  0  0  0  0
  188.8540  177.9150  144.6370 O   0  0  0  0  0  0  0  0  0  0  0  0
  194.2070  172.8360  145.4600 C   0  0  1  0  0  3  0  0  0  0  0  0
  194.0740  171.3410  145.4100 C   0  0  0  0  0  0  0  0  0  0  0  0
  194.8570  170.6020  146.0710 O   0  0  0  0  0  1  0  0  0  0  0  0
  193.0700  170.7670  144.6400 O   0  0  0  0  0  0  0  0  0  0  0  0
  196.4840  173.8030  146.0060 C   0  0  0  0  0  1  0  0  0  0  0  0
  195.5710  173.2840  144.9180 C   0  0  0  0  0  2  0  0  0  0  0  0
  1  5  1  0  0  0  0
  2 13  1  0  0  0  0
  2 14  1  0  0  0  0
  3  1  2  0  0  0  0
  3 10  1  0  0  0  0
  4 13  2  0  0  0  0
  5  8  2  0  0  0  0
  6  3  1  0  0  0  0
  8 12  1  0  0  0  0
  9  8  1  0  0  0  0
  9  2  1  0  0  0  0
 10  9  2  0  0  0  0
 11 18  1  6  0  0  0
 12 25  1  1  0  0  0
 12 11  1  0  0  0  0
 13  7  1  0  0  0  0
 14 11  1  0  0  0  0
 15 16  2  0  0  0  0
 15 17  1  0  0  0  0
 18 15  1  0  0  0  0
 19 18  1  0  0  0  0
 20 23  1  0  0  0  0
 20 19  1  0  0  0  0
 22 24  2  0  0  0  0
 22 21  1  0  0  0  0
 23 22  1  0  0  0  0
 25 30  1  6  0  0  0
 26 25  1  0  0  0  0
 26 27  1  0  0  0  0
 28 26  2  0  0  0  0
 30 29  1  0  0  0  0
M  END
>  <MODEL>
9

>  <REMARK>
 VINA RESULT:      -5.4      2.551      6.698
  Name = 
  7 active torsions:
  status: ('A' for Active; 'I' for Inactive)
    1  A    between atoms: C_2  and  C_30
    2  A    between atoms: N_15  and  C_27
    3  A    between atoms: C_21  and  N_28
    4  A    between atoms: C_22  and  C_30
    5  A    between atoms: C_23  and  C_27
    6  A    between atoms: C_23  and  N_28
    7  A    between atoms: C_24  and  C_30
                            x       y       z     vdW  Elec       q    Type
                         _______ _______ _______ _____ _____    ______ ____

>  <TORSDO>
F 7

$$$$
