=
 OpenBabel11062420033D

 42 46  0  0  1  0  0  0  0  0999 V2000
  195.0500  175.7520  145.3710 C   0  0  1  0  0  3  0  0  0  0  0  0
  191.7660  175.5680  147.1860 C   0  0  0  0  0  3  0  0  0  0  0  0
  193.0680  174.0740  138.4120 C   0  0  0  0  0  0  0  0  0  0  0  0
  195.5540  173.3740  141.9290 O   0  0  0  0  0  0  0  0  0  0  0  0
  191.7300  173.6620  140.4500 C   0  0  1  0  0  3  0  0  0  0  0  0
  195.3050  176.7860  144.3670 N   0  0  0  0  0  2  0  0  0  0  0  0
  193.0440  175.3610  143.1160 N   0  0  0  0  0  0  0  0  0  0  0  0
  194.5220  175.3240  139.4600 C   0  0  0  0  0  3  0  0  0  0  0  0
  192.2510  173.5540  137.3690 N   0  0  0  0  0  1  0  0  0  0  0  0
  193.5840  175.5750  145.5750 C   0  0  0  0  0  0  0  0  0  0  0  0
  191.2850  175.4390  144.8250 C   0  0  0  0  0  3  0  0  0  0  0  0
  195.3900  176.2610  143.0050 C   0  0  0  0  0  2  0  0  0  0  0  0
  190.8370  175.4830  146.1450 C   0  0  0  0  0  0  0  0  0  0  0  0
  195.6910  174.5410  145.0840 O   0  0  0  0  0  1  0  0  0  0  0  0
  194.1470  174.4280  140.3610 C   0  0  0  0  0  0  0  0  0  0  0  0
  193.8350  175.0980  138.2370 N   0  0  0  0  0  0  0  0  0  0  0  0
  192.0750  175.3580  142.1540 O   0  0  0  0  0  0  0  0  0  0  0  0
  191.7000  174.0140  141.9580 C   0  0  1  0  0  3  0  0  0  0  0  0
  193.1220  173.5070  139.7920 C   0  0  2  0  0  3  0  0  0  0  0  0
  193.1280  175.6190  146.8980 C   0  0  0  0  0  3  0  0  0  0  0  0
  194.3940  175.2270  142.7240 N   0  0  0  0  0  0  0  0  0  0  0  0
  194.7390  174.3030  141.6910 C   0  0  0  0  0  0  0  0  0  0  0  0
  192.6530  175.4690  144.5090 C   0  0  0  0  0  0  0  0  0  0  0  0
  191.5350  171.3890  140.2630 C   0  0  0  0  0  1  0  0  0  0  0  0
  190.8570  172.6070  140.0970 O   0  0  0  0  0  0  0  0  0  0  0  0
  189.3680  175.4400  146.4110 C   0  0  1  0  0  3  0  0  0  0  0  0
  188.9970  174.2230  147.2420 C   0  0  0  0  0  1  0  0  0  0  0  0
  187.9450  177.5440  146.5390 C   0  0  0  0  0  0  0  0  0  0  0  0
  187.4000  178.3850  147.3030 O   0  0  0  0  0  0  0  0  0  0  0  0
  188.9340  176.6610  147.0770 N   0  0  0  0  0  2  0  0  0  0  0  0
  188.0670  177.8260  142.7830 C   0  0  0  0  0  3  0  0  0  0  0  0
  185.3500  176.5360  145.6960 O   0  0  0  0  0  1  0  0  0  0  0  0
  186.2520  177.0010  144.7470 C   0  0  0  0  0  0  0  0  0  0  0  0
  186.7950  177.3810  142.4080 C   0  0  0  0  0  0  0  0  0  0  0  0
  188.4300  177.8710  144.1310 C   0  0  0  0  0  3  0  0  0  0  0  0
  187.5240  177.4780  145.1250 C   0  0  0  0  0  0  0  0  0  0  0  0
  185.8940  176.9640  143.3960 C   0  0  0  0  0  3  0  0  0  0  0  0
  187.1020  176.6850  140.1590 O   0  0  0  0  0  0  0  0  0  0  0  0
  186.4140  177.3420  140.9860 C   0  0  0  0  0  0  0  0  0  0  0  0
  185.2910  178.0290  140.5420 O   0  0  0  0  0  1  0  0  0  0  0  0
  189.5360  174.7510  142.0850 O   0  0  0  0  0  1  0  0  0  0  0  0
  190.3710  173.7760  142.5240 N   0  0  0  0  0  2  0  0  0  0  0  0
  1 14  1  6  0  0  0
  1 10  1  0  0  0  0
  5 25  1  1  0  0  0
  5 18  1  0  0  0  0
  6  1  1  0  0  0  0
  7 23  1  0  0  0  0
  8 15  2  0  0  0  0
  9  3  1  0  0  0  0
 10 20  2  0  0  0  0
 11 13  1  0  0  0  0
 12  6  1  0  0  0  0
 13 26  1  0  0  0  0
 13  2  2  0  0  0  0
 15 22  1  0  0  0  0
 16  3  2  0  0  0  0
 16  8  1  0  0  0  0
 17  7  1  0  0  0  0
 18 17  1  0  0  0  0
 18 42  1  6  0  0  0
 19  3  1  6  0  0  0
 19 15  1  0  0  0  0
 19  5  1  0  0  0  0
 20  2  1  0  0  0  0
 21 12  1  0  0  0  0
 21  7  1  0  0  0  0
 22  4  2  0  0  0  0
 22 21  1  0  0  0  0
 23 11  2  0  0  0  0
 23 10  1  0  0  0  0
 25 24  1  0  0  0  0
 26 30  1  0  0  0  0
 26 27  1  1  0  0  0
 28 30  1  0  0  0  0
 28 29  2  0  0  0  0
 31 35  1  0  0  0  0
 33 36  1  0  0  0  0
 33 32  1  0  0  0  0
 34 31  2  0  0  0  0
 34 37  1  0  0  0  0
 35 36  2  0  0  0  0
 36 28  1  0  0  0  0
 37 33  2  0  0  0  0
 38 39  2  0  0  0  0
 39 34  1  0  0  0  0
 40 39  1  0  0  0  0
 41 42  1  0  0  0  0
M  END
>  <MODEL>
1

>  <REMARK>
 VINA RESULT:      -8.1      0.000      0.000
  Name = 
  6 active torsions:
  status: ('A' for Active; 'I' for Inactive)
    1  A    between atoms: C_4  and  C_37
    2  A    between atoms: C_6  and  O_24
    3  A    between atoms: C_18  and  C_25
    4  A    between atoms: C_20  and  C_36
    5  A    between atoms: C_25  and  N_27
    6  A    between atoms: N_30  and  C_31
                            x       y       z     vdW  Elec       q    Type
                         _______ _______ _______ _____ _____    ______ ____

>  <TORSDO>
F 6

$$$$
=
 OpenBabel11062420033D

 42 46  0  0  1  0  0  0  0  0999 V2000
  195.0260  175.7240  145.4040 C   0  0  1  0  0  3  0  0  0  0  0  0
  191.7240  175.4790  147.1800 C   0  0  0  0  0  3  0  0  0  0  0  0
  193.1550  174.0190  138.4200 C   0  0  0  0  0  0  0  0  0  0  0  0
  195.6120  173.3610  141.9650 O   0  0  0  0  0  0  0  0  0  0  0  0
  191.8010  173.5810  140.4420 C   0  0  1  0  0  3  0  0  0  0  0  0
  195.2730  176.7650  144.4040 N   0  0  0  0  0  2  0  0  0  0  0  0
  193.0520  175.3010  143.1250 N   0  0  0  0  0  0  0  0  0  0  0  0
  194.5730  175.2940  139.4860 C   0  0  0  0  0  3  0  0  0  0  0  0
  192.3590  173.4860  137.3680 N   0  0  0  0  0  1  0  0  0  0  0  0
  193.5610  175.5210  145.5900 C   0  0  0  0  0  0  0  0  0  0  0  0
  191.2730  175.3440  144.8140 C   0  0  0  0  0  3  0  0  0  0  0  0
  195.3830  176.2430  143.0420 C   0  0  0  0  0  2  0  0  0  0  0  0
  190.8090  175.3780  146.1290 C   0  0  0  0  0  0  0  0  0  0  0  0
  195.6920  174.5260  145.1220 O   0  0  0  0  0  1  0  0  0  0  0  0
  194.2040  174.3910  140.3810 C   0  0  0  0  0  0  0  0  0  0  0  0
  193.9050  175.0580  138.2550 N   0  0  0  0  0  0  0  0  0  0  0  0
  192.0950  175.2810  142.1520 O   0  0  0  0  0  0  0  0  0  0  0  0
  191.7470  173.9300  141.9500 C   0  0  1  0  0  3  0  0  0  0  0  0
  193.2030  173.4520  139.8000 C   0  0  2  0  0  3  0  0  0  0  0  0
  193.0890  175.5550  146.9080 C   0  0  0  0  0  3  0  0  0  0  0  0
  194.4100  175.1920  142.7480 N   0  0  0  0  0  0  0  0  0  0  0  0
  194.7830  174.2750  141.7190 C   0  0  0  0  0  0  0  0  0  0  0  0
  192.6440  175.4000  144.5140 C   0  0  0  0  0  0  0  0  0  0  0  0
  191.6500  171.3050  140.2490 C   0  0  0  0  0  1  0  0  0  0  0  0
  190.9520  172.5110  140.0780 O   0  0  0  0  0  0  0  0  0  0  0  0
  189.3380  175.3080  146.3780 C   0  0  1  0  0  3  0  0  0  0  0  0
  188.9800  174.0880  147.2080 C   0  0  0  0  0  1  0  0  0  0  0  0
  187.9380  177.4300  146.4420 C   0  0  0  0  0  0  0  0  0  0  0  0
  187.3500  178.2650  147.1810 O   0  0  0  0  0  0  0  0  0  0  0  0
  188.8740  176.5230  147.0340 N   0  0  0  0  0  2  0  0  0  0  0  0
  186.0160  176.9180  143.2410 C   0  0  0  0  0  3  0  0  0  0  0  0
  189.7960  178.3090  144.3850 O   0  0  0  0  0  1  0  0  0  0  0  0
  188.5500  177.8120  144.0230 C   0  0  0  0  0  0  0  0  0  0  0  0
  186.9460  177.3020  142.2690 C   0  0  0  0  0  0  0  0  0  0  0  0
  186.3500  176.9680  144.5960 C   0  0  0  0  0  3  0  0  0  0  0  0
  187.6210  177.3960  145.0000 C   0  0  0  0  0  0  0  0  0  0  0  0
  188.2100  177.7540  142.6680 C   0  0  0  0  0  3  0  0  0  0  0  0
  187.2360  176.4990  140.0540 O   0  0  0  0  0  0  0  0  0  0  0  0
  186.5910  177.2410  140.8410 C   0  0  0  0  0  0  0  0  0  0  0  0
  185.5380  178.0030  140.3480 O   0  0  0  0  0  1  0  0  0  0  0  0
  189.5550  174.5900  142.0020 O   0  0  0  0  0  1  0  0  0  0  0  0
  190.4160  173.6670  142.5000 N   0  0  0  0  0  2  0  0  0  0  0  0
  1 14  1  6  0  0  0
  1 10  1  0  0  0  0
  5 25  1  1  0  0  0
  5 18  1  0  0  0  0
  6  1  1  0  0  0  0
  7 23  1  0  0  0  0
  8 15  2  0  0  0  0
  9  3  1  0  0  0  0
 10 20  2  0  0  0  0
 11 13  1  0  0  0  0
 12  6  1  0  0  0  0
 13 26  1  0  0  0  0
 13  2  2  0  0  0  0
 15 22  1  0  0  0  0
 16  3  2  0  0  0  0
 16  8  1  0  0  0  0
 17  7  1  0  0  0  0
 18 17  1  0  0  0  0
 18 42  1  6  0  0  0
 19  3  1  6  0  0  0
 19 15  1  0  0  0  0
 19  5  1  0  0  0  0
 20  2  1  0  0  0  0
 21 12  1  0  0  0  0
 21  7  1  0  0  0  0
 22  4  2  0  0  0  0
 22 21  1  0  0  0  0
 23 11  2  0  0  0  0
 23 10  1  0  0  0  0
 25 24  1  0  0  0  0
 26 30  1  0  0  0  0
 26 27  1  1  0  0  0
 28 30  1  0  0  0  0
 28 29  2  0  0  0  0
 31 35  1  0  0  0  0
 33 32  1  0  0  0  0
 33 36  1  0  0  0  0
 34 37  1  0  0  0  0
 34 31  2  0  0  0  0
 35 36  2  0  0  0  0
 36 28  1  0  0  0  0
 37 33  2  0  0  0  0
 38 39  2  0  0  0  0
 39 34  1  0  0  0  0
 40 39  1  0  0  0  0
 41 42  1  0  0  0  0
M  END
>  <MODEL>
2

>  <REMARK>
 VINA RESULT:      -7.9      0.599      1.079
  Name = 
  6 active torsions:
  status: ('A' for Active; 'I' for Inactive)
    1  A    between atoms: C_4  and  C_37
    2  A    between atoms: C_6  and  O_24
    3  A    between atoms: C_18  and  C_25
    4  A    between atoms: C_20  and  C_36
    5  A    between atoms: C_25  and  N_27
    6  A    between atoms: N_30  and  C_31
                            x       y       z     vdW  Elec       q    Type
                         _______ _______ _______ _____ _____    ______ ____

>  <TORSDO>
F 6

$$$$
=
 OpenBabel11062420033D

 42 46  0  0  1  0  0  0  0  0999 V2000
  189.5840  172.9360  139.0660 C   0  0  1  0  0  3  0  0  0  0  0  0
  188.2650  174.0290  142.4100 C   0  0  0  0  0  3  0  0  0  0  0  0
  196.7830  174.6860  139.5940 C   0  0  0  0  0  0  0  0  0  0  0  0
  192.9560  174.9280  137.5120 O   0  0  0  0  0  0  0  0  0  0  0  0
  194.9670  175.5260  141.0460 C   0  0  1  0  0  3  0  0  0  0  0  0
  190.5230  171.8190  138.9490 N   0  0  0  0  0  2  0  0  0  0  0  0
  192.1110  173.6950  140.5820 N   0  0  0  0  0  0  0  0  0  0  0  0
  195.5150  173.1700  138.6620 C   0  0  0  0  0  3  0  0  0  0  0  0
  197.9410  175.3380  140.1030 N   0  0  0  0  0  1  0  0  0  0  0  0
  189.5960  173.4830  140.4520 C   0  0  0  0  0  0  0  0  0  0  0  0
  190.6730  174.1490  142.5180 C   0  0  0  0  0  3  0  0  0  0  0  0
  191.8670  172.2340  138.5490 C   0  0  0  0  0  2  0  0  0  0  0  0
  189.4310  174.2880  143.1370 C   0  0  0  0  0  0  0  0  0  0  0  0
  189.7960  173.9320  138.1050 O   0  0  0  0  0  1  0  0  0  0  0  0
  194.6930  174.1770  138.9150 C   0  0  0  0  0  0  0  0  0  0  0  0
  196.8280  173.4950  139.0970 N   0  0  0  0  0  0  0  0  0  0  0  0
  193.2030  173.8890  141.3790 O   0  0  0  0  0  0  0  0  0  0  0  0
  193.4740  175.2730  141.3690 C   0  0  1  0  0  3  0  0  0  0  0  0
  195.4190  175.2930  139.5850 C   0  0  2  0  0  3  0  0  0  0  0  0
  188.3530  173.6240  141.0800 C   0  0  0  0  0  3  0  0  0  0  0  0
  192.3060  173.4670  139.2020 N   0  0  0  0  0  0  0  0  0  0  0  0
  193.2930  174.2200  138.4970 C   0  0  0  0  0  0  0  0  0  0  0  0
  190.7870  173.7620  141.1730 C   0  0  0  0  0  0  0  0  0  0  0  0
  196.1990  176.4710  142.7280 C   0  0  0  0  0  1  0  0  0  0  0  0
  195.4600  176.7440  141.5660 O   0  0  0  0  0  0  0  0  0  0  0  0
  189.3800  174.7110  144.5680 C   0  0  1  0  0  3  0  0  0  0  0  0
  189.8790  173.6070  145.4840 C   0  0  0  0  0  1  0  0  0  0  0  0
  189.6240  177.2430  144.5910 C   0  0  0  0  0  0  0  0  0  0  0  0
  190.2440  178.2220  145.0840 O   0  0  0  0  0  0  0  0  0  0  0  0
  190.1580  175.9270  144.7680 N   0  0  0  0  0  2  0  0  0  0  0  0
  187.2130  177.9350  141.7780 C   0  0  0  0  0  3  0  0  0  0  0  0
  187.0230  177.1730  145.8920 O   0  0  0  0  0  1  0  0  0  0  0  0
  187.1090  177.4590  144.5340 C   0  0  0  0  0  0  0  0  0  0  0  0
  185.9780  177.9430  142.4370 C   0  0  0  0  0  0  0  0  0  0  0  0
  188.3910  177.7020  142.4900 C   0  0  0  0  0  3  0  0  0  0  0  0
  188.3550  177.4810  143.8730 C   0  0  0  0  0  0  0  0  0  0  0  0
  185.9340  177.6980  143.8160 C   0  0  0  0  0  3  0  0  0  0  0  0
  184.7760  178.3810  140.4380 O   0  0  0  0  0  0  0  0  0  0  0  0
  184.7390  178.1960  141.6840 C   0  0  0  0  0  0  0  0  0  0  0  0
  183.5150  178.2300  142.3400 O   0  0  0  0  0  1  0  0  0  0  0  0
  192.3970  176.9950  142.4270 O   0  0  0  0  0  1  0  0  0  0  0  0
  193.1100  175.8640  142.6580 N   0  0  0  0  0  2  0  0  0  0  0  0
  1 14  1  6  0  0  0
  1 10  1  0  0  0  0
  2 13  1  0  0  0  0
  3  9  1  0  0  0  0
  4 22  2  0  0  0  0
  5 18  1  0  0  0  0
  5 25  1  6  0  0  0
  6  1  1  0  0  0  0
  7 23  1  0  0  0  0
  7 17  1  0  0  0  0
  8 15  2  0  0  0  0
  8 16  1  0  0  0  0
 10 20  1  0  0  0  0
 10 23  2  0  0  0  0
 11 13  2  0  0  0  0
 12  6  1  0  0  0  0
 12 21  1  0  0  0  0
 13 26  1  0  0  0  0
 16  3  2  0  0  0  0
 18 17  1  0  0  0  0
 18 42  1  1  0  0  0
 19 15  1  1  0  0  0
 19  3  1  0  0  0  0
 19  5  1  0  0  0  0
 20  2  2  0  0  0  0
 21  7  1  0  0  0  0
 22 15  1  0  0  0  0
 22 21  1  0  0  0  0
 23 11  1  0  0  0  0
 25 24  1  0  0  0  0
 26 30  1  0  0  0  0
 26 27  1  1  0  0  0
 28 30  1  0  0  0  0
 28 29  2  0  0  0  0
 31 34  2  0  0  0  0
 31 35  1  0  0  0  0
 33 32  1  0  0  0  0
 34 37  1  0  0  0  0
 35 36  2  0  0  0  0
 36 33  1  0  0  0  0
 36 28  1  0  0  0  0
 37 33  2  0  0  0  0
 38 39  2  0  0  0  0
 39 40  1  0  0  0  0
 39 34  1  0  0  0  0
 41 42  1  0  0  0  0
M  END
>  <MODEL>
3

>  <REMARK>
 VINA RESULT:      -7.6      2.229      4.465
  Name = 
  6 active torsions:
  status: ('A' for Active; 'I' for Inactive)
    1  A    between atoms: C_4  and  C_37
    2  A    between atoms: C_6  and  O_24
    3  A    between atoms: C_18  and  C_25
    4  A    between atoms: C_20  and  C_36
    5  A    between atoms: C_25  and  N_27
    6  A    between atoms: N_30  and  C_31
                            x       y       z     vdW  Elec       q    Type
                         _______ _______ _______ _____ _____    ______ ____

>  <TORSDO>
F 6

$$$$
=
 OpenBabel11062420033D

 42 46  0  0  1  0  0  0  0  0999 V2000
  189.5380  173.0210  138.5660 C   0  0  1  0  0  3  0  0  0  0  0  0
  188.2980  173.5860  142.0670 C   0  0  0  0  0  3  0  0  0  0  0  0
  196.7480  174.6950  139.1870 C   0  0  0  0  0  0  0  0  0  0  0  0
  192.8730  175.2380  137.2560 O   0  0  0  0  0  0  0  0  0  0  0  0
  194.9660  175.2970  140.7930 C   0  0  1  0  0  3  0  0  0  0  0  0
  190.4740  171.9380  138.2580 N   0  0  0  0  0  2  0  0  0  0  0  0
  192.1000  173.5480  140.1210 N   0  0  0  0  0  0  0  0  0  0  0  0
  195.4580  173.3350  138.0650 C   0  0  0  0  0  3  0  0  0  0  0  0
  197.9180  175.2650  139.7630 N   0  0  0  0  0  1  0  0  0  0  0  0
  189.5830  173.3500  140.0190 C   0  0  0  0  0  0  0  0  0  0  0  0
  190.7070  173.6960  142.1360 C   0  0  0  0  0  3  0  0  0  0  0  0
  191.8080  172.4140  137.8950 C   0  0  0  0  0  2  0  0  0  0  0  0
  189.4800  173.7350  142.7980 C   0  0  0  0  0  0  0  0  0  0  0  0
  189.7270  174.1520  137.7640 O   0  0  0  0  0  1  0  0  0  0  0  0
  194.6430  174.2880  138.4880 C   0  0  0  0  0  0  0  0  0  0  0  0
  196.7810  173.5940  138.5130 N   0  0  0  0  0  0  0  0  0  0  0  0
  193.2100  173.6230  140.9120 O   0  0  0  0  0  0  0  0  0  0  0  0
  193.4810  174.9920  141.1080 C   0  0  1  0  0  3  0  0  0  0  0  0
  195.3840  175.2920  139.3040 C   0  0  2  0  0  3  0  0  0  0  0  0
  188.3550  173.3890  140.6890 C   0  0  0  0  0  3  0  0  0  0  0  0
  192.2630  173.5340  138.7180 N   0  0  0  0  0  0  0  0  0  0  0  0
  193.2330  174.3900  138.1140 C   0  0  0  0  0  0  0  0  0  0  0  0
  190.7910  173.5200  140.7460 C   0  0  0  0  0  0  0  0  0  0  0  0
  196.1950  175.9800  142.5990 C   0  0  0  0  0  1  0  0  0  0  0  0
  195.4710  176.4240  141.4810 O   0  0  0  0  0  0  0  0  0  0  0  0
  189.4640  173.9340  144.2780 C   0  0  1  0  0  3  0  0  0  0  0  0
  189.6920  172.6230  145.0100 C   0  0  0  0  0  1  0  0  0  0  0  0
  190.1450  176.1560  145.3130 C   0  0  0  0  0  0  0  0  0  0  0  0
  191.0610  176.7900  145.9010 O   0  0  0  0  0  0  0  0  0  0  0  0
  190.4650  174.9170  144.6710 N   0  0  0  0  0  2  0  0  0  0  0  0
  186.6640  176.9650  146.5070 C   0  0  0  0  0  3  0  0  0  0  0  0
  189.0380  177.7530  143.1490 O   0  0  0  0  0  1  0  0  0  0  0  0
  188.2540  177.4510  144.2570 C   0  0  0  0  0  0  0  0  0  0  0  0
  186.1390  177.6900  145.4320 C   0  0  0  0  0  0  0  0  0  0  0  0
  187.9700  176.4740  146.4570 C   0  0  0  0  0  3  0  0  0  0  0  0
  188.7700  176.6950  145.3290 C   0  0  0  0  0  0  0  0  0  0  0  0
  186.9430  177.9350  144.3120 C   0  0  0  0  0  3  0  0  0  0  0  0
  184.0670  178.0580  146.5300 O   0  0  0  0  0  1  0  0  0  0  0  0
  184.7590  178.1990  145.4870 C   0  0  0  0  0  0  0  0  0  0  0  0
  184.2060  178.8440  144.3860 O   0  0  0  0  0  0  0  0  0  0  0  0
  192.4720  176.5550  142.4440 O   0  0  0  0  0  1  0  0  0  0  0  0
  193.1470  175.3790  142.4800 N   0  0  0  0  0  2  0  0  0  0  0  0
  1 14  1  6  0  0  0
  1 10  1  0  0  0  0
  2 13  1  0  0  0  0
  3 19  1  0  0  0  0
  3  9  1  0  0  0  0
  4 22  2  0  0  0  0
  5 18  1  0  0  0  0
  5 25  1  6  0  0  0
  6  1  1  0  0  0  0
  7 23  1  0  0  0  0
  7 17  1  0  0  0  0
  8 15  2  0  0  0  0
  8 16  1  0  0  0  0
 10 20  1  0  0  0  0
 10 23  2  0  0  0  0
 11 13  2  0  0  0  0
 12  6  1  0  0  0  0
 12 21  1  0  0  0  0
 13 26  1  0  0  0  0
 16  3  2  0  0  0  0
 17 18  1  0  0  0  0
 18 42  1  1  0  0  0
 19 15  1  6  0  0  0
 19  5  1  0  0  0  0
 20  2  2  0  0  0  0
 21  7  1  0  0  0  0
 22 15  1  0  0  0  0
 22 21  1  0  0  0  0
 23 11  1  0  0  0  0
 25 24  1  0  0  0  0
 26 30  1  0  0  0  0
 26 27  1  1  0  0  0
 28 36  1  0  0  0  0
 28 29  2  0  0  0  0
 30 28  1  0  0  0  0
 32 33  1  0  0  0  0
 33 37  2  0  0  0  0
 33 36  1  0  0  0  0
 34 39  1  0  0  0  0
 34 31  2  0  0  0  0
 35 31  1  0  0  0  0
 36 35  2  0  0  0  0
 37 34  1  0  0  0  0
 39 38  1  0  0  0  0
 40 39  2  0  0  0  0
 41 42  1  0  0  0  0
M  END
>  <MODEL>
4

>  <REMARK>
 VINA RESULT:      -7.5      2.358      4.954
  Name = 
  6 active torsions:
  status: ('A' for Active; 'I' for Inactive)
    1  A    between atoms: C_4  and  C_37
    2  A    between atoms: C_6  and  O_24
    3  A    between atoms: C_18  and  C_25
    4  A    between atoms: C_20  and  C_36
    5  A    between atoms: C_25  and  N_27
    6  A    between atoms: N_30  and  C_31
                            x       y       z     vdW  Elec       q    Type
                         _______ _______ _______ _____ _____    ______ ____

>  <TORSDO>
F 6

$$$$
=
 OpenBabel11062420033D

 42 46  0  0  1  0  0  0  0  0999 V2000
  191.4870  174.5460  145.7660 C   0  0  1  0  0  3  0  0  0  0  0  0
  192.3260  173.7020  142.2030 C   0  0  0  0  0  3  0  0  0  0  0  0
  185.0760  178.2220  145.0170 C   0  0  0  0  0  0  0  0  0  0  0  0
  189.1720  177.9900  146.5000 O   0  0  0  0  0  0  0  0  0  0  0  0
  186.7080  177.7540  143.2190 C   0  0  1  0  0  3  0  0  0  0  0  0
  190.3270  173.9510  146.4330 N   0  0  0  0  0  2  0  0  0  0  0  0
  188.9990  175.4270  144.2500 N   0  0  0  0  0  0  0  0  0  0  0  0
  186.0540  176.8790  146.4350 C   0  0  0  0  0  3  0  0  0  0  0  0
  184.0560  178.9600  144.3520 N   0  0  0  0  0  1  0  0  0  0  0  0
  191.3340  174.4620  144.2860 C   0  0  0  0  0  0  0  0  0  0  0  0
  190.0720  174.5610  142.2200 C   0  0  0  0  0  3  0  0  0  0  0  0
  189.2580  174.9120  146.6990 C   0  0  0  0  0  2  0  0  0  0  0  0
  191.1490  174.0200  141.5190 C   0  0  0  0  0  0  0  0  0  0  0  0
  191.7540  175.8510  146.1940 O   0  0  0  0  0  1  0  0  0  0  0  0
  187.0450  177.3640  145.7040 C   0  0  0  0  0  0  0  0  0  0  0  0
  184.8160  177.4180  145.9940 N   0  0  0  0  0  0  0  0  0  0  0  0
  187.8590  175.6370  143.5290 O   0  0  0  0  0  0  0  0  0  0  0  0
  187.9780  176.9120  142.9400 C   0  0  1  0  0  3  0  0  0  0  0  0
  186.5230  178.2900  144.6580 C   0  0  2  0  0  3  0  0  0  0  0  0
  192.4110  173.9180  143.5760 C   0  0  0  0  0  3  0  0  0  0  0  0
  189.0400  175.8500  145.5970 N   0  0  0  0  0  0  0  0  0  0  0  0
  188.4600  177.1030  145.9600 C   0  0  0  0  0  0  0  0  0  0  0  0
  190.1390  174.8080  143.6010 C   0  0  0  0  0  0  0  0  0  0  0  0
  185.4020  178.3300  141.4300 C   0  0  0  0  0  1  0  0  0  0  0  0
  186.4640  178.7500  142.2470 O   0  0  0  0  0  0  0  0  0  0  0  0
  191.0120  173.7910  140.0500 C   0  0  1  0  0  3  0  0  0  0  0  0
  192.3690  173.7910  139.3670 C   0  0  0  0  0  1  0  0  0  0  0  0
  189.5330  172.2980  138.6160 C   0  0  0  0  0  0  0  0  0  0  0  0
  189.2350  171.1110  138.3160 O   0  0  0  0  0  0  0  0  0  0  0  0
  190.3140  172.5380  139.7920 N   0  0  0  0  0  2  0  0  0  0  0  0
  187.5350  175.2100  137.3010 C   0  0  0  0  0  3  0  0  0  0  0  0
  190.9180  173.0200  136.1630 O   0  0  0  0  0  1  0  0  0  0  0  0
  189.7730  173.7120  136.5400 C   0  0  0  0  0  0  0  0  0  0  0  0
  188.1920  175.5060  136.1010 C   0  0  0  0  0  0  0  0  0  0  0  0
  187.9840  174.1660  138.1120 C   0  0  0  0  0  3  0  0  0  0  0  0
  189.0920  173.3970  137.7340 C   0  0  0  0  0  0  0  0  0  0  0  0
  189.3150  174.7560  135.7300 C   0  0  0  0  0  3  0  0  0  0  0  0
  188.4860  177.5410  134.9150 O   0  0  0  0  0  1  0  0  0  0  0  0
  187.7110  176.6040  135.2460 C   0  0  0  0  0  0  0  0  0  0  0  0
  186.3970  176.6160  134.7950 O   0  0  0  0  0  0  0  0  0  0  0  0
  187.4410  175.7670  141.0310 O   0  0  0  0  0  1  0  0  0  0  0  0
  188.2110  176.7800  141.5010 N   0  0  0  0  0  2  0  0  0  0  0  0
  1 14  1  6  0  0  0
  1  6  1  0  0  0  0
  2 20  1  0  0  0  0
  3 16  2  0  0  0  0
  5 25  1  6  0  0  0
  5 19  1  0  0  0  0
  6 12  1  0  0  0  0
  7 21  1  0  0  0  0
  9  3  1  0  0  0  0
 10  1  1  0  0  0  0
 11 23  2  0  0  0  0
 13  2  2  0  0  0  0
 13 11  1  0  0  0  0
 15 22  1  0  0  0  0
 15  8  2  0  0  0  0
 16  8  1  0  0  0  0
 17  7  1  0  0  0  0
 18 42  1  6  0  0  0
 18  5  1  0  0  0  0
 18 17  1  0  0  0  0
 19  3  1  1  0  0  0
 19 15  1  0  0  0  0
 20 10  2  0  0  0  0
 21 22  1  0  0  0  0
 21 12  1  0  0  0  0
 22  4  2  0  0  0  0
 23  7  1  0  0  0  0
 23 10  1  0  0  0  0
 24 25  1  0  0  0  0
 26 27  1  6  0  0  0
 26 13  1  0  0  0  0
 28 30  1  0  0  0  0
 29 28  2  0  0  0  0
 30 26  1  0  0  0  0
 31 35  1  0  0  0  0
 32 33  1  0  0  0  0
 33 36  1  0  0  0  0
 34 31  2  0  0  0  0
 36 35  2  0  0  0  0
 36 28  1  0  0  0  0
 37 34  1  0  0  0  0
 37 33  2  0  0  0  0
 38 39  1  0  0  0  0
 39 34  1  0  0  0  0
 40 39  2  0  0  0  0
 41 42  1  0  0  0  0
M  END
>  <MODEL>
5

>  <REMARK>
 VINA RESULT:      -7.4      3.108      7.602
  Name = 
  6 active torsions:
  status: ('A' for Active; 'I' for Inactive)
    1  A    between atoms: C_4  and  C_37
    2  A    between atoms: C_6  and  O_24
    3  A    between atoms: C_18  and  C_25
    4  A    between atoms: C_20  and  C_36
    5  A    between atoms: C_25  and  N_27
    6  A    between atoms: N_30  and  C_31
                            x       y       z     vdW  Elec       q    Type
                         _______ _______ _______ _____ _____    ______ ____

>  <TORSDO>
F 6

$$$$
=
 OpenBabel11062420033D

 42 46  0  0  1  0  0  0  0  0999 V2000
  196.6960  175.8220  144.0550 C   0  0  1  0  0  3  0  0  0  0  0  0
  193.2610  176.7230  145.2800 C   0  0  0  0  0  3  0  0  0  0  0  0
  195.2530  173.0010  137.3360 C   0  0  0  0  0  0  0  0  0  0  0  0
  197.0560  172.6570  141.2950 O   0  0  0  0  0  0  0  0  0  0  0  0
  193.6150  173.3490  139.1560 C   0  0  1  0  0  3  0  0  0  0  0  0
  197.3060  176.5220  142.9230 N   0  0  0  0  0  2  0  0  0  0  0  0
  194.9480  175.3260  141.6130 N   0  0  0  0  0  0  0  0  0  0  0  0
  196.8160  174.1450  138.3470 C   0  0  0  0  0  3  0  0  0  0  0  0
  194.4720  172.4270  136.2940 N   0  0  0  0  0  1  0  0  0  0  0  0
  195.2160  175.9930  144.0360 C   0  0  0  0  0  0  0  0  0  0  0  0
  193.0580  176.1470  142.9450 C   0  0  0  0  0  3  0  0  0  0  0  0
  197.4340  175.6890  141.7290 C   0  0  0  0  0  2  0  0  0  0  0  0
  192.4730  176.5850  144.1330 C   0  0  0  0  0  0  0  0  0  0  0  0
  197.0690  174.4750  144.1290 O   0  0  0  0  0  1  0  0  0  0  0  0
  196.1360  173.5770  139.3300 C   0  0  0  0  0  0  0  0  0  0  0  0
  196.2520  173.7830  137.0950 N   0  0  0  0  0  0  0  0  0  0  0  0
  194.1310  175.2910  140.5200 O   0  0  0  0  0  0  0  0  0  0  0  0
  193.4810  174.0410  140.5350 C   0  0  1  0  0  3  0  0  0  0  0  0
  195.0030  172.7720  138.7900 C   0  0  2  0  0  3  0  0  0  0  0  0
  194.6230  176.4330  145.2250 C   0  0  0  0  0  3  0  0  0  0  0  0
  196.2680  174.8380  141.4930 N   0  0  0  0  0  0  0  0  0  0  0  0
  196.5140  173.6490  140.7410 C   0  0  0  0  0  0  0  0  0  0  0  0
  194.4240  175.8300  142.8690 C   0  0  0  0  0  0  0  0  0  0  0  0
  192.9530  171.1650  139.3330 C   0  0  0  0  0  1  0  0  0  0  0  0
  192.5720  172.4370  138.8760 O   0  0  0  0  0  0  0  0  0  0  0  0
  191.0130  176.8980  144.1470 C   0  0  1  0  0  3  0  0  0  0  0  0
  190.7290  178.2210  143.4590 C   0  0  0  0  0  1  0  0  0  0  0  0
  188.8290  175.7200  143.5830 C   0  0  0  0  0  0  0  0  0  0  0  0
  188.2360  174.9700  142.7630 O   0  0  0  0  0  0  0  0  0  0  0  0
  190.2560  175.8240  143.5160 N   0  0  0  0  0  2  0  0  0  0  0  0
  186.4390  178.2650  145.0010 C   0  0  0  0  0  3  0  0  0  0  0  0
  188.8260  175.1370  146.4320 O   0  0  0  0  0  1  0  0  0  0  0  0
  188.0670  176.1930  145.9420 C   0  0  0  0  0  0  0  0  0  0  0  0
  186.4920  177.9950  146.3730 C   0  0  0  0  0  0  0  0  0  0  0  0
  187.2020  177.5150  144.1040 C   0  0  0  0  0  3  0  0  0  0  0  0
  188.0350  176.4870  144.5630 C   0  0  0  0  0  0  0  0  0  0  0  0
  187.3050  176.9520  146.8350 C   0  0  0  0  0  3  0  0  0  0  0  0
  184.4730  178.5290  147.5000 O   0  0  0  0  0  0  0  0  0  0  0  0
  185.6920  178.7920  147.3160 C   0  0  0  0  0  0  0  0  0  0  0  0
  186.2730  179.8440  148.0130 O   0  0  0  0  0  1  0  0  0  0  0  0
  191.7530  173.2720  141.8260 O   0  0  0  0  0  1  0  0  0  0  0  0
  192.0740  174.2100  140.9010 N   0  0  0  0  0  2  0  0  0  0  0  0
  1 14  1  6  0  0  0
  5 25  1  1  0  0  0
  5 18  1  0  0  0  0
  6  1  1  0  0  0  0
  7 23  1  0  0  0  0
  8 15  2  0  0  0  0
  9  3  1  0  0  0  0
 10  1  1  0  0  0  0
 10 20  2  0  0  0  0
 11 13  1  0  0  0  0
 12  6  1  0  0  0  0
 13 26  1  0  0  0  0
 13  2  2  0  0  0  0
 15 22  1  0  0  0  0
 16  3  2  0  0  0  0
 16  8  1  0  0  0  0
 17 18  1  0  0  0  0
 17  7  1  0  0  0  0
 18 42  1  6  0  0  0
 19  3  1  6  0  0  0
 19  5  1  0  0  0  0
 19 15  1  0  0  0  0
 20  2  1  0  0  0  0
 21  7  1  0  0  0  0
 21 12  1  0  0  0  0
 22  4  2  0  0  0  0
 22 21  1  0  0  0  0
 23 11  2  0  0  0  0
 23 10  1  0  0  0  0
 25 24  1  0  0  0  0
 26 27  1  6  0  0  0
 28 36  1  0  0  0  0
 29 28  2  0  0  0  0
 30 28  1  0  0  0  0
 30 26  1  0  0  0  0
 31 34  1  0  0  0  0
 33 32  1  0  0  0  0
 33 37  1  0  0  0  0
 34 37  2  0  0  0  0
 34 39  1  0  0  0  0
 35 36  1  0  0  0  0
 35 31  2  0  0  0  0
 36 33  2  0  0  0  0
 39 38  2  0  0  0  0
 39 40  1  0  0  0  0
 42 41  1  0  0  0  0
M  END
>  <MODEL>
6

>  <REMARK>
 VINA RESULT:      -7.3      2.133      3.413
  Name = 
  6 active torsions:
  status: ('A' for Active; 'I' for Inactive)
    1  A    between atoms: C_4  and  C_37
    2  A    between atoms: C_6  and  O_24
    3  A    between atoms: C_18  and  C_25
    4  A    between atoms: C_20  and  C_36
    5  A    between atoms: C_25  and  N_27
    6  A    between atoms: N_30  and  C_31
                            x       y       z     vdW  Elec       q    Type
                         _______ _______ _______ _____ _____    ______ ____

>  <TORSDO>
F 6

$$$$
=
 OpenBabel11062420033D

 42 46  0  0  1  0  0  0  0  0999 V2000
  192.6250  175.2500  146.4890 C   0  0  1  0  0  3  0  0  0  0  0  0
  193.6270  172.8040  143.8190 C   0  0  0  0  0  3  0  0  0  0  0  0
  185.8700  177.3410  144.2140 C   0  0  0  0  0  0  0  0  0  0  0  0
  189.9350  178.3250  145.4580 O   0  0  0  0  0  0  0  0  0  0  0  0
  187.5820  176.1970  142.8440 C   0  0  1  0  0  3  0  0  0  0  0  0
  191.5230  174.9600  147.4070 N   0  0  0  0  0  2  0  0  0  0  0  0
  190.0890  174.9720  144.8280 N   0  0  0  0  0  0  0  0  0  0  0  0
  186.9580  177.0170  146.0800 C   0  0  0  0  0  3  0  0  0  0  0  0
  184.7900  177.5270  143.3050 N   0  0  0  0  0  1  0  0  0  0  0  0
  192.5140  174.4090  145.2620 C   0  0  0  0  0  0  0  0  0  0  0  0
  191.2930  173.3120  143.4810 C   0  0  0  0  0  3  0  0  0  0  0  0
  190.3500  175.8040  147.1880 C   0  0  0  0  0  2  0  0  0  0  0  0
  192.4370  172.6050  143.1130 C   0  0  0  0  0  0  0  0  0  0  0  0
  192.7400  176.6110  146.1850 O   0  0  0  0  0  1  0  0  0  0  0  0
  187.9060  177.1630  145.1680 C   0  0  0  0  0  0  0  0  0  0  0  0
  185.6790  177.1240  145.4730 N   0  0  0  0  0  0  0  0  0  0  0  0
  188.9490  174.6660  144.1430 O   0  0  0  0  0  0  0  0  0  0  0  0
  188.9410  175.4680  142.9840 C   0  0  1  0  0  3  0  0  0  0  0  0
  187.3090  177.3690  143.8170 C   0  0  2  0  0  3  0  0  0  0  0  0
  193.6590  173.6960  144.8880 C   0  0  0  0  0  3  0  0  0  0  0  0
  190.0550  176.0230  145.7720 N   0  0  0  0  0  0  0  0  0  0  0  0
  189.3350  177.2180  145.4690 C   0  0  0  0  0  0  0  0  0  0  0  0
  191.3030  174.2310  144.5420 C   0  0  0  0  0  0  0  0  0  0  0  0
  187.7520  177.8110  141.2300 C   0  0  0  0  0  1  0  0  0  0  0  0
  187.2520  176.5290  141.5100 O   0  0  0  0  0  0  0  0  0  0  0  0
  192.3580  171.6470  141.9690 C   0  0  1  0  0  3  0  0  0  0  0  0
  191.7600  170.3210  142.4040 C   0  0  0  0  0  1  0  0  0  0  0  0
  192.1500  173.0440  139.8530 C   0  0  0  0  0  0  0  0  0  0  0  0
  191.4980  173.2300  138.7910 O   0  0  0  0  0  0  0  0  0  0  0  0
  191.5820  172.2210  140.8770 N   0  0  0  0  0  2  0  0  0  0  0  0
  194.8400  175.5280  140.7470 C   0  0  0  0  0  3  0  0  0  0  0  0
  194.6030  171.7170  139.0280 O   0  0  0  0  0  1  0  0  0  0  0  0
  194.6580  172.9960  139.5690 C   0  0  0  0  0  0  0  0  0  0  0  0
  196.0000  174.8880  140.2980 C   0  0  0  0  0  0  0  0  0  0  0  0
  193.5940  174.9160  140.5990 C   0  0  0  0  0  3  0  0  0  0  0  0
  193.4870  173.6560  139.9950 C   0  0  0  0  0  0  0  0  0  0  0  0
  195.9010  173.6180  139.7150 C   0  0  0  0  0  3  0  0  0  0  0  0
  197.9210  175.9890  139.4420 O   0  0  0  0  0  0  0  0  0  0  0  0
  197.3110  175.5400  140.4490 C   0  0  0  0  0  0  0  0  0  0  0  0
  197.8890  175.6680  141.7070 O   0  0  0  0  0  1  0  0  0  0  0  0
  188.3820  173.5800  141.8160 O   0  0  0  0  0  1  0  0  0  0  0  0
  189.2180  174.6480  141.8040 N   0  0  0  0  0  2  0  0  0  0  0  0
  1 14  1  6  0  0  0
  1  6  1  0  0  0  0
  2 20  1  0  0  0  0
  3 16  2  0  0  0  0
  4 22  2  0  0  0  0
  5 25  1  6  0  0  0
  5 18  1  0  0  0  0
  5 19  1  0  0  0  0
  7 21  1  0  0  0  0
  9  3  1  0  0  0  0
 10  1  1  0  0  0  0
 11 23  2  0  0  0  0
 12  6  1  0  0  0  0
 13 11  1  0  0  0  0
 13  2  2  0  0  0  0
 15 22  1  0  0  0  0
 15  8  2  0  0  0  0
 16  8  1  0  0  0  0
 17  7  1  0  0  0  0
 18 42  1  6  0  0  0
 18 17  1  0  0  0  0
 19  3  1  1  0  0  0
 19 15  1  0  0  0  0
 20 10  2  0  0  0  0
 21 12  1  0  0  0  0
 22 21  1  0  0  0  0
 23  7  1  0  0  0  0
 23 10  1  0  0  0  0
 24 25  1  0  0  0  0
 26 27  1  1  0  0  0
 26 13  1  0  0  0  0
 28 36  1  0  0  0  0
 28 30  1  0  0  0  0
 29 28  2  0  0  0  0
 30 26  1  0  0  0  0
 32 33  1  0  0  0  0
 33 37  2  0  0  0  0
 33 36  1  0  0  0  0
 34 39  1  0  0  0  0
 34 31  2  0  0  0  0
 35 31  1  0  0  0  0
 36 35  2  0  0  0  0
 37 34  1  0  0  0  0
 38 39  2  0  0  0  0
 39 40  1  0  0  0  0
 42 41  1  0  0  0  0
M  END
>  <MODEL>
7

>  <REMARK>
 VINA RESULT:      -7.1      2.363      7.641
  Name = 
  6 active torsions:
  status: ('A' for Active; 'I' for Inactive)
    1  A    between atoms: C_4  and  C_37
    2  A    between atoms: C_6  and  O_24
    3  A    between atoms: C_18  and  C_25
    4  A    between atoms: C_20  and  C_36
    5  A    between atoms: C_25  and  N_27
    6  A    between atoms: N_30  and  C_31
                            x       y       z     vdW  Elec       q    Type
                         _______ _______ _______ _____ _____    ______ ____

>  <TORSDO>
F 6

$$$$
=
 OpenBabel11062420033D

 42 46  0  0  1  0  0  0  0  0999 V2000
  193.2560  175.3400  144.9000 C   0  0  1  0  0  3  0  0  0  0  0  0
  193.2850  172.4990  142.4420 C   0  0  0  0  0  3  0  0  0  0  0  0
  186.2370  177.7240  144.4270 C   0  0  0  0  0  0  0  0  0  0  0  0
  190.5290  178.4900  144.2650 O   0  0  0  0  0  0  0  0  0  0  0  0
  187.3970  176.2690  142.7980 C   0  0  1  0  0  3  0  0  0  0  0  0
  192.4720  175.2670  146.1340 N   0  0  0  0  0  2  0  0  0  0  0  0
  190.3260  175.0840  144.1160 N   0  0  0  0  0  0  0  0  0  0  0  0
  187.8220  177.5410  145.9180 C   0  0  0  0  0  3  0  0  0  0  0  0
  184.9430  177.8900  143.8580 N   0  0  0  0  0  1  0  0  0  0  0  0
  192.7390  174.3660  143.8980 C   0  0  0  0  0  0  0  0  0  0  0  0
  190.9850  173.1670  142.7340 C   0  0  0  0  0  3  0  0  0  0  0  0
  191.3290  176.1790  146.1470 C   0  0  0  0  0  2  0  0  0  0  0  0
  191.9290  172.3200  142.1540 C   0  0  0  0  0  0  0  0  0  0  0  0
  193.3380  176.6370  144.3800 O   0  0  0  0  0  1  0  0  0  0  0  0
  188.4550  177.4860  144.7570 C   0  0  0  0  0  0  0  0  0  0  0  0
  186.4260  177.6850  145.7040 N   0  0  0  0  0  0  0  0  0  0  0  0
  189.0190  174.7970  143.8480 O   0  0  0  0  0  0  0  0  0  0  0  0
  188.6980  175.4450  142.6380 C   0  0  1  0  0  3  0  0  0  0  0  0
  187.4880  177.5730  143.6260 C   0  0  2  0  0  3  0  0  0  0  0  0
  193.6810  173.5120  143.3130 C   0  0  0  0  0  3  0  0  0  0  0  0
  190.6300  176.2430  144.8630 N   0  0  0  0  0  0  0  0  0  0  0  0
  189.9090  177.4510  144.6140 C   0  0  0  0  0  0  0  0  0  0  0  0
  191.3600  174.2080  143.5980 C   0  0  0  0  0  0  0  0  0  0  0  0
  187.2040  177.6000  140.9460 C   0  0  0  0  0  1  0  0  0  0  0  0
  186.6940  176.4590  141.5860 O   0  0  0  0  0  0  0  0  0  0  0  0
  191.4620  171.2370  141.2370 C   0  0  1  0  0  3  0  0  0  0  0  0
  190.8160  170.1020  142.0120 C   0  0  0  0  0  1  0  0  0  0  0  0
  190.9490  172.4080  139.0370 C   0  0  0  0  0  0  0  0  0  0  0  0
  190.1120  172.5490  138.1060 O   0  0  0  0  0  0  0  0  0  0  0  0
  190.5320  171.7720  140.2500 N   0  0  0  0  0  2  0  0  0  0  0  0
  193.9810  174.6460  139.0870 C   0  0  0  0  0  3  0  0  0  0  0  0
  193.0410  170.7450  137.8890 O   0  0  0  0  0  1  0  0  0  0  0  0
  193.3250  172.0540  138.2610 C   0  0  0  0  0  0  0  0  0  0  0  0
  194.9570  173.8410  138.4880 C   0  0  0  0  0  0  0  0  0  0  0  0
  192.6820  174.1660  139.2630 C   0  0  0  0  0  3  0  0  0  0  0  0
  192.3350  172.8770  138.8370 C   0  0  0  0  0  0  0  0  0  0  0  0
  194.6220  172.5430  138.0830 C   0  0  0  0  0  3  0  0  0  0  0  0
  197.2570  173.9790  139.0590 O   0  0  0  0  0  1  0  0  0  0  0  0
  196.3240  174.3530  138.2990 C   0  0  0  0  0  0  0  0  0  0  0  0
  196.5990  175.2550  137.2770 O   0  0  0  0  0  0  0  0  0  0  0  0
  187.7870  173.4420  142.0040 O   0  0  0  0  0  1  0  0  0  0  0  0
  188.5660  174.4620  141.5620 N   0  0  0  0  0  2  0  0  0  0  0  0
  1 14  1  6  0  0  0
  1  6  1  0  0  0  0
  2 20  1  0  0  0  0
  3 16  2  0  0  0  0
  4 22  2  0  0  0  0
  5 25  1  6  0  0  0
  5 19  1  0  0  0  0
  6 12  1  0  0  0  0
  7 21  1  0  0  0  0
  9  3  1  0  0  0  0
 10  1  1  0  0  0  0
 11 23  2  0  0  0  0
 13  2  2  0  0  0  0
 13 11  1  0  0  0  0
 15  8  2  0  0  0  0
 16  8  1  0  0  0  0
 17  7  1  0  0  0  0
 18 42  1  6  0  0  0
 18  5  1  0  0  0  0
 18 17  1  0  0  0  0
 19  3  1  1  0  0  0
 19 15  1  0  0  0  0
 20 10  2  0  0  0  0
 21 12  1  0  0  0  0
 22 15  1  0  0  0  0
 22 21  1  0  0  0  0
 23 10  1  0  0  0  0
 23  7  1  0  0  0  0
 24 25  1  0  0  0  0
 26 27  1  1  0  0  0
 26 13  1  0  0  0  0
 28 30  1  0  0  0  0
 29 28  2  0  0  0  0
 30 26  1  0  0  0  0
 31 35  1  0  0  0  0
 32 33  1  0  0  0  0
 33 36  1  0  0  0  0
 34 31  2  0  0  0  0
 36 28  1  0  0  0  0
 36 35  2  0  0  0  0
 37 33  2  0  0  0  0
 37 34  1  0  0  0  0
 39 34  1  0  0  0  0
 39 38  1  0  0  0  0
 40 39  2  0  0  0  0
 42 41  1  0  0  0  0
M  END
>  <MODEL>
8

>  <REMARK>
 VINA RESULT:      -7.0      2.353      7.598
  Name = 
  6 active torsions:
  status: ('A' for Active; 'I' for Inactive)
    1  A    between atoms: C_4  and  C_37
    2  A    between atoms: C_6  and  O_24
    3  A    between atoms: C_18  and  C_25
    4  A    between atoms: C_20  and  C_36
    5  A    between atoms: C_25  and  N_27
    6  A    between atoms: N_30  and  C_31
                            x       y       z     vdW  Elec       q    Type
                         _______ _______ _______ _____ _____    ______ ____

>  <TORSDO>
F 6

$$$$
=
 OpenBabel11062420033D

 42 46  0  0  1  0  0  0  0  0999 V2000
  192.0010  175.9420  146.6830 C   0  0  1  0  0  3  0  0  0  0  0  0
  188.3240  176.6840  146.8980 C   0  0  0  0  0  3  0  0  0  0  0  0
  192.7870  174.0750  139.5370 C   0  0  0  0  0  0  0  0  0  0  0  0
  193.3050  173.1840  143.7770 O   0  0  0  0  0  0  0  0  0  0  0  0
  190.6600  174.1790  140.7930 C   0  0  1  0  0  3  0  0  0  0  0  0
  192.9000  176.7880  145.8970 N   0  0  0  0  0  2  0  0  0  0  0  0
  191.1020  175.7930  143.7790 N   0  0  0  0  0  0  0  0  0  0  0  0
  193.9230  175.0620  141.1210 C   0  0  0  0  0  3  0  0  0  0  0  0
  192.3850  173.6520  138.2390 N   0  0  0  0  0  1  0  0  0  0  0  0
  190.5920  176.1220  146.2320 C   0  0  0  0  0  0  0  0  0  0  0  0
  188.8660  176.4340  144.5610 C   0  0  0  0  0  3  0  0  0  0  0  0
  193.4190  176.1250  144.7010 C   0  0  0  0  0  2  0  0  0  0  0  0
  187.9300  176.7080  145.5570 C   0  0  0  0  0  0  0  0  0  0  0  0
  192.3830  174.5950  146.6910 O   0  0  0  0  0  1  0  0  0  0  0  0
  192.9960  174.3680  141.7630 C   0  0  0  0  0  0  0  0  0  0  0  0
  193.7820  174.8780  139.7200 N   0  0  0  0  0  0  0  0  0  0  0  0
  190.6610  175.9130  142.4930 O   0  0  0  0  0  0  0  0  0  0  0  0
  190.0850  174.6750  142.1420 C   0  0  1  0  0  3  0  0  0  0  0  0
  192.1140  173.6500  140.8000 C   0  0  2  0  0  3  0  0  0  0  0  0
  189.6480  176.3980  147.2280 C   0  0  0  0  0  3  0  0  0  0  0  0
  192.4130  175.3200  144.0080 N   0  0  0  0  0  0  0  0  0  0  0  0
  192.9220  174.2450  143.2180 C   0  0  0  0  0  0  0  0  0  0  0  0
  190.2010  176.1240  144.8670 C   0  0  0  0  0  0  0  0  0  0  0  0
  190.0750  171.9920  140.4490 C   0  0  0  0  0  1  0  0  0  0  0  0
  189.7870  173.3180  140.0880 O   0  0  0  0  0  0  0  0  0  0  0  0
  186.5250  177.0230  145.1620 C   0  0  1  0  0  3  0  0  0  0  0  0
  185.5310  176.4170  146.1380 C   0  0  0  0  0  1  0  0  0  0  0  0
  186.0760  179.1500  143.8400 C   0  0  0  0  0  0  0  0  0  0  0  0
  185.6100  180.3200  143.8810 O   0  0  0  0  0  0  0  0  0  0  0  0
  186.3330  178.4650  145.0710 N   0  0  0  0  0  2  0  0  0  0  0  0
  185.4010  177.5370  140.5020 C   0  0  0  0  0  3  0  0  0  0  0  0
  188.7350  178.7220  142.7410 O   0  0  0  0  0  1  0  0  0  0  0  0
  187.6170  178.3040  142.0290 C   0  0  0  0  0  0  0  0  0  0  0  0
  186.6920  177.2990  140.0170 C   0  0  0  0  0  0  0  0  0  0  0  0
  185.2150  178.1430  141.7450 C   0  0  0  0  0  3  0  0  0  0  0  0
  186.3150  178.5150  142.5280 C   0  0  0  0  0  0  0  0  0  0  0  0
  187.7960  177.6920  140.7850 C   0  0  0  0  0  3  0  0  0  0  0  0
  186.6910  177.3000  137.6440 O   0  0  0  0  0  0  0  0  0  0  0  0
  186.8840  176.6540  138.7080 C   0  0  0  0  0  0  0  0  0  0  0  0
  187.2820  175.3240  138.6340 O   0  0  0  0  0  1  0  0  0  0  0  0
  188.0760  173.7790  142.7780 O   0  0  0  0  0  1  0  0  0  0  0  0
  188.6280  174.8000  142.0760 N   0  0  0  0  0  2  0  0  0  0  0  0
  1 14  1  6  0  0  0
  2 20  1  0  0  0  0
  3 16  2  0  0  0  0
  5 25  1  1  0  0  0
  5 19  1  0  0  0  0
  5 18  1  0  0  0  0
  6  1  1  0  0  0  0
  7 21  1  0  0  0  0
  7 23  1  0  0  0  0
  8 15  2  0  0  0  0
  9  3  1  0  0  0  0
 10  1  1  0  0  0  0
 10 20  2  0  0  0  0
 11 23  2  0  0  0  0
 11 13  1  0  0  0  0
 12  6  1  0  0  0  0
 13  2  2  0  0  0  0
 15 22  1  0  0  0  0
 16  8  1  0  0  0  0
 17  7  1  0  0  0  0
 18 42  1  6  0  0  0
 18 17  1  0  0  0  0
 19  3  1  6  0  0  0
 19 15  1  0  0  0  0
 21 12  1  0  0  0  0
 22  4  2  0  0  0  0
 22 21  1  0  0  0  0
 23 10  1  0  0  0  0
 25 24  1  0  0  0  0
 26 13  1  0  0  0  0
 26 27  1  1  0  0  0
 28 29  2  0  0  0  0
 28 30  1  0  0  0  0
 30 26  1  0  0  0  0
 31 35  1  0  0  0  0
 33 36  1  0  0  0  0
 33 32  1  0  0  0  0
 34 31  2  0  0  0  0
 34 37  1  0  0  0  0
 35 36  2  0  0  0  0
 36 28  1  0  0  0  0
 37 33  2  0  0  0  0
 38 39  2  0  0  0  0
 39 34  1  0  0  0  0
 40 39  1  0  0  0  0
 42 41  1  0  0  0  0
M  END
>  <MODEL>
9

>  <REMARK>
 VINA RESULT:      -7.0      1.945      2.884
  Name = 
  6 active torsions:
  status: ('A' for Active; 'I' for Inactive)
    1  A    between atoms: C_4  and  C_37
    2  A    between atoms: C_6  and  O_24
    3  A    between atoms: C_18  and  C_25
    4  A    between atoms: C_20  and  C_36
    5  A    between atoms: C_25  and  N_27
    6  A    between atoms: N_30  and  C_31
                            x       y       z     vdW  Elec       q    Type
                         _______ _______ _______ _____ _____    ______ ____

>  <TORSDO>
F 6

$$$$
