=
 OpenBabel11062419373D

 42 46  0  0  1  0  0  0  0  0999 V2000
  189.5280  176.7650  146.3510 C   0  0  2  0  0  3  0  0  0  0  0  0
  190.9650  177.2600  148.2470 O   0  0  0  0  0  1  0  0  0  0  0  0
  190.5820  176.2560  147.3530 C   0  0  2  0  0  3  0  0  0  0  0  0
  191.8070  175.5710  146.7370 C   0  0  0  0  0  2  0  0  0  0  0  0
  193.9670  176.0450  145.4020 C   0  0  1  0  0  3  0  0  0  0  0  0
  192.8850  176.5610  146.3140 C   0  0  2  0  0  3  0  0  0  0  0  0
  194.1270  176.1260  146.8040 O   0  0  0  0  0  0  0  0  0  0  0  0
  193.9590  174.5670  144.9000 C   0  0  1  0  0  0  0  0  0  0  0  0
  193.4750  173.7220  145.9070 O   0  0  0  0  0  1  0  0  0  0  0  0
  192.9450  175.6750  142.8020 C   0  0  0  0  0  1  0  0  0  0  0  0
  193.1520  173.3010  142.9920 O   0  0  0  0  0  1  0  0  0  0  0  0
  192.9530  174.4670  143.7350 C   0  0  1  0  0  3  0  0  0  0  0  0
  195.3350  174.0940  144.4340 C   0  0  0  0  0  0  0  0  0  0  0  0
  195.8020  174.5420  143.3940 O   0  0  0  0  0  0  0  0  0  0  0  0
  196.1700  171.6210  144.6250 C   0  0  1  0  0  3  0  0  0  0  0  0
  197.5880  173.2060  144.9590 C   0  0  2  0  0  3  0  0  0  0  0  0
  197.0110  173.3840  146.3410 C   0  0  0  0  0  2  0  0  0  0  0  0
  196.0860  173.0250  145.1920 C   0  0  1  0  0  0  0  0  0  0  0  0
  197.6760  171.7540  144.5200 C   0  0  0  0  0  2  0  0  0  0  0  0
  194.4110  170.5200  145.8040 O   0  0  0  0  0  1  0  0  0  0  0  0
  195.7970  170.5850  145.6760 C   0  0  0  0  0  2  0  0  0  0  0  0
  188.2230  175.9800  146.4740 C   0  0  0  0  0  2  0  0  0  0  0  0
  187.2450  178.1070  147.3610 C   0  0  0  0  0  3  0  0  0  0  0  0
  185.7750  176.5040  146.3030 C   0  0  0  0  0  3  0  0  0  0  0  0
  187.0590  176.8850  146.7110 C   0  0  0  0  0  0  0  0  0  0  0  0
  184.9040  178.5520  147.1730 N   0  0  0  0  0  0  0  0  0  0  0  0
  184.7000  177.3620  146.5420 C   0  0  0  0  0  3  0  0  0  0  0  0
  186.3120  180.1800  148.2550 N   0  0  0  0  0  1  0  0  0  0  0  0
  186.1420  178.9360  147.5870 C   0  0  0  0  0  0  0  0  0  0  0  0
  190.0270  176.7620  144.9040 C   0  0  0  0  0  2  0  0  0  0  0  0
  189.7730  177.9880  144.2720 O   0  0  0  0  0  0  0  0  0  0  0  0
  189.0450  177.7050  143.1740 O   0  0  0  0  0  0  0  0  0  0  0  0
  187.0250  179.0500  143.4250 C   0  0  0  0  0  3  0  0  0  0  0  0
  185.6340  179.1660  143.3610 C   0  0  0  0  0  3  0  0  0  0  0  0
  187.6500  177.8250  143.1420 C   0  0  0  0  0  0  0  0  0  0  0  0
  185.4700  176.8320  142.7400 C   0  0  0  0  0  3  0  0  0  0  0  0
  184.8570  178.0590  143.0150 C   0  0  0  0  0  3  0  0  0  0  0  0
  186.8630  176.7100  142.8100 C   0  0  0  0  0  0  0  0  0  0  0  0
  187.5010  175.3950  142.5010 C   0  0  0  0  0  2  0  0  0  0  0  0
  188.0050  175.3990  141.1370 N   0  0  0  0  0  2  0  0  0  0  0  0
  189.4200  173.9970  142.5200 C   0  0  0  0  0  1  0  0  0  0  0  0
  189.1950  174.5650  141.1350 C   0  0  0  0  0  2  0  0  0  0  0  0
  1 30  1  6  0  0  0
  1 22  1  0  0  0  0
  1  3  1  0  0  0  0
  3  2  1  6  0  0  0
  4  3  1  0  0  0  0
  5  8  1  1  0  0  0
  5  6  1  0  0  0  0
  5  7  1  0  0  0  0
  6  4  1  1  0  0  0
  6  7  1  0  0  0  0
  8  9  1  1  0  0  0
 11 12  1  0  0  0  0
 12 10  1  6  0  0  0
 12  8  1  0  0  0  0
 13  8  1  0  0  0  0
 14 13  2  0  0  0  0
 15 18  1  0  0  0  0
 15 21  1  1  0  0  0
 16 19  1  1  0  0  0
 16 18  1  0  0  0  0
 16 17  1  0  0  0  0
 18 13  1  6  0  0  0
 18 17  1  0  0  0  0
 19 15  1  0  0  0  0
 21 20  1  0  0  0  0
 22 25  1  0  0  0  0
 23 29  1  0  0  0  0
 24 27  2  0  0  0  0
 24 25  1  0  0  0  0
 25 23  2  0  0  0  0
 26 29  2  0  0  0  0
 27 26  1  0  0  0  0
 29 28  1  0  0  0  0
 31 30  1  0  0  0  0
 32 31  1  0  0  0  0
 34 33  1  0  0  0  0
 35 32  1  0  0  0  0
 35 33  2  0  0  0  0
 36 38  2  0  0  0  0
 36 37  1  0  0  0  0
 37 34  2  0  0  0  0
 38 35  1  0  0  0  0
 39 38  1  0  0  0  0
 40 39  1  0  0  0  0
 42 40  1  0  0  0  0
 42 41  1  0  0  0  0
M  END
>  <MODEL>
1

>  <REMARK>
 VINA RESULT:      -6.5      0.000      0.000
  Name = 
  17 active torsions:
  status: ('A' for Active; 'I' for Inactive)
    1  A    between atoms: C_1  and  C_4
    2  A    between atoms: C_1  and  C_24
    3  A    between atoms: C_1  and  C_32
    4  A    between atoms: N_3  and  C_33
    5  A    between atoms: N_3  and  C_36
    6  A    between atoms: C_4  and  C_17
    7  A    between atoms: C_5  and  C_20
    8  A    between atoms: C_5  and  C_31
    9  A    between atoms: C_8  and  C_19
   10  A    between atoms: O_15  and  O_30
   11  A    between atoms: O_15  and  C_37
   12  A    between atoms: C_21  and  O_30
   13  A    between atoms: C_28  and  C_40
   14  A    between atoms: C_31  and  C_34
   15  A    between atoms: C_31  and  C_37
   16  A    between atoms: C_34  and  C_40
   17  A    between atoms: C_35  and  C_36
                            x       y       z     vdW  Elec       q    Type
                         _______ _______ _______ _____ _____    ______ ____

>  <TORSDO>
F 17

$$$$
=
 OpenBabel11062419373D

 42 46  0  0  1  0  0  0  0  0999 V2000
  191.3050  172.1980  143.2660 C   0  0  2  0  0  3  0  0  0  0  0  0
  188.9010  171.8580  143.3700 O   0  0  0  0  0  1  0  0  0  0  0  0
  189.9660  172.5670  143.9330 C   0  0  2  0  0  3  0  0  0  0  0  0
  189.6520  174.0660  144.0060 C   0  0  0  0  0  2  0  0  0  0  0  0
  189.7580  176.2730  142.6680 C   0  0  1  0  0  3  0  0  0  0  0  0
  190.2010  174.8420  142.8150 C   0  0  2  0  0  3  0  0  0  0  0  0
  189.1380  175.2080  141.9750 O   0  0  0  0  0  0  0  0  0  0  0  0
  188.7960  176.9290  143.7090 C   0  0  1  0  0  0  0  0  0  0  0  0
  188.1830  175.9370  144.4850 O   0  0  0  0  0  1  0  0  0  0  0  0
  189.5700  177.3210  146.1390 C   0  0  0  0  0  1  0  0  0  0  0  0
  190.9880  177.8060  144.2760 O   0  0  0  0  0  1  0  0  0  0  0  0
  189.6520  177.7670  144.6820 C   0  0  1  0  0  3  0  0  0  0  0  0
  187.7370  177.8170  143.0590 C   0  0  0  0  0  0  0  0  0  0  0  0
  188.0290  178.4640  142.0600 O   0  0  0  0  0  0  0  0  0  0  0  0
  186.2000  178.7850  144.9430 C   0  0  1  0  0  3  0  0  0  0  0  0
  185.5800  179.0260  142.8950 C   0  0  2  0  0  3  0  0  0  0  0  0
  185.1150  177.5910  142.9040 C   0  0  0  0  0  2  0  0  0  0  0  0
  186.3670  177.9690  143.6760 C   0  0  1  0  0  0  0  0  0  0  0  0
  185.3090  179.7590  144.1980 C   0  0  0  0  0  2  0  0  0  0  0  0
  184.1570  178.6260  146.1650 O   0  0  0  0  0  1  0  0  0  0  0  0
  185.3980  178.0180  145.9850 C   0  0  0  0  0  2  0  0  0  0  0  0
  191.0870  171.3060  142.0450 C   0  0  0  0  0  2  0  0  0  0  0  0
  192.2000  172.8750  140.4400 C   0  0  0  0  0  3  0  0  0  0  0  0
  189.9680  172.0900  139.9390 C   0  0  0  0  0  3  0  0  0  0  0  0
  191.0880  172.1010  140.7790 C   0  0  0  0  0  0  0  0  0  0  0  0
  191.0840  173.5890  138.4510 N   0  0  0  0  0  0  0  0  0  0  0  0
  189.9870  172.8450  138.7650 C   0  0  0  0  0  3  0  0  0  0  0  0
  193.2990  174.4220  138.9020 N   0  0  0  0  0  1  0  0  0  0  0  0
  192.1780  173.6220  139.2590 C   0  0  0  0  0  0  0  0  0  0  0  0
  192.3000  171.5550  144.2350 C   0  0  0  0  0  2  0  0  0  0  0  0
  193.4970  172.2830  144.2990 O   0  0  0  0  0  0  0  0  0  0  0  0
  193.1830  173.5570  143.9930 O   0  0  0  0  0  0  0  0  0  0  0  0
  192.6220  174.7490  146.0460 C   0  0  0  0  0  3  0  0  0  0  0  0
  192.8610  175.7960  146.9390 C   0  0  0  0  0  3  0  0  0  0  0  0
  193.3940  174.6190  144.8800 C   0  0  0  0  0  0  0  0  0  0  0  0
  194.6390  176.6070  145.5110 C   0  0  0  0  0  3  0  0  0  0  0  0
  193.8710  176.7230  146.6750 C   0  0  0  0  0  3  0  0  0  0  0  0
  194.3990  175.5640  144.6100 C   0  0  0  0  0  0  0  0  0  0  0  0
  195.2360  175.4490  143.3790 C   0  0  0  0  0  2  0  0  0  0  0  0
  196.2950  176.4450  143.4070 N   0  0  0  0  0  2  0  0  0  0  0  0
  195.3640  176.4380  141.1670 C   0  0  0  0  0  1  0  0  0  0  0  0
  196.5570  176.8070  142.0240 C   0  0  0  0  0  2  0  0  0  0  0  0
  1 22  1  6  0  0  0
  1  3  1  0  0  0  0
  1 30  1  0  0  0  0
  3  2  1  6  0  0  0
  3  4  1  0  0  0  0
  5  6  1  0  0  0  0
  5  8  1  1  0  0  0
  6  4  1  1  0  0  0
  7  5  1  0  0  0  0
  7  6  1  0  0  0  0
  8  9  1  1  0  0  0
  8 12  1  0  0  0  0
 11 12  1  0  0  0  0
 12 10  1  1  0  0  0
 13  8  1  0  0  0  0
 14 13  2  0  0  0  0
 15 21  1  1  0  0  0
 16 17  1  1  0  0  0
 16 18  1  0  0  0  0
 16 19  1  0  0  0  0
 17 18  1  0  0  0  0
 18 13  1  6  0  0  0
 18 15  1  0  0  0  0
 19 15  1  0  0  0  0
 21 20  1  0  0  0  0
 23 25  1  0  0  0  0
 24 25  2  0  0  0  0
 25 22  1  0  0  0  0
 26 27  2  0  0  0  0
 26 29  1  0  0  0  0
 27 24  1  0  0  0  0
 28 29  1  0  0  0  0
 29 23  2  0  0  0  0
 30 31  1  0  0  0  0
 32 31  1  0  0  0  0
 32 35  1  0  0  0  0
 33 34  1  0  0  0  0
 35 33  2  0  0  0  0
 36 37  1  0  0  0  0
 37 34  2  0  0  0  0
 38 35  1  0  0  0  0
 38 36  2  0  0  0  0
 39 40  1  0  0  0  0
 39 38  1  0  0  0  0
 41 42  1  0  0  0  0
 42 40  1  0  0  0  0
M  END
>  <MODEL>
2

>  <REMARK>
 VINA RESULT:      -6.5      3.433      8.908
  Name = 
  17 active torsions:
  status: ('A' for Active; 'I' for Inactive)
    1  A    between atoms: C_1  and  C_4
    2  A    between atoms: C_1  and  C_24
    3  A    between atoms: C_1  and  C_32
    4  A    between atoms: N_3  and  C_33
    5  A    between atoms: N_3  and  C_36
    6  A    between atoms: C_4  and  C_17
    7  A    between atoms: C_5  and  C_20
    8  A    between atoms: C_5  and  C_31
    9  A    between atoms: C_8  and  C_19
   10  A    between atoms: O_15  and  O_30
   11  A    between atoms: O_15  and  C_37
   12  A    between atoms: C_21  and  O_30
   13  A    between atoms: C_28  and  C_40
   14  A    between atoms: C_31  and  C_34
   15  A    between atoms: C_31  and  C_37
   16  A    between atoms: C_34  and  C_40
   17  A    between atoms: C_35  and  C_36
                            x       y       z     vdW  Elec       q    Type
                         _______ _______ _______ _____ _____    ______ ____

>  <TORSDO>
F 17

$$$$
=
 OpenBabel11062419373D

 42 46  0  0  1  0  0  0  0  0999 V2000
  190.4290  175.9530  144.4840 C   0  0  2  0  0  3  0  0  0  0  0  0
  191.6620  176.0210  146.5760 O   0  0  0  0  0  1  0  0  0  0  0  0
  191.6060  175.4150  145.3190 C   0  0  2  0  0  3  0  0  0  0  0  0
  192.9760  175.4470  144.6310 C   0  0  0  0  0  2  0  0  0  0  0  0
  195.3420  176.4680  144.8100 C   0  0  1  0  0  3  0  0  0  0  0  0
  193.8840  176.5430  145.1760 C   0  0  2  0  0  3  0  0  0  0  0  0
  194.8360  175.9680  146.0320 O   0  0  0  0  0  0  0  0  0  0  0  0
  195.8850  175.3260  143.8930 C   0  0  1  0  0  0  0  0  0  0  0  0
  194.9050  174.9540  142.9630 O   0  0  0  0  0  1  0  0  0  0  0  0
  196.9720  175.6300  141.5730 C   0  0  0  0  0  1  0  0  0  0  0  0
  197.2220  177.2640  143.3010 O   0  0  0  0  0  1  0  0  0  0  0  0
  197.0610  175.8950  143.0740 C   0  0  1  0  0  3  0  0  0  0  0  0
  196.3500  174.1040  144.6830 C   0  0  0  0  0  0  0  0  0  0  0  0
  197.3560  174.1870  145.3770 O   0  0  0  0  0  0  0  0  0  0  0  0
  196.2040  171.7050  143.6480 C   0  0  1  0  0  3  0  0  0  0  0  0
  195.9590  171.9150  145.7760 C   0  0  2  0  0  3  0  0  0  0  0  0
  194.5450  172.3800  145.5330 C   0  0  0  0  0  2  0  0  0  0  0  0
  195.6360  172.7790  144.5540 C   0  0  1  0  0  0  0  0  0  0  0  0
  196.3990  170.7970  144.8460 C   0  0  0  0  0  2  0  0  0  0  0  0
  195.3650  171.5700  141.4170 O   0  0  0  0  0  1  0  0  0  0  0  0
  195.1310  171.1460  142.7240 C   0  0  0  0  0  2  0  0  0  0  0  0
  190.7440  175.9090  142.9900 C   0  0  0  0  0  2  0  0  0  0  0  0
  190.7700  174.0300  141.3340 C   0  0  0  0  0  3  0  0  0  0  0  0
  188.7900  174.3640  142.6820 C   0  0  0  0  0  3  0  0  0  0  0  0
  190.0910  174.7400  142.3270 C   0  0  0  0  0  0  0  0  0  0  0  0
  188.8770  172.5920  141.0820 N   0  0  0  0  0  0  0  0  0  0  0  0
  188.1960  173.2730  142.0440 C   0  0  0  0  0  3  0  0  0  0  0  0
  190.8120  172.2190  139.6950 N   0  0  0  0  0  1  0  0  0  0  0  0
  190.1380  172.9480  140.7140 C   0  0  0  0  0  0  0  0  0  0  0  0
  189.9920  177.3590  144.9030 C   0  0  0  0  0  2  0  0  0  0  0  0
  188.7680  177.3320  145.5870 O   0  0  0  0  0  0  0  0  0  0  0  0
  187.8930  178.0220  144.8280 O   0  0  0  0  0  0  0  0  0  0  0  0
  186.1300  177.9270  146.5110 C   0  0  0  0  0  3  0  0  0  0  0  0
  184.8060  178.1650  146.8900 C   0  0  0  0  0  3  0  0  0  0  0  0
  186.5620  178.2280  145.2090 C   0  0  0  0  0  0  0  0  0  0  0  0
  184.3220  178.9970  144.6690 C   0  0  0  0  0  3  0  0  0  0  0  0
  183.9030  178.7030  145.9710 C   0  0  0  0  0  3  0  0  0  0  0  0
  185.6460  178.7550  144.2830 C   0  0  0  0  0  0  0  0  0  0  0  0
  186.0780  179.0870  142.8930 C   0  0  0  0  0  2  0  0  0  0  0  0
  185.4610  178.1660  141.9510 N   0  0  0  0  0  2  0  0  0  0  0  0
  187.7330  177.6290  141.2920 C   0  0  0  0  0  1  0  0  0  0  0  0
  186.4050  177.0760  141.7630 C   0  0  0  0  0  2  0  0  0  0  0  0
  1 22  1  6  0  0  0
  1 30  1  0  0  0  0
  1  3  1  0  0  0  0
  3  2  1  1  0  0  0
  4  3  1  0  0  0  0
  5  8  1  6  0  0  0
  5  6  1  0  0  0  0
  5  7  1  0  0  0  0
  6  4  1  6  0  0  0
  6  7  1  0  0  0  0
  8  9  1  6  0  0  0
  8 13  1  0  0  0  0
 12 10  1  6  0  0  0
 12 11  1  0  0  0  0
 12  8  1  0  0  0  0
 13 14  2  0  0  0  0
 15 21  1  6  0  0  0
 15 18  1  0  0  0  0
 15 19  1  0  0  0  0
 16 19  1  6  0  0  0
 17 16  1  0  0  0  0
 18 13  1  6  0  0  0
 18 17  1  0  0  0  0
 18 16  1  0  0  0  0
 20 21  1  0  0  0  0
 23 25  1  0  0  0  0
 25 24  2  0  0  0  0
 25 22  1  0  0  0  0
 26 27  2  0  0  0  0
 27 24  1  0  0  0  0
 28 29  1  0  0  0  0
 29 26  1  0  0  0  0
 29 23  2  0  0  0  0
 30 31  1  0  0  0  0
 32 35  1  0  0  0  0
 32 31  1  0  0  0  0
 33 34  1  0  0  0  0
 35 33  2  0  0  0  0
 36 37  1  0  0  0  0
 37 34  2  0  0  0  0
 38 36  2  0  0  0  0
 38 35  1  0  0  0  0
 39 38  1  0  0  0  0
 40 39  1  0  0  0  0
 41 42  1  0  0  0  0
 42 40  1  0  0  0  0
M  END
>  <MODEL>
3

>  <REMARK>
 VINA RESULT:      -6.3      2.156      4.462
  Name = 
  17 active torsions:
  status: ('A' for Active; 'I' for Inactive)
    1  A    between atoms: C_1  and  C_4
    2  A    between atoms: C_1  and  C_24
    3  A    between atoms: C_1  and  C_32
    4  A    between atoms: N_3  and  C_33
    5  A    between atoms: N_3  and  C_36
    6  A    between atoms: C_4  and  C_17
    7  A    between atoms: C_5  and  C_20
    8  A    between atoms: C_5  and  C_31
    9  A    between atoms: C_8  and  C_19
   10  A    between atoms: O_15  and  O_30
   11  A    between atoms: O_15  and  C_37
   12  A    between atoms: C_21  and  O_30
   13  A    between atoms: C_28  and  C_40
   14  A    between atoms: C_31  and  C_34
   15  A    between atoms: C_31  and  C_37
   16  A    between atoms: C_34  and  C_40
   17  A    between atoms: C_35  and  C_36
                            x       y       z     vdW  Elec       q    Type
                         _______ _______ _______ _____ _____    ______ ____

>  <TORSDO>
F 17

$$$$
=
 OpenBabel11062419373D

 42 46  0  0  1  0  0  0  0  0999 V2000
  191.8530  173.7680  141.9460 C   0  0  2  0  0  3  0  0  0  0  0  0
  193.2550  175.6200  142.6590 O   0  0  0  0  0  1  0  0  0  0  0  0
  191.9600  175.2710  142.2650 C   0  0  2  0  0  3  0  0  0  0  0  0
  190.9200  175.8170  143.2490 C   0  0  0  0  0  2  0  0  0  0  0  0
  189.8010  178.0060  144.0410 C   0  0  1  0  0  3  0  0  0  0  0  0
  190.9790  177.3340  143.3890 C   0  0  2  0  0  3  0  0  0  0  0  0
  189.9400  177.9060  142.6380 O   0  0  0  0  0  0  0  0  0  0  0  0
  188.5880  177.1750  144.5680 C   0  0  1  0  0  0  0  0  0  0  0  0
  188.5420  175.9340  143.9200 O   0  0  0  0  0  1  0  0  0  0  0  0
  188.9400  175.3860  146.3930 C   0  0  0  0  0  1  0  0  0  0  0  0
  189.9660  177.5410  146.5330 O   0  0  0  0  0  1  0  0  0  0  0  0
  188.8350  176.8720  146.0600 C   0  0  1  0  0  3  0  0  0  0  0  0
  187.2560  177.9030  144.4040 C   0  0  0  0  0  0  0  0  0  0  0  0
  187.0710  178.5970  143.4110 O   0  0  0  0  0  0  0  0  0  0  0  0
  185.7060  179.1280  146.1200 C   0  0  1  0  0  3  0  0  0  0  0  0
  184.8300  177.6410  144.8330 C   0  0  2  0  0  3  0  0  0  0  0  0
  185.4050  176.5750  145.7310 C   0  0  0  0  0  2  0  0  0  0  0  0
  186.2010  177.8440  145.4830 C   0  0  1  0  0  0  0  0  0  0  0  0
  184.3130  178.8550  145.5870 C   0  0  0  0  0  2  0  0  0  0  0  0
  186.3180  180.1660  148.1800 O   0  0  0  0  0  1  0  0  0  0  0  0
  185.7250  179.0260  147.6380 C   0  0  0  0  0  2  0  0  0  0  0  0
  190.4020  173.2930  142.0050 C   0  0  0  0  0  2  0  0  0  0  0  0
  189.1030  174.0350  139.9970 C   0  0  0  0  0  3  0  0  0  0  0  0
  190.0610  171.8150  140.0060 C   0  0  0  0  0  3  0  0  0  0  0  0
  189.8510  173.0450  140.6390 C   0  0  0  0  0  0  0  0  0  0  0  0
  188.8090  172.5830  138.1210 N   0  0  0  0  0  0  0  0  0  0  0  0
  189.5310  171.6030  138.7320 C   0  0  0  0  0  3  0  0  0  0  0  0
  187.8140  174.7760  138.0590 N   0  0  0  0  0  1  0  0  0  0  0  0
  188.5840  173.7820  138.7240 C   0  0  0  0  0  0  0  0  0  0  0  0
  192.7420  172.9010  142.8410 C   0  0  0  0  0  2  0  0  0  0  0  0
  192.0670  172.5030  144.0040 O   0  0  0  0  0  0  0  0  0  0  0  0
  192.9630  172.5810  145.0080 O   0  0  0  0  0  0  0  0  0  0  0  0
  192.5820  174.7420  146.0740 C   0  0  0  0  0  3  0  0  0  0  0  0
  193.0810  175.9440  146.5820 C   0  0  0  0  0  3  0  0  0  0  0  0
  193.4480  173.8020  145.4930 C   0  0  0  0  0  0  0  0  0  0  0  0
  195.3180  175.2900  145.9280 C   0  0  0  0  0  3  0  0  0  0  0  0
  194.4490  176.2170  146.5130 C   0  0  0  0  0  3  0  0  0  0  0  0
  194.8210  174.0870  145.4110 C   0  0  0  0  0  0  0  0  0  0  0  0
  195.7650  173.1040  144.8020 C   0  0  0  0  0  2  0  0  0  0  0  0
  196.3770  172.2950  145.8440 N   0  0  0  0  0  2  0  0  0  0  0  0
  197.1500  170.0150  146.1410 C   0  0  0  0  0  1  0  0  0  0  0  0
  196.1090  170.9080  145.4990 C   0  0  0  0  0  2  0  0  0  0  0  0
  1 22  1  1  0  0  0
  1  3  1  0  0  0  0
  1 30  1  0  0  0  0
  3  2  1  1  0  0  0
  3  4  1  0  0  0  0
  5  8  1  1  0  0  0
  6  4  1  1  0  0  0
  6  5  1  0  0  0  0
  7  6  1  0  0  0  0
  7  5  1  0  0  0  0
  8  9  1  6  0  0  0
  8 12  1  0  0  0  0
 12 10  1  6  0  0  0
 12 11  1  0  0  0  0
 13  8  1  0  0  0  0
 14 13  2  0  0  0  0
 15 21  1  1  0  0  0
 16 18  1  0  0  0  0
 16 19  1  1  0  0  0
 16 17  1  0  0  0  0
 18 13  1  6  0  0  0
 18 17  1  0  0  0  0
 18 15  1  0  0  0  0
 19 15  1  0  0  0  0
 21 20  1  0  0  0  0
 23 25  1  0  0  0  0
 24 25  2  0  0  0  0
 25 22  1  0  0  0  0
 26 29  1  0  0  0  0
 26 27  2  0  0  0  0
 27 24  1  0  0  0  0
 28 29  1  0  0  0  0
 29 23  2  0  0  0  0
 30 31  1  0  0  0  0
 31 32  1  0  0  0  0
 32 35  1  0  0  0  0
 33 34  1  0  0  0  0
 35 33  2  0  0  0  0
 36 37  1  0  0  0  0
 37 34  2  0  0  0  0
 38 35  1  0  0  0  0
 38 36  2  0  0  0  0
 39 38  1  0  0  0  0
 39 40  1  0  0  0  0
 42 40  1  0  0  0  0
 42 41  1  0  0  0  0
M  END
>  <MODEL>
4

>  <REMARK>
 VINA RESULT:      -6.3      2.975      8.993
  Name = 
  17 active torsions:
  status: ('A' for Active; 'I' for Inactive)
    1  A    between atoms: C_1  and  C_4
    2  A    between atoms: C_1  and  C_24
    3  A    between atoms: C_1  and  C_32
    4  A    between atoms: N_3  and  C_33
    5  A    between atoms: N_3  and  C_36
    6  A    between atoms: C_4  and  C_17
    7  A    between atoms: C_5  and  C_20
    8  A    between atoms: C_5  and  C_31
    9  A    between atoms: C_8  and  C_19
   10  A    between atoms: O_15  and  O_30
   11  A    between atoms: O_15  and  C_37
   12  A    between atoms: C_21  and  O_30
   13  A    between atoms: C_28  and  C_40
   14  A    between atoms: C_31  and  C_34
   15  A    between atoms: C_31  and  C_37
   16  A    between atoms: C_34  and  C_40
   17  A    between atoms: C_35  and  C_36
                            x       y       z     vdW  Elec       q    Type
                         _______ _______ _______ _____ _____    ______ ____

>  <TORSDO>
F 17

$$$$
=
 OpenBabel11062419373D

 42 46  0  0  1  0  0  0  0  0999 V2000
  192.6830  175.8020  145.7750 C   0  0  2  0  0  3  0  0  0  0  0  0
  191.6650  175.7510  147.9810 O   0  0  0  0  0  1  0  0  0  0  0  0
  191.7260  176.4670  146.7820 C   0  0  2  0  0  3  0  0  0  0  0  0
  190.3200  176.7790  146.2550 C   0  0  0  0  0  2  0  0  0  0  0  0
  188.0870  175.6660  145.5860 C   0  0  1  0  0  3  0  0  0  0  0  0
  189.3710  175.5920  146.3700 C   0  0  2  0  0  3  0  0  0  0  0  0
  188.1680  176.0200  146.9520 O   0  0  0  0  0  0  0  0  0  0  0  0
  187.7650  176.8970  144.6820 C   0  0  1  0  0  0  0  0  0  0  0  0
  188.5190  178.0040  145.0950 O   0  0  0  0  0  1  0  0  0  0  0  0
  189.2440  177.5560  142.6740 C   0  0  0  0  0  1  0  0  0  0  0  0
  188.7460  175.2710  143.1690 O   0  0  0  0  0  1  0  0  0  0  0  0
  188.2340  176.5680  143.2490 C   0  0  1  0  0  3  0  0  0  0  0  0
  186.2790  177.2490  144.6690 C   0  0  0  0  0  0  0  0  0  0  0  0
  185.5250  176.6920  145.4590 O   0  0  0  0  0  0  0  0  0  0  0  0
  184.8790  177.6780  142.5010 C   0  0  1  0  0  3  0  0  0  0  0  0
  184.4790  178.8950  144.2320 C   0  0  2  0  0  3  0  0  0  0  0  0
  185.7070  179.7050  143.9010 C   0  0  0  0  0  2  0  0  0  0  0  0
  185.7170  178.2080  143.6470 C   0  0  1  0  0  0  0  0  0  0  0  0
  183.6880  178.4670  143.0070 C   0  0  0  0  0  2  0  0  0  0  0  0
  184.2680  178.6360  140.4020 O   0  0  0  0  0  1  0  0  0  0  0  0
  185.3600  178.2350  141.1690 C   0  0  0  0  0  2  0  0  0  0  0  0
  192.9700  174.3520  146.1600 C   0  0  0  0  0  2  0  0  0  0  0  0
  193.3340  172.1760  144.9740 C   0  0  0  0  0  3  0  0  0  0  0  0
  191.8210  173.7920  144.0010 C   0  0  0  0  0  3  0  0  0  0  0  0
  192.6980  173.4190  145.0260 C   0  0  0  0  0  0  0  0  0  0  0  0
  192.2140  171.6990  142.9180 N   0  0  0  0  0  0  0  0  0  0  0  0
  191.5860  172.9080  142.9460 C   0  0  0  0  0  3  0  0  0  0  0  0
  193.7240  170.0560  143.8250 N   0  0  0  0  0  1  0  0  0  0  0  0
  193.0780  171.3210  143.8980 C   0  0  0  0  0  0  0  0  0  0  0  0
  193.9870  176.5790  145.5840 C   0  0  0  0  0  2  0  0  0  0  0  0
  194.5330  176.3600  144.3110 O   0  0  0  0  0  0  0  0  0  0  0  0
  195.8240  176.0240  144.5040 O   0  0  0  0  0  0  0  0  0  0  0  0
  196.5190  174.1780  145.9390 C   0  0  0  0  0  3  0  0  0  0  0  0
  196.9070  172.8450  146.0910 C   0  0  0  0  0  3  0  0  0  0  0  0
  196.2430  174.6980  144.6650 C   0  0  0  0  0  0  0  0  0  0  0  0
  196.7600  172.5310  143.6960 C   0  0  0  0  0  3  0  0  0  0  0  0
  197.0250  172.0200  144.9700 C   0  0  0  0  0  3  0  0  0  0  0  0
  196.3770  173.8690  143.5380 C   0  0  0  0  0  0  0  0  0  0  0  0
  196.0870  174.3940  142.1710 C   0  0  0  0  0  2  0  0  0  0  0  0
  194.7200  174.0700  141.7970 N   0  0  0  0  0  2  0  0  0  0  0  0
  195.0850  175.2350  139.7010 C   0  0  0  0  0  1  0  0  0  0  0  0
  194.7130  173.9190  140.3510 C   0  0  0  0  0  2  0  0  0  0  0  0
  1 30  1  1  0  0  0
  1 22  1  0  0  0  0
  1  3  1  0  0  0  0
  3  2  1  1  0  0  0
  4  3  1  0  0  0  0
  5  8  1  6  0  0  0
  5  6  1  0  0  0  0
  5  7  1  0  0  0  0
  6  4  1  6  0  0  0
  6  7  1  0  0  0  0
  8  9  1  1  0  0  0
 11 12  1  0  0  0  0
 12 10  1  1  0  0  0
 12  8  1  0  0  0  0
 13  8  1  0  0  0  0
 13 14  2  0  0  0  0
 15 21  1  6  0  0  0
 15 19  1  0  0  0  0
 15 18  1  0  0  0  0
 16 19  1  6  0  0  0
 17 16  1  0  0  0  0
 18 17  1  0  0  0  0
 18 16  1  0  0  0  0
 18 13  1  1  0  0  0
 20 21  1  0  0  0  0
 23 25  1  0  0  0  0
 24 25  2  0  0  0  0
 25 22  1  0  0  0  0
 26 27  2  0  0  0  0
 26 29  1  0  0  0  0
 27 24  1  0  0  0  0
 28 29  1  0  0  0  0
 29 23  2  0  0  0  0
 31 32  1  0  0  0  0
 31 30  1  0  0  0  0
 32 35  1  0  0  0  0
 33 34  1  0  0  0  0
 35 33  2  0  0  0  0
 36 37  1  0  0  0  0
 37 34  2  0  0  0  0
 38 36  2  0  0  0  0
 38 35  1  0  0  0  0
 39 38  1  0  0  0  0
 40 39  1  0  0  0  0
 41 42  1  0  0  0  0
 42 40  1  0  0  0  0
M  END
>  <MODEL>
5

>  <REMARK>
 VINA RESULT:      -6.3      3.285      9.225
  Name = 
  17 active torsions:
  status: ('A' for Active; 'I' for Inactive)
    1  A    between atoms: C_1  and  C_4
    2  A    between atoms: C_1  and  C_24
    3  A    between atoms: C_1  and  C_32
    4  A    between atoms: N_3  and  C_33
    5  A    between atoms: N_3  and  C_36
    6  A    between atoms: C_4  and  C_17
    7  A    between atoms: C_5  and  C_20
    8  A    between atoms: C_5  and  C_31
    9  A    between atoms: C_8  and  C_19
   10  A    between atoms: O_15  and  O_30
   11  A    between atoms: O_15  and  C_37
   12  A    between atoms: C_21  and  O_30
   13  A    between atoms: C_28  and  C_40
   14  A    between atoms: C_31  and  C_34
   15  A    between atoms: C_31  and  C_37
   16  A    between atoms: C_34  and  C_40
   17  A    between atoms: C_35  and  C_36
                            x       y       z     vdW  Elec       q    Type
                         _______ _______ _______ _____ _____    ______ ____

>  <TORSDO>
F 17

$$$$
=
 OpenBabel11062419373D

 42 46  0  0  1  0  0  0  0  0999 V2000
  190.4880  173.4280  142.8950 C   0  0  2  0  0  3  0  0  0  0  0  0
  191.5800  171.2650  143.0640 O   0  0  0  0  0  1  0  0  0  0  0  0
  191.5880  172.4820  142.3780 C   0  0  2  0  0  3  0  0  0  0  0  0
  193.0010  173.0750  142.3240 C   0  0  0  0  0  2  0  0  0  0  0  0
  194.3780  175.1270  141.5730 C   0  0  1  0  0  3  0  0  0  0  0  0
  193.0280  174.4820  141.7410 C   0  0  2  0  0  3  0  0  0  0  0  0
  193.5540  175.3650  142.6970 O   0  0  0  0  0  0  0  0  0  0  0  0
  195.6870  174.3670  141.9590 C   0  0  1  0  0  0  0  0  0  0  0  0
  195.5130  172.9900  141.7730 O   0  0  0  0  0  1  0  0  0  0  0  0
  197.2300  173.7080  140.0000 C   0  0  0  0  0  1  0  0  0  0  0  0
  196.4210  175.9420  140.2640 O   0  0  0  0  0  1  0  0  0  0  0  0
  196.7930  174.7980  140.9740 C   0  0  1  0  0  3  0  0  0  0  0  0
  196.1340  174.6510  143.3920 C   0  0  0  0  0  0  0  0  0  0  0  0
  196.5680  175.7610  143.6750 O   0  0  0  0  0  0  0  0  0  0  0  0
  197.4360  173.0170  144.9680 C   0  0  1  0  0  3  0  0  0  0  0  0
  195.8320  174.1830  145.8060 C   0  0  2  0  0  3  0  0  0  0  0  0
  194.8530  173.2130  145.1930 C   0  0  0  0  0  2  0  0  0  0  0  0
  196.1240  173.5610  144.4380 C   0  0  1  0  0  0  0  0  0  0  0  0
  197.0830  173.5170  146.3550 C   0  0  0  0  0  2  0  0  0  0  0  0
  197.1450  171.0470  143.6520 O   0  0  0  0  0  1  0  0  0  0  0  0
  197.4490  171.4950  144.9360 C   0  0  0  0  0  2  0  0  0  0  0  0
  189.9340  172.9520  144.2370 C   0  0  0  0  0  2  0  0  0  0  0  0
  191.4650  174.6050  145.3290 C   0  0  0  0  0  3  0  0  0  0  0  0
  189.3420  174.1170  146.3790 C   0  0  0  0  0  3  0  0  0  0  0  0
  190.2500  173.9160  145.3340 C   0  0  0  0  0  0  0  0  0  0  0  0
  190.8490  175.6830  147.3720 N   0  0  0  0  0  0  0  0  0  0  0  0
  189.6610  175.0170  147.3980 C   0  0  0  0  0  3  0  0  0  0  0  0
  192.9860  176.1980  146.3860 N   0  0  0  0  0  1  0  0  0  0  0  0
  191.7500  175.4940  146.3710 C   0  0  0  0  0  0  0  0  0  0  0  0
  189.3550  173.6380  141.8870 C   0  0  0  0  0  2  0  0  0  0  0  0
  188.2260  174.2040  142.4950 O   0  0  0  0  0  0  0  0  0  0  0  0
  188.2710  175.5240  142.2250 O   0  0  0  0  0  0  0  0  0  0  0  0
  190.2590  176.8730  142.6430 C   0  0  0  0  0  3  0  0  0  0  0  0
  190.9470  177.8030  143.4270 C   0  0  0  0  0  3  0  0  0  0  0  0
  188.9810  176.4320  143.0200 C   0  0  0  0  0  0  0  0  0  0  0  0
  189.0930  177.8590  144.9830 C   0  0  0  0  0  3  0  0  0  0  0  0
  190.3630  178.2990  144.5950 C   0  0  0  0  0  3  0  0  0  0  0  0
  188.4040  176.9220  144.2030 C   0  0  0  0  0  0  0  0  0  0  0  0
  187.0440  176.4730  144.6260 C   0  0  0  0  0  2  0  0  0  0  0  0
  186.1910  177.6280  144.8550 N   0  0  0  0  0  2  0  0  0  0  0  0
  184.3020  178.2810  146.2300 C   0  0  0  0  0  1  0  0  0  0  0  0
  185.5380  177.4120  146.1360 C   0  0  0  0  0  2  0  0  0  0  0  0
  1 30  1  6  0  0  0
  1 22  1  0  0  0  0
  3  1  1  0  0  0  0
  3  2  1  1  0  0  0
  4  3  1  0  0  0  0
  5  6  1  0  0  0  0
  5  8  1  1  0  0  0
  5  7  1  0  0  0  0
  6  4  1  1  0  0  0
  6  7  1  0  0  0  0
  8  9  1  6  0  0  0
  8 13  1  0  0  0  0
 11 12  1  0  0  0  0
 12 10  1  6  0  0  0
 12  8  1  0  0  0  0
 13 14  2  0  0  0  0
 15 21  1  1  0  0  0
 15 19  1  0  0  0  0
 16 17  1  1  0  0  0
 16 19  1  0  0  0  0
 18 13  1  6  0  0  0
 18 15  1  0  0  0  0
 18 17  1  0  0  0  0
 18 16  1  0  0  0  0
 20 21  1  0  0  0  0
 22 25  1  0  0  0  0
 23 25  2  0  0  0  0
 23 29  1  0  0  0  0
 24 27  2  0  0  0  0
 25 24  1  0  0  0  0
 26 27  1  0  0  0  0
 29 28  1  0  0  0  0
 29 26  2  0  0  0  0
 30 31  1  0  0  0  0
 32 31  1  0  0  0  0
 32 35  1  0  0  0  0
 33 35  2  0  0  0  0
 33 34  1  0  0  0  0
 34 37  2  0  0  0  0
 35 38  1  0  0  0  0
 37 36  1  0  0  0  0
 38 39  1  0  0  0  0
 38 36  2  0  0  0  0
 39 40  1  0  0  0  0
 40 42  1  0  0  0  0
 42 41  1  0  0  0  0
M  END
>  <MODEL>
6

>  <REMARK>
 VINA RESULT:      -6.2      2.594      4.693
  Name = 
  17 active torsions:
  status: ('A' for Active; 'I' for Inactive)
    1  A    between atoms: C_1  and  C_4
    2  A    between atoms: C_1  and  C_24
    3  A    between atoms: C_1  and  C_32
    4  A    between atoms: N_3  and  C_33
    5  A    between atoms: N_3  and  C_36
    6  A    between atoms: C_4  and  C_17
    7  A    between atoms: C_5  and  C_20
    8  A    between atoms: C_5  and  C_31
    9  A    between atoms: C_8  and  C_19
   10  A    between atoms: O_15  and  O_30
   11  A    between atoms: O_15  and  C_37
   12  A    between atoms: C_21  and  O_30
   13  A    between atoms: C_28  and  C_40
   14  A    between atoms: C_31  and  C_34
   15  A    between atoms: C_31  and  C_37
   16  A    between atoms: C_34  and  C_40
   17  A    between atoms: C_35  and  C_36
                            x       y       z     vdW  Elec       q    Type
                         _______ _______ _______ _____ _____    ______ ____

>  <TORSDO>
F 17

$$$$
=
 OpenBabel11062419373D

 42 46  0  0  1  0  0  0  0  0999 V2000
  189.8890  173.7000  140.7610 C   0  0  2  0  0  3  0  0  0  0  0  0
  188.1640  174.5420  139.2720 O   0  0  0  0  0  1  0  0  0  0  0  0
  188.4240  174.1430  140.5850 C   0  0  2  0  0  3  0  0  0  0  0  0
  187.9210  175.1880  141.5880 C   0  0  0  0  0  2  0  0  0  0  0  0
  187.2790  177.6810  141.7990 C   0  0  1  0  0  3  0  0  0  0  0  0
  187.4570  176.4740  140.9160 C   0  0  2  0  0  3  0  0  0  0  0  0
  186.2040  176.8380  141.4350 O   0  0  0  0  0  0  0  0  0  0  0  0
  187.5830  177.6110  143.3280 C   0  0  1  0  0  0  0  0  0  0  0  0
  187.6590  176.2750  143.7410 O   0  0  0  0  0  1  0  0  0  0  0  0
  189.7670  177.5670  144.7000 C   0  0  0  0  0  1  0  0  0  0  0  0
  189.7470  178.1870  142.3910 O   0  0  0  0  0  1  0  0  0  0  0  0
  188.9840  178.2130  143.5610 C   0  0  1  0  0  3  0  0  0  0  0  0
  186.5530  178.3630  144.1710 C   0  0  0  0  0  0  0  0  0  0  0  0
  186.0530  179.3900  143.7290 O   0  0  0  0  0  0  0  0  0  0  0  0
  186.2100  178.8980  146.7090 C   0  0  1  0  0  3  0  0  0  0  0  0
  184.6870  177.7700  145.6880 C   0  0  2  0  0  3  0  0  0  0  0  0
  185.5620  176.5470  145.8060 C   0  0  0  0  0  2  0  0  0  0  0  0
  186.2070  177.9010  145.5670 C   0  0  1  0  0  0  0  0  0  0  0  0
  184.7270  178.6650  146.9160 C   0  0  0  0  0  2  0  0  0  0  0  0
  187.3130  179.4140  148.7610 O   0  0  0  0  0  1  0  0  0  0  0  0
  187.0040  178.3670  147.8950 C   0  0  0  0  0  2  0  0  0  0  0  0
  190.0490  172.2030  140.5020 C   0  0  0  0  0  2  0  0  0  0  0  0
  191.1940  173.0050  138.4230 C   0  0  0  0  0  3  0  0  0  0  0  0
  190.7700  170.6370  138.6780 C   0  0  0  0  0  3  0  0  0  0  0  0
  190.6900  171.9420  139.1780 C   0  0  0  0  0  0  0  0  0  0  0  0
  191.8560  171.4670  136.7180 N   0  0  0  0  0  0  0  0  0  0  0  0
  191.3670  170.4170  137.4350 C   0  0  0  0  0  3  0  0  0  0  0  0
  192.2890  173.8150  136.3960 N   0  0  0  0  0  1  0  0  0  0  0  0
  191.7790  172.7440  137.1810 C   0  0  0  0  0  0  0  0  0  0  0  0
  190.4680  174.0770  142.1270 C   0  0  0  0  0  2  0  0  0  0  0  0
  190.2850  173.0490  143.0630 O   0  0  0  0  0  0  0  0  0  0  0  0
  191.2260  173.2260  144.0110 O   0  0  0  0  0  0  0  0  0  0  0  0
  189.6850  174.0120  145.7320 C   0  0  0  0  0  3  0  0  0  0  0  0
  189.4570  174.6940  146.9290 C   0  0  0  0  0  3  0  0  0  0  0  0
  190.9800  173.9330  145.1950 C   0  0  0  0  0  0  0  0  0  0  0  0
  191.8110  175.2380  147.0670 C   0  0  0  0  0  3  0  0  0  0  0  0
  190.5190  175.3040  147.5990 C   0  0  0  0  0  3  0  0  0  0  0  0
  192.0440  174.5610  145.8640 C   0  0  0  0  0  0  0  0  0  0  0  0
  193.4310  174.4900  145.3170 C   0  0  0  0  0  2  0  0  0  0  0  0
  193.7770  175.7530  144.6840 N   0  0  0  0  0  2  0  0  0  0  0  0
  194.5640  177.5370  146.1270 C   0  0  0  0  0  1  0  0  0  0  0  0
  194.9380  176.2660  145.3940 C   0  0  0  0  0  2  0  0  0  0  0  0
  1 22  1  1  0  0  0
  1 30  1  0  0  0  0
  3  2  1  6  0  0  0
  3  1  1  0  0  0  0
  3  4  1  0  0  0  0
  5  8  1  1  0  0  0
  6  7  1  0  0  0  0
  6  4  1  1  0  0  0
  6  5  1  0  0  0  0
  7  5  1  0  0  0  0
  8 12  1  0  0  0  0
  8  9  1  1  0  0  0
  8 13  1  0  0  0  0
 11 12  1  0  0  0  0
 12 10  1  1  0  0  0
 14 13  2  0  0  0  0
 15 19  1  0  0  0  0
 15 21  1  1  0  0  0
 16 17  1  1  0  0  0
 16 19  1  0  0  0  0
 18 13  1  6  0  0  0
 18 16  1  0  0  0  0
 18 17  1  0  0  0  0
 18 15  1  0  0  0  0
 21 20  1  0  0  0  0
 23 25  1  0  0  0  0
 24 25  2  0  0  0  0
 25 22  1  0  0  0  0
 26 29  1  0  0  0  0
 26 27  2  0  0  0  0
 27 24  1  0  0  0  0
 28 29  1  0  0  0  0
 29 23  2  0  0  0  0
 30 31  1  0  0  0  0
 31 32  1  0  0  0  0
 32 35  1  0  0  0  0
 33 34  1  0  0  0  0
 34 37  2  0  0  0  0
 35 33  2  0  0  0  0
 35 38  1  0  0  0  0
 36 37  1  0  0  0  0
 38 36  2  0  0  0  0
 39 38  1  0  0  0  0
 40 39  1  0  0  0  0
 40 42  1  0  0  0  0
 42 41  1  0  0  0  0
M  END
>  <MODEL>
7

>  <REMARK>
 VINA RESULT:      -6.1      3.395      9.328
  Name = 
  17 active torsions:
  status: ('A' for Active; 'I' for Inactive)
    1  A    between atoms: C_1  and  C_4
    2  A    between atoms: C_1  and  C_24
    3  A    between atoms: C_1  and  C_32
    4  A    between atoms: N_3  and  C_33
    5  A    between atoms: N_3  and  C_36
    6  A    between atoms: C_4  and  C_17
    7  A    between atoms: C_5  and  C_20
    8  A    between atoms: C_5  and  C_31
    9  A    between atoms: C_8  and  C_19
   10  A    between atoms: O_15  and  O_30
   11  A    between atoms: O_15  and  C_37
   12  A    between atoms: C_21  and  O_30
   13  A    between atoms: C_28  and  C_40
   14  A    between atoms: C_31  and  C_34
   15  A    between atoms: C_31  and  C_37
   16  A    between atoms: C_34  and  C_40
   17  A    between atoms: C_35  and  C_36
                            x       y       z     vdW  Elec       q    Type
                         _______ _______ _______ _____ _____    ______ ____

>  <TORSDO>
F 17

$$$$
=
 OpenBabel11062419373D

 42 46  0  0  1  0  0  0  0  0999 V2000
  188.1140  177.3920  142.9570 C   0  0  2  0  0  3  0  0  0  0  0  0
  186.5660  175.5350  142.7140 O   0  0  0  0  0  1  0  0  0  0  0  0
  187.7090  176.1300  142.1720 C   0  0  2  0  0  3  0  0  0  0  0  0
  188.8200  175.0950  141.9610 C   0  0  0  0  0  2  0  0  0  0  0  0
  190.1190  173.1660  143.0830 C   0  0  1  0  0  3  0  0  0  0  0  0
  189.0020  174.1720  143.1590 C   0  0  2  0  0  3  0  0  0  0  0  0
  188.7820  172.8460  142.7550 O   0  0  0  0  0  0  0  0  0  0  0  0
  191.0580  173.0970  141.8370 C   0  0  1  0  0  0  0  0  0  0  0  0
  191.2260  174.3770  141.2940 O   0  0  0  0  0  1  0  0  0  0  0  0
  192.4340  171.7240  143.5330 C   0  0  0  0  0  1  0  0  0  0  0  0
  193.1770  172.0500  141.2850 O   0  0  0  0  0  1  0  0  0  0  0  0
  192.4530  172.6480  142.3190 C   0  0  1  0  0  3  0  0  0  0  0  0
  190.5490  172.1350  140.7660 C   0  0  0  0  0  0  0  0  0  0  0  0
  190.4650  170.9400  141.0240 O   0  0  0  0  0  0  0  0  0  0  0  0
  191.2540  172.4730  138.2680 C   0  0  1  0  0  3  0  0  0  0  0  0
  189.3300  171.5970  138.6770 C   0  0  2  0  0  3  0  0  0  0  0  0
  188.8040  172.9780  138.9780 C   0  0  0  0  0  2  0  0  0  0  0  0
  190.2270  172.6230  139.3730 C   0  0  1  0  0  0  0  0  0  0  0  0
  190.3070  171.5610  137.5140 C   0  0  0  0  0  2  0  0  0  0  0  0
  190.9020  173.6760  136.2370 O   0  0  0  0  0  1  0  0  0  0  0  0
  191.4440  173.7830  137.5170 C   0  0  0  0  0  2  0  0  0  0  0  0
  187.0480  178.4810  142.8420 C   0  0  0  0  0  2  0  0  0  0  0  0
  186.6740  178.0810  145.2860 C   0  0  0  0  0  3  0  0  0  0  0  0
  184.8660  179.0000  143.9690 C   0  0  0  0  0  3  0  0  0  0  0  0
  186.1810  178.5280  144.0580 C   0  0  0  0  0  0  0  0  0  0  0  0
  184.5730  178.5930  146.3040 N   0  0  0  0  0  0  0  0  0  0  0  0
  184.0710  179.0280  145.1160 C   0  0  0  0  0  3  0  0  0  0  0  0
  186.3270  177.6620  147.6680 N   0  0  0  0  0  1  0  0  0  0  0  0
  185.8440  178.1200  146.4110 C   0  0  0  0  0  0  0  0  0  0  0  0
  189.4860  177.9350  142.5510 C   0  0  0  0  0  2  0  0  0  0  0  0
  190.2710  178.2350  143.6730 O   0  0  0  0  0  0  0  0  0  0  0  0
  190.9830  177.1240  143.9470 O   0  0  0  0  0  0  0  0  0  0  0  0
  189.8550  176.2480  145.9240 C   0  0  0  0  0  3  0  0  0  0  0  0
  189.9160  175.6530  147.1870 C   0  0  0  0  0  3  0  0  0  0  0  0
  191.0330  176.5560  145.2250 C   0  0  0  0  0  0  0  0  0  0  0  0
  192.3340  175.6740  147.0780 C   0  0  0  0  0  3  0  0  0  0  0  0
  191.1540  175.3630  147.7620 C   0  0  0  0  0  3  0  0  0  0  0  0
  192.2770  176.2760  145.8150 C   0  0  0  0  0  0  0  0  0  0  0  0
  193.5470  176.5900  145.0940 C   0  0  0  0  0  2  0  0  0  0  0  0
  194.0440  175.3970  144.4280 N   0  0  0  0  0  2  0  0  0  0  0  0
  195.8250  174.4450  145.7710 C   0  0  0  0  0  1  0  0  0  0  0  0
  195.4840  175.3820  144.6320 C   0  0  0  0  0  2  0  0  0  0  0  0
  1 30  1  6  0  0  0
  3  2  1  1  0  0  0
  3  1  1  0  0  0  0
  4  3  1  0  0  0  0
  5  8  1  6  0  0  0
  5  6  1  0  0  0  0
  6  4  1  6  0  0  0
  7  5  1  0  0  0  0
  7  6  1  0  0  0  0
  8  9  1  6  0  0  0
  8 12  1  0  0  0  0
 11 12  1  0  0  0  0
 12 10  1  1  0  0  0
 13 14  2  0  0  0  0
 13  8  1  0  0  0  0
 15 21  1  6  0  0  0
 15 18  1  0  0  0  0
 16 19  1  6  0  0  0
 16 17  1  0  0  0  0
 16 18  1  0  0  0  0
 17 18  1  0  0  0  0
 18 13  1  1  0  0  0
 19 15  1  0  0  0  0
 20 21  1  0  0  0  0
 22  1  1  0  0  0  0
 22 25  1  0  0  0  0
 23 29  1  0  0  0  0
 24 25  1  0  0  0  0
 24 27  2  0  0  0  0
 25 23  2  0  0  0  0
 26 29  2  0  0  0  0
 27 26  1  0  0  0  0
 29 28  1  0  0  0  0
 30 31  1  0  0  0  0
 31 32  1  0  0  0  0
 32 35  1  0  0  0  0
 33 34  1  0  0  0  0
 34 37  2  0  0  0  0
 35 38  1  0  0  0  0
 35 33  2  0  0  0  0
 36 37  1  0  0  0  0
 38 36  2  0  0  0  0
 39 38  1  0  0  0  0
 40 42  1  0  0  0  0
 40 39  1  0  0  0  0
 42 41  1  0  0  0  0
M  END
>  <MODEL>
8

>  <REMARK>
 VINA RESULT:      -6.1      2.715      6.211
  Name = 
  17 active torsions:
  status: ('A' for Active; 'I' for Inactive)
    1  A    between atoms: C_1  and  C_4
    2  A    between atoms: C_1  and  C_24
    3  A    between atoms: C_1  and  C_32
    4  A    between atoms: N_3  and  C_33
    5  A    between atoms: N_3  and  C_36
    6  A    between atoms: C_4  and  C_17
    7  A    between atoms: C_5  and  C_20
    8  A    between atoms: C_5  and  C_31
    9  A    between atoms: C_8  and  C_19
   10  A    between atoms: O_15  and  O_30
   11  A    between atoms: O_15  and  C_37
   12  A    between atoms: C_21  and  O_30
   13  A    between atoms: C_28  and  C_40
   14  A    between atoms: C_31  and  C_34
   15  A    between atoms: C_31  and  C_37
   16  A    between atoms: C_34  and  C_40
   17  A    between atoms: C_35  and  C_36
                            x       y       z     vdW  Elec       q    Type
                         _______ _______ _______ _____ _____    ______ ____

>  <TORSDO>
F 17

$$$$
=
 OpenBabel11062419373D

 42 46  0  0  1  0  0  0  0  0999 V2000
  191.5600  172.2250  143.3030 C   0  0  2  0  0  3  0  0  0  0  0  0
  189.2030  171.9620  143.8320 O   0  0  0  0  0  1  0  0  0  0  0  0
  190.3690  172.6480  144.1840 C   0  0  2  0  0  3  0  0  0  0  0  0
  190.1140  174.1560  144.2760 C   0  0  0  0  0  2  0  0  0  0  0  0
  190.0140  176.2790  142.8060 C   0  0  1  0  0  3  0  0  0  0  0  0
  190.6010  174.9130  143.0460 C   0  0  2  0  0  3  0  0  0  0  0  0
  189.5210  175.1150  142.1730 O   0  0  0  0  0  0  0  0  0  0  0  0
  188.9730  176.8920  143.7940 C   0  0  1  0  0  0  0  0  0  0  0  0
  188.3720  175.8750  144.5480 O   0  0  0  0  0  1  0  0  0  0  0  0
  189.7720  177.2310  146.2230 C   0  0  0  0  0  1  0  0  0  0  0  0
  191.0390  178.0330  144.3610 O   0  0  0  0  0  1  0  0  0  0  0  0
  189.7370  177.7780  144.7990 C   0  0  1  0  0  3  0  0  0  0  0  0
  187.9030  177.7210  143.0860 C   0  0  0  0  0  0  0  0  0  0  0  0
  188.2020  178.3470  142.0760 O   0  0  0  0  0  0  0  0  0  0  0  0
  186.2720  178.7240  144.8700 C   0  0  1  0  0  3  0  0  0  0  0  0
  185.6980  178.8140  142.7960 C   0  0  2  0  0  3  0  0  0  0  0  0
  185.2990  177.3620  142.8800 C   0  0  0  0  0  2  0  0  0  0  0  0
  186.5110  177.8440  143.6580 C   0  0  1  0  0  0  0  0  0  0  0  0
  185.3580  179.6090  144.0460 C   0  0  0  0  0  2  0  0  0  0  0  0
  186.2400  176.9360  146.4490 O   0  0  0  0  0  1  0  0  0  0  0  0
  185.4780  177.9830  145.9360 C   0  0  0  0  0  2  0  0  0  0  0  0
  191.1060  171.3320  142.1500 C   0  0  0  0  0  2  0  0  0  0  0  0
  189.6920  172.2000  140.2740 C   0  0  0  0  0  3  0  0  0  0  0  0
  192.0500  172.7350  140.2950 C   0  0  0  0  0  3  0  0  0  0  0  0
  190.9440  172.1110  140.8850 C   0  0  0  0  0  0  0  0  0  0  0  0
  190.6470  173.5300  138.5330 N   0  0  0  0  0  0  0  0  0  0  0  0
  191.8780  173.4510  139.1090 C   0  0  0  0  0  3  0  0  0  0  0  0
  188.2950  173.0160  138.4430 N   0  0  0  0  0  1  0  0  0  0  0  0
  189.5620  172.9210  139.0830 C   0  0  0  0  0  0  0  0  0  0  0  0
  192.6840  171.5540  144.0960 C   0  0  0  0  0  2  0  0  0  0  0  0
  193.9410  172.0540  143.7270 O   0  0  0  0  0  0  0  0  0  0  0  0
  193.7570  173.3520  143.4150 O   0  0  0  0  0  0  0  0  0  0  0  0
  195.6020  173.5840  141.8360 C   0  0  0  0  0  3  0  0  0  0  0  0
  196.5700  174.3780  141.2170 C   0  0  0  0  0  3  0  0  0  0  0  0
  194.7510  174.1310  142.8100 C   0  0  0  0  0  0  0  0  0  0  0  0
  195.8600  176.2750  142.5430 C   0  0  0  0  0  3  0  0  0  0  0  0
  196.6980  175.7240  141.5670 C   0  0  0  0  0  3  0  0  0  0  0  0
  194.8930  175.4810  143.1700 C   0  0  0  0  0  0  0  0  0  0  0  0
  193.9990  176.0890  144.2010 C   0  0  0  0  0  2  0  0  0  0  0  0
  194.8000  176.7420  145.2250 N   0  0  0  0  0  2  0  0  0  0  0  0
  193.0520  175.4630  146.3180 C   0  0  0  0  0  1  0  0  0  0  0  0
  194.0980  176.5460  146.4830 C   0  0  0  0  0  2  0  0  0  0  0  0
  1 22  1  6  0  0  0
  1 30  1  0  0  0  0
  1  3  1  0  0  0  0
  3  2  1  6  0  0  0
  3  4  1  0  0  0  0
  5  6  1  0  0  0  0
  5  8  1  1  0  0  0
  6  4  1  1  0  0  0
  7  5  1  0  0  0  0
  7  6  1  0  0  0  0
  8  9  1  1  0  0  0
  8 12  1  0  0  0  0
 11 12  1  0  0  0  0
 12 10  1  1  0  0  0
 13  8  1  0  0  0  0
 14 13  2  0  0  0  0
 15 21  1  1  0  0  0
 16 17  1  1  0  0  0
 16 18  1  0  0  0  0
 16 19  1  0  0  0  0
 17 18  1  0  0  0  0
 18 13  1  6  0  0  0
 18 15  1  0  0  0  0
 19 15  1  0  0  0  0
 21 20  1  0  0  0  0
 23 25  1  0  0  0  0
 24 25  2  0  0  0  0
 25 22  1  0  0  0  0
 26 29  1  0  0  0  0
 26 27  2  0  0  0  0
 27 24  1  0  0  0  0
 28 29  1  0  0  0  0
 29 23  2  0  0  0  0
 31 30  1  0  0  0  0
 32 31  1  0  0  0  0
 33 35  1  0  0  0  0
 34 37  1  0  0  0  0
 34 33  2  0  0  0  0
 35 38  2  0  0  0  0
 35 32  1  0  0  0  0
 36 38  1  0  0  0  0
 37 36  2  0  0  0  0
 38 39  1  0  0  0  0
 39 40  1  0  0  0  0
 40 42  1  0  0  0  0
 41 42  1  0  0  0  0
M  END
>  <MODEL>
9

>  <REMARK>
 VINA RESULT:      -6.1      3.132      8.959
  Name = 
  17 active torsions:
  status: ('A' for Active; 'I' for Inactive)
    1  A    between atoms: C_1  and  C_4
    2  A    between atoms: C_1  and  C_24
    3  A    between atoms: C_1  and  C_32
    4  A    between atoms: N_3  and  C_33
    5  A    between atoms: N_3  and  C_36
    6  A    between atoms: C_4  and  C_17
    7  A    between atoms: C_5  and  C_20
    8  A    between atoms: C_5  and  C_31
    9  A    between atoms: C_8  and  C_19
   10  A    between atoms: O_15  and  O_30
   11  A    between atoms: O_15  and  C_37
   12  A    between atoms: C_21  and  O_30
   13  A    between atoms: C_28  and  C_40
   14  A    between atoms: C_31  and  C_34
   15  A    between atoms: C_31  and  C_37
   16  A    between atoms: C_34  and  C_40
   17  A    between atoms: C_35  and  C_36
                            x       y       z     vdW  Elec       q    Type
                         _______ _______ _______ _____ _____    ______ ____

>  <TORSDO>
F 17

$$$$
