=
 OpenBabel11062420453D

 45 51  0  0  1  0  0  0  0  0999 V2000
  195.2190  172.7120  142.5710 N   0  0  0  0  0  0  0  0  0  0  0  0
  189.9320  173.9380  143.0020 C   0  0  2  0  0  3  0  0  0  0  0  0
  190.2390  172.0420  140.9380 C   0  0  2  0  0  3  0  0  0  0  0  0
  196.1290  175.0000  143.5540 O   0  0  0  0  0  0  0  0  0  0  0  0
  191.3500  173.5530  142.5510 C   0  0  2  0  0  3  0  0  0  0  0  0
  188.9000  172.4000  141.6130 C   0  0  2  0  0  3  0  0  0  0  0  0
  196.1470  172.0200  143.1460 C   0  0  0  0  0  3  0  0  0  0  0  0
  195.0240  169.7860  143.0410 C   0  0  0  0  0  3  0  0  0  0  0  0
  192.8070  170.7590  143.4950 C   0  0  0  0  0  2  0  0  0  0  0  0
  193.7470  170.2440  142.4180 C   0  0  0  0  0  2  0  0  0  0  0  0
  190.1760  170.7700  140.3660 O   0  0  0  0  0  1  0  0  0  0  0  0
  188.1170  173.4190  140.7960 C   0  0  0  0  0  2  0  0  0  0  0  0
  196.2580  174.6610  141.1260 O   0  0  0  0  0  0  0  0  0  0  0  0
  196.0790  170.5560  143.3540 C   0  0  0  0  0  0  0  0  0  0  0  0
  193.8510  175.2230  142.1600 C   0  0  0  0  0  2  0  0  0  0  0  0
  189.0360  172.8410  142.9500 O   0  0  0  0  0  0  0  0  0  0  0  0
  187.9600  175.3880  142.2940 C   0  0  1  0  0  3  0  0  0  0  0  0
  191.4210  171.0200  142.9230 C   0  0  0  0  0  2  0  0  0  0  0  0
  193.0390  175.1670  143.4450 C   0  0  0  0  0  2  0  0  0  0  0  0
  191.4250  172.1650  141.9000 C   0  0  1  0  0  3  0  0  0  0  0  0
  195.4300  174.4160  142.3560 S   0  0  0  0  0  0  0  0  0  0  0  0
  188.5730  174.8710  140.9980 C   0  0  1  0  0  3  0  0  0  0  0  0
  192.3950  173.8010  143.6310 C   0  0  0  0  0  2  0  0  0  0  0  0
  189.4570  175.1720  142.2150 C   0  0  2  0  0  3  0  0  0  0  0  0
  197.2490  169.9160  144.0590 C   0  0  1  0  0  3  0  0  0  0  0  0
  195.8780  170.3220  146.0450 O   0  0  0  0  0  1  0  0  0  0  0  0
  197.9410  170.8720  145.0200 C   0  0  0  0  0  2  0  0  0  0  0  0
  197.0730  169.7670  145.5780 C   0  0  2  0  0  3  0  0  0  0  0  0
  187.5520  177.1200  142.1280 S   0  0  0  0  0  0  0  0  0  0  0  0
  188.8260  177.9140  142.0550 O   0  0  0  0  0  0  0  0  0  0  0  0
  186.7820  177.3380  140.8530 O   0  0  0  0  0  0  0  0  0  0  0  0
  185.2000  177.8740  143.4180 C   0  0  0  0  0  0  0  0  0  0  0  0
  186.6220  177.6580  143.5120 N   0  0  0  0  0  0  0  0  0  0  0  0
  184.5800  177.6340  142.3490 O   0  0  0  0  0  0  0  0  0  0  0  0
  184.4190  178.3890  144.5830 C   0  0  0  0  0  1  0  0  0  0  0  0
  188.3010  176.3380  146.1380 C   0  0  0  0  0  0  0  0  0  0  0  0
  188.5230  175.2710  147.0080 C   0  0  0  0  0  3  0  0  0  0  0  0
  188.8160  178.0600  144.6370 C   0  0  0  0  0  2  0  0  0  0  0  0
  187.2840  177.9220  144.7940 C   0  0  2  0  0  3  0  0  0  0  0  0
  190.6610  176.6380  145.7640 C   0  0  0  0  0  3  0  0  0  0  0  0
  189.3330  176.9980  145.5340 C   0  0  0  0  0  0  0  0  0  0  0  0
  189.8500  174.8900  147.2600 C   0  0  0  0  0  3  0  0  0  0  0  0
  187.0400  176.8310  145.7400 N   0  0  0  0  0  2  0  0  0  0  0  0
  190.9170  175.5700  146.6410 C   0  0  0  0  0  0  0  0  0  0  0  0
  192.3180  175.1580  146.9150 C   0  0  0  0  0  1  0  0  0  0  0  0
  1  7  2  0  0  0  0
  2 16  1  6  0  0  0
  3 11  1  1  0  0  0
  3  6  1  0  0  0  0
  3 20  1  0  0  0  0
  5  2  1  0  0  0  0
  5 23  1  1  0  0  0
  6 12  1  6  0  0  0
  6 16  1  0  0  0  0
  7 14  1  0  0  0  0
  8 14  2  0  0  0  0
 10  8  1  0  0  0  0
 10  9  1  0  0  0  0
 13 21  2  0  0  0  0
 14 25  1  0  0  0  0
 15 21  1  0  0  0  0
 15 19  1  0  0  0  0
 17 29  1  6  0  0  0
 18  9  1  0  0  0  0
 19 23  1  0  0  0  0
 20  5  1  0  0  0  0
 20 18  1  1  0  0  0
 21  1  1  0  0  0  0
 21  4  2  0  0  0  0
 22 12  1  1  0  0  0
 22 24  1  0  0  0  0
 22 17  1  0  0  0  0
 24 17  1  0  0  0  0
 24  2  1  0  0  0  0
 25 27  1  0  0  0  0
 25 28  1  0  0  0  0
 27 28  1  0  0  0  0
 28 26  1  0  0  0  0
 29 33  1  0  0  0  0
 30 29  2  0  0  0  0
 31 29  2  0  0  0  0
 32 33  1  0  0  0  0
 32 35  1  0  0  0  0
 33 39  1  0  0  0  0
 34 32  2  0  0  0  0
 36 37  1  0  0  0  0
 37 42  2  0  0  0  0
 38 39  1  0  0  0  0
 38 41  1  0  0  0  0
 39 43  1  0  0  0  0
 40 44  2  0  0  0  0
 41 40  1  0  0  0  0
 41 36  2  0  0  0  0
 43 36  1  0  0  0  0
 44 45  1  0  0  0  0
 44 42  1  0  0  0  0
M  END
>  <MODEL>
1

>  <REMARK>
 VINA RESULT:      -9.3      0.000      0.000
  Name = 
  4 active torsions:
  status: ('A' for Active; 'I' for Inactive)
    1  A    between atoms: S_2  and  C_28
    2  A    between atoms: S_2  and  N_35
    3  A    between atoms: C_8  and  C_22
    4  A    between atoms: C_18  and  N_35
                            x       y       z     vdW  Elec       q    Type
                         _______ _______ _______ _____ _____    ______ ____

>  <TORSDO>
F 4

$$$$
=
 OpenBabel11062420453D

 45 51  0  0  1  0  0  0  0  0999 V2000
  187.9530  176.9810  144.0810 N   0  0  0  0  0  0  0  0  0  0  0  0
  192.3860  173.8920  144.7490 C   0  0  2  0  0  3  0  0  0  0  0  0
  192.7120  176.2510  146.2590 C   0  0  2  0  0  3  0  0  0  0  0  0
  187.2790  176.0130  141.7070 O   0  0  0  0  0  0  0  0  0  0  0  0
  191.3550  175.0220  144.5960 C   0  0  2  0  0  3  0  0  0  0  0  0
  193.5570  174.9740  146.4290 C   0  0  2  0  0  3  0  0  0  0  0  0
  186.7220  177.0810  144.4630 C   0  0  0  0  0  3  0  0  0  0  0  0
  187.1360  177.1860  146.9300 C   0  0  0  0  0  3  0  0  0  0  0  0
  188.9710  175.5470  146.8010 C   0  0  0  0  0  2  0  0  0  0  0  0
  188.6190  177.0230  146.8810 C   0  0  0  0  0  2  0  0  0  0  0  0
  192.7350  177.0140  147.4280 O   0  0  0  0  0  1  0  0  0  0  0  0
  194.8750  175.0700  145.6720 C   0  0  0  0  0  2  0  0  0  0  0  0
  188.3290  178.2310  141.7880 O   0  0  0  0  0  0  0  0  0  0  0  0
  186.3030  177.2200  145.8760 C   0  0  0  0  0  0  0  0  0  0  0  0
  189.9190  176.1070  142.1550 C   0  0  0  0  0  2  0  0  0  0  0  0
  192.8730  173.7860  146.0760 O   0  0  0  0  0  0  0  0  0  0  0  0
  194.7340  173.2480  143.9980 C   0  0  1  0  0  3  0  0  0  0  0  0
  190.4680  175.3380  146.9780 C   0  0  0  0  0  2  0  0  0  0  0  0
  189.9170  174.6470  142.5840 C   0  0  0  0  0  2  0  0  0  0  0  0
  191.2760  175.9430  145.8210 C   0  0  1  0  0  3  0  0  0  0  0  0
  188.3190  176.8570  142.3950 S   0  0  0  0  0  0  0  0  0  0  0  0
  194.7620  174.7620  144.1720 C   0  0  1  0  0  3  0  0  0  0  0  0
  190.0060  174.5190  144.0980 C   0  0  0  0  0  2  0  0  0  0  0  0
  193.4900  174.0540  143.6890 C   0  0  2  0  0  3  0  0  0  0  0  0
  184.8200  177.3060  146.1390 C   0  0  1  0  0  3  0  0  0  0  0  0
  185.1340  179.6150  145.3880 O   0  0  0  0  0  1  0  0  0  0  0  0
  184.4830  178.2950  147.2450 C   0  0  0  0  0  2  0  0  0  0  0  0
  184.1930  178.6690  145.8090 C   0  0  2  0  0  3  0  0  0  0  0  0
  195.5910  172.7900  142.4980 S   0  0  0  0  0  0  0  0  0  0  0  0
  194.7870  173.2590  141.3170 O   0  0  0  0  0  0  0  0  0  0  0  0
  196.9350  173.4660  142.4560 O   0  0  0  0  0  0  0  0  0  0  0  0
  196.9900  170.4030  142.8280 C   0  0  0  0  0  0  0  0  0  0  0  0
  195.7710  171.0500  142.4100 N   0  0  0  0  0  0  0  0  0  0  0  0
  197.9400  171.0700  143.3130 O   0  0  0  0  0  0  0  0  0  0  0  0
  197.1630  168.9250  142.6970 C   0  0  0  0  0  1  0  0  0  0  0  0
  192.4230  170.6490  142.1080 C   0  0  0  0  0  0  0  0  0  0  0  0
  191.1420  170.8100  142.6340 C   0  0  0  0  0  3  0  0  0  0  0  0
  194.1520  170.7450  140.5320 C   0  0  0  0  0  2  0  0  0  0  0  0
  194.6850  170.2160  141.8830 C   0  0  2  0  0  3  0  0  0  0  0  0
  191.7430  171.4970  139.9600 C   0  0  0  0  0  3  0  0  0  0  0  0
  192.7160  170.9830  140.8160 C   0  0  0  0  0  0  0  0  0  0  0  0
  190.1430  171.3230  141.7930 C   0  0  0  0  0  3  0  0  0  0  0  0
  193.5540  170.1860  142.8140 N   0  0  0  0  0  2  0  0  0  0  0  0
  190.4410  171.6660  140.4590 C   0  0  0  0  0  0  0  0  0  0  0  0
  189.3750  172.2090  139.5780 C   0  0  0  0  0  1  0  0  0  0  0  0
  1  7  2  0  0  0  0
  2 16  1  1  0  0  0
  3  6  1  0  0  0  0
  3 11  1  1  0  0  0
  4 21  2  0  0  0  0
  5 23  1  1  0  0  0
  5  2  1  0  0  0  0
  5 20  1  0  0  0  0
  6 12  1  6  0  0  0
  7 14  1  0  0  0  0
  9 10  1  0  0  0  0
  9 18  1  0  0  0  0
 10  8  1  0  0  0  0
 13 21  2  0  0  0  0
 14 25  1  0  0  0  0
 14  8  2  0  0  0  0
 15 21  1  0  0  0  0
 15 19  1  0  0  0  0
 16  6  1  0  0  0  0
 17 29  1  6  0  0  0
 17 22  1  0  0  0  0
 19 23  1  0  0  0  0
 20  3  1  0  0  0  0
 20 18  1  1  0  0  0
 21  1  1  0  0  0  0
 22 12  1  1  0  0  0
 24 17  1  0  0  0  0
 24 22  1  0  0  0  0
 24  2  1  0  0  0  0
 25 27  1  0  0  0  0
 26 28  1  0  0  0  0
 28 25  1  0  0  0  0
 28 27  1  0  0  0  0
 30 29  2  0  0  0  0
 31 29  2  0  0  0  0
 32 34  2  0  0  0  0
 33 29  1  0  0  0  0
 33 32  1  0  0  0  0
 35 32  1  0  0  0  0
 36 37  1  0  0  0  0
 36 43  1  0  0  0  0
 38 41  1  0  0  0  0
 38 39  1  0  0  0  0
 39 33  1  0  0  0  0
 39 43  1  0  0  0  0
 40 44  2  0  0  0  0
 40 41  1  0  0  0  0
 41 36  2  0  0  0  0
 42 37  2  0  0  0  0
 44 42  1  0  0  0  0
 45 44  1  0  0  0  0
M  END
>  <MODEL>
2

>  <REMARK>
 VINA RESULT:      -8.9      1.987      9.486
  Name = 
  4 active torsions:
  status: ('A' for Active; 'I' for Inactive)
    1  A    between atoms: S_2  and  C_28
    2  A    between atoms: S_2  and  N_35
    3  A    between atoms: C_8  and  C_22
    4  A    between atoms: C_18  and  N_35
                            x       y       z     vdW  Elec       q    Type
                         _______ _______ _______ _____ _____    ______ ____

>  <TORSDO>
F 4

$$$$
=
 OpenBabel11062420453D

 45 51  0  0  1  0  0  0  0  0999 V2000
  188.0950  176.8970  144.0560 N   0  0  0  0  0  0  0  0  0  0  0  0
  192.5560  173.8930  144.9020 C   0  0  2  0  0  3  0  0  0  0  0  0
  192.8580  176.3380  146.2730 C   0  0  2  0  0  3  0  0  0  0  0  0
  187.4320  175.7860  141.7420 O   0  0  0  0  0  0  0  0  0  0  0  0
  191.5140  175.0020  144.6830 C   0  0  2  0  0  3  0  0  0  0  0  0
  193.7160  175.0800  146.5170 C   0  0  2  0  0  3  0  0  0  0  0  0
  186.8630  177.0060  144.4320 C   0  0  0  0  0  3  0  0  0  0  0  0
  187.2740  177.2580  146.8880 C   0  0  0  0  0  3  0  0  0  0  0  0
  189.1240  175.6320  146.8540 C   0  0  0  0  0  2  0  0  0  0  0  0
  188.7580  177.1070  146.8480 C   0  0  0  0  0  2  0  0  0  0  0  0
  192.8740  177.1680  147.3960 O   0  0  0  0  0  1  0  0  0  0  0  0
  195.0330  175.1450  145.7550 C   0  0  0  0  0  2  0  0  0  0  0  0
  188.4600  178.0150  141.6940 O   0  0  0  0  0  0  0  0  0  0  0  0
  186.4420  177.2230  145.8340 C   0  0  0  0  0  0  0  0  0  0  0  0
  190.0700  175.9310  142.1840 C   0  0  0  0  0  2  0  0  0  0  0  0
  193.0430  173.8680  146.2330 O   0  0  0  0  0  0  0  0  0  0  0  0
  194.9100  173.2280  144.1890 C   0  0  1  0  0  3  0  0  0  0  0  0
  190.6230  175.4470  147.0430 C   0  0  0  0  0  2  0  0  0  0  0  0
  190.0810  174.4980  142.6970 C   0  0  0  0  0  2  0  0  0  0  0  0
  191.4260  175.9920  145.8530 C   0  0  1  0  0  3  0  0  0  0  0  0
  188.4630  176.6780  142.3800 S   0  0  0  0  0  0  0  0  0  0  0  0
  194.9240  174.7500  144.2760 C   0  0  1  0  0  3  0  0  0  0  0  0
  190.1710  174.4580  144.2150 C   0  0  0  0  0  2  0  0  0  0  0  0
  193.6590  174.0030  143.8340 C   0  0  2  0  0  3  0  0  0  0  0  0
  184.9580  177.3100  146.0910 C   0  0  1  0  0  3  0  0  0  0  0  0
  185.2780  179.6220  145.3510 O   0  0  0  0  0  1  0  0  0  0  0  0
  184.6170  178.2960  147.1990 C   0  0  0  0  0  2  0  0  0  0  0  0
  184.3340  178.6760  145.7640 C   0  0  2  0  0  3  0  0  0  0  0  0
  195.7720  172.6920  142.7190 S   0  0  0  0  0  0  0  0  0  0  0  0
  196.0940  173.8960  141.8790 O   0  0  0  0  0  0  0  0  0  0  0  0
  197.0640  172.0230  143.1050 O   0  0  0  0  0  0  0  0  0  0  0  0
  194.1070  172.0370  140.5830 C   0  0  0  0  0  0  0  0  0  0  0  0
  194.7650  171.6010  141.7890 N   0  0  0  0  0  0  0  0  0  0  0  0
  194.2790  173.2020  140.1390 O   0  0  0  0  0  0  0  0  0  0  0  0
  193.2020  171.1220  139.8240 C   0  0  0  0  0  1  0  0  0  0  0  0
  195.7220  169.1590  143.9290 C   0  0  0  0  0  0  0  0  0  0  0  0
  196.7280  168.5350  144.6670 C   0  0  0  0  0  3  0  0  0  0  0  0
  193.6480  170.1520  143.4910 C   0  0  0  0  0  2  0  0  0  0  0  0
  194.5530  170.2210  142.2390 C   0  0  2  0  0  3  0  0  0  0  0  0
  194.2210  169.1610  145.8110 C   0  0  0  0  0  3  0  0  0  0  0  0
  194.5110  169.4650  144.4810 C   0  0  0  0  0  0  0  0  0  0  0  0
  196.4610  168.2150  146.0070 C   0  0  0  0  0  3  0  0  0  0  0  0
  195.8260  169.5860  142.5880 N   0  0  0  0  0  2  0  0  0  0  0  0
  195.2120  168.5270  146.5790 C   0  0  0  0  0  0  0  0  0  0  0  0
  194.9410  168.1830  147.9990 C   0  0  0  0  0  1  0  0  0  0  0  0
  1  7  2  0  0  0  0
  2 16  1  1  0  0  0
  3  6  1  0  0  0  0
  3 11  1  1  0  0  0
  4 21  2  0  0  0  0
  5 23  1  1  0  0  0
  5  2  1  0  0  0  0
  5 20  1  0  0  0  0
  6 12  1  6  0  0  0
  7 14  1  0  0  0  0
  9 18  1  0  0  0  0
 10  9  1  0  0  0  0
 10  8  1  0  0  0  0
 13 21  2  0  0  0  0
 14 25  1  0  0  0  0
 14  8  2  0  0  0  0
 15 21  1  0  0  0  0
 15 19  1  0  0  0  0
 16  6  1  0  0  0  0
 17 29  1  6  0  0  0
 17 22  1  0  0  0  0
 19 23  1  0  0  0  0
 20  3  1  0  0  0  0
 20 18  1  1  0  0  0
 21  1  1  0  0  0  0
 22 12  1  1  0  0  0
 24 17  1  0  0  0  0
 24 22  1  0  0  0  0
 24  2  1  0  0  0  0
 25 27  1  0  0  0  0
 26 28  1  0  0  0  0
 28 25  1  0  0  0  0
 28 27  1  0  0  0  0
 29 31  2  0  0  0  0
 30 29  2  0  0  0  0
 32 33  1  0  0  0  0
 33 39  1  0  0  0  0
 33 29  1  0  0  0  0
 34 32  2  0  0  0  0
 35 32  1  0  0  0  0
 36 41  2  0  0  0  0
 36 37  1  0  0  0  0
 37 42  2  0  0  0  0
 38 41  1  0  0  0  0
 39 43  1  0  0  0  0
 39 38  1  0  0  0  0
 40 44  2  0  0  0  0
 41 40  1  0  0  0  0
 42 44  1  0  0  0  0
 43 36  1  0  0  0  0
 44 45  1  0  0  0  0
M  END
>  <MODEL>
3

>  <REMARK>
 VINA RESULT:      -8.9      2.154      9.407
  Name = 
  4 active torsions:
  status: ('A' for Active; 'I' for Inactive)
    1  A    between atoms: S_2  and  C_28
    2  A    between atoms: S_2  and  N_35
    3  A    between atoms: C_8  and  C_22
    4  A    between atoms: C_18  and  N_35
                            x       y       z     vdW  Elec       q    Type
                         _______ _______ _______ _____ _____    ______ ____

>  <TORSDO>
F 4

$$$$
=
 OpenBabel11062420453D

 45 51  0  0  1  0  0  0  0  0999 V2000
  188.1620  176.0670  145.4660 N   0  0  0  0  0  0  0  0  0  0  0  0
  191.4950  173.8650  141.7660 C   0  0  2  0  0  3  0  0  0  0  0  0
  188.9170  172.7870  141.3930 C   0  0  2  0  0  3  0  0  0  0  0  0
  190.0380  176.6080  147.2600 O   0  0  0  0  0  0  0  0  0  0  0  0
  190.3990  174.1840  142.7960 C   0  0  2  0  0  3  0  0  0  0  0  0
  190.0640  172.7010  140.3670 C   0  0  2  0  0  3  0  0  0  0  0  0
  187.5120  177.1540  145.7220 C   0  0  0  0  0  3  0  0  0  0  0  0
  186.1800  177.2610  143.6050 C   0  0  0  0  0  3  0  0  0  0  0  0
  188.0640  176.4360  142.2510 C   0  0  0  0  0  2  0  0  0  0  0  0
  186.7690  176.0580  142.9490 C   0  0  0  0  0  2  0  0  0  0  0  0
  187.6800  172.6490  140.7590 O   0  0  0  0  0  1  0  0  0  0  0  0
  190.7970  171.3690  140.4580 C   0  0  0  0  0  2  0  0  0  0  0  0
  188.5760  174.6790  147.6720 O   0  0  0  0  0  0  0  0  0  0  0  0
  186.4950  177.7410  144.8200 C   0  0  0  0  0  0  0  0  0  0  0  0
  190.4910  174.3950  145.8200 C   0  0  0  0  0  2  0  0  0  0  0  0
  190.9820  173.7740  140.4470 O   0  0  0  0  0  0  0  0  0  0  0  0
  193.1030  172.0030  141.1080 C   0  0  1  0  0  3  0  0  0  0  0  0
  188.5680  175.2890  141.3860 C   0  0  0  0  0  2  0  0  0  0  0  0
  191.3860  175.1750  144.8690 C   0  0  0  0  0  2  0  0  0  0  0  0
  188.9780  174.0710  142.2260 C   0  0  1  0  0  3  0  0  0  0  0  0
  189.3040  175.4620  146.6160 S   0  0  0  0  0  0  0  0  0  0  0  0
  191.8370  171.2990  141.5840 C   0  0  1  0  0  3  0  0  0  0  0  0
  190.6710  175.4740  143.5590 C   0  0  0  0  0  2  0  0  0  0  0  0
  192.2830  172.6230  142.2190 C   0  0  2  0  0  3  0  0  0  0  0  0
  185.8460  179.0250  145.2730 C   0  0  1  0  0  3  0  0  0  0  0  0
  184.3160  177.4900  146.4110 O   0  0  0  0  0  1  0  0  0  0  0  0
  184.4250  179.1750  144.7490 C   0  0  0  0  0  2  0  0  0  0  0  0
  184.6400  178.8350  146.2070 C   0  0  2  0  0  3  0  0  0  0  0  0
  194.5450  171.1730  141.7610 S   0  0  0  0  0  0  0  0  0  0  0  0
  194.5880  171.3760  143.2500 O   0  0  0  0  0  0  0  0  0  0  0  0
  194.4480  169.6960  141.4860 O   0  0  0  0  0  0  0  0  0  0  0  0
  196.6680  171.1820  139.9570 C   0  0  0  0  0  0  0  0  0  0  0  0
  196.0010  171.8400  141.0520 N   0  0  0  0  0  0  0  0  0  0  0  0
  196.1910  170.1330  139.4480 O   0  0  0  0  0  0  0  0  0  0  0  0
  197.9410  171.7210  139.3920 C   0  0  0  0  0  1  0  0  0  0  0  0
  195.4030  174.8410  142.4990 C   0  0  0  0  0  0  0  0  0  0  0  0
  194.5790  175.9540  142.6590 C   0  0  0  0  0  3  0  0  0  0  0  0
  196.7510  173.0290  143.1180 C   0  0  0  0  0  2  0  0  0  0  0  0
  196.5850  173.0770  141.5810 C   0  0  2  0  0  3  0  0  0  0  0  0
  195.7130  174.6180  144.8760 C   0  0  0  0  0  3  0  0  0  0  0  0
  195.9500  174.1930  143.5690 C   0  0  0  0  0  0  0  0  0  0  0  0
  194.3260  176.4060  143.9640 C   0  0  0  0  0  3  0  0  0  0  0  0
  195.7340  174.2280  141.2720 N   0  0  0  0  0  2  0  0  0  0  0  0
  194.8900  175.7410  145.0700 C   0  0  0  0  0  0  0  0  0  0  0  0
  194.6150  176.2280  146.4470 C   0  0  0  0  0  1  0  0  0  0  0  0
  1  7  2  0  0  0  0
  1 21  1  0  0  0  0
  2 16  1  6  0  0  0
  2 24  1  0  0  0  0
  2  5  1  0  0  0  0
  3 11  1  6  0  0  0
  3 20  1  0  0  0  0
  5 23  1  6  0  0  0
  6 16  1  0  0  0  0
  6 12  1  1  0  0  0
  6  3  1  0  0  0  0
  8 14  2  0  0  0  0
  9 10  1  0  0  0  0
 10  8  1  0  0  0  0
 14 25  1  0  0  0  0
 14  7  1  0  0  0  0
 15 21  1  0  0  0  0
 17 22  1  0  0  0  0
 17 29  1  1  0  0  0
 17 24  1  0  0  0  0
 18  9  1  0  0  0  0
 19 15  1  0  0  0  0
 20 18  1  6  0  0  0
 20  5  1  0  0  0  0
 21  4  2  0  0  0  0
 21 13  2  0  0  0  0
 22 12  1  6  0  0  0
 22 24  1  0  0  0  0
 23 19  1  0  0  0  0
 25 28  1  0  0  0  0
 27 25  1  0  0  0  0
 27 28  1  0  0  0  0
 28 26  1  0  0  0  0
 29 30  2  0  0  0  0
 31 29  2  0  0  0  0
 32 33  1  0  0  0  0
 33 39  1  0  0  0  0
 33 29  1  0  0  0  0
 34 32  2  0  0  0  0
 35 32  1  0  0  0  0
 36 37  2  0  0  0  0
 36 41  1  0  0  0  0
 37 42  1  0  0  0  0
 38 41  1  0  0  0  0
 39 38  1  0  0  0  0
 40 44  1  0  0  0  0
 41 40  2  0  0  0  0
 42 44  2  0  0  0  0
 43 39  1  0  0  0  0
 43 36  1  0  0  0  0
 44 45  1  0  0  0  0
M  END
>  <MODEL>
4

>  <REMARK>
 VINA RESULT:      -8.9      2.549      8.845
  Name = 
  4 active torsions:
  status: ('A' for Active; 'I' for Inactive)
    1  A    between atoms: S_2  and  C_28
    2  A    between atoms: S_2  and  N_35
    3  A    between atoms: C_8  and  C_22
    4  A    between atoms: C_18  and  N_35
                            x       y       z     vdW  Elec       q    Type
                         _______ _______ _______ _____ _____    ______ ____

>  <TORSDO>
F 4

$$$$
=
 OpenBabel11062420453D

 45 51  0  0  1  0  0  0  0  0999 V2000
  188.4960  176.0380  145.0090 N   0  0  0  0  0  0  0  0  0  0  0  0
  192.3910  174.6730  141.4580 C   0  0  2  0  0  3  0  0  0  0  0  0
  190.4340  172.6440  141.4520 C   0  0  2  0  0  3  0  0  0  0  0  0
  190.0280  177.5570  146.5490 O   0  0  0  0  0  0  0  0  0  0  0  0
  191.2660  174.7220  142.5040 C   0  0  2  0  0  3  0  0  0  0  0  0
  191.5150  172.8260  140.3690 C   0  0  2  0  0  3  0  0  0  0  0  0
  187.4750  176.8200  145.1400 C   0  0  0  0  0  3  0  0  0  0  0  0
  186.1890  176.0410  143.1390 C   0  0  0  0  0  3  0  0  0  0  0  0
  188.2340  175.7780  141.7920 C   0  0  0  0  0  2  0  0  0  0  0  0
  187.1940  175.0600  142.6360 C   0  0  0  0  0  2  0  0  0  0  0  0
  189.3430  171.9360  140.9430 O   0  0  0  0  0  1  0  0  0  0  0  0
  192.7100  171.9140  140.6120 C   0  0  0  0  0  2  0  0  0  0  0  0
  189.4370  175.3190  147.3660 O   0  0  0  0  0  0  0  0  0  0  0  0
  186.3030  176.8070  144.2370 C   0  0  0  0  0  0  0  0  0  0  0  0
  191.2950  175.4720  145.4430 C   0  0  0  0  0  2  0  0  0  0  0  0
  191.9430  174.1660  140.2120 O   0  0  0  0  0  0  0  0  0  0  0  0
  194.5920  173.4840  140.9790 C   0  0  1  0  0  3  0  0  0  0  0  0
  189.1370  174.7800  141.0810 C   0  0  0  0  0  2  0  0  0  0  0  0
  191.8070  176.3580  144.3170 C   0  0  0  0  0  2  0  0  0  0  0  0
  189.9970  173.9770  142.0680 C   0  0  1  0  0  3  0  0  0  0  0  0
  189.7940  176.1250  146.1500 S   0  0  0  0  0  0  0  0  0  0  0  0
  193.7050  172.4440  141.6530 C   0  0  1  0  0  3  0  0  0  0  0  0
  191.0210  176.1290  143.0340 C   0  0  0  0  0  2  0  0  0  0  0  0
  193.6040  173.9260  142.0380 C   0  0  2  0  0  3  0  0  0  0  0  0
  185.2090  177.8030  144.5310 C   0  0  1  0  0  3  0  0  0  0  0  0
  186.3140  179.0770  142.7570 O   0  0  0  0  0  1  0  0  0  0  0  0
  185.7520  179.1240  145.0580 C   0  0  0  0  0  2  0  0  0  0  0  0
  185.2310  179.0550  143.6410 C   0  0  2  0  0  3  0  0  0  0  0  0
  196.2490  173.3950  141.6430 S   0  0  0  0  0  0  0  0  0  0  0  0
  196.4450  172.0480  142.2810 O   0  0  0  0  0  0  0  0  0  0  0  0
  197.2500  173.5440  140.5290 O   0  0  0  0  0  0  0  0  0  0  0  0
  196.6630  176.0200  142.4820 C   0  0  0  0  0  0  0  0  0  0  0  0
  196.4830  174.6390  142.8540 N   0  0  0  0  0  0  0  0  0  0  0  0
  196.6080  176.3750  141.2750 O   0  0  0  0  0  0  0  0  0  0  0  0
  196.9210  177.0700  143.5130 C   0  0  0  0  0  1  0  0  0  0  0  0
  195.4540  172.4870  145.2560 C   0  0  0  0  0  0  0  0  0  0  0  0
  194.4780  171.6300  145.7630 C   0  0  0  0  0  3  0  0  0  0  0  0
  197.5790  173.2010  144.5780 C   0  0  0  0  0  2  0  0  0  0  0  0
  196.5240  174.2910  144.2790 C   0  0  2  0  0  3  0  0  0  0  0  0
  197.1950  170.8660  145.6260 C   0  0  0  0  0  3  0  0  0  0  0  0
  196.7670  172.1190  145.1870 C   0  0  0  0  0  0  0  0  0  0  0  0
  194.8820  170.3630  146.2140 C   0  0  0  0  0  3  0  0  0  0  0  0
  195.2280  173.7750  144.7250 N   0  0  0  0  0  2  0  0  0  0  0  0
  196.2360  169.9810  146.1460 C   0  0  0  0  0  0  0  0  0  0  0  0
  196.6510  168.6380  146.6270 C   0  0  0  0  0  1  0  0  0  0  0  0
  1  7  2  0  0  0  0
  1 21  1  0  0  0  0
  2 16  1  6  0  0  0
  2 24  1  0  0  0  0
  2  5  1  0  0  0  0
  3 11  1  6  0  0  0
  3 20  1  0  0  0  0
  5 23  1  6  0  0  0
  6 12  1  1  0  0  0
  6  3  1  0  0  0  0
  8 14  2  0  0  0  0
  9 10  1  0  0  0  0
 10  8  1  0  0  0  0
 14 25  1  0  0  0  0
 14  7  1  0  0  0  0
 15 21  1  0  0  0  0
 16  6  1  0  0  0  0
 17 29  1  1  0  0  0
 17 22  1  0  0  0  0
 17 24  1  0  0  0  0
 18  9  1  0  0  0  0
 19 15  1  0  0  0  0
 20 18  1  6  0  0  0
 20  5  1  0  0  0  0
 21  4  2  0  0  0  0
 21 13  2  0  0  0  0
 22 12  1  6  0  0  0
 22 24  1  0  0  0  0
 23 19  1  0  0  0  0
 25 27  1  0  0  0  0
 26 28  1  0  0  0  0
 28 25  1  0  0  0  0
 28 27  1  0  0  0  0
 29 30  2  0  0  0  0
 29 33  1  0  0  0  0
 31 29  2  0  0  0  0
 32 33  1  0  0  0  0
 32 35  1  0  0  0  0
 33 39  1  0  0  0  0
 34 32  2  0  0  0  0
 36 37  1  0  0  0  0
 37 42  2  0  0  0  0
 38 41  1  0  0  0  0
 39 38  1  0  0  0  0
 39 43  1  0  0  0  0
 40 44  2  0  0  0  0
 41 36  2  0  0  0  0
 41 40  1  0  0  0  0
 43 36  1  0  0  0  0
 44 42  1  0  0  0  0
 44 45  1  0  0  0  0
M  END
>  <MODEL>
5

>  <REMARK>
 VINA RESULT:      -8.8      2.274      8.623
  Name = 
  4 active torsions:
  status: ('A' for Active; 'I' for Inactive)
    1  A    between atoms: S_2  and  C_28
    2  A    between atoms: S_2  and  N_35
    3  A    between atoms: C_8  and  C_22
    4  A    between atoms: C_18  and  N_35
                            x       y       z     vdW  Elec       q    Type
                         _______ _______ _______ _____ _____    ______ ____

>  <TORSDO>
F 4

$$$$
=
 OpenBabel11062420453D

 45 51  0  0  1  0  0  0  0  0999 V2000
  187.9730  176.5660  144.0610 N   0  0  0  0  0  0  0  0  0  0  0  0
  192.4750  173.6090  144.8540 C   0  0  2  0  0  3  0  0  0  0  0  0
  192.9000  176.1790  145.9310 C   0  0  2  0  0  3  0  0  0  0  0  0
  187.1180  175.2290  141.9380 O   0  0  0  0  0  0  0  0  0  0  0  0
  191.4230  174.7020  144.6050 C   0  0  2  0  0  3  0  0  0  0  0  0
  193.7680  174.9430  146.2360 C   0  0  2  0  0  3  0  0  0  0  0  0
  186.7760  176.7310  144.5210 C   0  0  0  0  0  3  0  0  0  0  0  0
  187.3890  177.2320  146.8960 C   0  0  0  0  0  3  0  0  0  0  0  0
  189.2220  175.5880  146.8840 C   0  0  0  0  0  2  0  0  0  0  0  0
  188.8640  177.0580  146.7530 C   0  0  0  0  0  2  0  0  0  0  0  0
  193.0110  177.1220  146.9560 O   0  0  0  0  0  1  0  0  0  0  0  0
  195.0190  174.9100  145.3680 C   0  0  0  0  0  2  0  0  0  0  0  0
  188.1490  177.4260  141.5730 O   0  0  0  0  0  0  0  0  0  0  0  0
  186.4720  177.0980  145.9220 C   0  0  0  0  0  0  0  0  0  0  0  0
  189.7840  175.3840  142.1470 C   0  0  0  0  0  2  0  0  0  0  0  0
  193.0690  173.7170  146.1370 O   0  0  0  0  0  0  0  0  0  0  0  0
  194.7590  172.8420  144.0270 C   0  0  1  0  0  3  0  0  0  0  0  0
  190.7310  175.4040  146.9690 C   0  0  0  0  0  2  0  0  0  0  0  0
  189.8300  174.0130  142.8050 C   0  0  0  0  0  2  0  0  0  0  0  0
  191.4360  175.8100  145.6680 C   0  0  1  0  0  3  0  0  0  0  0  0
  188.2020  176.1690  142.3930 S   0  0  0  0  0  0  0  0  0  0  0  0
  194.7880  174.3640  143.9520 C   0  0  1  0  0  3  0  0  0  0  0  0
  190.0440  174.1300  144.3070 C   0  0  0  0  0  2  0  0  0  0  0  0
  193.4870  173.5920  143.6950 C   0  0  2  0  0  3  0  0  0  0  0  0
  185.0150  177.2320  146.2880 C   0  0  1  0  0  3  0  0  0  0  0  0
  185.3110  179.4850  145.3790 O   0  0  0  0  0  1  0  0  0  0  0  0
  184.7780  178.2910  147.3550 C   0  0  0  0  0  2  0  0  0  0  0  0
  184.3880  178.5870  145.9240 C   0  0  2  0  0  3  0  0  0  0  0  0
  195.4950  172.1440  142.5560 S   0  0  0  0  0  0  0  0  0  0  0  0
  196.5850  171.1920  142.9640 O   0  0  0  0  0  0  0  0  0  0  0  0
  194.4560  171.3740  141.7860 O   0  0  0  0  0  0  0  0  0  0  0  0
  197.3560  174.1390  141.9890 C   0  0  0  0  0  0  0  0  0  0  0  0
  196.1860  173.4110  141.5640 N   0  0  0  0  0  0  0  0  0  0  0  0
  197.9410  173.8480  143.0660 O   0  0  0  0  0  0  0  0  0  0  0  0
  197.9080  175.2580  141.1690 C   0  0  0  0  0  1  0  0  0  0  0  0
  193.9200  172.5690  139.1950 C   0  0  0  0  0  0  0  0  0  0  0  0
  193.2400  171.5840  138.4790 C   0  0  0  0  0  3  0  0  0  0  0  0
  194.2200  174.5040  140.4780 C   0  0  0  0  0  2  0  0  0  0  0  0
  195.5680  173.7730  140.2840 C   0  0  2  0  0  3  0  0  0  0  0  0
  191.8880  173.7900  139.6140 C   0  0  0  0  0  3  0  0  0  0  0  0
  193.2670  173.6340  139.7460 C   0  0  0  0  0  0  0  0  0  0  0  0
  191.8510  171.7170  138.3280 C   0  0  0  0  0  3  0  0  0  0  0  0
  195.3020  172.5790  139.4790 N   0  0  0  0  0  2  0  0  0  0  0  0
  191.1760  172.8160  138.8930 C   0  0  0  0  0  0  0  0  0  0  0  0
  189.7050  172.9470  138.7270 C   0  0  0  0  0  1  0  0  0  0  0  0
  1  7  2  0  0  0  0
  2 16  1  1  0  0  0
  3  6  1  0  0  0  0
  3 11  1  1  0  0  0
  4 21  2  0  0  0  0
  5 23  1  1  0  0  0
  5  2  1  0  0  0  0
  5 20  1  0  0  0  0
  6 12  1  6  0  0  0
  7 14  1  0  0  0  0
  9 18  1  0  0  0  0
 10  9  1  0  0  0  0
 10  8  1  0  0  0  0
 13 21  2  0  0  0  0
 14 25  1  0  0  0  0
 14  8  2  0  0  0  0
 15 21  1  0  0  0  0
 15 19  1  0  0  0  0
 16  6  1  0  0  0  0
 17 29  1  6  0  0  0
 19 23  1  0  0  0  0
 20  3  1  0  0  0  0
 20 18  1  1  0  0  0
 21  1  1  0  0  0  0
 22 17  1  0  0  0  0
 22 12  1  1  0  0  0
 24 22  1  0  0  0  0
 24 17  1  0  0  0  0
 24  2  1  0  0  0  0
 25 27  1  0  0  0  0
 26 28  1  0  0  0  0
 28 25  1  0  0  0  0
 28 27  1  0  0  0  0
 29 30  2  0  0  0  0
 31 29  2  0  0  0  0
 32 34  2  0  0  0  0
 33 32  1  0  0  0  0
 33 29  1  0  0  0  0
 35 32  1  0  0  0  0
 36 43  1  0  0  0  0
 36 41  1  0  0  0  0
 37 36  2  0  0  0  0
 39 38  1  0  0  0  0
 39 33  1  0  0  0  0
 40 41  2  0  0  0  0
 41 38  1  0  0  0  0
 42 37  1  0  0  0  0
 42 44  2  0  0  0  0
 43 39  1  0  0  0  0
 44 40  1  0  0  0  0
 45 44  1  0  0  0  0
M  END
>  <MODEL>
6

>  <REMARK>
 VINA RESULT:      -8.6      2.449      9.442
  Name = 
  4 active torsions:
  status: ('A' for Active; 'I' for Inactive)
    1  A    between atoms: S_2  and  C_28
    2  A    between atoms: S_2  and  N_35
    3  A    between atoms: C_8  and  C_22
    4  A    between atoms: C_18  and  N_35
                            x       y       z     vdW  Elec       q    Type
                         _______ _______ _______ _____ _____    ______ ____

>  <TORSDO>
F 4

$$$$
=
 OpenBabel11062420453D

 45 51  0  0  1  0  0  0  0  0999 V2000
  188.2370  175.9800  145.4700 N   0  0  0  0  0  0  0  0  0  0  0  0
  191.4510  173.7440  141.6870 C   0  0  2  0  0  3  0  0  0  0  0  0
  188.8360  172.7540  141.3290 C   0  0  2  0  0  3  0  0  0  0  0  0
  190.1510  176.4300  147.2480 O   0  0  0  0  0  0  0  0  0  0  0  0
  190.3790  174.0780  142.7370 C   0  0  2  0  0  3  0  0  0  0  0  0
  189.9660  172.6500  140.2860 C   0  0  2  0  0  3  0  0  0  0  0  0
  187.6240  177.0820  145.7540 C   0  0  0  0  0  3  0  0  0  0  0  0
  186.2690  177.2700  143.6570 C   0  0  0  0  0  3  0  0  0  0  0  0
  188.1090  176.4110  142.2630 C   0  0  0  0  0  2  0  0  0  0  0  0
  186.8110  176.0610  142.9720 C   0  0  0  0  0  2  0  0  0  0  0  0
  187.5870  172.6660  140.7100 O   0  0  0  0  0  1  0  0  0  0  0  0
  190.6580  171.2950  140.3430 C   0  0  0  0  0  2  0  0  0  0  0  0
  188.6360  174.5400  147.6450 O   0  0  0  0  0  0  0  0  0  0  0  0
  186.6140  177.7170  144.8770 C   0  0  0  0  0  0  0  0  0  0  0  0
  190.5160  174.2310  145.7620 C   0  0  0  0  0  2  0  0  0  0  0  0
  190.9190  173.6930  140.3740 O   0  0  0  0  0  0  0  0  0  0  0  0
  192.9920  171.8450  140.9730 C   0  0  1  0  0  3  0  0  0  0  0  0
  188.5650  175.2650  141.3720 C   0  0  0  0  0  2  0  0  0  0  0  0
  191.4240  175.0010  144.8140 C   0  0  0  0  0  2  0  0  0  0  0  0
  188.9480  174.0200  142.1840 C   0  0  1  0  0  3  0  0  0  0  0  0
  189.3740  175.3200  146.5940 S   0  0  0  0  0  0  0  0  0  0  0  0
  191.7110  171.1730  141.4540 C   0  0  1  0  0  3  0  0  0  0  0  0
  190.7010  175.3450  143.5190 C   0  0  0  0  0  2  0  0  0  0  0  0
  192.2050  172.4710  142.1060 C   0  0  2  0  0  3  0  0  0  0  0  0
  186.0120  179.0120  145.3610 C   0  0  1  0  0  3  0  0  0  0  0  0
  184.4410  177.5050  146.4820 O   0  0  0  0  0  1  0  0  0  0  0  0
  184.5930  179.2190  144.8530 C   0  0  0  0  0  2  0  0  0  0  0  0
  184.8080  178.8430  146.3010 C   0  0  2  0  0  3  0  0  0  0  0  0
  194.4150  170.9590  141.5930 S   0  0  0  0  0  0  0  0  0  0  0  0
  194.1580  169.4830  141.4720 O   0  0  0  0  0  0  0  0  0  0  0  0
  195.6230  171.3000  140.7620 O   0  0  0  0  0  0  0  0  0  0  0  0
  193.9990  170.6560  144.3310 C   0  0  0  0  0  0  0  0  0  0  0  0
  194.6900  171.3560  143.2760 N   0  0  0  0  0  0  0  0  0  0  0  0
  193.2150  169.7070  144.0700 O   0  0  0  0  0  0  0  0  0  0  0  0
  194.1920  171.0350  145.7630 C   0  0  0  0  0  1  0  0  0  0  0  0
  195.0960  174.6820  143.7570 C   0  0  0  0  0  0  0  0  0  0  0  0
  194.7690  175.9930  143.4150 C   0  0  0  0  0  3  0  0  0  0  0  0
  195.4820  172.8280  145.1330 C   0  0  0  0  0  2  0  0  0  0  0  0
  195.6180  172.4310  143.6450 C   0  0  2  0  0  3  0  0  0  0  0  0
  194.8770  175.1460  146.1090 C   0  0  0  0  0  3  0  0  0  0  0  0
  195.1470  174.2700  145.0580 C   0  0  0  0  0  0  0  0  0  0  0  0
  194.4950  176.8970  144.4530 C   0  0  0  0  0  3  0  0  0  0  0  0
  195.3620  173.6340  142.8490 N   0  0  0  0  0  2  0  0  0  0  0  0
  194.5490  176.4760  145.7970 C   0  0  0  0  0  0  0  0  0  0  0  0
  194.2580  177.4420  146.8880 C   0  0  0  0  0  1  0  0  0  0  0  0
  1  7  2  0  0  0  0
  1 21  1  0  0  0  0
  2 16  1  6  0  0  0
  2 24  1  0  0  0  0
  2  5  1  0  0  0  0
  3 11  1  6  0  0  0
  3 20  1  0  0  0  0
  5 23  1  6  0  0  0
  6 12  1  1  0  0  0
  6 16  1  0  0  0  0
  6  3  1  0  0  0  0
  8 14  2  0  0  0  0
  9 10  1  0  0  0  0
 10  8  1  0  0  0  0
 14 25  1  0  0  0  0
 14  7  1  0  0  0  0
 15 21  1  0  0  0  0
 17 22  1  0  0  0  0
 17 29  1  1  0  0  0
 17 24  1  0  0  0  0
 18  9  1  0  0  0  0
 19 15  1  0  0  0  0
 20 18  1  6  0  0  0
 20  5  1  0  0  0  0
 21  4  2  0  0  0  0
 21 13  2  0  0  0  0
 22 12  1  6  0  0  0
 22 24  1  0  0  0  0
 23 19  1  0  0  0  0
 25 28  1  0  0  0  0
 27 25  1  0  0  0  0
 27 28  1  0  0  0  0
 28 26  1  0  0  0  0
 29 33  1  0  0  0  0
 30 29  2  0  0  0  0
 31 29  2  0  0  0  0
 32 35  1  0  0  0  0
 33 39  1  0  0  0  0
 33 32  1  0  0  0  0
 34 32  2  0  0  0  0
 36 41  1  0  0  0  0
 37 36  2  0  0  0  0
 37 42  1  0  0  0  0
 39 38  1  0  0  0  0
 41 38  1  0  0  0  0
 41 40  2  0  0  0  0
 42 44  2  0  0  0  0
 43 39  1  0  0  0  0
 43 36  1  0  0  0  0
 44 40  1  0  0  0  0
 44 45  1  0  0  0  0
M  END
>  <MODEL>
7

>  <REMARK>
 VINA RESULT:      -8.5      2.461      8.402
  Name = 
  4 active torsions:
  status: ('A' for Active; 'I' for Inactive)
    1  A    between atoms: S_2  and  C_28
    2  A    between atoms: S_2  and  N_35
    3  A    between atoms: C_8  and  C_22
    4  A    between atoms: C_18  and  N_35
                            x       y       z     vdW  Elec       q    Type
                         _______ _______ _______ _____ _____    ______ ____

>  <TORSDO>
F 4

$$$$
=
 OpenBabel11062420453D

 45 51  0  0  1  0  0  0  0  0999 V2000
  187.9200  176.4300  145.2940 N   0  0  0  0  0  0  0  0  0  0  0  0
  191.6090  174.1260  142.0190 C   0  0  2  0  0  3  0  0  0  0  0  0
  189.1330  172.8380  141.6140 C   0  0  2  0  0  3  0  0  0  0  0  0
  189.6430  177.2710  147.1250 O   0  0  0  0  0  0  0  0  0  0  0  0
  190.4330  174.4640  142.9500 C   0  0  2  0  0  3  0  0  0  0  0  0
  190.3440  172.7350  140.6660 C   0  0  2  0  0  3  0  0  0  0  0  0
  187.1860  177.4880  145.4050 C   0  0  0  0  0  3  0  0  0  0  0  0
  185.9820  177.2990  143.2180 C   0  0  0  0  0  3  0  0  0  0  0  0
  187.9950  176.4830  142.0570 C   0  0  0  0  0  2  0  0  0  0  0  0
  186.6860  176.0830  142.7180 C   0  0  0  0  0  2  0  0  0  0  0  0
  187.9490  172.5540  140.9300 O   0  0  0  0  0  1  0  0  0  0  0  0
  191.1550  171.4730  140.9280 C   0  0  0  0  0  2  0  0  0  0  0  0
  188.2870  175.2910  147.6460 O   0  0  0  0  0  0  0  0  0  0  0  0
  186.1900  177.9130  144.3950 C   0  0  0  0  0  0  0  0  0  0  0  0
  190.3260  174.9680  145.9390 C   0  0  0  0  0  2  0  0  0  0  0  0
  191.1850  173.8740  140.6900 O   0  0  0  0  0  0  0  0  0  0  0  0
  193.3710  172.3270  141.6370 C   0  0  1  0  0  3  0  0  0  0  0  0
  188.6240  175.2970  141.3400 C   0  0  0  0  0  2  0  0  0  0  0  0
  191.2260  175.7150  144.9660 C   0  0  0  0  0  2  0  0  0  0  0  0
  189.0600  174.1970  142.3180 C   0  0  1  0  0  3  0  0  0  0  0  0
  189.0260  176.0200  146.5590 S   0  0  0  0  0  0  0  0  0  0  0  0
  192.1270  171.5850  142.1110 C   0  0  1  0  0  3  0  0  0  0  0  0
  190.5740  175.8360  143.5960 C   0  0  0  0  0  2  0  0  0  0  0  0
  192.4460  172.9920  142.6350 C   0  0  2  0  0  3  0  0  0  0  0  0
  185.4330  179.1860  144.6830 C   0  0  1  0  0  3  0  0  0  0  0  0
  184.1550  177.7250  146.1750 O   0  0  0  0  0  1  0  0  0  0  0  0
  183.9750  179.1030  144.2560 C   0  0  0  0  0  2  0  0  0  0  0  0
  184.3160  179.0400  145.7270 C   0  0  2  0  0  3  0  0  0  0  0  0
  194.8210  171.6670  142.4480 S   0  0  0  0  0  0  0  0  0  0  0  0
  194.3980  170.5630  143.3760 O   0  0  0  0  0  0  0  0  0  0  0  0
  195.7570  171.0900  141.4200 O   0  0  0  0  0  0  0  0  0  0  0  0
  195.5140  172.9660  144.8140 C   0  0  0  0  0  0  0  0  0  0  0  0
  195.6190  172.9190  143.3770 N   0  0  0  0  0  0  0  0  0  0  0  0
  194.8850  172.0750  145.4430 O   0  0  0  0  0  0  0  0  0  0  0  0
  196.1470  174.0680  145.5990 C   0  0  0  0  0  1  0  0  0  0  0  0
  197.2020  173.8580  140.5360 C   0  0  0  0  0  0  0  0  0  0  0  0
  197.9400  173.5170  139.4030 C   0  0  0  0  0  3  0  0  0  0  0  0
  195.5050  174.8570  141.8030 C   0  0  0  0  0  2  0  0  0  0  0  0
  196.3940  173.9660  142.7010 C   0  0  2  0  0  3  0  0  0  0  0  0
  195.7110  175.2460  139.2530 C   0  0  0  0  0  3  0  0  0  0  0  0
  196.1230  174.6920  140.4650 C   0  0  0  0  0  0  0  0  0  0  0  0
  197.5490  174.0630  138.1710 C   0  0  0  0  0  3  0  0  0  0  0  0
  197.4250  173.3770  141.8440 N   0  0  0  0  0  2  0  0  0  0  0  0
  196.4380  174.9250  138.0950 C   0  0  0  0  0  0  0  0  0  0  0  0
  196.0330  175.4970  136.7840 C   0  0  0  0  0  1  0  0  0  0  0  0
  1  7  2  0  0  0  0
  1 21  1  0  0  0  0
  2 16  1  6  0  0  0
  2 24  1  0  0  0  0
  2  5  1  0  0  0  0
  3 11  1  6  0  0  0
  3 20  1  0  0  0  0
  5 23  1  6  0  0  0
  6 16  1  0  0  0  0
  6 12  1  1  0  0  0
  6  3  1  0  0  0  0
  8 14  2  0  0  0  0
  9 10  1  0  0  0  0
 10  8  1  0  0  0  0
 14 25  1  0  0  0  0
 14  7  1  0  0  0  0
 15 21  1  0  0  0  0
 17 22  1  0  0  0  0
 17 29  1  1  0  0  0
 17 24  1  0  0  0  0
 18  9  1  0  0  0  0
 19 15  1  0  0  0  0
 20 18  1  6  0  0  0
 20  5  1  0  0  0  0
 21  4  2  0  0  0  0
 21 13  2  0  0  0  0
 22 12  1  6  0  0  0
 22 24  1  0  0  0  0
 23 19  1  0  0  0  0
 25 28  1  0  0  0  0
 27 25  1  0  0  0  0
 27 28  1  0  0  0  0
 28 26  1  0  0  0  0
 29 30  2  0  0  0  0
 29 33  1  0  0  0  0
 31 29  2  0  0  0  0
 32 34  2  0  0  0  0
 32 35  1  0  0  0  0
 33 32  1  0  0  0  0
 36 43  1  0  0  0  0
 37 36  2  0  0  0  0
 38 39  1  0  0  0  0
 39 33  1  0  0  0  0
 40 41  2  0  0  0  0
 41 36  1  0  0  0  0
 41 38  1  0  0  0  0
 42 37  1  0  0  0  0
 43 39  1  0  0  0  0
 44 42  2  0  0  0  0
 44 40  1  0  0  0  0
 45 44  1  0  0  0  0
M  END
>  <MODEL>
8

>  <REMARK>
 VINA RESULT:      -8.5      2.750      9.294
  Name = 
  4 active torsions:
  status: ('A' for Active; 'I' for Inactive)
    1  A    between atoms: S_2  and  C_28
    2  A    between atoms: S_2  and  N_35
    3  A    between atoms: C_8  and  C_22
    4  A    between atoms: C_18  and  N_35
                            x       y       z     vdW  Elec       q    Type
                         _______ _______ _______ _____ _____    ______ ____

>  <TORSDO>
F 4

$$$$
=
 OpenBabel11062420453D

 45 51  0  0  1  0  0  0  0  0999 V2000
  195.0380  173.3650  143.9690 N   0  0  0  0  0  0  0  0  0  0  0  0
  189.7510  174.4890  143.3140 C   0  0  2  0  0  3  0  0  0  0  0  0
  190.5490  172.7380  141.2530 C   0  0  2  0  0  3  0  0  0  0  0  0
  195.6500  175.5950  145.2660 O   0  0  0  0  0  0  0  0  0  0  0  0
  191.2430  174.1540  143.1590 C   0  0  2  0  0  3  0  0  0  0  0  0
  189.0870  173.0320  141.6400 C   0  0  2  0  0  3  0  0  0  0  0  0
  195.8390  172.6490  144.6880 C   0  0  0  0  0  3  0  0  0  0  0  0
  194.8260  170.4120  144.2030 C   0  0  0  0  0  3  0  0  0  0  0  0
  192.5380  171.3230  144.2230 C   0  0  0  0  0  2  0  0  0  0  0  0
  193.7030  170.8930  143.3470 C   0  0  0  0  0  2  0  0  0  0  0  0
  190.6470  171.5060  140.6030 O   0  0  0  0  0  1  0  0  0  0  0  0
  188.4710  174.0930  140.7380 C   0  0  0  0  0  2  0  0  0  0  0  0
  196.3110  175.4190  142.9080 O   0  0  0  0  0  0  0  0  0  0  0  0
  195.7670  171.1740  144.7850 C   0  0  0  0  0  0  0  0  0  0  0  0
  193.7230  175.8790  143.4260 C   0  0  0  0  0  2  0  0  0  0  0  0
  188.9180  173.3850  143.0000 O   0  0  0  0  0  0  0  0  0  0  0  0
  187.9400  175.9550  142.2840 C   0  0  1  0  0  3  0  0  0  0  0  0
  191.3010  171.6020  143.3810 C   0  0  0  0  0  2  0  0  0  0  0  0
  192.6530  175.7270  144.4980 C   0  0  0  0  0  2  0  0  0  0  0  0
  191.4950  172.8120  142.4560 C   0  0  1  0  0  3  0  0  0  0  0  0
  195.2430  175.0820  143.9110 S   0  0  0  0  0  0  0  0  0  0  0  0
  188.8330  175.5340  141.1230 C   0  0  1  0  0  3  0  0  0  0  0  0
  192.0230  174.3430  144.4540 C   0  0  0  0  0  2  0  0  0  0  0  0
  189.4240  175.7650  142.5200 C   0  0  2  0  0  3  0  0  0  0  0  0
  196.7740  170.5040  145.6870 C   0  0  1  0  0  3  0  0  0  0  0  0
  197.5340  169.5060  143.5850 O   0  0  0  0  0  1  0  0  0  0  0  0
  196.6180  168.9910  145.7080 C   0  0  0  0  0  2  0  0  0  0  0  0
  197.7810  169.6000  144.9580 C   0  0  2  0  0  3  0  0  0  0  0  0
  187.5290  177.6890  142.1410 S   0  0  0  0  0  0  0  0  0  0  0  0
  187.9730  178.3970  143.3900 O   0  0  0  0  0  0  0  0  0  0  0  0
  188.2630  178.2870  140.9700 O   0  0  0  0  0  0  0  0  0  0  0  0
  185.1940  177.9840  140.6500 C   0  0  0  0  0  0  0  0  0  0  0  0
  185.8000  177.8880  141.9550 N   0  0  0  0  0  0  0  0  0  0  0  0
  185.8910  177.8770  139.6060 O   0  0  0  0  0  0  0  0  0  0  0  0
  183.7270  178.2120  140.4950 C   0  0  0  0  0  1  0  0  0  0  0  0
  185.5460  177.4760  145.3050 C   0  0  0  0  0  0  0  0  0  0  0  0
  185.9090  176.7870  146.4610 C   0  0  0  0  0  3  0  0  0  0  0  0
  185.1480  179.3090  143.9040 C   0  0  0  0  0  2  0  0  0  0  0  0
  184.9320  177.9860  143.1340 C   0  0  2  0  0  3  0  0  0  0  0  0
  185.8870  179.6100  146.3650 C   0  0  0  0  0  3  0  0  0  0  0  0
  185.5370  178.8410  145.2560 C   0  0  0  0  0  0  0  0  0  0  0  0
  186.2640  177.5370  147.5930 C   0  0  0  0  0  3  0  0  0  0  0  0
  185.1990  176.8910  144.0680 N   0  0  0  0  0  2  0  0  0  0  0  0
  186.2530  178.9440  147.5470 C   0  0  0  0  0  0  0  0  0  0  0  0
  186.6300  179.7280  148.7520 C   0  0  0  0  0  1  0  0  0  0  0  0
  1  7  2  0  0  0  0
  2 16  1  6  0  0  0
  3 11  1  1  0  0  0
  3  6  1  0  0  0  0
  3 20  1  0  0  0  0
  5  2  1  0  0  0  0
  5 23  1  1  0  0  0
  6 12  1  6  0  0  0
  6 16  1  0  0  0  0
  7 14  1  0  0  0  0
  8 14  2  0  0  0  0
 10  8  1  0  0  0  0
 10  9  1  0  0  0  0
 13 21  2  0  0  0  0
 14 25  1  0  0  0  0
 15 21  1  0  0  0  0
 15 19  1  0  0  0  0
 17 29  1  6  0  0  0
 17 24  1  0  0  0  0
 18  9  1  0  0  0  0
 20  5  1  0  0  0  0
 20 18  1  1  0  0  0
 21  1  1  0  0  0  0
 21  4  2  0  0  0  0
 22 12  1  1  0  0  0
 22 17  1  0  0  0  0
 22 24  1  0  0  0  0
 23 19  1  0  0  0  0
 24  2  1  0  0  0  0
 25 27  1  0  0  0  0
 26 28  1  0  0  0  0
 28 25  1  0  0  0  0
 28 27  1  0  0  0  0
 29 30  2  0  0  0  0
 31 29  2  0  0  0  0
 32 33  1  0  0  0  0
 33 29  1  0  0  0  0
 33 39  1  0  0  0  0
 34 32  2  0  0  0  0
 35 32  1  0  0  0  0
 36 37  1  0  0  0  0
 37 42  2  0  0  0  0
 38 41  1  0  0  0  0
 39 38  1  0  0  0  0
 39 43  1  0  0  0  0
 40 44  2  0  0  0  0
 41 36  2  0  0  0  0
 41 40  1  0  0  0  0
 43 36  1  0  0  0  0
 44 42  1  0  0  0  0
 44 45  1  0  0  0  0
M  END
>  <MODEL>
9

>  <REMARK>
 VINA RESULT:      -8.4      1.764      2.606
  Name = 
  4 active torsions:
  status: ('A' for Active; 'I' for Inactive)
    1  A    between atoms: S_2  and  C_28
    2  A    between atoms: S_2  and  N_35
    3  A    between atoms: C_8  and  C_22
    4  A    between atoms: C_18  and  N_35
                            x       y       z     vdW  Elec       q    Type
                         _______ _______ _______ _____ _____    ______ ____

>  <TORSDO>
F 4

$$$$
