=
 OpenBabel11062418463D

 43 46  0  0  1  0  0  0  0  0999 V2000
  187.6190  176.7230  144.6590 C   0  0  2  0  0  3  0  0  0  0  0  0
  194.4420  171.6550  144.5930 C   0  0  0  0  0  2  0  0  0  0  0  0
  188.7700  175.1280  141.4080 C   0  0  2  0  0  3  0  0  0  0  0  0
  194.1950  170.6450  141.5180 C   0  0  0  0  0  1  0  0  0  0  0  0
  191.4530  175.2330  147.2890 C   0  0  0  0  0  2  0  0  0  0  0  0
  186.7630  178.4930  146.7660 C   0  0  0  0  0  2  0  0  0  0  0  0
  193.1300  172.6280  142.7440 C   0  0  2  0  0  0  0  0  0  0  0  0
  191.8850  172.3310  141.9200 C   0  0  0  0  0  0  0  0  0  0  0  0
  186.0760  176.5580  144.6770 C   0  0  2  0  0  3  0  0  0  0  0  0
  187.4710  173.1190  141.2470 O   0  0  0  0  0  0  0  0  0  0  0  0
  187.9480  177.6640  146.9130 N   0  0  0  0  0  0  0  0  0  0  0  0
  187.6610  175.6160  142.3390 C   0  0  0  0  0  2  0  0  0  0  0  0
  188.5490  173.7040  140.9450 C   0  0  0  0  0  0  0  0  0  0  0  0
  191.8940  172.5030  140.4240 C   0  0  0  0  0  2  0  0  0  0  0  0
  193.1570  176.2490  144.2340 C   0  0  1  0  0  3  0  0  0  0  0  0
  190.0670  175.2680  142.1910 C   0  0  0  0  0  2  0  0  0  0  0  0
  185.4580  177.4590  143.6230 C   0  0  0  0  0  1  0  0  0  0  0  0
  192.9300  174.8220  144.0490 N   0  0  0  0  0  2  0  0  0  0  0  0
  190.1530  176.0000  147.4770 C   0  0  0  0  0  2  0  0  0  0  0  0
  193.0310  172.0160  144.1500 C   0  0  0  0  0  2  0  0  0  0  0  0
  192.2950  176.7950  145.3730 C   0  0  0  0  0  2  0  0  0  0  0  0
  190.8610  171.9490  142.4700 O   0  0  0  0  0  0  0  0  0  0  0  0
  189.4170  175.9730  146.2620 O   0  0  0  0  0  0  0  0  0  0  0  0
  193.7210  174.7820  141.8540 O   0  0  0  0  0  0  0  0  0  0  0  0
  189.5050  173.0250  140.1060 N   0  0  0  0  0  0  0  0  0  0  0  0
  193.2930  174.1300  142.8470 C   0  0  0  0  0  0  0  0  0  0  0  0
  185.6070  177.6420  146.8630 N   0  0  0  0  0  0  0  0  0  0  0  0
  192.5150  176.1050  146.6910 C   0  0  0  0  0  0  0  0  0  0  0  0
  188.2850  175.6940  143.7210 C   0  0  1  0  0  3  0  0  0  0  0  0
  188.3170  176.8010  146.0130 C   0  0  0  0  0  0  0  0  0  0  0  0
  193.5610  176.2690  147.2970 O   0  0  0  0  0  0  0  0  0  0  0  0
  189.7280  176.0420  143.4380 C   0  0  0  0  0  2  0  0  0  0  0  0
  195.3320  171.8990  143.3870 C   0  0  2  0  0  3  0  0  0  0  0  0
  190.8670  173.5270  139.9410 C   0  0  0  0  0  2  0  0  0  0  0  0
  194.4230  172.0140  142.1660 C   0  0  1  0  0  3  0  0  0  0  0  0
  194.6330  176.5300  144.4650 C   0  0  0  0  0  1  0  0  0  0  0  0
  185.3260  176.7480  145.9770 C   0  0  0  0  0  3  0  0  0  0  0  0
  189.3500  172.1530  137.8240 C   0  0  0  0  0  1  0  0  0  0  0  0
  189.0920  171.8830  139.2950 C   0  0  0  0  0  2  0  0  0  0  0  0
  196.5840  171.0110  143.2280 C   0  0  0  0  0  2  0  0  0  0  0  0
  197.9410  172.8540  144.2910 C   0  0  0  0  0  1  0  0  0  0  0  0
  197.8040  171.3560  144.0920 C   0  0  1  0  0  3  0  0  0  0  0  0
  197.7680  170.7020  145.3240 O   0  0  0  0  0  1  0  0  0  0  0  0
  1  9  1  0  0  0  0
  1 30  1  1  0  0  0
  3 16  1  1  0  0  0
  3 12  1  0  0  0  0
  5 19  1  0  0  0  0
  6 27  1  0  0  0  0
  6 11  1  0  0  0  0
  7 26  1  0  0  0  0
  7 20  1  1  0  0  0
  8 22  2  0  0  0  0
  8  7  1  0  0  0  0
  9 17  1  6  0  0  0
  9 37  1  0  0  0  0
 13 10  2  0  0  0  0
 13  3  1  0  0  0  0
 14  8  1  0  0  0  0
 15 36  1  1  0  0  0
 15 21  1  0  0  0  0
 16 32  1  0  0  0  0
 18 15  1  0  0  0  0
 20  2  1  0  0  0  0
 21 28  1  0  0  0  0
 23 19  1  0  0  0  0
 24 26  2  0  0  0  0
 25 13  1  0  0  0  0
 26 18  1  0  0  0  0
 28  5  1  0  0  0  0
 28 31  2  0  0  0  0
 29 12  1  6  0  0  0
 29  1  1  0  0  0  0
 30 23  1  0  0  0  0
 30 11  2  0  0  0  0
 32 29  1  0  0  0  0
 33 40  1  6  0  0  0
 33  2  1  0  0  0  0
 34 25  1  0  0  0  0
 34 14  1  0  0  0  0
 35  4  1  1  0  0  0
 35  7  1  0  0  0  0
 35 33  1  0  0  0  0
 37 27  2  0  0  0  0
 38 39  1  0  0  0  0
 39 25  1  0  0  0  0
 40 42  1  0  0  0  0
 42 41  1  1  0  0  0
 42 43  1  0  0  0  0
M  END
>  <MODEL>
1

>  <REMARK>
 VINA RESULT:      -8.3      0.000      0.000
  Name = 
  3 active torsions:
  status: ('A' for Active; 'I' for Inactive)
    1  A    between atoms: C_21  and  C_33
    2  A    between atoms: N_29  and  C_32
    3  A    between atoms: C_33  and  C_39
                            x       y       z     vdW  Elec       q    Type
                         _______ _______ _______ _____ _____    ______ ____

>  <TORSDO>
F 3

$$$$
=
 OpenBabel11062418463D

 43 46  0  0  1  0  0  0  0  0999 V2000
  187.6300  176.6260  143.8680 C   0  0  2  0  0  3  0  0  0  0  0  0
  194.3360  171.5830  145.2170 C   0  0  0  0  0  2  0  0  0  0  0  0
  189.1540  174.6800  140.9830 C   0  0  2  0  0  3  0  0  0  0  0  0
  194.4600  170.2380  142.2650 C   0  0  0  0  0  1  0  0  0  0  0  0
  191.0850  175.4380  147.1060 C   0  0  0  0  0  2  0  0  0  0  0  0
  186.5420  178.6200  145.6440 C   0  0  0  0  0  2  0  0  0  0  0  0
  193.2790  172.3440  143.1220 C   0  0  2  0  0  0  0  0  0  0  0  0
  192.1410  171.9570  142.1860 C   0  0  0  0  0  0  0  0  0  0  0  0
  186.0940  176.4640  143.7110 C   0  0  2  0  0  3  0  0  0  0  0  0
  187.8570  172.6660  140.8830 O   0  0  0  0  0  0  0  0  0  0  0  0
  187.6890  177.8130  146.0280 N   0  0  0  0  0  0  0  0  0  0  0  0
  187.9450  175.2690  141.7080 C   0  0  0  0  0  2  0  0  0  0  0  0
  188.9720  173.2140  140.6560 C   0  0  0  0  0  0  0  0  0  0  0  0
  192.3390  171.9630  140.6930 C   0  0  0  0  0  2  0  0  0  0  0  0
  193.1710  176.1080  144.1960 C   0  0  1  0  0  3  0  0  0  0  0  0
  190.3450  174.9060  141.9020 C   0  0  0  0  0  2  0  0  0  0  0  0
  185.6250  177.2430  142.4960 C   0  0  0  0  0  1  0  0  0  0  0  0
  192.9480  174.6690  144.1410 N   0  0  0  0  0  2  0  0  0  0  0  0
  189.7820  176.2210  147.0440 C   0  0  0  0  0  2  0  0  0  0  0  0
  192.9970  171.8930  144.5630 C   0  0  0  0  0  2  0  0  0  0  0  0
  192.1810  176.7770  145.1500 C   0  0  0  0  0  2  0  0  0  0  0  0
  191.0520  171.6390  142.6420 O   0  0  0  0  0  0  0  0  0  0  0  0
  189.2040  176.0590  145.7560 O   0  0  0  0  0  0  0  0  0  0  0  0
  194.0050  174.3860  142.0810 O   0  0  0  0  0  0  0  0  0  0  0  0
  190.0160  172.4460  140.0230 N   0  0  0  0  0  0  0  0  0  0  0  0
  193.4480  173.8490  143.0780 C   0  0  0  0  0  0  0  0  0  0  0  0
  185.3710  177.7850  145.6880 N   0  0  0  0  0  0  0  0  0  0  0  0
  192.2250  176.2380  146.5530 C   0  0  0  0  0  0  0  0  0  0  0  0
  188.3930  175.5000  143.1400 C   0  0  1  0  0  3  0  0  0  0  0  0
  188.1540  176.8540  145.2820 C   0  0  0  0  0  0  0  0  0  0  0  0
  193.1900  176.4680  147.2630 O   0  0  0  0  0  0  0  0  0  0  0  0
  189.8640  175.8140  143.0030 C   0  0  0  0  0  2  0  0  0  0  0  0
  195.3740  171.6920  144.1110 C   0  0  2  0  0  3  0  0  0  0  0  0
  191.3950  172.9260  139.9750 C   0  0  0  0  0  2  0  0  0  0  0  0
  194.6250  171.6700  142.7820 C   0  0  1  0  0  3  0  0  0  0  0  0
  194.6100  176.4130  144.5770 C   0  0  0  0  0  1  0  0  0  0  0  0
  185.1910  176.7980  144.8780 C   0  0  0  0  0  3  0  0  0  0  0  0
  189.6930  171.4720  137.8000 C   0  0  0  0  0  1  0  0  0  0  0  0
  189.6910  171.2210  139.2970 C   0  0  0  0  0  2  0  0  0  0  0  0
  196.6230  170.7910  144.2100 C   0  0  0  0  0  2  0  0  0  0  0  0
  196.6260  168.2820  144.4650 C   0  0  0  0  0  1  0  0  0  0  0  0
  196.5630  169.6130  145.1890 C   0  0  1  0  0  3  0  0  0  0  0  0
  197.5660  169.6900  146.1550 O   0  0  0  0  0  1  0  0  0  0  0  0
  1 30  1  1  0  0  0
  3 12  1  1  0  0  0
  3 16  1  0  0  0  0
  6 27  1  0  0  0  0
  6 11  1  0  0  0  0
  7 20  1  1  0  0  0
  8 22  2  0  0  0  0
  8  7  1  0  0  0  0
  9 17  1  6  0  0  0
  9  1  1  0  0  0  0
  9 37  1  0  0  0  0
 13 10  2  0  0  0  0
 13  3  1  0  0  0  0
 14  8  1  0  0  0  0
 15 36  1  1  0  0  0
 15 21  1  0  0  0  0
 16 32  1  0  0  0  0
 18 15  1  0  0  0  0
 19  5  1  0  0  0  0
 20  2  1  0  0  0  0
 21 28  1  0  0  0  0
 23 19  1  0  0  0  0
 24 26  2  0  0  0  0
 25 13  1  0  0  0  0
 26  7  1  0  0  0  0
 26 18  1  0  0  0  0
 28  5  1  0  0  0  0
 28 31  2  0  0  0  0
 29 12  1  6  0  0  0
 29  1  1  0  0  0  0
 30 23  1  0  0  0  0
 30 11  2  0  0  0  0
 32 29  1  0  0  0  0
 33 40  1  6  0  0  0
 33  2  1  0  0  0  0
 34 25  1  0  0  0  0
 34 14  1  0  0  0  0
 35  4  1  1  0  0  0
 35  7  1  0  0  0  0
 35 33  1  0  0  0  0
 37 27  2  0  0  0  0
 38 39  1  0  0  0  0
 39 25  1  0  0  0  0
 40 42  1  0  0  0  0
 42 41  1  6  0  0  0
 42 43  1  0  0  0  0
M  END
>  <MODEL>
2

>  <REMARK>
 VINA RESULT:      -8.1      0.924      1.087
  Name = 
  3 active torsions:
  status: ('A' for Active; 'I' for Inactive)
    1  A    between atoms: C_21  and  C_33
    2  A    between atoms: N_29  and  C_32
    3  A    between atoms: C_33  and  C_39
                            x       y       z     vdW  Elec       q    Type
                         _______ _______ _______ _____ _____    ______ ____

>  <TORSDO>
F 3

$$$$
=
 OpenBabel11062418463D

 43 46  0  0  1  0  0  0  0  0999 V2000
  194.8530  172.6140  142.6600 C   0  0  2  0  0  3  0  0  0  0  0  0
  188.8020  178.3500  144.3090 C   0  0  0  0  0  2  0  0  0  0  0  0
  191.2270  171.8420  141.8300 C   0  0  2  0  0  3  0  0  0  0  0  0
  186.3380  176.7960  142.8760 C   0  0  0  0  0  1  0  0  0  0  0  0
  193.9150  176.8010  144.9900 C   0  0  0  0  0  2  0  0  0  0  0  0
  197.5780  172.6120  143.5990 C   0  0  0  0  0  2  0  0  0  0  0  0
  188.6470  175.9820  143.6330 C   0  0  2  0  0  0  0  0  0  0  0  0
  188.6430  175.1310  142.3700 C   0  0  0  0  0  0  0  0  0  0  0  0
  195.6700  172.1400  141.4280 C   0  0  2  0  0  3  0  0  0  0  0  0
  190.9980  172.4930  139.5340 O   0  0  0  0  0  0  0  0  0  0  0  0
  196.6610  173.6840  143.9510 N   0  0  0  0  0  0  0  0  0  0  0  0
  192.7200  171.7450  141.5190 C   0  0  0  0  0  2  0  0  0  0  0  0
  190.4220  172.3340  140.6460 C   0  0  0  0  0  0  0  0  0  0  0  0
  187.6520  174.0100  142.2020 C   0  0  0  0  0  2  0  0  0  0  0  0
  191.2180  174.7400  146.3130 C   0  0  1  0  0  3  0  0  0  0  0  0
  191.1060  172.7830  143.0190 C   0  0  0  0  0  2  0  0  0  0  0  0
  195.6550  170.6230  141.3650 C   0  0  0  0  0  1  0  0  0  0  0  0
  190.6120  175.4200  145.1760 N   0  0  0  0  0  2  0  0  0  0  0  0
  195.1080  175.9510  144.5780 C   0  0  0  0  0  2  0  0  0  0  0  0
  189.4390  177.2830  143.4300 C   0  0  0  0  0  2  0  0  0  0  0  0
  192.7430  174.8430  146.2600 C   0  0  0  0  0  2  0  0  0  0  0  0
  189.4500  175.3530  141.4780 O   0  0  0  0  0  0  0  0  0  0  0  0
  194.6530  174.8610  143.7900 O   0  0  0  0  0  0  0  0  0  0  0  0
  188.5950  174.2550  145.3050 O   0  0  0  0  0  0  0  0  0  0  0  0
  189.0000  172.5540  140.7380 N   0  0  0  0  0  0  0  0  0  0  0  0
  189.2640  175.1740  144.7560 C   0  0  0  0  0  0  0  0  0  0  0  0
  197.9410  172.7680  142.2160 N   0  0  0  0  0  0  0  0  0  0  0  0
  193.2600  176.2550  146.2210 C   0  0  0  0  0  0  0  0  0  0  0  0
  193.3780  172.8750  142.2920 C   0  0  1  0  0  3  0  0  0  0  0  0
  195.4500  173.7530  143.4810 C   0  0  0  0  0  0  0  0  0  0  0  0
  193.1650  176.9640  147.2090 O   0  0  0  0  0  0  0  0  0  0  0  0
  192.5080  173.0160  143.5190 C   0  0  0  0  0  2  0  0  0  0  0  0
  187.5470  177.7170  144.8880 C   0  0  2  0  0  3  0  0  0  0  0  0
  188.3240  172.6480  142.0300 C   0  0  0  0  0  2  0  0  0  0  0  0
  187.2470  176.4680  144.0640 C   0  0  1  0  0  3  0  0  0  0  0  0
  190.6650  175.2850  147.6190 C   0  0  0  0  0  1  0  0  0  0  0  0
  197.0940  172.6180  141.2550 C   0  0  0  0  0  3  0  0  0  0  0  0
  188.3450  173.8650  138.7770 C   0  0  0  0  0  1  0  0  0  0  0  0
  188.1770  172.5590  139.5320 C   0  0  0  0  0  2  0  0  0  0  0  0
  186.3510  178.6440  145.1900 C   0  0  0  0  0  2  0  0  0  0  0  0
  184.2390  178.2960  146.5250 C   0  0  0  0  0  1  0  0  0  0  0  0
  185.7320  178.5570  146.5900 C   0  0  1  0  0  3  0  0  0  0  0  0
  186.3620  177.5930  147.3770 O   0  0  0  0  0  1  0  0  0  0  0  0
  1 30  1  6  0  0  0
  2 33  1  0  0  0  0
  3 12  1  6  0  0  0
  3 16  1  0  0  0  0
  5 28  1  0  0  0  0
  6 11  1  0  0  0  0
  7 20  1  6  0  0  0
  7 35  1  0  0  0  0
  7 26  1  0  0  0  0
  8  7  1  0  0  0  0
  9 17  1  1  0  0  0
  9  1  1  0  0  0  0
 10 13  2  0  0  0  0
 13 25  1  0  0  0  0
 13  3  1  0  0  0  0
 14  8  1  0  0  0  0
 15 36  1  1  0  0  0
 16 32  1  0  0  0  0
 18 15  1  0  0  0  0
 19  5  1  0  0  0  0
 20  2  1  0  0  0  0
 21 15  1  0  0  0  0
 22  8  2  0  0  0  0
 23 19  1  0  0  0  0
 25 34  1  0  0  0  0
 26 18  1  0  0  0  0
 26 24  2  0  0  0  0
 27  6  1  0  0  0  0
 28 21  1  0  0  0  0
 28 31  2  0  0  0  0
 29 12  1  6  0  0  0
 29  1  1  0  0  0  0
 29 32  1  0  0  0  0
 30 23  1  0  0  0  0
 30 11  2  0  0  0  0
 33 40  1  6  0  0  0
 34 14  1  0  0  0  0
 35  4  1  6  0  0  0
 35 33  1  0  0  0  0
 37  9  1  0  0  0  0
 37 27  2  0  0  0  0
 38 39  1  0  0  0  0
 39 25  1  0  0  0  0
 40 42  1  0  0  0  0
 42 41  1  6  0  0  0
 42 43  1  0  0  0  0
M  END
>  <MODEL>
3

>  <REMARK>
 VINA RESULT:      -8.1      1.982      7.865
  Name = 
  3 active torsions:
  status: ('A' for Active; 'I' for Inactive)
    1  A    between atoms: C_21  and  C_33
    2  A    between atoms: N_29  and  C_32
    3  A    between atoms: C_33  and  C_39
                            x       y       z     vdW  Elec       q    Type
                         _______ _______ _______ _____ _____    ______ ____

>  <TORSDO>
F 3

$$$$
=
 OpenBabel11062418463D

 43 46  0  0  1  0  0  0  0  0999 V2000
  186.0890  177.6550  144.6510 C   0  0  2  0  0  3  0  0  0  0  0  0
  193.6490  174.8420  141.9740 C   0  0  0  0  0  2  0  0  0  0  0  0
  188.7430  176.6440  147.1760 C   0  0  2  0  0  3  0  0  0  0  0  0
  195.1010  174.6920  144.8730 C   0  0  0  0  0  1  0  0  0  0  0  0
  188.5660  176.1220  140.7340 C   0  0  0  0  0  2  0  0  0  0  0  0
  183.6910  178.0120  143.0920 C   0  0  0  0  0  2  0  0  0  0  0  0
  192.6280  174.8510  144.2200 C   0  0  2  0  0  0  0  0  0  0  0  0
  192.4790  175.7690  145.4250 C   0  0  0  0  0  0  0  0  0  0  0  0
  185.4910  178.9830  145.1890 C   0  0  2  0  0  3  0  0  0  0  0  0
  189.8680  178.6950  147.6990 O   0  0  0  0  0  0  0  0  0  0  0  0
  184.9240  177.5410  142.4820 N   0  0  0  0  0  0  0  0  0  0  0  0
  187.5850  177.5410  146.7390 C   0  0  0  0  0  2  0  0  0  0  0  0
  189.9530  177.4380  147.6160 C   0  0  0  0  0  0  0  0  0  0  0  0
  192.6830  175.2430  146.8220 C   0  0  0  0  0  2  0  0  0  0  0  0
  189.2220  173.3490  143.0030 C   0  0  1  0  0  3  0  0  0  0  0  0
  189.0590  175.7560  145.9820 C   0  0  0  0  0  2  0  0  0  0  0  0
  184.6760  178.7020  146.4380 C   0  0  0  0  0  1  0  0  0  0  0  0
  190.3690  174.2290  143.1880 N   0  0  0  0  0  2  0  0  0  0  0  0
  187.2540  176.8130  141.0720 C   0  0  0  0  0  2  0  0  0  0  0  0
  192.7740  175.6550  142.9180 C   0  0  0  0  0  2  0  0  0  0  0  0
  188.0860  174.0780  142.2860 C   0  0  0  0  0  2  0  0  0  0  0  0
  192.1890  176.9470  145.2680 O   0  0  0  0  0  0  0  0  0  0  0  0
  187.2090  177.0690  142.4680 O   0  0  0  0  0  0  0  0  0  0  0  0
  191.2860  172.9900  144.9380 O   0  0  0  0  0  0  0  0  0  0  0  0
  191.1790  176.7900  148.0140 N   0  0  0  0  0  0  0  0  0  0  0  0
  191.4060  173.9600  144.1390 C   0  0  0  0  0  0  0  0  0  0  0  0
  183.8420  179.4130  143.3810 N   0  0  0  0  0  0  0  0  0  0  0  0
  188.4700  174.6420  140.9460 C   0  0  0  0  0  0  0  0  0  0  0  0
  187.4960  177.3950  145.2300 C   0  0  1  0  0  3  0  0  0  0  0  0
  186.0410  177.4430  143.1420 C   0  0  0  0  0  0  0  0  0  0  0  0
  188.6880  173.8920  140.0090 O   0  0  0  0  0  0  0  0  0  0  0  0
  187.9520  175.9770  144.9840 C   0  0  0  0  0  2  0  0  0  0  0  0
  194.1440  173.6550  142.7830 C   0  0  2  0  0  3  0  0  0  0  0  0
  191.4380  175.3880  147.6960 C   0  0  0  0  0  2  0  0  0  0  0  0
  193.8970  173.9740  144.2550 C   0  0  1  0  0  3  0  0  0  0  0  0
  189.6320  172.0850  142.2650 C   0  0  0  0  0  1  0  0  0  0  0  0
  184.6730  179.8550  144.2630 C   0  0  0  0  0  3  0  0  0  0  0  0
  191.4880  177.9160  150.1660 C   0  0  0  0  0  1  0  0  0  0  0  0
  192.1390  177.4900  148.8620 C   0  0  0  0  0  2  0  0  0  0  0  0
  195.5300  173.0750  142.4300 C   0  0  0  0  0  2  0  0  0  0  0  0
  197.6300  174.4340  142.1040 C   0  0  0  0  0  1  0  0  0  0  0  0
  196.3910  173.8680  141.4390 C   0  0  1  0  0  3  0  0  0  0  0  0
  196.7410  173.1010  140.3270 O   0  0  0  0  0  1  0  0  0  0  0  0
  1 30  1  6  0  0  0
  1  9  1  0  0  0  0
  1 29  1  0  0  0  0
  2 33  1  0  0  0  0
  2 20  1  0  0  0  0
  3 16  1  6  0  0  0
  3 13  1  0  0  0  0
  5 28  1  0  0  0  0
  5 19  1  0  0  0  0
  6 27  1  0  0  0  0
  7 20  1  6  0  0  0
  7 35  1  0  0  0  0
  7  8  1  0  0  0  0
  8 14  1  0  0  0  0
  9 17  1  1  0  0  0
 11  6  1  0  0  0  0
 11 30  2  0  0  0  0
 12  3  1  0  0  0  0
 13 10  2  0  0  0  0
 13 25  1  0  0  0  0
 14 34  1  0  0  0  0
 15 36  1  6  0  0  0
 15 18  1  0  0  0  0
 18 26  1  0  0  0  0
 19 23  1  0  0  0  0
 21 15  1  0  0  0  0
 22  8  2  0  0  0  0
 23 30  1  0  0  0  0
 25 39  1  0  0  0  0
 26  7  1  0  0  0  0
 26 24  2  0  0  0  0
 27 37  2  0  0  0  0
 28 21  1  0  0  0  0
 29 32  1  1  0  0  0
 29 12  1  0  0  0  0
 31 28  2  0  0  0  0
 32 16  1  0  0  0  0
 33 40  1  1  0  0  0
 33 35  1  0  0  0  0
 34 25  1  0  0  0  0
 35  4  1  6  0  0  0
 37  9  1  0  0  0  0
 39 38  1  0  0  0  0
 42 41  1  1  0  0  0
 42 40  1  0  0  0  0
 43 42  1  0  0  0  0
M  END
>  <MODEL>
4

>  <REMARK>
 VINA RESULT:      -7.8      2.443      5.818
  Name = 
  3 active torsions:
  status: ('A' for Active; 'I' for Inactive)
    1  A    between atoms: C_21  and  C_33
    2  A    between atoms: N_29  and  C_32
    3  A    between atoms: C_33  and  C_39
                            x       y       z     vdW  Elec       q    Type
                         _______ _______ _______ _____ _____    ______ ____

>  <TORSDO>
F 3

$$$$
=
 OpenBabel11062418463D

 43 46  0  0  1  0  0  0  0  0999 V2000
  194.9010  171.6380  144.1190 C   0  0  2  0  0  3  0  0  0  0  0  0
  189.4210  178.0290  142.9540 C   0  0  0  0  0  2  0  0  0  0  0  0
  191.7330  171.0790  142.0970 C   0  0  2  0  0  3  0  0  0  0  0  0
  187.4460  176.5240  140.8640 C   0  0  0  0  0  1  0  0  0  0  0  0
  193.7320  176.1480  145.5780 C   0  0  0  0  0  2  0  0  0  0  0  0
  197.0980  171.5220  145.9810 C   0  0  0  0  0  2  0  0  0  0  0  0
  189.2200  175.6170  142.4750 C   0  0  2  0  0  0  0  0  0  0  0  0
  189.5550  174.6180  141.3760 C   0  0  0  0  0  0  0  0  0  0  0  0
  196.0330  170.9460  143.3130 C   0  0  2  0  0  3  0  0  0  0  0  0
  192.4100  171.4550  139.8280 O   0  0  0  0  0  0  0  0  0  0  0  0
  196.2570  172.7030  145.8810 N   0  0  0  0  0  0  0  0  0  0  0  0
  193.2150  170.8180  142.3600 C   0  0  0  0  0  2  0  0  0  0  0  0
  191.4640  171.4850  140.6640 C   0  0  0  0  0  0  0  0  0  0  0  0
  188.5560  173.5730  140.9560 C   0  0  0  0  0  2  0  0  0  0  0  0
  190.5080  174.5060  146.0020 C   0  0  1  0  0  3  0  0  0  0  0  0
  191.3190  172.1680  143.0750 C   0  0  0  0  0  2  0  0  0  0  0  0
  195.8530  169.4390  143.3800 C   0  0  0  0  0  1  0  0  0  0  0  0
  190.4300  175.0870  144.6690 N   0  0  0  0  0  2  0  0  0  0  0  0
  194.8780  175.1550  145.7030 C   0  0  0  0  0  2  0  0  0  0  0  0
  190.1890  176.8100  142.4630 C   0  0  0  0  0  2  0  0  0  0  0  0
  191.9540  174.4710  146.4980 C   0  0  0  0  0  2  0  0  0  0  0  0
  190.6450  174.6570  140.8220 O   0  0  0  0  0  0  0  0  0  0  0  0
  194.5970  174.0170  144.9000 O   0  0  0  0  0  0  0  0  0  0  0  0
  188.3680  174.1240  144.1560 O   0  0  0  0  0  0  0  0  0  0  0  0
  190.1400  171.8360  140.2140 N   0  0  0  0  0  0  0  0  0  0  0  0
  189.2970  174.9070  143.8110 C   0  0  0  0  0  0  0  0  0  0  0  0
  197.9410  171.4720  144.8160 N   0  0  0  0  0  0  0  0  0  0  0  0
  192.6230  175.8180  146.5290 C   0  0  0  0  0  0  0  0  0  0  0  0
  193.6940  171.9750  143.2180 C   0  0  1  0  0  3  0  0  0  0  0  0
  195.3070  172.8160  144.9990 C   0  0  0  0  0  0  0  0  0  0  0  0
  192.2760  176.6510  147.3500 O   0  0  0  0  0  0  0  0  0  0  0  0
  192.4740  172.3430  144.0280 C   0  0  0  0  0  2  0  0  0  0  0  0
  187.9740  177.5830  143.0900 C   0  0  2  0  0  3  0  0  0  0  0  0
  189.0700  172.1480  141.1590 C   0  0  0  0  0  2  0  0  0  0  0  0
  187.8300  176.2700  142.3240 C   0  0  1  0  0  3  0  0  0  0  0  0
  189.6030  175.2560  146.9670 C   0  0  0  0  0  1  0  0  0  0  0  0
  197.4750  171.2750  143.6290 C   0  0  0  0  0  3  0  0  0  0  0  0
  189.6420  170.3140  138.3620 C   0  0  0  0  0  1  0  0  0  0  0  0
  189.8010  171.7600  138.7960 C   0  0  0  0  0  2  0  0  0  0  0  0
  186.8740  178.6380  142.8550 C   0  0  0  0  0  2  0  0  0  0  0  0
  186.3790  178.3200  145.3080 C   0  0  0  0  0  1  0  0  0  0  0  0
  185.8670  178.8670  143.9900 C   0  0  1  0  0  3  0  0  0  0  0  0
  185.5290  180.2140  144.1190 O   0  0  0  0  0  1  0  0  0  0  0  0
  1 30  1  6  0  0  0
  2 33  1  0  0  0  0
  3 12  1  6  0  0  0
  3 16  1  0  0  0  0
  5 19  1  0  0  0  0
  5 28  1  0  0  0  0
  7 20  1  6  0  0  0
  7 26  1  0  0  0  0
  8  7  1  0  0  0  0
  9 17  1  1  0  0  0
  9 37  1  0  0  0  0
  9  1  1  0  0  0  0
 10 13  2  0  0  0  0
 11  6  1  0  0  0  0
 13  3  1  0  0  0  0
 14 34  1  0  0  0  0
 14  8  1  0  0  0  0
 15 21  1  0  0  0  0
 15 36  1  1  0  0  0
 16 32  1  0  0  0  0
 18 15  1  0  0  0  0
 20  2  1  0  0  0  0
 21 28  1  0  0  0  0
 22  8  2  0  0  0  0
 23 30  1  0  0  0  0
 23 19  1  0  0  0  0
 25 13  1  0  0  0  0
 25 34  1  0  0  0  0
 26 24  2  0  0  0  0
 26 18  1  0  0  0  0
 27  6  1  0  0  0  0
 28 31  2  0  0  0  0
 29 12  1  1  0  0  0
 29 32  1  0  0  0  0
 29  1  1  0  0  0  0
 30 11  2  0  0  0  0
 33 40  1  6  0  0  0
 35  4  1  6  0  0  0
 35  7  1  0  0  0  0
 35 33  1  0  0  0  0
 37 27  2  0  0  0  0
 38 39  1  0  0  0  0
 39 25  1  0  0  0  0
 40 42  1  0  0  0  0
 42 43  1  0  0  0  0
 42 41  1  1  0  0  0
M  END
>  <MODEL>
5

>  <REMARK>
 VINA RESULT:      -7.6      2.182      7.803
  Name = 
  3 active torsions:
  status: ('A' for Active; 'I' for Inactive)
    1  A    between atoms: C_21  and  C_33
    2  A    between atoms: N_29  and  C_32
    3  A    between atoms: C_33  and  C_39
                            x       y       z     vdW  Elec       q    Type
                         _______ _______ _______ _____ _____    ______ ____

>  <TORSDO>
F 3

$$$$
=
 OpenBabel11062418463D

 43 46  0  0  1  0  0  0  0  0999 V2000
  195.2860  173.2930  138.3760 C   0  0  2  0  0  3  0  0  0  0  0  0
  192.5220  176.4170  145.7810 C   0  0  0  0  0  2  0  0  0  0  0  0
  191.9300  172.1850  139.7720 C   0  0  2  0  0  3  0  0  0  0  0  0
  189.5510  175.1130  145.7140 C   0  0  0  0  0  1  0  0  0  0  0  0
  196.6110  175.8430  142.3230 C   0  0  0  0  0  2  0  0  0  0  0  0
  197.9410  173.4780  137.2690 C   0  0  0  0  0  2  0  0  0  0  0  0
  191.6750  174.5650  144.3890 C   0  0  2  0  0  0  0  0  0  0  0  0
  190.7480  174.3320  143.2040 C   0  0  0  0  0  0  0  0  0  0  0  0
  195.0410  173.5530  136.8660 C   0  0  2  0  0  3  0  0  0  0  0  0
  190.3480  173.6620  138.7380 O   0  0  0  0  0  0  0  0  0  0  0  0
  197.6120  174.0890  138.5470 N   0  0  0  0  0  0  0  0  0  0  0  0
  192.8360  172.5430  138.5950 C   0  0  0  0  0  2  0  0  0  0  0  0
  190.6180  172.9400  139.7380 C   0  0  0  0  0  0  0  0  0  0  0  0
  189.7560  173.1990  143.2160 C   0  0  0  0  0  2  0  0  0  0  0  0
  195.1910  172.9020  143.9360 C   0  0  1  0  0  3  0  0  0  0  0  0
  192.7270  172.5030  141.0270 C   0  0  0  0  0  2  0  0  0  0  0  0
  194.8010  172.2320  136.1570 C   0  0  0  0  0  1  0  0  0  0  0  0
  194.0820  173.8460  143.8930 N   0  0  0  0  0  2  0  0  0  0  0  0
  197.1340  175.5120  140.9330 C   0  0  0  0  0  2  0  0  0  0  0  0
  192.2990  175.9690  144.3430 C   0  0  0  0  0  2  0  0  0  0  0  0
  196.3140  173.3370  142.9940 C   0  0  0  0  0  2  0  0  0  0  0  0
  190.8010  175.0670  142.2280 O   0  0  0  0  0  0  0  0  0  0  0  0
  196.1460  174.7750  140.2280 O   0  0  0  0  0  0  0  0  0  0  0  0
  192.5080  172.3340  144.7180 O   0  0  0  0  0  0  0  0  0  0  0  0
  189.6370  172.7970  140.7860 N   0  0  0  0  0  0  0  0  0  0  0  0
  192.7670  173.5170  144.3590 C   0  0  0  0  0  0  0  0  0  0  0  0
  197.3340  174.2640  136.2280 N   0  0  0  0  0  0  0  0  0  0  0  0
  196.8510  174.7130  143.2760 C   0  0  0  0  0  0  0  0  0  0  0  0
  193.9720  173.3640  139.1810 C   0  0  1  0  0  3  0  0  0  0  0  0
  196.4070  174.0890  139.0360 C   0  0  0  0  0  0  0  0  0  0  0  0
  197.5090  174.9140  144.2840 O   0  0  0  0  0  0  0  0  0  0  0  0
  194.1330  172.8000  140.5730 C   0  0  0  0  0  2  0  0  0  0  0  0
  191.8780  175.3530  146.6540 C   0  0  2  0  0  3  0  0  0  0  0  0
  189.9810  172.2050  142.0770 C   0  0  0  0  0  2  0  0  0  0  0  0
  190.9640  174.5230  145.7580 C   0  0  1  0  0  3  0  0  0  0  0  0
  195.6910  172.7290  145.3610 C   0  0  0  0  0  1  0  0  0  0  0  0
  196.0570  174.3490  136.0770 C   0  0  0  0  0  3  0  0  0  0  0  0
  188.0270  174.6280  140.5720 C   0  0  0  0  0  1  0  0  0  0  0  0
  188.2370  173.1250  140.5330 C   0  0  0  0  0  2  0  0  0  0  0  0
  191.2910  175.7970  148.0100 C   0  0  0  0  0  2  0  0  0  0  0  0
  189.9240  177.9150  147.9270 C   0  0  0  0  0  1  0  0  0  0  0  0
  191.2590  177.3030  148.3020 C   0  0  1  0  0  3  0  0  0  0  0  0
  191.5660  177.5790  149.6340 O   0  0  0  0  0  1  0  0  0  0  0  0
  1 30  1  1  0  0  0
  1 29  1  0  0  0  0
  2 33  1  0  0  0  0
  3 12  1  6  0  0  0
  3 16  1  0  0  0  0
  5 28  1  0  0  0  0
  6 11  1  0  0  0  0
  7 20  1  6  0  0  0
  7 35  1  0  0  0  0
  8 14  1  0  0  0  0
  8  7  1  0  0  0  0
  9 17  1  6  0  0  0
  9  1  1  0  0  0  0
 10 13  2  0  0  0  0
 11 30  2  0  0  0  0
 13  3  1  0  0  0  0
 13 25  1  0  0  0  0
 15 36  1  1  0  0  0
 18 15  1  0  0  0  0
 18 26  1  0  0  0  0
 19  5  1  0  0  0  0
 20  2  1  0  0  0  0
 21 28  1  0  0  0  0
 21 15  1  0  0  0  0
 22  8  2  0  0  0  0
 23 19  1  0  0  0  0
 25 34  1  0  0  0  0
 26  7  1  0  0  0  0
 26 24  2  0  0  0  0
 27  6  1  0  0  0  0
 28 31  2  0  0  0  0
 29 12  1  6  0  0  0
 29 32  1  0  0  0  0
 30 23  1  0  0  0  0
 32 16  1  0  0  0  0
 33 40  1  1  0  0  0
 34 14  1  0  0  0  0
 35  4  1  6  0  0  0
 35 33  1  0  0  0  0
 37 27  2  0  0  0  0
 37  9  1  0  0  0  0
 39 38  1  0  0  0  0
 39 25  1  0  0  0  0
 40 42  1  0  0  0  0
 42 41  1  1  0  0  0
 42 43  1  0  0  0  0
M  END
>  <MODEL>
6

>  <REMARK>
 VINA RESULT:      -7.0      3.279      7.832
  Name = 
  3 active torsions:
  status: ('A' for Active; 'I' for Inactive)
    1  A    between atoms: C_21  and  C_33
    2  A    between atoms: N_29  and  C_32
    3  A    between atoms: C_33  and  C_39
                            x       y       z     vdW  Elec       q    Type
                         _______ _______ _______ _____ _____    ______ ____

>  <TORSDO>
F 3

$$$$
=
 OpenBabel11062418463D

 43 46  0  0  1  0  0  0  0  0999 V2000
  188.7590  175.6950  144.2140 C   0  0  2  0  0  3  0  0  0  0  0  0
  194.1590  172.4670  138.5000 C   0  0  0  0  0  2  0  0  0  0  0  0
  192.1450  174.3810  145.3310 C   0  0  2  0  0  3  0  0  0  0  0  0
  196.7000  172.0810  140.4830 C   0  0  0  0  0  1  0  0  0  0  0  0
  189.1670  174.1660  139.5960 C   0  0  0  0  0  2  0  0  0  0  0  0
  185.9630  176.2940  143.8510 C   0  0  0  0  0  2  0  0  0  0  0  0
  194.2100  172.4480  140.9670 C   0  0  2  0  0  0  0  0  0  0  0  0
  194.6730  173.3190  142.1260 C   0  0  0  0  0  0  0  0  0  0  0  0
  188.5660  177.0360  144.9700 C   0  0  2  0  0  3  0  0  0  0  0  0
  193.5550  176.3200  145.3350 O   0  0  0  0  0  0  0  0  0  0  0  0
  186.7680  175.7630  142.7630 N   0  0  0  0  0  0  0  0  0  0  0  0
  190.9930  175.3780  145.4470 C   0  0  0  0  0  2  0  0  0  0  0  0
  193.4890  175.0650  145.2110 C   0  0  0  0  0  0  0  0  0  0  0  0
  195.4140  172.7170  143.2910 C   0  0  0  0  0  2  0  0  0  0  0  0
  190.4990  171.2530  141.3310 C   0  0  1  0  0  3  0  0  0  0  0  0
  191.8400  173.5280  144.1090 C   0  0  0  0  0  2  0  0  0  0  0  0
  188.3480  176.7590  146.4470 C   0  0  0  0  0  1  0  0  0  0  0  0
  191.6830  172.0390  141.0090 N   0  0  0  0  0  2  0  0  0  0  0  0
  188.1920  174.9340  140.4750 C   0  0  0  0  0  2  0  0  0  0  0  0
  193.8490  173.2970  139.7380 C   0  0  0  0  0  2  0  0  0  0  0  0
  189.2300  172.0930  141.1840 C   0  0  0  0  0  2  0  0  0  0  0  0
  194.4450  174.5200  142.1220 O   0  0  0  0  0  0  0  0  0  0  0  0
  188.7750  175.1280  141.7560 O   0  0  0  0  0  0  0  0  0  0  0  0
  193.1560  170.6580  142.1770 O   0  0  0  0  0  0  0  0  0  0  0  0
  194.7070  174.3130  145.0330 N   0  0  0  0  0  0  0  0  0  0  0  0
  193.0020  171.6520  141.4140 C   0  0  0  0  0  0  0  0  0  0  0  0
  186.3410  177.6660  144.0600 N   0  0  0  0  0  0  0  0  0  0  0  0
  189.0460  172.6890  139.8150 C   0  0  0  0  0  0  0  0  0  0  0  0
  190.2500  175.3080  144.1240 C   0  0  1  0  0  3  0  0  0  0  0  0
  188.0470  175.5550  142.8730 C   0  0  0  0  0  0  0  0  0  0  0  0
  188.7750  171.9670  138.8690 O   0  0  0  0  0  0  0  0  0  0  0  0
  190.4330  173.8730  143.6920 C   0  0  0  0  0  2  0  0  0  0  0  0
  194.8520  171.2120  139.0040 C   0  0  2  0  0  3  0  0  0  0  0  0
  194.6840  172.9120  144.6200 C   0  0  0  0  0  2  0  0  0  0  0  0
  195.2910  171.4810  140.4400 C   0  0  1  0  0  3  0  0  0  0  0  0
  190.4410  169.9970  140.4760 C   0  0  0  0  0  1  0  0  0  0  0  0
  187.5050  178.0060  144.4990 C   0  0  0  0  0  3  0  0  0  0  0  0
  196.8400  173.9090  146.1640 C   0  0  0  0  0  1  0  0  0  0  0  0
  195.9950  174.9030  145.3880 C   0  0  0  0  0  2  0  0  0  0  0  0
  195.8950  170.5500  138.0790 C   0  0  0  0  0  2  0  0  0  0  0  0
  197.6760  171.7870  136.7900 C   0  0  0  0  0  1  0  0  0  0  0  0
  196.2460  171.2820  136.7790 C   0  0  1  0  0  3  0  0  0  0  0  0
  196.0200  170.4850  135.6570 O   0  0  0  0  0  1  0  0  0  0  0  0
  1 30  1  6  0  0  0
  1  9  1  0  0  0  0
  2 33  1  0  0  0  0
  2 20  1  0  0  0  0
  3 16  1  6  0  0  0
  3 12  1  0  0  0  0
  5 28  1  0  0  0  0
  5 19  1  0  0  0  0
  6 27  1  0  0  0  0
  7 20  1  6  0  0  0
  7 26  1  0  0  0  0
  7  8  1  0  0  0  0
  8 14  1  0  0  0  0
  9 17  1  1  0  0  0
 11 30  2  0  0  0  0
 11  6  1  0  0  0  0
 13  3  1  0  0  0  0
 13 10  2  0  0  0  0
 14 34  1  0  0  0  0
 15 36  1  6  0  0  0
 18 15  1  0  0  0  0
 18 26  1  0  0  0  0
 19 23  1  0  0  0  0
 21 15  1  0  0  0  0
 22  8  2  0  0  0  0
 23 30  1  0  0  0  0
 25 13  1  0  0  0  0
 25 39  1  0  0  0  0
 26 24  2  0  0  0  0
 27 37  2  0  0  0  0
 28 21  1  0  0  0  0
 29 32  1  1  0  0  0
 29  1  1  0  0  0  0
 29 12  1  0  0  0  0
 31 28  2  0  0  0  0
 32 16  1  0  0  0  0
 33 40  1  6  0  0  0
 33 35  1  0  0  0  0
 34 25  1  0  0  0  0
 35  4  1  6  0  0  0
 35  7  1  0  0  0  0
 37  9  1  0  0  0  0
 39 38  1  0  0  0  0
 42 41  1  1  0  0  0
 42 40  1  0  0  0  0
 43 42  1  0  0  0  0
M  END
>  <MODEL>
7

>  <REMARK>
 VINA RESULT:      -6.8      2.644      5.900
  Name = 
  3 active torsions:
  status: ('A' for Active; 'I' for Inactive)
    1  A    between atoms: C_21  and  C_33
    2  A    between atoms: N_29  and  C_32
    3  A    between atoms: C_33  and  C_39
                            x       y       z     vdW  Elec       q    Type
                         _______ _______ _______ _____ _____    ______ ____

>  <TORSDO>
F 3

$$$$
=
 OpenBabel11062418463D

 43 46  0  0  1  0  0  0  0  0999 V2000
  190.6110  175.5240  145.8330 C   0  0  2  0  0  3  0  0  0  0  0  0
  193.0690  173.5720  137.9340 C   0  0  0  0  0  2  0  0  0  0  0  0
  194.1190  174.2060  145.2060 C   0  0  2  0  0  3  0  0  0  0  0  0
  196.1920  172.9810  138.5920 C   0  0  0  0  0  1  0  0  0  0  0  0
  189.0270  174.8180  141.2690 C   0  0  0  0  0  2  0  0  0  0  0  0
  187.9330  176.0410  146.7650 C   0  0  0  0  0  2  0  0  0  0  0  0
  194.1380  173.1400  140.1160 C   0  0  2  0  0  0  0  0  0  0  0  0
  195.0630  173.8240  141.1130 C   0  0  0  0  0  0  0  0  0  0  0  0
  190.7850  176.7080  146.8210 C   0  0  2  0  0  3  0  0  0  0  0  0
  195.4550  176.1830  144.9640 O   0  0  0  0  0  0  0  0  0  0  0  0
  188.2000  175.7400  145.3680 N   0  0  0  0  0  0  0  0  0  0  0  0
  193.1460  175.1130  145.9580 C   0  0  0  0  0  2  0  0  0  0  0  0
  195.3110  174.9650  144.6630 C   0  0  0  0  0  0  0  0  0  0  0  0
  196.2040  173.0700  141.7450 C   0  0  0  0  0  2  0  0  0  0  0  0
  190.8810  171.7220  141.7650 C   0  0  1  0  0  3  0  0  0  0  0  0
  193.3130  173.5580  144.0910 C   0  0  0  0  0  2  0  0  0  0  0  0
  191.1920  176.1750  148.1830 C   0  0  0  0  0  1  0  0  0  0  0  0
  191.8460  172.6070  141.1260 N   0  0  0  0  0  2  0  0  0  0  0  0
  188.5260  175.3790  142.5910 C   0  0  0  0  0  2  0  0  0  0  0  0
  193.3220  174.1660  139.3140 C   0  0  0  0  0  2  0  0  0  0  0  0
  189.6880  172.5130  142.3030 C   0  0  0  0  0  2  0  0  0  0  0  0
  194.8850  174.9960  141.4110 O   0  0  0  0  0  0  0  0  0  0  0  0
  189.5920  175.3820  143.5300 O   0  0  0  0  0  0  0  0  0  0  0  0
  193.6340  171.1220  141.3230 O   0  0  0  0  0  0  0  0  0  0  0  0
  196.3250  174.3140  143.8710 N   0  0  0  0  0  0  0  0  0  0  0  0
  193.2030  172.2220  140.8760 C   0  0  0  0  0  0  0  0  0  0  0  0
  188.4000  177.3740  147.0340 N   0  0  0  0  0  0  0  0  0  0  0  0
  188.9690  173.3220  141.2580 C   0  0  0  0  0  0  0  0  0  0  0  0
  191.9200  175.2310  145.0700 C   0  0  1  0  0  3  0  0  0  0  0  0
  189.4040  175.5790  144.9020 C   0  0  0  0  0  0  0  0  0  0  0  0
  188.3120  172.7580  140.3990 O   0  0  0  0  0  0  0  0  0  0  0  0
  191.8700  173.9000  144.3580 C   0  0  0  0  0  2  0  0  0  0  0  0
  193.8750  172.2850  137.8810 C   0  0  2  0  0  3  0  0  0  0  0  0
  196.0960  173.0020  143.2680 C   0  0  0  0  0  2  0  0  0  0  0  0
  194.8770  172.3290  139.0310 C   0  0  1  0  0  3  0  0  0  0  0  0
  190.4410  170.6280  140.8060 C   0  0  0  0  0  1  0  0  0  0  0  0
  189.6500  177.6920  147.0050 C   0  0  0  0  0  3  0  0  0  0  0  0
  197.6590  176.0420  142.7630 C   0  0  0  0  0  1  0  0  0  0  0  0
  197.6590  174.8960  143.7590 C   0  0  0  0  0  2  0  0  0  0  0  0
  194.4240  171.8400  136.5090 C   0  0  0  0  0  2  0  0  0  0  0  0
  195.6160  169.6170  136.5180 C   0  0  0  0  0  1  0  0  0  0  0  0
  194.3340  170.3470  136.1680 C   0  0  1  0  0  3  0  0  0  0  0  0
  193.2410  169.7390  136.7860 O   0  0  0  0  0  1  0  0  0  0  0  0
  1 30  1  6  0  0  0
  1  9  1  0  0  0  0
  2 20  1  0  0  0  0
  3 16  1  6  0  0  0
  3 12  1  0  0  0  0
  5 19  1  0  0  0  0
  6 27  1  0  0  0  0
  7 20  1  6  0  0  0
  7 26  1  0  0  0  0
  7  8  1  0  0  0  0
  8 22  2  0  0  0  0
  8 14  1  0  0  0  0
  9 37  1  0  0  0  0
  9 17  1  1  0  0  0
 11  6  1  0  0  0  0
 13 10  2  0  0  0  0
 13  3  1  0  0  0  0
 14 34  1  0  0  0  0
 15 36  1  6  0  0  0
 15 21  1  0  0  0  0
 16 32  1  0  0  0  0
 18 15  1  0  0  0  0
 19 23  1  0  0  0  0
 23 30  1  0  0  0  0
 25 13  1  0  0  0  0
 26 18  1  0  0  0  0
 26 24  2  0  0  0  0
 28  5  1  0  0  0  0
 28 21  1  0  0  0  0
 29 32  1  1  0  0  0
 29  1  1  0  0  0  0
 29 12  1  0  0  0  0
 30 11  2  0  0  0  0
 31 28  2  0  0  0  0
 33 40  1  6  0  0  0
 33  2  1  0  0  0  0
 33 35  1  0  0  0  0
 34 25  1  0  0  0  0
 35  4  1  6  0  0  0
 35  7  1  0  0  0  0
 37 27  2  0  0  0  0
 38 39  1  0  0  0  0
 39 25  1  0  0  0  0
 42 40  1  0  0  0  0
 42 41  1  1  0  0  0
 42 43  1  0  0  0  0
M  END
>  <MODEL>
8

>  <REMARK>
 VINA RESULT:      -6.7      2.682      6.130
  Name = 
  3 active torsions:
  status: ('A' for Active; 'I' for Inactive)
    1  A    between atoms: C_21  and  C_33
    2  A    between atoms: N_29  and  C_32
    3  A    between atoms: C_33  and  C_39
                            x       y       z     vdW  Elec       q    Type
                         _______ _______ _______ _____ _____    ______ ____

>  <TORSDO>
F 3

$$$$
=
 OpenBabel11062418463D

 43 46  0  0  1  0  0  0  0  0999 V2000
  187.7860  176.4020  144.6270 C   0  0  2  0  0  3  0  0  0  0  0  0
  193.6730  173.3950  139.2850 C   0  0  0  0  0  2  0  0  0  0  0  0
  191.1260  175.1850  145.9700 C   0  0  2  0  0  3  0  0  0  0  0  0
  196.0800  173.0710  141.4400 C   0  0  0  0  0  1  0  0  0  0  0  0
  188.5650  174.9280  140.0390 C   0  0  0  0  0  2  0  0  0  0  0  0
  185.0050  176.9180  144.0720 C   0  0  0  0  0  2  0  0  0  0  0  0
  193.5520  173.3560  141.7500 C   0  0  2  0  0  0  0  0  0  0  0  0
  193.9050  174.2300  142.9450 C   0  0  0  0  0  0  0  0  0  0  0  0
  187.4980  177.7310  145.3770 C   0  0  2  0  0  3  0  0  0  0  0  0
  192.4700  177.1670  146.0870 O   0  0  0  0  0  0  0  0  0  0  0  0
  185.9010  176.4220  143.0400 N   0  0  0  0  0  0  0  0  0  0  0  0
  189.9370  176.1450  146.0120 C   0  0  0  0  0  2  0  0  0  0  0  0
  192.4530  175.9120  145.9500 C   0  0  0  0  0  0  0  0  0  0  0  0
  194.5810  173.6420  144.1550 C   0  0  0  0  0  2  0  0  0  0  0  0
  189.8640  172.0430  141.8440 C   0  0  1  0  0  3  0  0  0  0  0  0
  190.9340  174.3330  144.7250 C   0  0  0  0  0  2  0  0  0  0  0  0
  187.1870  177.4330  146.8330 C   0  0  0  0  0  1  0  0  0  0  0  0
  191.0420  172.8680  141.6110 N   0  0  0  0  0  2  0  0  0  0  0  0
  187.5080  175.6580  140.8530 C   0  0  0  0  0  2  0  0  0  0  0  0
  193.2510  174.2040  140.5040 C   0  0  0  0  0  2  0  0  0  0  0  0
  188.5830  172.8450  141.6130 C   0  0  0  0  0  2  0  0  0  0  0  0
  193.6400  175.4240  142.9320 O   0  0  0  0  0  0  0  0  0  0  0  0
  187.9930  175.8590  142.1730 O   0  0  0  0  0  0  0  0  0  0  0  0
  192.4730  171.5230  142.8710 O   0  0  0  0  0  0  0  0  0  0  0  0
  193.7030  175.1990  145.8530 N   0  0  0  0  0  0  0  0  0  0  0  0
  192.3410  172.5180  142.1060 C   0  0  0  0  0  0  0  0  0  0  0  0
  185.3250  178.2990  144.3170 N   0  0  0  0  0  0  0  0  0  0  0  0
  188.4770  173.4460  140.2390 C   0  0  0  0  0  0  0  0  0  0  0  0
  189.2910  176.0630  144.6390 C   0  0  1  0  0  3  0  0  0  0  0  0
  187.1750  176.2530  143.2380 C   0  0  0  0  0  0  0  0  0  0  0  0
  188.2950  172.7250  139.2710 O   0  0  0  0  0  0  0  0  0  0  0  0
  189.5500  174.6380  144.2120 C   0  0  0  0  0  2  0  0  0  0  0  0
  194.3690  172.1580  139.8280 C   0  0  2  0  0  3  0  0  0  0  0  0
  193.7540  173.8010  145.4300 C   0  0  0  0  0  2  0  0  0  0  0  0
  194.6980  172.4280  141.2940 C   0  0  1  0  0  3  0  0  0  0  0  0
  189.9060  170.7940  140.9780 C   0  0  0  0  0  1  0  0  0  0  0  0
  186.4430  178.6710  144.8380 C   0  0  0  0  0  3  0  0  0  0  0  0
  195.3200  176.9770  145.3880 C   0  0  0  0  0  1  0  0  0  0  0  0
  194.9430  175.8250  146.3020 C   0  0  0  0  0  2  0  0  0  0  0  0
  195.4950  171.5370  138.9750 C   0  0  0  0  0  2  0  0  0  0  0  0
  197.4940  172.6670  137.9330 C   0  0  0  0  0  1  0  0  0  0  0  0
  196.0160  172.3620  137.7920 C   0  0  1  0  0  3  0  0  0  0  0  0
  195.7600  171.7360  136.5720 O   0  0  0  0  0  1  0  0  0  0  0  0
  1 30  1  6  0  0  0
  1 29  1  0  0  0  0
  1  9  1  0  0  0  0
  2 33  1  0  0  0  0
  2 20  1  0  0  0  0
  3 16  1  6  0  0  0
  3 12  1  0  0  0  0
  5 28  1  0  0  0  0
  5 19  1  0  0  0  0
  6 27  1  0  0  0  0
  7 20  1  6  0  0  0
  7 26  1  0  0  0  0
  7  8  1  0  0  0  0
  8 14  1  0  0  0  0
  9 17  1  1  0  0  0
 11 30  2  0  0  0  0
 11  6  1  0  0  0  0
 13  3  1  0  0  0  0
 13 10  2  0  0  0  0
 14 34  1  0  0  0  0
 15 36  1  6  0  0  0
 18 15  1  0  0  0  0
 18 26  1  0  0  0  0
 19 23  1  0  0  0  0
 21 15  1  0  0  0  0
 22  8  2  0  0  0  0
 23 30  1  0  0  0  0
 25 13  1  0  0  0  0
 25 39  1  0  0  0  0
 26 24  2  0  0  0  0
 27 37  2  0  0  0  0
 28 21  1  0  0  0  0
 29 32  1  1  0  0  0
 29 12  1  0  0  0  0
 31 28  2  0  0  0  0
 32 16  1  0  0  0  0
 33 40  1  6  0  0  0
 33 35  1  0  0  0  0
 34 25  1  0  0  0  0
 35  4  1  6  0  0  0
 35  7  1  0  0  0  0
 37  9  1  0  0  0  0
 38 39  1  0  0  0  0
 42 41  1  1  0  0  0
 42 40  1  0  0  0  0
 43 42  1  0  0  0  0
M  END
>  <MODEL>
9

>  <REMARK>
 VINA RESULT:      -6.4      2.300      5.581
  Name = 
  3 active torsions:
  status: ('A' for Active; 'I' for Inactive)
    1  A    between atoms: C_21  and  C_33
    2  A    between atoms: N_29  and  C_32
    3  A    between atoms: C_33  and  C_39
                            x       y       z     vdW  Elec       q    Type
                         _______ _______ _______ _____ _____    ______ ____

>  <TORSDO>
F 3

$$$$
