=
 OpenBabel11062419333D

 40 42  0  0  1  0  0  0  0  0999 V2000
  188.8990  175.7090  146.2780 C   0  0  0  0  0  0  0  0  0  0  0  0
  188.9390  174.7090  147.1750 C   0  0  0  0  0  2  0  0  0  0  0  0
  185.9230  177.7520  147.6260 C   0  0  0  0  0  2  0  0  0  0  0  0
  187.6260  177.6200  145.2150 C   0  0  0  0  0  2  0  0  0  0  0  0
  186.8190  176.5480  147.3490 C   0  0  0  0  0  2  0  0  0  0  0  0
  186.3790  178.4690  145.2770 C   0  0  0  0  0  0  0  0  0  0  0  0
  188.0610  176.9560  146.5410 C   0  0  1  0  0  0  0  0  0  0  0  0
  185.5940  178.4890  146.3660 C   0  0  0  0  0  3  0  0  0  0  0  0
  190.1810  177.5400  147.5640 F   0  0  0  0  0  0  0  0  0  0  0  0
  188.8980  177.9940  147.3040 C   0  0  0  0  0  2  0  0  0  0  0  0
  186.0700  179.2270  144.1360 O   0  0  0  0  0  0  0  0  0  0  0  0
  186.0040  178.0170  140.6120 C   0  0  0  0  0  0  0  0  0  0  0  0
  184.2290  178.5770  142.7060 C   0  0  0  0  0  0  0  0  0  0  0  0
  183.3720  178.8730  143.7610 O   0  0  0  0  0  1  0  0  0  0  0  0
  186.8630  177.7410  139.6010 F   0  0  0  0  0  0  0  0  0  0  0  0
  184.6330  177.8600  140.4220 C   0  0  0  0  0  3  0  0  0  0  0  0
  183.7310  178.1300  141.4570 C   0  0  0  0  0  0  0  0  0  0  0  0
  185.6120  178.7420  142.8970 C   0  0  0  0  0  0  0  0  0  0  0  0
  186.4910  178.4580  141.8400 C   0  0  0  0  0  3  0  0  0  0  0  0
  181.4400  178.9850  140.9250 C   0  0  0  0  0  1  0  0  0  0  0  0
  182.3680  177.9390  141.1830 O   0  0  0  0  0  0  0  0  0  0  0  0
  189.8780  175.7130  145.1190 C   0  0  2  0  0  3  0  0  0  0  0  0
  190.9710  173.9410  144.5400 C   0  0  2  0  0  3  0  0  0  0  0  0
  189.6290  174.5570  144.1580 C   0  0  0  0  0  2  0  0  0  0  0  0
  191.2340  175.1180  145.4890 C   0  0  1  0  0  3  0  0  0  0  0  0
  191.8950  173.8500  143.3280 C   0  0  0  0  0  2  0  0  0  0  0  0
  192.7790  172.6010  143.4180 C   0  0  1  0  0  3  0  0  0  0  0  0
  192.4030  171.5910  142.3040 C   0  0  1  0  0  0  0  0  0  0  0  0
  191.6840  172.3060  141.1610 C   0  0  0  0  0  1  0  0  0  0  0  0
  193.5650  170.9910  141.8090 O   0  0  0  0  0  1  0  0  0  0  0  0
  191.5290  170.5550  142.8680 N   0  0  0  0  0  2  0  0  0  0  0  0
  190.6110  170.1430  141.8890 N   0  0  0  0  0  2  0  0  0  0  0  0
  190.8690  168.7370  141.6380 C   0  0  0  0  0  1  0  0  0  0  0  0
  194.2850  172.9720  143.4410 C   0  0  1  0  0  3  0  0  0  0  0  0
  194.5730  174.3170  142.7840 C   0  0  0  0  0  1  0  0  0  0  0  0
  193.9420  172.4750  145.7720 O   0  0  0  0  0  1  0  0  0  0  0  0
  194.8670  172.9790  144.8520 C   0  0  0  0  0  2  0  0  0  0  0  0
  192.4290  176.0360  145.1530 C   0  0  0  0  0  2  0  0  0  0  0  0
  193.4360  176.2330  146.2830 C   0  0  0  0  0  2  0  0  0  0  0  0
  194.7920  176.6020  145.7170 C   0  0  0  0  0  1  0  0  0  0  0  0
  1  7  1  0  0  0  0
  1  2  2  0  0  0  0
  4  6  1  0  0  0  0
  4  7  1  0  0  0  0
  5  3  1  0  0  0  0
  6  8  2  0  0  0  0
  7 10  1  1  0  0  0
  7  5  1  0  0  0  0
  8  3  1  0  0  0  0
 10  9  1  0  0  0  0
 11  6  1  0  0  0  0
 12 19  1  0  0  0  0
 13 18  1  0  0  0  0
 13 14  1  0  0  0  0
 15 12  1  0  0  0  0
 16 12  2  0  0  0  0
 16 17  1  0  0  0  0
 17 13  2  0  0  0  0
 18 11  1  0  0  0  0
 19 18  2  0  0  0  0
 20 21  1  0  0  0  0
 21 17  1  0  0  0  0
 22 25  1  0  0  0  0
 22  1  1  1  0  0  0
 23 26  1  6  0  0  0
 23 25  1  0  0  0  0
 24 23  1  0  0  0  0
 24 22  1  0  0  0  0
 25 38  1  6  0  0  0
 27 26  1  6  0  0  0
 27 34  1  0  0  0  0
 28 29  1  6  0  0  0
 28 31  1  0  0  0  0
 28 27  1  0  0  0  0
 30 28  1  0  0  0  0
 32 31  1  0  0  0  0
 33 32  1  0  0  0  0
 34 35  1  1  0  0  0
 34 37  1  0  0  0  0
 37 36  1  0  0  0  0
 38 39  1  0  0  0  0
 40 39  1  0  0  0  0
M  END
>  <MODEL>
1

>  <REMARK>
 VINA RESULT:      -6.7      0.000      0.000
  Name = 
  15 active torsions:
  status: ('A' for Active; 'I' for Inactive)
    1  A    between atoms: C_1  and  C_10
    2  A    between atoms: C_1  and  C_28
    3  A    between atoms: C_7  and  C_8
    4  A    between atoms: C_7  and  C_24
    5  A    between atoms: C_7  and  C_30
    6  A    between atoms: C_8  and  C_32
    7  A    between atoms: C_14  and  O_15
    8  A    between atoms: C_16  and  C_24
    9  A    between atoms: N_18  and  N_34
   10  A    between atoms: C_19  and  C_28
   11  A    between atoms: C_22  and  C_29
   12  A    between atoms: C_23  and  O_38
   13  A    between atoms: C_25  and  O_38
   14  A    between atoms: C_29  and  C_35
   15  A    between atoms: C_30  and  N_34
                            x       y       z     vdW  Elec       q    Type
                         _______ _______ _______ _____ _____    ______ ____

>  <TORSDO>
F 15

$$$$
=
 OpenBabel11062419333D

 40 42  0  0  1  0  0  0  0  0999 V2000
  188.7390  175.2960  146.3630 C   0  0  0  0  0  0  0  0  0  0  0  0
  188.9720  174.5340  147.4450 C   0  0  0  0  0  2  0  0  0  0  0  0
  186.1010  177.8910  147.4350 C   0  0  0  0  0  2  0  0  0  0  0  0
  187.8450  177.3110  145.1210 C   0  0  0  0  0  2  0  0  0  0  0  0
  186.7920  176.5400  147.2780 C   0  0  0  0  0  2  0  0  0  0  0  0
  186.7560  178.3560  145.0690 C   0  0  0  0  0  0  0  0  0  0  0  0
  188.1140  176.6800  146.5060 C   0  0  1  0  0  0  0  0  0  0  0  0
  185.9470  178.5820  146.1170 C   0  0  0  0  0  3  0  0  0  0  0  0
  190.0730  178.1050  146.4010 F   0  0  0  0  0  0  0  0  0  0  0  0
  189.0840  177.6160  147.2400 C   0  0  0  0  0  2  0  0  0  0  0  0
  186.6200  179.0720  143.8690 O   0  0  0  0  0  0  0  0  0  0  0  0
  183.9990  178.1340  141.3910 C   0  0  0  0  0  0  0  0  0  0  0  0
  186.7900  178.1660  141.6320 C   0  0  0  0  0  0  0  0  0  0  0  0
  188.1730  178.1840  141.7850 O   0  0  0  0  0  1  0  0  0  0  0  0
  182.6490  178.1230  141.2730 F   0  0  0  0  0  0  0  0  0  0  0  0
  184.7930  177.6650  140.3460 C   0  0  0  0  0  3  0  0  0  0  0  0
  186.1880  177.6770  140.4460 C   0  0  0  0  0  0  0  0  0  0  0  0
  185.9910  178.6330  142.6890 C   0  0  0  0  0  0  0  0  0  0  0  0
  184.5930  178.6110  142.5570 C   0  0  0  0  0  3  0  0  0  0  0  0
  186.3250  176.6490  138.1680 C   0  0  0  0  0  1  0  0  0  0  0  0
  186.9110  177.1940  139.3440 O   0  0  0  0  0  0  0  0  0  0  0  0
  189.3250  174.8890  145.0230 C   0  0  2  0  0  3  0  0  0  0  0  0
  191.2380  173.8980  144.8650 C   0  0  2  0  0  3  0  0  0  0  0  0
  189.7920  173.4390  145.0210 C   0  0  0  0  0  2  0  0  0  0  0  0
  190.7650  175.3580  144.8400 C   0  0  1  0  0  3  0  0  0  0  0  0
  191.8380  173.3760  143.5610 C   0  0  0  0  0  2  0  0  0  0  0  0
  193.3580  173.2210  143.6940 C   0  0  1  0  0  3  0  0  0  0  0  0
  193.7210  171.7650  144.0830 C   0  0  1  0  0  0  0  0  0  0  0  0
  194.1550  171.7010  145.5470 C   0  0  0  0  0  1  0  0  0  0  0  0
  192.6050  170.9430  143.9010 O   0  0  0  0  0  1  0  0  0  0  0  0
  194.8120  171.2940  143.2220 N   0  0  0  0  0  2  0  0  0  0  0  0
  195.8390  170.7710  144.0240 N   0  0  0  0  0  2  0  0  0  0  0  0
  196.7810  170.1240  143.1280 C   0  0  0  0  0  1  0  0  0  0  0  0
  194.0930  173.7290  142.4250 C   0  0  1  0  0  3  0  0  0  0  0  0
  193.1370  174.2210  141.3450 C   0  0  0  0  0  1  0  0  0  0  0  0
  195.5050  174.7770  144.0700 O   0  0  0  0  0  1  0  0  0  0  0  0
  195.0990  174.8350  142.7330 C   0  0  0  0  0  2  0  0  0  0  0  0
  191.0020  176.1500  143.5360 C   0  0  0  0  0  2  0  0  0  0  0  0
  191.9820  177.3140  143.6510 C   0  0  0  0  0  2  0  0  0  0  0  0
  192.9540  177.0680  144.7870 C   0  0  0  0  0  1  0  0  0  0  0  0
  1  7  1  0  0  0  0
  1  2  2  0  0  0  0
  4  7  1  0  0  0  0
  5  3  1  0  0  0  0
  6  4  1  0  0  0  0
  6  8  2  0  0  0  0
  7 10  1  1  0  0  0
  7  5  1  0  0  0  0
  8  3  1  0  0  0  0
  9 10  1  0  0  0  0
 11  6  1  0  0  0  0
 12 19  1  0  0  0  0
 13 14  1  0  0  0  0
 13 18  1  0  0  0  0
 15 12  1  0  0  0  0
 16 17  1  0  0  0  0
 16 12  2  0  0  0  0
 17 13  2  0  0  0  0
 18 11  1  0  0  0  0
 19 18  2  0  0  0  0
 20 21  1  0  0  0  0
 21 17  1  0  0  0  0
 22  1  1  1  0  0  0
 23 26  1  6  0  0  0
 23 24  1  0  0  0  0
 24 22  1  0  0  0  0
 25 38  1  6  0  0  0
 25 23  1  0  0  0  0
 25 22  1  0  0  0  0
 27 26  1  6  0  0  0
 27 28  1  0  0  0  0
 28 29  1  1  0  0  0
 30 28  1  0  0  0  0
 31 32  1  0  0  0  0
 31 28  1  0  0  0  0
 33 32  1  0  0  0  0
 34 35  1  6  0  0  0
 34 37  1  0  0  0  0
 34 27  1  0  0  0  0
 37 36  1  0  0  0  0
 38 39  1  0  0  0  0
 39 40  1  0  0  0  0
M  END
>  <MODEL>
2

>  <REMARK>
 VINA RESULT:      -6.6      2.024      2.759
  Name = 
  15 active torsions:
  status: ('A' for Active; 'I' for Inactive)
    1  A    between atoms: C_1  and  C_10
    2  A    between atoms: C_1  and  C_28
    3  A    between atoms: C_7  and  C_8
    4  A    between atoms: C_7  and  C_24
    5  A    between atoms: C_7  and  C_30
    6  A    between atoms: C_8  and  C_32
    7  A    between atoms: C_14  and  O_15
    8  A    between atoms: C_16  and  C_24
    9  A    between atoms: N_18  and  N_34
   10  A    between atoms: C_19  and  C_28
   11  A    between atoms: C_22  and  C_29
   12  A    between atoms: C_23  and  O_38
   13  A    between atoms: C_25  and  O_38
   14  A    between atoms: C_29  and  C_35
   15  A    between atoms: C_30  and  N_34
                            x       y       z     vdW  Elec       q    Type
                         _______ _______ _______ _____ _____    ______ ____

>  <TORSDO>
F 15

$$$$
=
 OpenBabel11062419333D

 40 42  0  0  1  0  0  0  0  0999 V2000
  192.3020  175.6180  146.3580 C   0  0  0  0  0  0  0  0  0  0  0  0
  193.3590  176.3880  146.6670 C   0  0  0  0  0  2  0  0  0  0  0  0
  188.5370  175.2410  147.0860 C   0  0  0  0  0  2  0  0  0  0  0  0
  190.3460  177.0120  145.5620 C   0  0  0  0  0  2  0  0  0  0  0  0
  189.9810  174.8440  146.7940 C   0  0  0  0  0  2  0  0  0  0  0  0
  188.8440  177.0820  145.4250 C   0  0  0  0  0  0  0  0  0  0  0  0
  190.8830  176.0820  146.6730 C   0  0  1  0  0  0  0  0  0  0  0  0
  188.0360  176.2450  146.0950 C   0  0  0  0  0  3  0  0  0  0  0  0
  190.1290  178.0560  147.8630 F   0  0  0  0  0  0  0  0  0  0  0  0
  190.8780  176.8960  147.9760 C   0  0  0  0  0  2  0  0  0  0  0  0
  188.3310  178.0550  144.5520 O   0  0  0  0  0  0  0  0  0  0  0  0
  184.6650  178.6490  144.8690 C   0  0  0  0  0  0  0  0  0  0  0  0
  186.5930  178.2420  142.8780 C   0  0  0  0  0  0  0  0  0  0  0  0
  187.5720  178.0270  141.9120 O   0  0  0  0  0  1  0  0  0  0  0  0
  183.7330  178.8510  145.8320 F   0  0  0  0  0  0  0  0  0  0  0  0
  184.2840  178.6130  143.5290 C   0  0  0  0  0  3  0  0  0  0  0  0
  185.2330  178.4150  142.5200 C   0  0  0  0  0  0  0  0  0  0  0  0
  186.9780  178.2720  144.2290 C   0  0  0  0  0  0  0  0  0  0  0  0
  186.0020  178.4760  145.2180 C   0  0  0  0  0  3  0  0  0  0  0  0
  183.4120  178.1740  140.8210 C   0  0  0  0  0  1  0  0  0  0  0  0
  184.7650  178.4000  141.1970 O   0  0  0  0  0  0  0  0  0  0  0  0
  192.4970  174.4010  145.4730 C   0  0  2  0  0  3  0  0  0  0  0  0
  193.5300  174.5200  143.5790 C   0  0  2  0  0  3  0  0  0  0  0  0
  193.9450  174.2510  145.0210 C   0  0  0  0  0  2  0  0  0  0  0  0
  192.0680  174.6450  144.0290 C   0  0  1  0  0  3  0  0  0  0  0  0
  193.8450  173.3210  142.6870 C   0  0  0  0  0  2  0  0  0  0  0  0
  194.0810  173.7740  141.2420 C   0  0  1  0  0  3  0  0  0  0  0  0
  195.5980  173.7930  140.9220 C   0  0  1  0  0  0  0  0  0  0  0  0
  196.3430  172.8150  141.8290 C   0  0  0  0  0  1  0  0  0  0  0  0
  195.7970  173.4220  139.5890 O   0  0  0  0  0  1  0  0  0  0  0  0
  196.1160  175.1510  141.1270 N   0  0  0  0  0  2  0  0  0  0  0  0
  196.9490  175.1610  142.2570 N   0  0  0  0  0  2  0  0  0  0  0  0
  196.8180  176.4740  142.8630 C   0  0  0  0  0  1  0  0  0  0  0  0
  193.2430  172.9350  140.2410 C   0  0  1  0  0  3  0  0  0  0  0  0
  192.8540  171.5700  140.7940 C   0  0  0  0  0  1  0  0  0  0  0  0
  190.8570  172.8420  139.9370 O   0  0  0  0  0  1  0  0  0  0  0  0
  191.9810  173.6590  139.7810 C   0  0  0  0  0  2  0  0  0  0  0  0
  191.0750  173.5940  143.4880 C   0  0  0  0  0  2  0  0  0  0  0  0
  189.6810  174.1250  143.1610 C   0  0  0  0  0  2  0  0  0  0  0  0
  189.7840  175.3570  142.2860 C   0  0  0  0  0  1  0  0  0  0  0  0
  1  2  2  0  0  0  0
  1  7  1  0  0  0  0
  4  7  1  0  0  0  0
  5  3  1  0  0  0  0
  6  4  1  0  0  0  0
  6  8  2  0  0  0  0
  7  5  1  0  0  0  0
  7 10  1  1  0  0  0
  8  3  1  0  0  0  0
  9 10  1  0  0  0  0
 11  6  1  0  0  0  0
 12 19  1  0  0  0  0
 12 15  1  0  0  0  0
 13 18  1  0  0  0  0
 14 13  1  0  0  0  0
 16 12  2  0  0  0  0
 17 13  2  0  0  0  0
 17 16  1  0  0  0  0
 18 11  1  0  0  0  0
 18 19  2  0  0  0  0
 20 21  1  0  0  0  0
 21 17  1  0  0  0  0
 22  1  1  1  0  0  0
 23 26  1  6  0  0  0
 23 25  1  0  0  0  0
 23 24  1  0  0  0  0
 24 22  1  0  0  0  0
 25 38  1  6  0  0  0
 25 22  1  0  0  0  0
 27 26  1  1  0  0  0
 28 31  1  0  0  0  0
 28 27  1  0  0  0  0
 28 29  1  1  0  0  0
 30 28  1  0  0  0  0
 31 32  1  0  0  0  0
 32 33  1  0  0  0  0
 34 35  1  1  0  0  0
 34 27  1  0  0  0  0
 37 36  1  0  0  0  0
 37 34  1  0  0  0  0
 39 38  1  0  0  0  0
 40 39  1  0  0  0  0
M  END
>  <MODEL>
3

>  <REMARK>
 VINA RESULT:      -6.6      2.734      4.307
  Name = 
  15 active torsions:
  status: ('A' for Active; 'I' for Inactive)
    1  A    between atoms: C_1  and  C_10
    2  A    between atoms: C_1  and  C_28
    3  A    between atoms: C_7  and  C_8
    4  A    between atoms: C_7  and  C_24
    5  A    between atoms: C_7  and  C_30
    6  A    between atoms: C_8  and  C_32
    7  A    between atoms: C_14  and  O_15
    8  A    between atoms: C_16  and  C_24
    9  A    between atoms: N_18  and  N_34
   10  A    between atoms: C_19  and  C_28
   11  A    between atoms: C_22  and  C_29
   12  A    between atoms: C_23  and  O_38
   13  A    between atoms: C_25  and  O_38
   14  A    between atoms: C_29  and  C_35
   15  A    between atoms: C_30  and  N_34
                            x       y       z     vdW  Elec       q    Type
                         _______ _______ _______ _____ _____    ______ ____

>  <TORSDO>
F 15

$$$$
=
 OpenBabel11062419333D

 40 42  0  0  1  0  0  0  0  0999 V2000
  191.4340  176.2820  143.9500 C   0  0  0  0  0  0  0  0  0  0  0  0
  191.9120  177.4570  144.3930 C   0  0  0  0  0  2  0  0  0  0  0  0
  194.6950  174.7530  142.5810 C   0  0  0  0  0  2  0  0  0  0  0  0
  191.7770  174.3550  142.3470 C   0  0  0  0  0  2  0  0  0  0  0  0
  193.7060  175.8120  143.0590 C   0  0  0  0  0  2  0  0  0  0  0  0
  192.7630  173.6440  141.4510 C   0  0  0  0  0  0  0  0  0  0  0  0
  192.3840  175.1720  143.5100 C   0  0  1  0  0  0  0  0  0  0  0  0
  194.0840  173.8640  141.5440 C   0  0  0  0  0  3  0  0  0  0  0  0
  193.3590  174.7580  145.6900 F   0  0  0  0  0  0  0  0  0  0  0  0
  192.6130  174.1920  144.6690 C   0  0  0  0  0  2  0  0  0  0  0  0
  192.2330  172.7510  140.5060 O   0  0  0  0  0  0  0  0  0  0  0  0
  188.7880  172.7410  139.0830 C   0  0  0  0  0  0  0  0  0  0  0  0
  191.3630  173.6260  138.4240 C   0  0  0  0  0  0  0  0  0  0  0  0
  192.6550  174.0440  138.1200 O   0  0  0  0  0  1  0  0  0  0  0  0
  187.5420  172.3170  139.4050 F   0  0  0  0  0  0  0  0  0  0  0  0
  189.0140  173.3790  137.8650 C   0  0  0  0  0  3  0  0  0  0  0  0
  190.2920  173.8320  137.5200 C   0  0  0  0  0  0  0  0  0  0  0  0
  191.1380  172.9770  139.6500 C   0  0  0  0  0  0  0  0  0  0  0  0
  189.8440  172.5370  139.9690 C   0  0  0  0  0  3  0  0  0  0  0  0
  190.0360  173.9080  135.0320 C   0  0  0  0  0  1  0  0  0  0  0  0
  190.4290  174.4700  136.2780 O   0  0  0  0  0  0  0  0  0  0  0  0
  189.9600  175.9630  144.1220 C   0  0  2  0  0  3  0  0  0  0  0  0
  188.4850  177.5090  144.4370 C   0  0  2  0  0  3  0  0  0  0  0  0
  189.0830  176.8180  143.2170 C   0  0  0  0  0  2  0  0  0  0  0  0
  189.3500  176.6300  145.3510 C   0  0  1  0  0  3  0  0  0  0  0  0
  186.9800  177.2670  144.5200 C   0  0  0  0  0  2  0  0  0  0  0  0
  186.2540  178.5420  144.9660 C   0  0  1  0  0  3  0  0  0  0  0  0
  185.5180  179.1920  143.7670 C   0  0  1  0  0  0  0  0  0  0  0  0
  184.0990  178.6350  143.6510 C   0  0  0  0  0  1  0  0  0  0  0  0
  185.4510  180.5750  143.9570 O   0  0  0  0  0  1  0  0  0  0  0  0
  186.2620  178.9110  142.5340 N   0  0  0  0  0  2  0  0  0  0  0  0
  185.3730  178.4380  141.5560 N   0  0  0  0  0  2  0  0  0  0  0  0
  186.1650  177.6970  140.5920 C   0  0  0  0  0  1  0  0  0  0  0  0
  185.3390  178.2750  146.1900 C   0  0  1  0  0  3  0  0  0  0  0  0
  185.2140  176.7930  146.5230 C   0  0  0  0  0  1  0  0  0  0  0  0
  186.3720  178.1450  148.3610 O   0  0  0  0  0  1  0  0  0  0  0  0
  185.7960  179.0240  147.4380 C   0  0  0  0  0  2  0  0  0  0  0  0
  188.6100  175.6520  146.2880 C   0  0  0  0  0  2  0  0  0  0  0  0
  189.5070  174.8330  147.2130 C   0  0  0  0  0  2  0  0  0  0  0  0
  190.6870  175.6670  147.6690 C   0  0  0  0  0  1  0  0  0  0  0  0
  1  2  2  0  0  0  0
  3  5  1  0  0  0  0
  4  7  1  0  0  0  0
  5  7  1  0  0  0  0
  6  8  2  0  0  0  0
  6  4  1  0  0  0  0
  7  1  1  0  0  0  0
  7 10  1  1  0  0  0
  8  3  1  0  0  0  0
 10  9  1  0  0  0  0
 11  6  1  0  0  0  0
 12 15  1  0  0  0  0
 12 19  1  0  0  0  0
 13 18  1  0  0  0  0
 14 13  1  0  0  0  0
 16 12  2  0  0  0  0
 17 16  1  0  0  0  0
 17 13  2  0  0  0  0
 18 19  2  0  0  0  0
 18 11  1  0  0  0  0
 20 21  1  0  0  0  0
 21 17  1  0  0  0  0
 22  1  1  6  0  0  0
 22 25  1  0  0  0  0
 23 26  1  1  0  0  0
 23 25  1  0  0  0  0
 24 22  1  0  0  0  0
 24 23  1  0  0  0  0
 25 38  1  1  0  0  0
 27 26  1  6  0  0  0
 27 34  1  0  0  0  0
 28 29  1  6  0  0  0
 28 30  1  0  0  0  0
 28 27  1  0  0  0  0
 31 28  1  0  0  0  0
 32 31  1  0  0  0  0
 33 32  1  0  0  0  0
 34 35  1  1  0  0  0
 34 37  1  0  0  0  0
 37 36  1  0  0  0  0
 38 39  1  0  0  0  0
 39 40  1  0  0  0  0
M  END
>  <MODEL>
4

>  <REMARK>
 VINA RESULT:      -6.5      3.529      8.266
  Name = 
  15 active torsions:
  status: ('A' for Active; 'I' for Inactive)
    1  A    between atoms: C_1  and  C_10
    2  A    between atoms: C_1  and  C_28
    3  A    between atoms: C_7  and  C_8
    4  A    between atoms: C_7  and  C_24
    5  A    between atoms: C_7  and  C_30
    6  A    between atoms: C_8  and  C_32
    7  A    between atoms: C_14  and  O_15
    8  A    between atoms: C_16  and  C_24
    9  A    between atoms: N_18  and  N_34
   10  A    between atoms: C_19  and  C_28
   11  A    between atoms: C_22  and  C_29
   12  A    between atoms: C_23  and  O_38
   13  A    between atoms: C_25  and  O_38
   14  A    between atoms: C_29  and  C_35
   15  A    between atoms: C_30  and  N_34
                            x       y       z     vdW  Elec       q    Type
                         _______ _______ _______ _____ _____    ______ ____

>  <TORSDO>
F 15

$$$$
=
 OpenBabel11062419333D

 40 42  0  0  1  0  0  0  0  0999 V2000
  189.0730  175.2850  145.4280 C   0  0  0  0  0  0  0  0  0  0  0  0
  189.5010  174.3960  146.3400 C   0  0  0  0  0  2  0  0  0  0  0  0
  186.6830  177.5840  147.3900 C   0  0  0  0  0  2  0  0  0  0  0  0
  187.7930  177.3290  144.6630 C   0  0  0  0  0  2  0  0  0  0  0  0
  187.3730  176.3040  146.9270 C   0  0  0  0  0  2  0  0  0  0  0  0
  186.6800  178.2940  144.9950 C   0  0  0  0  0  0  0  0  0  0  0  0
  188.4410  176.6040  145.8640 C   0  0  1  0  0  0  0  0  0  0  0  0
  186.1600  178.3710  146.2300 C   0  0  0  0  0  3  0  0  0  0  0  0
  190.2660  178.1340  145.4110 F   0  0  0  0  0  0  0  0  0  0  0  0
  189.5230  177.5410  146.4190 C   0  0  0  0  0  2  0  0  0  0  0  0
  186.2030  179.0980  143.9470 O   0  0  0  0  0  0  0  0  0  0  0  0
  185.3740  177.9240  140.5080 C   0  0  0  0  0  0  0  0  0  0  0  0
  184.0760  178.6620  142.8790 C   0  0  0  0  0  0  0  0  0  0  0  0
  183.4590  179.0440  144.0660 O   0  0  0  0  0  1  0  0  0  0  0  0
  186.0030  177.5620  139.3630 F   0  0  0  0  0  0  0  0  0  0  0  0
  183.9820  177.9190  140.5690 C   0  0  0  0  0  3  0  0  0  0  0  0
  183.3160  178.2800  141.7450 C   0  0  0  0  0  0  0  0  0  0  0  0
  185.4800  178.6730  142.8160 C   0  0  0  0  0  0  0  0  0  0  0  0
  186.1190  178.3020  141.6230 C   0  0  0  0  0  3  0  0  0  0  0  0
  181.1030  178.8760  140.7410 C   0  0  0  0  0  1  0  0  0  0  0  0
  181.9130  178.2410  141.7220 O   0  0  0  0  0  0  0  0  0  0  0  0
  189.4430  175.0950  143.9680 C   0  0  2  0  0  3  0  0  0  0  0  0
  190.7860  173.5300  143.3240 C   0  0  2  0  0  3  0  0  0  0  0  0
  189.2780  173.6470  143.5220 C   0  0  0  0  0  2  0  0  0  0  0  0
  190.9490  174.9960  143.7480 C   0  0  1  0  0  3  0  0  0  0  0  0
  191.1230  173.2230  141.8660 C   0  0  0  0  0  2  0  0  0  0  0  0
  192.3530  172.3120  141.7800 C   0  0  1  0  0  3  0  0  0  0  0  0
  191.9910  170.9800  141.0740 C   0  0  1  0  0  0  0  0  0  0  0  0
  190.5810  171.0560  140.4890 C   0  0  0  0  0  1  0  0  0  0  0  0
  192.9010  170.7390  140.0400 O   0  0  0  0  0  1  0  0  0  0  0  0
  192.0650  169.8830  142.0460 N   0  0  0  0  0  2  0  0  0  0  0  0
  193.1270  170.1230  142.9320 N   0  0  0  0  0  2  0  0  0  0  0  0
  192.7100  169.6260  144.2300 C   0  0  0  0  0  1  0  0  0  0  0  0
  193.5600  173.0480  141.1410 C   0  0  1  0  0  3  0  0  0  0  0  0
  193.1370  174.1440  140.1700 C   0  0  0  0  0  1  0  0  0  0  0  0
  195.2610  174.6810  141.6280 O   0  0  0  0  0  1  0  0  0  0  0  0
  194.4990  173.6490  142.1830 C   0  0  0  0  0  2  0  0  0  0  0  0
  191.4890  175.9770  142.6850 C   0  0  0  0  0  2  0  0  0  0  0  0
  192.6980  176.8030  143.1170 C   0  0  0  0  0  2  0  0  0  0  0  0
  193.1700  176.3600  144.4870 C   0  0  0  0  0  1  0  0  0  0  0  0
  1  7  1  0  0  0  0
  1  2  2  0  0  0  0
  4  6  1  0  0  0  0
  4  7  1  0  0  0  0
  5  3  1  0  0  0  0
  6  8  2  0  0  0  0
  7 10  1  1  0  0  0
  7  5  1  0  0  0  0
  8  3  1  0  0  0  0
  9 10  1  0  0  0  0
 11  6  1  0  0  0  0
 12 16  2  0  0  0  0
 12 19  1  0  0  0  0
 13 14  1  0  0  0  0
 15 12  1  0  0  0  0
 16 17  1  0  0  0  0
 17 13  2  0  0  0  0
 18 13  1  0  0  0  0
 18 11  1  0  0  0  0
 19 18  2  0  0  0  0
 20 21  1  0  0  0  0
 21 17  1  0  0  0  0
 22  1  1  1  0  0  0
 23 26  1  6  0  0  0
 23 24  1  0  0  0  0
 23 25  1  0  0  0  0
 24 22  1  0  0  0  0
 25 38  1  6  0  0  0
 25 22  1  0  0  0  0
 27 26  1  6  0  0  0
 28 29  1  6  0  0  0
 28 27  1  0  0  0  0
 28 31  1  0  0  0  0
 30 28  1  0  0  0  0
 31 32  1  0  0  0  0
 32 33  1  0  0  0  0
 34 35  1  6  0  0  0
 34 27  1  0  0  0  0
 34 37  1  0  0  0  0
 36 37  1  0  0  0  0
 38 39  1  0  0  0  0
 39 40  1  0  0  0  0
M  END
>  <MODEL>
5

>  <REMARK>
 VINA RESULT:      -6.4      1.444      1.772
  Name = 
  15 active torsions:
  status: ('A' for Active; 'I' for Inactive)
    1  A    between atoms: C_1  and  C_10
    2  A    between atoms: C_1  and  C_28
    3  A    between atoms: C_7  and  C_8
    4  A    between atoms: C_7  and  C_24
    5  A    between atoms: C_7  and  C_30
    6  A    between atoms: C_8  and  C_32
    7  A    between atoms: C_14  and  O_15
    8  A    between atoms: C_16  and  C_24
    9  A    between atoms: N_18  and  N_34
   10  A    between atoms: C_19  and  C_28
   11  A    between atoms: C_22  and  C_29
   12  A    between atoms: C_23  and  O_38
   13  A    between atoms: C_25  and  O_38
   14  A    between atoms: C_29  and  C_35
   15  A    between atoms: C_30  and  N_34
                            x       y       z     vdW  Elec       q    Type
                         _______ _______ _______ _____ _____    ______ ____

>  <TORSDO>
F 15

$$$$
=
 OpenBabel11062419333D

 40 42  0  0  1  0  0  0  0  0999 V2000
  191.3620  176.1320  144.9390 C   0  0  0  0  0  0  0  0  0  0  0  0
  192.3430  177.0300  144.7400 C   0  0  0  0  0  2  0  0  0  0  0  0
  188.1450  175.4950  146.9620 C   0  0  0  0  0  2  0  0  0  0  0  0
  189.1750  177.4040  144.9550 C   0  0  0  0  0  2  0  0  0  0  0  0
  189.4050  175.1990  146.1540 C   0  0  0  0  0  2  0  0  0  0  0  0
  187.7240  177.3760  145.3720 C   0  0  0  0  0  0  0  0  0  0  0  0
  190.1300  176.4960  145.7620 C   0  0  1  0  0  0  0  0  0  0  0  0
  187.2630  176.4770  146.2570 C   0  0  0  0  0  3  0  0  0  0  0  0
  189.6330  178.2740  147.3340 F   0  0  0  0  0  0  0  0  0  0  0  0
  190.5520  177.2900  147.0080 C   0  0  0  0  0  2  0  0  0  0  0  0
  186.8740  178.3240  144.7800 O   0  0  0  0  0  0  0  0  0  0  0  0
  186.2470  177.9750  141.1220 C   0  0  0  0  0  0  0  0  0  0  0  0
  184.8160  178.3190  143.5070 C   0  0  0  0  0  0  0  0  0  0  0  0
  184.1340  178.5010  144.7060 O   0  0  0  0  0  1  0  0  0  0  0  0
  186.9380  177.8030  139.9700 F   0  0  0  0  0  0  0  0  0  0  0  0
  184.8580  178.0870  141.0910 C   0  0  0  0  0  3  0  0  0  0  0  0
  184.1260  178.2550  142.2710 C   0  0  0  0  0  0  0  0  0  0  0  0
  186.2180  178.2130  143.5400 C   0  0  0  0  0  0  0  0  0  0  0  0
  186.9230  178.0420  142.3390 C   0  0  0  0  0  3  0  0  0  0  0  0
  182.0110  178.1650  140.9370 C   0  0  0  0  0  1  0  0  0  0  0  0
  182.7310  178.3520  142.1490 O   0  0  0  0  0  0  0  0  0  0  0  0
  191.3580  174.8410  144.1420 C   0  0  2  0  0  3  0  0  0  0  0  0
  192.0570  174.7570  142.0990 C   0  0  2  0  0  3  0  0  0  0  0  0
  192.7010  174.5810  143.4700 C   0  0  0  0  0  2  0  0  0  0  0  0
  190.6990  174.9940  142.7740 C   0  0  1  0  0  3  0  0  0  0  0  0
  192.1700  173.4770  141.2740 C   0  0  0  0  0  2  0  0  0  0  0  0
  192.4840  173.8080  139.8100 C   0  0  1  0  0  3  0  0  0  0  0  0
  194.0120  173.7410  139.5560 C   0  0  1  0  0  0  0  0  0  0  0  0
  194.6950  172.9180  140.6480 C   0  0  0  0  0  1  0  0  0  0  0  0
  194.2520  173.1420  138.3160 O   0  0  0  0  0  1  0  0  0  0  0  0
  194.5600  175.1030  139.5480 N   0  0  0  0  0  2  0  0  0  0  0  0
  195.4650  175.2430  140.6120 N   0  0  0  0  0  2  0  0  0  0  0  0
  195.1390  176.4910  141.2780 C   0  0  0  0  0  1  0  0  0  0  0  0
  191.6520  172.9300  138.8390 C   0  0  1  0  0  3  0  0  0  0  0  0
  190.8740  171.8320  139.5540 C   0  0  0  0  0  1  0  0  0  0  0  0
  191.3670  174.4720  137.0120 O   0  0  0  0  0  1  0  0  0  0  0  0
  190.6810  173.7490  137.9930 C   0  0  0  0  0  2  0  0  0  0  0  0
  189.5890  173.9570  142.4980 C   0  0  0  0  0  2  0  0  0  0  0  0
  188.2490  174.5400  142.0550 C   0  0  0  0  0  2  0  0  0  0  0  0
  188.2260  174.7090  140.5500 C   0  0  0  0  0  1  0  0  0  0  0  0
  1  7  1  0  0  0  0
  2  1  2  0  0  0  0
  4  6  1  0  0  0  0
  4  7  1  0  0  0  0
  5  3  1  0  0  0  0
  6  8  2  0  0  0  0
  7  5  1  0  0  0  0
  7 10  1  1  0  0  0
  8  3  1  0  0  0  0
 10  9  1  0  0  0  0
 11  6  1  0  0  0  0
 12 19  1  0  0  0  0
 13 18  1  0  0  0  0
 13 14  1  0  0  0  0
 15 12  1  0  0  0  0
 16 12  2  0  0  0  0
 16 17  1  0  0  0  0
 17 13  2  0  0  0  0
 18 11  1  0  0  0  0
 19 18  2  0  0  0  0
 20 21  1  0  0  0  0
 21 17  1  0  0  0  0
 22  1  1  1  0  0  0
 23 26  1  6  0  0  0
 23 25  1  0  0  0  0
 23 24  1  0  0  0  0
 24 22  1  0  0  0  0
 25 38  1  6  0  0  0
 25 22  1  0  0  0  0
 27 26  1  1  0  0  0
 28 27  1  0  0  0  0
 28 29  1  1  0  0  0
 30 28  1  0  0  0  0
 31 28  1  0  0  0  0
 31 32  1  0  0  0  0
 32 33  1  0  0  0  0
 34 35  1  1  0  0  0
 34 27  1  0  0  0  0
 36 37  1  0  0  0  0
 37 34  1  0  0  0  0
 39 38  1  0  0  0  0
 40 39  1  0  0  0  0
M  END
>  <MODEL>
6

>  <REMARK>
 VINA RESULT:      -6.4      2.529      4.169
  Name = 
  15 active torsions:
  status: ('A' for Active; 'I' for Inactive)
    1  A    between atoms: C_1  and  C_10
    2  A    between atoms: C_1  and  C_28
    3  A    between atoms: C_7  and  C_8
    4  A    between atoms: C_7  and  C_24
    5  A    between atoms: C_7  and  C_30
    6  A    between atoms: C_8  and  C_32
    7  A    between atoms: C_14  and  O_15
    8  A    between atoms: C_16  and  C_24
    9  A    between atoms: N_18  and  N_34
   10  A    between atoms: C_19  and  C_28
   11  A    between atoms: C_22  and  C_29
   12  A    between atoms: C_23  and  O_38
   13  A    between atoms: C_25  and  O_38
   14  A    between atoms: C_29  and  C_35
   15  A    between atoms: C_30  and  N_34
                            x       y       z     vdW  Elec       q    Type
                         _______ _______ _______ _____ _____    ______ ____

>  <TORSDO>
F 15

$$$$
=
 OpenBabel11062419333D

 40 42  0  0  1  0  0  0  0  0999 V2000
  189.7930  173.8770  141.9100 C   0  0  0  0  0  0  0  0  0  0  0  0
  189.7960  174.6380  140.8020 C   0  0  0  0  0  2  0  0  0  0  0  0
  191.5250  170.5720  142.8700 C   0  0  0  0  0  2  0  0  0  0  0  0
  191.7780  173.4630  143.4240 C   0  0  0  0  0  2  0  0  0  0  0  0
  190.4040  171.5490  142.5290 C   0  0  0  0  0  2  0  0  0  0  0  0
  192.5630  172.4240  144.1870 C   0  0  0  0  0  0  0  0  0  0  0  0
  190.9620  172.9460  142.2170 C   0  0  1  0  0  0  0  0  0  0  0  0
  192.4090  171.1110  143.9500 C   0  0  0  0  0  3  0  0  0  0  0  0
  193.2020  173.3050  141.3600 F   0  0  0  0  0  0  0  0  0  0  0  0
  191.9210  172.9020  141.0190 C   0  0  0  0  0  2  0  0  0  0  0  0
  193.4520  172.8920  145.1670 O   0  0  0  0  0  0  0  0  0  0  0  0
  193.6690  176.3620  146.5130 C   0  0  0  0  0  0  0  0  0  0  0  0
  194.8500  174.7640  144.5370 C   0  0  0  0  0  0  0  0  0  0  0  0
  195.4110  173.9500  143.5580 O   0  0  0  0  0  1  0  0  0  0  0  0
  193.1010  177.1320  147.4710 F   0  0  0  0  0  0  0  0  0  0  0  0
  194.6480  176.8970  145.6790 C   0  0  0  0  0  3  0  0  0  0  0  0
  195.2530  176.1140  144.6890 C   0  0  0  0  0  0  0  0  0  0  0  0
  193.8580  174.2240  145.3730 C   0  0  0  0  0  0  0  0  0  0  0  0
  193.2730  175.0350  146.3590 C   0  0  0  0  0  3  0  0  0  0  0  0
  196.3030  176.6440  142.4810 C   0  0  0  0  0  1  0  0  0  0  0  0
  196.2350  176.7310  143.8980 O   0  0  0  0  0  0  0  0  0  0  0  0
  188.7490  174.1240  142.9830 C   0  0  2  0  0  3  0  0  0  0  0  0
  187.6680  175.9900  143.1190 C   0  0  2  0  0  3  0  0  0  0  0  0
  187.4490  174.6630  142.4000 C   0  0  0  0  0  2  0  0  0  0  0  0
  188.9650  175.4380  143.7280 C   0  0  1  0  0  3  0  0  0  0  0  0
  186.5400  176.2680  144.1100 C   0  0  0  0  0  2  0  0  0  0  0  0
  186.5190  177.7510  144.4980 C   0  0  1  0  0  3  0  0  0  0  0  0
  185.6900  178.5660  143.4720 C   0  0  1  0  0  0  0  0  0  0  0  0
  185.0610  179.7840  144.1470 C   0  0  0  0  0  1  0  0  0  0  0  0
  186.5260  178.9990  142.4380 O   0  0  0  0  0  1  0  0  0  0  0  0
  184.6360  177.7100  142.9140 N   0  0  0  0  0  2  0  0  0  0  0  0
  183.6200  178.5180  142.3810 N   0  0  0  0  0  2  0  0  0  0  0  0
  183.6150  178.2930  140.9470 C   0  0  0  0  0  1  0  0  0  0  0  0
  186.0600  177.9460  145.9670 C   0  0  1  0  0  3  0  0  0  0  0  0
  185.1610  176.8190  146.4600 C   0  0  0  0  0  1  0  0  0  0  0  0
  186.8120  178.6850  148.1310 O   0  0  0  0  0  1  0  0  0  0  0  0
  187.2320  178.1010  146.9320 C   0  0  0  0  0  2  0  0  0  0  0  0
  189.0090  175.2840  145.2630 C   0  0  0  0  0  2  0  0  0  0  0  0
  189.9590  176.2370  145.9850 C   0  0  0  0  0  2  0  0  0  0  0  0
  190.4500  177.3070  145.0320 C   0  0  0  0  0  1  0  0  0  0  0  0
  1  7  1  0  0  0  0
  2  1  2  0  0  0  0
  3  8  1  0  0  0  0
  4  6  1  0  0  0  0
  5  3  1  0  0  0  0
  6 11  1  0  0  0  0
  7 10  1  6  0  0  0
  7  5  1  0  0  0  0
  7  4  1  0  0  0  0
  8  6  2  0  0  0  0
 10  9  1  0  0  0  0
 11 18  1  0  0  0  0
 12 15  1  0  0  0  0
 13 17  2  0  0  0  0
 13 18  1  0  0  0  0
 14 13  1  0  0  0  0
 16 12  2  0  0  0  0
 17 16  1  0  0  0  0
 18 19  2  0  0  0  0
 19 12  1  0  0  0  0
 20 21  1  0  0  0  0
 21 17  1  0  0  0  0
 22  1  1  6  0  0  0
 22 25  1  0  0  0  0
 23 25  1  0  0  0  0
 23 26  1  1  0  0  0
 24 22  1  0  0  0  0
 24 23  1  0  0  0  0
 25 38  1  1  0  0  0
 27 26  1  6  0  0  0
 27 34  1  0  0  0  0
 28 29  1  1  0  0  0
 28 27  1  0  0  0  0
 30 28  1  0  0  0  0
 31 28  1  0  0  0  0
 32 31  1  0  0  0  0
 33 32  1  0  0  0  0
 34 35  1  1  0  0  0
 34 37  1  0  0  0  0
 37 36  1  0  0  0  0
 38 39  1  0  0  0  0
 40 39  1  0  0  0  0
M  END
>  <MODEL>
7

>  <REMARK>
 VINA RESULT:      -6.3      3.258      9.173
  Name = 
  15 active torsions:
  status: ('A' for Active; 'I' for Inactive)
    1  A    between atoms: C_1  and  C_10
    2  A    between atoms: C_1  and  C_28
    3  A    between atoms: C_7  and  C_8
    4  A    between atoms: C_7  and  C_24
    5  A    between atoms: C_7  and  C_30
    6  A    between atoms: C_8  and  C_32
    7  A    between atoms: C_14  and  O_15
    8  A    between atoms: C_16  and  C_24
    9  A    between atoms: N_18  and  N_34
   10  A    between atoms: C_19  and  C_28
   11  A    between atoms: C_22  and  C_29
   12  A    between atoms: C_23  and  O_38
   13  A    between atoms: C_25  and  O_38
   14  A    between atoms: C_29  and  C_35
   15  A    between atoms: C_30  and  N_34
                            x       y       z     vdW  Elec       q    Type
                         _______ _______ _______ _____ _____    ______ ____

>  <TORSDO>
F 15

$$$$
=
 OpenBabel11062419333D

 40 42  0  0  1  0  0  0  0  0999 V2000
  193.9560  175.3840  143.9700 C   0  0  0  0  0  0  0  0  0  0  0  0
  194.9680  176.0940  143.4420 C   0  0  0  0  0  2  0  0  0  0  0  0
  191.8790  175.1750  147.2080 C   0  0  0  0  0  2  0  0  0  0  0  0
  191.9720  176.7640  144.7180 C   0  0  0  0  0  2  0  0  0  0  0  0
  192.6870  174.7140  145.9990 C   0  0  0  0  0  2  0  0  0  0  0  0
  190.8270  176.8650  145.6980 C   0  0  0  0  0  0  0  0  0  0  0  0
  193.1790  175.9120  145.1720 C   0  0  1  0  0  0  0  0  0  0  0  0
  190.7800  176.1080  146.8060 C   0  0  0  0  0  3  0  0  0  0  0  0
  194.9130  176.1110  146.8550 F   0  0  0  0  0  0  0  0  0  0  0  0
  194.0800  176.8290  146.0120 C   0  0  0  0  0  2  0  0  0  0  0  0
  189.8060  177.7770  145.3890 O   0  0  0  0  0  0  0  0  0  0  0  0
  186.2250  176.7590  145.2140 C   0  0  0  0  0  0  0  0  0  0  0  0
  188.3090  177.5240  143.5050 C   0  0  0  0  0  0  0  0  0  0  0  0
  189.3660  177.8970  142.6800 O   0  0  0  0  0  1  0  0  0  0  0  0
  185.2160  176.3940  146.0410 F   0  0  0  0  0  0  0  0  0  0  0  0
  186.0150  176.8020  143.8370 C   0  0  0  0  0  3  0  0  0  0  0  0
  187.0420  177.1860  142.9680 C   0  0  0  0  0  0  0  0  0  0  0  0
  188.5240  177.4750  144.8930 C   0  0  0  0  0  0  0  0  0  0  0  0
  187.4720  177.0900  145.7390 C   0  0  0  0  0  3  0  0  0  0  0  0
  185.7360  178.0180  141.0020 C   0  0  0  0  0  1  0  0  0  0  0  0
  186.7420  177.2080  141.5970 O   0  0  0  0  0  0  0  0  0  0  0  0
  193.4210  174.1760  143.2220 C   0  0  2  0  0  3  0  0  0  0  0  0
  192.7620  174.3030  141.1690 C   0  0  2  0  0  3  0  0  0  0  0  0
  194.0870  174.0060  141.8620 C   0  0  0  0  0  2  0  0  0  0  0  0
  192.0840  174.4480  142.5380 C   0  0  1  0  0  3  0  0  0  0  0  0
  192.3050  173.1110  140.3300 C   0  0  0  0  0  2  0  0  0  0  0  0
  191.5050  173.5870  139.1120 C   0  0  1  0  0  3  0  0  0  0  0  0
  192.3570  173.4590  137.8220 C   0  0  1  0  0  0  0  0  0  0  0  0
  193.4570  172.4160  138.0150 C   0  0  0  0  0  1  0  0  0  0  0  0
  191.5370  173.0670  136.7600 O   0  0  0  0  0  1  0  0  0  0  0  0
  192.9580  174.7610  137.5110 N   0  0  0  0  0  2  0  0  0  0  0  0
  192.7270  175.0650  136.1600 N   0  0  0  0  0  2  0  0  0  0  0  0
  192.8740  176.5030  136.0230 C   0  0  0  0  0  1  0  0  0  0  0  0
  190.1300  172.8760  139.0230 C   0  0  1  0  0  3  0  0  0  0  0  0
  190.1010  171.5490  139.7730 C   0  0  0  0  0  1  0  0  0  0  0  0
  188.3120  173.1280  140.5820 O   0  0  0  0  0  1  0  0  0  0  0  0
  188.9840  173.7500  139.5250 C   0  0  0  0  0  2  0  0  0  0  0  0
  190.9850  173.4230  142.8890 C   0  0  0  0  0  2  0  0  0  0  0  0
  189.8420  173.9630  143.7450 C   0  0  0  0  0  2  0  0  0  0  0  0
  189.6530  173.0960  144.9730 C   0  0  0  0  0  1  0  0  0  0  0  0
  1  7  1  0  0  0  0
  2  1  2  0  0  0  0
  4  7  1  0  0  0  0
  4  6  1  0  0  0  0
  5  3  1  0  0  0  0
  6  8  2  0  0  0  0
  7  5  1  0  0  0  0
  7 10  1  1  0  0  0
  8  3  1  0  0  0  0
 10  9  1  0  0  0  0
 11  6  1  0  0  0  0
 12 19  1  0  0  0  0
 12 15  1  0  0  0  0
 13 18  1  0  0  0  0
 14 13  1  0  0  0  0
 16 12  2  0  0  0  0
 17 13  2  0  0  0  0
 17 16  1  0  0  0  0
 18 11  1  0  0  0  0
 18 19  2  0  0  0  0
 20 21  1  0  0  0  0
 21 17  1  0  0  0  0
 22  1  1  6  0  0  0
 23 26  1  6  0  0  0
 23 24  1  0  0  0  0
 23 25  1  0  0  0  0
 24 22  1  0  0  0  0
 25 38  1  1  0  0  0
 25 22  1  0  0  0  0
 27 26  1  1  0  0  0
 28 29  1  1  0  0  0
 28 27  1  0  0  0  0
 30 28  1  0  0  0  0
 31 28  1  0  0  0  0
 32 31  1  0  0  0  0
 33 32  1  0  0  0  0
 34 27  1  0  0  0  0
 34 37  1  0  0  0  0
 34 35  1  1  0  0  0
 37 36  1  0  0  0  0
 38 39  1  0  0  0  0
 39 40  1  0  0  0  0
M  END
>  <MODEL>
8

>  <REMARK>
 VINA RESULT:      -6.3      3.257      5.516
  Name = 
  15 active torsions:
  status: ('A' for Active; 'I' for Inactive)
    1  A    between atoms: C_1  and  C_10
    2  A    between atoms: C_1  and  C_28
    3  A    between atoms: C_7  and  C_8
    4  A    between atoms: C_7  and  C_24
    5  A    between atoms: C_7  and  C_30
    6  A    between atoms: C_8  and  C_32
    7  A    between atoms: C_14  and  O_15
    8  A    between atoms: C_16  and  C_24
    9  A    between atoms: N_18  and  N_34
   10  A    between atoms: C_19  and  C_28
   11  A    between atoms: C_22  and  C_29
   12  A    between atoms: C_23  and  O_38
   13  A    between atoms: C_25  and  O_38
   14  A    between atoms: C_29  and  C_35
   15  A    between atoms: C_30  and  N_34
                            x       y       z     vdW  Elec       q    Type
                         _______ _______ _______ _____ _____    ______ ____

>  <TORSDO>
F 15

$$$$
=
 OpenBabel11062419333D

 40 42  0  0  1  0  0  0  0  0999 V2000
  189.1240  175.4330  145.4300 C   0  0  0  0  0  0  0  0  0  0  0  0
  189.3590  174.4360  146.3000 C   0  0  0  0  0  2  0  0  0  0  0  0
  186.6380  177.6000  147.4230 C   0  0  0  0  0  2  0  0  0  0  0  0
  187.7630  177.4360  144.6950 C   0  0  0  0  0  2  0  0  0  0  0  0
  187.3800  176.3570  146.9410 C   0  0  0  0  0  2  0  0  0  0  0  0
  186.6110  178.3490  145.0390 C   0  0  0  0  0  0  0  0  0  0  0  0
  188.4380  176.7180  145.8860 C   0  0  1  0  0  0  0  0  0  0  0  0
  186.0860  178.3850  146.2740 C   0  0  0  0  0  3  0  0  0  0  0  0
  190.0710  177.1990  147.6120 F   0  0  0  0  0  0  0  0  0  0  0  0
  189.4800  177.6890  146.4590 C   0  0  0  0  0  2  0  0  0  0  0  0
  186.1050  179.1500  144.0040 O   0  0  0  0  0  0  0  0  0  0  0  0
  185.5010  177.9630  140.5220 C   0  0  0  0  0  0  0  0  0  0  0  0
  184.0530  178.6650  142.8160 C   0  0  0  0  0  0  0  0  0  0  0  0
  183.3610  179.0290  143.9660 O   0  0  0  0  0  1  0  0  0  0  0  0
  186.2020  177.6190  139.4150 F   0  0  0  0  0  0  0  0  0  0  0  0
  184.1090  177.9250  140.5040 C   0  0  0  0  0  3  0  0  0  0  0  0
  183.3680  178.2670  141.6410 C   0  0  0  0  0  0  0  0  0  0  0  0
  185.4580  178.7100  142.8340 C   0  0  0  0  0  0  0  0  0  0  0  0
  186.1720  178.3570  141.6780 C   0  0  0  0  0  3  0  0  0  0  0  0
  181.1230  179.2950  141.2330 C   0  0  0  0  0  1  0  0  0  0  0  0
  181.9700  178.1940  141.5380 O   0  0  0  0  0  0  0  0  0  0  0  0
  189.7620  175.3900  144.0530 C   0  0  2  0  0  3  0  0  0  0  0  0
  189.9790  173.5430  142.9530 C   0  0  2  0  0  3  0  0  0  0  0  0
  188.9060  174.6230  143.0530 C   0  0  0  0  0  2  0  0  0  0  0  0
  190.8530  174.3280  143.9410 C   0  0  1  0  0  3  0  0  0  0  0  0
  190.5210  173.4420  141.5280 C   0  0  0  0  0  2  0  0  0  0  0  0
  190.1400  172.0950  140.9030 C   0  0  1  0  0  3  0  0  0  0  0  0
  189.4050  172.3140  139.5550 C   0  0  1  0  0  0  0  0  0  0  0  0
  189.5190  171.0650  138.6810 C   0  0  0  0  0  1  0  0  0  0  0  0
  188.0550  172.5790  139.7990 O   0  0  0  0  0  1  0  0  0  0  0  0
  190.0040  173.4600  138.8600 N   0  0  0  0  0  2  0  0  0  0  0  0
  189.0030  174.1450  138.1550 N   0  0  0  0  0  2  0  0  0  0  0  0
  189.3610  174.0810  136.7490 C   0  0  0  0  0  1  0  0  0  0  0  0
  191.3660  171.1510  140.8000 C   0  0  1  0  0  3  0  0  0  0  0  0
  192.6730  171.8360  141.1780 C   0  0  0  0  0  1  0  0  0  0  0  0
  192.3280  169.0630  141.5150 O   0  0  0  0  0  1  0  0  0  0  0  0
  191.2080  169.8900  141.6440 C   0  0  0  0  0  2  0  0  0  0  0  0
  192.1970  174.8710  143.4100 C   0  0  0  0  0  2  0  0  0  0  0  0
  193.2180  175.2400  144.4830 C   0  0  0  0  0  2  0  0  0  0  0  0
  193.0410  176.6860  144.8970 C   0  0  0  0  0  1  0  0  0  0  0  0
  1  7  1  0  0  0  0
  1  2  2  0  0  0  0
  4  6  1  0  0  0  0
  4  7  1  0  0  0  0
  5  3  1  0  0  0  0
  6  8  2  0  0  0  0
  7 10  1  1  0  0  0
  7  5  1  0  0  0  0
  8  3  1  0  0  0  0
 10  9  1  0  0  0  0
 11  6  1  0  0  0  0
 12 19  1  0  0  0  0
 13 18  1  0  0  0  0
 13 14  1  0  0  0  0
 15 12  1  0  0  0  0
 16 12  2  0  0  0  0
 16 17  1  0  0  0  0
 17 13  2  0  0  0  0
 18 11  1  0  0  0  0
 19 18  2  0  0  0  0
 20 21  1  0  0  0  0
 21 17  1  0  0  0  0
 22  1  1  1  0  0  0
 23 26  1  6  0  0  0
 23 24  1  0  0  0  0
 23 25  1  0  0  0  0
 24 22  1  0  0  0  0
 25 38  1  6  0  0  0
 25 22  1  0  0  0  0
 27 26  1  6  0  0  0
 28 29  1  6  0  0  0
 28 30  1  0  0  0  0
 28 27  1  0  0  0  0
 31 28  1  0  0  0  0
 32 31  1  0  0  0  0
 33 32  1  0  0  0  0
 34 27  1  0  0  0  0
 34 35  1  1  0  0  0
 34 37  1  0  0  0  0
 36 37  1  0  0  0  0
 38 39  1  0  0  0  0
 39 40  1  0  0  0  0
M  END
>  <MODEL>
9

>  <REMARK>
 VINA RESULT:      -6.3      2.061      2.855
  Name = 
  15 active torsions:
  status: ('A' for Active; 'I' for Inactive)
    1  A    between atoms: C_1  and  C_10
    2  A    between atoms: C_1  and  C_28
    3  A    between atoms: C_7  and  C_8
    4  A    between atoms: C_7  and  C_24
    5  A    between atoms: C_7  and  C_30
    6  A    between atoms: C_8  and  C_32
    7  A    between atoms: C_14  and  O_15
    8  A    between atoms: C_16  and  C_24
    9  A    between atoms: N_18  and  N_34
   10  A    between atoms: C_19  and  C_28
   11  A    between atoms: C_22  and  C_29
   12  A    between atoms: C_23  and  O_38
   13  A    between atoms: C_25  and  O_38
   14  A    between atoms: C_29  and  C_35
   15  A    between atoms: C_30  and  N_34
                            x       y       z     vdW  Elec       q    Type
                         _______ _______ _______ _____ _____    ______ ____

>  <TORSDO>
F 15

$$$$
