=
 OpenBabel11072408363D

 47 52  0  0  1  0  0  0  0  0999 V2000
  189.4020  176.7030  143.3830 C   0  0  0  0  0  0  0  0  0  0  0  0
  191.7570  176.2440  144.7850 C   0  0  0  0  0  0  0  0  0  0  0  0
  191.1010  175.2030  144.1940 C   0  0  0  0  0  0  0  0  0  0  0  0
  192.8060  174.4380  145.1930 C   0  0  0  0  0  0  0  0  0  0  0  0
  191.2780  177.5500  144.7240 C   0  0  0  0  0  3  0  0  0  0  0  0
  192.8530  175.7800  145.4110 N   0  0  0  0  0  0  0  0  0  0  0  0
  191.7430  174.0460  144.4440 N   0  0  0  0  0  0  0  0  0  0  0  0
  190.0890  177.7710  144.0110 C   0  0  0  0  0  3  0  0  0  0  0  0
  189.9130  175.3870  143.4700 C   0  0  0  0  0  0  0  0  0  0  0  0
  194.3450  177.5570  145.5840 F   0  0  0  0  0  0  0  0  0  0  0  0
  193.0810  177.0310  147.3750 F   0  0  0  0  0  0  0  0  0  0  0  0
  194.7630  175.6820  146.7640 F   0  0  0  0  0  0  0  0  0  0  0  0
  193.7680  176.5180  146.2890 C   0  0  0  0  0  0  0  0  0  0  0  0
  189.1800  174.2420  142.8120 C   0  0  2  0  0  3  0  0  0  0  0  0
  189.2270  173.0870  143.5960 O   0  0  0  0  0  1  0  0  0  0  0  0
  189.5990  173.9390  141.3620 C   0  0  1  0  0  3  0  0  0  0  0  0
  190.7340  172.9120  141.2720 C   0  0  2  0  0  3  0  0  0  0  0  0
  191.8380  173.4800  140.6320 O   0  0  0  0  0  1  0  0  0  0  0  0
  190.6580  170.7030  141.3540 C   0  0  0  0  0  1  0  0  0  0  0  0
  190.3160  171.7910  140.5510 O   0  0  0  0  0  0  0  0  0  0  0  0
  188.4260  173.6280  140.4270 C   0  0  0  0  0  2  0  0  0  0  0  0
  188.3150  174.5890  139.4200 O   0  0  0  0  0  0  0  0  0  0  0  0
  188.3420  173.8570  138.2330 C   0  0  0  0  0  1  0  0  0  0  0  0
  193.7670  173.4590  145.7810 C   0  0  0  0  0  2  0  0  0  0  0  0
  194.7760  171.4390  145.1040 C   0  0  2  0  0  3  0  0  0  0  0  0
  194.5270  172.8220  144.7150 N   0  0  0  0  0  0  0  0  0  0  0  0
  196.8030  173.4060  145.7680 C   0  0  0  0  0  2  0  0  0  0  0  0
  196.2480  171.1400  144.8800 C   0  0  0  0  0  2  0  0  0  0  0  0
  195.8280  173.4870  144.6010 C   0  0  1  0  0  0  0  0  0  0  0  0
  193.9690  170.5480  144.2910 N   0  0  0  0  0  1  0  0  0  0  0  0
  196.9330  172.4580  144.5780 C   0  0  1  0  0  3  0  0  0  0  0  0
  195.3180  174.5020  142.3600 C   0  0  0  0  0  3  0  0  0  0  0  0
  196.7260  175.7230  143.9000 C   0  0  0  0  0  3  0  0  0  0  0  0
  194.7530  175.4780  140.1340 C   0  0  0  0  0  1  0  0  0  0  0  0
  195.4450  175.5500  141.4470 C   0  0  0  0  0  0  0  0  0  0  0  0
  195.9740  174.5840  143.5940 C   0  0  0  0  0  0  0  0  0  0  0  0
  196.1950  176.6410  141.7590 N   0  0  0  0  0  0  0  0  0  0  0  0
  196.8300  176.7490  142.9570 C   0  0  0  0  0  3  0  0  0  0  0  0
  188.2100  176.9320  142.6850 O   0  0  0  0  0  0  0  0  0  0  0  0
  185.8430  177.1610  142.3720 C   0  0  0  0  0  2  0  0  0  0  0  0
  187.0090  177.3410  143.3220 C   0  0  2  0  0  3  0  0  0  0  0  0
  186.4440  178.5340  142.5820 C   0  0  2  0  0  3  0  0  0  0  0  0
  185.5780  179.3330  143.5350 C   0  0  0  0  0  2  0  0  0  0  0  0
  186.0640  179.1680  144.8940 N   0  0  0  0  0  2  0  0  0  0  0  0
  183.9320  178.9420  145.8200 O   0  0  0  0  0  0  0  0  0  0  0  0
  185.1790  178.9810  145.9980 C   0  0  0  0  0  0  0  0  0  0  0  0
  185.6980  178.8330  147.2770 O   0  0  0  0  0  1  0  0  0  0  0  0
  1  9  2  0  0  0  0
  1  8  1  0  0  0  0
  2  6  1  0  0  0  0
  3  7  1  0  0  0  0
  3  2  2  0  0  0  0
  4  6  1  0  0  0  0
  4 24  1  0  0  0  0
  5  2  1  0  0  0  0
  6 13  1  0  0  0  0
  7  4  2  0  0  0  0
  8  5  2  0  0  0  0
  9  3  1  0  0  0  0
 10 13  1  0  0  0  0
 13 12  1  0  0  0  0
 13 11  1  0  0  0  0
 14  9  1  0  0  0  0
 14 15  1  1  0  0  0
 16 21  1  6  0  0  0
 16 14  1  0  0  0  0
 17 18  1  6  0  0  0
 17 16  1  0  0  0  0
 20 17  1  0  0  0  0
 20 19  1  0  0  0  0
 22 21  1  0  0  0  0
 23 22  1  0  0  0  0
 25 30  1  6  0  0  0
 26 25  1  0  0  0  0
 26 24  1  0  0  0  0
 28 25  1  0  0  0  0
 29 36  1  6  0  0  0
 29 26  1  0  0  0  0
 29 27  1  0  0  0  0
 31 29  1  0  0  0  0
 31 28  1  1  0  0  0
 31 27  1  0  0  0  0
 32 36  1  0  0  0  0
 34 35  1  0  0  0  0
 35 37  1  0  0  0  0
 35 32  2  0  0  0  0
 36 33  2  0  0  0  0
 37 38  2  0  0  0  0
 38 33  1  0  0  0  0
 39  1  1  0  0  0  0
 40 42  1  0  0  0  0
 40 41  1  0  0  0  0
 41 39  1  6  0  0  0
 42 41  1  0  0  0  0
 42 43  1  1  0  0  0
 43 44  1  0  0  0  0
 44 46  1  0  0  0  0
 45 46  2  0  0  0  0
 46 47  1  0  0  0  0
M  END
>  <MODEL>
1

>  <REMARK>
 VINA RESULT:      -7.4      0.000      0.000
  Name = 
  14 active torsions:
  status: ('A' for Active; 'I' for Inactive)
    1  A    between atoms: O_2  and  C_43
    2  A    between atoms: C_3  and  O_47
    3  A    between atoms: C_6  and  C_9
    4  A    between atoms: C_6  and  C_46
    5  A    between atoms: C_8  and  C_11
    6  A    between atoms: C_9  and  C_41
    7  A    between atoms: C_9  and  C_43
    8  A    between atoms: C_11  and  N_13
    9  A    between atoms: N_12  and  C_26
   10  A    between atoms: N_17  and  C_29
   11  A    between atoms: C_27  and  O_47
   12  A    between atoms: O_28  and  C_41
   13  A    between atoms: C_29  and  C_40
   14  A    between atoms: C_34  and  C_37
                            x       y       z     vdW  Elec       q    Type
                         _______ _______ _______ _____ _____    ______ ____

>  <TORSDO>
F 14

$$$$
=
 OpenBabel11072408363D

 47 52  0  0  1  0  0  0  0  0999 V2000
  195.4240  175.2480  144.8140 C   0  0  0  0  0  0  0  0  0  0  0  0
  192.7950  176.1020  145.1030 C   0  0  0  0  0  0  0  0  0  0  0  0
  193.3700  176.0700  143.8650 C   0  0  0  0  0  0  0  0  0  0  0  0
  191.3980  176.8170  143.6670 C   0  0  0  0  0  0  0  0  0  0  0  0
  193.4890  175.7290  146.2510 C   0  0  0  0  0  3  0  0  0  0  0  0
  191.5350  176.5580  144.9950 N   0  0  0  0  0  0  0  0  0  0  0  0
  192.5050  176.5250  142.9390 N   0  0  0  0  0  0  0  0  0  0  0  0
  194.8160  175.2970  146.0940 C   0  0  0  0  0  3  0  0  0  0  0  0
  194.6920  175.6400  143.6690 C   0  0  0  0  0  0  0  0  0  0  0  0
  191.2990  177.0030  147.2670 F   0  0  0  0  0  0  0  0  0  0  0  0
  189.9600  178.0850  145.8110 F   0  0  0  0  0  0  0  0  0  0  0  0
  189.6410  175.9020  146.2080 F   0  0  0  0  0  0  0  0  0  0  0  0
  190.6020  176.8890  146.0790 C   0  0  0  0  0  0  0  0  0  0  0  0
  195.3360  175.6000  142.3050 C   0  0  2  0  0  3  0  0  0  0  0  0
  195.4600  176.8800  141.7600 O   0  0  0  0  0  1  0  0  0  0  0  0
  194.6850  174.6340  141.2970 C   0  0  1  0  0  3  0  0  0  0  0  0
  194.8930  175.0650  139.8410 C   0  0  2  0  0  3  0  0  0  0  0  0
  193.7040  174.9030  139.1250 O   0  0  0  0  0  1  0  0  0  0  0  0
  196.8990  175.1990  138.9170 C   0  0  0  0  0  1  0  0  0  0  0  0
  195.8920  174.2910  139.2440 O   0  0  0  0  0  0  0  0  0  0  0  0
  195.0180  173.1590  141.5450 C   0  0  0  0  0  2  0  0  0  0  0  0
  193.9010  172.3480  141.3330 O   0  0  0  0  0  0  0  0  0  0  0  0
  193.1450  172.4840  142.4990 C   0  0  0  0  0  1  0  0  0  0  0  0
  190.1880  177.4440  143.0560 C   0  0  0  0  0  2  0  0  0  0  0  0
  189.2970  175.4510  142.1630 C   0  0  2  0  0  3  0  0  0  0  0  0
  189.0680  176.5160  143.1330 N   0  0  0  0  0  0  0  0  0  0  0  0
  187.7240  177.7340  141.3060 C   0  0  0  0  0  2  0  0  0  0  0  0
  188.0220  175.2560  141.3620 C   0  0  0  0  0  2  0  0  0  0  0  0
  187.8460  177.2180  142.7330 C   0  0  1  0  0  0  0  0  0  0  0  0
  189.6310  174.2210  142.8560 N   0  0  0  0  0  1  0  0  0  0  0  0
  187.0940  176.4030  141.7090 C   0  0  1  0  0  3  0  0  0  0  0  0
  186.9650  177.2460  145.0860 C   0  0  0  0  0  3  0  0  0  0  0  0
  186.2530  178.9760  143.5540 C   0  0  0  0  0  3  0  0  0  0  0  0
  186.1450  177.2450  147.4430 C   0  0  0  0  0  1  0  0  0  0  0  0
  186.1820  177.8360  146.0800 C   0  0  0  0  0  0  0  0  0  0  0  0
  186.9920  177.8150  143.8070 C   0  0  0  0  0  0  0  0  0  0  0  0
  185.4600  178.9560  145.8070 N   0  0  0  0  0  0  0  0  0  0  0  0
  185.4820  179.5340  144.5760 C   0  0  0  0  0  3  0  0  0  0  0  0
  196.7510  174.8270  144.6690 O   0  0  0  0  0  0  0  0  0  0  0  0
  197.9410  172.7640  144.3780 C   0  0  0  0  0  2  0  0  0  0  0  0
  197.2860  173.7090  145.3630 C   0  0  2  0  0  3  0  0  0  0  0  0
  196.5590  172.4600  144.9140 C   0  0  2  0  0  3  0  0  0  0  0  0
  196.6520  171.4210  146.0130 C   0  0  0  0  0  2  0  0  0  0  0  0
  195.5070  170.5290  145.9430 N   0  0  0  0  0  2  0  0  0  0  0  0
  196.3290  169.0560  147.5580 O   0  0  0  0  0  1  0  0  0  0  0  0
  195.4130  169.3530  146.7460 C   0  0  0  0  0  0  0  0  0  0  0  0
  194.2980  168.5330  146.6340 O   0  0  0  0  0  0  0  0  0  0  0  0
  1  8  1  0  0  0  0
  2  5  1  0  0  0  0
  3  2  2  0  0  0  0
  4  6  1  0  0  0  0
  6  2  1  0  0  0  0
  6 13  1  0  0  0  0
  7  4  2  0  0  0  0
  7  3  1  0  0  0  0
  8  5  2  0  0  0  0
  9  3  1  0  0  0  0
  9  1  2  0  0  0  0
 11 13  1  0  0  0  0
 13 12  1  0  0  0  0
 13 10  1  0  0  0  0
 14 15  1  6  0  0  0
 14  9  1  0  0  0  0
 16 21  1  6  0  0  0
 16 14  1  0  0  0  0
 17 18  1  6  0  0  0
 17 16  1  0  0  0  0
 19 20  1  0  0  0  0
 20 17  1  0  0  0  0
 22 21  1  0  0  0  0
 22 23  1  0  0  0  0
 24 26  1  0  0  0  0
 24  4  1  0  0  0  0
 25 30  1  1  0  0  0
 25 26  1  0  0  0  0
 27 29  1  0  0  0  0
 28 31  1  0  0  0  0
 28 25  1  0  0  0  0
 29 26  1  0  0  0  0
 29 36  1  1  0  0  0
 31 27  1  6  0  0  0
 31 29  1  0  0  0  0
 32 35  1  0  0  0  0
 33 36  1  0  0  0  0
 33 38  2  0  0  0  0
 35 34  1  0  0  0  0
 36 32  2  0  0  0  0
 37 35  2  0  0  0  0
 38 37  1  0  0  0  0
 39  1  1  0  0  0  0
 40 42  1  0  0  0  0
 40 41  1  0  0  0  0
 41 39  1  6  0  0  0
 42 41  1  0  0  0  0
 42 43  1  1  0  0  0
 44 43  1  0  0  0  0
 44 46  1  0  0  0  0
 46 45  1  0  0  0  0
 47 46  2  0  0  0  0
M  END
>  <MODEL>
2

>  <REMARK>
 VINA RESULT:      -7.2      3.446      8.628
  Name = 
  14 active torsions:
  status: ('A' for Active; 'I' for Inactive)
    1  A    between atoms: O_2  and  C_43
    2  A    between atoms: C_3  and  O_47
    3  A    between atoms: C_6  and  C_9
    4  A    between atoms: C_6  and  C_46
    5  A    between atoms: C_8  and  C_11
    6  A    between atoms: C_9  and  C_41
    7  A    between atoms: C_9  and  C_43
    8  A    between atoms: C_11  and  N_13
    9  A    between atoms: N_12  and  C_26
   10  A    between atoms: N_17  and  C_29
   11  A    between atoms: C_27  and  O_47
   12  A    between atoms: O_28  and  C_41
   13  A    between atoms: C_29  and  C_40
   14  A    between atoms: C_34  and  C_37
                            x       y       z     vdW  Elec       q    Type
                         _______ _______ _______ _____ _____    ______ ____

>  <TORSDO>
F 14

$$$$
=
 OpenBabel11072408363D

 47 52  0  0  1  0  0  0  0  0999 V2000
  189.2690  176.0250  145.9230 C   0  0  0  0  0  0  0  0  0  0  0  0
  192.0350  176.0720  145.6610 C   0  0  0  0  0  0  0  0  0  0  0  0
  191.2770  175.3600  144.7750 C   0  0  0  0  0  0  0  0  0  0  0  0
  193.3180  175.1040  144.2670 C   0  0  0  0  0  0  0  0  0  0  0  0
  191.4680  176.7790  146.7180 C   0  0  0  0  0  3  0  0  0  0  0  0
  193.3350  175.9350  145.3440 N   0  0  0  0  0  0  0  0  0  0  0  0
  192.0700  174.7320  143.8860 N   0  0  0  0  0  0  0  0  0  0  0  0
  190.0700  176.7510  146.8400 C   0  0  0  0  0  3  0  0  0  0  0  0
  189.8780  175.3130  144.8630 C   0  0  0  0  0  0  0  0  0  0  0  0
  195.2160  175.3180  146.5670 F   0  0  0  0  0  0  0  0  0  0  0  0
  195.3170  177.1780  145.2960 F   0  0  0  0  0  0  0  0  0  0  0  0
  194.0980  177.1780  147.1770 F   0  0  0  0  0  0  0  0  0  0  0  0
  194.5000  176.4050  146.1020 C   0  0  0  0  0  0  0  0  0  0  0  0
  189.0320  174.5300  143.8890 C   0  0  2  0  0  3  0  0  0  0  0  0
  189.3280  173.1660  143.9360 O   0  0  0  0  0  1  0  0  0  0  0  0
  189.0490  175.0470  142.4390 C   0  0  1  0  0  3  0  0  0  0  0  0
  189.4470  173.9670  141.4270 C   0  0  2  0  0  3  0  0  0  0  0  0
  190.6580  174.3080  140.8210 O   0  0  0  0  0  1  0  0  0  0  0  0
  189.1740  173.7130  139.2460 C   0  0  0  0  0  1  0  0  0  0  0  0
  188.4650  173.8410  140.4410 O   0  0  0  0  0  0  0  0  0  0  0  0
  187.7860  175.8170  142.0370 C   0  0  0  0  0  2  0  0  0  0  0  0
  188.1070  176.9690  141.3150 O   0  0  0  0  0  0  0  0  0  0  0  0
  188.7920  177.7730  142.2280 C   0  0  0  0  0  1  0  0  0  0  0  0
  194.5440  174.5670  143.6050 C   0  0  0  0  0  2  0  0  0  0  0  0
  195.3210  172.6080  144.6630 C   0  0  2  0  0  3  0  0  0  0  0  0
  194.4850  173.1130  143.5790 N   0  0  0  0  0  0  0  0  0  0  0  0
  196.5420  172.8940  142.0470 C   0  0  0  0  0  2  0  0  0  0  0  0
  196.2170  171.5180  144.1040 C   0  0  0  0  0  2  0  0  0  0  0  0
  195.0670  172.6390  142.3210 C   0  0  1  0  0  0  0  0  0  0  0  0
  194.4830  172.0610  145.7140 N   0  0  0  0  0  1  0  0  0  0  0  0
  196.0750  171.5490  142.5960 C   0  0  1  0  0  3  0  0  0  0  0  0
  193.0150  171.5540  141.3590 C   0  0  0  0  0  3  0  0  0  0  0  0
  194.3730  172.9510  139.9290 C   0  0  0  0  0  3  0  0  0  0  0  0
  190.9490  170.4770  140.4640 C   0  0  0  0  0  1  0  0  0  0  0  0
  192.1510  171.3310  140.2850 C   0  0  0  0  0  0  0  0  0  0  0  0
  194.1430  172.3620  141.1760 C   0  0  0  0  0  0  0  0  0  0  0  0
  192.4040  171.9020  139.0760 N   0  0  0  0  0  0  0  0  0  0  0  0
  193.4860  172.7020  138.8790 C   0  0  0  0  0  3  0  0  0  0  0  0
  187.8760  175.9940  146.0600 O   0  0  0  0  0  0  0  0  0  0  0  0
  185.6350  176.8060  146.3370 C   0  0  0  0  0  2  0  0  0  0  0  0
  187.0680  177.1610  146.0000 C   0  0  2  0  0  3  0  0  0  0  0  0
  186.0500  176.9950  144.8930 C   0  0  2  0  0  3  0  0  0  0  0  0
  185.6240  178.3680  144.4130 C   0  0  0  0  0  2  0  0  0  0  0  0
  184.3010  178.2900  143.8170 N   0  0  0  0  0  2  0  0  0  0  0  0
  185.0970  178.2560  141.6210 O   0  0  0  0  0  0  0  0  0  0  0  0
  184.1090  178.2430  142.4030 C   0  0  0  0  0  0  0  0  0  0  0  0
  182.8220  178.1740  141.8870 O   0  0  0  0  0  1  0  0  0  0  0  0
  1 39  1  0  0  0  0
  1  8  1  0  0  0  0
  2  5  1  0  0  0  0
  3  9  1  0  0  0  0
  3  2  2  0  0  0  0
  4  6  1  0  0  0  0
  5  8  2  0  0  0  0
  6  2  1  0  0  0  0
  6 13  1  0  0  0  0
  7  4  2  0  0  0  0
  7  3  1  0  0  0  0
  9  1  2  0  0  0  0
 11 13  1  0  0  0  0
 13 10  1  0  0  0  0
 13 12  1  0  0  0  0
 14 15  1  6  0  0  0
 14  9  1  0  0  0  0
 16 21  1  6  0  0  0
 16 14  1  0  0  0  0
 17 18  1  6  0  0  0
 17 16  1  0  0  0  0
 19 20  1  0  0  0  0
 20 17  1  0  0  0  0
 22 21  1  0  0  0  0
 22 23  1  0  0  0  0
 24  4  1  0  0  0  0
 25 30  1  1  0  0  0
 26 24  1  0  0  0  0
 26 25  1  0  0  0  0
 27 29  1  0  0  0  0
 28 25  1  0  0  0  0
 29 36  1  6  0  0  0
 29 31  1  0  0  0  0
 29 26  1  0  0  0  0
 31 27  1  6  0  0  0
 31 28  1  0  0  0  0
 33 36  2  0  0  0  0
 35 34  1  0  0  0  0
 35 32  2  0  0  0  0
 36 32  1  0  0  0  0
 37 35  1  0  0  0  0
 38 37  2  0  0  0  0
 38 33  1  0  0  0  0
 41 39  1  6  0  0  0
 41 40  1  0  0  0  0
 42 43  1  1  0  0  0
 42 41  1  0  0  0  0
 42 40  1  0  0  0  0
 44 43  1  0  0  0  0
 45 46  2  0  0  0  0
 46 44  1  0  0  0  0
 47 46  1  0  0  0  0
M  END
>  <MODEL>
3

>  <REMARK>
 VINA RESULT:      -6.9      2.060      3.281
  Name = 
  14 active torsions:
  status: ('A' for Active; 'I' for Inactive)
    1  A    between atoms: O_2  and  C_43
    2  A    between atoms: C_3  and  O_47
    3  A    between atoms: C_6  and  C_9
    4  A    between atoms: C_6  and  C_46
    5  A    between atoms: C_8  and  C_11
    6  A    between atoms: C_9  and  C_41
    7  A    between atoms: C_9  and  C_43
    8  A    between atoms: C_11  and  N_13
    9  A    between atoms: N_12  and  C_26
   10  A    between atoms: N_17  and  C_29
   11  A    between atoms: C_27  and  O_47
   12  A    between atoms: O_28  and  C_41
   13  A    between atoms: C_29  and  C_40
   14  A    between atoms: C_34  and  C_37
                            x       y       z     vdW  Elec       q    Type
                         _______ _______ _______ _____ _____    ______ ____

>  <TORSDO>
F 14

$$$$
=
 OpenBabel11072408363D

 47 52  0  0  1  0  0  0  0  0999 V2000
  189.2870  176.0270  144.3980 C   0  0  0  0  0  0  0  0  0  0  0  0
  191.9300  176.4290  145.1580 C   0  0  0  0  0  0  0  0  0  0  0  0
  191.6370  176.0480  143.8800 C   0  0  0  0  0  0  0  0  0  0  0  0
  193.7420  176.2000  144.0680 C   0  0  0  0  0  0  0  0  0  0  0  0
  190.9390  176.6160  146.1190 C   0  0  0  0  0  3  0  0  0  0  0  0
  193.2620  176.5470  145.2920 N   0  0  0  0  0  0  0  0  0  0  0  0
  192.7710  175.8900  143.1710 N   0  0  0  0  0  0  0  0  0  0  0  0
  189.6070  176.4120  145.7240 C   0  0  0  0  0  3  0  0  0  0  0  0
  190.3180  175.8400  143.4490 C   0  0  0  0  0  0  0  0  0  0  0  0
  194.7620  175.6690  146.8400 F   0  0  0  0  0  0  0  0  0  0  0  0
  194.8800  177.8660  146.3490 F   0  0  0  0  0  0  0  0  0  0  0  0
  193.1700  177.0880  147.5700 F   0  0  0  0  0  0  0  0  0  0  0  0
  194.0240  176.7940  146.5220 C   0  0  0  0  0  0  0  0  0  0  0  0
  189.9850  175.4200  142.0380 C   0  0  2  0  0  3  0  0  0  0  0  0
  188.8550  176.0870  141.5590 O   0  0  0  0  0  1  0  0  0  0  0  0
  189.8620  173.9010  141.8150 C   0  0  1  0  0  3  0  0  0  0  0  0
  190.3780  173.0820  143.0030 C   0  0  2  0  0  3  0  0  0  0  0  0
  191.3410  172.1690  142.5660 O   0  0  0  0  0  1  0  0  0  0  0  0
  189.6800  172.2990  144.9500 C   0  0  0  0  0  1  0  0  0  0  0  0
  189.3280  172.3830  143.6030 O   0  0  0  0  0  0  0  0  0  0  0  0
  188.4800  173.4540  141.3260 C   0  0  0  0  0  2  0  0  0  0  0  0
  188.5870  172.6000  140.2260 O   0  0  0  0  0  0  0  0  0  0  0  0
  188.3190  173.4150  139.1250 C   0  0  0  0  0  1  0  0  0  0  0  0
  195.1930  176.0780  143.7400 C   0  0  0  0  0  2  0  0  0  0  0  0
  196.2240  174.0530  144.3730 C   0  0  2  0  0  3  0  0  0  0  0  0
  195.4820  174.7180  143.3080 N   0  0  0  0  0  0  0  0  0  0  0  0
  197.7540  175.3530  142.2790 C   0  0  0  0  0  2  0  0  0  0  0  0
  197.4300  173.3670  143.7560 C   0  0  0  0  0  2  0  0  0  0  0  0
  196.3550  174.7710  142.1330 C   0  0  1  0  0  0  0  0  0  0  0  0
  195.3780  173.0660  145.0180 N   0  0  0  0  0  1  0  0  0  0  0  0
  197.5310  173.8430  142.3210 C   0  0  1  0  0  3  0  0  0  0  0  0
  194.4140  174.2310  140.6320 C   0  0  0  0  0  3  0  0  0  0  0  0
  196.4120  175.1790  139.6570 C   0  0  0  0  0  3  0  0  0  0  0  0
  192.4440  173.7050  139.1930 C   0  0  0  0  0  1  0  0  0  0  0  0
  193.8320  174.2090  139.3630 C   0  0  0  0  0  0  0  0  0  0  0  0
  195.7210  174.7100  140.7790 C   0  0  0  0  0  0  0  0  0  0  0  0
  194.5290  174.6560  138.2840 N   0  0  0  0  0  0  0  0  0  0  0  0
  195.7940  175.1390  138.4050 C   0  0  0  0  0  3  0  0  0  0  0  0
  187.9560  175.8150  144.0180 O   0  0  0  0  0  0  0  0  0  0  0  0
  185.8040  176.6640  143.3830 C   0  0  0  0  0  2  0  0  0  0  0  0
  186.8910  176.6550  144.4380 C   0  0  2  0  0  3  0  0  0  0  0  0
  186.7770  177.8200  143.4790 C   0  0  2  0  0  3  0  0  0  0  0  0
  186.1250  178.9820  144.1990 C   0  0  0  0  0  2  0  0  0  0  0  0
  186.0700  178.7070  145.6250 N   0  0  0  0  0  2  0  0  0  0  0  0
  183.7500  178.9400  145.7620 O   0  0  0  0  0  0  0  0  0  0  0  0
  184.8400  178.7080  146.3490 C   0  0  0  0  0  0  0  0  0  0  0  0
  184.8470  178.4430  147.7120 O   0  0  0  0  0  1  0  0  0  0  0  0
  1  8  1  0  0  0  0
  2  6  1  0  0  0  0
  2  5  1  0  0  0  0
  3  2  2  0  0  0  0
  4  6  1  0  0  0  0
  6 13  1  0  0  0  0
  7  3  1  0  0  0  0
  7  4  2  0  0  0  0
  8  5  2  0  0  0  0
  9  3  1  0  0  0  0
  9  1  2  0  0  0  0
 11 13  1  0  0  0  0
 13 10  1  0  0  0  0
 13 12  1  0  0  0  0
 14 15  1  1  0  0  0
 14  9  1  0  0  0  0
 16 21  1  1  0  0  0
 16 14  1  0  0  0  0
 16 17  1  0  0  0  0
 17 18  1  6  0  0  0
 17 20  1  0  0  0  0
 20 19  1  0  0  0  0
 22 21  1  0  0  0  0
 23 22  1  0  0  0  0
 24  4  1  0  0  0  0
 25 30  1  6  0  0  0
 26 24  1  0  0  0  0
 26 25  1  0  0  0  0
 28 25  1  0  0  0  0
 29 36  1  6  0  0  0
 29 27  1  0  0  0  0
 29 31  1  0  0  0  0
 29 26  1  0  0  0  0
 31 27  1  1  0  0  0
 31 28  1  0  0  0  0
 32 36  1  0  0  0  0
 33 36  2  0  0  0  0
 34 35  1  0  0  0  0
 35 32  2  0  0  0  0
 37 38  2  0  0  0  0
 37 35  1  0  0  0  0
 38 33  1  0  0  0  0
 39  1  1  0  0  0  0
 40 42  1  0  0  0  0
 40 41  1  0  0  0  0
 41 39  1  6  0  0  0
 42 43  1  1  0  0  0
 42 41  1  0  0  0  0
 43 44  1  0  0  0  0
 44 46  1  0  0  0  0
 45 46  2  0  0  0  0
 46 47  1  0  0  0  0
M  END
>  <MODEL>
4

>  <REMARK>
 VINA RESULT:      -6.9      1.600      2.429
  Name = 
  14 active torsions:
  status: ('A' for Active; 'I' for Inactive)
    1  A    between atoms: O_2  and  C_43
    2  A    between atoms: C_3  and  O_47
    3  A    between atoms: C_6  and  C_9
    4  A    between atoms: C_6  and  C_46
    5  A    between atoms: C_8  and  C_11
    6  A    between atoms: C_9  and  C_41
    7  A    between atoms: C_9  and  C_43
    8  A    between atoms: C_11  and  N_13
    9  A    between atoms: N_12  and  C_26
   10  A    between atoms: N_17  and  C_29
   11  A    between atoms: C_27  and  O_47
   12  A    between atoms: O_28  and  C_41
   13  A    between atoms: C_29  and  C_40
   14  A    between atoms: C_34  and  C_37
                            x       y       z     vdW  Elec       q    Type
                         _______ _______ _______ _____ _____    ______ ____

>  <TORSDO>
F 14

$$$$
=
 OpenBabel11072408363D

 47 52  0  0  1  0  0  0  0  0999 V2000
  195.5650  175.3040  144.7750 C   0  0  0  0  0  0  0  0  0  0  0  0
  192.9540  175.9670  145.4600 C   0  0  0  0  0  0  0  0  0  0  0  0
  193.3380  175.9710  144.1500 C   0  0  0  0  0  0  0  0  0  0  0  0
  191.3090  176.5720  144.2550 C   0  0  0  0  0  0  0  0  0  0  0  0
  193.8380  175.6500  146.4890 C   0  0  0  0  0  3  0  0  0  0  0  0
  191.6620  176.3300  145.5460 N   0  0  0  0  0  0  0  0  0  0  0  0
  192.3140  176.3590  143.3670 N   0  0  0  0  0  0  0  0  0  0  0  0
  195.1530  175.3150  146.1320 C   0  0  0  0  0  3  0  0  0  0  0  0
  194.6430  175.6370  143.7560 C   0  0  0  0  0  0  0  0  0  0  0  0
  190.0660  177.6930  146.5490 F   0  0  0  0  0  0  0  0  0  0  0  0
  190.1000  175.5020  147.0780 F   0  0  0  0  0  0  0  0  0  0  0  0
  191.7220  176.8550  147.8280 F   0  0  0  0  0  0  0  0  0  0  0  0
  190.8810  176.5980  146.7590 C   0  0  0  0  0  0  0  0  0  0  0  0
  195.0770  175.6380  142.3100 C   0  0  2  0  0  3  0  0  0  0  0  0
  194.5690  176.7430  141.6240 O   0  0  0  0  0  1  0  0  0  0  0  0
  194.7960  174.3350  141.5380 C   0  0  1  0  0  3  0  0  0  0  0  0
  193.6400  174.4720  140.5420 C   0  0  2  0  0  3  0  0  0  0  0  0
  192.4760  173.9250  141.0880 O   0  0  0  0  0  1  0  0  0  0  0  0
  193.0170  174.2840  138.4270 C   0  0  0  0  0  1  0  0  0  0  0  0
  193.9420  173.8020  139.3530 O   0  0  0  0  0  0  0  0  0  0  0  0
  196.0460  173.6910  140.9290 C   0  0  0  0  0  2  0  0  0  0  0  0
  197.1050  174.6010  140.8730 O   0  0  0  0  0  0  0  0  0  0  0  0
  197.3430  174.7770  139.5090 C   0  0  0  0  0  1  0  0  0  0  0  0
  189.9800  177.1070  143.8360 C   0  0  0  0  0  2  0  0  0  0  0  0
  189.2360  175.1180  142.8110 C   0  0  2  0  0  3  0  0  0  0  0  0
  188.9840  176.0470  143.9070 N   0  0  0  0  0  0  0  0  0  0  0  0
  187.3400  177.2640  142.3450 C   0  0  0  0  0  2  0  0  0  0  0  0
  187.9190  174.8480  142.1060 C   0  0  0  0  0  2  0  0  0  0  0  0
  187.6580  176.6300  143.6920 C   0  0  1  0  0  0  0  0  0  0  0  0
  189.7730  173.8760  143.3350 N   0  0  0  0  0  1  0  0  0  0  0  0
  186.9060  175.8330  142.6530 C   0  0  1  0  0  3  0  0  0  0  0  0
  185.7330  177.8420  144.7590 C   0  0  0  0  0  3  0  0  0  0  0  0
  187.1790  176.4960  146.1520 C   0  0  0  0  0  3  0  0  0  0  0  0
  183.7870  179.0410  145.7620 C   0  0  0  0  0  1  0  0  0  0  0  0
  184.9780  178.1620  145.8890 C   0  0  0  0  0  0  0  0  0  0  0  0
  186.8510  177.0100  144.8940 C   0  0  0  0  0  0  0  0  0  0  0  0
  185.3250  177.6620  147.1060 N   0  0  0  0  0  0  0  0  0  0  0  0
  186.3990  176.8410  147.2580 C   0  0  0  0  0  3  0  0  0  0  0  0
  196.8820  174.9800  144.4310 O   0  0  0  0  0  0  0  0  0  0  0  0
  197.9210  172.8960  143.8520 C   0  0  0  0  0  2  0  0  0  0  0  0
  197.5660  173.8560  144.9680 C   0  0  2  0  0  3  0  0  0  0  0  0
  196.7270  172.6170  144.7390 C   0  0  2  0  0  3  0  0  0  0  0  0
  197.0930  171.5820  145.7820 C   0  0  0  0  0  2  0  0  0  0  0  0
  196.8770  170.2480  145.2460 N   0  0  0  0  0  2  0  0  0  0  0  0
  194.7180  170.0540  146.1170 O   0  0  0  0  0  1  0  0  0  0  0  0
  195.6590  169.5350  145.4580 C   0  0  0  0  0  0  0  0  0  0  0  0
  195.5080  168.2610  144.9270 O   0  0  0  0  0  0  0  0  0  0  0  0
  1  8  1  0  0  0  0
  2  6  1  0  0  0  0
  2  5  1  0  0  0  0
  3  2  2  0  0  0  0
  4  6  1  0  0  0  0
  6 13  1  0  0  0  0
  7  3  1  0  0  0  0
  7  4  2  0  0  0  0
  8  5  2  0  0  0  0
  9  3  1  0  0  0  0
  9  1  2  0  0  0  0
 10 13  1  0  0  0  0
 13 11  1  0  0  0  0
 13 12  1  0  0  0  0
 14 15  1  6  0  0  0
 14  9  1  0  0  0  0
 16 21  1  6  0  0  0
 16 14  1  0  0  0  0
 17 18  1  1  0  0  0
 17 16  1  0  0  0  0
 19 20  1  0  0  0  0
 20 17  1  0  0  0  0
 22 21  1  0  0  0  0
 23 22  1  0  0  0  0
 24 26  1  0  0  0  0
 24  4  1  0  0  0  0
 25 30  1  1  0  0  0
 25 26  1  0  0  0  0
 27 31  1  0  0  0  0
 27 29  1  0  0  0  0
 28 25  1  0  0  0  0
 29 26  1  0  0  0  0
 29 36  1  1  0  0  0
 31 28  1  6  0  0  0
 31 29  1  0  0  0  0
 32 36  2  0  0  0  0
 32 35  1  0  0  0  0
 33 38  2  0  0  0  0
 34 35  1  0  0  0  0
 35 37  2  0  0  0  0
 36 33  1  0  0  0  0
 37 38  1  0  0  0  0
 39  1  1  0  0  0  0
 40 42  1  0  0  0  0
 40 41  1  0  0  0  0
 41 39  1  6  0  0  0
 42 41  1  0  0  0  0
 42 43  1  1  0  0  0
 44 46  1  0  0  0  0
 44 43  1  0  0  0  0
 46 45  1  0  0  0  0
 47 46  2  0  0  0  0
M  END
>  <MODEL>
5

>  <REMARK>
 VINA RESULT:      -6.8      3.239      8.660
  Name = 
  14 active torsions:
  status: ('A' for Active; 'I' for Inactive)
    1  A    between atoms: O_2  and  C_43
    2  A    between atoms: C_3  and  O_47
    3  A    between atoms: C_6  and  C_9
    4  A    between atoms: C_6  and  C_46
    5  A    between atoms: C_8  and  C_11
    6  A    between atoms: C_9  and  C_41
    7  A    between atoms: C_9  and  C_43
    8  A    between atoms: C_11  and  N_13
    9  A    between atoms: N_12  and  C_26
   10  A    between atoms: N_17  and  C_29
   11  A    between atoms: C_27  and  O_47
   12  A    between atoms: O_28  and  C_41
   13  A    between atoms: C_29  and  C_40
   14  A    between atoms: C_34  and  C_37
                            x       y       z     vdW  Elec       q    Type
                         _______ _______ _______ _____ _____    ______ ____

>  <TORSDO>
F 14

$$$$
=
 OpenBabel11072408363D

 47 52  0  0  1  0  0  0  0  0999 V2000
  187.9000  176.4430  144.0410 C   0  0  0  0  0  0  0  0  0  0  0  0
  190.2380  176.3840  145.5430 C   0  0  0  0  0  0  0  0  0  0  0  0
  190.2980  176.2820  144.1820 C   0  0  0  0  0  0  0  0  0  0  0  0
  192.2680  176.1480  144.9500 C   0  0  0  0  0  0  0  0  0  0  0  0
  189.0290  176.5070  146.2230 C   0  0  0  0  0  3  0  0  0  0  0  0
  191.4830  176.3180  146.0480 N   0  0  0  0  0  0  0  0  0  0  0  0
  191.5740  176.1240  143.7840 N   0  0  0  0  0  0  0  0  0  0  0  0
  187.8550  176.5380  145.4550 C   0  0  0  0  0  3  0  0  0  0  0  0
  189.1450  176.3140  143.3830 C   0  0  0  0  0  0  0  0  0  0  0  0
  191.9040  174.9210  147.8600 F   0  0  0  0  0  0  0  0  0  0  0  0
  193.1330  176.7980  147.6360 F   0  0  0  0  0  0  0  0  0  0  0  0
  190.9820  176.9400  148.2500 F   0  0  0  0  0  0  0  0  0  0  0  0
  191.8780  176.2430  147.4590 C   0  0  0  0  0  0  0  0  0  0  0  0
  189.2010  176.2020  141.8780 C   0  0  2  0  0  3  0  0  0  0  0  0
  188.1860  176.9470  141.2720 O   0  0  0  0  0  1  0  0  0  0  0  0
  189.2320  174.7660  141.3260 C   0  0  1  0  0  3  0  0  0  0  0  0
  189.7040  173.7400  142.3620 C   0  0  2  0  0  3  0  0  0  0  0  0
  190.8290  173.0650  141.8830 O   0  0  0  0  0  1  0  0  0  0  0  0
  189.2530  171.9180  143.5340 C   0  0  0  0  0  1  0  0  0  0  0  0
  188.6920  172.8110  142.6200 O   0  0  0  0  0  0  0  0  0  0  0  0
  187.9470  174.3480  140.6030 C   0  0  0  0  0  2  0  0  0  0  0  0
  188.1740  174.1640  139.2370 O   0  0  0  0  0  0  0  0  0  0  0  0
  188.2180  172.7780  139.0750 C   0  0  0  0  0  1  0  0  0  0  0  0
  193.7420  175.9180  145.0020 C   0  0  0  0  0  2  0  0  0  0  0  0
  193.7040  173.5910  145.3880 C   0  0  2  0  0  3  0  0  0  0  0  0
  194.0530  174.6220  144.4160 N   0  0  0  0  0  0  0  0  0  0  0  0
  196.4350  174.5710  145.3900 C   0  0  0  0  0  2  0  0  0  0  0  0
  194.8720  172.6280  145.4980 C   0  0  0  0  0  2  0  0  0  0  0  0
  195.4980  174.5410  144.1900 C   0  0  1  0  0  0  0  0  0  0  0  0
  192.5230  172.8770  144.9420 N   0  0  0  0  0  1  0  0  0  0  0  0
  196.0360  173.2450  144.7490 C   0  0  1  0  0  3  0  0  0  0  0  0
  195.1710  174.9050  141.7260 C   0  0  0  0  0  3  0  0  0  0  0  0
  197.3570  175.2950  142.6820 C   0  0  0  0  0  3  0  0  0  0  0  0
  194.7830  175.2830  139.2900 C   0  0  0  0  0  1  0  0  0  0  0  0
  195.6760  175.2750  140.4780 C   0  0  0  0  0  0  0  0  0  0  0  0
  196.0230  174.9040  142.8370 C   0  0  0  0  0  0  0  0  0  0  0  0
  196.9810  175.6360  140.3480 N   0  0  0  0  0  0  0  0  0  0  0  0
  197.8230  175.6560  141.4160 C   0  0  0  0  0  3  0  0  0  0  0  0
  186.7220  176.4630  143.2860 O   0  0  0  0  0  0  0  0  0  0  0  0
  184.9410  177.8760  142.5190 C   0  0  0  0  0  2  0  0  0  0  0  0
  185.5510  177.1510  143.7010 C   0  0  2  0  0  3  0  0  0  0  0  0
  185.7700  178.6390  143.5300 C   0  0  2  0  0  3  0  0  0  0  0  0
  184.8590  179.3790  144.4890 C   0  0  0  0  0  2  0  0  0  0  0  0
  185.6040  179.7660  145.6740 N   0  0  0  0  0  2  0  0  0  0  0  0
  184.7750  178.0200  146.9850 O   0  0  0  0  0  0  0  0  0  0  0  0
  185.5100  179.0390  146.8990 C   0  0  0  0  0  0  0  0  0  0  0  0
  186.2420  179.4570  148.0030 O   0  0  0  0  0  1  0  0  0  0  0  0
  1  8  1  0  0  0  0
  2  6  1  0  0  0  0
  2  5  1  0  0  0  0
  3  2  2  0  0  0  0
  4 24  1  0  0  0  0
  4  6  1  0  0  0  0
  6 13  1  0  0  0  0
  7  3  1  0  0  0  0
  7  4  2  0  0  0  0
  8  5  2  0  0  0  0
  9  1  2  0  0  0  0
  9  3  1  0  0  0  0
 13 11  1  0  0  0  0
 13 10  1  0  0  0  0
 13 12  1  0  0  0  0
 14 15  1  6  0  0  0
 14  9  1  0  0  0  0
 16 21  1  1  0  0  0
 16 14  1  0  0  0  0
 16 17  1  0  0  0  0
 17 18  1  6  0  0  0
 17 20  1  0  0  0  0
 20 19  1  0  0  0  0
 22 21  1  0  0  0  0
 23 22  1  0  0  0  0
 25 30  1  6  0  0  0
 25 28  1  0  0  0  0
 26 24  1  0  0  0  0
 26 25  1  0  0  0  0
 29 36  1  6  0  0  0
 29 26  1  0  0  0  0
 29 31  1  0  0  0  0
 29 27  1  0  0  0  0
 31 27  1  1  0  0  0
 31 28  1  0  0  0  0
 32 36  1  0  0  0  0
 33 36  2  0  0  0  0
 34 35  1  0  0  0  0
 35 32  2  0  0  0  0
 37 35  1  0  0  0  0
 37 38  2  0  0  0  0
 38 33  1  0  0  0  0
 39  1  1  0  0  0  0
 40 42  1  0  0  0  0
 40 41  1  0  0  0  0
 41 39  1  6  0  0  0
 42 41  1  0  0  0  0
 42 43  1  1  0  0  0
 43 44  1  0  0  0  0
 44 46  1  0  0  0  0
 46 45  2  0  0  0  0
 46 47  1  0  0  0  0
M  END
>  <MODEL>
6

>  <REMARK>
 VINA RESULT:      -6.8      1.465      2.017
  Name = 
  14 active torsions:
  status: ('A' for Active; 'I' for Inactive)
    1  A    between atoms: O_2  and  C_43
    2  A    between atoms: C_3  and  O_47
    3  A    between atoms: C_6  and  C_9
    4  A    between atoms: C_6  and  C_46
    5  A    between atoms: C_8  and  C_11
    6  A    between atoms: C_9  and  C_41
    7  A    between atoms: C_9  and  C_43
    8  A    between atoms: C_11  and  N_13
    9  A    between atoms: N_12  and  C_26
   10  A    between atoms: N_17  and  C_29
   11  A    between atoms: C_27  and  O_47
   12  A    between atoms: O_28  and  C_41
   13  A    between atoms: C_29  and  C_40
   14  A    between atoms: C_34  and  C_37
                            x       y       z     vdW  Elec       q    Type
                         _______ _______ _______ _____ _____    ______ ____

>  <TORSDO>
F 14

$$$$
=
 OpenBabel11072408363D

 47 52  0  0  1  0  0  0  0  0999 V2000
  188.1500  176.7880  142.4030 C   0  0  0  0  0  0  0  0  0  0  0  0
  189.3310  174.5150  141.3250 C   0  0  0  0  0  0  0  0  0  0  0  0
  190.0620  175.3550  142.1160 C   0  0  0  0  0  0  0  0  0  0  0  0
  191.3250  173.7850  141.4600 C   0  0  0  0  0  0  0  0  0  0  0  0
  187.9950  174.7630  141.0200 C   0  0  0  0  0  3  0  0  0  0  0  0
  190.1120  173.5020  140.9120 N   0  0  0  0  0  0  0  0  0  0  0  0
  191.3310  174.9160  142.2100 N   0  0  0  0  0  0  0  0  0  0  0  0
  187.4070  175.9120  141.5720 C   0  0  0  0  0  3  0  0  0  0  0  0
  189.5070  176.5100  142.6880 C   0  0  0  0  0  0  0  0  0  0  0  0
  190.0820  171.2160  140.4770 F   0  0  0  0  0  0  0  0  0  0  0  0
  188.4420  172.5010  139.6150 F   0  0  0  0  0  0  0  0  0  0  0  0
  190.5160  172.6290  138.7760 F   0  0  0  0  0  0  0  0  0  0  0  0
  189.7860  172.4530  139.9380 C   0  0  0  0  0  0  0  0  0  0  0  0
  190.3070  177.4430  143.5640 C   0  0  2  0  0  3  0  0  0  0  0  0
  191.5370  177.7620  142.9830 O   0  0  0  0  0  1  0  0  0  0  0  0
  190.4890  176.9830  145.0220 C   0  0  1  0  0  3  0  0  0  0  0  0
  189.2060  176.4050  145.6280 C   0  0  2  0  0  3  0  0  0  0  0  0
  188.8880  177.0880  146.8050 O   0  0  0  0  0  1  0  0  0  0  0  0
  188.9440  174.9140  147.2420 C   0  0  0  0  0  1  0  0  0  0  0  0
  189.3770  175.0500  145.9220 O   0  0  0  0  0  0  0  0  0  0  0  0
  191.7180  176.0940  145.2440 C   0  0  0  0  0  2  0  0  0  0  0  0
  192.3600  176.4130  146.4430 O   0  0  0  0  0  0  0  0  0  0  0  0
  192.6990  175.1780  146.9970 C   0  0  0  0  0  1  0  0  0  0  0  0
  192.5640  172.9930  141.2050 C   0  0  0  0  0  2  0  0  0  0  0  0
  193.9080  173.6490  139.3810 C   0  0  2  0  0  3  0  0  0  0  0  0
  193.6370  173.8890  140.7940 N   0  0  0  0  0  0  0  0  0  0  0  0
  195.4870  172.1770  141.3190 C   0  0  0  0  0  2  0  0  0  0  0  0
  195.4080  173.5000  139.2030 C   0  0  0  0  0  2  0  0  0  0  0  0
  194.8510  173.5440  141.5380 C   0  0  1  0  0  0  0  0  0  0  0  0
  193.4330  174.7720  138.5940 N   0  0  0  0  0  1  0  0  0  0  0  0
  196.0170  173.4080  140.5880 C   0  0  1  0  0  3  0  0  0  0  0  0
  195.8140  173.6780  143.8540 C   0  0  0  0  0  3  0  0  0  0  0  0
  194.8130  175.6570  142.8910 C   0  0  0  0  0  3  0  0  0  0  0  0
  196.8150  173.7640  146.1390 C   0  0  0  0  0  1  0  0  0  0  0  0
  196.1080  174.4130  145.0040 C   0  0  0  0  0  0  0  0  0  0  0  0
  195.1500  174.3030  142.7920 C   0  0  0  0  0  0  0  0  0  0  0  0
  195.7570  175.7250  145.0850 N   0  0  0  0  0  0  0  0  0  0  0  0
  195.1240  176.3560  144.0600 C   0  0  0  0  0  3  0  0  0  0  0  0
  187.5570  177.9380  142.9390 O   0  0  0  0  0  0  0  0  0  0  0  0
  185.3890  178.9210  142.6400 C   0  0  0  0  0  2  0  0  0  0  0  0
  186.2320  177.9570  143.4490 C   0  0  2  0  0  3  0  0  0  0  0  0
  185.9350  179.3390  143.9890 C   0  0  2  0  0  3  0  0  0  0  0  0
  184.8480  179.2280  145.0390 C   0  0  0  0  0  2  0  0  0  0  0  0
  185.4490  179.0400  146.3490 N   0  0  0  0  0  2  0  0  0  0  0  0
  184.8170  176.7980  146.5150 O   0  0  0  0  0  0  0  0  0  0  0  0
  185.3900  177.7910  147.0370 C   0  0  0  0  0  0  0  0  0  0  0  0
  185.9780  177.6690  148.2890 O   0  0  0  0  0  1  0  0  0  0  0  0
  1  9  1  0  0  0  0
  1 39  1  0  0  0  0
  2  3  1  0  0  0  0
  3  7  1  0  0  0  0
  3  9  2  0  0  0  0
  4  7  2  0  0  0  0
  5  2  2  0  0  0  0
  5  8  1  0  0  0  0
  6  2  1  0  0  0  0
  6  4  1  0  0  0  0
  8  1  2  0  0  0  0
  9 14  1  0  0  0  0
 11 13  1  0  0  0  0
 12 13  1  0  0  0  0
 13 10  1  0  0  0  0
 13  6  1  0  0  0  0
 14 15  1  6  0  0  0
 14 16  1  0  0  0  0
 16 21  1  6  0  0  0
 16 17  1  0  0  0  0
 17 20  1  0  0  0  0
 17 18  1  1  0  0  0
 20 19  1  0  0  0  0
 21 22  1  0  0  0  0
 22 23  1  0  0  0  0
 24  4  1  0  0  0  0
 25 30  1  6  0  0  0
 25 26  1  0  0  0  0
 26 24  1  0  0  0  0
 26 29  1  0  0  0  0
 27 29  1  0  0  0  0
 28 25  1  0  0  0  0
 29 36  1  1  0  0  0
 31 28  1  6  0  0  0
 31 27  1  0  0  0  0
 31 29  1  0  0  0  0
 32 35  1  0  0  0  0
 33 38  2  0  0  0  0
 35 37  2  0  0  0  0
 35 34  1  0  0  0  0
 36 33  1  0  0  0  0
 36 32  2  0  0  0  0
 38 37  1  0  0  0  0
 40 41  1  0  0  0  0
 40 42  1  0  0  0  0
 41 39  1  6  0  0  0
 41 42  1  0  0  0  0
 42 43  1  1  0  0  0
 43 44  1  0  0  0  0
 44 46  1  0  0  0  0
 45 46  2  0  0  0  0
 46 47  1  0  0  0  0
M  END
>  <MODEL>
7

>  <REMARK>
 VINA RESULT:      -6.7      3.277      5.201
  Name = 
  14 active torsions:
  status: ('A' for Active; 'I' for Inactive)
    1  A    between atoms: O_2  and  C_43
    2  A    between atoms: C_3  and  O_47
    3  A    between atoms: C_6  and  C_9
    4  A    between atoms: C_6  and  C_46
    5  A    between atoms: C_8  and  C_11
    6  A    between atoms: C_9  and  C_41
    7  A    between atoms: C_9  and  C_43
    8  A    between atoms: C_11  and  N_13
    9  A    between atoms: N_12  and  C_26
   10  A    between atoms: N_17  and  C_29
   11  A    between atoms: C_27  and  O_47
   12  A    between atoms: O_28  and  C_41
   13  A    between atoms: C_29  and  C_40
   14  A    between atoms: C_34  and  C_37
                            x       y       z     vdW  Elec       q    Type
                         _______ _______ _______ _____ _____    ______ ____

>  <TORSDO>
F 14

$$$$
=
 OpenBabel11072408363D

 47 52  0  0  1  0  0  0  0  0999 V2000
  194.3230  173.8930  144.8330 C   0  0  0  0  0  0  0  0  0  0  0  0
  192.0260  175.4070  145.2290 C   0  0  0  0  0  0  0  0  0  0  0  0
  192.4920  175.1910  143.9630 C   0  0  0  0  0  0  0  0  0  0  0  0
  190.7680  176.4170  143.8420 C   0  0  0  0  0  0  0  0  0  0  0  0
  192.6750  174.9010  146.3520 C   0  0  0  0  0  3  0  0  0  0  0  0
  190.9210  176.1710  145.1710 N   0  0  0  0  0  0  0  0  0  0  0  0
  191.7140  175.8270  143.0670 N   0  0  0  0  0  0  0  0  0  0  0  0
  193.8330  174.1360  146.1410 C   0  0  0  0  0  3  0  0  0  0  0  0
  193.6420  174.4270  143.7140 C   0  0  0  0  0  0  0  0  0  0  0  0
  189.1130  175.9490  146.6180 F   0  0  0  0  0  0  0  0  0  0  0  0
  191.0020  176.9060  147.3910 F   0  0  0  0  0  0  0  0  0  0  0  0
  189.7010  178.0170  145.9420 F   0  0  0  0  0  0  0  0  0  0  0  0
  190.1780  176.7650  146.2880 C   0  0  0  0  0  0  0  0  0  0  0  0
  194.1640  174.1810  142.3190 C   0  0  2  0  0  3  0  0  0  0  0  0
  194.0930  172.8290  141.9770 O   0  0  0  0  0  1  0  0  0  0  0  0
  195.5670  174.7470  142.0320 C   0  0  1  0  0  3  0  0  0  0  0  0
  196.3920  173.8500  141.1050 C   0  0  2  0  0  3  0  0  0  0  0  0
  197.6380  173.5890  141.6820 O   0  0  0  0  0  1  0  0  0  0  0  0
  197.9320  174.2630  139.5710 C   0  0  0  0  0  1  0  0  0  0  0  0
  196.5860  174.4760  139.8710 O   0  0  0  0  0  0  0  0  0  0  0  0
  195.5690  176.2200  141.6080 C   0  0  0  0  0  2  0  0  0  0  0  0
  196.7060  176.8790  142.0810 O   0  0  0  0  0  0  0  0  0  0  0  0
  196.6400  176.7390  143.4680 C   0  0  0  0  0  1  0  0  0  0  0  0
  189.7240  177.3180  143.2710 C   0  0  0  0  0  2  0  0  0  0  0  0
  188.6510  175.6890  141.9450 C   0  0  2  0  0  3  0  0  0  0  0  0
  188.4840  176.5740  143.0930 N   0  0  0  0  0  0  0  0  0  0  0  0
  187.4890  178.3040  141.4670 C   0  0  0  0  0  2  0  0  0  0  0  0
  187.4380  175.8440  141.0450 C   0  0  0  0  0  2  0  0  0  0  0  0
  187.4110  177.5160  142.7680 C   0  0  1  0  0  0  0  0  0  0  0  0
  188.7500  174.3140  142.3980 N   0  0  0  0  0  1  0  0  0  0  0  0
  186.6490  177.0320  141.5570 C   0  0  1  0  0  3  0  0  0  0  0  0
  186.6440  177.4490  145.1590 C   0  0  0  0  0  3  0  0  0  0  0  0
  185.6940  179.1050  143.6750 C   0  0  0  0  0  3  0  0  0  0  0  0
  185.9410  177.3600  147.5520 C   0  0  0  0  0  1  0  0  0  0  0  0
  185.8550  177.9560  146.1940 C   0  0  0  0  0  0  0  0  0  0  0  0
  186.5540  178.0230  143.8850 C   0  0  0  0  0  0  0  0  0  0  0  0
  185.0140  179.0000  145.9630 N   0  0  0  0  0  0  0  0  0  0  0  0
  184.9210  179.5820  144.7370 C   0  0  0  0  0  3  0  0  0  0  0  0
  195.4850  173.1380  144.6350 O   0  0  0  0  0  0  0  0  0  0  0  0
  196.7000  171.0710  144.5530 C   0  0  0  0  0  2  0  0  0  0  0  0
  195.7660  171.9490  145.3590 C   0  0  2  0  0  3  0  0  0  0  0  0
  195.2180  170.7660  144.5910 C   0  0  2  0  0  3  0  0  0  0  0  0
  194.9510  169.6350  145.5640 C   0  0  0  0  0  2  0  0  0  0  0  0
  196.1230  169.4180  146.3960 N   0  0  0  0  0  2  0  0  0  0  0  0
  194.9710  168.1730  148.0030 O   0  0  0  0  0  0  0  0  0  0  0  0
  196.0590  168.6770  147.6140 C   0  0  0  0  0  0  0  0  0  0  0  0
  197.2090  168.5040  148.3740 O   0  0  0  0  0  1  0  0  0  0  0  0
  1  8  1  0  0  0  0
  2  5  1  0  0  0  0
  3  2  2  0  0  0  0
  4  6  1  0  0  0  0
  6  2  1  0  0  0  0
  6 13  1  0  0  0  0
  7  4  2  0  0  0  0
  7  3  1  0  0  0  0
  8  5  2  0  0  0  0
  9  3  1  0  0  0  0
  9  1  2  0  0  0  0
 12 13  1  0  0  0  0
 13 10  1  0  0  0  0
 13 11  1  0  0  0  0
 14 15  1  1  0  0  0
 14  9  1  0  0  0  0
 16 21  1  6  0  0  0
 16 14  1  0  0  0  0
 17 18  1  1  0  0  0
 17 16  1  0  0  0  0
 19 20  1  0  0  0  0
 20 17  1  0  0  0  0
 21 22  1  0  0  0  0
 22 23  1  0  0  0  0
 24  4  1  0  0  0  0
 25 30  1  1  0  0  0
 25 26  1  0  0  0  0
 26 24  1  0  0  0  0
 27 31  1  0  0  0  0
 27 29  1  0  0  0  0
 28 25  1  0  0  0  0
 29 26  1  0  0  0  0
 29 36  1  1  0  0  0
 31 28  1  6  0  0  0
 31 29  1  0  0  0  0
 32 35  1  0  0  0  0
 33 36  1  0  0  0  0
 33 38  2  0  0  0  0
 35 34  1  0  0  0  0
 36 32  2  0  0  0  0
 37 35  2  0  0  0  0
 38 37  1  0  0  0  0
 39  1  1  0  0  0  0
 40 42  1  0  0  0  0
 40 41  1  0  0  0  0
 41 39  1  6  0  0  0
 42 41  1  0  0  0  0
 42 43  1  1  0  0  0
 43 44  1  0  0  0  0
 44 46  1  0  0  0  0
 46 45  2  0  0  0  0
 46 47  1  0  0  0  0
M  END
>  <MODEL>
8

>  <REMARK>
 VINA RESULT:      -6.6      3.671      9.044
  Name = 
  14 active torsions:
  status: ('A' for Active; 'I' for Inactive)
    1  A    between atoms: O_2  and  C_43
    2  A    between atoms: C_3  and  O_47
    3  A    between atoms: C_6  and  C_9
    4  A    between atoms: C_6  and  C_46
    5  A    between atoms: C_8  and  C_11
    6  A    between atoms: C_9  and  C_41
    7  A    between atoms: C_9  and  C_43
    8  A    between atoms: C_11  and  N_13
    9  A    between atoms: N_12  and  C_26
   10  A    between atoms: N_17  and  C_29
   11  A    between atoms: C_27  and  O_47
   12  A    between atoms: O_28  and  C_41
   13  A    between atoms: C_29  and  C_40
   14  A    between atoms: C_34  and  C_37
                            x       y       z     vdW  Elec       q    Type
                         _______ _______ _______ _____ _____    ______ ____

>  <TORSDO>
F 14

$$$$
=
 OpenBabel11072408363D

 47 52  0  0  1  0  0  0  0  0999 V2000
  189.5590  175.9950  146.4660 C   0  0  0  0  0  0  0  0  0  0  0  0
  192.2700  176.0400  145.8540 C   0  0  0  0  0  0  0  0  0  0  0  0
  191.3940  175.3980  145.0260 C   0  0  0  0  0  0  0  0  0  0  0  0
  193.3480  175.1640  144.2430 C   0  0  0  0  0  0  0  0  0  0  0  0
  191.8540  176.6750  147.0210 C   0  0  0  0  0  3  0  0  0  0  0  0
  193.5160  175.9170  145.3630 N   0  0  0  0  0  0  0  0  0  0  0  0
  192.0560  174.8290  144.0010 N   0  0  0  0  0  0  0  0  0  0  0  0
  190.4820  176.6480  147.3200 C   0  0  0  0  0  3  0  0  0  0  0  0
  190.0160  175.3550  145.2900 C   0  0  0  0  0  0  0  0  0  0  0  0
  195.6680  176.7330  145.0230 F   0  0  0  0  0  0  0  0  0  0  0  0
  194.5540  177.3660  146.8790 F   0  0  0  0  0  0  0  0  0  0  0  0
  195.3260  175.2690  146.7030 F   0  0  0  0  0  0  0  0  0  0  0  0
  194.7760  176.3240  145.9960 C   0  0  0  0  0  0  0  0  0  0  0  0
  189.0400  174.6480  144.3810 C   0  0  2  0  0  3  0  0  0  0  0  0
  189.4310  173.3290  144.1370 O   0  0  0  0  0  1  0  0  0  0  0  0
  188.7190  175.3790  143.0640 C   0  0  1  0  0  3  0  0  0  0  0  0
  188.7680  176.9040  143.2040 C   0  0  2  0  0  3  0  0  0  0  0  0
  187.4890  177.3960  143.4770 O   0  0  0  0  0  1  0  0  0  0  0  0
  188.1800  178.2800  141.5740 C   0  0  0  0  0  1  0  0  0  0  0  0
  189.2350  177.4840  142.0210 O   0  0  0  0  0  0  0  0  0  0  0  0
  189.5030  174.8560  141.8560 C   0  0  0  0  0  2  0  0  0  0  0  0
  188.7210  173.9940  141.0830 O   0  0  0  0  0  0  0  0  0  0  0  0
  188.1820  174.8100  140.0870 C   0  0  0  0  0  1  0  0  0  0  0  0
  194.4700  174.6660  143.3930 C   0  0  0  0  0  2  0  0  0  0  0  0
  195.9370  172.9320  144.0260 C   0  0  2  0  0  3  0  0  0  0  0  0
  194.5920  173.2230  143.5440 N   0  0  0  0  0  0  0  0  0  0  0  0
  195.4990  172.8860  141.1590 C   0  0  0  0  0  2  0  0  0  0  0  0
  196.5180  171.8190  143.1720 C   0  0  0  0  0  2  0  0  0  0  0  0
  194.4530  172.5970  142.2270 C   0  0  1  0  0  0  0  0  0  0  0  0
  195.8800  172.5040  145.4120 N   0  0  0  0  0  1  0  0  0  0  0  0
  195.5780  171.6160  142.0010 C   0  0  1  0  0  3  0  0  0  0  0  0
  192.6010  172.3880  140.5420 C   0  0  0  0  0  3  0  0  0  0  0  0
  192.3470  171.3140  142.6930 C   0  0  0  0  0  3  0  0  0  0  0  0
  190.8060  172.1850  138.8200 C   0  0  0  0  0  1  0  0  0  0  0  0
  191.3480  171.8940  140.1730 C   0  0  0  0  0  0  0  0  0  0  0  0
  193.1000  172.1040  141.8190 C   0  0  0  0  0  0  0  0  0  0  0  0
  190.6270  171.1400  141.0450 N   0  0  0  0  0  0  0  0  0  0  0  0
  191.0980  170.8410  142.2850 C   0  0  0  0  0  3  0  0  0  0  0  0
  188.1950  175.9640  146.7780 O   0  0  0  0  0  0  0  0  0  0  0  0
  186.3060  176.7970  148.0010 C   0  0  0  0  0  2  0  0  0  0  0  0
  187.4400  177.1350  147.0550 C   0  0  2  0  0  3  0  0  0  0  0  0
  186.0370  176.9510  146.5190 C   0  0  2  0  0  3  0  0  0  0  0  0
  185.4370  178.3150  146.2450 C   0  0  0  0  0  2  0  0  0  0  0  0
  184.4200  178.2060  145.2130 N   0  0  0  0  0  2  0  0  0  0  0  0
  185.3250  179.9050  143.8900 O   0  0  0  0  0  1  0  0  0  0  0  0
  184.4220  179.0420  144.0570 C   0  0  0  0  0  0  0  0  0  0  0  0
  183.4230  178.8980  143.1040 O   0  0  0  0  0  0  0  0  0  0  0  0
  1 39  1  0  0  0  0
  1  8  1  0  0  0  0
  2  5  1  0  0  0  0
  3  9  1  0  0  0  0
  3  2  2  0  0  0  0
  4  6  1  0  0  0  0
  5  8  2  0  0  0  0
  6  2  1  0  0  0  0
  6 13  1  0  0  0  0
  7  4  2  0  0  0  0
  7  3  1  0  0  0  0
  9  1  2  0  0  0  0
 10 13  1  0  0  0  0
 13 12  1  0  0  0  0
 13 11  1  0  0  0  0
 14 15  1  6  0  0  0
 14  9  1  0  0  0  0
 16 21  1  6  0  0  0
 16 17  1  0  0  0  0
 16 14  1  0  0  0  0
 17 18  1  6  0  0  0
 19 20  1  0  0  0  0
 20 17  1  0  0  0  0
 22 21  1  0  0  0  0
 23 22  1  0  0  0  0
 24 26  1  0  0  0  0
 24  4  1  0  0  0  0
 25 30  1  1  0  0  0
 26 25  1  0  0  0  0
 27 29  1  0  0  0  0
 28 25  1  0  0  0  0
 29 36  1  6  0  0  0
 29 26  1  0  0  0  0
 31 27  1  6  0  0  0
 31 29  1  0  0  0  0
 31 28  1  0  0  0  0
 32 36  1  0  0  0  0
 34 35  1  0  0  0  0
 35 32  2  0  0  0  0
 35 37  1  0  0  0  0
 36 33  2  0  0  0  0
 37 38  2  0  0  0  0
 38 33  1  0  0  0  0
 41 39  1  6  0  0  0
 41 40  1  0  0  0  0
 42 43  1  1  0  0  0
 42 41  1  0  0  0  0
 42 40  1  0  0  0  0
 44 43  1  0  0  0  0
 45 46  1  0  0  0  0
 46 44  1  0  0  0  0
 47 46  2  0  0  0  0
M  END
>  <MODEL>
9

>  <REMARK>
 VINA RESULT:      -6.6      1.983      3.826
  Name = 
  14 active torsions:
  status: ('A' for Active; 'I' for Inactive)
    1  A    between atoms: O_2  and  C_43
    2  A    between atoms: C_3  and  O_47
    3  A    between atoms: C_6  and  C_9
    4  A    between atoms: C_6  and  C_46
    5  A    between atoms: C_8  and  C_11
    6  A    between atoms: C_9  and  C_41
    7  A    between atoms: C_9  and  C_43
    8  A    between atoms: C_11  and  N_13
    9  A    between atoms: N_12  and  C_26
   10  A    between atoms: N_17  and  C_29
   11  A    between atoms: C_27  and  O_47
   12  A    between atoms: O_28  and  C_41
   13  A    between atoms: C_29  and  C_40
   14  A    between atoms: C_34  and  C_37
                            x       y       z     vdW  Elec       q    Type
                         _______ _______ _______ _____ _____    ______ ____

>  <TORSDO>
F 14

$$$$
