=
 OpenBabel11062420443D

 45 50  0  0  1  0  0  0  0  0999 V2000
  187.4260  178.0520  143.7420 C   0  0  0  0  0  0  0  0  0  0  0  0
  188.6960  177.8020  144.1790 N   0  0  0  0  0  0  0  0  0  0  0  0
  188.9740  177.4620  145.4780 C   0  0  0  0  0  0  0  0  0  0  0  0
  185.4260  177.5740  146.6110 C   0  0  0  0  0  0  0  0  0  0  0  0
  185.0110  178.1060  144.5740 C   0  0  0  0  0  0  0  0  0  0  0  0
  185.2360  177.2700  147.9890 N   0  0  0  0  0  1  0  0  0  0  0  0
  186.6390  177.5980  145.9610 C   0  0  1  0  0  3  0  0  0  0  0  0
  186.3820  177.9390  144.6640 C   0  0  0  0  0  0  0  0  0  0  0  0
  184.2890  178.4490  143.3960 N   0  0  0  0  0  1  0  0  0  0  0  0
  184.4140  177.8820  145.7680 N   0  0  0  0  0  0  0  0  0  0  0  0
  187.9280  177.3480  146.4180 C   0  0  0  0  0  3  0  0  0  0  0  0
  191.8540  175.4430  146.6200 C   0  0  0  0  0  2  0  0  0  0  0  0
  190.5010  176.0660  146.8760 C   0  0  0  0  0  2  0  0  0  0  0  0
  192.1290  175.6500  145.1390 C   0  0  1  0  0  3  0  0  0  0  0  0
  190.3920  177.1900  145.8670 C   0  0  1  0  0  3  0  0  0  0  0  0
  191.2280  176.7810  144.6680 C   0  0  0  0  0  2  0  0  0  0  0  0
  193.6020  175.9640  144.8530 C   0  0  2  0  0  3  0  0  0  0  0  0
  196.6110  174.6870  143.3540 C   0  0  2  0  0  0  0  0  0  0  0  0
  194.6470  174.4560  141.9730 F   0  0  0  0  0  0  0  0  0  0  0  0
  195.3380  174.2220  145.3700 C   0  0  1  0  0  3  0  0  0  0  0  0
  197.7190  173.7730  145.3080 O   0  0  0  0  0  1  0  0  0  0  0  0
  196.8810  173.4280  142.8040 O   0  0  0  0  0  1  0  0  0  0  0  0
  194.3490  174.7340  144.3280 C   0  0  2  0  0  3  0  0  0  0  0  0
  195.2390  172.8300  145.4410 O   0  0  0  0  0  1  0  0  0  0  0  0
  196.7120  174.6400  144.8690 C   0  0  1  0  0  3  0  0  0  0  0  0
  195.1640  175.0930  143.0870 C   0  0  1  0  0  3  0  0  0  0  0  0
  197.1850  177.0120  143.1660 O   0  0  0  0  0  1  0  0  0  0  0  0
  197.5800  175.7240  142.8010 C   0  0  0  0  0  2  0  0  0  0  0  0
  194.2280  176.4650  146.0020 O   0  0  0  0  0  0  0  0  0  0  0  0
  194.6640  177.6570  145.6520 O   0  0  0  0  0  1  0  0  0  0  0  0
  187.1530  178.5130  142.0320 S   0  0  0  0  0  0  0  0  0  0  0  0
  187.2990  176.4740  140.1680 C   0  0  0  0  0  3  0  0  0  0  0  0
  188.9930  174.8980  141.7180 C   0  0  0  0  0  0  0  0  0  0  0  0
  187.7460  175.2330  139.7140 C   0  0  0  0  0  3  0  0  0  0  0  0
  187.7100  176.9260  141.4230 C   0  0  0  0  0  0  0  0  0  0  0  0
  188.5740  174.4800  140.4880 N   0  0  0  0  0  0  0  0  0  0  0  0
  188.5600  176.1400  142.2010 C   0  0  0  0  0  3  0  0  0  0  0  0
  191.6890  172.4950  141.8340 C   0  0  0  0  0  3  0  0  0  0  0  0
  189.4480  173.4980  143.6590 C   0  0  0  0  0  3  0  0  0  0  0  0
  189.8290  172.5370  145.8470 F   0  0  0  0  0  0  0  0  0  0  0  0
  189.8990  174.0540  142.5270 C   0  0  0  0  0  0  0  0  0  0  0  0
  191.1140  171.6990  144.1270 C   0  0  0  0  0  3  0  0  0  0  0  0
  191.6180  171.5290  142.7490 C   0  0  0  0  0  3  0  0  0  0  0  0
  191.3370  173.9150  142.1280 C   0  0  0  0  0  2  0  0  0  0  0  0
  190.2030  172.5900  144.5460 C   0  0  0  0  0  0  0  0  0  0  0  0
  1  2  2  0  0  0  0
  1  8  1  0  0  0  0
  2  3  1  0  0  0  0
  3 11  2  0  0  0  0
  4  6  1  0  0  0  0
  5  8  2  0  0  0  0
  5 10  1  0  0  0  0
  7 11  1  1  0  0  0
  7  4  1  0  0  0  0
  8  7  1  0  0  0  0
  9  5  1  0  0  0  0
 10  4  2  0  0  0  0
 12 13  1  0  0  0  0
 14 17  1  1  0  0  0
 14 12  1  0  0  0  0
 15  3  1  6  0  0  0
 15 13  1  0  0  0  0
 16 14  1  0  0  0  0
 16 15  1  0  0  0  0
 17 29  1  1  0  0  0
 18 22  1  6  0  0  0
 18 25  1  0  0  0  0
 20 24  1  6  0  0  0
 23 17  1  1  0  0  0
 23 20  1  0  0  0  0
 25 21  1  6  0  0  0
 25 20  1  0  0  0  0
 26 19  1  6  0  0  0
 26 18  1  0  0  0  0
 26 23  1  0  0  0  0
 28 27  1  0  0  0  0
 28 18  1  0  0  0  0
 30 29  1  0  0  0  0
 31  1  1  0  0  0  0
 32 35  1  0  0  0  0
 33 37  1  0  0  0  0
 33 41  1  0  0  0  0
 34 32  2  0  0  0  0
 34 36  1  0  0  0  0
 35 31  1  0  0  0  0
 35 37  2  0  0  0  0
 36 33  2  0  0  0  0
 38 44  1  0  0  0  0
 38 43  2  0  0  0  0
 39 45  1  0  0  0  0
 41 39  2  0  0  0  0
 42 45  2  0  0  0  0
 43 42  1  0  0  0  0
 44 41  1  0  0  0  0
 45 40  1  0  0  0  0
M  END
>  <MODEL>
1

>  <REMARK>
 VINA RESULT:      -8.4      0.000      0.000
  Name = 
  8 active torsions:
  status: ('A' for Active; 'I' for Inactive)
    1  A    between atoms: C_2  and  S_32
    2  A    between atoms: C_4  and  C_36
    3  A    between atoms: C_5  and  C_21
    4  A    between atoms: C_5  and  C_26
    5  A    between atoms: C_5  and  O_27
    6  A    between atoms: C_11  and  C_16
    7  A    between atoms: C_15  and  S_32
    8  A    between atoms: C_18  and  C_39
                            x       y       z     vdW  Elec       q    Type
                         _______ _______ _______ _____ _____    ______ ____

>  <TORSDO>
F 8

$$$$
=
 OpenBabel11062420443D

 45 50  0  0  1  0  0  0  0  0999 V2000
  191.8910  172.9910  140.4790 C   0  0  0  0  0  0  0  0  0  0  0  0
  191.1490  173.6360  141.4280 N   0  0  0  0  0  2  0  0  0  0  0  0
  190.3650  172.9650  142.3300 C   0  0  0  0  0  0  0  0  0  0  0  0
  191.2350  169.5720  141.0590 C   0  0  0  0  0  0  0  0  0  0  0  0
  192.4560  170.6400  139.6560 C   0  0  0  0  0  0  0  0  0  0  0  0
  190.5980  168.5020  141.7490 N   0  0  0  0  0  1  0  0  0  0  0  0
  191.0730  170.9090  141.3420 C   0  0  0  0  0  0  0  0  0  0  0  0
  191.8470  171.5950  140.4500 C   0  0  0  0  0  0  0  0  0  0  0  0
  193.3710  170.8980  138.5960 N   0  0  0  0  0  1  0  0  0  0  0  0
  192.0860  169.3910  140.0250 N   0  0  0  0  0  0  0  0  0  0  0  0
  190.3090  171.5550  142.3080 C   0  0  0  0  0  3  0  0  0  0  0  0
  189.6530  174.4590  145.6380 C   0  0  0  0  0  2  0  0  0  0  0  0
  189.8350  173.2460  144.7540 C   0  0  0  0  0  2  0  0  0  0  0  0
  190.0660  175.6520  144.7890 C   0  0  1  0  0  3  0  0  0  0  0  0
  189.5970  173.7500  143.3460 C   0  0  1  0  0  3  0  0  0  0  0  0
  189.9970  175.2140  143.3340 C   0  0  0  0  0  2  0  0  0  0  0  0
  189.1850  176.8810  145.0360 C   0  0  2  0  0  3  0  0  0  0  0  0
  185.9230  177.8550  146.1960 C   0  0  2  0  0  0  0  0  0  0  0  0
  186.8430  175.9370  147.3360 F   0  0  0  0  0  0  0  0  0  0  0  0
  186.8760  177.1450  144.0780 C   0  0  1  0  0  3  0  0  0  0  0  0
  184.9090  178.5600  144.1090 O   0  0  0  0  0  1  0  0  0  0  0  0
  184.7500  177.1000  146.3300 O   0  0  0  0  0  1  0  0  0  0  0  0
  187.7080  176.4970  145.1780 C   0  0  2  0  0  3  0  0  0  0  0  0
  185.9890  176.1950  143.5640 O   0  0  0  0  0  1  0  0  0  0  0  0
  186.1200  178.2800  144.7510 C   0  0  1  0  0  3  0  0  0  0  0  0
  187.1500  177.0030  146.5080 C   0  0  1  0  0  3  0  0  0  0  0  0
  186.7140  178.9270  148.1940 O   0  0  0  0  0  1  0  0  0  0  0  0
  185.8670  179.0820  147.0960 C   0  0  0  0  0  2  0  0  0  0  0  0
  189.3490  177.8180  144.0070 O   0  0  0  0  0  0  0  0  0  0  0  0
  190.4740  178.4380  144.2970 O   0  0  0  0  0  1  0  0  0  0  0  0
  192.8730  173.9470  139.3240 S   0  0  0  0  0  0  0  0  0  0  0  0
  195.5340  173.7080  140.0410 C   0  0  0  0  0  3  0  0  0  0  0  0
  195.1300  174.6160  142.6420 C   0  0  0  0  0  0  0  0  0  0  0  0
  196.5940  173.8100  140.9430 C   0  0  0  0  0  3  0  0  0  0  0  0
  194.2510  174.0670  140.4570 C   0  0  0  0  0  0  0  0  0  0  0  0
  196.3730  174.2570  142.2080 N   0  0  0  0  0  0  0  0  0  0  0  0
  194.0460  174.5240  141.7590 C   0  0  0  0  0  3  0  0  0  0  0  0
  193.5740  174.1810  145.8740 C   0  0  0  0  0  3  0  0  0  0  0  0
  194.8880  176.4220  144.2590 C   0  0  0  0  0  3  0  0  0  0  0  0
  195.1290  178.3200  145.7420 F   0  0  0  0  0  0  0  0  0  0  0  0
  194.9300  175.1050  144.0240 C   0  0  0  0  0  0  0  0  0  0  0  0
  193.8350  176.5760  146.5180 C   0  0  0  0  0  3  0  0  0  0  0  0
  193.1430  175.2720  146.5060 C   0  0  0  0  0  3  0  0  0  0  0  0
  194.8810  174.1240  145.1570 C   0  0  0  0  0  2  0  0  0  0  0  0
  194.6410  177.0680  145.5650 C   0  0  0  0  0  0  0  0  0  0  0  0
  1  2  1  0  0  0  0
  2  3  1  0  0  0  0
  4  7  2  0  0  0  0
  4  6  1  0  0  0  0
  5 10  2  0  0  0  0
  5  8  1  0  0  0  0
  7 11  1  0  0  0  0
  8  1  2  0  0  0  0
  8  7  1  0  0  0  0
  9  5  1  0  0  0  0
 10  4  1  0  0  0  0
 11  3  2  0  0  0  0
 13 12  1  0  0  0  0
 14 17  1  6  0  0  0
 14 12  1  0  0  0  0
 15  3  1  6  0  0  0
 15 13  1  0  0  0  0
 16 15  1  0  0  0  0
 16 14  1  0  0  0  0
 17 29  1  6  0  0  0
 18 22  1  1  0  0  0
 18 26  1  0  0  0  0
 18 28  1  0  0  0  0
 20 24  1  1  0  0  0
 20 25  1  0  0  0  0
 20 23  1  0  0  0  0
 23 17  1  6  0  0  0
 23 26  1  0  0  0  0
 25 21  1  6  0  0  0
 25 18  1  0  0  0  0
 26 19  1  1  0  0  0
 28 27  1  0  0  0  0
 29 30  1  0  0  0  0
 31 35  1  0  0  0  0
 31  1  1  0  0  0  0
 32 35  2  0  0  0  0
 32 34  1  0  0  0  0
 33 41  1  0  0  0  0
 34 36  2  0  0  0  0
 35 37  1  0  0  0  0
 36 33  1  0  0  0  0
 37 33  2  0  0  0  0
 38 43  2  0  0  0  0
 39 45  1  0  0  0  0
 41 39  2  0  0  0  0
 41 44  1  0  0  0  0
 43 42  1  0  0  0  0
 44 38  1  0  0  0  0
 45 40  1  0  0  0  0
 45 42  2  0  0  0  0
M  END
>  <MODEL>
2

>  <REMARK>
 VINA RESULT:      -8.1      4.179      8.453
  Name = 
  8 active torsions:
  status: ('A' for Active; 'I' for Inactive)
    1  A    between atoms: C_2  and  S_32
    2  A    between atoms: C_4  and  C_36
    3  A    between atoms: C_5  and  C_21
    4  A    between atoms: C_5  and  C_26
    5  A    between atoms: C_5  and  O_27
    6  A    between atoms: C_11  and  C_16
    7  A    between atoms: C_15  and  S_32
    8  A    between atoms: C_18  and  C_39
                            x       y       z     vdW  Elec       q    Type
                         _______ _______ _______ _____ _____    ______ ____

>  <TORSDO>
F 8

$$$$
=
 OpenBabel11062420443D

 45 50  0  0  1  0  0  0  0  0999 V2000
  191.3570  170.8850  142.1460 C   0  0  0  0  0  0  0  0  0  0  0  0
  190.7560  171.7260  143.0400 N   0  0  0  0  0  2  0  0  0  0  0  0
  190.1650  172.9030  142.6590 C   0  0  0  0  0  0  0  0  0  0  0  0
  190.9190  172.4890  139.0330 C   0  0  0  0  0  0  0  0  0  0  0  0
  191.8400  170.6520  139.6480 C   0  0  0  0  0  0  0  0  0  0  0  0
  190.4600  173.5550  138.2090 N   0  0  0  0  0  1  0  0  0  0  0  0
  190.7620  172.4140  140.3990 C   0  0  0  0  0  0  0  0  0  0  0  0
  191.3480  171.2470  140.7970 C   0  0  0  0  0  0  0  0  0  0  0  0
  192.5170  169.4020  139.5830 N   0  0  0  0  0  1  0  0  0  0  0  0
  191.5790  171.4090  138.5570 N   0  0  0  0  0  0  0  0  0  0  0  0
  190.1530  173.2810  141.2990 C   0  0  0  0  0  3  0  0  0  0  0  0
  189.8880  174.7230  145.8660 C   0  0  0  0  0  2  0  0  0  0  0  0
  190.0110  173.4290  145.0950 C   0  0  0  0  0  2  0  0  0  0  0  0
  190.0750  175.8320  144.8420 C   0  0  1  0  0  3  0  0  0  0  0  0
  189.5170  173.7570  143.7010 C   0  0  1  0  0  3  0  0  0  0  0  0
  189.8060  175.2290  143.4730 C   0  0  0  0  0  2  0  0  0  0  0  0
  189.1610  177.0330  145.1040 C   0  0  2  0  0  3  0  0  0  0  0  0
  185.8780  177.9030  146.2880 C   0  0  2  0  0  0  0  0  0  0  0  0
  186.8560  176.0000  147.4040 F   0  0  0  0  0  0  0  0  0  0  0  0
  186.8420  177.2420  144.1580 C   0  0  1  0  0  3  0  0  0  0  0  0
  184.8360  178.6010  144.2130 O   0  0  0  0  0  1  0  0  0  0  0  0
  184.7270  177.1140  146.4190 O   0  0  0  0  0  1  0  0  0  0  0  0
  187.6970  176.6060  145.2490 C   0  0  2  0  0  3  0  0  0  0  0  0
  185.9790  176.2730  143.6380 O   0  0  0  0  0  1  0  0  0  0  0  0
  186.0560  178.3480  144.8470 C   0  0  1  0  0  3  0  0  0  0  0  0
  187.1300  177.0820  146.5860 C   0  0  1  0  0  3  0  0  0  0  0  0
  186.6930  179.0040  148.2610 O   0  0  0  0  0  1  0  0  0  0  0  0
  185.7910  179.1180  147.2010 C   0  0  0  0  0  2  0  0  0  0  0  0
  189.2950  177.9850  144.0840 O   0  0  0  0  0  0  0  0  0  0  0  0
  190.5260  178.4350  144.2080 O   0  0  0  0  0  1  0  0  0  0  0  0
  192.1270  169.3750  142.7320 S   0  0  0  0  0  0  0  0  0  0  0  0
  193.8660  169.5490  144.8760 C   0  0  0  0  0  3  0  0  0  0  0  0
  194.0930  172.3210  144.7340 C   0  0  0  0  0  0  0  0  0  0  0  0
  194.6690  170.2550  145.7730 C   0  0  0  0  0  3  0  0  0  0  0  0
  193.1650  170.2520  143.8950 C   0  0  0  0  0  0  0  0  0  0  0  0
  194.7660  171.6090  145.6840 N   0  0  0  0  0  0  0  0  0  0  0  0
  193.2780  171.6400  143.8200 C   0  0  0  0  0  3  0  0  0  0  0  0
  194.6320  175.4550  146.4520 C   0  0  0  0  0  3  0  0  0  0  0  0
  193.4960  174.4820  143.7830 C   0  0  0  0  0  3  0  0  0  0  0  0
  193.1140  176.4440  142.4170 F   0  0  0  0  0  0  0  0  0  0  0  0
  194.2290  173.7920  144.6650 C   0  0  0  0  0  0  0  0  0  0  0  0
  193.6160  176.8270  144.6330 C   0  0  0  0  0  3  0  0  0  0  0  0
  193.9360  176.5130  146.0410 C   0  0  0  0  0  3  0  0  0  0  0  0
  195.2590  174.4820  145.5080 C   0  0  0  0  0  2  0  0  0  0  0  0
  193.4720  175.9520  143.6270 C   0  0  0  0  0  0  0  0  0  0  0  0
  1 31  1  0  0  0  0
  1  2  1  0  0  0  0
  3  2  1  0  0  0  0
  4  7  2  0  0  0  0
  5  8  1  0  0  0  0
  6  4  1  0  0  0  0
  7  8  1  0  0  0  0
  7 11  1  0  0  0  0
  8  1  2  0  0  0  0
  9  5  1  0  0  0  0
 10  4  1  0  0  0  0
 10  5  2  0  0  0  0
 11  3  2  0  0  0  0
 13 12  1  0  0  0  0
 14 17  1  1  0  0  0
 14 12  1  0  0  0  0
 15  3  1  6  0  0  0
 15 13  1  0  0  0  0
 16 15  1  0  0  0  0
 16 14  1  0  0  0  0
 17 29  1  6  0  0  0
 18 22  1  1  0  0  0
 18 26  1  0  0  0  0
 18 28  1  0  0  0  0
 20 24  1  1  0  0  0
 20 25  1  0  0  0  0
 20 23  1  0  0  0  0
 23 17  1  6  0  0  0
 23 26  1  0  0  0  0
 25 21  1  6  0  0  0
 25 18  1  0  0  0  0
 26 19  1  1  0  0  0
 28 27  1  0  0  0  0
 29 30  1  0  0  0  0
 31 35  1  0  0  0  0
 32 34  1  0  0  0  0
 33 36  1  0  0  0  0
 35 32  2  0  0  0  0
 36 34  2  0  0  0  0
 37 35  1  0  0  0  0
 37 33  2  0  0  0  0
 39 41  2  0  0  0  0
 40 45  1  0  0  0  0
 41 33  1  0  0  0  0
 41 44  1  0  0  0  0
 42 43  1  0  0  0  0
 43 38  2  0  0  0  0
 44 38  1  0  0  0  0
 45 39  1  0  0  0  0
 45 42  2  0  0  0  0
M  END
>  <MODEL>
3

>  <REMARK>
 VINA RESULT:      -8.1      4.327      8.568
  Name = 
  8 active torsions:
  status: ('A' for Active; 'I' for Inactive)
    1  A    between atoms: C_2  and  S_32
    2  A    between atoms: C_4  and  C_36
    3  A    between atoms: C_5  and  C_21
    4  A    between atoms: C_5  and  C_26
    5  A    between atoms: C_5  and  O_27
    6  A    between atoms: C_11  and  C_16
    7  A    between atoms: C_15  and  S_32
    8  A    between atoms: C_18  and  C_39
                            x       y       z     vdW  Elec       q    Type
                         _______ _______ _______ _____ _____    ______ ____

>  <TORSDO>
F 8

$$$$
=
 OpenBabel11062420443D

 45 50  0  0  1  0  0  0  0  0999 V2000
  187.9730  177.7990  143.6800 C   0  0  0  0  0  0  0  0  0  0  0  0
  189.2670  177.7660  144.1180 N   0  0  0  0  0  0  0  0  0  0  0  0
  189.5980  177.4470  145.4100 C   0  0  0  0  0  0  0  0  0  0  0  0
  186.0840  176.9050  146.5240 C   0  0  0  0  0  0  0  0  0  0  0  0
  185.5850  177.4060  144.4980 C   0  0  0  0  0  0  0  0  0  0  0  0
  185.9480  176.5380  147.8920 N   0  0  0  0  0  1  0  0  0  0  0  0
  187.2750  177.1580  145.8820 C   0  0  1  0  0  3  0  0  0  0  0  0
  186.9640  177.4800  144.5920 C   0  0  0  0  0  0  0  0  0  0  0  0
  184.8160  177.6460  143.3240 N   0  0  0  0  0  1  0  0  0  0  0  0
  185.0350  177.0510  145.6830 N   0  0  0  0  0  0  0  0  0  0  0  0
  188.5860  177.1280  146.3410 C   0  0  0  0  0  3  0  0  0  0  0  0
  192.7840  175.9410  146.5320 C   0  0  0  0  0  2  0  0  0  0  0  0
  191.3420  176.3150  146.7920 C   0  0  0  0  0  2  0  0  0  0  0  0
  193.0210  176.2180  145.0550 C   0  0  1  0  0  3  0  0  0  0  0  0
  191.0410  177.4200  145.8010 C   0  0  1  0  0  3  0  0  0  0  0  0
  191.9380  177.1830  144.5990 C   0  0  0  0  0  2  0  0  0  0  0  0
  194.4170  176.7890  144.7820 C   0  0  2  0  0  3  0  0  0  0  0  0
  194.9270  174.7640  141.8530 C   0  0  2  0  0  0  0  0  0  0  0  0
  194.5890  173.4990  143.8800 F   0  0  0  0  0  0  0  0  0  0  0  0
  196.1970  176.4620  143.0380 C   0  0  1  0  0  3  0  0  0  0  0  0
  196.5530  176.1140  140.6660 O   0  0  0  0  0  1  0  0  0  0  0  0
  195.8440  173.7310  141.6180 O   0  0  0  0  0  1  0  0  0  0  0  0
  195.3120  175.7700  144.0690 C   0  0  2  0  0  3  0  0  0  0  0  0
  197.4950  175.9560  143.1450 O   0  0  0  0  0  1  0  0  0  0  0  0
  195.5940  176.1170  141.6840 C   0  0  1  0  0  3  0  0  0  0  0  0
  194.4630  174.7520  143.3080 C   0  0  1  0  0  3  0  0  0  0  0  0
  192.5390  174.6540  141.6100 O   0  0  0  0  0  1  0  0  0  0  0  0
  193.7430  174.6450  140.9030 C   0  0  0  0  0  2  0  0  0  0  0  0
  195.0150  177.2170  145.9740 O   0  0  0  0  0  0  0  0  0  0  0  0
  195.3150  178.4810  145.7620 O   0  0  0  0  0  1  0  0  0  0  0  0
  187.6260  178.2480  141.9790 S   0  0  0  0  0  0  0  0  0  0  0  0
  187.5480  176.2270  140.0920 C   0  0  0  0  0  3  0  0  0  0  0  0
  188.7540  174.3450  141.7520 C   0  0  0  0  0  0  0  0  0  0  0  0
  187.7870  174.9250  139.6520 C   0  0  0  0  0  3  0  0  0  0  0  0
  187.9200  176.5860  141.3880 C   0  0  0  0  0  0  0  0  0  0  0  0
  188.3790  174.0220  140.4810 N   0  0  0  0  0  0  0  0  0  0  0  0
  188.5260  175.6460  142.2220 C   0  0  0  0  0  3  0  0  0  0  0  0
  190.6850  173.6120  144.7180 C   0  0  0  0  0  3  0  0  0  0  0  0
  189.9670  172.2570  142.0710 C   0  0  0  0  0  3  0  0  0  0  0  0
  190.7470  169.9700  142.2080 F   0  0  0  0  0  0  0  0  0  0  0  0
  189.4010  173.3380  142.6210 C   0  0  0  0  0  0  0  0  0  0  0  0
  191.4510  171.3900  143.8810 C   0  0  0  0  0  3  0  0  0  0  0  0
  191.6040  172.6510  144.6360 C   0  0  0  0  0  3  0  0  0  0  0  0
  189.3270  173.4870  144.1110 C   0  0  0  0  0  2  0  0  0  0  0  0
  190.6980  171.1930  142.7890 C   0  0  0  0  0  0  0  0  0  0  0  0
  1  2  2  0  0  0  0
  1  8  1  0  0  0  0
  2  3  1  0  0  0  0
  3 11  2  0  0  0  0
  4  6  1  0  0  0  0
  5  8  2  0  0  0  0
  5 10  1  0  0  0  0
  7 11  1  1  0  0  0
  7  4  1  0  0  0  0
  8  7  1  0  0  0  0
  9  5  1  0  0  0  0
 10  4  2  0  0  0  0
 12 13  1  0  0  0  0
 14 17  1  1  0  0  0
 14 12  1  0  0  0  0
 15  3  1  6  0  0  0
 15 13  1  0  0  0  0
 16 14  1  0  0  0  0
 16 15  1  0  0  0  0
 17 29  1  1  0  0  0
 18 22  1  6  0  0  0
 18 26  1  0  0  0  0
 20 24  1  6  0  0  0
 20 23  1  0  0  0  0
 23 17  1  6  0  0  0
 25 21  1  6  0  0  0
 25 18  1  0  0  0  0
 25 20  1  0  0  0  0
 26 19  1  1  0  0  0
 26 23  1  0  0  0  0
 28 27  1  0  0  0  0
 28 18  1  0  0  0  0
 30 29  1  0  0  0  0
 31  1  1  0  0  0  0
 32 35  1  0  0  0  0
 33 37  1  0  0  0  0
 33 41  1  0  0  0  0
 34 32  2  0  0  0  0
 34 36  1  0  0  0  0
 35 31  1  0  0  0  0
 35 37  2  0  0  0  0
 36 33  2  0  0  0  0
 39 41  2  0  0  0  0
 39 45  1  0  0  0  0
 40 45  1  0  0  0  0
 41 44  1  0  0  0  0
 42 43  1  0  0  0  0
 43 38  2  0  0  0  0
 44 38  1  0  0  0  0
 45 42  2  0  0  0  0
M  END
>  <MODEL>
4

>  <REMARK>
 VINA RESULT:      -8.1      1.477      2.155
  Name = 
  8 active torsions:
  status: ('A' for Active; 'I' for Inactive)
    1  A    between atoms: C_2  and  S_32
    2  A    between atoms: C_4  and  C_36
    3  A    between atoms: C_5  and  C_21
    4  A    between atoms: C_5  and  C_26
    5  A    between atoms: C_5  and  O_27
    6  A    between atoms: C_11  and  C_16
    7  A    between atoms: C_15  and  S_32
    8  A    between atoms: C_18  and  C_39
                            x       y       z     vdW  Elec       q    Type
                         _______ _______ _______ _____ _____    ______ ____

>  <TORSDO>
F 8

$$$$
=
 OpenBabel11062420443D

 45 50  0  0  1  0  0  0  0  0999 V2000
  195.0490  172.1890  142.6860 C   0  0  0  0  0  0  0  0  0  0  0  0
  193.7340  172.5170  142.5130 N   0  0  0  0  0  0  0  0  0  0  0  0
  192.7310  171.9580  143.2630 C   0  0  0  0  0  0  0  0  0  0  0  0
  195.0020  169.8230  145.3040 C   0  0  0  0  0  0  0  0  0  0  0  0
  196.5570  170.7080  144.1200 C   0  0  0  0  0  0  0  0  0  0  0  0
  194.3420  169.0150  146.2730 N   0  0  0  0  0  1  0  0  0  0  0  0
  194.3820  170.6900  144.4340 C   0  0  0  0  0  0  0  0  0  0  0  0
  195.3660  171.2560  143.6760 C   0  0  0  0  0  0  0  0  0  0  0  0
  197.8540  171.0220  143.6250 N   0  0  0  0  0  1  0  0  0  0  0  0
  196.3420  169.8250  145.1240 N   0  0  0  0  0  2  0  0  0  0  0  0
  193.0400  171.0120  144.2640 C   0  0  0  0  0  3  0  0  0  0  0  0
  189.4060  173.3360  144.1120 C   0  0  0  0  0  2  0  0  0  0  0  0
  190.4640  172.2670  144.2620 C   0  0  0  0  0  2  0  0  0  0  0  0
  190.0560  174.4470  143.3010 C   0  0  1  0  0  3  0  0  0  0  0  0
  191.3200  172.3870  143.0180 C   0  0  1  0  0  3  0  0  0  0  0  0
  191.2480  173.8390  142.5800 C   0  0  0  0  0  2  0  0  0  0  0  0
  189.0850  175.0950  142.3090 C   0  0  2  0  0  3  0  0  0  0  0  0
  186.7060  177.7630  141.9120 C   0  0  2  0  0  0  0  0  0  0  0  0
  188.9930  178.4110  141.4930 F   0  0  0  0  0  0  0  0  0  0  0  0
  187.3790  176.2850  143.7190 C   0  0  1  0  0  3  0  0  0  0  0  0
  185.1440  177.2240  143.6870 O   0  0  0  0  0  1  0  0  0  0  0  0
  186.6780  179.0410  142.4880 O   0  0  0  0  0  1  0  0  0  0  0  0
  188.5910  176.4560  142.8100 C   0  0  2  0  0  3  0  0  0  0  0  0
  187.5350  177.1060  144.8390 O   0  0  0  0  0  1  0  0  0  0  0  0
  186.1810  176.7270  142.8910 C   0  0  1  0  0  3  0  0  0  0  0  0
  188.1430  177.3280  141.6380 C   0  0  1  0  0  3  0  0  0  0  0  0
  186.6910  177.5400  139.5210 O   0  0  0  0  0  1  0  0  0  0  0  0
  185.8760  177.7410  140.6360 C   0  0  0  0  0  2  0  0  0  0  0  0
  188.0010  174.2440  142.0550 O   0  0  0  0  0  0  0  0  0  0  0  0
  188.1920  173.8180  140.8250 O   0  0  0  0  0  1  0  0  0  0  0  0
  196.2940  172.9510  141.6460 S   0  0  0  0  0  0  0  0  0  0  0  0
  197.2550  175.4200  142.4400 C   0  0  0  0  0  3  0  0  0  0  0  0
  195.0240  176.0220  143.9940 C   0  0  0  0  0  0  0  0  0  0  0  0
  197.1650  176.6250  143.1370 C   0  0  0  0  0  3  0  0  0  0  0  0
  196.2070  174.5040  142.5290 C   0  0  0  0  0  0  0  0  0  0  0  0
  196.0650  176.8980  143.8890 N   0  0  0  0  0  0  0  0  0  0  0  0
  195.0870  174.8030  143.3050 C   0  0  0  0  0  3  0  0  0  0  0  0
  192.8300  175.1700  146.7360 C   0  0  0  0  0  3  0  0  0  0  0  0
  192.7820  176.9410  144.2420 C   0  0  0  0  0  3  0  0  0  0  0  0
  190.7790  178.2930  144.3690 F   0  0  0  0  0  0  0  0  0  0  0  0
  193.8410  176.3570  144.8160 C   0  0  0  0  0  0  0  0  0  0  0  0
  190.9480  176.5740  145.8960 C   0  0  0  0  0  3  0  0  0  0  0  0
  191.5280  175.4010  146.5810 C   0  0  0  0  0  3  0  0  0  0  0  0
  193.8810  176.1350  146.2980 C   0  0  0  0  0  2  0  0  0  0  0  0
  191.5090  177.2870  144.9070 C   0  0  0  0  0  0  0  0  0  0  0  0
  1  8  1  0  0  0  0
  2  1  2  0  0  0  0
  2  3  1  0  0  0  0
  3 11  2  0  0  0  0
  4  6  1  0  0  0  0
  5 10  1  0  0  0  0
  7  4  2  0  0  0  0
  8  5  2  0  0  0  0
  8  7  1  0  0  0  0
  9  5  1  0  0  0  0
 10  4  1  0  0  0  0
 11  7  1  0  0  0  0
 12 13  1  0  0  0  0
 14 17  1  6  0  0  0
 14 12  1  0  0  0  0
 15  3  1  1  0  0  0
 15 13  1  0  0  0  0
 16 15  1  0  0  0  0
 16 14  1  0  0  0  0
 17 29  1  1  0  0  0
 18 22  1  1  0  0  0
 18 25  1  0  0  0  0
 20 24  1  1  0  0  0
 23 17  1  6  0  0  0
 23 20  1  0  0  0  0
 25 21  1  1  0  0  0
 25 20  1  0  0  0  0
 26 19  1  1  0  0  0
 26 18  1  0  0  0  0
 26 23  1  0  0  0  0
 27 28  1  0  0  0  0
 28 18  1  0  0  0  0
 30 29  1  0  0  0  0
 31 35  1  0  0  0  0
 31  1  1  0  0  0  0
 32 35  2  0  0  0  0
 32 34  1  0  0  0  0
 33 41  1  0  0  0  0
 34 36  2  0  0  0  0
 35 37  1  0  0  0  0
 36 33  1  0  0  0  0
 37 33  2  0  0  0  0
 39 41  2  0  0  0  0
 39 45  1  0  0  0  0
 40 45  1  0  0  0  0
 41 44  1  0  0  0  0
 42 43  1  0  0  0  0
 43 38  2  0  0  0  0
 44 38  1  0  0  0  0
 45 42  2  0  0  0  0
M  END
>  <MODEL>
5

>  <REMARK>
 VINA RESULT:      -8.1      5.118      8.940
  Name = 
  8 active torsions:
  status: ('A' for Active; 'I' for Inactive)
    1  A    between atoms: C_2  and  S_32
    2  A    between atoms: C_4  and  C_36
    3  A    between atoms: C_5  and  C_21
    4  A    between atoms: C_5  and  C_26
    5  A    between atoms: C_5  and  O_27
    6  A    between atoms: C_11  and  C_16
    7  A    between atoms: C_15  and  S_32
    8  A    between atoms: C_18  and  C_39
                            x       y       z     vdW  Elec       q    Type
                         _______ _______ _______ _____ _____    ______ ____

>  <TORSDO>
F 8

$$$$
=
 OpenBabel11062420443D

 45 50  0  0  1  0  0  0  0  0999 V2000
  193.1130  173.5790  141.3500 C   0  0  0  0  0  0  0  0  0  0  0  0
  191.9280  174.2580  141.3330 N   0  0  0  0  0  0  0  0  0  0  0  0
  190.7160  173.6240  141.4290 C   0  0  0  0  0  0  0  0  0  0  0  0
  192.1590  170.1990  141.6960 C   0  0  0  0  0  0  0  0  0  0  0  0
  194.0460  171.2090  141.5450 C   0  0  0  0  0  0  0  0  0  0  0  0
  191.1940  169.1590  141.8160 N   0  0  0  0  0  1  0  0  0  0  0  0
  191.8730  171.5410  141.5830 C   0  0  0  0  0  0  0  0  0  0  0  0
  193.0710  172.1890  141.4840 C   0  0  0  0  0  0  0  0  0  0  0  0
  195.4510  171.4280  141.4970 N   0  0  0  0  0  1  0  0  0  0  0  0
  193.4930  169.9800  141.6770 N   0  0  0  0  0  2  0  0  0  0  0  0
  190.6610  172.2190  141.5600 C   0  0  0  0  0  3  0  0  0  0  0  0
  187.2780  174.5890  142.3910 C   0  0  0  0  0  2  0  0  0  0  0  0
  188.2380  173.6200  141.7400 C   0  0  0  0  0  2  0  0  0  0  0  0
  188.1470  175.6250  143.0870 C   0  0  1  0  0  3  0  0  0  0  0  0
  189.4670  174.4460  141.4170 C   0  0  1  0  0  3  0  0  0  0  0  0
  189.5250  175.5590  142.4470 C   0  0  0  0  0  2  0  0  0  0  0  0
  187.5640  177.0390  142.9940 C   0  0  2  0  0  3  0  0  0  0  0  0
  185.4370  178.4340  145.5370 C   0  0  2  0  0  0  0  0  0  0  0  0
  185.7070  176.0400  145.6810 F   0  0  0  0  0  0  0  0  0  0  0  0
  185.4290  178.3600  143.1090 C   0  0  1  0  0  3  0  0  0  0  0  0
  184.3310  180.1820  144.2710 O   0  0  0  0  0  1  0  0  0  0  0  0
  184.1300  178.0910  145.9090 O   0  0  0  0  0  1  0  0  0  0  0  0
  186.1540  177.1070  143.5880 C   0  0  2  0  0  3  0  0  0  0  0  0
  184.1240  178.0160  142.7460 O   0  0  0  0  0  1  0  0  0  0  0  0
  185.4250  179.3110  144.2970 C   0  0  1  0  0  3  0  0  0  0  0  0
  186.2190  177.1940  145.1130 C   0  0  1  0  0  3  0  0  0  0  0  0
  186.1920  178.3490  147.8150 O   0  0  0  0  0  1  0  0  0  0  0  0
  186.1380  179.1570  146.6790 C   0  0  0  0  0  2  0  0  0  0  0  0
  187.5580  177.4810  141.6650 O   0  0  0  0  0  0  0  0  0  0  0  0
  188.4900  178.4090  141.6160 O   0  0  0  0  0  1  0  0  0  0  0  0
  194.6530  174.4850  141.1970 S   0  0  0  0  0  0  0  0  0  0  0  0
  195.9030  174.5970  143.6620 C   0  0  0  0  0  3  0  0  0  0  0  0
  193.6690  175.6100  144.9810 C   0  0  0  0  0  0  0  0  0  0  0  0
  195.9360  174.8750  145.0290 C   0  0  0  0  0  3  0  0  0  0  0  0
  194.7260  174.8310  142.9500 C   0  0  0  0  0  0  0  0  0  0  0  0
  194.8330  175.3700  145.6520 N   0  0  0  0  0  0  0  0  0  0  0  0
  193.6060  175.3400  143.6070 C   0  0  0  0  0  3  0  0  0  0  0  0
  191.2560  175.2900  147.6510 C   0  0  0  0  0  3  0  0  0  0  0  0
  191.5390  176.7910  145.0000 C   0  0  0  0  0  3  0  0  0  0  0  0
  189.7010  178.3600  144.8720 F   0  0  0  0  0  0  0  0  0  0  0  0
  192.4930  176.1560  145.6920 C   0  0  0  0  0  0  0  0  0  0  0  0
  189.5940  176.7990  146.5650 C   0  0  0  0  0  3  0  0  0  0  0  0
  189.9980  175.6460  147.3940 C   0  0  0  0  0  3  0  0  0  0  0  0
  192.4320  176.0840  147.1880 C   0  0  0  0  0  2  0  0  0  0  0  0
  190.2820  177.3410  145.5490 C   0  0  0  0  0  0  0  0  0  0  0  0
  1  8  1  0  0  0  0
  2  1  2  0  0  0  0
  2  3  1  0  0  0  0
  3 11  2  0  0  0  0
  4  6  1  0  0  0  0
  5 10  1  0  0  0  0
  7  4  2  0  0  0  0
  8  5  2  0  0  0  0
  8  7  1  0  0  0  0
  9  5  1  0  0  0  0
 10  4  1  0  0  0  0
 11  7  1  0  0  0  0
 12 14  1  0  0  0  0
 13 12  1  0  0  0  0
 14 17  1  6  0  0  0
 15  3  1  1  0  0  0
 15 13  1  0  0  0  0
 15 16  1  0  0  0  0
 16 14  1  0  0  0  0
 17 29  1  6  0  0  0
 18 22  1  1  0  0  0
 18 28  1  0  0  0  0
 20 24  1  1  0  0  0
 20 23  1  0  0  0  0
 20 25  1  0  0  0  0
 23 17  1  6  0  0  0
 23 26  1  0  0  0  0
 25 21  1  1  0  0  0
 25 18  1  0  0  0  0
 26 18  1  0  0  0  0
 26 19  1  1  0  0  0
 28 27  1  0  0  0  0
 30 29  1  0  0  0  0
 31  1  1  0  0  0  0
 31 35  1  0  0  0  0
 32 34  1  0  0  0  0
 33 36  1  0  0  0  0
 33 41  1  0  0  0  0
 34 36  2  0  0  0  0
 35 37  1  0  0  0  0
 35 32  2  0  0  0  0
 37 33  2  0  0  0  0
 39 45  1  0  0  0  0
 39 41  2  0  0  0  0
 40 45  1  0  0  0  0
 41 44  1  0  0  0  0
 42 43  1  0  0  0  0
 43 38  2  0  0  0  0
 44 38  1  0  0  0  0
 45 42  2  0  0  0  0
M  END
>  <MODEL>
6

>  <REMARK>
 VINA RESULT:      -8.0      4.782      8.971
  Name = 
  8 active torsions:
  status: ('A' for Active; 'I' for Inactive)
    1  A    between atoms: C_2  and  S_32
    2  A    between atoms: C_4  and  C_36
    3  A    between atoms: C_5  and  C_21
    4  A    between atoms: C_5  and  C_26
    5  A    between atoms: C_5  and  O_27
    6  A    between atoms: C_11  and  C_16
    7  A    between atoms: C_15  and  S_32
    8  A    between atoms: C_18  and  C_39
                            x       y       z     vdW  Elec       q    Type
                         _______ _______ _______ _____ _____    ______ ____

>  <TORSDO>
F 8

$$$$
=
 OpenBabel11062420443D

 45 50  0  0  1  0  0  0  0  0999 V2000
  187.5700  177.9070  143.7070 C   0  0  0  0  0  0  0  0  0  0  0  0
  188.8730  177.5830  143.9630 N   0  0  0  0  0  0  0  0  0  0  0  0
  189.2830  177.0860  145.1740 C   0  0  0  0  0  0  0  0  0  0  0  0
  185.8890  177.1310  146.7120 C   0  0  0  0  0  0  0  0  0  0  0  0
  185.2670  177.9080  144.8120 C   0  0  0  0  0  0  0  0  0  0  0  0
  185.8450  176.6700  148.0580 N   0  0  0  0  0  1  0  0  0  0  0  0
  187.0220  177.2080  145.9340 C   0  0  0  0  0  0  0  0  0  0  0  0
  186.6330  177.7050  144.7230 C   0  0  0  0  0  0  0  0  0  0  0  0
  184.4290  178.4010  143.7720 N   0  0  0  0  0  1  0  0  0  0  0  0
  184.8000  177.5560  146.0330 N   0  0  0  0  0  2  0  0  0  0  0  0
  188.3450  176.8820  146.2090 C   0  0  0  0  0  3  0  0  0  0  0  0
  192.2480  175.7190  146.9100 C   0  0  0  0  0  2  0  0  0  0  0  0
  191.1190  176.7210  146.8260 C   0  0  0  0  0  2  0  0  0  0  0  0
  191.9860  174.7090  145.8030 C   0  0  1  0  0  3  0  0  0  0  0  0
  190.7260  176.7440  145.3630 C   0  0  1  0  0  3  0  0  0  0  0  0
  191.0490  175.3700  144.8050 C   0  0  0  0  0  2  0  0  0  0  0  0
  193.2750  174.2380  145.1210 C   0  0  2  0  0  3  0  0  0  0  0  0
  196.2720  175.5480  143.6270 C   0  0  2  0  0  0  0  0  0  0  0  0
  195.3170  176.9680  145.3290 F   0  0  0  0  0  0  0  0  0  0  0  0
  194.0720  174.8980  142.8310 C   0  0  1  0  0  3  0  0  0  0  0  0
  195.9780  174.8110  141.3360 O   0  0  0  0  0  1  0  0  0  0  0  0
  196.5150  176.7930  143.0310 O   0  0  0  0  0  1  0  0  0  0  0  0
  193.9040  175.3510  144.2770 C   0  0  2  0  0  3  0  0  0  0  0  0
  193.6570  175.9300  141.9840 O   0  0  0  0  0  1  0  0  0  0  0  0
  195.5580  174.6230  142.6570 C   0  0  1  0  0  3  0  0  0  0  0  0
  195.3010  175.6910  144.7960 C   0  0  1  0  0  3  0  0  0  0  0  0
  197.3560  173.9880  145.0970 O   0  0  0  0  0  1  0  0  0  0  0  0
  197.5820  174.9160  144.0790 C   0  0  0  0  0  2  0  0  0  0  0  0
  193.0280  173.1060  144.3330 O   0  0  0  0  0  0  0  0  0  0  0  0
  193.5170  172.1020  145.0300 O   0  0  0  0  0  1  0  0  0  0  0  0
  187.1230  178.5720  142.1040 S   0  0  0  0  0  0  0  0  0  0  0  0
  187.0660  176.8220  139.9630 C   0  0  0  0  0  3  0  0  0  0  0  0
  188.6270  174.8940  141.2300 C   0  0  0  0  0  0  0  0  0  0  0  0
  187.3940  175.6250  139.3250 C   0  0  0  0  0  3  0  0  0  0  0  0
  187.5280  177.0480  141.2600 C   0  0  0  0  0  0  0  0  0  0  0  0
  188.1590  174.6980  139.9620 N   0  0  0  0  0  0  0  0  0  0  0  0
  188.3120  176.0860  141.8960 C   0  0  0  0  0  3  0  0  0  0  0  0
  191.0720  172.2500  140.9310 C   0  0  0  0  0  3  0  0  0  0  0  0
  188.9830  173.2080  142.9500 C   0  0  0  0  0  3  0  0  0  0  0  0
  189.3150  171.9270  144.9770 F   0  0  0  0  0  0  0  0  0  0  0  0
  189.4610  173.8660  141.8870 C   0  0  0  0  0  0  0  0  0  0  0  0
  190.4710  171.2100  143.1170 C   0  0  0  0  0  3  0  0  0  0  0  0
  190.9260  171.1810  141.7110 C   0  0  0  0  0  3  0  0  0  0  0  0
  190.8700  173.6450  141.4230 C   0  0  0  0  0  2  0  0  0  0  0  0
  189.6630  172.1190  143.6820 C   0  0  0  0  0  0  0  0  0  0  0  0
  1  2  2  0  0  0  0
  1  8  1  0  0  0  0
  2  3  1  0  0  0  0
  3 11  2  0  0  0  0
  4  6  1  0  0  0  0
  5 10  1  0  0  0  0
  7 11  1  0  0  0  0
  7  4  2  0  0  0  0
  8  5  2  0  0  0  0
  8  7  1  0  0  0  0
  9  5  1  0  0  0  0
 10  4  1  0  0  0  0
 13 12  1  0  0  0  0
 14 17  1  6  0  0  0
 14 12  1  0  0  0  0
 15  3  1  1  0  0  0
 15 13  1  0  0  0  0
 16 15  1  0  0  0  0
 16 14  1  0  0  0  0
 17 29  1  6  0  0  0
 18 22  1  6  0  0  0
 18 28  1  0  0  0  0
 18 26  1  0  0  0  0
 20 24  1  6  0  0  0
 20 23  1  0  0  0  0
 23 26  1  0  0  0  0
 23 17  1  1  0  0  0
 25 21  1  6  0  0  0
 25 20  1  0  0  0  0
 25 18  1  0  0  0  0
 26 19  1  6  0  0  0
 28 27  1  0  0  0  0
 29 30  1  0  0  0  0
 31  1  1  0  0  0  0
 32 35  1  0  0  0  0
 33 41  1  0  0  0  0
 33 37  1  0  0  0  0
 34 36  1  0  0  0  0
 34 32  2  0  0  0  0
 35 37  2  0  0  0  0
 35 31  1  0  0  0  0
 36 33  2  0  0  0  0
 38 44  1  0  0  0  0
 38 43  2  0  0  0  0
 39 45  1  0  0  0  0
 41 39  2  0  0  0  0
 42 45  2  0  0  0  0
 43 42  1  0  0  0  0
 44 41  1  0  0  0  0
 45 40  1  0  0  0  0
M  END
>  <MODEL>
7

>  <REMARK>
 VINA RESULT:      -8.0      1.331      1.994
  Name = 
  8 active torsions:
  status: ('A' for Active; 'I' for Inactive)
    1  A    between atoms: C_2  and  S_32
    2  A    between atoms: C_4  and  C_36
    3  A    between atoms: C_5  and  C_21
    4  A    between atoms: C_5  and  C_26
    5  A    between atoms: C_5  and  O_27
    6  A    between atoms: C_11  and  C_16
    7  A    between atoms: C_15  and  S_32
    8  A    between atoms: C_18  and  C_39
                            x       y       z     vdW  Elec       q    Type
                         _______ _______ _______ _____ _____    ______ ____

>  <TORSDO>
F 8

$$$$
=
 OpenBabel11062420443D

 45 50  0  0  1  0  0  0  0  0999 V2000
  187.3930  177.5370  142.8290 C   0  0  0  0  0  0  0  0  0  0  0  0
  188.5360  177.4020  143.5650 N   0  0  0  0  0  2  0  0  0  0  0  0
  188.5590  177.5660  144.9260 C   0  0  0  0  0  0  0  0  0  0  0  0
  184.9180  178.2980  145.2280 C   0  0  0  0  0  0  0  0  0  0  0  0
  184.9020  178.0370  143.0990 C   0  0  0  0  0  0  0  0  0  0  0  0
  184.4750  178.5530  146.5570 N   0  0  0  0  0  1  0  0  0  0  0  0
  186.2120  178.0060  144.8630 C   0  0  0  0  0  0  0  0  0  0  0  0
  186.2090  177.8410  143.5070 C   0  0  0  0  0  0  0  0  0  0  0  0
  184.4250  177.9450  141.7600 N   0  0  0  0  0  1  0  0  0  0  0  0
  184.0990  178.3180  144.1520 N   0  0  0  0  0  0  0  0  0  0  0  0
  187.3700  177.8780  145.6210 C   0  0  0  0  0  3  0  0  0  0  0  0
  191.1880  175.7340  146.7730 C   0  0  0  0  0  2  0  0  0  0  0  0
  189.7780  176.2720  146.6790 C   0  0  0  0  0  2  0  0  0  0  0  0
  191.8040  175.9550  145.4000 C   0  0  1  0  0  3  0  0  0  0  0  0
  189.8520  177.3850  145.6540 C   0  0  1  0  0  3  0  0  0  0  0  0
  190.9800  177.0260  144.7040 C   0  0  0  0  0  2  0  0  0  0  0  0
  193.2800  176.3600  145.4780 C   0  0  2  0  0  3  0  0  0  0  0  0
  193.6340  174.1380  142.6720 C   0  0  2  0  0  0  0  0  0  0  0  0
  193.6550  173.0310  144.8160 F   0  0  0  0  0  0  0  0  0  0  0  0
  194.8680  176.0340  143.5570 C   0  0  1  0  0  3  0  0  0  0  0  0
  194.9770  175.5120  141.1930 O   0  0  0  0  0  1  0  0  0  0  0  0
  194.6110  173.1700  142.4050 O   0  0  0  0  0  1  0  0  0  0  0  0
  194.1780  175.3630  144.7400 C   0  0  2  0  0  3  0  0  0  0  0  0
  196.2120  175.6500  143.5410 O   0  0  0  0  0  1  0  0  0  0  0  0
  194.1470  175.5240  142.3190 C   0  0  1  0  0  3  0  0  0  0  0  0
  193.3460  174.2150  144.1690 C   0  0  1  0  0  3  0  0  0  0  0  0
  191.4810  174.9180  141.9450 O   0  0  0  0  0  1  0  0  0  0  0  0
  192.3650  173.8380  141.8870 C   0  0  0  0  0  2  0  0  0  0  0  0
  193.6840  176.4890  146.8130 O   0  0  0  0  0  0  0  0  0  0  0  0
  194.5520  177.4780  146.8060 O   0  0  0  0  0  1  0  0  0  0  0  0
  187.4550  177.3270  141.0500 S   0  0  0  0  0  0  0  0  0  0  0  0
  187.5850  174.8910  142.3550 C   0  0  0  0  0  3  0  0  0  0  0  0
  188.7820  173.5720  140.2140 C   0  0  0  0  0  0  0  0  0  0  0  0
  187.9140  173.5380  142.4340 C   0  0  0  0  0  3  0  0  0  0  0  0
  187.8660  175.5910  141.1810 C   0  0  0  0  0  0  0  0  0  0  0  0
  188.4970  172.9140  141.3750 N   0  0  0  0  0  0  0  0  0  0  0  0
  188.4640  174.9330  140.1060 C   0  0  0  0  0  3  0  0  0  0  0  0
  190.0320  173.6550  136.8250 C   0  0  0  0  0  3  0  0  0  0  0  0
  189.1140  171.5710  138.8670 C   0  0  0  0  0  3  0  0  0  0  0  0
  189.6490  169.3950  137.9510 F   0  0  0  0  0  0  0  0  0  0  0  0
  189.4110  172.8580  139.0830 C   0  0  0  0  0  0  0  0  0  0  0  0
  189.8610  171.1860  136.5160 C   0  0  0  0  0  3  0  0  0  0  0  0
  189.8110  172.5900  136.0570 C   0  0  0  0  0  3  0  0  0  0  0  0
  190.4510  173.5510  138.2540 C   0  0  0  0  0  2  0  0  0  0  0  0
  189.6090  170.7350  137.7540 C   0  0  0  0  0  0  0  0  0  0  0  0
  1  8  2  0  0  0  0
  1  2  1  0  0  0  0
  2  3  1  0  0  0  0
  3 11  2  0  0  0  0
  4  6  1  0  0  0  0
  5  8  1  0  0  0  0
  5 10  2  0  0  0  0
  7  4  2  0  0  0  0
  7 11  1  0  0  0  0
  8  7  1  0  0  0  0
  9  5  1  0  0  0  0
 10  4  1  0  0  0  0
 13 12  1  0  0  0  0
 14 17  1  1  0  0  0
 14 12  1  0  0  0  0
 15  3  1  6  0  0  0
 15 13  1  0  0  0  0
 16 14  1  0  0  0  0
 16 15  1  0  0  0  0
 17 29  1  1  0  0  0
 18 22  1  6  0  0  0
 18 26  1  0  0  0  0
 20 24  1  6  0  0  0
 20 23  1  0  0  0  0
 23 17  1  6  0  0  0
 25 21  1  6  0  0  0
 25 18  1  0  0  0  0
 25 20  1  0  0  0  0
 26 23  1  0  0  0  0
 26 19  1  1  0  0  0
 28 27  1  0  0  0  0
 28 18  1  0  0  0  0
 30 29  1  0  0  0  0
 31 35  1  0  0  0  0
 31  1  1  0  0  0  0
 32 34  1  0  0  0  0
 33 36  1  0  0  0  0
 35 32  2  0  0  0  0
 36 34  2  0  0  0  0
 37 33  2  0  0  0  0
 37 35  1  0  0  0  0
 38 44  1  0  0  0  0
 39 41  2  0  0  0  0
 41 33  1  0  0  0  0
 42 45  2  0  0  0  0
 43 42  1  0  0  0  0
 43 38  2  0  0  0  0
 44 41  1  0  0  0  0
 45 40  1  0  0  0  0
 45 39  1  0  0  0  0
M  END
>  <MODEL>
8

>  <REMARK>
 VINA RESULT:      -8.0      2.583      3.466
  Name = 
  8 active torsions:
  status: ('A' for Active; 'I' for Inactive)
    1  A    between atoms: C_2  and  S_32
    2  A    between atoms: C_4  and  C_36
    3  A    between atoms: C_5  and  C_21
    4  A    between atoms: C_5  and  C_26
    5  A    between atoms: C_5  and  O_27
    6  A    between atoms: C_11  and  C_16
    7  A    between atoms: C_15  and  S_32
    8  A    between atoms: C_18  and  C_39
                            x       y       z     vdW  Elec       q    Type
                         _______ _______ _______ _____ _____    ______ ____

>  <TORSDO>
F 8

$$$$
=
 OpenBabel11062420443D

 45 50  0  0  1  0  0  0  0  0999 V2000
  190.9990  170.9960  142.1370 C   0  0  0  0  0  0  0  0  0  0  0  0
  190.5680  171.8810  143.0850 N   0  0  0  0  0  2  0  0  0  0  0  0
  189.7220  172.9190  142.7910 C   0  0  0  0  0  0  0  0  0  0  0  0
  189.4310  172.0900  139.1700 C   0  0  0  0  0  0  0  0  0  0  0  0
  190.7550  170.4720  139.6480 C   0  0  0  0  0  0  0  0  0  0  0  0
  188.5950  172.9720  138.4280 N   0  0  0  0  0  1  0  0  0  0  0  0
  189.6940  172.1890  140.5180 C   0  0  0  0  0  0  0  0  0  0  0  0
  190.5390  171.1630  140.8280 C   0  0  0  0  0  0  0  0  0  0  0  0
  191.5630  169.3090  139.5010 N   0  0  0  0  0  1  0  0  0  0  0  0
  190.0750  171.0350  138.6230 N   0  0  0  0  0  0  0  0  0  0  0  0
  189.2550  173.1000  141.4720 C   0  0  0  0  0  3  0  0  0  0  0  0
  190.0760  174.9120  145.8870 C   0  0  0  0  0  2  0  0  0  0  0  0
  190.0500  173.5770  145.1770 C   0  0  0  0  0  2  0  0  0  0  0  0
  190.0520  175.9630  144.7870 C   0  0  1  0  0  3  0  0  0  0  0  0
  189.2880  173.8320  143.8930 C   0  0  1  0  0  3  0  0  0  0  0  0
  189.5200  175.2880  143.5330 C   0  0  0  0  0  2  0  0  0  0  0  0
  189.2020  177.1820  145.1590 C   0  0  2  0  0  3  0  0  0  0  0  0
  185.9700  178.1020  146.4420 C   0  0  2  0  0  0  0  0  0  0  0  0
  186.8440  176.0460  147.3540 F   0  0  0  0  0  0  0  0  0  0  0  0
  186.8980  177.6100  144.2520 C   0  0  1  0  0  3  0  0  0  0  0  0
  184.9680  179.0620  144.4540 O   0  0  0  0  0  1  0  0  0  0  0  0
  184.7790  177.3670  146.4990 O   0  0  0  0  0  1  0  0  0  0  0  0
  187.7170  176.8220  145.2680 C   0  0  2  0  0  3  0  0  0  0  0  0
  185.9840  176.7470  143.6410 O   0  0  0  0  0  1  0  0  0  0  0  0
  186.1730  178.6810  145.0530 C   0  0  1  0  0  3  0  0  0  0  0  0
  187.1770  177.1900  146.6490 C   0  0  1  0  0  3  0  0  0  0  0  0
  186.9710  179.0480  148.4100 O   0  0  0  0  0  1  0  0  0  0  0  0
  185.9500  179.2210  147.4740 C   0  0  0  0  0  2  0  0  0  0  0  0
  189.3890  178.2130  144.2300 O   0  0  0  0  0  0  0  0  0  0  0  0
  190.6950  178.3500  144.1400 O   0  0  0  0  0  1  0  0  0  0  0  0
  192.1240  169.6800  142.6020 S   0  0  0  0  0  0  0  0  0  0  0  0
  194.5310  170.4160  141.4560 C   0  0  0  0  0  3  0  0  0  0  0  0
  194.8480  172.6660  143.0670 C   0  0  0  0  0  0  0  0  0  0  0  0
  195.6460  171.2450  141.3270 C   0  0  0  0  0  3  0  0  0  0  0  0
  193.5630  170.7240  142.4130 C   0  0  0  0  0  0  0  0  0  0  0  0
  195.7790  172.3400  142.1240 N   0  0  0  0  0  0  0  0  0  0  0  0
  193.7180  171.8510  143.2200 C   0  0  0  0  0  3  0  0  0  0  0  0
  193.7150  174.6800  145.8450 C   0  0  0  0  0  3  0  0  0  0  0  0
  195.4650  175.0040  143.3570 C   0  0  0  0  0  3  0  0  0  0  0  0
  196.5430  177.1650  143.5220 F   0  0  0  0  0  0  0  0  0  0  0  0
  195.0250  173.8670  143.9100 C   0  0  0  0  0  0  0  0  0  0  0  0
  194.8610  176.7440  145.0410 C   0  0  0  0  0  3  0  0  0  0  0  0
  193.7740  176.0040  145.7130 C   0  0  0  0  0  3  0  0  0  0  0  0
  194.8100  173.7720  145.3910 C   0  0  0  0  0  2  0  0  0  0  0  0
  195.6410  176.3000  144.0450 C   0  0  0  0  0  0  0  0  0  0  0  0
  1 31  1  0  0  0  0
  1  2  1  0  0  0  0
  3  2  1  0  0  0  0
  4  7  2  0  0  0  0
  5  8  1  0  0  0  0
  6  4  1  0  0  0  0
  7  8  1  0  0  0  0
  7 11  1  0  0  0  0
  8  1  2  0  0  0  0
  9  5  1  0  0  0  0
 10  4  1  0  0  0  0
 10  5  2  0  0  0  0
 11  3  2  0  0  0  0
 13 12  1  0  0  0  0
 14 17  1  1  0  0  0
 14 12  1  0  0  0  0
 15  3  1  6  0  0  0
 15 13  1  0  0  0  0
 16 15  1  0  0  0  0
 16 14  1  0  0  0  0
 17 29  1  6  0  0  0
 18 22  1  1  0  0  0
 18 26  1  0  0  0  0
 18 28  1  0  0  0  0
 20 24  1  1  0  0  0
 20 25  1  0  0  0  0
 20 23  1  0  0  0  0
 23 17  1  1  0  0  0
 23 26  1  0  0  0  0
 25 21  1  6  0  0  0
 25 18  1  0  0  0  0
 26 19  1  6  0  0  0
 28 27  1  0  0  0  0
 30 29  1  0  0  0  0
 32 35  1  0  0  0  0
 33 37  1  0  0  0  0
 33 41  1  0  0  0  0
 34 32  2  0  0  0  0
 34 36  1  0  0  0  0
 35 31  1  0  0  0  0
 35 37  2  0  0  0  0
 36 33  2  0  0  0  0
 39 41  2  0  0  0  0
 39 45  1  0  0  0  0
 40 45  1  0  0  0  0
 41 44  1  0  0  0  0
 42 43  1  0  0  0  0
 43 38  2  0  0  0  0
 44 38  1  0  0  0  0
 45 42  2  0  0  0  0
M  END
>  <MODEL>
9

>  <REMARK>
 VINA RESULT:      -7.9      4.175      8.428
  Name = 
  8 active torsions:
  status: ('A' for Active; 'I' for Inactive)
    1  A    between atoms: C_2  and  S_32
    2  A    between atoms: C_4  and  C_36
    3  A    between atoms: C_5  and  C_21
    4  A    between atoms: C_5  and  C_26
    5  A    between atoms: C_5  and  O_27
    6  A    between atoms: C_11  and  C_16
    7  A    between atoms: C_15  and  S_32
    8  A    between atoms: C_18  and  C_39
                            x       y       z     vdW  Elec       q    Type
                         _______ _______ _______ _____ _____    ______ ____

>  <TORSDO>
F 8

$$$$
