=
 OpenBabel11062420273D

 53 57  0  0  1  0  0  0  0  0999 V2000
  191.3110  171.2840  140.4040 C   0  0  1  0  0  3  0  0  0  0  0  0
  190.3810  171.5960  141.5730 C   0  0  0  0  0  2  0  0  0  0  0  0
  191.8360  172.5070  139.8020 N   0  0  0  0  0  2  0  0  0  0  0  0
  190.3000  173.1080  141.8220 C   0  0  1  0  0  3  0  0  0  0  0  0
  190.0280  173.8560  140.6530 O   0  0  0  0  0  0  0  0  0  0  0  0
  190.6950  173.3720  139.4960 C   0  0  0  0  0  2  0  0  0  0  0  0
  189.2700  173.4520  142.9000 C   0  0  2  0  0  3  0  0  0  0  0  0
  188.1780  172.5750  142.8580 O   0  0  0  0  0  1  0  0  0  0  0  0
  188.8310  174.8440  142.8030 N   0  0  0  0  0  0  0  0  0  0  0  0
  189.7210  175.9140  143.1470 C   0  0  0  0  0  3  0  0  0  0  0  0
  189.7690  176.4980  144.3460 C   0  0  0  0  0  3  0  0  0  0  0  0
  188.9680  176.0720  145.5430 C   0  0  1  0  0  3  0  0  0  0  0  0
  190.4480  175.9030  147.4210 O   0  0  0  0  0  1  0  0  0  0  0  0
  189.7580  175.1430  146.4700 C   0  0  0  0  0  3  0  0  0  0  0  0
  188.9070  174.2450  147.1200 O   0  0  0  0  0  1  0  0  0  0  0  0
  188.2340  177.2230  146.2560 C   0  0  0  0  0  2  0  0  0  0  0  0
  184.2340  178.6190  145.3500 C   0  0  0  0  0  2  0  0  0  0  0  0
  186.4560  178.9980  147.9220 C   0  0  0  0  0  1  0  0  0  0  0  0
  186.7230  178.6430  144.8820 C   0  0  0  0  0  2  0  0  0  0  0  0
  185.9030  177.8220  147.1390 C   0  0  1  0  0  3  0  0  0  0  0  0
  184.4390  178.1070  146.7750 C   0  0  0  0  0  2  0  0  0  0  0  0
  186.7580  177.4880  145.8980 C   0  0  2  0  0  0  0  0  0  0  0  0
  185.4260  179.4600  144.8970 C   0  0  0  0  0  2  0  0  0  0  0  0
  186.2370  176.3590  145.2580 O   0  0  0  0  0  1  0  0  0  0  0  0
  187.4840  175.1230  142.3180 C   0  0  0  0  0  2  0  0  0  0  0  0
  185.4640  177.3310  141.9140 C   0  0  0  0  0  1  0  0  0  0  0  0
  187.5230  176.0290  141.1770 N   0  0  0  0  0  2  0  0  0  0  0  0
  186.6820  177.8200  139.9050 N   0  0  0  0  0  2  0  0  0  0  0  0
  186.5750  177.0820  140.9590 C   0  0  0  0  0  0  0  0  0  0  0  0
  192.4520  170.4120  140.8960 C   0  0  0  0  0  2  0  0  0  0  0  0
  193.2450  171.1110  141.8930 N   0  0  0  0  0  2  0  0  0  0  0  0
  194.5840  170.5350  141.9050 C   0  0  0  0  0  2  0  0  0  0  0  0
  195.4670  171.3870  142.5750 O   0  0  0  0  0  0  0  0  0  0  0  0
  196.3170  169.1330  147.1860 C   0  0  0  0  0  3  0  0  0  0  0  0
  196.8640  170.2210  145.0150 C   0  0  1  0  0  3  0  0  0  0  0  0
  196.8550  172.4970  145.2570 C   0  0  1  0  0  3  0  0  0  0  0  0
  194.9670  171.4860  143.8710 C   0  0  1  0  0  3  0  0  0  0  0  0
  197.5440  171.4140  144.6820 O   0  0  0  0  0  0  0  0  0  0  0  0
  197.7320  173.7340  145.1990 C   0  0  0  0  0  1  0  0  0  0  0  0
  194.9130  168.8860  146.7180 C   0  0  0  0  0  2  0  0  0  0  0  0
  197.2170  169.7400  146.4010 C   0  0  0  0  0  3  0  0  0  0  0  0
  195.3480  170.2300  144.6600 C   0  0  2  0  0  3  0  0  0  0  0  0
  194.4390  170.0710  145.8830 C   0  0  0  0  0  2  0  0  0  0  0  0
  195.5240  172.7570  144.5290 C   0  0  1  0  0  3  0  0  0  0  0  0
  194.4950  173.3230  145.4950 C   0  0  0  0  0  2  0  0  0  0  0  0
  193.5570  174.0930  144.8040 O   0  0  0  0  0  0  0  0  0  0  0  0
  195.8300  176.6900  144.2750 O   0  0  0  0  0  1  0  0  0  0  0  0
  193.4240  175.2580  145.5610 C   0  0  2  0  0  3  0  0  0  0  0  0
  193.4650  176.4920  144.6720 C   0  0  0  0  0  0  0  0  0  0  0  0
  194.8290  176.8710  145.2320 C   0  0  1  0  0  3  0  0  0  0  0  0
  194.7750  175.6520  146.1390 C   0  0  0  0  0  2  0  0  0  0  0  0
  193.4630  176.2090  143.3150 F   0  0  0  0  0  0  0  0  0  0  0  0
  192.4950  177.4090  145.0220 F   0  0  0  0  0  0  0  0  0  0  0  0
  1 30  1  1  0  0  0
  1  2  1  0  0  0  0
  2  4  1  0  0  0  0
  3  1  1  0  0  0  0
  4  7  1  1  0  0  0
  5  4  1  0  0  0  0
  6  3  1  0  0  0  0
  6  5  1  0  0  0  0
  7  8  1  6  0  0  0
  9  7  1  0  0  0  0
  9 10  1  0  0  0  0
 10 11  2  0  0  0  0
 12 11  1  6  0  0  0
 12 16  1  0  0  0  0
 12 14  1  0  0  0  0
 14 15  1  0  0  0  0
 14 13  1  0  0  0  0
 17 21  1  0  0  0  0
 19 23  1  0  0  0  0
 19 22  1  0  0  0  0
 20 18  1  6  0  0  0
 21 20  1  0  0  0  0
 22 24  1  6  0  0  0
 22 16  1  0  0  0  0
 22 20  1  0  0  0  0
 23 17  1  0  0  0  0
 25  9  1  0  0  0  0
 27 25  1  0  0  0  0
 28 29  2  0  0  0  0
 29 27  1  0  0  0  0
 29 26  1  0  0  0  0
 30 31  1  0  0  0  0
 31 32  1  0  0  0  0
 32 33  1  0  0  0  0
 35 41  1  1  0  0  0
 36 39  1  6  0  0  0
 37 33  1  6  0  0  0
 37 44  1  0  0  0  0
 37 42  1  0  0  0  0
 38 35  1  0  0  0  0
 38 36  1  0  0  0  0
 40 34  1  0  0  0  0
 41 34  2  0  0  0  0
 42 35  1  0  0  0  0
 42 43  1  1  0  0  0
 43 40  1  0  0  0  0
 44 36  1  0  0  0  0
 44 45  1  1  0  0  0
 46 45  1  0  0  0  0
 48 46  1  6  0  0  0
 48 51  1  0  0  0  0
 49 53  1  0  0  0  0
 49 50  1  0  0  0  0
 49 48  1  0  0  0  0
 50 47  1  6  0  0  0
 50 51  1  0  0  0  0
 52 49  1  0  0  0  0
M  END
>  <MODEL>
1

>  <REMARK>
 VINA RESULT:      -7.6      0.000      0.000
  Name = 
  17 active torsions:
  status: ('A' for Active; 'I' for Inactive)
    1  A    between atoms: O_1  and  C_13
    2  A    between atoms: O_1  and  C_22
    3  A    between atoms: C_3  and  C_28
    4  A    between atoms: N_4  and  C_7
    5  A    between atoms: N_4  and  C_8
    6  A    between atoms: N_4  and  C_21
    7  A    between atoms: C_7  and  C_37
    8  A    between atoms: C_10  and  C_47
    9  A    between atoms: C_10  and  O_53
   10  A    between atoms: C_15  and  O_53
   11  A    between atoms: C_18  and  C_28
   12  A    between atoms: C_19  and  C_38
   13  A    between atoms: C_21  and  N_24
   14  A    between atoms: C_22  and  N_29
   15  A    between atoms: C_28  and  C_31
   16  A    between atoms: N_29  and  C_38
   17  A    between atoms: C_31  and  C_39
                            x       y       z     vdW  Elec       q    Type
                         _______ _______ _______ _____ _____    ______ ____

>  <TORSDO>
F 17

$$$$
=
 OpenBabel11062420273D

 53 57  0  0  1  0  0  0  0  0999 V2000
  188.8950  172.7070  142.3370 C   0  0  1  0  0  3  0  0  0  0  0  0
  188.9130  174.0070  143.1340 C   0  0  0  0  0  2  0  0  0  0  0  0
  189.3920  172.9100  140.9780 N   0  0  0  0  0  2  0  0  0  0  0  0
  189.4970  175.1550  142.3010 C   0  0  1  0  0  3  0  0  0  0  0  0
  188.9120  175.2720  141.0180 O   0  0  0  0  0  0  0  0  0  0  0  0
  188.6410  174.0240  140.3970 C   0  0  0  0  0  2  0  0  0  0  0  0
  189.3990  176.4970  143.0310 C   0  0  2  0  0  3  0  0  0  0  0  0
  189.2030  177.5520  142.1290 O   0  0  0  0  0  1  0  0  0  0  0  0
  190.5650  176.7390  143.8780 N   0  0  0  0  0  0  0  0  0  0  0  0
  190.5160  177.7200  144.9230 C   0  0  0  0  0  3  0  0  0  0  0  0
  189.7000  177.6570  145.9770 C   0  0  0  0  0  3  0  0  0  0  0  0
  188.7730  176.5160  146.2800 C   0  0  1  0  0  3  0  0  0  0  0  0
  190.6000  175.7480  147.6280 O   0  0  0  0  0  1  0  0  0  0  0  0
  189.5110  175.3090  146.8690 C   0  0  0  0  0  3  0  0  0  0  0  0
  188.6580  174.5480  147.6740 O   0  0  0  0  0  1  0  0  0  0  0  0
  187.4940  176.9220  147.0370 C   0  0  0  0  0  2  0  0  0  0  0  0
  184.3240  178.7620  144.7280 C   0  0  0  0  0  2  0  0  0  0  0  0
  185.9230  179.4140  147.6790 C   0  0  0  0  0  1  0  0  0  0  0  0
  186.7670  178.1590  145.0050 C   0  0  0  0  0  2  0  0  0  0  0  0
  185.2690  178.1960  147.0530 C   0  0  1  0  0  3  0  0  0  0  0  0
  184.0570  178.6480  146.2280 C   0  0  0  0  0  2  0  0  0  0  0  0
  186.2630  177.3590  146.2190 C   0  0  2  0  0  0  0  0  0  0  0  0
  185.7670  179.1860  144.4620 C   0  0  0  0  0  2  0  0  0  0  0  0
  185.6190  176.2200  145.7250 O   0  0  0  0  0  1  0  0  0  0  0  0
  191.7660  175.9400  143.6650 C   0  0  0  0  0  2  0  0  0  0  0  0
  193.3410  174.6130  145.8740 C   0  0  0  0  0  1  0  0  0  0  0  0
  192.9220  176.5640  144.2940 N   0  0  0  0  0  2  0  0  0  0  0  0
  194.6820  176.6020  145.8560 N   0  0  0  0  0  2  0  0  0  0  0  0
  193.6840  175.9580  145.3470 C   0  0  0  0  0  0  0  0  0  0  0  0
  189.7460  171.6730  143.0550 C   0  0  0  0  0  2  0  0  0  0  0  0
  191.0590  171.5670  142.4410 N   0  0  0  0  0  2  0  0  0  0  0  0
  192.0460  172.1030  143.3690 C   0  0  0  0  0  2  0  0  0  0  0  0
  192.5340  171.0830  144.1930 O   0  0  0  0  0  0  0  0  0  0  0  0
  196.6660  168.7130  146.2870 C   0  0  0  0  0  3  0  0  0  0  0  0
  194.4960  168.9340  145.0860 C   0  0  1  0  0  3  0  0  0  0  0  0
  194.8700  169.3160  142.8600 C   0  0  1  0  0  3  0  0  0  0  0  0
  193.9160  171.2590  144.2110 C   0  0  1  0  0  3  0  0  0  0  0  0
  194.0830  168.5960  143.7780 O   0  0  0  0  0  0  0  0  0  0  0  0
  194.6780  168.7320  141.4730 C   0  0  0  0  0  1  0  0  0  0  0  0
  196.5320  170.1160  146.8030 C   0  0  0  0  0  2  0  0  0  0  0  0
  195.7270  168.1660  145.5040 C   0  0  0  0  0  3  0  0  0  0  0  0
  194.5140  170.4640  145.3750 C   0  0  2  0  0  3  0  0  0  0  0  0
  195.9070  170.9960  145.7260 C   0  0  0  0  0  2  0  0  0  0  0  0
  194.4980  170.8090  142.8620 C   0  0  1  0  0  3  0  0  0  0  0  0
  195.7130  171.6570  142.5240 C   0  0  0  0  0  2  0  0  0  0  0  0
  195.4620  172.9990  142.8190 O   0  0  0  0  0  0  0  0  0  0  0  0
  196.3010  176.3880  142.8210 O   0  0  0  0  0  1  0  0  0  0  0  0
  195.5660  173.6600  141.5920 C   0  0  2  0  0  3  0  0  0  0  0  0
  196.8630  174.4500  141.5100 C   0  0  0  0  0  0  0  0  0  0  0  0
  196.0900  175.7590  141.5910 C   0  0  1  0  0  3  0  0  0  0  0  0
  194.7930  174.9690  141.6480 C   0  0  0  0  0  2  0  0  0  0  0  0
  197.7270  174.2290  142.5710 F   0  0  0  0  0  0  0  0  0  0  0  0
  197.4810  174.2960  140.2850 F   0  0  0  0  0  0  0  0  0  0  0  0
  1 30  1  1  0  0  0
  1  2  1  0  0  0  0
  3  1  1  0  0  0  0
  4  7  1  1  0  0  0
  4  2  1  0  0  0  0
  5  4  1  0  0  0  0
  6  3  1  0  0  0  0
  6  5  1  0  0  0  0
  7  8  1  6  0  0  0
  7  9  1  0  0  0  0
  9 10  1  0  0  0  0
 10 11  2  0  0  0  0
 12 11  1  1  0  0  0
 12 14  1  0  0  0  0
 12 16  1  0  0  0  0
 14 13  1  0  0  0  0
 14 15  1  0  0  0  0
 17 21  1  0  0  0  0
 19 22  1  0  0  0  0
 20 18  1  6  0  0  0
 21 20  1  0  0  0  0
 22 24  1  6  0  0  0
 22 16  1  0  0  0  0
 22 20  1  0  0  0  0
 23 17  1  0  0  0  0
 23 19  1  0  0  0  0
 25  9  1  0  0  0  0
 25 27  1  0  0  0  0
 27 29  1  0  0  0  0
 29 28  2  0  0  0  0
 29 26  1  0  0  0  0
 31 30  1  0  0  0  0
 31 32  1  0  0  0  0
 32 33  1  0  0  0  0
 34 40  1  0  0  0  0
 35 42  1  0  0  0  0
 35 41  1  6  0  0  0
 36 39  1  6  0  0  0
 36 44  1  0  0  0  0
 36 38  1  0  0  0  0
 37 33  1  6  0  0  0
 37 42  1  0  0  0  0
 38 35  1  0  0  0  0
 41 34  2  0  0  0  0
 42 43  1  6  0  0  0
 43 40  1  0  0  0  0
 44 45  1  1  0  0  0
 44 37  1  0  0  0  0
 45 46  1  0  0  0  0
 48 51  1  0  0  0  0
 48 46  1  1  0  0  0
 49 50  1  0  0  0  0
 49 48  1  0  0  0  0
 49 52  1  0  0  0  0
 50 51  1  0  0  0  0
 50 47  1  1  0  0  0
 53 49  1  0  0  0  0
M  END
>  <MODEL>
2

>  <REMARK>
 VINA RESULT:      -7.3      2.354      3.817
  Name = 
  17 active torsions:
  status: ('A' for Active; 'I' for Inactive)
    1  A    between atoms: O_1  and  C_13
    2  A    between atoms: O_1  and  C_22
    3  A    between atoms: C_3  and  C_28
    4  A    between atoms: N_4  and  C_7
    5  A    between atoms: N_4  and  C_8
    6  A    between atoms: N_4  and  C_21
    7  A    between atoms: C_7  and  C_37
    8  A    between atoms: C_10  and  C_47
    9  A    between atoms: C_10  and  O_53
   10  A    between atoms: C_15  and  O_53
   11  A    between atoms: C_18  and  C_28
   12  A    between atoms: C_19  and  C_38
   13  A    between atoms: C_21  and  N_24
   14  A    between atoms: C_22  and  N_29
   15  A    between atoms: C_28  and  C_31
   16  A    between atoms: N_29  and  C_38
   17  A    between atoms: C_31  and  C_39
                            x       y       z     vdW  Elec       q    Type
                         _______ _______ _______ _____ _____    ______ ____

>  <TORSDO>
F 17

$$$$
=
 OpenBabel11062420273D

 53 57  0  0  1  0  0  0  0  0999 V2000
  189.8290  171.9330  140.4500 C   0  0  1  0  0  3  0  0  0  0  0  0
  191.1320  172.3970  139.8040 C   0  0  0  0  0  2  0  0  0  0  0  0
  190.0760  171.2790  141.7330 N   0  0  0  0  0  2  0  0  0  0  0  0
  192.3330  172.0930  140.7100 C   0  0  1  0  0  3  0  0  0  0  0  0
  192.3630  170.7570  141.1740 O   0  0  0  0  0  0  0  0  0  0  0  0
  191.0840  170.2400  141.5110 C   0  0  0  0  0  2  0  0  0  0  0  0
  193.6600  172.4250  140.0250 C   0  0  2  0  0  3  0  0  0  0  0  0
  194.7430  171.8620  140.7150 O   0  0  0  0  0  1  0  0  0  0  0  0
  193.8370  173.8670  139.8570 N   0  0  0  0  0  0  0  0  0  0  0  0
  193.2100  174.7880  140.7590 C   0  0  0  0  0  3  0  0  0  0  0  0
  193.8040  175.3120  141.8330 C   0  0  0  0  0  3  0  0  0  0  0  0
  195.2380  175.0910  142.2170 C   0  0  1  0  0  3  0  0  0  0  0  0
  196.7390  176.9530  142.3720 O   0  0  0  0  0  1  0  0  0  0  0  0
  196.1900  176.0330  141.4730 C   0  0  0  0  0  3  0  0  0  0  0  0
  197.2190  175.3160  140.8550 O   0  0  0  0  0  1  0  0  0  0  0  0
  195.4810  174.9960  143.7360 C   0  0  0  0  0  2  0  0  0  0  0  0
  197.5500  171.4100  145.0100 C   0  0  0  0  0  2  0  0  0  0  0  0
  194.4450  172.7640  145.4780 C   0  0  0  0  0  1  0  0  0  0  0  0
  196.4800  172.7880  143.1750 C   0  0  0  0  0  2  0  0  0  0  0  0
  195.8710  173.2710  145.5910 C   0  0  1  0  0  3  0  0  0  0  0  0
  196.7660  172.1350  146.1040 C   0  0  0  0  0  2  0  0  0  0  0  0
  196.3890  173.8690  144.2660 C   0  0  2  0  0  0  0  0  0  0  0  0
  196.7590  171.3770  143.7040 C   0  0  0  0  0  2  0  0  0  0  0  0
  197.6790  174.3770  144.4530 O   0  0  0  0  0  1  0  0  0  0  0  0
  194.6910  174.3480  138.7770 C   0  0  0  0  0  2  0  0  0  0  0  0
  194.1410  174.3410  135.8080 C   0  0  0  0  0  1  0  0  0  0  0  0
  194.0700  175.4720  138.0870 N   0  0  0  0  0  2  0  0  0  0  0  0
  193.2660  176.5480  136.1560 N   0  0  0  0  0  2  0  0  0  0  0  0
  193.8020  175.4960  136.6790 C   0  0  0  0  0  0  0  0  0  0  0  0
  188.9150  173.1300  140.6410 C   0  0  0  0  0  2  0  0  0  0  0  0
  188.1540  173.0090  141.8730 N   0  0  0  0  0  2  0  0  0  0  0  0
  188.3760  174.2090  142.6710 C   0  0  0  0  0  2  0  0  0  0  0  0
  189.4780  174.0270  143.5140 O   0  0  0  0  0  0  0  0  0  0  0  0
  192.2010  176.2450  147.3530 C   0  0  0  0  0  3  0  0  0  0  0  0
  191.6220  175.5690  145.0270 C   0  0  1  0  0  3  0  0  0  0  0  0
  190.2040  177.1060  144.0960 C   0  0  1  0  0  3  0  0  0  0  0  0
  189.2170  174.8160  144.6320 C   0  0  1  0  0  3  0  0  0  0  0  0
  191.3350  176.3050  143.8560 O   0  0  0  0  0  0  0  0  0  0  0  0
  190.0780  178.1360  142.9890 C   0  0  0  0  0  1  0  0  0  0  0  0
  191.2250  175.2430  147.8960 C   0  0  0  0  0  2  0  0  0  0  0  0
  192.3900  176.3900  146.0340 C   0  0  0  0  0  3  0  0  0  0  0  0
  190.4140  174.7590  145.5850 C   0  0  2  0  0  3  0  0  0  0  0  0
  189.9960  175.1900  146.9940 C   0  0  0  0  0  2  0  0  0  0  0  0
  188.9260  176.2540  144.1750 C   0  0  1  0  0  3  0  0  0  0  0  0
  187.9200  176.8940  145.1180 C   0  0  0  0  0  2  0  0  0  0  0  0
  187.0540  177.7270  144.4070 O   0  0  0  0  0  0  0  0  0  0  0  0
  186.1460  179.0810  147.4940 O   0  0  0  0  0  1  0  0  0  0  0  0
  185.7850  177.4380  144.9120 C   0  0  2  0  0  3  0  0  0  0  0  0
  185.0810  178.7070  145.3690 C   0  0  0  0  0  0  0  0  0  0  0  0
  185.2180  178.2800  146.8240 C   0  0  1  0  0  3  0  0  0  0  0  0
  185.8990  177.0000  146.3650 C   0  0  0  0  0  2  0  0  0  0  0  0
  185.7570  179.8740  145.0490 F   0  0  0  0  0  0  0  0  0  0  0  0
  183.7610  178.7340  144.9660 F   0  0  0  0  0  0  0  0  0  0  0  0
  1 30  1  1  0  0  0
  1  3  1  0  0  0  0
  2  1  1  0  0  0  0
  2  4  1  0  0  0  0
  4  7  1  6  0  0  0
  4  5  1  0  0  0  0
  5  6  1  0  0  0  0
  6  3  1  0  0  0  0
  7  8  1  1  0  0  0
  9  7  1  0  0  0  0
  9 10  1  0  0  0  0
 10 11  2  0  0  0  0
 12 11  1  1  0  0  0
 12 16  1  0  0  0  0
 14 12  1  0  0  0  0
 14 13  1  0  0  0  0
 15 14  1  0  0  0  0
 16 22  1  0  0  0  0
 17 21  1  0  0  0  0
 19 23  1  0  0  0  0
 19 22  1  0  0  0  0
 20 18  1  6  0  0  0
 20 21  1  0  0  0  0
 22 24  1  1  0  0  0
 22 20  1  0  0  0  0
 23 17  1  0  0  0  0
 25  9  1  0  0  0  0
 26 29  1  0  0  0  0
 27 25  1  0  0  0  0
 28 29  2  0  0  0  0
 29 27  1  0  0  0  0
 30 31  1  0  0  0  0
 31 32  1  0  0  0  0
 32 33  1  0  0  0  0
 34 40  1  0  0  0  0
 35 42  1  0  0  0  0
 35 41  1  1  0  0  0
 36 39  1  6  0  0  0
 36 44  1  0  0  0  0
 37 33  1  6  0  0  0
 37 42  1  0  0  0  0
 38 36  1  0  0  0  0
 38 35  1  0  0  0  0
 41 34  2  0  0  0  0
 42 43  1  1  0  0  0
 43 40  1  0  0  0  0
 44 37  1  0  0  0  0
 44 45  1  1  0  0  0
 46 45  1  0  0  0  0
 48 46  1  1  0  0  0
 48 49  1  0  0  0  0
 48 51  1  0  0  0  0
 49 50  1  0  0  0  0
 50 47  1  1  0  0  0
 51 50  1  0  0  0  0
 52 49  1  0  0  0  0
 53 49  1  0  0  0  0
M  END
>  <MODEL>
3

>  <REMARK>
 VINA RESULT:      -7.0      2.926      8.294
  Name = 
  17 active torsions:
  status: ('A' for Active; 'I' for Inactive)
    1  A    between atoms: O_1  and  C_13
    2  A    between atoms: O_1  and  C_22
    3  A    between atoms: C_3  and  C_28
    4  A    between atoms: N_4  and  C_7
    5  A    between atoms: N_4  and  C_8
    6  A    between atoms: N_4  and  C_21
    7  A    between atoms: C_7  and  C_37
    8  A    between atoms: C_10  and  C_47
    9  A    between atoms: C_10  and  O_53
   10  A    between atoms: C_15  and  O_53
   11  A    between atoms: C_18  and  C_28
   12  A    between atoms: C_19  and  C_38
   13  A    between atoms: C_21  and  N_24
   14  A    between atoms: C_22  and  N_29
   15  A    between atoms: C_28  and  C_31
   16  A    between atoms: N_29  and  C_38
   17  A    between atoms: C_31  and  C_39
                            x       y       z     vdW  Elec       q    Type
                         _______ _______ _______ _____ _____    ______ ____

>  <TORSDO>
F 17

$$$$
=
 OpenBabel11062420273D

 53 57  0  0  1  0  0  0  0  0999 V2000
  195.5460  174.9350  145.5090 C   0  0  1  0  0  3  0  0  0  0  0  0
  194.7370  173.8830  144.7550 C   0  0  0  0  0  2  0  0  0  0  0  0
  196.4450  175.6570  144.6110 N   0  0  0  0  0  2  0  0  0  0  0  0
  195.0570  173.9140  143.2550 C   0  0  1  0  0  3  0  0  0  0  0  0
  196.4440  173.8850  142.9760 O   0  0  0  0  0  0  0  0  0  0  0  0
  197.2240  174.6610  143.8740 C   0  0  0  0  0  2  0  0  0  0  0  0
  194.3620  172.7790  142.5010 C   0  0  2  0  0  3  0  0  0  0  0  0
  195.2170  171.6800  142.3350 O   0  0  0  0  0  1  0  0  0  0  0  0
  193.8290  173.2290  141.2160 N   0  0  0  0  0  0  0  0  0  0  0  0
  192.7270  174.1460  141.1660 C   0  0  0  0  0  3  0  0  0  0  0  0
  191.4720  173.7990  140.8730 C   0  0  0  0  0  3  0  0  0  0  0  0
  191.0000  172.3930  140.6400 C   0  0  1  0  0  3  0  0  0  0  0  0
  189.5210  171.3930  142.2380 O   0  0  0  0  0  1  0  0  0  0  0  0
  190.8720  171.5990  141.9430 C   0  0  0  0  0  3  0  0  0  0  0  0
  191.5200  170.3640  141.8400 O   0  0  0  0  0  1  0  0  0  0  0  0
  189.7880  172.2810  139.6940 C   0  0  0  0  0  2  0  0  0  0  0  0
  190.7860  170.7710  135.7580 C   0  0  0  0  0  2  0  0  0  0  0  0
  189.8500  173.7830  137.0810 C   0  0  0  0  0  1  0  0  0  0  0  0
  191.4890  171.3950  138.1100 C   0  0  0  0  0  2  0  0  0  0  0  0
  189.3360  172.3580  137.1720 C   0  0  1  0  0  3  0  0  0  0  0  0
  189.5460  171.6620  135.8200 C   0  0  0  0  0  2  0  0  0  0  0  0
  189.9780  171.5750  138.3370 C   0  0  2  0  0  0  0  0  0  0  0  0
  191.9040  171.3310  136.6350 C   0  0  0  0  0  2  0  0  0  0  0  0
  189.4160  170.2960  138.4090 O   0  0  0  0  0  1  0  0  0  0  0  0
  194.4600  172.7570  139.9900 C   0  0  0  0  0  2  0  0  0  0  0  0
  194.4590  175.2000  138.2140 C   0  0  0  0  0  1  0  0  0  0  0  0
  195.6660  173.5230  139.7000 N   0  0  0  0  0  2  0  0  0  0  0  0
  196.8170  175.2820  138.6450 N   0  0  0  0  0  2  0  0  0  0  0  0
  195.6930  174.6830  138.8580 C   0  0  0  0  0  0  0  0  0  0  0  0
  194.5920  175.9060  146.1830 C   0  0  0  0  0  2  0  0  0  0  0  0
  194.4290  177.1100  145.3870 N   0  0  0  0  0  2  0  0  0  0  0  0
  193.0820  177.1160  144.8300 C   0  0  0  0  0  2  0  0  0  0  0  0
  192.1920  176.5090  145.7220 O   0  0  0  0  0  0  0  0  0  0  0  0
  188.3640  175.3230  142.4040 C   0  0  0  0  0  3  0  0  0  0  0  0
  190.1270  174.9470  144.1210 C   0  0  1  0  0  3  0  0  0  0  0  0
  189.2610  175.2760  146.2150 C   0  0  1  0  0  3  0  0  0  0  0  0
  190.9370  177.0110  145.3840 C   0  0  1  0  0  3  0  0  0  0  0  0
  190.0910  174.4440  145.4410 O   0  0  0  0  0  0  0  0  0  0  0  0
  188.9430  174.5830  147.5260 C   0  0  0  0  0  1  0  0  0  0  0  0
  188.9310  176.6810  142.1080 C   0  0  0  0  0  2  0  0  0  0  0  0
  188.9180  174.5220  143.3230 C   0  0  0  0  0  3  0  0  0  0  0  0
  190.5170  176.4520  144.0220 C   0  0  2  0  0  3  0  0  0  0  0  0
  189.4180  177.3220  143.4030 C   0  0  0  0  0  2  0  0  0  0  0  0
  189.9330  176.6350  146.4830 C   0  0  1  0  0  3  0  0  0  0  0  0
  188.8830  177.7280  146.6090 C   0  0  0  0  0  2  0  0  0  0  0  0
  187.6040  177.1680  146.6260 O   0  0  0  0  0  0  0  0  0  0  0  0
  184.1220  177.4240  146.6440 O   0  0  0  0  0  1  0  0  0  0  0  0
  186.9700  177.6940  145.4980 C   0  0  2  0  0  3  0  0  0  0  0  0
  185.9690  178.7700  145.8900 C   0  0  0  0  0  0  0  0  0  0  0  0
  184.8120  177.8570  145.5090 C   0  0  1  0  0  3  0  0  0  0  0  0
  185.8130  176.7910  145.0930 C   0  0  0  0  0  2  0  0  0  0  0  0
  186.0080  179.1140  147.2320 F   0  0  0  0  0  0  0  0  0  0  0  0
  186.0480  179.8700  145.0600 F   0  0  0  0  0  0  0  0  0  0  0  0
  1 30  1  6  0  0  0
  2  1  1  0  0  0  0
  3  1  1  0  0  0  0
  4  7  1  6  0  0  0
  4  2  1  0  0  0  0
  5  4  1  0  0  0  0
  5  6  1  0  0  0  0
  6  3  1  0  0  0  0
  7  8  1  6  0  0  0
  9  7  1  0  0  0  0
 10  9  1  0  0  0  0
 11 10  2  0  0  0  0
 12 16  1  1  0  0  0
 12 11  1  0  0  0  0
 12 14  1  0  0  0  0
 14 13  1  0  0  0  0
 15 14  1  0  0  0  0
 17 21  1  0  0  0  0
 17 23  1  0  0  0  0
 19 22  1  0  0  0  0
 20 18  1  6  0  0  0
 20 22  1  0  0  0  0
 21 20  1  0  0  0  0
 22 24  1  1  0  0  0
 22 16  1  0  0  0  0
 23 19  1  0  0  0  0
 25  9  1  0  0  0  0
 26 29  1  0  0  0  0
 27 25  1  0  0  0  0
 28 29  2  0  0  0  0
 29 27  1  0  0  0  0
 31 30  1  0  0  0  0
 32 31  1  0  0  0  0
 32 33  1  0  0  0  0
 34 41  2  0  0  0  0
 35 41  1  1  0  0  0
 35 38  1  0  0  0  0
 36 44  1  0  0  0  0
 36 39  1  1  0  0  0
 37 33  1  1  0  0  0
 37 44  1  0  0  0  0
 38 36  1  0  0  0  0
 40 34  1  0  0  0  0
 40 43  1  0  0  0  0
 42 43  1  1  0  0  0
 42 35  1  0  0  0  0
 42 37  1  0  0  0  0
 44 45  1  6  0  0  0
 45 46  1  0  0  0  0
 48 49  1  0  0  0  0
 48 46  1  1  0  0  0
 49 52  1  0  0  0  0
 50 49  1  0  0  0  0
 50 47  1  1  0  0  0
 51 48  1  0  0  0  0
 51 50  1  0  0  0  0
 53 49  1  0  0  0  0
M  END
>  <MODEL>
4

>  <REMARK>
 VINA RESULT:      -7.0      3.208      8.725
  Name = 
  17 active torsions:
  status: ('A' for Active; 'I' for Inactive)
    1  A    between atoms: O_1  and  C_13
    2  A    between atoms: O_1  and  C_22
    3  A    between atoms: C_3  and  C_28
    4  A    between atoms: N_4  and  C_7
    5  A    between atoms: N_4  and  C_8
    6  A    between atoms: N_4  and  C_21
    7  A    between atoms: C_7  and  C_37
    8  A    between atoms: C_10  and  C_47
    9  A    between atoms: C_10  and  O_53
   10  A    between atoms: C_15  and  O_53
   11  A    between atoms: C_18  and  C_28
   12  A    between atoms: C_19  and  C_38
   13  A    between atoms: C_21  and  N_24
   14  A    between atoms: C_22  and  N_29
   15  A    between atoms: C_28  and  C_31
   16  A    between atoms: N_29  and  C_38
   17  A    between atoms: C_31  and  C_39
                            x       y       z     vdW  Elec       q    Type
                         _______ _______ _______ _____ _____    ______ ____

>  <TORSDO>
F 17

$$$$
=
 OpenBabel11062420273D

 53 57  0  0  1  0  0  0  0  0999 V2000
  190.9870  171.4130  141.0560 C   0  0  1  0  0  3  0  0  0  0  0  0
  192.4620  171.4320  140.6660 C   0  0  0  0  0  2  0  0  0  0  0  0
  190.7460  170.5130  142.1800 N   0  0  0  0  0  2  0  0  0  0  0  0
  193.2880  170.5390  141.6000 C   0  0  1  0  0  3  0  0  0  0  0  0
  192.7500  169.2400  141.7580 O   0  0  0  0  0  0  0  0  0  0  0  0
  191.3320  169.2150  141.8390 C   0  0  0  0  0  2  0  0  0  0  0  0
  194.7460  170.4350  141.1460 C   0  0  2  0  0  3  0  0  0  0  0  0
  195.2450  169.1390  141.3340 O   0  0  0  0  0  1  0  0  0  0  0  0
  195.5920  171.4260  141.8100 N   0  0  0  0  0  0  0  0  0  0  0  0
  196.6420  171.0120  142.6940 C   0  0  0  0  0  3  0  0  0  0  0  0
  196.5850  171.1010  144.0240 C   0  0  0  0  0  3  0  0  0  0  0  0
  195.3880  171.5600  144.8050 C   0  0  1  0  0  3  0  0  0  0  0  0
  194.1140  169.5320  144.7200 O   0  0  0  0  0  1  0  0  0  0  0  0
  194.7400  170.4210  145.5990 C   0  0  0  0  0  3  0  0  0  0  0  0
  195.6940  169.7350  146.3550 O   0  0  0  0  0  1  0  0  0  0  0  0
  195.6130  172.8570  145.6050 C   0  0  0  0  0  2  0  0  0  0  0  0
  193.8320  176.6210  144.4090 C   0  0  0  0  0  2  0  0  0  0  0  0
  192.6950  173.4910  145.1890 C   0  0  0  0  0  1  0  0  0  0  0  0
  195.0520  175.2230  146.1320 C   0  0  0  0  0  2  0  0  0  0  0  0
  193.7730  174.0520  144.2790 C   0  0  1  0  0  3  0  0  0  0  0  0
  193.2890  175.3850  143.6930 C   0  0  0  0  0  2  0  0  0  0  0  0
  195.1340  174.1900  144.9950 C   0  0  2  0  0  0  0  0  0  0  0  0
  194.0330  176.3430  145.8980 C   0  0  0  0  0  2  0  0  0  0  0  0
  196.0970  174.6460  144.0900 O   0  0  0  0  0  1  0  0  0  0  0  0
  195.3710  172.8390  141.5280 C   0  0  0  0  0  2  0  0  0  0  0  0
  195.3790  175.6560  140.4400 C   0  0  0  0  0  1  0  0  0  0  0  0
  196.5190  173.4160  140.8400 N   0  0  0  0  0  2  0  0  0  0  0  0
  197.6070  175.1620  139.6990 N   0  0  0  0  0  2  0  0  0  0  0  0
  196.5480  174.7480  140.3110 C   0  0  0  0  0  0  0  0  0  0  0  0
  190.5490  172.8230  141.4120 C   0  0  0  0  0  2  0  0  0  0  0  0
  189.4300  173.2420  140.5850 N   0  0  0  0  0  2  0  0  0  0  0  0
  188.3070  173.5640  141.4580 C   0  0  0  0  0  2  0  0  0  0  0  0
  188.0530  174.9390  141.4240 O   0  0  0  0  0  0  0  0  0  0  0  0
  190.4690  177.5230  145.2400 C   0  0  0  0  0  3  0  0  0  0  0  0
  189.6270  177.0550  142.9440 C   0  0  1  0  0  3  0  0  0  0  0  0
  187.4830  177.8260  142.7250 C   0  0  1  0  0  3  0  0  0  0  0  0
  187.7920  175.2940  142.7460 C   0  0  1  0  0  3  0  0  0  0  0  0
  188.7350  177.7410  142.0890 O   0  0  0  0  0  0  0  0  0  0  0  0
  186.6170  178.8310  141.9870 C   0  0  0  0  0  1  0  0  0  0  0  0
  190.2240  176.0950  145.6290 C   0  0  0  0  0  2  0  0  0  0  0  0
  190.2020  177.9640  144.0030 C   0  0  0  0  0  3  0  0  0  0  0  0
  189.1040  175.6740  143.4380 C   0  0  2  0  0  3  0  0  0  0  0  0
  188.9480  175.5970  144.9600 C   0  0  0  0  0  2  0  0  0  0  0  0
  186.7860  176.4550  142.7650 C   0  0  1  0  0  3  0  0  0  0  0  0
  185.9060  176.3450  144.0000 C   0  0  0  0  0  2  0  0  0  0  0  0
  186.2700  177.3130  144.9390 O   0  0  0  0  0  0  0  0  0  0  0  0
  187.0410  178.7620  148.0200 O   0  0  0  0  0  1  0  0  0  0  0  0
  185.3800  177.1330  146.0000 C   0  0  2  0  0  3  0  0  0  0  0  0
  185.0680  178.4580  146.6780 C   0  0  0  0  0  0  0  0  0  0  0  0
  185.8540  178.0340  147.9100 C   0  0  1  0  0  3  0  0  0  0  0  0
  186.1450  176.6990  147.2430 C   0  0  0  0  0  2  0  0  0  0  0  0
  185.5860  179.5640  146.0200 F   0  0  0  0  0  0  0  0  0  0  0  0
  183.7210  178.5900  146.9500 F   0  0  0  0  0  0  0  0  0  0  0  0
  1 30  1  1  0  0  0
  1  3  1  0  0  0  0
  2  1  1  0  0  0  0
  2  4  1  0  0  0  0
  4  7  1  6  0  0  0
  4  5  1  0  0  0  0
  5  6  1  0  0  0  0
  6  3  1  0  0  0  0
  7  8  1  1  0  0  0
  7  9  1  0  0  0  0
  9 10  1  0  0  0  0
 10 11  2  0  0  0  0
 12 11  1  1  0  0  0
 12 14  1  0  0  0  0
 12 16  1  0  0  0  0
 13 14  1  0  0  0  0
 14 15  1  0  0  0  0
 17 23  1  0  0  0  0
 20 22  1  0  0  0  0
 20 18  1  1  0  0  0
 21 20  1  0  0  0  0
 21 17  1  0  0  0  0
 22 24  1  6  0  0  0
 22 16  1  0  0  0  0
 22 19  1  0  0  0  0
 23 19  1  0  0  0  0
 25  9  1  0  0  0  0
 27 25  1  0  0  0  0
 28 29  2  0  0  0  0
 29 26  1  0  0  0  0
 29 27  1  0  0  0  0
 31 30  1  0  0  0  0
 31 32  1  0  0  0  0
 33 32  1  0  0  0  0
 34 40  1  0  0  0  0
 35 42  1  0  0  0  0
 35 41  1  1  0  0  0
 36 39  1  6  0  0  0
 36 44  1  0  0  0  0
 37 33  1  6  0  0  0
 37 44  1  0  0  0  0
 37 42  1  0  0  0  0
 38 36  1  0  0  0  0
 38 35  1  0  0  0  0
 41 34  2  0  0  0  0
 42 43  1  1  0  0  0
 43 40  1  0  0  0  0
 44 45  1  1  0  0  0
 45 46  1  0  0  0  0
 48 46  1  6  0  0  0
 48 49  1  0  0  0  0
 48 51  1  0  0  0  0
 49 53  1  0  0  0  0
 49 50  1  0  0  0  0
 50 47  1  6  0  0  0
 51 50  1  0  0  0  0
 52 49  1  0  0  0  0
M  END
>  <MODEL>
5

>  <REMARK>
 VINA RESULT:      -7.0      2.763      8.557
  Name = 
  17 active torsions:
  status: ('A' for Active; 'I' for Inactive)
    1  A    between atoms: O_1  and  C_13
    2  A    between atoms: O_1  and  C_22
    3  A    between atoms: C_3  and  C_28
    4  A    between atoms: N_4  and  C_7
    5  A    between atoms: N_4  and  C_8
    6  A    between atoms: N_4  and  C_21
    7  A    between atoms: C_7  and  C_37
    8  A    between atoms: C_10  and  C_47
    9  A    between atoms: C_10  and  O_53
   10  A    between atoms: C_15  and  O_53
   11  A    between atoms: C_18  and  C_28
   12  A    between atoms: C_19  and  C_38
   13  A    between atoms: C_21  and  N_24
   14  A    between atoms: C_22  and  N_29
   15  A    between atoms: C_28  and  C_31
   16  A    between atoms: N_29  and  C_38
   17  A    between atoms: C_31  and  C_39
                            x       y       z     vdW  Elec       q    Type
                         _______ _______ _______ _____ _____    ______ ____

>  <TORSDO>
F 17

$$$$
=
 OpenBabel11062420273D

 53 57  0  0  1  0  0  0  0  0999 V2000
  190.9020  173.4110  139.6700 C   0  0  1  0  0  3  0  0  0  0  0  0
  192.0530  173.7220  140.6220 C   0  0  0  0  0  2  0  0  0  0  0  0
  191.3840  172.7780  138.4440 N   0  0  0  0  0  2  0  0  0  0  0  0
  193.3900  173.2350  140.0460 C   0  0  1  0  0  3  0  0  0  0  0  0
  193.6130  173.6540  138.7140 O   0  0  0  0  0  0  0  0  0  0  0  0
  192.4490  173.6230  137.9020 C   0  0  0  0  0  2  0  0  0  0  0  0
  194.5730  173.6570  140.9190 C   0  0  2  0  0  3  0  0  0  0  0  0
  195.1720  174.8270  140.4320 O   0  0  0  0  0  1  0  0  0  0  0  0
  195.5540  172.5820  141.0580 N   0  0  0  0  0  0  0  0  0  0  0  0
  196.9590  172.8710  141.0450 C   0  0  0  0  0  3  0  0  0  0  0  0
  197.7010  173.0480  142.1400 C   0  0  0  0  0  3  0  0  0  0  0  0
  197.2090  172.8880  143.5490 C   0  0  1  0  0  3  0  0  0  0  0  0
  197.1980  171.4340  145.4540 O   0  0  0  0  0  1  0  0  0  0  0  0
  197.8910  171.7240  144.2740 C   0  0  0  0  0  3  0  0  0  0  0  0
  197.9290  170.5850  143.4640 O   0  0  0  0  0  1  0  0  0  0  0  0
  197.1480  174.2020  144.3520 C   0  0  0  0  0  2  0  0  0  0  0  0
  193.1710  175.1830  145.7630 C   0  0  0  0  0  2  0  0  0  0  0  0
  195.2990  176.3680  143.3620 C   0  0  0  0  0  1  0  0  0  0  0  0
  194.7440  173.5980  144.5710 C   0  0  0  0  0  2  0  0  0  0  0  0
  195.4180  176.0300  144.8370 C   0  0  1  0  0  3  0  0  0  0  0  0
  194.0970  176.3780  145.5380 C   0  0  0  0  0  2  0  0  0  0  0  0
  195.8330  174.5620  145.0720 C   0  0  2  0  0  0  0  0  0  0  0  0
  193.3200  174.1590  144.6400 C   0  0  0  0  0  2  0  0  0  0  0  0
  195.9900  174.3320  146.4430 O   0  0  0  0  0  1  0  0  0  0  0  0
  195.0780  171.2170  141.2460 C   0  0  0  0  0  2  0  0  0  0  0  0
  192.3660  169.9140  141.5050 C   0  0  0  0  0  1  0  0  0  0  0  0
  194.3880  171.0800  142.5220 N   0  0  0  0  0  2  0  0  0  0  0  0
  192.5590  170.4150  143.8430 N   0  0  0  0  0  2  0  0  0  0  0  0
  193.0990  170.4700  142.6720 C   0  0  0  0  0  0  0  0  0  0  0  0
  189.9090  172.5010  140.3720 C   0  0  0  0  0  2  0  0  0  0  0  0
  188.5700  173.0640  140.3250 N   0  0  0  0  0  2  0  0  0  0  0  0
  188.1750  173.4260  141.6810 C   0  0  0  0  0  2  0  0  0  0  0  0
  189.0230  174.4220  142.1770 O   0  0  0  0  0  0  0  0  0  0  0  0
  190.1640  177.3380  146.3320 C   0  0  0  0  0  3  0  0  0  0  0  0
  190.1720  176.6130  143.9500 C   0  0  1  0  0  3  0  0  0  0  0  0
  188.3640  177.4960  142.8590 C   0  0  1  0  0  3  0  0  0  0  0  0
  188.3410  174.9770  143.2580 C   0  0  1  0  0  3  0  0  0  0  0  0
  189.7420  177.2330  142.7560 O   0  0  0  0  0  0  0  0  0  0  0  0
  187.9530  178.4460  141.7480 C   0  0  0  0  0  1  0  0  0  0  0  0
  189.6270  176.0000  146.7460 C   0  0  0  0  0  2  0  0  0  0  0  0
  190.4230  177.6190  145.0480 C   0  0  0  0  0  3  0  0  0  0  0  0
  189.3440  175.3560  144.3510 C   0  0  2  0  0  3  0  0  0  0  0  0
  188.6340  175.5050  145.7000 C   0  0  0  0  0  2  0  0  0  0  0  0
  187.5430  176.1970  142.7750 C   0  0  1  0  0  3  0  0  0  0  0  0
  186.2660  176.3250  143.5900 C   0  0  0  0  0  2  0  0  0  0  0  0
  186.4160  177.3100  144.5690 O   0  0  0  0  0  0  0  0  0  0  0  0
  186.1730  179.1880  147.5020 O   0  0  0  0  0  1  0  0  0  0  0  0
  185.1990  177.3200  145.2540 C   0  0  2  0  0  3  0  0  0  0  0  0
  184.7780  178.7410  145.5930 C   0  0  0  0  0  0  0  0  0  0  0  0
  185.0450  178.4870  147.0700 C   0  0  1  0  0  3  0  0  0  0  0  0
  185.4410  177.0580  146.7330 C   0  0  0  0  0  2  0  0  0  0  0  0
  185.5820  179.7180  145.0260 F   0  0  0  0  0  0  0  0  0  0  0  0
  183.4360  178.9520  145.3450 F   0  0  0  0  0  0  0  0  0  0  0  0
  1 30  1  1  0  0  0
  1  2  1  0  0  0  0
  3  1  1  0  0  0  0
  4  2  1  0  0  0  0
  4  7  1  1  0  0  0
  5  4  1  0  0  0  0
  6  3  1  0  0  0  0
  6  5  1  0  0  0  0
  7  8  1  6  0  0  0
  7  9  1  0  0  0  0
  9 25  1  0  0  0  0
 10  9  1  0  0  0  0
 10 11  2  0  0  0  0
 12 11  1  6  0  0  0
 12 14  1  0  0  0  0
 12 16  1  0  0  0  0
 14 13  1  0  0  0  0
 15 14  1  0  0  0  0
 16 22  1  0  0  0  0
 19 23  1  0  0  0  0
 19 22  1  0  0  0  0
 20 18  1  6  0  0  0
 20 22  1  0  0  0  0
 20 21  1  0  0  0  0
 21 17  1  0  0  0  0
 22 24  1  1  0  0  0
 23 17  1  0  0  0  0
 25 27  1  0  0  0  0
 26 29  1  0  0  0  0
 27 29  1  0  0  0  0
 29 28  2  0  0  0  0
 31 30  1  0  0  0  0
 31 32  1  0  0  0  0
 32 33  1  0  0  0  0
 34 40  1  0  0  0  0
 35 42  1  0  0  0  0
 35 41  1  1  0  0  0
 36 39  1  6  0  0  0
 37 33  1  6  0  0  0
 37 42  1  0  0  0  0
 38 36  1  0  0  0  0
 38 35  1  0  0  0  0
 41 34  2  0  0  0  0
 42 43  1  1  0  0  0
 43 40  1  0  0  0  0
 44 36  1  0  0  0  0
 44 37  1  0  0  0  0
 44 45  1  1  0  0  0
 45 46  1  0  0  0  0
 48 46  1  6  0  0  0
 48 49  1  0  0  0  0
 48 51  1  0  0  0  0
 49 50  1  0  0  0  0
 50 47  1  6  0  0  0
 51 50  1  0  0  0  0
 52 49  1  0  0  0  0
 53 49  1  0  0  0  0
M  END
>  <MODEL>
6

>  <REMARK>
 VINA RESULT:      -6.9      2.730      8.532
  Name = 
  17 active torsions:
  status: ('A' for Active; 'I' for Inactive)
    1  A    between atoms: O_1  and  C_13
    2  A    between atoms: O_1  and  C_22
    3  A    between atoms: C_3  and  C_28
    4  A    between atoms: N_4  and  C_7
    5  A    between atoms: N_4  and  C_8
    6  A    between atoms: N_4  and  C_21
    7  A    between atoms: C_7  and  C_37
    8  A    between atoms: C_10  and  C_47
    9  A    between atoms: C_10  and  O_53
   10  A    between atoms: C_15  and  O_53
   11  A    between atoms: C_18  and  C_28
   12  A    between atoms: C_19  and  C_38
   13  A    between atoms: C_21  and  N_24
   14  A    between atoms: C_22  and  N_29
   15  A    between atoms: C_28  and  C_31
   16  A    between atoms: N_29  and  C_38
   17  A    between atoms: C_31  and  C_39
                            x       y       z     vdW  Elec       q    Type
                         _______ _______ _______ _____ _____    ______ ____

>  <TORSDO>
F 17

$$$$
=
 OpenBabel11062420273D

 53 57  0  0  1  0  0  0  0  0999 V2000
  188.8630  173.6290  139.9360 C   0  0  1  0  0  3  0  0  0  0  0  0
  190.3620  173.7500  139.6800 C   0  0  0  0  0  2  0  0  0  0  0  0
  188.2230  172.7680  138.9450 N   0  0  0  0  0  2  0  0  0  0  0  0
  190.7860  172.8890  138.4830 C   0  0  1  0  0  3  0  0  0  0  0  0
  189.9860  173.0920  137.3340 O   0  0  0  0  0  0  0  0  0  0  0  0
  188.6060  173.2600  137.6210 C   0  0  0  0  0  2  0  0  0  0  0  0
  192.2590  173.1000  138.1230 C   0  0  2  0  0  3  0  0  0  0  0  0
  192.5200  172.7090  136.8020 O   0  0  0  0  0  1  0  0  0  0  0  0
  193.1480  172.4160  139.0600 N   0  0  0  0  0  0  0  0  0  0  0  0
  193.1140  170.9880  139.1870 C   0  0  0  0  0  3  0  0  0  0  0  0
  192.8220  170.3400  140.3170 C   0  0  0  0  0  3  0  0  0  0  0  0
  192.4000  170.9950  141.6000 C   0  0  1  0  0  3  0  0  0  0  0  0
  190.7260  169.2970  141.8370 O   0  0  0  0  0  1  0  0  0  0  0  0
  190.9490  170.6710  141.9690 C   0  0  0  0  0  3  0  0  0  0  0  0
  190.6680  171.0640  143.2810 O   0  0  0  0  0  1  0  0  0  0  0  0
  193.4100  170.8380  142.7540 C   0  0  0  0  0  2  0  0  0  0  0  0
  195.2920  174.0410  144.9820 C   0  0  0  0  0  2  0  0  0  0  0  0
  194.5500  170.7500  145.5430 C   0  0  0  0  0  1  0  0  0  0  0  0
  195.3300  172.3880  143.0640 C   0  0  0  0  0  2  0  0  0  0  0  0
  193.7850  171.9560  145.0300 C   0  0  1  0  0  3  0  0  0  0  0  0
  194.2760  173.2100  145.7650 C   0  0  0  0  0  2  0  0  0  0  0  0
  193.8810  172.1040  143.4960 C   0  0  2  0  0  0  0  0  0  0  0  0
  196.1640  173.1470  144.1020 C   0  0  0  0  0  2  0  0  0  0  0  0
  193.1050  173.1900  143.0790 O   0  0  0  0  0  1  0  0  0  0  0  0
  194.0960  173.2090  139.8350 C   0  0  0  0  0  2  0  0  0  0  0  0
  195.6800  175.6880  140.5150 C   0  0  0  0  0  1  0  0  0  0  0  0
  195.1590  173.7240  138.9820 N   0  0  0  0  0  2  0  0  0  0  0  0
  196.8330  175.2890  138.4500 N   0  0  0  0  0  2  0  0  0  0  0  0
  195.9230  174.9000  139.2800 C   0  0  0  0  0  0  0  0  0  0  0  0
  188.6410  173.0730  141.3320 C   0  0  0  0  0  2  0  0  0  0  0  0
  187.6490  173.8570  142.0490 N   0  0  0  0  0  2  0  0  0  0  0  0
  188.3280  174.9620  142.7150 C   0  0  0  0  0  2  0  0  0  0  0  0
  189.2760  174.4680  143.6180 O   0  0  0  0  0  0  0  0  0  0  0  0
  192.3050  176.1560  147.4960 C   0  0  0  0  0  3  0  0  0  0  0  0
  191.6260  175.6400  145.1570 C   0  0  1  0  0  3  0  0  0  0  0  0
  190.4420  177.3920  144.2820 C   0  0  1  0  0  3  0  0  0  0  0  0
  189.1360  175.2540  144.7590 C   0  0  1  0  0  3  0  0  0  0  0  0
  191.4440  176.4430  144.0090 O   0  0  0  0  0  0  0  0  0  0  0  0
  190.4620  178.4610  143.2050 C   0  0  0  0  0  1  0  0  0  0  0  0
  191.1960  175.2910  148.0180 C   0  0  0  0  0  2  0  0  0  0  0  0
  192.5090  176.3110  146.1810 C   0  0  0  0  0  3  0  0  0  0  0  0
  190.3150  174.9970  145.7010 C   0  0  2  0  0  3  0  0  0  0  0  0
  189.9690  175.4420  147.1260 C   0  0  0  0  0  2  0  0  0  0  0  0
  189.0540  176.7310  144.3460 C   0  0  1  0  0  3  0  0  0  0  0  0
  188.1550  177.4820  145.3150 C   0  0  0  0  0  2  0  0  0  0  0  0
  187.1850  178.2010  144.6140 O   0  0  0  0  0  0  0  0  0  0  0  0
  185.9450  179.4320  147.6370 O   0  0  0  0  0  1  0  0  0  0  0  0
  185.9660  177.7070  145.0840 C   0  0  2  0  0  3  0  0  0  0  0  0
  185.0380  178.8440  145.4870 C   0  0  0  0  0  0  0  0  0  0  0  0
  185.1930  178.4720  146.9550 C   0  0  1  0  0  3  0  0  0  0  0  0
  186.1000  177.3210  146.5500 C   0  0  0  0  0  2  0  0  0  0  0  0
  185.5160  180.1040  145.1620 F   0  0  0  0  0  0  0  0  0  0  0  0
  183.7490  178.6370  145.0400 F   0  0  0  0  0  0  0  0  0  0  0  0
  1 30  1  1  0  0  0
  2  1  1  0  0  0  0
  3  1  1  0  0  0  0
  4  7  1  6  0  0  0
  4  2  1  0  0  0  0
  5  6  1  0  0  0  0
  5  4  1  0  0  0  0
  6  3  1  0  0  0  0
  7  8  1  6  0  0  0
  7  9  1  0  0  0  0
  9 10  1  0  0  0  0
  9 25  1  0  0  0  0
 10 11  2  0  0  0  0
 12 11  1  6  0  0  0
 12 14  1  0  0  0  0
 12 16  1  0  0  0  0
 13 14  1  0  0  0  0
 14 15  1  0  0  0  0
 16 22  1  0  0  0  0
 17 21  1  0  0  0  0
 19 22  1  0  0  0  0
 19 23  1  0  0  0  0
 20 18  1  1  0  0  0
 20 21  1  0  0  0  0
 22 24  1  6  0  0  0
 22 20  1  0  0  0  0
 23 17  1  0  0  0  0
 27 29  1  0  0  0  0
 27 25  1  0  0  0  0
 28 29  2  0  0  0  0
 29 26  1  0  0  0  0
 30 31  1  0  0  0  0
 31 32  1  0  0  0  0
 32 33  1  0  0  0  0
 34 40  1  0  0  0  0
 35 42  1  0  0  0  0
 35 41  1  1  0  0  0
 36 39  1  6  0  0  0
 36 44  1  0  0  0  0
 37 33  1  6  0  0  0
 37 42  1  0  0  0  0
 38 36  1  0  0  0  0
 38 35  1  0  0  0  0
 41 34  2  0  0  0  0
 42 43  1  1  0  0  0
 43 40  1  0  0  0  0
 44 37  1  0  0  0  0
 44 45  1  1  0  0  0
 46 45  1  0  0  0  0
 48 46  1  1  0  0  0
 48 49  1  0  0  0  0
 48 51  1  0  0  0  0
 49 50  1  0  0  0  0
 50 47  1  1  0  0  0
 51 50  1  0  0  0  0
 52 49  1  0  0  0  0
 53 49  1  0  0  0  0
M  END
>  <MODEL>
7

>  <REMARK>
 VINA RESULT:      -6.9      2.859      8.103
  Name = 
  17 active torsions:
  status: ('A' for Active; 'I' for Inactive)
    1  A    between atoms: O_1  and  C_13
    2  A    between atoms: O_1  and  C_22
    3  A    between atoms: C_3  and  C_28
    4  A    between atoms: N_4  and  C_7
    5  A    between atoms: N_4  and  C_8
    6  A    between atoms: N_4  and  C_21
    7  A    between atoms: C_7  and  C_37
    8  A    between atoms: C_10  and  C_47
    9  A    between atoms: C_10  and  O_53
   10  A    between atoms: C_15  and  O_53
   11  A    between atoms: C_18  and  C_28
   12  A    between atoms: C_19  and  C_38
   13  A    between atoms: C_21  and  N_24
   14  A    between atoms: C_22  and  N_29
   15  A    between atoms: C_28  and  C_31
   16  A    between atoms: N_29  and  C_38
   17  A    between atoms: C_31  and  C_39
                            x       y       z     vdW  Elec       q    Type
                         _______ _______ _______ _____ _____    ______ ____

>  <TORSDO>
F 17

$$$$
=
 OpenBabel11062420273D

 53 57  0  0  1  0  0  0  0  0999 V2000
  189.5710  173.2750  140.2840 C   0  0  1  0  0  3  0  0  0  0  0  0
  191.0370  173.6950  140.3320 C   0  0  0  0  0  2  0  0  0  0  0  0
  189.3740  172.1350  139.3920 N   0  0  0  0  0  2  0  0  0  0  0  0
  191.9030  172.7670  139.4700 C   0  0  1  0  0  3  0  0  0  0  0  0
  191.3980  172.5830  138.1610 O   0  0  0  0  0  0  0  0  0  0  0  0
  189.9830  172.4720  138.1050 C   0  0  0  0  0  2  0  0  0  0  0  0
  193.3530  173.2490  139.3940 C   0  0  2  0  0  3  0  0  0  0  0  0
  193.8110  173.2760  138.0690 O   0  0  0  0  0  1  0  0  0  0  0  0
  194.2360  172.4470  140.2390 N   0  0  0  0  0  0  0  0  0  0  0  0
  194.1120  171.0190  140.2730 C   0  0  0  0  0  3  0  0  0  0  0  0
  193.7530  170.3200  141.3520 C   0  0  0  0  0  3  0  0  0  0  0  0
  193.3390  170.9170  142.6650 C   0  0  1  0  0  3  0  0  0  0  0  0
  191.1830  169.9960  142.1670 O   0  0  0  0  0  1  0  0  0  0  0  0
  191.8200  171.0820  142.7760 C   0  0  0  0  0  3  0  0  0  0  0  0
  191.4230  171.1640  144.1140 O   0  0  0  0  0  1  0  0  0  0  0  0
  194.0080  170.2720  143.8940 C   0  0  0  0  0  2  0  0  0  0  0  0
  196.5840  173.0880  145.9450 C   0  0  0  0  0  2  0  0  0  0  0  0
  196.9260  170.8390  143.3910 C   0  0  0  0  0  1  0  0  0  0  0  0
  194.6370  172.6270  144.3930 C   0  0  0  0  0  2  0  0  0  0  0  0
  196.3500  170.7980  144.7950 C   0  0  1  0  0  3  0  0  0  0  0  0
  197.1880  171.7040  145.7060 C   0  0  0  0  0  2  0  0  0  0  0  0
  194.8510  171.1660  144.8260 C   0  0  2  0  0  0  0  0  0  0  0  0
  195.8070  173.5610  144.7180 C   0  0  0  0  0  2  0  0  0  0  0  0
  194.3650  171.0450  146.1310 O   0  0  0  0  0  1  0  0  0  0  0  0
  195.2660  173.1230  141.0190 C   0  0  0  0  0  2  0  0  0  0  0  0
  197.4650  175.1820  141.2310 C   0  0  0  0  0  1  0  0  0  0  0  0
  195.0020  174.5540  141.0970 N   0  0  0  0  0  2  0  0  0  0  0  0
  195.6900  176.7950  141.2860 N   0  0  0  0  0  2  0  0  0  0  0  0
  196.0260  175.5510  141.2020 C   0  0  0  0  0  0  0  0  0  0  0  0
  189.1080  172.9270  141.6880 C   0  0  0  0  0  2  0  0  0  0  0  0
  187.8140  173.5270  141.9690 N   0  0  0  0  0  2  0  0  0  0  0  0
  188.0140  174.9450  142.2420 C   0  0  0  0  0  2  0  0  0  0  0  0
  186.9300  175.4510  142.9670 O   0  0  0  0  0  0  0  0  0  0  0  0
  184.9080  179.4060  145.6770 C   0  0  0  0  0  3  0  0  0  0  0  0
  185.5730  177.0620  145.1650 C   0  0  1  0  0  3  0  0  0  0  0  0
  187.7370  176.7030  145.8190 C   0  0  1  0  0  3  0  0  0  0  0  0
  187.2940  176.7520  143.3070 C   0  0  1  0  0  3  0  0  0  0  0  0
  186.4440  176.1490  145.8010 O   0  0  0  0  0  0  0  0  0  0  0  0
  188.6070  175.9080  146.7750 C   0  0  0  0  0  1  0  0  0  0  0  0
  185.1000  179.7830  144.2370 C   0  0  0  0  0  2  0  0  0  0  0  0
  185.1170  178.1530  146.1030 C   0  0  0  0  0  3  0  0  0  0  0  0
  186.0520  177.5260  143.7570 C   0  0  2  0  0  3  0  0  0  0  0  0
  186.3020  179.0350  143.6710 C   0  0  0  0  0  2  0  0  0  0  0  0
  188.3600  176.7030  144.4120 C   0  0  1  0  0  3  0  0  0  0  0  0
  189.3110  177.8790  144.2550 C   0  0  0  0  0  2  0  0  0  0  0  0
  190.5740  177.5470  144.7470 O   0  0  0  0  0  0  0  0  0  0  0  0
  193.9740  176.7760  144.5620 O   0  0  0  0  0  1  0  0  0  0  0  0
  190.9640  176.4290  144.0060 C   0  0  2  0  0  3  0  0  0  0  0  0
  191.9170  175.5530  144.8050 C   0  0  0  0  0  0  0  0  0  0  0  0
  193.0700  175.9470  143.8930 C   0  0  1  0  0  3  0  0  0  0  0  0
  192.1120  176.8020  143.0800 C   0  0  0  0  0  2  0  0  0  0  0  0
  192.0710  175.9460  146.1260 F   0  0  0  0  0  0  0  0  0  0  0  0
  191.6040  174.2130  144.6860 F   0  0  0  0  0  0  0  0  0  0  0  0
  1  2  1  0  0  0  0
  1 30  1  1  0  0  0
  3  1  1  0  0  0  0
  4  7  1  6  0  0  0
  4  2  1  0  0  0  0
  5  4  1  0  0  0  0
  6  5  1  0  0  0  0
  6  3  1  0  0  0  0
  7  8  1  6  0  0  0
  7  9  1  0  0  0  0
  9 10  1  0  0  0  0
  9 25  1  0  0  0  0
 10 11  2  0  0  0  0
 12 11  1  6  0  0  0
 12 14  1  0  0  0  0
 12 16  1  0  0  0  0
 13 14  1  0  0  0  0
 14 15  1  0  0  0  0
 16 22  1  0  0  0  0
 19 23  1  0  0  0  0
 19 22  1  0  0  0  0
 20 18  1  6  0  0  0
 20 22  1  0  0  0  0
 20 21  1  0  0  0  0
 21 17  1  0  0  0  0
 22 24  1  1  0  0  0
 23 17  1  0  0  0  0
 25 27  1  0  0  0  0
 27 29  1  0  0  0  0
 29 26  1  0  0  0  0
 29 28  2  0  0  0  0
 30 31  1  0  0  0  0
 31 32  1  0  0  0  0
 32 33  1  0  0  0  0
 34 41  2  0  0  0  0
 35 38  1  0  0  0  0
 35 41  1  1  0  0  0
 36 39  1  1  0  0  0
 37 33  1  1  0  0  0
 37 42  1  0  0  0  0
 37 44  1  0  0  0  0
 38 36  1  0  0  0  0
 40 34  1  0  0  0  0
 42 43  1  1  0  0  0
 42 35  1  0  0  0  0
 43 40  1  0  0  0  0
 44 45  1  1  0  0  0
 44 36  1  0  0  0  0
 45 46  1  0  0  0  0
 48 46  1  1  0  0  0
 48 49  1  0  0  0  0
 49 52  1  0  0  0  0
 50 47  1  1  0  0  0
 50 49  1  0  0  0  0
 51 50  1  0  0  0  0
 51 48  1  0  0  0  0
 53 49  1  0  0  0  0
M  END
>  <MODEL>
8

>  <REMARK>
 VINA RESULT:      -6.9      2.315      8.857
  Name = 
  17 active torsions:
  status: ('A' for Active; 'I' for Inactive)
    1  A    between atoms: O_1  and  C_13
    2  A    between atoms: O_1  and  C_22
    3  A    between atoms: C_3  and  C_28
    4  A    between atoms: N_4  and  C_7
    5  A    between atoms: N_4  and  C_8
    6  A    between atoms: N_4  and  C_21
    7  A    between atoms: C_7  and  C_37
    8  A    between atoms: C_10  and  C_47
    9  A    between atoms: C_10  and  O_53
   10  A    between atoms: C_15  and  O_53
   11  A    between atoms: C_18  and  C_28
   12  A    between atoms: C_19  and  C_38
   13  A    between atoms: C_21  and  N_24
   14  A    between atoms: C_22  and  N_29
   15  A    between atoms: C_28  and  C_31
   16  A    between atoms: N_29  and  C_38
   17  A    between atoms: C_31  and  C_39
                            x       y       z     vdW  Elec       q    Type
                         _______ _______ _______ _____ _____    ______ ____

>  <TORSDO>
F 17

$$$$
=
 OpenBabel11062420273D

 53 57  0  0  1  0  0  0  0  0999 V2000
  190.8420  171.3450  140.0770 C   0  0  1  0  0  3  0  0  0  0  0  0
  192.2190  171.9900  139.9540 C   0  0  0  0  0  2  0  0  0  0  0  0
  190.6220  170.8160  141.4210 N   0  0  0  0  0  2  0  0  0  0  0  0
  192.9670  171.9480  141.2930 C   0  0  1  0  0  3  0  0  0  0  0  0
  192.9820  170.6650  141.8880 O   0  0  0  0  0  0  0  0  0  0  0  0
  191.7600  169.9560  141.7480 C   0  0  0  0  0  2  0  0  0  0  0  0
  194.4010  172.4650  141.1600 C   0  0  2  0  0  3  0  0  0  0  0  0
  195.3210  171.4080  141.1250 O   0  0  0  0  0  1  0  0  0  0  0  0
  194.7340  173.4170  142.2180 N   0  0  0  0  0  0  0  0  0  0  0  0
  196.0950  173.6030  142.6310 C   0  0  0  0  0  3  0  0  0  0  0  0
  196.9640  174.4080  142.0160 C   0  0  0  0  0  3  0  0  0  0  0  0
  196.6360  175.3060  140.8580 C   0  0  1  0  0  3  0  0  0  0  0  0
  194.9010  176.9280  141.1740 O   0  0  0  0  0  1  0  0  0  0  0  0
  196.2780  176.7260  141.3080 C   0  0  0  0  0  3  0  0  0  0  0  0
  196.6530  176.9370  142.6380 O   0  0  0  0  0  1  0  0  0  0  0  0
  197.6420  175.2320  139.6940 C   0  0  0  0  0  2  0  0  0  0  0  0
  195.9820  173.1900  136.2530 C   0  0  0  0  0  2  0  0  0  0  0  0
  197.8780  172.3170  138.9610 C   0  0  0  0  0  1  0  0  0  0  0  0
  195.6550  174.3790  138.4640 C   0  0  0  0  0  2  0  0  0  0  0  0
  197.9360  173.4120  137.9120 C   0  0  1  0  0  3  0  0  0  0  0  0
  197.4360  172.8500  136.5740 C   0  0  0  0  0  2  0  0  0  0  0  0
  197.1590  174.6760  138.3390 C   0  0  2  0  0  0  0  0  0  0  0  0
  195.1480  173.2750  137.5290 C   0  0  0  0  0  2  0  0  0  0  0  0
  197.3050  175.6690  137.3640 O   0  0  0  0  0  1  0  0  0  0  0  0
  193.6610  174.2000  142.8220 C   0  0  0  0  0  2  0  0  0  0  0  0
  193.2860  173.6790  145.7730 C   0  0  0  0  0  1  0  0  0  0  0  0
  194.1840  175.0880  143.8520 N   0  0  0  0  0  2  0  0  0  0  0  0
  194.5000  175.7230  146.0950 N   0  0  0  0  0  2  0  0  0  0  0  0
  194.0170  174.8660  145.2580 C   0  0  0  0  0  0  0  0  0  0  0  0
  189.7790  172.3760  139.7410 C   0  0  0  0  0  2  0  0  0  0  0  0
  190.2320  173.7150  140.0790 N   0  0  0  0  0  2  0  0  0  0  0  0
  189.3870  174.2300  141.1500 C   0  0  0  0  0  2  0  0  0  0  0  0
  190.0940  174.2350  142.3580 O   0  0  0  0  0  0  0  0  0  0  0  0
  190.2780  176.7960  146.8830 C   0  0  0  0  0  3  0  0  0  0  0  0
  190.8050  176.2690  144.5070 C   0  0  1  0  0  3  0  0  0  0  0  0
  189.2610  177.2450  143.1290 C   0  0  1  0  0  3  0  0  0  0  0  0
  189.1890  174.7020  143.3080 C   0  0  1  0  0  3  0  0  0  0  0  0
  190.6330  176.9870  143.3030 O   0  0  0  0  0  0  0  0  0  0  0  0
  189.0850  178.2850  142.0370 C   0  0  0  0  0  1  0  0  0  0  0  0
  189.6830  175.4300  147.0620 C   0  0  0  0  0  2  0  0  0  0  0  0
  190.8010  177.1800  145.7110 C   0  0  0  0  0  3  0  0  0  0  0  0
  189.9290  174.9860  144.6180 C   0  0  2  0  0  3  0  0  0  0  0  0
  188.9440  175.0260  145.7910 C   0  0  0  0  0  2  0  0  0  0  0  0
  188.4960  175.9610  142.7660 C   0  0  1  0  0  3  0  0  0  0  0  0
  187.0720  176.0270  143.2960 C   0  0  0  0  0  2  0  0  0  0  0  0
  186.9010  177.1700  144.0790 O   0  0  0  0  0  0  0  0  0  0  0  0
  185.5660  180.3880  144.2950 O   0  0  0  0  0  1  0  0  0  0  0  0
  185.5180  177.3090  144.2100 C   0  0  2  0  0  3  0  0  0  0  0  0
  184.9760  178.3220  143.2130 C   0  0  0  0  0  0  0  0  0  0  0  0
  184.6870  179.3030  144.3400 C   0  0  1  0  0  3  0  0  0  0  0  0
  185.2050  178.2810  145.3390 C   0  0  0  0  0  2  0  0  0  0  0  0
  185.9150  178.7660  142.2940 F   0  0  0  0  0  0  0  0  0  0  0  0
  183.8160  177.8780  142.6100 F   0  0  0  0  0  0  0  0  0  0  0  0
  1 30  1  1  0  0  0
  1  3  1  0  0  0  0
  2  1  1  0  0  0  0
  2  4  1  0  0  0  0
  3  6  1  0  0  0  0
  4  7  1  6  0  0  0
  4  5  1  0  0  0  0
  6  5  1  0  0  0  0
  7  8  1  1  0  0  0
  7  9  1  0  0  0  0
  9 10  1  0  0  0  0
  9 25  1  0  0  0  0
 11 10  2  0  0  0  0
 12 16  1  6  0  0  0
 12 14  1  0  0  0  0
 12 11  1  0  0  0  0
 13 14  1  0  0  0  0
 14 15  1  0  0  0  0
 17 21  1  0  0  0  0
 17 23  1  0  0  0  0
 20 22  1  0  0  0  0
 20 18  1  1  0  0  0
 21 20  1  0  0  0  0
 22 24  1  6  0  0  0
 22 19  1  0  0  0  0
 22 16  1  0  0  0  0
 23 19  1  0  0  0  0
 25 27  1  0  0  0  0
 27 29  1  0  0  0  0
 29 26  1  0  0  0  0
 29 28  2  0  0  0  0
 30 31  1  0  0  0  0
 31 32  1  0  0  0  0
 32 33  1  0  0  0  0
 34 40  1  0  0  0  0
 35 42  1  0  0  0  0
 35 41  1  1  0  0  0
 36 39  1  6  0  0  0
 36 38  1  0  0  0  0
 37 33  1  6  0  0  0
 37 42  1  0  0  0  0
 38 35  1  0  0  0  0
 41 34  2  0  0  0  0
 42 43  1  1  0  0  0
 43 40  1  0  0  0  0
 44 36  1  0  0  0  0
 44 45  1  1  0  0  0
 44 37  1  0  0  0  0
 45 46  1  0  0  0  0
 48 46  1  6  0  0  0
 48 51  1  0  0  0  0
 49 48  1  0  0  0  0
 49 50  1  0  0  0  0
 50 47  1  6  0  0  0
 50 51  1  0  0  0  0
 52 49  1  0  0  0  0
 53 49  1  0  0  0  0
M  END
>  <MODEL>
9

>  <REMARK>
 VINA RESULT:      -6.8      3.631      9.217
  Name = 
  17 active torsions:
  status: ('A' for Active; 'I' for Inactive)
    1  A    between atoms: O_1  and  C_13
    2  A    between atoms: O_1  and  C_22
    3  A    between atoms: C_3  and  C_28
    4  A    between atoms: N_4  and  C_7
    5  A    between atoms: N_4  and  C_8
    6  A    between atoms: N_4  and  C_21
    7  A    between atoms: C_7  and  C_37
    8  A    between atoms: C_10  and  C_47
    9  A    between atoms: C_10  and  O_53
   10  A    between atoms: C_15  and  O_53
   11  A    between atoms: C_18  and  C_28
   12  A    between atoms: C_19  and  C_38
   13  A    between atoms: C_21  and  N_24
   14  A    between atoms: C_22  and  N_29
   15  A    between atoms: C_28  and  C_31
   16  A    between atoms: N_29  and  C_38
   17  A    between atoms: C_31  and  C_39
                            x       y       z     vdW  Elec       q    Type
                         _______ _______ _______ _____ _____    ______ ____

>  <TORSDO>
F 17

$$$$
