=
 OpenBabel11072409033D

 47 52  0  0  1  0  0  0  0  0999 V2000
  190.5580  173.3450  138.5920 C   0  0  0  0  0  0  0  0  0  0  0  0
  192.0370  174.2830  140.6350 N   0  0  0  0  0  0  0  0  0  0  0  0
  191.1700  172.4430  136.6660 N   0  0  0  0  0  2  0  0  0  0  0  0
  192.2450  172.7490  137.3550 O   0  0  0  0  0  0  0  0  0  0  0  0
  189.9070  173.8500  139.6650 N   0  0  0  0  0  2  0  0  0  0  0  0
  188.9040  172.6800  137.0650 O   0  0  0  0  0  0  0  0  0  0  0  0
  190.6650  174.3270  140.7050 C   0  0  0  0  0  0  0  0  0  0  0  0
  191.9060  173.2880  138.5050 C   0  0  0  0  0  0  0  0  0  0  0  0
  192.6880  173.7640  139.5480 C   0  0  2  0  0  3  0  0  0  0  0  0
  190.1070  172.8090  137.4180 C   0  0  0  0  0  0  0  0  0  0  0  0
  194.7910  175.0300  139.8510 C   0  0  0  0  0  2  0  0  0  0  0  0
  194.1810  173.6910  139.4950 C   0  0  1  0  0  3  0  0  0  0  0  0
  195.7420  174.7480  140.9950 C   0  0  0  0  0  2  0  0  0  0  0  0
  194.6990  172.7080  140.5300 C   0  0  0  0  0  2  0  0  0  0  0  0
  195.3440  173.4790  141.5890 N   0  0  0  0  0  0  0  0  0  0  0  0
  196.5130  172.7560  142.1020 C   0  0  0  0  0  2  0  0  0  0  0  0
  196.9960  173.2410  143.4720 C   0  0  2  0  0  3  0  0  0  0  0  0
  197.8260  172.1500  144.1180 C   0  0  0  0  0  1  0  0  0  0  0  0
  194.4080  175.0950  145.5850 N   0  0  0  0  0  2  0  0  0  0  0  0
  195.8490  173.5500  144.3150 N   0  0  0  0  0  2  0  0  0  0  0  0
  196.2390  175.8540  144.3520 O   0  0  0  0  0  0  0  0  0  0  0  0
  195.5340  174.8800  144.7350 C   0  0  0  0  0  0  0  0  0  0  0  0
  194.0460  176.4200  146.0640 C   0  0  0  0  0  2  0  0  0  0  0  0
  192.5440  176.5010  146.2830 C   0  0  0  0  0  2  0  0  0  0  0  0
  192.0820  175.4860  147.3140 C   0  0  0  0  0  2  0  0  0  0  0  0
  190.6930  175.8360  147.8130 C   0  0  0  0  0  1  0  0  0  0  0  0
  190.0100  174.9030  141.9320 C   0  0  1  0  0  3  0  0  0  0  0  0
  188.5480  176.8400  142.2280 C   0  0  1  0  0  3  0  0  0  0  0  0
  185.9880  177.1930  143.2400 C   0  0  0  0  0  3  0  0  0  0  0  0
  189.5750  177.3910  143.2180 C   0  0  0  0  0  2  0  0  0  0  0  0
  187.7350  177.8430  144.9690 C   0  0  0  0  0  3  0  0  0  0  0  0
  186.4760  175.8240  142.7980 C   0  0  0  0  0  2  0  0  0  0  0  0
  186.5220  178.0720  144.1240 C   0  0  0  0  0  0  0  0  0  0  0  0
  188.6990  175.4880  141.6270 N   0  0  0  0  0  0  0  0  0  0  0  0
  189.0050  177.5580  144.6140 C   0  0  0  0  0  3  0  0  0  0  0  0
  187.9810  175.6670  142.8970 C   0  0  1  0  0  3  0  0  0  0  0  0
  185.7170  179.3110  144.4390 C   0  0  0  0  0  0  0  0  0  0  0  0
  185.9600  180.3130  143.5120 F   0  0  0  0  0  0  0  0  0  0  0  0
  186.0820  179.7940  145.6850 F   0  0  0  0  0  0  0  0  0  0  0  0
  183.7680  178.7370  145.8250 N   0  0  0  0  0  1  0  0  0  0  0  0
  184.2240  178.9930  144.4650 C   0  0  0  0  0  2  0  0  0  0  0  0
  189.6040  171.8990  144.9870 C   0  0  0  0  0  3  0  0  0  0  0  0
  190.2840  174.1290  144.3260 C   0  0  0  0  0  3  0  0  0  0  0  0
  189.2040  171.6310  143.6730 C   0  0  0  0  0  3  0  0  0  0  0  0
  189.8870  173.8610  143.0060 C   0  0  0  0  0  0  0  0  0  0  0  0
  189.3430  172.6100  142.6850 C   0  0  0  0  0  3  0  0  0  0  0  0
  190.1440  173.1480  145.3130 C   0  0  0  0  0  3  0  0  0  0  0  0
  1  5  1  0  0  0  0
  2  7  2  0  0  0  0
  3  4  1  0  0  0  0
  3 10  1  0  0  0  0
  4  8  1  0  0  0  0
  5  7  1  0  0  0  0
  6 10  2  0  0  0  0
  8  1  2  0  0  0  0
  9  8  1  1  0  0  0
  9  2  1  0  0  0  0
 10  1  1  0  0  0  0
 11 13  1  0  0  0  0
 12  9  1  0  0  0  0
 12 11  1  1  0  0  0
 12 14  1  0  0  0  0
 13 15  1  0  0  0  0
 14 15  1  0  0  0  0
 15 16  1  0  0  0  0
 16 17  1  0  0  0  0
 17 18  1  1  0  0  0
 17 20  1  0  0  0  0
 19 23  1  0  0  0  0
 20 22  1  0  0  0  0
 21 22  2  0  0  0  0
 22 19  1  0  0  0  0
 23 24  1  0  0  0  0
 24 25  1  0  0  0  0
 25 26  1  0  0  0  0
 27  7  1  6  0  0  0
 27 45  1  0  0  0  0
 28 36  1  0  0  0  0
 28 30  1  1  0  0  0
 29 33  2  0  0  0  0
 30 35  1  0  0  0  0
 32 29  1  0  0  0  0
 33 37  1  0  0  0  0
 33 31  1  0  0  0  0
 34 27  1  0  0  0  0
 34 28  1  0  0  0  0
 34 36  1  0  0  0  0
 35 31  2  0  0  0  0
 36 32  1  6  0  0  0
 37 41  1  0  0  0  0
 37 39  1  0  0  0  0
 38 37  1  0  0  0  0
 41 40  1  0  0  0  0
 42 47  1  0  0  0  0
 43 47  2  0  0  0  0
 44 42  2  0  0  0  0
 45 43  1  0  0  0  0
 46 45  2  0  0  0  0
 46 44  1  0  0  0  0
M  END
>  <MODEL>
1

>  <REMARK>
 VINA RESULT:      -7.3      0.000      0.000
  Name = 
  12 active torsions:
  status: ('A' for Active; 'I' for Inactive)
    1  A    between atoms: C_8  and  C_26
    2  A    between atoms: C_9  and  C_28
    3  A    between atoms: C_9  and  N_40
    4  A    between atoms: C_10  and  C_29
    5  A    between atoms: C_10  and  C_39
    6  A    between atoms: C_15  and  N_17
    7  A    between atoms: C_15  and  C_26
    8  A    between atoms: C_21  and  C_45
    9  A    between atoms: C_25  and  C_30
   10  A    between atoms: C_25  and  C_32
   11  A    between atoms: C_25  and  N_41
   12  A    between atoms: C_28  and  N_31
                            x       y       z     vdW  Elec       q    Type
                         _______ _______ _______ _____ _____    ______ ____

>  <TORSDO>
F 12

$$$$
=
 OpenBabel11072409033D

 47 52  0  0  1  0  0  0  0  0999 V2000
  194.8690  175.0690  144.6870 C   0  0  0  0  0  0  0  0  0  0  0  0
  193.0660  175.9740  142.9080 N   0  0  0  0  0  0  0  0  0  0  0  0
  197.0690  174.8750  144.5380 N   0  0  0  0  0  2  0  0  0  0  0  0
  196.6070  175.3740  143.4150 O   0  0  0  0  0  0  0  0  0  0  0  0
  193.5670  175.0750  145.0530 N   0  0  0  0  0  2  0  0  0  0  0  0
  196.0650  174.1870  146.5050 O   0  0  0  0  0  0  0  0  0  0  0  0
  192.6510  175.5370  144.1440 C   0  0  0  0  0  0  0  0  0  0  0  0
  195.3000  175.4980  143.4800 C   0  0  0  0  0  0  0  0  0  0  0  0
  194.3870  175.9710  142.5480 C   0  0  2  0  0  3  0  0  0  0  0  0
  196.0020  174.6740  145.3450 C   0  0  0  0  0  0  0  0  0  0  0  0
  196.3320  176.6940  141.2020 C   0  0  0  0  0  2  0  0  0  0  0  0
  194.8330  176.4790  141.2130 C   0  0  1  0  0  3  0  0  0  0  0  0
  196.8450  175.8830  140.0310 C   0  0  0  0  0  2  0  0  0  0  0  0
  194.5510  175.4490  140.1340 C   0  0  0  0  0  2  0  0  0  0  0  0
  195.8300  174.8880  139.7120 N   0  0  0  0  0  0  0  0  0  0  0  0
  195.8110  174.6090  138.2710 C   0  0  0  0  0  2  0  0  0  0  0  0
  196.0290  173.1340  137.9170 C   0  0  2  0  0  3  0  0  0  0  0  0
  196.3280  173.0220  136.4360 C   0  0  0  0  0  1  0  0  0  0  0  0
  193.5230  170.8110  139.6260 N   0  0  0  0  0  2  0  0  0  0  0  0
  194.8300  172.3710  138.2360 N   0  0  0  0  0  2  0  0  0  0  0  0
  195.6760  171.4860  140.2260 O   0  0  0  0  0  0  0  0  0  0  0  0
  194.7220  171.5510  139.4010 C   0  0  0  0  0  0  0  0  0  0  0  0
  193.3580  169.9420  140.7810 C   0  0  0  0  0  2  0  0  0  0  0  0
  192.6620  170.6940  141.9030 C   0  0  0  0  0  2  0  0  0  0  0  0
  193.6210  170.9970  143.0410 C   0  0  0  0  0  2  0  0  0  0  0  0
  192.9240  170.8240  144.3780 C   0  0  0  0  0  1  0  0  0  0  0  0
  191.1840  175.5750  144.4810 C   0  0  1  0  0  3  0  0  0  0  0  0
  189.6380  177.4420  144.7970 C   0  0  1  0  0  3  0  0  0  0  0  0
  187.2580  178.2070  143.5930 C   0  0  0  0  0  3  0  0  0  0  0  0
  189.3570  176.8960  146.1970 C   0  0  0  0  0  2  0  0  0  0  0  0
  186.8110  177.0420  145.8090 C   0  0  0  0  0  3  0  0  0  0  0  0
  188.2060  177.2350  142.9120 C   0  0  0  0  0  2  0  0  0  0  0  0
  186.6890  178.1610  144.8230 C   0  0  0  0  0  0  0  0  0  0  0  0
  190.5050  176.7060  143.8390 N   0  0  0  0  0  0  0  0  0  0  0  0
  187.9040  176.5020  146.3870 C   0  0  0  0  0  3  0  0  0  0  0  0
  189.0590  176.4500  143.8900 C   0  0  1  0  0  3  0  0  0  0  0  0
  185.6800  179.2350  145.1590 C   0  0  0  0  0  0  0  0  0  0  0  0
  185.7720  180.3000  144.2750 F   0  0  0  0  0  0  0  0  0  0  0  0
  185.9320  179.7230  146.4310 F   0  0  0  0  0  0  0  0  0  0  0  0
  183.6120  178.9540  143.8600 N   0  0  0  0  0  1  0  0  0  0  0  0
  184.2620  178.6720  145.1320 C   0  0  0  0  0  2  0  0  0  0  0  0
  189.3140  171.8370  143.4530 C   0  0  0  0  0  3  0  0  0  0  0  0
  190.2760  173.9510  142.7640 C   0  0  0  0  0  3  0  0  0  0  0  0
  189.5610  172.1600  144.7920 C   0  0  0  0  0  3  0  0  0  0  0  0
  190.5210  174.2800  144.1070 C   0  0  0  0  0  0  0  0  0  0  0  0
  190.1640  173.3790  145.1180 C   0  0  0  0  0  3  0  0  0  0  0  0
  189.6710  172.7320  142.4390 C   0  0  0  0  0  3  0  0  0  0  0  0
  1  5  1  0  0  0  0
  1 10  1  0  0  0  0
  2  7  2  0  0  0  0
  3 10  1  0  0  0  0
  4  8  1  0  0  0  0
  4  3  1  0  0  0  0
  7 27  1  0  0  0  0
  7  5  1  0  0  0  0
  8  1  2  0  0  0  0
  9  2  1  1  0  0  0
  9  8  1  0  0  0  0
 10  6  2  0  0  0  0
 11 12  1  0  0  0  0
 12 14  1  6  0  0  0
 12  9  1  0  0  0  0
 13 11  1  0  0  0  0
 15 13  1  0  0  0  0
 15 14  1  0  0  0  0
 16 15  1  0  0  0  0
 17 18  1  6  0  0  0
 17 20  1  0  0  0  0
 17 16  1  0  0  0  0
 19 23  1  0  0  0  0
 20 22  1  0  0  0  0
 22 19  1  0  0  0  0
 22 21  2  0  0  0  0
 23 24  1  0  0  0  0
 24 25  1  0  0  0  0
 25 26  1  0  0  0  0
 27 45  1  6  0  0  0
 28 30  1  1  0  0  0
 29 33  2  0  0  0  0
 30 35  1  0  0  0  0
 31 35  2  0  0  0  0
 32 29  1  0  0  0  0
 33 37  1  0  0  0  0
 33 31  1  0  0  0  0
 34 36  1  0  0  0  0
 34 27  1  0  0  0  0
 34 28  1  0  0  0  0
 36 32  1  6  0  0  0
 36 28  1  0  0  0  0
 37 39  1  0  0  0  0
 38 37  1  0  0  0  0
 40 41  1  0  0  0  0
 41 37  1  0  0  0  0
 42 44  1  0  0  0  0
 43 45  2  0  0  0  0
 44 46  2  0  0  0  0
 45 46  1  0  0  0  0
 47 43  1  0  0  0  0
 47 42  2  0  0  0  0
M  END
>  <MODEL>
2

>  <REMARK>
 VINA RESULT:      -7.0      2.516      5.062
  Name = 
  12 active torsions:
  status: ('A' for Active; 'I' for Inactive)
    1  A    between atoms: C_8  and  C_26
    2  A    between atoms: C_9  and  C_28
    3  A    between atoms: C_9  and  N_40
    4  A    between atoms: C_10  and  C_29
    5  A    between atoms: C_10  and  C_39
    6  A    between atoms: C_15  and  N_17
    7  A    between atoms: C_15  and  C_26
    8  A    between atoms: C_21  and  C_45
    9  A    between atoms: C_25  and  C_30
   10  A    between atoms: C_25  and  C_32
   11  A    between atoms: C_25  and  N_41
   12  A    between atoms: C_28  and  N_31
                            x       y       z     vdW  Elec       q    Type
                         _______ _______ _______ _____ _____    ______ ____

>  <TORSDO>
F 12

$$$$
=
 OpenBabel11072409033D

 47 52  0  0  1  0  0  0  0  0999 V2000
  196.1700  175.0130  142.2760 C   0  0  0  0  0  0  0  0  0  0  0  0
  194.0050  173.4710  141.8610 N   0  0  0  0  0  0  0  0  0  0  0  0
  197.6780  175.7910  140.8540 N   0  0  0  0  0  2  0  0  0  0  0  0
  196.7930  175.0820  140.1930 O   0  0  0  0  0  0  0  0  0  0  0  0
  195.4140  174.6840  143.3470 N   0  0  0  0  0  2  0  0  0  0  0  0
  197.9410  176.3210  143.0910 O   0  0  0  0  0  0  0  0  0  0  0  0
  194.3100  173.8980  143.1320 C   0  0  0  0  0  0  0  0  0  0  0  0
  195.8860  174.6080  141.0170 C   0  0  0  0  0  0  0  0  0  0  0  0
  194.7730  173.8140  140.7810 C   0  0  2  0  0  3  0  0  0  0  0  0
  197.3100  175.7590  142.1560 C   0  0  0  0  0  0  0  0  0  0  0  0
  195.0460  172.0310  139.0890 C   0  0  0  0  0  2  0  0  0  0  0  0
  194.4140  173.3720  139.3980 C   0  0  1  0  0  3  0  0  0  0  0  0
  193.9010  171.1320  138.6750 C   0  0  0  0  0  2  0  0  0  0  0  0
  192.9150  173.1630  139.2810 C   0  0  0  0  0  2  0  0  0  0  0  0
  192.6740  171.7270  139.1880 N   0  0  0  0  0  0  0  0  0  0  0  0
  191.5490  171.4590  138.2840 C   0  0  0  0  0  2  0  0  0  0  0  0
  190.3240  170.8510  138.9750 C   0  0  2  0  0  3  0  0  0  0  0  0
  189.6970  169.8240  138.0520 C   0  0  0  0  0  1  0  0  0  0  0  0
  188.3040  173.5580  140.7590 N   0  0  0  0  0  2  0  0  0  0  0  0
  189.3580  171.8990  139.2720 N   0  0  0  0  0  2  0  0  0  0  0  0
  190.1250  172.2700  141.4480 O   0  0  0  0  0  0  0  0  0  0  0  0
  189.3000  172.5600  140.5380 C   0  0  0  0  0  0  0  0  0  0  0  0
  188.1770  174.2520  142.0320 C   0  0  0  0  0  2  0  0  0  0  0  0
  187.8250  175.7120  141.7940 C   0  0  0  0  0  2  0  0  0  0  0  0
  188.9470  176.6300  142.2460 C   0  0  0  0  0  2  0  0  0  0  0  0
  188.5540  178.0810  142.0460 C   0  0  0  0  0  1  0  0  0  0  0  0
  193.4200  173.4920  144.2760 C   0  0  1  0  0  3  0  0  0  0  0  0
  191.6020  175.1170  144.4520 C   0  0  1  0  0  3  0  0  0  0  0  0
  189.0630  175.0640  145.5720 C   0  0  0  0  0  3  0  0  0  0  0  0
  192.5290  175.9750  145.3150 C   0  0  0  0  0  2  0  0  0  0  0  0
  190.7010  176.2490  147.1140 C   0  0  0  0  0  3  0  0  0  0  0  0
  189.8070  173.7800  145.2500 C   0  0  0  0  0  2  0  0  0  0  0  0
  189.4370  176.1290  146.3240 C   0  0  0  0  0  0  0  0  0  0  0  0
  192.0070  173.7630  143.9910 N   0  0  0  0  0  0  0  0  0  0  0  0
  191.9890  176.1850  146.7170 C   0  0  0  0  0  3  0  0  0  0  0  0
  191.3140  173.9410  145.2750 C   0  0  1  0  0  3  0  0  0  0  0  0
  188.4050  177.2100  146.5530 C   0  0  0  0  0  0  0  0  0  0  0  0
  188.1860  177.9440  145.3970 F   0  0  0  0  0  0  0  0  0  0  0  0
  188.8630  178.0850  147.5250 F   0  0  0  0  0  0  0  0  0  0  0  0
  186.2220  177.6290  147.6020 N   0  0  0  0  0  1  0  0  0  0  0  0
  187.0880  176.6070  147.0310 C   0  0  0  0  0  2  0  0  0  0  0  0
  194.0570  169.3510  145.2600 C   0  0  0  0  0  3  0  0  0  0  0  0
  192.8790  171.0370  143.9790 C   0  0  0  0  0  3  0  0  0  0  0  0
  194.8010  170.3520  145.8950 C   0  0  0  0  0  3  0  0  0  0  0  0
  193.6220  172.0440  144.6180 C   0  0  0  0  0  0  0  0  0  0  0  0
  194.5850  171.6960  145.5740 C   0  0  0  0  0  3  0  0  0  0  0  0
  193.0970  169.6940  144.3030 C   0  0  0  0  0  3  0  0  0  0  0  0
  1  5  1  0  0  0  0
  2  7  2  0  0  0  0
  3 10  1  0  0  0  0
  4  3  1  0  0  0  0
  4  8  1  0  0  0  0
  7  5  1  0  0  0  0
  8  1  2  0  0  0  0
  9  8  1  6  0  0  0
  9  2  1  0  0  0  0
 10  1  1  0  0  0  0
 10  6  2  0  0  0  0
 12 11  1  1  0  0  0
 12  9  1  0  0  0  0
 13 11  1  0  0  0  0
 13 15  1  0  0  0  0
 14 12  1  0  0  0  0
 15 14  1  0  0  0  0
 16 17  1  0  0  0  0
 16 15  1  0  0  0  0
 17 18  1  6  0  0  0
 17 20  1  0  0  0  0
 19 23  1  0  0  0  0
 20 22  1  0  0  0  0
 22 19  1  0  0  0  0
 22 21  2  0  0  0  0
 24 23  1  0  0  0  0
 24 25  1  0  0  0  0
 26 25  1  0  0  0  0
 27  7  1  6  0  0  0
 27 45  1  0  0  0  0
 28 36  1  0  0  0  0
 28 30  1  1  0  0  0
 29 33  2  0  0  0  0
 30 35  1  0  0  0  0
 32 29  1  0  0  0  0
 33 37  1  0  0  0  0
 33 31  1  0  0  0  0
 34 27  1  0  0  0  0
 34 28  1  0  0  0  0
 34 36  1  0  0  0  0
 35 31  2  0  0  0  0
 36 32  1  6  0  0  0
 37 41  1  0  0  0  0
 37 39  1  0  0  0  0
 38 37  1  0  0  0  0
 41 40  1  0  0  0  0
 42 44  1  0  0  0  0
 43 47  1  0  0  0  0
 43 45  2  0  0  0  0
 45 46  1  0  0  0  0
 46 44  2  0  0  0  0
 47 42  2  0  0  0  0
M  END
>  <MODEL>
3

>  <REMARK>
 VINA RESULT:      -7.0      2.508      5.807
  Name = 
  12 active torsions:
  status: ('A' for Active; 'I' for Inactive)
    1  A    between atoms: C_8  and  C_26
    2  A    between atoms: C_9  and  C_28
    3  A    between atoms: C_9  and  N_40
    4  A    between atoms: C_10  and  C_29
    5  A    between atoms: C_10  and  C_39
    6  A    between atoms: C_15  and  N_17
    7  A    between atoms: C_15  and  C_26
    8  A    between atoms: C_21  and  C_45
    9  A    between atoms: C_25  and  C_30
   10  A    between atoms: C_25  and  C_32
   11  A    between atoms: C_25  and  N_41
   12  A    between atoms: C_28  and  N_31
                            x       y       z     vdW  Elec       q    Type
                         _______ _______ _______ _____ _____    ______ ____

>  <TORSDO>
F 12

$$$$
=
 OpenBabel11072409033D

 47 52  0  0  1  0  0  0  0  0999 V2000
  194.1230  176.4060  144.1100 C   0  0  0  0  0  0  0  0  0  0  0  0
  192.8110  174.8900  142.3160 N   0  0  0  0  0  0  0  0  0  0  0  0
  196.2800  176.8680  144.3020 N   0  0  0  0  0  2  0  0  0  0  0  0
  196.1010  176.0830  143.2640 O   0  0  0  0  0  0  0  0  0  0  0  0
  192.7810  176.2980  144.2350 N   0  0  0  0  0  2  0  0  0  0  0  0
  194.8460  177.7770  145.8730 O   0  0  0  0  0  0  0  0  0  0  0  0
  192.1150  175.5250  143.3180 C   0  0  0  0  0  0  0  0  0  0  0  0
  194.8270  175.7940  143.1300 C   0  0  0  0  0  0  0  0  0  0  0  0
  194.1690  175.0090  142.1930 C   0  0  2  0  0  3  0  0  0  0  0  0
  195.0590  177.0790  144.8460 C   0  0  0  0  0  0  0  0  0  0  0  0
  194.3030  172.9910  140.7700 C   0  0  0  0  0  2  0  0  0  0  0  0
  194.9130  174.3420  141.0800 C   0  0  1  0  0  3  0  0  0  0  0  0
  193.9780  173.0260  139.2920 C   0  0  0  0  0  2  0  0  0  0  0  0
  194.7960  175.1550  139.8040 C   0  0  0  0  0  2  0  0  0  0  0  0
  193.9200  174.4260  138.8920 N   0  0  0  0  0  0  0  0  0  0  0  0
  194.3790  174.5900  137.5080 C   0  0  0  0  0  2  0  0  0  0  0  0
  193.2510  174.8440  136.5020 C   0  0  2  0  0  3  0  0  0  0  0  0
  193.0890  176.3390  136.3120 C   0  0  0  0  0  1  0  0  0  0  0  0
  190.2580  172.5420  137.0770 N   0  0  0  0  0  2  0  0  0  0  0  0
  192.0090  174.2750  137.0040 N   0  0  0  0  0  2  0  0  0  0  0  0
  192.1420  172.3300  135.7150 O   0  0  0  0  0  0  0  0  0  0  0  0
  191.4980  173.0170  136.5570 C   0  0  0  0  0  0  0  0  0  0  0  0
  189.6730  171.2810  136.6480 C   0  0  0  0  0  2  0  0  0  0  0  0
  189.6710  170.2900  137.8000 C   0  0  0  0  0  2  0  0  0  0  0  0
  190.9760  169.5150  137.8620 C   0  0  0  0  0  2  0  0  0  0  0  0
  191.7550  169.8940  139.1070 C   0  0  0  0  0  1  0  0  0  0  0  0
  190.6210  175.3590  143.3930 C   0  0  1  0  0  3  0  0  0  0  0  0
  189.2760  177.3090  143.9970 C   0  0  1  0  0  3  0  0  0  0  0  0
  186.7760  178.2440  143.2360 C   0  0  0  0  0  3  0  0  0  0  0  0
  189.2070  176.7490  145.4180 C   0  0  0  0  0  2  0  0  0  0  0  0
  186.6470  177.0590  145.4820 C   0  0  0  0  0  3  0  0  0  0  0  0
  187.5280  177.2330  142.3890 C   0  0  0  0  0  2  0  0  0  0  0  0
  186.4280  178.2050  144.5460 C   0  0  0  0  0  0  0  0  0  0  0  0
  189.9140  176.5440  142.8930 N   0  0  0  0  0  0  0  0  0  0  0  0
  187.7870  176.4400  145.8530 C   0  0  0  0  0  3  0  0  0  0  0  0
  188.4850  176.3750  143.1930 C   0  0  1  0  0  3  0  0  0  0  0  0
  185.5630  179.3310  145.0660 C   0  0  0  0  0  0  0  0  0  0  0  0
  185.6590  180.4500  144.2520 F   0  0  0  0  0  0  0  0  0  0  0  0
  185.9920  179.6950  146.3320 F   0  0  0  0  0  0  0  0  0  0  0  0
  183.4520  178.9690  143.8600 N   0  0  0  0  0  1  0  0  0  0  0  0
  184.1040  178.8920  145.1590 C   0  0  0  0  0  2  0  0  0  0  0  0
  189.3410  171.8730  141.2170 C   0  0  0  0  0  3  0  0  0  0  0  0
  189.8530  172.9480  143.3280 C   0  0  0  0  0  3  0  0  0  0  0  0
  189.6670  173.0520  140.5370 C   0  0  0  0  0  3  0  0  0  0  0  0
  190.1850  174.1310  142.6470 C   0  0  0  0  0  0  0  0  0  0  0  0
  190.0870  174.1790  141.2510 C   0  0  0  0  0  3  0  0  0  0  0  0
  189.4340  171.8210  142.6120 C   0  0  0  0  0  3  0  0  0  0  0  0
  1  5  1  0  0  0  0
  1 10  1  0  0  0  0
  2  7  2  0  0  0  0
  3 10  1  0  0  0  0
  4  3  1  0  0  0  0
  7 27  1  0  0  0  0
  7  5  1  0  0  0  0
  8  4  1  0  0  0  0
  8  1  2  0  0  0  0
  9  2  1  6  0  0  0
  9  8  1  0  0  0  0
 10  6  2  0  0  0  0
 11 12  1  0  0  0  0
 12 14  1  6  0  0  0
 12  9  1  0  0  0  0
 13 11  1  0  0  0  0
 15 13  1  0  0  0  0
 15 14  1  0  0  0  0
 16 15  1  0  0  0  0
 17 18  1  1  0  0  0
 17 20  1  0  0  0  0
 17 16  1  0  0  0  0
 21 22  2  0  0  0  0
 22 20  1  0  0  0  0
 22 19  1  0  0  0  0
 23 19  1  0  0  0  0
 23 24  1  0  0  0  0
 24 25  1  0  0  0  0
 25 26  1  0  0  0  0
 27 45  1  6  0  0  0
 28 30  1  1  0  0  0
 29 33  2  0  0  0  0
 30 35  1  0  0  0  0
 31 35  2  0  0  0  0
 32 29  1  0  0  0  0
 33 37  1  0  0  0  0
 33 31  1  0  0  0  0
 34 36  1  0  0  0  0
 34 27  1  0  0  0  0
 34 28  1  0  0  0  0
 36 32  1  6  0  0  0
 36 28  1  0  0  0  0
 37 41  1  0  0  0  0
 37 39  1  0  0  0  0
 38 37  1  0  0  0  0
 40 41  1  0  0  0  0
 42 47  1  0  0  0  0
 44 42  2  0  0  0  0
 44 46  1  0  0  0  0
 45 43  1  0  0  0  0
 46 45  2  0  0  0  0
 47 43  2  0  0  0  0
M  END
>  <MODEL>
4

>  <REMARK>
 VINA RESULT:      -7.0      1.970      6.023
  Name = 
  12 active torsions:
  status: ('A' for Active; 'I' for Inactive)
    1  A    between atoms: C_8  and  C_26
    2  A    between atoms: C_9  and  C_28
    3  A    between atoms: C_9  and  N_40
    4  A    between atoms: C_10  and  C_29
    5  A    between atoms: C_10  and  C_39
    6  A    between atoms: C_15  and  N_17
    7  A    between atoms: C_15  and  C_26
    8  A    between atoms: C_21  and  C_45
    9  A    between atoms: C_25  and  C_30
   10  A    between atoms: C_25  and  C_32
   11  A    between atoms: C_25  and  N_41
   12  A    between atoms: C_28  and  N_31
                            x       y       z     vdW  Elec       q    Type
                         _______ _______ _______ _____ _____    ______ ____

>  <TORSDO>
F 12

$$$$
=
 OpenBabel11072409033D

 47 52  0  0  1  0  0  0  0  0999 V2000
  194.2610  176.5190  144.1970 C   0  0  0  0  0  0  0  0  0  0  0  0
  192.6060  175.0390  142.6770 N   0  0  0  0  0  0  0  0  0  0  0  0
  196.4250  176.9360  143.9840 N   0  0  0  0  0  2  0  0  0  0  0  0
  196.0400  176.1610  142.9970 O   0  0  0  0  0  0  0  0  0  0  0  0
  192.9640  176.4380  144.5690 N   0  0  0  0  0  2  0  0  0  0  0  0
  195.3280  177.8660  145.7960 O   0  0  0  0  0  0  0  0  0  0  0  0
  192.1220  175.6830  143.7920 C   0  0  0  0  0  0  0  0  0  0  0  0
  194.7560  175.8980  143.1020 C   0  0  0  0  0  0  0  0  0  0  0  0
  193.9190  175.1310  142.3030 C   0  0  2  0  0  3  0  0  0  0  0  0
  195.3310  177.1700  144.7460 C   0  0  0  0  0  0  0  0  0  0  0  0
  194.8120  173.0210  141.3740 C   0  0  0  0  0  2  0  0  0  0  0  0
  194.4290  174.4540  141.0710 C   0  0  1  0  0  3  0  0  0  0  0  0
  194.0260  172.1790  140.3920 C   0  0  0  0  0  2  0  0  0  0  0  0
  193.3370  174.3810  140.0190 C   0  0  0  0  0  2  0  0  0  0  0  0
  192.9120  172.9880  139.9180 N   0  0  0  0  0  0  0  0  0  0  0  0
  192.5830  172.6570  138.5270 C   0  0  0  0  0  2  0  0  0  0  0  0
  191.1770  172.0800  138.3370 C   0  0  2  0  0  3  0  0  0  0  0  0
  191.2890  170.7040  137.7130 C   0  0  0  0  0  1  0  0  0  0  0  0
  188.5600  174.5260  137.0060 N   0  0  0  0  0  2  0  0  0  0  0  0
  190.4020  172.9530  137.4660 N   0  0  0  0  0  2  0  0  0  0  0  0
  188.9480  173.6780  139.1460 O   0  0  0  0  0  0  0  0  0  0  0  0
  189.2860  173.7150  137.9300 C   0  0  0  0  0  0  0  0  0  0  0  0
  187.4020  175.3080  137.4100 C   0  0  0  0  0  2  0  0  0  0  0  0
  186.8330  176.0490  136.2110 C   0  0  0  0  0  2  0  0  0  0  0  0
  187.8450  176.1310  135.0820 C   0  0  0  0  0  2  0  0  0  0  0  0
  188.2840  177.5680  134.8700 C   0  0  0  0  0  1  0  0  0  0  0  0
  190.6650  175.5470  144.1440 C   0  0  1  0  0  3  0  0  0  0  0  0
  189.1730  177.4670  144.3990 C   0  0  1  0  0  3  0  0  0  0  0  0
  186.5760  178.0190  143.5880 C   0  0  0  0  0  3  0  0  0  0  0  0
  189.2000  177.2150  145.9070 C   0  0  0  0  0  2  0  0  0  0  0  0
  186.6260  177.3250  146.0340 C   0  0  0  0  0  3  0  0  0  0  0  0
  187.3870  176.9150  142.9310 C   0  0  0  0  0  2  0  0  0  0  0  0
  186.2760  178.2280  144.8940 C   0  0  0  0  0  0  0  0  0  0  0  0
  189.8410  176.5400  143.4470 N   0  0  0  0  0  0  0  0  0  0  0  0
  187.8290  176.8920  146.4680 C   0  0  0  0  0  3  0  0  0  0  0  0
  188.4430  176.3250  143.8460 C   0  0  1  0  0  3  0  0  0  0  0  0
  185.3330  179.3650  145.2130 C   0  0  0  0  0  0  0  0  0  0  0  0
  185.5100  180.4220  144.3320 F   0  0  0  0  0  0  0  0  0  0  0  0
  185.5910  179.8350  146.4900 F   0  0  0  0  0  0  0  0  0  0  0  0
  183.2990  179.1490  143.8480 N   0  0  0  0  0  1  0  0  0  0  0  0
  183.8820  178.8940  145.1580 C   0  0  0  0  0  2  0  0  0  0  0  0
  189.3040  171.5420  143.3510 C   0  0  0  0  0  3  0  0  0  0  0  0
  189.8180  173.7710  142.5520 C   0  0  0  0  0  3  0  0  0  0  0  0
  189.6640  171.9230  144.6490 C   0  0  0  0  0  3  0  0  0  0  0  0
  190.1760  174.1580  143.8540 C   0  0  0  0  0  0  0  0  0  0  0  0
  190.1010  173.2280  144.9000 C   0  0  0  0  0  3  0  0  0  0  0  0
  189.3810  172.4660  142.3040 C   0  0  0  0  0  3  0  0  0  0  0  0
  1  5  1  0  0  0  0
  1 10  1  0  0  0  0
  2  7  2  0  0  0  0
  3 10  1  0  0  0  0
  4  8  1  0  0  0  0
  4  3  1  0  0  0  0
  7  5  1  0  0  0  0
  8  1  2  0  0  0  0
  9  2  1  6  0  0  0
  9  8  1  0  0  0  0
 10  6  2  0  0  0  0
 12 14  1  6  0  0  0
 12 11  1  0  0  0  0
 12  9  1  0  0  0  0
 13 11  1  0  0  0  0
 15 14  1  0  0  0  0
 15 13  1  0  0  0  0
 16 15  1  0  0  0  0
 17 18  1  6  0  0  0
 17 16  1  0  0  0  0
 19 23  1  0  0  0  0
 19 22  1  0  0  0  0
 20 22  1  0  0  0  0
 20 17  1  0  0  0  0
 22 21  2  0  0  0  0
 24 23  1  0  0  0  0
 25 24  1  0  0  0  0
 26 25  1  0  0  0  0
 27  7  1  6  0  0  0
 28 30  1  1  0  0  0
 29 33  2  0  0  0  0
 30 35  1  0  0  0  0
 31 35  2  0  0  0  0
 32 29  1  0  0  0  0
 33 37  1  0  0  0  0
 33 31  1  0  0  0  0
 34 36  1  0  0  0  0
 34 27  1  0  0  0  0
 34 28  1  0  0  0  0
 36 32  1  6  0  0  0
 36 28  1  0  0  0  0
 37 39  1  0  0  0  0
 38 37  1  0  0  0  0
 40 41  1  0  0  0  0
 41 37  1  0  0  0  0
 42 44  1  0  0  0  0
 43 45  2  0  0  0  0
 44 46  2  0  0  0  0
 45 27  1  0  0  0  0
 45 46  1  0  0  0  0
 47 43  1  0  0  0  0
 47 42  2  0  0  0  0
M  END
>  <MODEL>
5

>  <REMARK>
 VINA RESULT:      -6.9      2.088      6.186
  Name = 
  12 active torsions:
  status: ('A' for Active; 'I' for Inactive)
    1  A    between atoms: C_8  and  C_26
    2  A    between atoms: C_9  and  C_28
    3  A    between atoms: C_9  and  N_40
    4  A    between atoms: C_10  and  C_29
    5  A    between atoms: C_10  and  C_39
    6  A    between atoms: C_15  and  N_17
    7  A    between atoms: C_15  and  C_26
    8  A    between atoms: C_21  and  C_45
    9  A    between atoms: C_25  and  C_30
   10  A    between atoms: C_25  and  C_32
   11  A    between atoms: C_25  and  N_41
   12  A    between atoms: C_28  and  N_31
                            x       y       z     vdW  Elec       q    Type
                         _______ _______ _______ _____ _____    ______ ____

>  <TORSDO>
F 12

$$$$
=
 OpenBabel11072409033D

 47 52  0  0  1  0  0  0  0  0999 V2000
  193.4330  171.4450  144.2920 C   0  0  0  0  0  0  0  0  0  0  0  0
  191.9940  172.9430  142.5810 N   0  0  0  0  0  0  0  0  0  0  0  0
  194.4070  169.4770  144.0150 N   0  0  0  0  0  2  0  0  0  0  0  0
  193.8170  169.8230  142.8950 O   0  0  0  0  0  0  0  0  0  0  0  0
  192.9500  172.6270  144.7380 N   0  0  0  0  0  2  0  0  0  0  0  0
  194.5840  170.4760  146.0940 O   0  0  0  0  0  0  0  0  0  0  0  0
  192.2180  173.3880  143.8630 C   0  0  0  0  0  0  0  0  0  0  0  0
  193.2300  170.9900  143.0350 C   0  0  0  0  0  0  0  0  0  0  0  0
  192.4920  171.7480  142.1360 C   0  0  2  0  0  3  0  0  0  0  0  0
  194.1780  170.4730  144.9010 C   0  0  0  0  0  0  0  0  0  0  0  0
  190.8660  170.7510  140.5620 C   0  0  0  0  0  2  0  0  0  0  0  0
  192.2720  171.2870  140.7300 C   0  0  1  0  0  3  0  0  0  0  0  0
  190.2700  171.5390  139.4150 C   0  0  0  0  0  2  0  0  0  0  0  0
  192.3920  172.4540  139.7660 C   0  0  0  0  0  2  0  0  0  0  0  0
  191.0540  172.7590  139.2710 N   0  0  0  0  0  0  0  0  0  0  0  0
  191.1150  173.1740  137.8650 C   0  0  0  0  0  2  0  0  0  0  0  0
  189.8410  172.8730  137.0680 C   0  0  2  0  0  3  0  0  0  0  0  0
  190.2270  172.2820  135.7270 C   0  0  0  0  0  1  0  0  0  0  0  0
  187.3720  175.7580  137.4920 N   0  0  0  0  0  2  0  0  0  0  0  0
  189.0880  174.1030  136.8650 N   0  0  0  0  0  2  0  0  0  0  0  0
  187.8410  173.9040  138.8310 O   0  0  0  0  0  0  0  0  0  0  0  0
  188.0860  174.5560  137.7790 C   0  0  0  0  0  0  0  0  0  0  0  0
  186.3260  176.2610  138.3690 C   0  0  0  0  0  2  0  0  0  0  0  0
  186.9160  177.2400  139.3720 C   0  0  0  0  0  2  0  0  0  0  0  0
  186.3200  177.0380  140.7540 C   0  0  0  0  0  2  0  0  0  0  0  0
  185.8480  178.3620  141.3240 C   0  0  0  0  0  1  0  0  0  0  0  0
  191.6490  174.7160  144.2880 C   0  0  1  0  0  3  0  0  0  0  0  0
  189.2440  175.1300  144.4360 C   0  0  1  0  0  3  0  0  0  0  0  0
  187.6160  176.4320  146.2680 C   0  0  0  0  0  3  0  0  0  0  0  0
  189.3700  175.9720  143.1660 C   0  0  0  0  0  2  0  0  0  0  0  0
  188.0730  177.9180  144.2550 C   0  0  0  0  0  3  0  0  0  0  0  0
  189.0140  175.9750  146.6450 C   0  0  0  0  0  2  0  0  0  0  0  0
  187.1960  177.2190  145.2460 C   0  0  0  0  0  0  0  0  0  0  0  0
  190.4410  174.5550  145.1060 N   0  0  0  0  0  0  0  0  0  0  0  0
  188.9800  177.4210  143.3880 C   0  0  0  0  0  3  0  0  0  0  0  0
  189.9570  175.8960  145.4600 C   0  0  1  0  0  3  0  0  0  0  0  0
  185.7320  177.5930  145.2170 C   0  0  0  0  0  0  0  0  0  0  0  0
  185.0940  177.0250  144.1230 F   0  0  0  0  0  0  0  0  0  0  0  0
  185.6100  178.9690  145.1060 F   0  0  0  0  0  0  0  0  0  0  0  0
  184.4970  178.2920  147.2240 N   0  0  0  0  0  1  0  0  0  0  0  0
  185.0360  177.1490  146.5000 C   0  0  0  0  0  2  0  0  0  0  0  0
  194.5630  177.0460  146.4340 C   0  0  0  0  0  3  0  0  0  0  0  0
  193.6260  176.2960  144.3290 C   0  0  0  0  0  3  0  0  0  0  0  0
  193.6190  176.2810  147.1280 C   0  0  0  0  0  3  0  0  0  0  0  0
  192.6800  175.5240  145.0220 C   0  0  0  0  0  0  0  0  0  0  0  0
  192.6780  175.5220  146.4230 C   0  0  0  0  0  3  0  0  0  0  0  0
  194.5660  177.0540  145.0350 C   0  0  0  0  0  3  0  0  0  0  0  0
  1  5  1  0  0  0  0
  1 10  1  0  0  0  0
  2  7  2  0  0  0  0
  3 10  1  0  0  0  0
  4  8  1  0  0  0  0
  4  3  1  0  0  0  0
  7  5  1  0  0  0  0
  8  1  2  0  0  0  0
  9  2  1  6  0  0  0
  9  8  1  0  0  0  0
 10  6  2  0  0  0  0
 11 12  1  0  0  0  0
 12 14  1  6  0  0  0
 12  9  1  0  0  0  0
 13 11  1  0  0  0  0
 15 13  1  0  0  0  0
 15 14  1  0  0  0  0
 16 15  1  0  0  0  0
 17 18  1  6  0  0  0
 17 16  1  0  0  0  0
 19 22  1  0  0  0  0
 19 23  1  0  0  0  0
 20 17  1  0  0  0  0
 20 22  1  0  0  0  0
 22 21  2  0  0  0  0
 23 24  1  0  0  0  0
 24 25  1  0  0  0  0
 25 26  1  0  0  0  0
 27  7  1  1  0  0  0
 27 45  1  0  0  0  0
 27 34  1  0  0  0  0
 28 30  1  6  0  0  0
 28 34  1  0  0  0  0
 28 36  1  0  0  0  0
 29 32  1  0  0  0  0
 30 35  1  0  0  0  0
 31 33  1  0  0  0  0
 33 29  2  0  0  0  0
 34 36  1  0  0  0  0
 35 31  2  0  0  0  0
 36 32  1  1  0  0  0
 37 33  1  0  0  0  0
 37 41  1  0  0  0  0
 38 37  1  0  0  0  0
 39 37  1  0  0  0  0
 41 40  1  0  0  0  0
 42 44  1  0  0  0  0
 43 45  2  0  0  0  0
 43 47  1  0  0  0  0
 45 46  1  0  0  0  0
 46 44  2  0  0  0  0
 47 42  2  0  0  0  0
M  END
>  <MODEL>
6

>  <REMARK>
 VINA RESULT:      -6.9      2.709      6.403
  Name = 
  12 active torsions:
  status: ('A' for Active; 'I' for Inactive)
    1  A    between atoms: C_8  and  C_26
    2  A    between atoms: C_9  and  C_28
    3  A    between atoms: C_9  and  N_40
    4  A    between atoms: C_10  and  C_29
    5  A    between atoms: C_10  and  C_39
    6  A    between atoms: C_15  and  N_17
    7  A    between atoms: C_15  and  C_26
    8  A    between atoms: C_21  and  C_45
    9  A    between atoms: C_25  and  C_30
   10  A    between atoms: C_25  and  C_32
   11  A    between atoms: C_25  and  N_41
   12  A    between atoms: C_28  and  N_31
                            x       y       z     vdW  Elec       q    Type
                         _______ _______ _______ _____ _____    ______ ____

>  <TORSDO>
F 12

$$$$
=
 OpenBabel11072409033D

 47 52  0  0  1  0  0  0  0  0999 V2000
  192.9320  171.5870  144.2610 C   0  0  0  0  0  0  0  0  0  0  0  0
  191.2510  173.0970  142.8010 N   0  0  0  0  0  0  0  0  0  0  0  0
  193.7410  169.5610  143.8880 N   0  0  0  0  0  2  0  0  0  0  0  0
  192.9560  169.8980  142.8910 O   0  0  0  0  0  0  0  0  0  0  0  0
  192.6010  172.8080  144.7390 N   0  0  0  0  0  2  0  0  0  0  0  0
  194.3730  170.6230  145.8440 O   0  0  0  0  0  0  0  0  0  0  0  0
  191.7440  173.5760  143.9920 C   0  0  0  0  0  0  0  0  0  0  0  0
  192.4630  171.0990  143.0900 C   0  0  0  0  0  0  0  0  0  0  0  0
  191.5960  171.8630  142.3210 C   0  0  2  0  0  3  0  0  0  0  0  0
  193.7380  170.6000  144.7550 C   0  0  0  0  0  0  0  0  0  0  0  0
  189.9450  172.2390  140.5180 C   0  0  0  0  0  2  0  0  0  0  0  0
  191.0800  171.3640  141.0080 C   0  0  1  0  0  3  0  0  0  0  0  0
  190.3560  172.6920  139.1330 C   0  0  0  0  0  2  0  0  0  0  0  0
  192.1620  171.4520  139.9470 C   0  0  0  0  0  2  0  0  0  0  0  0
  191.8000  172.5300  139.0330 N   0  0  0  0  0  0  0  0  0  0  0  0
  192.1900  172.1840  137.6610 C   0  0  0  0  0  2  0  0  0  0  0  0
  193.2940  173.0740  137.0820 C   0  0  2  0  0  3  0  0  0  0  0  0
  193.7160  172.5230  135.7340 C   0  0  0  0  0  1  0  0  0  0  0  0
  195.9500  174.1820  139.5950 N   0  0  0  0  0  2  0  0  0  0  0  0
  194.4360  173.0900  137.9850 N   0  0  0  0  0  2  0  0  0  0  0  0
  194.1040  175.2920  138.6940 O   0  0  0  0  0  0  0  0  0  0  0  0
  194.7980  174.2390  138.7540 C   0  0  0  0  0  0  0  0  0  0  0  0
  196.3840  175.3240  140.3860 C   0  0  0  0  0  2  0  0  0  0  0  0
  196.7500  174.8730  141.7910 C   0  0  0  0  0  2  0  0  0  0  0  0
  195.6410  174.0390  142.4070 C   0  0  0  0  0  2  0  0  0  0  0  0
  195.9960  173.6630  143.8340 C   0  0  0  0  0  1  0  0  0  0  0  0
  191.3320  174.9460  144.4600 C   0  0  1  0  0  3  0  0  0  0  0  0
  188.9430  175.2730  144.8600 C   0  0  1  0  0  3  0  0  0  0  0  0
  187.4740  176.8110  146.6430 C   0  0  0  0  0  3  0  0  0  0  0  0
  188.8500  175.8760  143.4580 C   0  0  0  0  0  2  0  0  0  0  0  0
  187.5710  177.9270  144.3600 C   0  0  0  0  0  3  0  0  0  0  0  0
  188.9360  176.4920  146.9000 C   0  0  0  0  0  2  0  0  0  0  0  0
  186.8760  177.3810  145.5670 C   0  0  0  0  0  0  0  0  0  0  0  0
  190.2510  174.8820  145.4490 N   0  0  0  0  0  0  0  0  0  0  0  0
  188.3940  177.3230  143.4770 C   0  0  0  0  0  3  0  0  0  0  0  0
  189.7250  176.2420  145.6290 C   0  0  1  0  0  3  0  0  0  0  0  0
  185.3980  177.6780  145.6730 C   0  0  0  0  0  0  0  0  0  0  0  0
  185.1620  178.7230  146.5540 F   0  0  0  0  0  0  0  0  0  0  0  0
  184.7360  176.5620  146.1580 F   0  0  0  0  0  0  0  0  0  0  0  0
  184.3550  179.4050  144.2690 N   0  0  0  0  0  1  0  0  0  0  0  0
  184.8170  178.0250  144.3050 C   0  0  0  0  0  2  0  0  0  0  0  0
  194.7420  177.0730  145.9990 C   0  0  0  0  0  3  0  0  0  0  0  0
  192.7630  175.7330  146.3940 C   0  0  0  0  0  3  0  0  0  0  0  0
  194.4960  177.0330  144.6220 C   0  0  0  0  0  3  0  0  0  0  0  0
  192.5100  175.6940  145.0130 C   0  0  0  0  0  0  0  0  0  0  0  0
  193.3830  176.3440  144.1300 C   0  0  0  0  0  3  0  0  0  0  0  0
  193.8760  176.4240  146.8840 C   0  0  0  0  0  3  0  0  0  0  0  0
  1  5  1  0  0  0  0
  1 10  1  0  0  0  0
  2  7  2  0  0  0  0
  3 10  1  0  0  0  0
  4  8  1  0  0  0  0
  4  3  1  0  0  0  0
  7  5  1  0  0  0  0
  8  1  2  0  0  0  0
  9  2  1  6  0  0  0
  9  8  1  0  0  0  0
 10  6  2  0  0  0  0
 11 12  1  0  0  0  0
 12 14  1  6  0  0  0
 12  9  1  0  0  0  0
 13 11  1  0  0  0  0
 15 13  1  0  0  0  0
 15 14  1  0  0  0  0
 16 15  1  0  0  0  0
 17 18  1  6  0  0  0
 17 16  1  0  0  0  0
 17 20  1  0  0  0  0
 19 23  1  0  0  0  0
 20 22  1  0  0  0  0
 21 22  2  0  0  0  0
 22 19  1  0  0  0  0
 23 24  1  0  0  0  0
 24 25  1  0  0  0  0
 25 26  1  0  0  0  0
 27  7  1  1  0  0  0
 27 45  1  0  0  0  0
 27 34  1  0  0  0  0
 28 30  1  6  0  0  0
 28 34  1  0  0  0  0
 28 36  1  0  0  0  0
 29 32  1  0  0  0  0
 30 35  1  0  0  0  0
 31 33  1  0  0  0  0
 33 37  1  0  0  0  0
 33 29  2  0  0  0  0
 34 36  1  0  0  0  0
 35 31  2  0  0  0  0
 36 32  1  1  0  0  0
 37 39  1  0  0  0  0
 37 38  1  0  0  0  0
 40 41  1  0  0  0  0
 41 37  1  0  0  0  0
 42 47  1  0  0  0  0
 43 47  2  0  0  0  0
 44 42  2  0  0  0  0
 45 43  1  0  0  0  0
 46 44  1  0  0  0  0
 46 45  2  0  0  0  0
M  END
>  <MODEL>
7

>  <REMARK>
 VINA RESULT:      -6.9      2.572      5.384
  Name = 
  12 active torsions:
  status: ('A' for Active; 'I' for Inactive)
    1  A    between atoms: C_8  and  C_26
    2  A    between atoms: C_9  and  C_28
    3  A    between atoms: C_9  and  N_40
    4  A    between atoms: C_10  and  C_29
    5  A    between atoms: C_10  and  C_39
    6  A    between atoms: C_15  and  N_17
    7  A    between atoms: C_15  and  C_26
    8  A    between atoms: C_21  and  C_45
    9  A    between atoms: C_25  and  C_30
   10  A    between atoms: C_25  and  C_32
   11  A    between atoms: C_25  and  N_41
   12  A    between atoms: C_28  and  N_31
                            x       y       z     vdW  Elec       q    Type
                         _______ _______ _______ _____ _____    ______ ____

>  <TORSDO>
F 12

$$$$
=
 OpenBabel11072409033D

 47 52  0  0  1  0  0  0  0  0999 V2000
  194.8790  175.0820  144.6600 C   0  0  0  0  0  0  0  0  0  0  0  0
  193.1130  175.9590  142.8300 N   0  0  0  0  0  0  0  0  0  0  0  0
  197.0810  174.8740  144.5520 N   0  0  0  0  0  2  0  0  0  0  0  0
  196.6400  175.3510  143.4120 O   0  0  0  0  0  0  0  0  0  0  0  0
  193.5710  175.1030  145.0030 N   0  0  0  0  0  2  0  0  0  0  0  0
  196.0390  174.2330  146.5160 O   0  0  0  0  0  0  0  0  0  0  0  0
  192.6730  175.5510  144.0680 C   0  0  0  0  0  0  0  0  0  0  0  0
  195.3330  175.4840  143.4510 C   0  0  0  0  0  0  0  0  0  0  0  0
  194.4390  175.9420  142.4930 C   0  0  2  0  0  3  0  0  0  0  0  0
  195.9980  174.6960  145.3450 C   0  0  0  0  0  0  0  0  0  0  0  0
  196.4210  176.5360  141.1380 C   0  0  0  0  0  2  0  0  0  0  0  0
  194.9110  176.4190  141.1570 C   0  0  1  0  0  3  0  0  0  0  0  0
  196.8750  175.6940  139.9660 C   0  0  0  0  0  2  0  0  0  0  0  0
  194.5580  175.4080  140.0800 C   0  0  0  0  0  2  0  0  0  0  0  0
  195.7970  174.7660  139.6520 N   0  0  0  0  0  0  0  0  0  0  0  0
  195.7530  174.4880  138.2120 C   0  0  0  0  0  2  0  0  0  0  0  0
  195.6680  172.9980  137.8660 C   0  0  2  0  0  3  0  0  0  0  0  0
  196.8940  172.6070  137.0640 C   0  0  0  0  0  1  0  0  0  0  0  0
  192.5240  171.3810  136.4190 N   0  0  0  0  0  2  0  0  0  0  0  0
  194.4680  172.7430  137.0820 N   0  0  0  0  0  2  0  0  0  0  0  0
  193.9730  170.7100  138.1220 O   0  0  0  0  0  0  0  0  0  0  0  0
  193.6700  171.5690  137.2470 C   0  0  0  0  0  0  0  0  0  0  0  0
  191.6830  170.1980  136.5220 C   0  0  0  0  0  2  0  0  0  0  0  0
  190.2340  170.6070  136.7300 C   0  0  0  0  0  2  0  0  0  0  0  0
  189.6910  170.0640  138.0410 C   0  0  0  0  0  2  0  0  0  0  0  0
  190.4450  170.6640  139.2120 C   0  0  0  0  0  1  0  0  0  0  0  0
  191.2010  175.6030  144.3780 C   0  0  1  0  0  3  0  0  0  0  0  0
  189.6590  177.4800  144.6560 C   0  0  1  0  0  3  0  0  0  0  0  0
  187.3130  178.2570  143.3950 C   0  0  0  0  0  3  0  0  0  0  0  0
  189.3410  176.9360  146.0500 C   0  0  0  0  0  2  0  0  0  0  0  0
  186.8060  177.0970  145.6000 C   0  0  0  0  0  3  0  0  0  0  0  0
  188.2720  177.2790  142.7380 C   0  0  0  0  0  2  0  0  0  0  0  0
  186.7140  178.2160  144.6110 C   0  0  0  0  0  0  0  0  0  0  0  0
  190.5450  176.7380  143.7200 N   0  0  0  0  0  0  0  0  0  0  0  0
  187.8820  176.5510  146.2040 C   0  0  0  0  0  3  0  0  0  0  0  0
  189.0960  176.4900  143.7360 C   0  0  1  0  0  3  0  0  0  0  0  0
  185.7040  179.2960  144.9220 C   0  0  0  0  0  0  0  0  0  0  0  0
  185.8150  180.3530  144.0310 F   0  0  0  0  0  0  0  0  0  0  0  0
  185.9360  179.7920  146.1950 F   0  0  0  0  0  0  0  0  0  0  0  0
  183.7020  178.9030  143.5510 N   0  0  0  0  0  1  0  0  0  0  0  0
  184.2840  178.7370  144.8750 C   0  0  0  0  0  2  0  0  0  0  0  0
  189.3160  171.8780  143.3330 C   0  0  0  0  0  3  0  0  0  0  0  0
  190.3020  173.9840  142.6530 C   0  0  0  0  0  3  0  0  0  0  0  0
  189.5480  172.2020  144.6750 C   0  0  0  0  0  3  0  0  0  0  0  0
  190.5330  174.3140  143.9990 C   0  0  0  0  0  0  0  0  0  0  0  0
  190.1570  173.4170  145.0070 C   0  0  0  0  0  3  0  0  0  0  0  0
  189.6930  172.7690  142.3230 C   0  0  0  0  0  3  0  0  0  0  0  0
  1  5  1  0  0  0  0
  1 10  1  0  0  0  0
  2  7  2  0  0  0  0
  3 10  1  0  0  0  0
  4  8  1  0  0  0  0
  4  3  1  0  0  0  0
  7 27  1  0  0  0  0
  7  5  1  0  0  0  0
  8  1  2  0  0  0  0
  9  2  1  1  0  0  0
  9  8  1  0  0  0  0
 10  6  2  0  0  0  0
 11 12  1  0  0  0  0
 12 14  1  6  0  0  0
 12  9  1  0  0  0  0
 13 11  1  0  0  0  0
 15 13  1  0  0  0  0
 15 14  1  0  0  0  0
 16 15  1  0  0  0  0
 17 18  1  6  0  0  0
 17 16  1  0  0  0  0
 19 23  1  0  0  0  0
 19 22  1  0  0  0  0
 20 22  1  0  0  0  0
 20 17  1  0  0  0  0
 22 21  2  0  0  0  0
 23 24  1  0  0  0  0
 24 25  1  0  0  0  0
 25 26  1  0  0  0  0
 27 45  1  6  0  0  0
 28 30  1  1  0  0  0
 29 33  2  0  0  0  0
 30 35  1  0  0  0  0
 31 35  2  0  0  0  0
 32 29  1  0  0  0  0
 33 37  1  0  0  0  0
 33 31  1  0  0  0  0
 34 36  1  0  0  0  0
 34 27  1  0  0  0  0
 34 28  1  0  0  0  0
 36 32  1  6  0  0  0
 36 28  1  0  0  0  0
 37 39  1  0  0  0  0
 38 37  1  0  0  0  0
 40 41  1  0  0  0  0
 41 37  1  0  0  0  0
 42 44  1  0  0  0  0
 43 45  2  0  0  0  0
 44 46  2  0  0  0  0
 45 46  1  0  0  0  0
 47 43  1  0  0  0  0
 47 42  2  0  0  0  0
M  END
>  <MODEL>
8

>  <REMARK>
 VINA RESULT:      -6.8      2.154      5.832
  Name = 
  12 active torsions:
  status: ('A' for Active; 'I' for Inactive)
    1  A    between atoms: C_8  and  C_26
    2  A    between atoms: C_9  and  C_28
    3  A    between atoms: C_9  and  N_40
    4  A    between atoms: C_10  and  C_29
    5  A    between atoms: C_10  and  C_39
    6  A    between atoms: C_15  and  N_17
    7  A    between atoms: C_15  and  C_26
    8  A    between atoms: C_21  and  C_45
    9  A    between atoms: C_25  and  C_30
   10  A    between atoms: C_25  and  C_32
   11  A    between atoms: C_25  and  N_41
   12  A    between atoms: C_28  and  N_31
                            x       y       z     vdW  Elec       q    Type
                         _______ _______ _______ _____ _____    ______ ____

>  <TORSDO>
F 12

$$$$
=
 OpenBabel11072409033D

 47 52  0  0  1  0  0  0  0  0999 V2000
  189.7540  173.6610  137.9140 C   0  0  0  0  0  0  0  0  0  0  0  0
  190.9940  173.0960  140.2340 N   0  0  0  0  0  0  0  0  0  0  0  0
  190.0500  172.8320  135.8830 N   0  0  0  0  0  2  0  0  0  0  0  0
  190.8860  172.2480  136.7090 O   0  0  0  0  0  0  0  0  0  0  0  0
  189.3620  174.3330  139.0210 N   0  0  0  0  0  2  0  0  0  0  0  0
  188.4450  174.4780  136.1440 O   0  0  0  0  0  0  0  0  0  0  0  0
  189.9960  174.0420  140.2020 C   0  0  0  0  0  0  0  0  0  0  0  0
  190.7290  172.7240  137.9240 C   0  0  0  0  0  0  0  0  0  0  0  0
  191.3800  172.4160  139.1100 C   0  0  2  0  0  3  0  0  0  0  0  0
  189.3360  173.7200  136.6130 C   0  0  0  0  0  0  0  0  0  0  0  0
  193.8050  171.9770  138.9000 C   0  0  0  0  0  2  0  0  0  0  0  0
  192.4440  171.3660  139.1610 C   0  0  1  0  0  3  0  0  0  0  0  0
  194.6570  171.5830  140.0880 C   0  0  0  0  0  2  0  0  0  0  0  0
  192.5200  170.7570  140.5500 C   0  0  0  0  0  2  0  0  0  0  0  0
  193.7530  171.2270  141.1730 N   0  0  0  0  0  0  0  0  0  0  0  0
  194.3340  170.1690  142.0080 C   0  0  0  0  0  2  0  0  0  0  0  0
  194.2500  170.4440  143.5130 C   0  0  2  0  0  3  0  0  0  0  0  0
  193.0750  169.6800  144.0890 C   0  0  0  0  0  1  0  0  0  0  0  0
  194.6010  174.0030  144.8570 N   0  0  0  0  0  2  0  0  0  0  0  0
  194.0680  171.8710  143.7420 N   0  0  0  0  0  2  0  0  0  0  0  0
  195.7890  172.0460  145.3120 O   0  0  0  0  0  0  0  0  0  0  0  0
  194.8620  172.6130  144.6700 C   0  0  0  0  0  0  0  0  0  0  0  0
  195.3580  174.8100  145.8010 C   0  0  0  0  0  2  0  0  0  0  0  0
  194.5560  176.0400  146.1940 C   0  0  0  0  0  2  0  0  0  0  0  0
  193.1500  175.6640  146.6290 C   0  0  0  0  0  2  0  0  0  0  0  0
  192.1290  176.5320  145.9190 C   0  0  0  0  0  1  0  0  0  0  0  0
  189.6130  174.7490  141.4750 C   0  0  1  0  0  3  0  0  0  0  0  0
  188.1790  176.6760  141.9290 C   0  0  1  0  0  3  0  0  0  0  0  0
  185.8780  177.0620  143.4320 C   0  0  0  0  0  3  0  0  0  0  0  0
  189.3720  177.3230  142.6340 C   0  0  0  0  0  2  0  0  0  0  0  0
  187.9270  177.8820  144.6970 C   0  0  0  0  0  3  0  0  0  0  0  0
  186.3110  175.6710  143.0000 C   0  0  0  0  0  2  0  0  0  0  0  0
  186.5550  178.0190  144.1140 C   0  0  0  0  0  0  0  0  0  0  0  0
  188.2490  175.2830  141.4130 N   0  0  0  0  0  0  0  0  0  0  0  0
  189.1030  177.5920  144.1030 C   0  0  0  0  0  3  0  0  0  0  0  0
  187.8080  175.5510  142.7890 C   0  0  1  0  0  3  0  0  0  0  0  0
  185.7920  179.2650  144.4990 C   0  0  0  0  0  0  0  0  0  0  0  0
  185.9210  180.2490  143.5300 F   0  0  0  0  0  0  0  0  0  0  0  0
  186.3030  179.7720  145.6830 F   0  0  0  0  0  0  0  0  0  0  0  0
  184.0400  178.6350  146.1050 N   0  0  0  0  0  1  0  0  0  0  0  0
  184.3130  178.9490  144.7100 C   0  0  0  0  0  2  0  0  0  0  0  0
  190.1200  172.1380  144.8590 C   0  0  0  0  0  3  0  0  0  0  0  0
  188.9680  172.6910  142.8000 C   0  0  0  0  0  3  0  0  0  0  0  0
  190.9240  173.2750  144.7160 C   0  0  0  0  0  3  0  0  0  0  0  0
  189.7700  173.8350  142.6560 C   0  0  0  0  0  0  0  0  0  0  0  0
  190.7490  174.1220  143.6160 C   0  0  0  0  0  3  0  0  0  0  0  0
  189.1430  171.8470  143.9020 C   0  0  0  0  0  3  0  0  0  0  0  0
  1  8  2  0  0  0  0
  1  5  1  0  0  0  0
  3 10  1  0  0  0  0
  3  4  1  0  0  0  0
  4  8  1  0  0  0  0
  5  7  1  0  0  0  0
  6 10  2  0  0  0  0
  7  2  2  0  0  0  0
  9  8  1  1  0  0  0
  9 12  1  0  0  0  0
  9  2  1  0  0  0  0
 10  1  1  0  0  0  0
 11 13  1  0  0  0  0
 12 11  1  1  0  0  0
 12 14  1  0  0  0  0
 13 15  1  0  0  0  0
 14 15  1  0  0  0  0
 15 16  1  0  0  0  0
 16 17  1  0  0  0  0
 17 20  1  0  0  0  0
 17 18  1  6  0  0  0
 19 23  1  0  0  0  0
 20 22  1  0  0  0  0
 22 19  1  0  0  0  0
 22 21  2  0  0  0  0
 23 24  1  0  0  0  0
 24 25  1  0  0  0  0
 26 25  1  0  0  0  0
 27  7  1  6  0  0  0
 27 45  1  0  0  0  0
 28 30  1  1  0  0  0
 28 36  1  0  0  0  0
 29 33  2  0  0  0  0
 30 35  1  0  0  0  0
 32 29  1  0  0  0  0
 33 37  1  0  0  0  0
 33 31  1  0  0  0  0
 34 27  1  0  0  0  0
 34 28  1  0  0  0  0
 34 36  1  0  0  0  0
 35 31  2  0  0  0  0
 36 32  1  6  0  0  0
 37 41  1  0  0  0  0
 37 39  1  0  0  0  0
 38 37  1  0  0  0  0
 41 40  1  0  0  0  0
 43 47  1  0  0  0  0
 44 42  1  0  0  0  0
 45 43  2  0  0  0  0
 45 46  1  0  0  0  0
 46 44  2  0  0  0  0
 47 42  2  0  0  0  0
M  END
>  <MODEL>
9

>  <REMARK>
 VINA RESULT:      -6.7      1.595      2.047
  Name = 
  12 active torsions:
  status: ('A' for Active; 'I' for Inactive)
    1  A    between atoms: C_8  and  C_26
    2  A    between atoms: C_9  and  C_28
    3  A    between atoms: C_9  and  N_40
    4  A    between atoms: C_10  and  C_29
    5  A    between atoms: C_10  and  C_39
    6  A    between atoms: C_15  and  N_17
    7  A    between atoms: C_15  and  C_26
    8  A    between atoms: C_21  and  C_45
    9  A    between atoms: C_25  and  C_30
   10  A    between atoms: C_25  and  C_32
   11  A    between atoms: C_25  and  N_41
   12  A    between atoms: C_28  and  N_31
                            x       y       z     vdW  Elec       q    Type
                         _______ _______ _______ _____ _____    ______ ____

>  <TORSDO>
F 12

$$$$
