=
 OpenBabel11062418363D

 55 59  0  0  1  0  0  0  0  0999 V2000
  194.8880  176.4710  146.2830 N   0  0  0  0  0  0  0  0  0  0  0  0
  194.3110  177.0820  145.2250 C   0  0  0  0  0  3  0  0  0  0  0  0
  193.6130  176.1200  144.5180 C   0  0  0  0  0  0  0  0  0  0  0  0
  193.8160  174.9420  145.1980 C   0  0  0  0  0  0  0  0  0  0  0  0
  194.5930  175.1770  146.2680 N   0  0  0  0  0  2  0  0  0  0  0  0
  192.0700  173.4470  144.6540 O   0  0  0  0  0  0  0  0  0  0  0  0
  193.3120  173.6190  144.8120 C   0  0  0  0  0  0  0  0  0  0  0  0
  194.2940  172.5450  144.4510 C   0  0  0  0  0  2  0  0  0  0  0  0
  194.1210  172.0050  143.0310 C   0  0  1  0  0  3  0  0  0  0  0  0
  195.6820  170.3140  142.4010 O   0  0  0  0  0  0  0  0  0  0  0  0
  196.3960  172.4680  141.9250 N   0  0  0  0  0  2  0  0  0  0  0  0
  195.4390  171.5520  142.4740 C   0  0  0  0  0  0  0  0  0  0  0  0
  196.3750  173.9040  141.9270 C   0  0  0  0  0  0  0  0  0  0  0  0
  197.0700  174.5760  142.9390 C   0  0  0  0  0  3  0  0  0  0  0  0
  195.6550  176.0430  141.0280 C   0  0  0  0  0  3  0  0  0  0  0  0
  196.3600  176.7080  142.0370 C   0  0  0  0  0  3  0  0  0  0  0  0
  197.0670  175.9720  142.9930 C   0  0  0  0  0  3  0  0  0  0  0  0
  195.6620  174.6470  140.9740 C   0  0  0  0  0  3  0  0  0  0  0  0
  193.2530  170.9050  143.0740 O   0  0  0  0  0  0  0  0  0  0  0  0
  192.3570  170.1560  140.7070 O   0  0  0  0  0  0  0  0  0  0  0  0
  190.5690  170.8910  142.4720 O   0  0  0  0  0  1  0  0  0  0  0  0
  192.1180  171.1340  141.8350 P   0  0  1  0  0  0  0  0  0  0  0  0
  192.2360  172.7750  141.2190 N   0  0  0  0  0  2  0  0  0  0  0  0
  191.8320  172.7400  139.8250 C   0  0  2  0  0  3  0  0  0  0  0  0
  192.5120  173.8700  139.0800 C   0  0  0  0  0  1  0  0  0  0  0  0
  190.3230  172.9020  139.7310 C   0  0  0  0  0  2  0  0  0  0  0  0
  189.7680  172.0220  138.6530 C   0  0  0  0  0  0  0  0  0  0  0  0
  189.7710  170.8100  138.7960 O   0  0  0  0  0  0  0  0  0  0  0  0
  188.8790  174.0970  137.6350 C   0  0  0  0  0  1  0  0  0  0  0  0
  189.1710  172.6200  137.4190 C   0  0  0  0  0  2  0  0  0  0  0  0
  192.7970  176.3040  143.2760 C   0  0  0  0  0  2  0  0  0  0  0  0
  191.6100  177.2510  143.4710 C   0  0  0  0  0  2  0  0  0  0  0  0
  189.6900  175.4640  147.1960 C   0  0  0  0  0  2  0  0  0  0  0  0
  189.1660  174.5270  146.1010 C   0  0  0  0  0  2  0  0  0  0  0  0
  189.6190  175.7610  143.9540 C   0  0  0  0  0  0  0  0  0  0  0  0
  190.9220  176.2470  146.7700 C   0  0  2  0  0  3  0  0  0  0  0  0
  188.5600  175.2480  144.8850 C   0  0  2  0  0  3  0  0  0  0  0  0
  190.6100  176.7140  144.3890 N   0  0  0  0  0  0  0  0  0  0  0  0
  189.6370  175.3310  142.7680 O   0  0  0  0  0  0  0  0  0  0  0  0
  191.5090  176.9470  147.9790 C   0  0  0  0  0  1  0  0  0  0  0  0
  190.5690  177.2950  145.7260 C   0  0  0  0  0  2  0  0  0  0  0  0
  187.5720  176.3500  145.2600 C   0  0  0  0  0  2  0  0  0  0  0  0
  186.5980  176.5490  144.1900 N   0  0  0  0  0  2  0  0  0  0  0  0
  184.1690  179.3280  144.2290 C   0  0  0  0  0  2  0  0  0  0  0  0
  185.4820  179.9460  144.7220 C   0  0  0  0  0  2  0  0  0  0  0  0
  184.4130  178.4380  143.0450 C   0  0  0  0  0  0  0  0  0  0  0  0
  186.7560  177.9260  143.7490 C   0  0  1  0  0  3  0  0  0  0  0  0
  185.8300  178.2410  142.5510 C   0  0  1  0  0  3  0  0  0  0  0  0
  183.4710  177.8710  142.5160 O   0  0  0  0  0  0  0  0  0  0  0  0
  186.5530  178.8720  144.9480 C   0  0  0  0  0  2  0  0  0  0  0  0
  185.9140  177.2540  141.4650 N   0  0  2  0  0  0  0  0  0  0  0  0
  187.3890  176.4130  140.0760 C   0  0  0  0  0  2  0  0  0  0  0  0
  187.1890  176.7660  141.4120 O   0  0  0  0  0  0  0  0  0  0  0  0
  185.6800  177.9550  140.2640 N   0  0  0  0  0  2  0  0  0  0  0  0
  186.5390  177.3390  139.2820 C   0  0  0  0  0  2  0  0  0  0  0  0
  2  1  2  0  0  0  0
  3  4  2  0  0  0  0
  3  2  1  0  0  0  0
  4  5  1  0  0  0  0
  5  1  1  0  0  0  0
  6  7  2  0  0  0  0
  7  4  1  0  0  0  0
  8  7  1  0  0  0  0
  9 19  1  0  0  0  0
  9  8  1  1  0  0  0
 10 12  2  0  0  0  0
 11 13  1  0  0  0  0
 11 12  1  0  0  0  0
 12  9  1  0  0  0  0
 13 14  1  0  0  0  0
 14 17  2  0  0  0  0
 15 16  2  0  0  0  0
 16 17  1  0  0  0  0
 18 15  1  0  0  0  0
 18 13  2  0  0  0  0
 22 20  2  6  0  0  0
 22 21  1  0  0  0  0
 22 19  1  0  0  0  0
 23 22  1  0  0  0  0
 24 25  1  6  0  0  0
 24 23  1  0  0  0  0
 26 24  1  0  0  0  0
 27 28  2  0  0  0  0
 27 26  1  0  0  0  0
 30 29  1  0  0  0  0
 30 27  1  0  0  0  0
 31 32  1  0  0  0  0
 31  3  1  0  0  0  0
 32 38  1  0  0  0  0
 34 33  1  0  0  0  0
 35 38  1  0  0  0  0
 35 37  1  0  0  0  0
 36 33  1  0  0  0  0
 36 40  1  1  0  0  0
 37 42  1  1  0  0  0
 37 34  1  0  0  0  0
 38 41  1  0  0  0  0
 39 35  2  0  0  0  0
 41 36  1  0  0  0  0
 43 42  1  0  0  0  0
 44 45  1  0  0  0  0
 45 50  1  0  0  0  0
 46 44  1  0  0  0  0
 47 43  1  1  0  0  0
 47 50  1  0  0  0  0
 48 46  1  1  0  0  0
 48 47  1  0  0  0  0
 49 46  2  0  0  0  0
 51 54  1  6  0  0  0
 51 48  1  0  0  0  0
 52 53  1  0  0  0  0
 53 51  1  0  0  0  0
 55 52  1  0  0  0  0
 55 54  1  0  0  0  0
M  END
>  <MODEL>
1

>  <REMARK>
 VINA RESULT:      -6.3      0.000      0.000
  Name = 
  19 active torsions:
  status: ('A' for Active; 'I' for Inactive)
    1  A    between atoms: C_1  and  N_28
    2  A    between atoms: N_2  and  C_19
    3  A    between atoms: C_4  and  C_10
    4  A    between atoms: C_4  and  C_36
    5  A    between atoms: C_7  and  C_37
    6  A    between atoms: C_7  and  C_50
    7  A    between atoms: O_9  and  P_29
    8  A    between atoms: O_9  and  C_45
    9  A    between atoms: C_10  and  N_44
   10  A    between atoms: C_12  and  C_39
   11  A    between atoms: C_12  and  C_46
   12  A    between atoms: N_15  and  C_26
   13  A    between atoms: N_15  and  P_29
   14  A    between atoms: C_17  and  N_54
   15  A    between atoms: C_26  and  C_50
   16  A    between atoms: C_38  and  C_42
   17  A    between atoms: C_39  and  C_45
   18  A    between atoms: C_42  and  N_54
   19  A    between atoms: C_43  and  C_45
                            x       y       z     vdW  Elec       q    Type
                         _______ _______ _______ _____ _____    ______ ____

>  <TORSDO>
F 19

$$$$
=
 OpenBabel11062418363D

 55 59  0  0  1  0  0  0  0  0999 V2000
  191.5840  175.2950  147.0350 N   0  0  0  0  0  0  0  0  0  0  0  0
  191.0410  175.9580  145.9910 C   0  0  0  0  0  3  0  0  0  0  0  0
  192.0740  176.5610  145.2970 C   0  0  0  0  0  0  0  0  0  0  0  0
  193.2210  176.2300  145.9810 C   0  0  0  0  0  0  0  0  0  0  0  0
  192.9020  175.4600  147.0340 N   0  0  0  0  0  2  0  0  0  0  0  0
  194.8770  177.8970  145.7440 O   0  0  0  0  0  0  0  0  0  0  0  0
  194.5820  176.6710  145.6580 C   0  0  0  0  0  0  0  0  0  0  0  0
  195.6380  175.6380  145.3980 C   0  0  0  0  0  2  0  0  0  0  0  0
  195.5400  174.9930  144.0150 C   0  0  1  0  0  3  0  0  0  0  0  0
  197.0890  176.6980  143.3930 O   0  0  0  0  0  0  0  0  0  0  0  0
  196.1900  175.5490  141.5900 N   0  0  0  0  0  2  0  0  0  0  0  0
  196.2830  175.8090  142.9980 C   0  0  0  0  0  0  0  0  0  0  0  0
  195.3280  174.6370  140.8950 C   0  0  0  0  0  0  0  0  0  0  0  0
  194.0600  175.0880  140.5070 C   0  0  0  0  0  3  0  0  0  0  0  0
  194.8160  172.4540  139.9590 C   0  0  0  0  0  3  0  0  0  0  0  0
  193.5550  172.9140  139.5670 C   0  0  0  0  0  3  0  0  0  0  0  0
  193.1780  174.2330  139.8420 C   0  0  0  0  0  3  0  0  0  0  0  0
  195.6980  173.3120  140.6210 C   0  0  0  0  0  3  0  0  0  0  0  0
  196.1210  173.7180  144.0740 O   0  0  0  0  0  0  0  0  0  0  0  0
  194.5530  172.3760  145.7190 O   0  0  0  0  0  1  0  0  0  0  0  0
  193.4720  173.2500  143.5010 O   0  0  0  0  0  0  0  0  0  0  0  0
  194.8460  172.6130  144.2540 P   0  0  1  0  0  0  0  0  0  0  0  0
  195.2690  171.0900  143.4890 N   0  0  0  0  0  2  0  0  0  0  0  0
  194.2410  170.1300  143.8480 C   0  0  2  0  0  3  0  0  0  0  0  0
  194.8230  169.1100  144.8040 C   0  0  0  0  0  1  0  0  0  0  0  0
  193.7440  169.4270  142.5930 C   0  0  0  0  0  2  0  0  0  0  0  0
  192.3020  169.7480  142.3500 C   0  0  0  0  0  0  0  0  0  0  0  0
  191.6880  170.4350  143.1510 O   0  0  0  0  0  0  0  0  0  0  0  0
  192.5600  169.3530  139.9190 C   0  0  0  0  0  1  0  0  0  0  0  0
  191.6170  169.2690  141.1090 C   0  0  0  0  0  2  0  0  0  0  0  0
  191.9850  177.3970  144.0580 C   0  0  0  0  0  2  0  0  0  0  0  0
  191.8080  176.5660  142.7840 C   0  0  0  0  0  2  0  0  0  0  0  0
  188.1950  174.2770  141.2140 C   0  0  0  0  0  2  0  0  0  0  0  0
  187.7130  175.7280  141.0990 C   0  0  0  0  0  2  0  0  0  0  0  0
  189.3340  177.0380  142.5100 C   0  0  0  0  0  0  0  0  0  0  0  0
  189.7080  174.1580  141.3130 C   0  0  2  0  0  3  0  0  0  0  0  0
  187.9160  176.5680  142.3710 C   0  0  2  0  0  3  0  0  0  0  0  0
  190.4330  176.1090  142.5990 N   0  0  0  0  0  0  0  0  0  0  0  0
  189.5550  178.2800  142.5360 O   0  0  0  0  0  0  0  0  0  0  0  0
  190.1030  172.7030  141.1720 C   0  0  0  0  0  1  0  0  0  0  0  0
  190.2080  174.6700  142.6560 C   0  0  0  0  0  2  0  0  0  0  0  0
  187.4380  175.8720  143.6430 C   0  0  0  0  0  2  0  0  0  0  0  0
  186.3170  176.5990  144.2340 N   0  0  0  0  0  2  0  0  0  0  0  0
  185.5200  178.2420  147.4410 C   0  0  0  0  0  2  0  0  0  0  0  0
  187.0500  178.2660  147.3560 C   0  0  0  0  0  2  0  0  0  0  0  0
  184.9090  178.6230  146.1240 C   0  0  0  0  0  0  0  0  0  0  0  0
  186.8810  177.8020  144.8250 C   0  0  1  0  0  3  0  0  0  0  0  0
  185.8160  178.9170  144.9490 C   0  0  1  0  0  3  0  0  0  0  0  0
  183.6950  178.6660  146.0160 O   0  0  0  0  0  0  0  0  0  0  0  0
  187.5550  177.4440  146.1640 C   0  0  0  0  0  2  0  0  0  0  0  0
  185.0670  179.1580  143.7070 N   0  0  2  0  0  0  0  0  0  0  0  0
  184.1920  178.0400  142.0350 C   0  0  0  0  0  2  0  0  0  0  0  0
  184.3160  178.0530  143.4250 O   0  0  0  0  0  0  0  0  0  0  0  0
  186.0230  179.2920  142.6790 N   0  0  0  0  0  2  0  0  0  0  0  0
  185.4270  178.6850  141.5140 C   0  0  0  0  0  2  0  0  0  0  0  0
  2  1  2  0  0  0  0
  3  4  2  0  0  0  0
  3  2  1  0  0  0  0
  4  5  1  0  0  0  0
  5  1  1  0  0  0  0
  7  6  2  0  0  0  0
  7  4  1  0  0  0  0
  8  7  1  0  0  0  0
  9 19  1  0  0  0  0
  9  8  1  1  0  0  0
 11 12  1  0  0  0  0
 12 10  2  0  0  0  0
 12  9  1  0  0  0  0
 13 11  1  0  0  0  0
 14 13  2  0  0  0  0
 15 18  2  0  0  0  0
 16 17  2  0  0  0  0
 16 15  1  0  0  0  0
 17 14  1  0  0  0  0
 18 13  1  0  0  0  0
 19 22  1  0  0  0  0
 22 21  2  6  0  0  0
 22 20  1  0  0  0  0
 23 24  1  0  0  0  0
 23 22  1  0  0  0  0
 24 25  1  1  0  0  0
 26 24  1  0  0  0  0
 27 26  1  0  0  0  0
 27 28  2  0  0  0  0
 29 30  1  0  0  0  0
 30 27  1  0  0  0  0
 31  3  1  0  0  0  0
 32 31  1  0  0  0  0
 33 36  1  0  0  0  0
 34 33  1  0  0  0  0
 34 37  1  0  0  0  0
 35 39  2  0  0  0  0
 35 38  1  0  0  0  0
 36 40  1  1  0  0  0
 36 41  1  0  0  0  0
 37 35  1  0  0  0  0
 37 42  1  1  0  0  0
 38 41  1  0  0  0  0
 38 32  1  0  0  0  0
 42 43  1  0  0  0  0
 45 44  1  0  0  0  0
 46 44  1  0  0  0  0
 47 43  1  1  0  0  0
 47 48  1  0  0  0  0
 47 50  1  0  0  0  0
 48 46  1  1  0  0  0
 49 46  2  0  0  0  0
 50 45  1  0  0  0  0
 51 54  1  6  0  0  0
 51 48  1  0  0  0  0
 52 53  1  0  0  0  0
 53 51  1  0  0  0  0
 55 52  1  0  0  0  0
 55 54  1  0  0  0  0
M  END
>  <MODEL>
2

>  <REMARK>
 VINA RESULT:      -5.9      2.424      4.129
  Name = 
  19 active torsions:
  status: ('A' for Active; 'I' for Inactive)
    1  A    between atoms: C_1  and  N_28
    2  A    between atoms: N_2  and  C_19
    3  A    between atoms: C_4  and  C_10
    4  A    between atoms: C_4  and  C_36
    5  A    between atoms: C_7  and  C_37
    6  A    between atoms: C_7  and  C_50
    7  A    between atoms: O_9  and  P_29
    8  A    between atoms: O_9  and  C_45
    9  A    between atoms: C_10  and  N_44
   10  A    between atoms: C_12  and  C_39
   11  A    between atoms: C_12  and  C_46
   12  A    between atoms: N_15  and  C_26
   13  A    between atoms: N_15  and  P_29
   14  A    between atoms: C_17  and  N_54
   15  A    between atoms: C_26  and  C_50
   16  A    between atoms: C_38  and  C_42
   17  A    between atoms: C_39  and  C_45
   18  A    between atoms: C_42  and  N_54
   19  A    between atoms: C_43  and  C_45
                            x       y       z     vdW  Elec       q    Type
                         _______ _______ _______ _____ _____    ______ ____

>  <TORSDO>
F 19

$$$$
=
 OpenBabel11062418363D

 55 59  0  0  1  0  0  0  0  0999 V2000
  190.7550  175.9740  147.4300 N   0  0  0  0  0  0  0  0  0  0  0  0
  190.6610  176.7150  146.3030 C   0  0  0  0  0  3  0  0  0  0  0  0
  191.8480  176.5670  145.6090 C   0  0  0  0  0  0  0  0  0  0  0  0
  192.6240  175.7290  146.3760 C   0  0  0  0  0  0  0  0  0  0  0  0
  191.9400  175.3790  147.4780 N   0  0  0  0  0  2  0  0  0  0  0  0
  194.9110  176.1720  145.9870 O   0  0  0  0  0  0  0  0  0  0  0  0
  193.9960  175.3050  146.0820 C   0  0  0  0  0  0  0  0  0  0  0  0
  194.3160  173.8390  146.0660 C   0  0  0  0  0  2  0  0  0  0  0  0
  195.1930  173.4130  144.8880 C   0  0  1  0  0  3  0  0  0  0  0  0
  197.1420  173.3130  146.2620 O   0  0  0  0  0  0  0  0  0  0  0  0
  197.4970  174.3300  144.2080 N   0  0  0  0  0  2  0  0  0  0  0  0
  196.6370  173.7070  145.1720 C   0  0  0  0  0  0  0  0  0  0  0  0
  197.1620  174.8980  142.9330 C   0  0  0  0  0  0  0  0  0  0  0  0
  197.3890  174.1320  141.7840 C   0  0  0  0  0  3  0  0  0  0  0  0
  196.3570  176.7160  141.5360 C   0  0  0  0  0  3  0  0  0  0  0  0
  196.5780  175.9400  140.3940 C   0  0  0  0  0  3  0  0  0  0  0  0
  197.0950  174.6470  140.5200 C   0  0  0  0  0  3  0  0  0  0  0  0
  196.6490  176.1970  142.8000 C   0  0  0  0  0  3  0  0  0  0  0  0
  195.0480  172.0310  144.7010 O   0  0  0  0  0  0  0  0  0  0  0  0
  192.4860  171.5060  144.3520 O   0  0  0  0  0  1  0  0  0  0  0  0
  193.5670  173.2550  142.7330 O   0  0  0  0  0  0  0  0  0  0  0  0
  193.7650  171.8220  143.6110 P   0  0  1  0  0  0  0  0  0  0  0  0
  194.1360  170.5130  142.5010 N   0  0  0  0  0  2  0  0  0  0  0  0
  192.9020  170.1620  141.8230 C   0  0  2  0  0  3  0  0  0  0  0  0
  192.3600  168.8740  142.4060 C   0  0  0  0  0  1  0  0  0  0  0  0
  193.1760  169.9740  140.3380 C   0  0  0  0  0  2  0  0  0  0  0  0
  192.3960  170.9670  139.5320 C   0  0  0  0  0  0  0  0  0  0  0  0
  191.4780  170.5890  138.8230 O   0  0  0  0  0  0  0  0  0  0  0  0
  191.6560  173.2400  138.8840 C   0  0  0  0  0  1  0  0  0  0  0  0
  192.7070  172.4280  139.6240 C   0  0  0  0  0  2  0  0  0  0  0  0
  192.2260  177.1770  144.2940 C   0  0  0  0  0  2  0  0  0  0  0  0
  191.9430  176.2600  143.1020 C   0  0  0  0  0  2  0  0  0  0  0  0
  188.1490  174.0090  141.9640 C   0  0  0  0  0  2  0  0  0  0  0  0
  187.7580  175.4550  141.6360 C   0  0  0  0  0  2  0  0  0  0  0  0
  189.4990  176.8510  142.8010 C   0  0  0  0  0  0  0  0  0  0  0  0
  189.6530  173.8040  142.0540 C   0  0  2  0  0  3  0  0  0  0  0  0
  188.0500  176.4620  142.7600 C   0  0  2  0  0  3  0  0  0  0  0  0
  190.5370  175.8750  143.0130 N   0  0  0  0  0  0  0  0  0  0  0  0
  189.7990  178.0650  142.6320 O   0  0  0  0  0  0  0  0  0  0  0  0
  189.9500  172.3210  142.1320 C   0  0  0  0  0  1  0  0  0  0  0  0
  190.2220  174.4790  143.2940 C   0  0  0  0  0  2  0  0  0  0  0  0
  187.5630  176.0020  144.1320 C   0  0  0  0  0  2  0  0  0  0  0  0
  186.3470  176.7170  144.5100 N   0  0  0  0  0  2  0  0  0  0  0  0
  185.0890  178.4630  147.5090 C   0  0  0  0  0  2  0  0  0  0  0  0
  186.6160  178.5540  147.6130 C   0  0  0  0  0  2  0  0  0  0  0  0
  184.6330  178.7570  146.1090 C   0  0  0  0  0  0  0  0  0  0  0  0
  186.7840  177.9710  145.1060 C   0  0  1  0  0  3  0  0  0  0  0  0
  185.6680  179.0400  145.0420 C   0  0  1  0  0  3  0  0  0  0  0  0
  183.4410  178.7390  145.8500 O   0  0  0  0  0  0  0  0  0  0  0  0
  187.2990  177.7040  146.5340 C   0  0  0  0  0  2  0  0  0  0  0  0
  185.0710  179.1910  143.7070 N   0  0  2  0  0  0  0  0  0  0  0  0
  184.4590  177.9610  141.9970 C   0  0  0  0  0  2  0  0  0  0  0  0
  184.4070  178.0400  143.3900 O   0  0  0  0  0  0  0  0  0  0  0  0
  186.1420  179.3240  142.7990 N   0  0  0  0  0  2  0  0  0  0  0  0
  185.7220  178.6390  141.6010 C   0  0  0  0  0  2  0  0  0  0  0  0
  1  5  1  0  0  0  0
  2  1  2  0  0  0  0
  3  2  1  0  0  0  0
  3  4  2  0  0  0  0
  4  5  1  0  0  0  0
  6  7  2  0  0  0  0
  7  4  1  0  0  0  0
  8  7  1  0  0  0  0
  9 12  1  0  0  0  0
  9  8  1  1  0  0  0
 11 12  1  0  0  0  0
 12 10  2  0  0  0  0
 13 11  1  0  0  0  0
 14 13  2  0  0  0  0
 15 18  2  0  0  0  0
 16 17  2  0  0  0  0
 16 15  1  0  0  0  0
 17 14  1  0  0  0  0
 18 13  1  0  0  0  0
 19  9  1  0  0  0  0
 22 21  2  6  0  0  0
 22 20  1  0  0  0  0
 22 19  1  0  0  0  0
 23 22  1  0  0  0  0
 24 25  1  1  0  0  0
 24 23  1  0  0  0  0
 26 24  1  0  0  0  0
 27 30  1  0  0  0  0
 27 26  1  0  0  0  0
 28 27  2  0  0  0  0
 29 30  1  0  0  0  0
 31  3  1  0  0  0  0
 32 31  1  0  0  0  0
 33 36  1  0  0  0  0
 34 33  1  0  0  0  0
 34 37  1  0  0  0  0
 35 38  1  0  0  0  0
 36 40  1  1  0  0  0
 36 41  1  0  0  0  0
 37 35  1  0  0  0  0
 37 42  1  1  0  0  0
 38 32  1  0  0  0  0
 38 41  1  0  0  0  0
 39 35  2  0  0  0  0
 42 43  1  0  0  0  0
 44 45  1  0  0  0  0
 46 44  1  0  0  0  0
 47 43  1  1  0  0  0
 47 50  1  0  0  0  0
 48 47  1  0  0  0  0
 48 46  1  1  0  0  0
 49 46  2  0  0  0  0
 50 45  1  0  0  0  0
 51 54  1  6  0  0  0
 51 48  1  0  0  0  0
 52 53  1  0  0  0  0
 53 51  1  0  0  0  0
 55 52  1  0  0  0  0
 55 54  1  0  0  0  0
M  END
>  <MODEL>
3

>  <REMARK>
 VINA RESULT:      -5.8      2.208      3.318
  Name = 
  19 active torsions:
  status: ('A' for Active; 'I' for Inactive)
    1  A    between atoms: C_1  and  N_28
    2  A    between atoms: N_2  and  C_19
    3  A    between atoms: C_4  and  C_10
    4  A    between atoms: C_4  and  C_36
    5  A    between atoms: C_7  and  C_37
    6  A    between atoms: C_7  and  C_50
    7  A    between atoms: O_9  and  P_29
    8  A    between atoms: O_9  and  C_45
    9  A    between atoms: C_10  and  N_44
   10  A    between atoms: C_12  and  C_39
   11  A    between atoms: C_12  and  C_46
   12  A    between atoms: N_15  and  C_26
   13  A    between atoms: N_15  and  P_29
   14  A    between atoms: C_17  and  N_54
   15  A    between atoms: C_26  and  C_50
   16  A    between atoms: C_38  and  C_42
   17  A    between atoms: C_39  and  C_45
   18  A    between atoms: C_42  and  N_54
   19  A    between atoms: C_43  and  C_45
                            x       y       z     vdW  Elec       q    Type
                         _______ _______ _______ _____ _____    ______ ____

>  <TORSDO>
F 19

$$$$
=
 OpenBabel11062418363D

 55 59  0  0  1  0  0  0  0  0999 V2000
  196.3750  172.8510  145.1950 N   0  0  0  0  0  0  0  0  0  0  0  0
  195.0720  173.0650  145.4860 C   0  0  0  0  0  2  0  0  0  0  0  0
  194.3210  172.2820  144.6300 C   0  0  0  0  0  0  0  0  0  0  0  0
  195.2310  171.6220  143.8370 C   0  0  0  0  0  0  0  0  0  0  0  0
  196.4740  171.9810  144.1970 N   0  0  0  0  0  0  0  0  0  0  0  0
  194.1180  169.7450  142.9330 O   0  0  0  0  0  0  0  0  0  0  0  0
  194.9190  170.7030  142.7380 C   0  0  0  0  0  0  0  0  0  0  0  0
  195.4260  171.0170  141.3610 C   0  0  0  0  0  2  0  0  0  0  0  0
  194.3620  171.6020  140.4320 C   0  0  1  0  0  3  0  0  0  0  0  0
  195.1570  172.0000  138.2170 O   0  0  0  0  0  0  0  0  0  0  0  0
  195.3360  173.8380  139.6190 N   0  0  0  0  0  2  0  0  0  0  0  0
  194.9970  172.4650  139.3810 C   0  0  0  0  0  0  0  0  0  0  0  0
  195.2930  174.5800  140.8460 C   0  0  0  0  0  0  0  0  0  0  0  0
  194.1060  175.2430  141.1790 C   0  0  0  0  0  3  0  0  0  0  0  0
  196.3170  175.4370  142.8760 C   0  0  0  0  0  3  0  0  0  0  0  0
  195.1240  176.0900  143.2060 C   0  0  0  0  0  3  0  0  0  0  0  0
  194.0190  175.9920  142.3550 C   0  0  0  0  0  3  0  0  0  0  0  0
  196.4000  174.6870  141.7010 C   0  0  0  0  0  3  0  0  0  0  0  0
  193.6930  170.5450  139.7970 O   0  0  0  0  0  0  0  0  0  0  0  0
  191.1970  169.6900  139.8100 O   0  0  0  0  0  0  0  0  0  0  0  0
  191.7160  171.8520  141.1920 O   0  0  0  0  0  1  0  0  0  0  0  0
  192.0440  170.9430  139.8040 P   0  0  1  0  0  0  0  0  0  0  0  0
  191.6590  171.9010  138.3840 N   0  0  0  0  0  2  0  0  0  0  0  0
  190.2210  172.0940  138.3730 C   0  0  2  0  0  3  0  0  0  0  0  0
  189.6950  171.8560  136.9730 C   0  0  0  0  0  1  0  0  0  0  0  0
  189.8970  173.5170  138.8050 C   0  0  0  0  0  2  0  0  0  0  0  0
  188.8750  173.5120  139.8990 C   0  0  0  0  0  0  0  0  0  0  0  0
  188.1430  172.5450  140.0440 O   0  0  0  0  0  0  0  0  0  0  0  0
  188.1110  174.2300  142.1430 C   0  0  0  0  0  1  0  0  0  0  0  0
  188.7720  174.6660  140.8450 C   0  0  0  0  0  2  0  0  0  0  0  0
  192.8290  172.1590  144.5670 C   0  0  0  0  0  2  0  0  0  0  0  0
  192.1550  173.3630  143.9030 C   0  0  0  0  0  2  0  0  0  0  0  0
  191.1520  176.0060  147.4760 C   0  0  0  0  0  2  0  0  0  0  0  0
  190.0910  174.9060  147.6010 C   0  0  0  0  0  2  0  0  0  0  0  0
  190.1220  173.7520  145.3640 C   0  0  0  0  0  0  0  0  0  0  0  0
  192.3350  175.5970  146.6130 C   0  0  2  0  0  3  0  0  0  0  0  0
  189.3250  174.6110  146.3010 C   0  0  2  0  0  3  0  0  0  0  0  0
  191.4020  174.1770  144.8540 N   0  0  0  0  0  0  0  0  0  0  0  0
  189.6530  172.6290  145.0330 O   0  0  0  0  0  0  0  0  0  0  0  0
  193.4310  176.6350  146.7480 C   0  0  0  0  0  1  0  0  0  0  0  0
  191.9360  175.5010  145.1480 C   0  0  0  0  0  2  0  0  0  0  0  0
  188.8120  175.8660  145.5980 C   0  0  0  0  0  2  0  0  0  0  0  0
  187.4840  176.2230  146.0920 N   0  0  0  0  0  2  0  0  0  0  0  0
  185.3360  178.5670  147.9660 C   0  0  0  0  0  2  0  0  0  0  0  0
  186.7180  179.2300  147.9460 C   0  0  0  0  0  2  0  0  0  0  0  0
  184.9950  178.0070  146.6160 C   0  0  0  0  0  0  0  0  0  0  0  0
  187.3970  177.6720  146.0060 C   0  0  1  0  0  3  0  0  0  0  0  0
  186.0070  178.1190  145.4950 C   0  0  1  0  0  3  0  0  0  0  0  0
  183.9220  177.4510  146.4510 O   0  0  0  0  0  0  0  0  0  0  0  0
  187.7800  178.2880  147.3650 C   0  0  0  0  0  2  0  0  0  0  0  0
  185.5730  177.4220  144.2760 N   0  0  2  0  0  0  0  0  0  0  0  0
  185.9900  177.3970  142.1220 C   0  0  0  0  0  2  0  0  0  0  0  0
  186.6020  177.4280  143.3770 O   0  0  0  0  0  0  0  0  0  0  0  0
  184.5250  178.1870  143.7250 N   0  0  0  0  0  2  0  0  0  0  0  0
  184.6830  178.0860  142.2940 C   0  0  0  0  0  2  0  0  0  0  0  0
  1  2  1  0  0  0  0
  3  2  1  0  0  0  0
  4  5  1  0  0  0  0
  4  3  2  0  0  0  0
  5  1  2  0  0  0  0
  7  6  2  0  0  0  0
  7  4  1  0  0  0  0
  8  7  1  0  0  0  0
  9  8  1  1  0  0  0
 10 12  2  0  0  0  0
 11 13  1  0  0  0  0
 12 11  1  0  0  0  0
 12  9  1  0  0  0  0
 13 14  2  0  0  0  0
 13 18  1  0  0  0  0
 14 17  1  0  0  0  0
 15 16  1  0  0  0  0
 17 16  2  0  0  0  0
 18 15  2  0  0  0  0
 19 22  1  0  0  0  0
 19  9  1  0  0  0  0
 22 20  2  1  0  0  0
 22 21  1  0  0  0  0
 23 22  1  0  0  0  0
 24 25  1  6  0  0  0
 24 23  1  0  0  0  0
 24 26  1  0  0  0  0
 26 27  1  0  0  0  0
 27 28  2  0  0  0  0
 27 30  1  0  0  0  0
 30 29  1  0  0  0  0
 31  3  1  0  0  0  0
 32 31  1  0  0  0  0
 32 38  1  0  0  0  0
 33 34  1  0  0  0  0
 35 37  1  0  0  0  0
 36 40  1  6  0  0  0
 36 33  1  0  0  0  0
 37 42  1  6  0  0  0
 37 34  1  0  0  0  0
 38 41  1  0  0  0  0
 38 35  1  0  0  0  0
 39 35  2  0  0  0  0
 41 36  1  0  0  0  0
 42 43  1  0  0  0  0
 45 44  1  0  0  0  0
 46 44  1  0  0  0  0
 47 43  1  1  0  0  0
 47 50  1  0  0  0  0
 48 47  1  0  0  0  0
 48 46  1  1  0  0  0
 49 46  2  0  0  0  0
 50 45  1  0  0  0  0
 51 53  1  6  0  0  0
 51 48  1  0  0  0  0
 52 55  1  0  0  0  0
 52 53  1  0  0  0  0
 54 51  1  0  0  0  0
 55 54  1  0  0  0  0
M  END
>  <MODEL>
4

>  <REMARK>
 VINA RESULT:      -5.7      2.025      3.097
  Name = 
  19 active torsions:
  status: ('A' for Active; 'I' for Inactive)
    1  A    between atoms: C_1  and  N_28
    2  A    between atoms: N_2  and  C_19
    3  A    between atoms: C_4  and  C_10
    4  A    between atoms: C_4  and  C_36
    5  A    between atoms: C_7  and  C_37
    6  A    between atoms: C_7  and  C_50
    7  A    between atoms: O_9  and  P_29
    8  A    between atoms: O_9  and  C_45
    9  A    between atoms: C_10  and  N_44
   10  A    between atoms: C_12  and  C_39
   11  A    between atoms: C_12  and  C_46
   12  A    between atoms: N_15  and  C_26
   13  A    between atoms: N_15  and  P_29
   14  A    between atoms: C_17  and  N_54
   15  A    between atoms: C_26  and  C_50
   16  A    between atoms: C_38  and  C_42
   17  A    between atoms: C_39  and  C_45
   18  A    between atoms: C_42  and  N_54
   19  A    between atoms: C_43  and  C_45
                            x       y       z     vdW  Elec       q    Type
                         _______ _______ _______ _____ _____    ______ ____

>  <TORSDO>
F 19

$$$$
=
 OpenBabel11062418363D

 55 59  0  0  1  0  0  0  0  0999 V2000
  193.4930  171.6160  143.4550 N   0  0  0  0  0  0  0  0  0  0  0  0
  193.0710  171.2580  142.2220 C   0  0  0  0  0  3  0  0  0  0  0  0
  191.7860  171.7430  142.0650 C   0  0  0  0  0  0  0  0  0  0  0  0
  191.4840  172.3790  143.2470 C   0  0  0  0  0  0  0  0  0  0  0  0
  192.5350  172.2910  144.0780 N   0  0  0  0  0  2  0  0  0  0  0  0
  189.4520  172.4890  144.4460 O   0  0  0  0  0  0  0  0  0  0  0  0
  190.2100  173.0210  143.5860 C   0  0  0  0  0  0  0  0  0  0  0  0
  189.9110  174.3820  143.0290 C   0  0  0  0  0  2  0  0  0  0  0  0
  190.1410  175.5190  144.0250 C   0  0  1  0  0  3  0  0  0  0  0  0
  190.0660  177.4200  142.5850 O   0  0  0  0  0  0  0  0  0  0  0  0
  192.1250  177.0980  143.6010 N   0  0  0  0  0  2  0  0  0  0  0  0
  190.7720  176.6970  143.3440 C   0  0  0  0  0  0  0  0  0  0  0  0
  193.1320  176.4320  144.3770 C   0  0  0  0  0  0  0  0  0  0  0  0
  194.0190  175.5740  143.7170 C   0  0  0  0  0  3  0  0  0  0  0  0
  194.2200  175.9010  146.4840 C   0  0  0  0  0  3  0  0  0  0  0  0
  195.1090  175.0530  145.8160 C   0  0  0  0  0  3  0  0  0  0  0  0
  195.0060  174.8900  144.4300 C   0  0  0  0  0  3  0  0  0  0  0  0
  193.2360  176.5870  145.7680 C   0  0  0  0  0  3  0  0  0  0  0  0
  188.9000  175.9150  144.5450 O   0  0  0  0  0  0  0  0  0  0  0  0
  189.9490  174.9350  146.7590 O   0  0  0  0  0  1  0  0  0  0  0  0
  189.8720  177.5420  146.5380 O   0  0  0  0  0  0  0  0  0  0  0  0
  189.1040  176.0680  146.2220 P   0  0  1  0  0  0  0  0  0  0  0  0
  187.5370  176.0540  147.0140 N   0  0  0  0  0  2  0  0  0  0  0  0
  186.8170  177.2310  146.5630 C   0  0  2  0  0  3  0  0  0  0  0  0
  186.2730  177.9740  147.7640 C   0  0  0  0  0  1  0  0  0  0  0  0
  185.6670  176.8060  145.6610 C   0  0  0  0  0  2  0  0  0  0  0  0
  185.8440  177.3730  144.2860 C   0  0  0  0  0  0  0  0  0  0  0  0
  185.4930  176.7260  143.3120 O   0  0  0  0  0  0  0  0  0  0  0  0
  185.3150  179.7910  144.2370 C   0  0  0  0  0  1  0  0  0  0  0  0
  186.4090  178.7450  144.0990 C   0  0  0  0  0  2  0  0  0  0  0  0
  190.8960  171.6170  140.8670 C   0  0  0  0  0  2  0  0  0  0  0  0
  191.1830  170.3650  140.0340 C   0  0  0  0  0  2  0  0  0  0  0  0
  191.8140  170.8470  135.5480 C   0  0  0  0  0  2  0  0  0  0  0  0
  193.0740  170.0720  135.9540 C   0  0  0  0  0  2  0  0  0  0  0  0
  193.1650  170.2990  138.4590 C   0  0  0  0  0  0  0  0  0  0  0  0
  190.6940  170.7410  136.5710 C   0  0  2  0  0  3  0  0  0  0  0  0
  193.8220  170.6640  137.1600 C   0  0  2  0  0  3  0  0  0  0  0  0
  191.8050  170.6770  138.7500 N   0  0  0  0  0  0  0  0  0  0  0  0
  193.8290  169.6350  139.3020 O   0  0  0  0  0  0  0  0  0  0  0  0
  189.4250  171.3190  135.9800 C   0  0  0  0  0  1  0  0  0  0  0  0
  191.0370  171.5140  137.8360 C   0  0  0  0  0  2  0  0  0  0  0  0
  194.0470  172.1700  137.0580 C   0  0  0  0  0  2  0  0  0  0  0  0
  194.8850  172.6380  138.1600 N   0  0  0  0  0  2  0  0  0  0  0  0
  194.9830  175.7580  136.1910 C   0  0  0  0  0  2  0  0  0  0  0  0
  193.5780  175.7220  136.8010 C   0  0  0  0  0  2  0  0  0  0  0  0
  196.0160  175.3720  137.2100 C   0  0  0  0  0  0  0  0  0  0  0  0
  194.4010  173.9660  138.5010 C   0  0  1  0  0  3  0  0  0  0  0  0
  195.5660  174.9790  138.6000 C   0  0  1  0  0  3  0  0  0  0  0  0
  197.1940  175.3570  136.8950 O   0  0  0  0  0  0  0  0  0  0  0  0
  193.3070  174.3840  137.4990 C   0  0  0  0  0  2  0  0  0  0  0  0
  196.6800  174.5160  139.4410 N   0  0  2  0  0  0  0  0  0  0  0  0
  197.1070  174.0270  141.5360 C   0  0  0  0  0  2  0  0  0  0  0  0
  196.1700  173.8470  140.5170 O   0  0  0  0  0  0  0  0  0  0  0  0
  197.3240  175.6710  139.9280 N   0  0  0  0  0  2  0  0  0  0  0  0
  197.7450  175.3440  141.2690 C   0  0  0  0  0  2  0  0  0  0  0  0
  1  5  1  0  0  0  0
  2  1  2  0  0  0  0
  3  2  1  0  0  0  0
  3  4  2  0  0  0  0
  4  7  1  0  0  0  0
  4  5  1  0  0  0  0
  7  6  2  0  0  0  0
  8  7  1  0  0  0  0
  9  8  1  6  0  0  0
  9 19  1  0  0  0  0
 10 12  2  0  0  0  0
 11 13  1  0  0  0  0
 12 11  1  0  0  0  0
 12  9  1  0  0  0  0
 13 18  1  0  0  0  0
 14 13  2  0  0  0  0
 14 17  1  0  0  0  0
 16 15  1  0  0  0  0
 17 16  2  0  0  0  0
 18 15  2  0  0  0  0
 19 22  1  0  0  0  0
 22 21  2  1  0  0  0
 22 20  1  0  0  0  0
 22 23  1  0  0  0  0
 24 23  1  0  0  0  0
 24 25  1  1  0  0  0
 26 24  1  0  0  0  0
 27 26  1  0  0  0  0
 28 27  2  0  0  0  0
 30 29  1  0  0  0  0
 30 27  1  0  0  0  0
 31  3  1  0  0  0  0
 32 31  1  0  0  0  0
 33 34  1  0  0  0  0
 33 36  1  0  0  0  0
 34 37  1  0  0  0  0
 35 38  1  0  0  0  0
 35 39  2  0  0  0  0
 36 40  1  6  0  0  0
 36 41  1  0  0  0  0
 37 42  1  6  0  0  0
 37 35  1  0  0  0  0
 38 32  1  0  0  0  0
 41 38  1  0  0  0  0
 42 43  1  0  0  0  0
 44 45  1  0  0  0  0
 44 46  1  0  0  0  0
 45 50  1  0  0  0  0
 47 43  1  6  0  0  0
 47 48  1  0  0  0  0
 48 46  1  6  0  0  0
 48 51  1  0  0  0  0
 49 46  2  0  0  0  0
 50 47  1  0  0  0  0
 51 54  1  1  0  0  0
 51 53  1  0  0  0  0
 53 52  1  0  0  0  0
 54 55  1  0  0  0  0
 55 52  1  0  0  0  0
M  END
>  <MODEL>
5

>  <REMARK>
 VINA RESULT:      -5.7      2.935      9.013
  Name = 
  19 active torsions:
  status: ('A' for Active; 'I' for Inactive)
    1  A    between atoms: C_1  and  N_28
    2  A    between atoms: N_2  and  C_19
    3  A    between atoms: C_4  and  C_10
    4  A    between atoms: C_4  and  C_36
    5  A    between atoms: C_7  and  C_37
    6  A    between atoms: C_7  and  C_50
    7  A    between atoms: O_9  and  P_29
    8  A    between atoms: O_9  and  C_45
    9  A    between atoms: C_10  and  N_44
   10  A    between atoms: C_12  and  C_39
   11  A    between atoms: C_12  and  C_46
   12  A    between atoms: N_15  and  C_26
   13  A    between atoms: N_15  and  P_29
   14  A    between atoms: C_17  and  N_54
   15  A    between atoms: C_26  and  C_50
   16  A    between atoms: C_38  and  C_42
   17  A    between atoms: C_39  and  C_45
   18  A    between atoms: C_42  and  N_54
   19  A    between atoms: C_43  and  C_45
                            x       y       z     vdW  Elec       q    Type
                         _______ _______ _______ _____ _____    ______ ____

>  <TORSDO>
F 19

$$$$
=
 OpenBabel11062418363D

 55 59  0  0  1  0  0  0  0  0999 V2000
  187.5720  176.1140  140.4460 N   0  0  0  0  0  0  0  0  0  0  0  0
  187.8670  175.0400  139.6800 C   0  0  0  0  0  3  0  0  0  0  0  0
  188.5510  174.1380  140.4740 C   0  0  0  0  0  0  0  0  0  0  0  0
  188.6450  174.7310  141.7110 C   0  0  0  0  0  0  0  0  0  0  0  0
  188.0430  175.9310  141.6740 N   0  0  0  0  0  2  0  0  0  0  0  0
  188.8950  173.1190  143.4190 O   0  0  0  0  0  0  0  0  0  0  0  0
  189.3260  174.1810  142.8880 C   0  0  0  0  0  0  0  0  0  0  0  0
  190.6190  174.7980  143.3330 C   0  0  0  0  0  2  0  0  0  0  0  0
  190.4720  175.7460  144.5240 C   0  0  1  0  0  3  0  0  0  0  0  0
  190.1890  178.0120  143.8320 O   0  0  0  0  0  0  0  0  0  0  0  0
  192.3830  177.4560  144.3380 N   0  0  0  0  0  2  0  0  0  0  0  0
  191.0000  177.1080  144.1820 C   0  0  0  0  0  0  0  0  0  0  0  0
  193.4940  176.6120  144.6750 C   0  0  0  0  0  0  0  0  0  0  0  0
  193.7340  176.3400  146.0270 C   0  0  0  0  0  3  0  0  0  0  0  0
  195.4400  175.2830  144.0830 C   0  0  0  0  0  3  0  0  0  0  0  0
  195.6670  175.0070  145.4350 C   0  0  0  0  0  3  0  0  0  0  0  0
  194.8130  175.5380  146.4070 C   0  0  0  0  0  3  0  0  0  0  0  0
  194.3580  176.0830  143.7050 C   0  0  0  0  0  3  0  0  0  0  0  0
  189.1100  175.8610  144.8370 O   0  0  0  0  0  0  0  0  0  0  0  0
  189.2680  174.2080  146.8880 O   0  0  0  0  0  0  0  0  0  0  0  0
  190.0980  176.6600  147.2760 O   0  0  0  0  0  1  0  0  0  0  0  0
  188.9800  175.6440  146.5150 P   0  0  1  0  0  0  0  0  0  0  0  0
  187.3600  176.0710  147.0440 N   0  0  0  0  0  2  0  0  0  0  0  0
  186.9720  177.2660  146.3160 C   0  0  2  0  0  3  0  0  0  0  0  0
  186.5120  178.3210  147.2990 C   0  0  0  0  0  1  0  0  0  0  0  0
  185.8370  176.9290  145.3600 C   0  0  0  0  0  2  0  0  0  0  0  0
  185.8300  177.8790  144.2020 C   0  0  0  0  0  0  0  0  0  0  0  0
  186.8750  178.3840  143.8220 O   0  0  0  0  0  0  0  0  0  0  0  0
  184.7400  177.9960  141.9820 C   0  0  0  0  0  1  0  0  0  0  0  0
  184.5560  178.1830  143.4790 C   0  0  0  0  0  2  0  0  0  0  0  0
  189.0810  172.7910  140.0880 C   0  0  0  0  0  2  0  0  0  0  0  0
  188.8470  172.4540  138.6130 C   0  0  0  0  0  2  0  0  0  0  0  0
  191.5540  173.4120  135.0750 C   0  0  0  0  0  2  0  0  0  0  0  0
  192.0740  172.0320  135.4950 C   0  0  0  0  0  2  0  0  0  0  0  0
  191.1150  171.6760  137.7940 C   0  0  0  0  0  0  0  0  0  0  0  0
  190.1560  173.7060  135.5980 C   0  0  2  0  0  3  0  0  0  0  0  0
  192.3680  171.8930  136.9970 C   0  0  2  0  0  3  0  0  0  0  0  0
  190.0450  172.6420  137.7980 N   0  0  0  0  0  0  0  0  0  0  0  0
  191.0060  170.6120  138.4630 O   0  0  0  0  0  0  0  0  0  0  0  0
  189.6330  174.9650  134.9380 C   0  0  0  0  0  1  0  0  0  0  0  0
  190.1710  173.9180  137.1050 C   0  0  0  0  0  2  0  0  0  0  0  0
  193.1910  173.0460  137.5660 C   0  0  0  0  0  2  0  0  0  0  0  0
  193.9160  172.6180  138.7600 N   0  0  0  0  0  2  0  0  0  0  0  0
  196.5920  174.3730  140.5990 C   0  0  0  0  0  2  0  0  0  0  0  0
  195.6610  175.4850  140.1030 C   0  0  0  0  0  2  0  0  0  0  0  0
  195.8000  173.2250  141.1540 C   0  0  0  0  0  0  0  0  0  0  0  0
  193.8230  173.7190  139.7060 C   0  0  1  0  0  3  0  0  0  0  0  0
  194.2880  173.2860  141.1160 C   0  0  1  0  0  3  0  0  0  0  0  0
  196.3860  172.2540  141.6040 O   0  0  0  0  0  0  0  0  0  0  0  0
  194.5920  174.9340  139.1510 C   0  0  0  0  0  2  0  0  0  0  0  0
  193.6630  172.0410  141.5870 N   0  0  2  0  0  0  0  0  0  0  0  0
  191.6910  171.2660  142.1520 C   0  0  0  0  0  2  0  0  0  0  0  0
  192.3570  172.0270  141.1890 O   0  0  0  0  0  0  0  0  0  0  0  0
  193.6750  172.0920  142.9960 N   0  0  0  0  0  2  0  0  0  0  0  0
  192.4460  171.4650  143.4170 C   0  0  0  0  0  2  0  0  0  0  0  0
  1  5  1  0  0  0  0
  2  1  2  0  0  0  0
  2  3  1  0  0  0  0
  3  4  2  0  0  0  0
  4  7  1  0  0  0  0
  5  4  1  0  0  0  0
  7  8  1  0  0  0  0
  7  6  2  0  0  0  0
  9  8  1  6  0  0  0
  9 19  1  0  0  0  0
 10 12  2  0  0  0  0
 11 13  1  0  0  0  0
 12 11  1  0  0  0  0
 12  9  1  0  0  0  0
 13 14  1  0  0  0  0
 14 17  2  0  0  0  0
 15 16  2  0  0  0  0
 16 17  1  0  0  0  0
 18 15  1  0  0  0  0
 18 13  2  0  0  0  0
 19 22  1  0  0  0  0
 22 20  2  1  0  0  0
 22 23  1  0  0  0  0
 22 21  1  0  0  0  0
 24 23  1  0  0  0  0
 24 25  1  1  0  0  0
 26 24  1  0  0  0  0
 27 26  1  0  0  0  0
 28 27  2  0  0  0  0
 29 30  1  0  0  0  0
 30 27  1  0  0  0  0
 31  3  1  0  0  0  0
 32 31  1  0  0  0  0
 33 34  1  0  0  0  0
 33 36  1  0  0  0  0
 34 37  1  0  0  0  0
 35 38  1  0  0  0  0
 35 39  2  0  0  0  0
 36 40  1  6  0  0  0
 36 41  1  0  0  0  0
 37 42  1  1  0  0  0
 37 35  1  0  0  0  0
 38 32  1  0  0  0  0
 41 38  1  0  0  0  0
 42 43  1  0  0  0  0
 44 46  1  0  0  0  0
 45 44  1  0  0  0  0
 46 49  2  0  0  0  0
 47 43  1  6  0  0  0
 47 48  1  0  0  0  0
 48 46  1  6  0  0  0
 48 51  1  0  0  0  0
 50 47  1  0  0  0  0
 50 45  1  0  0  0  0
 51 53  1  6  0  0  0
 51 54  1  0  0  0  0
 52 55  1  0  0  0  0
 53 52  1  0  0  0  0
 54 55  1  0  0  0  0
M  END
>  <MODEL>
6

>  <REMARK>
 VINA RESULT:      -5.7      2.392      8.684
  Name = 
  19 active torsions:
  status: ('A' for Active; 'I' for Inactive)
    1  A    between atoms: C_1  and  N_28
    2  A    between atoms: N_2  and  C_19
    3  A    between atoms: C_4  and  C_10
    4  A    between atoms: C_4  and  C_36
    5  A    between atoms: C_7  and  C_37
    6  A    between atoms: C_7  and  C_50
    7  A    between atoms: O_9  and  P_29
    8  A    between atoms: O_9  and  C_45
    9  A    between atoms: C_10  and  N_44
   10  A    between atoms: C_12  and  C_39
   11  A    between atoms: C_12  and  C_46
   12  A    between atoms: N_15  and  C_26
   13  A    between atoms: N_15  and  P_29
   14  A    between atoms: C_17  and  N_54
   15  A    between atoms: C_26  and  C_50
   16  A    between atoms: C_38  and  C_42
   17  A    between atoms: C_39  and  C_45
   18  A    between atoms: C_42  and  N_54
   19  A    between atoms: C_43  and  C_45
                            x       y       z     vdW  Elec       q    Type
                         _______ _______ _______ _____ _____    ______ ____

>  <TORSDO>
F 19

$$$$
=
 OpenBabel11062418363D

 55 59  0  0  1  0  0  0  0  0999 V2000
  190.7400  176.0750  147.6050 N   0  0  0  0  0  0  0  0  0  0  0  0
  190.6120  176.8360  146.4960 C   0  0  0  0  0  3  0  0  0  0  0  0
  191.7710  176.6920  145.7560 C   0  0  0  0  0  0  0  0  0  0  0  0
  192.5670  175.8340  146.4790 C   0  0  0  0  0  0  0  0  0  0  0  0
  191.9220  175.4700  147.5990 N   0  0  0  0  0  2  0  0  0  0  0  0
  194.9150  176.0910  146.5080 O   0  0  0  0  0  0  0  0  0  0  0  0
  193.9250  175.4050  146.1260 C   0  0  0  0  0  0  0  0  0  0  0  0
  194.1160  174.0710  145.4660 C   0  0  0  0  0  2  0  0  0  0  0  0
  195.4750  173.9100  144.7850 C   0  0  1  0  0  3  0  0  0  0  0  0
  197.1730  173.0900  146.2470 O   0  0  0  0  0  0  0  0  0  0  0  0
  195.9390  171.4190  145.2170 N   0  0  0  0  0  2  0  0  0  0  0  0
  196.2580  172.8020  145.4250 C   0  0  0  0  0  0  0  0  0  0  0  0
  194.9880  170.8370  144.3130 C   0  0  0  0  0  0  0  0  0  0  0  0
  193.6670  170.6810  144.7500 C   0  0  0  0  0  3  0  0  0  0  0  0
  194.3850  169.8160  142.1920 C   0  0  0  0  0  3  0  0  0  0  0  0
  193.0650  169.6720  142.6330 C   0  0  0  0  0  3  0  0  0  0  0  0
  192.7080  170.1050  143.9140 C   0  0  0  0  0  3  0  0  0  0  0  0
  195.3420  170.3950  143.0300 C   0  0  0  0  0  3  0  0  0  0  0  0
  195.2640  173.5870  143.4370 O   0  0  0  0  0  0  0  0  0  0  0  0
  196.5400  175.8970  143.4240 O   0  0  0  0  0  1  0  0  0  0  0  0
  197.3280  174.0990  141.6930 O   0  0  0  0  0  0  0  0  0  0  0  0
  196.0290  174.7950  142.5240 P   0  0  1  0  0  0  0  0  0  0  0  0
  194.8960  175.4670  141.3620 N   0  0  0  0  0  2  0  0  0  0  0  0
  194.8800  174.5790  140.2140 C   0  0  2  0  0  3  0  0  0  0  0  0
  195.4870  175.2900  139.0240 C   0  0  0  0  0  1  0  0  0  0  0  0
  193.4450  174.1870  139.8980 C   0  0  0  0  0  2  0  0  0  0  0  0
  193.3560  172.7220  139.6000 C   0  0  0  0  0  0  0  0  0  0  0  0
  194.3610  172.0310  139.6390 O   0  0  0  0  0  0  0  0  0  0  0  0
  191.0020  173.1540  138.9610 C   0  0  0  0  0  1  0  0  0  0  0  0
  192.0340  172.0890  139.2970 C   0  0  0  0  0  2  0  0  0  0  0  0
  192.1060  177.3230  144.4390 C   0  0  0  0  0  2  0  0  0  0  0  0
  191.8960  176.3810  143.2500 C   0  0  0  0  0  2  0  0  0  0  0  0
  188.2600  173.8640  142.1550 C   0  0  0  0  0  2  0  0  0  0  0  0
  187.8230  175.2560  141.6830 C   0  0  0  0  0  2  0  0  0  0  0  0
  189.4450  176.8280  142.7930 C   0  0  0  0  0  0  0  0  0  0  0  0
  189.7660  173.7390  142.3270 C   0  0  2  0  0  3  0  0  0  0  0  0
  188.0180  176.3700  142.7250 C   0  0  2  0  0  3  0  0  0  0  0  0
  190.5140  175.9240  143.1360 N   0  0  0  0  0  0  0  0  0  0  0  0
  189.7010  178.0360  142.5310 O   0  0  0  0  0  0  0  0  0  0  0  0
  190.1220  172.2840  142.5490 C   0  0  0  0  0  1  0  0  0  0  0  0
  190.2460  174.5450  143.5260 C   0  0  0  0  0  2  0  0  0  0  0  0
  187.4870  176.0080  144.1100 C   0  0  0  0  0  2  0  0  0  0  0  0
  186.2780  176.7710  144.4110 N   0  0  0  0  0  2  0  0  0  0  0  0
  185.0520  178.3020  147.5370 C   0  0  0  0  0  2  0  0  0  0  0  0
  186.5800  178.3860  147.6310 C   0  0  0  0  0  2  0  0  0  0  0  0
  184.5810  178.6920  146.1670 C   0  0  0  0  0  0  0  0  0  0  0  0
  186.7220  177.9800  145.0880 C   0  0  1  0  0  3  0  0  0  0  0  0
  185.6050  179.0500  145.1110 C   0  0  1  0  0  3  0  0  0  0  0  0
  183.3870  178.6910  145.9190 O   0  0  0  0  0  0  0  0  0  0  0  0
  187.2510  177.6150  146.4880 C   0  0  0  0  0  2  0  0  0  0  0  0
  184.9940  179.2930  143.7950 N   0  0  2  0  0  0  0  0  0  0  0  0
  184.1550  178.1750  142.1060 C   0  0  0  0  0  2  0  0  0  0  0  0
  184.1590  178.2540  143.5000 O   0  0  0  0  0  0  0  0  0  0  0  0
  186.0430  179.2740  142.8540 N   0  0  0  0  0  2  0  0  0  0  0  0
  185.4900  178.6630  141.6700 C   0  0  0  0  0  2  0  0  0  0  0  0
  2  1  2  0  0  0  0
  3  4  2  0  0  0  0
  3  2  1  0  0  0  0
  4  5  1  0  0  0  0
  5  1  1  0  0  0  0
  7  4  1  0  0  0  0
  7  6  2  0  0  0  0
  8  7  1  0  0  0  0
  9 12  1  0  0  0  0
  9  8  1  1  0  0  0
 11 12  1  0  0  0  0
 12 10  2  0  0  0  0
 13 14  1  0  0  0  0
 13 11  1  0  0  0  0
 15 16  2  0  0  0  0
 15 18  1  0  0  0  0
 16 17  1  0  0  0  0
 17 14  2  0  0  0  0
 18 13  2  0  0  0  0
 19  9  1  0  0  0  0
 22 21  2  6  0  0  0
 22 20  1  0  0  0  0
 22 19  1  0  0  0  0
 23 22  1  0  0  0  0
 24 25  1  6  0  0  0
 24 23  1  0  0  0  0
 26 24  1  0  0  0  0
 27 28  2  0  0  0  0
 27 26  1  0  0  0  0
 29 30  1  0  0  0  0
 30 27  1  0  0  0  0
 31  3  1  0  0  0  0
 32 31  1  0  0  0  0
 33 36  1  0  0  0  0
 34 33  1  0  0  0  0
 34 37  1  0  0  0  0
 35 38  1  0  0  0  0
 36 40  1  1  0  0  0
 36 41  1  0  0  0  0
 37 35  1  0  0  0  0
 37 42  1  1  0  0  0
 38 32  1  0  0  0  0
 38 41  1  0  0  0  0
 39 35  2  0  0  0  0
 42 43  1  0  0  0  0
 44 45  1  0  0  0  0
 46 44  1  0  0  0  0
 47 43  1  1  0  0  0
 47 48  1  0  0  0  0
 47 50  1  0  0  0  0
 48 46  1  1  0  0  0
 49 46  2  0  0  0  0
 50 45  1  0  0  0  0
 51 54  1  6  0  0  0
 51 48  1  0  0  0  0
 52 53  1  0  0  0  0
 53 51  1  0  0  0  0
 55 52  1  0  0  0  0
 55 54  1  0  0  0  0
M  END
>  <MODEL>
7

>  <REMARK>
 VINA RESULT:      -5.6      2.496      4.076
  Name = 
  19 active torsions:
  status: ('A' for Active; 'I' for Inactive)
    1  A    between atoms: C_1  and  N_28
    2  A    between atoms: N_2  and  C_19
    3  A    between atoms: C_4  and  C_10
    4  A    between atoms: C_4  and  C_36
    5  A    between atoms: C_7  and  C_37
    6  A    between atoms: C_7  and  C_50
    7  A    between atoms: O_9  and  P_29
    8  A    between atoms: O_9  and  C_45
    9  A    between atoms: C_10  and  N_44
   10  A    between atoms: C_12  and  C_39
   11  A    between atoms: C_12  and  C_46
   12  A    between atoms: N_15  and  C_26
   13  A    between atoms: N_15  and  P_29
   14  A    between atoms: C_17  and  N_54
   15  A    between atoms: C_26  and  C_50
   16  A    between atoms: C_38  and  C_42
   17  A    between atoms: C_39  and  C_45
   18  A    between atoms: C_42  and  N_54
   19  A    between atoms: C_43  and  C_45
                            x       y       z     vdW  Elec       q    Type
                         _______ _______ _______ _____ _____    ______ ____

>  <TORSDO>
F 19

$$$$
=
 OpenBabel11062418363D

 55 59  0  0  1  0  0  0  0  0999 V2000
  188.9660  173.1210  138.2580 N   0  0  0  0  0  0  0  0  0  0  0  0
  190.0660  173.5290  137.5860 C   0  0  0  0  0  3  0  0  0  0  0  0
  191.0770  173.7080  138.5120 C   0  0  0  0  0  0  0  0  0  0  0  0
  190.5200  173.4000  139.7320 C   0  0  0  0  0  0  0  0  0  0  0  0
  189.2370  173.0450  139.5560 N   0  0  0  0  0  2  0  0  0  0  0  0
  192.1730  172.7280  141.2800 O   0  0  0  0  0  0  0  0  0  0  0  0
  191.1880  173.4810  141.0350 C   0  0  0  0  0  0  0  0  0  0  0  0
  190.7930  174.5720  141.9870 C   0  0  0  0  0  2  0  0  0  0  0  0
  189.3540  174.4580  142.4920 C   0  0  1  0  0  3  0  0  0  0  0  0
  188.6800  172.1890  142.7960 O   0  0  0  0  0  0  0  0  0  0  0  0
  189.6670  173.1300  144.6710 N   0  0  0  0  0  2  0  0  0  0  0  0
  189.1840  173.2210  143.3240 C   0  0  0  0  0  0  0  0  0  0  0  0
  190.2300  174.1580  145.5000 C   0  0  0  0  0  0  0  0  0  0  0  0
  191.6060  174.3960  145.4190 C   0  0  0  0  0  3  0  0  0  0  0  0
  190.0530  175.8810  147.2050 C   0  0  0  0  0  3  0  0  0  0  0  0
  191.4280  176.1190  147.1110 C   0  0  0  0  0  3  0  0  0  0  0  0
  192.2040  175.3750  146.2170 C   0  0  0  0  0  3  0  0  0  0  0  0
  189.4570  174.9040  146.4030 C   0  0  0  0  0  3  0  0  0  0  0  0
  189.0710  175.5750  143.2900 O   0  0  0  0  0  0  0  0  0  0  0  0
  187.8560  176.3560  141.0820 O   0  0  0  0  0  0  0  0  0  0  0  0
  186.3340  175.5010  143.0330 O   0  0  0  0  0  1  0  0  0  0  0  0
  187.7320  176.3450  142.5890 P   0  0  1  0  0  0  0  0  0  0  0  0
  187.6200  177.9950  143.1790 N   0  0  0  0  0  2  0  0  0  0  0  0
  186.5210  178.0390  144.1250 C   0  0  2  0  0  3  0  0  0  0  0  0
  185.8620  179.4010  144.0630 C   0  0  0  0  0  1  0  0  0  0  0  0
  187.0520  177.7940  145.5300 C   0  0  0  0  0  2  0  0  0  0  0  0
  185.9410  177.3800  146.4450 C   0  0  0  0  0  0  0  0  0  0  0  0
  185.2320  176.4300  146.1510 O   0  0  0  0  0  0  0  0  0  0  0  0
  186.8940  179.0110  148.0460 C   0  0  0  0  0  1  0  0  0  0  0  0
  185.7200  178.0960  147.7400 C   0  0  0  0  0  2  0  0  0  0  0  0
  192.4890  174.1390  138.2590 C   0  0  0  0  0  2  0  0  0  0  0  0
  193.4560  172.9640  138.0900 C   0  0  0  0  0  2  0  0  0  0  0  0
  197.7920  174.3590  138.0040 C   0  0  0  0  0  2  0  0  0  0  0  0
  197.9240  172.9860  138.6740 C   0  0  0  0  0  2  0  0  0  0  0  0
  195.5750  172.3950  139.3560 C   0  0  0  0  0  0  0  0  0  0  0  0
  196.4900  174.5240  137.2360 C   0  0  2  0  0  3  0  0  0  0  0  0
  196.9500  172.7510  139.8400 C   0  0  2  0  0  3  0  0  0  0  0  0
  194.8130  173.2890  138.5200 N   0  0  0  0  0  0  0  0  0  0  0  0
  195.0910  171.2780  139.6880 O   0  0  0  0  0  0  0  0  0  0  0  0
  196.5560  175.7940  136.4130 C   0  0  0  0  0  1  0  0  0  0  0  0
  195.3050  174.6200  138.1850 C   0  0  0  0  0  2  0  0  0  0  0  0
  196.9030  173.9070  140.8360 C   0  0  0  0  0  2  0  0  0  0  0  0
  196.7070  173.4030  142.1940 N   0  0  0  0  0  2  0  0  0  0  0  0
  195.3550  176.0520  144.3800 C   0  0  0  0  0  2  0  0  0  0  0  0
  194.4340  176.0460  143.1550 C   0  0  0  0  0  2  0  0  0  0  0  0
  195.6450  174.6510  144.8340 C   0  0  0  0  0  0  0  0  0  0  0  0
  195.3270  173.7050  142.5420 C   0  0  1  0  0  3  0  0  0  0  0  0
  195.0710  173.4890  144.0520 C   0  0  1  0  0  3  0  0  0  0  0  0
  196.3570  174.4710  145.8080 O   0  0  0  0  0  0  0  0  0  0  0  0
  194.9770  175.1240  142.0550 C   0  0  0  0  0  2  0  0  0  0  0  0
  195.5410  172.1890  144.5510 N   0  0  2  0  0  0  0  0  0  0  0  0
  195.0350  170.0590  144.4120 C   0  0  0  0  0  2  0  0  0  0  0  0
  195.1900  171.2210  143.6530 O   0  0  0  0  0  0  0  0  0  0  0  0
  194.8340  171.9350  145.7440 N   0  0  0  0  0  2  0  0  0  0  0  0
  194.5970  170.5120  145.7580 C   0  0  0  0  0  2  0  0  0  0  0  0
  1  5  1  0  0  0  0
  2  1  2  0  0  0  0
  2  3  1  0  0  0  0
  3  4  2  0  0  0  0
  4  7  1  0  0  0  0
  5  4  1  0  0  0  0
  7  6  2  0  0  0  0
  7  8  1  0  0  0  0
  9  8  1  1  0  0  0
  9 19  1  0  0  0  0
  9 12  1  0  0  0  0
 10 12  2  0  0  0  0
 11 13  1  0  0  0  0
 12 11  1  0  0  0  0
 13 18  1  0  0  0  0
 14 13  2  0  0  0  0
 14 17  1  0  0  0  0
 16 15  1  0  0  0  0
 17 16  2  0  0  0  0
 18 15  2  0  0  0  0
 22 20  2  6  0  0  0
 22 21  1  0  0  0  0
 22 23  1  0  0  0  0
 22 19  1  0  0  0  0
 23 24  1  0  0  0  0
 24 25  1  1  0  0  0
 24 26  1  0  0  0  0
 26 27  1  0  0  0  0
 27 30  1  0  0  0  0
 28 27  2  0  0  0  0
 30 29  1  0  0  0  0
 31  3  1  0  0  0  0
 32 31  1  0  0  0  0
 32 38  1  0  0  0  0
 33 34  1  0  0  0  0
 34 37  1  0  0  0  0
 35 39  2  0  0  0  0
 35 37  1  0  0  0  0
 36 40  1  1  0  0  0
 36 33  1  0  0  0  0
 36 41  1  0  0  0  0
 37 42  1  6  0  0  0
 38 35  1  0  0  0  0
 41 38  1  0  0  0  0
 42 43  1  0  0  0  0
 44 46  1  0  0  0  0
 45 44  1  0  0  0  0
 46 49  2  0  0  0  0
 47 43  1  1  0  0  0
 47 48  1  0  0  0  0
 48 51  1  0  0  0  0
 48 46  1  1  0  0  0
 50 47  1  0  0  0  0
 50 45  1  0  0  0  0
 51 53  1  6  0  0  0
 51 54  1  0  0  0  0
 52 55  1  0  0  0  0
 53 52  1  0  0  0  0
 54 55  1  0  0  0  0
M  END
>  <MODEL>
8

>  <REMARK>
 VINA RESULT:      -5.6      2.612      9.196
  Name = 
  19 active torsions:
  status: ('A' for Active; 'I' for Inactive)
    1  A    between atoms: C_1  and  N_28
    2  A    between atoms: N_2  and  C_19
    3  A    between atoms: C_4  and  C_10
    4  A    between atoms: C_4  and  C_36
    5  A    between atoms: C_7  and  C_37
    6  A    between atoms: C_7  and  C_50
    7  A    between atoms: O_9  and  P_29
    8  A    between atoms: O_9  and  C_45
    9  A    between atoms: C_10  and  N_44
   10  A    between atoms: C_12  and  C_39
   11  A    between atoms: C_12  and  C_46
   12  A    between atoms: N_15  and  C_26
   13  A    between atoms: N_15  and  P_29
   14  A    between atoms: C_17  and  N_54
   15  A    between atoms: C_26  and  C_50
   16  A    between atoms: C_38  and  C_42
   17  A    between atoms: C_39  and  C_45
   18  A    between atoms: C_42  and  N_54
   19  A    between atoms: C_43  and  C_45
                            x       y       z     vdW  Elec       q    Type
                         _______ _______ _______ _____ _____    ______ ____

>  <TORSDO>
F 19

$$$$
=
 OpenBabel11062418363D

 55 59  0  0  1  0  0  0  0  0999 V2000
  194.1020  177.1690  145.9500 N   0  0  0  0  0  0  0  0  0  0  0  0
  194.5720  175.9840  146.3990 C   0  0  0  0  0  2  0  0  0  0  0  0
  193.9350  174.9860  145.6860 C   0  0  0  0  0  0  0  0  0  0  0  0
  193.0810  175.6350  144.8240 C   0  0  0  0  0  0  0  0  0  0  0  0
  193.1990  176.9610  144.9990 N   0  0  0  0  0  0  0  0  0  0  0  0
  192.5930  174.4810  142.8220 O   0  0  0  0  0  0  0  0  0  0  0  0
  192.1490  175.0020  143.8840 C   0  0  0  0  0  0  0  0  0  0  0  0
  190.7130  174.8370  144.2850 C   0  0  0  0  0  2  0  0  0  0  0  0
  189.7280  175.5360  143.3480 C   0  0  1  0  0  3  0  0  0  0  0  0
  190.8290  177.5740  142.7760 O   0  0  0  0  0  0  0  0  0  0  0  0
  188.9660  177.8660  144.1250 N   0  0  0  0  0  2  0  0  0  0  0  0
  189.8940  177.0260  143.4240 C   0  0  0  0  0  0  0  0  0  0  0  0
  187.8610  177.4900  144.9610 C   0  0  0  0  0  0  0  0  0  0  0  0
  186.6220  177.2510  144.3560 C   0  0  0  0  0  3  0  0  0  0  0  0
  186.8660  177.0390  147.1310 C   0  0  0  0  0  3  0  0  0  0  0  0
  185.6330  176.7920  146.5180 C   0  0  0  0  0  3  0  0  0  0  0  0
  185.5130  176.8990  145.1290 C   0  0  0  0  0  3  0  0  0  0  0  0
  187.9740  177.3880  146.3560 C   0  0  0  0  0  3  0  0  0  0  0  0
  189.9930  175.1250  142.0340 O   0  0  0  0  0  0  0  0  0  0  0  0
  187.5430  174.2070  142.3790 O   0  0  0  0  0  1  0  0  0  0  0  0
  187.8480  176.1510  140.6530 O   0  0  0  0  0  0  0  0  0  0  0  0
  188.4950  174.7440  141.3340 P   0  0  1  0  0  0  0  0  0  0  0  0
  188.7170  173.5430  140.0730 N   0  0  0  0  0  2  0  0  0  0  0  0
  190.0880  173.0750  140.1620 C   0  0  2  0  0  3  0  0  0  0  0  0
  190.8070  173.3840  138.8670 C   0  0  0  0  0  1  0  0  0  0  0  0
  190.0960  171.5730  140.4040 C   0  0  0  0  0  2  0  0  0  0  0  0
  190.3920  171.2760  141.8420 C   0  0  0  0  0  0  0  0  0  0  0  0
  189.5950  171.6010  142.7080 O   0  0  0  0  0  0  0  0  0  0  0  0
  192.2080  171.1040  143.5180 C   0  0  0  0  0  1  0  0  0  0  0  0
  191.6400  170.5440  142.2230 C   0  0  0  0  0  2  0  0  0  0  0  0
  194.1230  173.5050  145.8070 C   0  0  0  0  0  2  0  0  0  0  0  0
  195.5690  173.1060  146.1140 C   0  0  0  0  0  2  0  0  0  0  0  0
  196.7120  168.8710  144.8870 C   0  0  0  0  0  2  0  0  0  0  0  0
  197.9410  169.6650  144.4290 C   0  0  0  0  0  2  0  0  0  0  0  0
  197.1810  172.0640  144.4610 C   0  0  0  0  0  0  0  0  0  0  0  0
  195.8780  169.6080  145.9230 C   0  0  2  0  0  3  0  0  0  0  0  0
  197.6150  170.9160  143.5980 C   0  0  2  0  0  3  0  0  0  0  0  0
  196.0200  171.9730  145.3110 N   0  0  0  0  0  0  0  0  0  0  0  0
  197.8650  173.1240  144.4400 O   0  0  0  0  0  0  0  0  0  0  0  0
  194.8420  168.6620  146.4930 C   0  0  0  0  0  1  0  0  0  0  0  0
  195.1600  170.7960  145.2990 C   0  0  0  0  0  2  0  0  0  0  0  0
  196.6120  170.6580  142.4760 C   0  0  0  0  0  2  0  0  0  0  0  0
  196.7630  171.6510  141.4160 N   0  0  0  0  0  2  0  0  0  0  0  0
  195.1850  172.2810  138.1390 C   0  0  0  0  0  2  0  0  0  0  0  0
  194.1140  171.5520  138.9580 C   0  0  0  0  0  2  0  0  0  0  0  0
  195.8590  173.3370  138.9670 C   0  0  0  0  0  0  0  0  0  0  0  0
  195.4210  172.1200  141.1070 C   0  0  1  0  0  3  0  0  0  0  0  0
  195.4570  173.5040  140.4160 C   0  0  1  0  0  3  0  0  0  0  0  0
  196.7350  174.0230  138.4670 O   0  0  0  0  0  0  0  0  0  0  0  0
  194.6800  171.0450  140.2900 C   0  0  0  0  0  2  0  0  0  0  0  0
  196.2880  174.4930  141.1190 N   0  0  2  0  0  0  0  0  0  0  0  0
  196.1860  175.8430  142.8440 C   0  0  0  0  0  2  0  0  0  0  0  0
  195.9010  174.5420  142.4280 O   0  0  0  0  0  0  0  0  0  0  0  0
  195.9950  175.7470  140.5450 N   0  0  0  0  0  2  0  0  0  0  0  0
  196.0510  176.6940  141.6320 C   0  0  0  0  0  2  0  0  0  0  0  0
  1  2  1  0  0  0  0
  3 31  1  0  0  0  0
  3  2  1  0  0  0  0
  4  5  1  0  0  0  0
  4  3  2  0  0  0  0
  5  1  2  0  0  0  0
  6  7  2  0  0  0  0
  7  8  1  0  0  0  0
  7  4  1  0  0  0  0
  9 12  1  0  0  0  0
  9  8  1  1  0  0  0
 10 12  2  0  0  0  0
 11 13  1  0  0  0  0
 12 11  1  0  0  0  0
 13 18  1  0  0  0  0
 14 13  2  0  0  0  0
 14 17  1  0  0  0  0
 16 15  1  0  0  0  0
 17 16  2  0  0  0  0
 18 15  2  0  0  0  0
 19  9  1  0  0  0  0
 22 21  2  6  0  0  0
 22 19  1  0  0  0  0
 22 20  1  0  0  0  0
 23 24  1  0  0  0  0
 23 22  1  0  0  0  0
 24 25  1  6  0  0  0
 24 26  1  0  0  0  0
 26 27  1  0  0  0  0
 27 30  1  0  0  0  0
 27 28  2  0  0  0  0
 30 29  1  0  0  0  0
 31 32  1  0  0  0  0
 33 36  1  0  0  0  0
 34 33  1  0  0  0  0
 35 38  1  0  0  0  0
 36 40  1  6  0  0  0
 37 42  1  6  0  0  0
 37 34  1  0  0  0  0
 37 35  1  0  0  0  0
 38 32  1  0  0  0  0
 39 35  2  0  0  0  0
 41 38  1  0  0  0  0
 41 36  1  0  0  0  0
 43 42  1  0  0  0  0
 44 45  1  0  0  0  0
 44 46  1  0  0  0  0
 45 50  1  0  0  0  0
 47 43  1  6  0  0  0
 48 46  1  6  0  0  0
 48 47  1  0  0  0  0
 48 51  1  0  0  0  0
 49 46  2  0  0  0  0
 50 47  1  0  0  0  0
 51 54  1  6  0  0  0
 51 53  1  0  0  0  0
 53 52  1  0  0  0  0
 54 55  1  0  0  0  0
 55 52  1  0  0  0  0
M  END
>  <MODEL>
9

>  <REMARK>
 VINA RESULT:      -5.6      2.582      8.470
  Name = 
  19 active torsions:
  status: ('A' for Active; 'I' for Inactive)
    1  A    between atoms: C_1  and  N_28
    2  A    between atoms: N_2  and  C_19
    3  A    between atoms: C_4  and  C_10
    4  A    between atoms: C_4  and  C_36
    5  A    between atoms: C_7  and  C_37
    6  A    between atoms: C_7  and  C_50
    7  A    between atoms: O_9  and  P_29
    8  A    between atoms: O_9  and  C_45
    9  A    between atoms: C_10  and  N_44
   10  A    between atoms: C_12  and  C_39
   11  A    between atoms: C_12  and  C_46
   12  A    between atoms: N_15  and  C_26
   13  A    between atoms: N_15  and  P_29
   14  A    between atoms: C_17  and  N_54
   15  A    between atoms: C_26  and  C_50
   16  A    between atoms: C_38  and  C_42
   17  A    between atoms: C_39  and  C_45
   18  A    between atoms: C_42  and  N_54
   19  A    between atoms: C_43  and  C_45
                            x       y       z     vdW  Elec       q    Type
                         _______ _______ _______ _____ _____    ______ ____

>  <TORSDO>
F 19

$$$$
