=
 OpenBabel11072408563D

 45 51  0  0  1  0  0  0  0  0999 V2000
  191.3700  171.9670  141.6770 O   0  0  0  0  0  0  0  0  0  0  0  0
  191.2370  173.4010  139.6880 C   0  0  0  0  0  2  0  0  0  0  0  0
  188.3840  172.9170  139.1060 S   0  0  0  0  0  0  0  0  0  0  0  0
  188.5900  174.2000  140.3580 C   0  0  1  0  0  3  0  0  0  0  0  0
  187.7440  174.1850  141.6170 C   0  0  1  0  0  3  0  0  0  0  0  0
  191.2890  173.2960  141.2410 C   0  0  1  0  0  3  0  0  0  0  0  0
  189.0520  173.3990  141.5580 C   0  0  2  0  0  3  0  0  0  0  0  0
  190.1700  172.5430  139.0190 C   0  0  0  0  0  0  0  0  0  0  0  0
  190.5950  171.5080  138.1240 S   0  0  0  0  0  0  0  0  0  0  0  0
  190.2590  174.0080  141.9180 O   0  0  0  0  0  0  0  0  0  0  0  0
  188.4240  175.1500  143.7070 F   0  0  0  0  0  0  0  0  0  0  0  0
  187.8390  175.4540  142.4910 C   0  0  1  0  0  3  0  0  0  0  0  0
  188.5360  176.6590  141.8610 C   0  0  0  0  0  2  0  0  0  0  0  0
  187.6110  177.6690  141.5660 O   0  0  0  0  0  0  0  0  0  0  0  0
  186.8720  177.8600  142.7380 C   0  0  0  0  0  2  0  0  0  0  0  0
  185.7150  178.8320  142.5260 C   0  0  1  0  0  3  0  0  0  0  0  0
  184.4230  178.0820  142.2320 C   0  0  0  0  0  2  0  0  0  0  0  0
  184.0110  178.2800  140.7920 C   0  0  0  0  0  1  0  0  0  0  0  0
  185.5580  179.6450  143.6540 O   0  0  0  0  0  0  0  0  0  0  0  0
  186.0350  178.8810  144.7190 C   0  0  0  0  0  2  0  0  0  0  0  0
  184.9250  177.5220  146.4620 C   0  0  0  0  0  2  0  0  0  0  0  0
  185.7350  178.5920  147.1570 C   0  0  0  0  0  2  0  0  0  0  0  0
  185.0300  178.9070  145.8540 C   0  0  0  0  0  3  0  0  0  0  0  0
  192.5420  171.9020  142.4310 C   0  0  0  0  0  2  0  0  0  0  0  0
  190.8570  171.4280  144.0330 O   0  0  0  0  0  1  0  0  0  0  0  0
  192.2330  171.3760  143.8210 C   0  0  2  0  0  3  0  0  0  0  0  0
  192.9240  172.2310  144.8670 C   0  0  0  0  0  2  0  0  0  0  0  0
  194.2330  171.5880  145.2740 C   0  0  0  0  0  2  0  0  0  0  0  0
  195.3060  172.6510  145.3680 C   0  0  0  0  0  2  0  0  0  0  0  0
  194.6810  174.0200  145.1810 C   0  0  1  0  0  3  0  0  0  0  0  0
  194.7040  175.0940  143.1970 C   0  0  0  0  0  0  0  0  0  0  0  0
  195.2370  176.1570  143.9220 O   0  0  0  0  0  0  0  0  0  0  0  0
  195.4550  175.0180  145.9260 C   0  0  1  0  0  3  0  0  0  0  0  0
  195.0010  175.6130  141.7820 C   0  0  0  0  0  2  0  0  0  0  0  0
  195.6540  174.9060  144.3780 C   0  0  1  0  0  0  0  0  0  0  0  0
  195.6020  174.3450  142.1940 C   0  0  0  0  0  2  0  0  0  0  0  0
  194.4890  176.0920  146.4300 C   0  0  0  0  0  2  0  0  0  0  0  0
  193.1060  175.5050  146.6880 C   0  0  0  0  0  2  0  0  0  0  0  0
  190.6310  178.4660  143.8860 O   0  0  0  0  0  0  0  0  0  0  0  0
  189.3310  177.4600  145.5850 C   0  0  0  0  0  2  0  0  0  0  0  0
  192.0120  176.5350  146.4480 C   0  0  1  0  0  3  0  0  0  0  0  0
  191.7110  176.6630  144.9550 C   0  0  0  0  0  2  0  0  0  0  0  0
  189.6890  177.2360  147.0520 C   0  0  0  0  0  2  0  0  0  0  0  0
  190.5730  177.6140  144.7560 C   0  0  0  0  0  0  0  0  0  0  0  0
  190.7450  176.1410  147.2070 C   0  0  0  0  0  2  0  0  0  0  0  0
  1 24  1  0  0  0  0
  2  6  1  0  0  0  0
  4  3  1  6  0  0  0
  4  7  1  0  0  0  0
  4  5  1  0  0  0  0
  5 12  1  1  0  0  0
  6  1  1  6  0  0  0
  6 10  1  0  0  0  0
  7  5  1  0  0  0  0
  7 10  1  1  0  0  0
  8  3  1  0  0  0  0
  8  2  1  0  0  0  0
  9  8  2  0  0  0  0
 12 11  1  1  0  0  0
 13 12  1  0  0  0  0
 14 13  1  0  0  0  0
 14 15  1  0  0  0  0
 16 17  1  1  0  0  0
 16 15  1  0  0  0  0
 16 19  1  0  0  0  0
 18 17  1  0  0  0  0
 19 20  1  0  0  0  0
 20 23  1  0  0  0  0
 21 22  1  0  0  0  0
 23 21  1  0  0  0  0
 23 22  1  0  0  0  0
 24 26  1  0  0  0  0
 26 25  1  1  0  0  0
 26 27  1  0  0  0  0
 27 28  1  0  0  0  0
 28 29  1  0  0  0  0
 30 29  1  1  0  0  0
 30 33  1  0  0  0  0
 31 32  1  0  0  0  0
 31 35  1  0  0  0  0
 33 37  1  6  0  0  0
 34 36  1  0  0  0  0
 34 31  1  0  0  0  0
 35 32  1  1  0  0  0
 35 30  1  0  0  0  0
 35 33  1  0  0  0  0
 36 31  1  0  0  0  0
 37 38  1  0  0  0  0
 39 44  2  0  0  0  0
 40 43  1  0  0  0  0
 41 38  1  6  0  0  0
 41 45  1  0  0  0  0
 42 41  1  0  0  0  0
 43 45  1  0  0  0  0
 44 42  1  0  0  0  0
 44 40  1  0  0  0  0
M  END
>  <MODEL>
1

>  <REMARK>
 VINA RESULT:      -6.7      0.000      0.000
  Name = 
  19 active torsions:
  status: ('A' for Active; 'I' for Inactive)
    1  A    between atoms: C_2  and  O_12
    2  A    between atoms: C_2  and  C_14
    3  A    between atoms: C_2  and  C_15
    4  A    between atoms: C_4  and  C_35
    5  A    between atoms: C_5  and  C_11
    6  A    between atoms: C_5  and  C_38
    7  A    between atoms: O_6  and  C_26
    8  A    between atoms: O_6  and  C_38
    9  A    between atoms: O_9  and  C_14
   10  A    between atoms: O_9  and  C_44
   11  A    between atoms: C_11  and  C_34
   12  A    between atoms: O_12  and  C_30
   13  A    between atoms: C_13  and  C_23
   14  A    between atoms: C_13  and  C_44
   15  A    between atoms: C_22  and  C_31
   16  A    between atoms: C_29  and  C_31
   17  A    between atoms: C_29  and  C_32
   18  A    between atoms: C_30  and  C_45
   19  A    between atoms: C_34  and  C_35
                            x       y       z     vdW  Elec       q    Type
                         _______ _______ _______ _____ _____    ______ ____

>  <TORSDO>
F 19

$$$$
=
 OpenBabel11072408563D

 45 51  0  0  1  0  0  0  0  0999 V2000
  186.5860  176.0350  142.0720 O   0  0  0  0  0  0  0  0  0  0  0  0
  186.3060  178.4520  141.7360 C   0  0  0  0  0  2  0  0  0  0  0  0
  183.7570  178.7090  143.2020 S   0  0  0  0  0  0  0  0  0  0  0  0
  185.1670  178.7490  144.3270 C   0  0  1  0  0  3  0  0  0  0  0  0
  185.1550  177.9260  145.6010 C   0  0  1  0  0  3  0  0  0  0  0  0
  187.0210  177.2980  142.4990 C   0  0  1  0  0  3  0  0  0  0  0  0
  185.6400  177.3090  144.2910 C   0  0  2  0  0  3  0  0  0  0  0  0
  184.7840  178.3750  141.7290 C   0  0  0  0  0  0  0  0  0  0  0  0
  184.1190  178.2220  140.4690 S   0  0  0  0  0  0  0  0  0  0  0  0
  186.9850  177.4120  143.9170 O   0  0  0  0  0  0  0  0  0  0  0  0
  185.9590  179.2890  147.4050 F   0  0  0  0  0  0  0  0  0  0  0  0
  186.3010  178.2250  146.5910 C   0  0  1  0  0  3  0  0  0  0  0  0
  186.7850  177.0500  147.4410 C   0  0  0  0  0  2  0  0  0  0  0  0
  187.3520  176.0560  146.6340 O   0  0  0  0  0  0  0  0  0  0  0  0
  188.5510  175.6970  147.2600 C   0  0  0  0  0  2  0  0  0  0  0  0
  189.6920  176.6340  146.8790 C   0  0  1  0  0  3  0  0  0  0  0  0
  191.0220  176.1100  147.4030 C   0  0  0  0  0  2  0  0  0  0  0  0
  191.5380  176.9930  148.5160 C   0  0  0  0  0  1  0  0  0  0  0  0
  189.7450  176.7850  145.4880 O   0  0  0  0  0  0  0  0  0  0  0  0
  191.0790  176.5520  145.1510 C   0  0  0  0  0  2  0  0  0  0  0  0
  191.9820  177.0800  142.9100 C   0  0  0  0  0  2  0  0  0  0  0  0
  190.6550  177.7900  143.0520 C   0  0  0  0  0  2  0  0  0  0  0  0
  191.5760  177.6650  144.2490 C   0  0  0  0  0  3  0  0  0  0  0  0
  187.5870  175.1510  142.4740 C   0  0  0  0  0  2  0  0  0  0  0  0
  188.2530  174.6390  140.2540 O   0  0  0  0  0  1  0  0  0  0  0  0
  188.7180  175.1570  141.4610 C   0  0  2  0  0  3  0  0  0  0  0  0
  189.8650  174.2960  141.9560 C   0  0  0  0  0  2  0  0  0  0  0  0
  189.5670  173.7950  143.3540 C   0  0  0  0  0  2  0  0  0  0  0  0
  190.1570  172.4120  143.5270 C   0  0  0  0  0  2  0  0  0  0  0  0
  191.6600  172.4750  143.3370 C   0  0  1  0  0  3  0  0  0  0  0  0
  192.6550  171.8780  141.4020 C   0  0  0  0  0  0  0  0  0  0  0  0
  193.4470  171.0630  142.2080 O   0  0  0  0  0  0  0  0  0  0  0  0
  192.3020  171.4620  144.1810 C   0  0  1  0  0  3  0  0  0  0  0  0
  193.0320  171.2830  140.0370 C   0  0  0  0  0  2  0  0  0  0  0  0
  192.1290  171.1750  142.6530 C   0  0  1  0  0  0  0  0  0  0  0  0
  191.6320  171.2270  140.4530 C   0  0  0  0  0  2  0  0  0  0  0  0
  193.6550  172.0120  144.6390 C   0  0  0  0  0  2  0  0  0  0  0  0
  193.4720  173.2050  145.5700 C   0  0  0  0  0  2  0  0  0  0  0  0
  194.7910  177.7850  145.7110 O   0  0  0  0  0  0  0  0  0  0  0  0
  195.8900  176.5340  144.0340 C   0  0  0  0  0  2  0  0  0  0  0  0
  193.9180  174.5000  144.9090 C   0  0  1  0  0  3  0  0  0  0  0  0
  194.5140  175.4550  145.9420 C   0  0  0  0  0  2  0  0  0  0  0  0
  195.3020  175.4960  143.0800 C   0  0  0  0  0  2  0  0  0  0  0  0
  195.0250  176.6810  145.2520 C   0  0  0  0  0  0  0  0  0  0  0  0
  194.9440  174.2040  143.8140 C   0  0  0  0  0  2  0  0  0  0  0  0
  1 24  1  0  0  0  0
  2  6  1  0  0  0  0
  4  3  1  6  0  0  0
  4  5  1  0  0  0  0
  5 12  1  1  0  0  0
  6  1  1  1  0  0  0
  6 10  1  0  0  0  0
  7 10  1  1  0  0  0
  7  4  1  0  0  0  0
  7  5  1  0  0  0  0
  8  2  1  0  0  0  0
  8  3  1  0  0  0  0
  9  8  2  0  0  0  0
 12 11  1  1  0  0  0
 12 13  1  0  0  0  0
 14 15  1  0  0  0  0
 14 13  1  0  0  0  0
 16 15  1  6  0  0  0
 16 17  1  0  0  0  0
 17 18  1  0  0  0  0
 19 16  1  0  0  0  0
 20 19  1  0  0  0  0
 21 22  1  0  0  0  0
 21 23  1  0  0  0  0
 22 23  1  0  0  0  0
 23 20  1  0  0  0  0
 26 25  1  6  0  0  0
 26 27  1  0  0  0  0
 26 24  1  0  0  0  0
 27 28  1  0  0  0  0
 28 29  1  0  0  0  0
 30 29  1  1  0  0  0
 30 33  1  0  0  0  0
 31 32  1  0  0  0  0
 31 35  1  0  0  0  0
 33 37  1  6  0  0  0
 34 36  1  0  0  0  0
 34 31  1  0  0  0  0
 35 32  1  1  0  0  0
 35 30  1  0  0  0  0
 35 33  1  0  0  0  0
 36 31  1  0  0  0  0
 37 38  1  0  0  0  0
 40 44  1  0  0  0  0
 41 38  1  1  0  0  0
 41 42  1  0  0  0  0
 43 45  1  0  0  0  0
 43 40  1  0  0  0  0
 44 39  2  0  0  0  0
 44 42  1  0  0  0  0
 45 41  1  0  0  0  0
M  END
>  <MODEL>
2

>  <REMARK>
 VINA RESULT:      -6.6      2.501      6.112
  Name = 
  19 active torsions:
  status: ('A' for Active; 'I' for Inactive)
    1  A    between atoms: C_2  and  O_12
    2  A    between atoms: C_2  and  C_14
    3  A    between atoms: C_2  and  C_15
    4  A    between atoms: C_4  and  C_35
    5  A    between atoms: C_5  and  C_11
    6  A    between atoms: C_5  and  C_38
    7  A    between atoms: O_6  and  C_26
    8  A    between atoms: O_6  and  C_38
    9  A    between atoms: O_9  and  C_14
   10  A    between atoms: O_9  and  C_44
   11  A    between atoms: C_11  and  C_34
   12  A    between atoms: O_12  and  C_30
   13  A    between atoms: C_13  and  C_23
   14  A    between atoms: C_13  and  C_44
   15  A    between atoms: C_22  and  C_31
   16  A    between atoms: C_29  and  C_31
   17  A    between atoms: C_29  and  C_32
   18  A    between atoms: C_30  and  C_45
   19  A    between atoms: C_34  and  C_35
                            x       y       z     vdW  Elec       q    Type
                         _______ _______ _______ _____ _____    ______ ____

>  <TORSDO>
F 19

$$$$
=
 OpenBabel11072408563D

 45 51  0  0  1  0  0  0  0  0999 V2000
  189.2780  173.7090  140.3010 O   0  0  0  0  0  0  0  0  0  0  0  0
  189.9190  172.2880  138.4030 C   0  0  0  0  0  2  0  0  0  0  0  0
  192.0190  174.0670  137.3360 S   0  0  0  0  0  0  0  0  0  0  0  0
  192.6500  173.0380  138.6770 C   0  0  1  0  0  3  0  0  0  0  0  0
  193.4970  173.6480  139.7780 C   0  0  1  0  0  3  0  0  0  0  0  0
  189.9910  172.5590  139.9350 C   0  0  1  0  0  3  0  0  0  0  0  0
  191.9740  173.6480  139.8880 C   0  0  2  0  0  3  0  0  0  0  0  0
  190.3030  173.4690  137.5200 C   0  0  0  0  0  0  0  0  0  0  0  0
  189.3060  174.0150  136.6480 S   0  0  0  0  0  0  0  0  0  0  0  0
  191.3080  172.5660  140.4760 O   0  0  0  0  0  0  0  0  0  0  0  0
  194.0920  171.3610  140.1990 F   0  0  0  0  0  0  0  0  0  0  0  0
  194.1730  172.6370  140.7280 C   0  0  1  0  0  3  0  0  0  0  0  0
  195.6150  172.9460  141.1310 C   0  0  0  0  0  2  0  0  0  0  0  0
  195.8190  172.6750  142.4890 O   0  0  0  0  0  0  0  0  0  0  0  0
  196.6900  173.6690  142.9480 C   0  0  0  0  0  2  0  0  0  0  0  0
  196.1580  174.3540  144.2030 C   0  0  1  0  0  3  0  0  0  0  0  0
  196.9970  173.9860  145.4190 C   0  0  0  0  0  2  0  0  0  0  0  0
  196.6570  172.5920  145.8960 C   0  0  0  0  0  1  0  0  0  0  0  0
  196.1460  175.7420  144.0250 O   0  0  0  0  0  0  0  0  0  0  0  0
  195.1870  175.9700  143.0370 C   0  0  0  0  0  2  0  0  0  0  0  0
  192.7860  176.3750  142.6040 C   0  0  0  0  0  2  0  0  0  0  0  0
  192.9180  175.0040  143.2270 C   0  0  0  0  0  2  0  0  0  0  0  0
  193.8240  176.1300  143.6830 C   0  0  0  0  0  3  0  0  0  0  0  0
  188.4790  173.3160  141.3740 C   0  0  0  0  0  2  0  0  0  0  0  0
  187.9750  175.6350  141.3450 O   0  0  0  0  0  1  0  0  0  0  0  0
  188.0760  174.5320  142.1890 C   0  0  2  0  0  3  0  0  0  0  0  0
  189.1250  174.8190  143.2490 C   0  0  0  0  0  2  0  0  0  0  0  0
  189.6040  173.5210  143.8640 C   0  0  0  0  0  2  0  0  0  0  0  0
  189.5920  173.6460  145.3720 C   0  0  0  0  0  2  0  0  0  0  0  0
  189.5960  175.1120  145.7590 C   0  0  1  0  0  3  0  0  0  0  0  0
  191.4350  176.1390  146.5680 C   0  0  0  0  0  0  0  0  0  0  0  0
  190.5990  176.5390  147.6080 O   0  0  0  0  0  0  0  0  0  0  0  0
  188.7550  175.3070  146.9430 C   0  0  1  0  0  3  0  0  0  0  0  0
  192.7830  176.5050  147.2080 C   0  0  0  0  0  2  0  0  0  0  0  0
  190.3090  175.2660  147.1180 C   0  0  1  0  0  0  0  0  0  0  0  0
  192.5430  175.1070  146.8520 C   0  0  0  0  0  2  0  0  0  0  0  0
  188.1010  176.6870  146.8410 C   0  0  0  0  0  2  0  0  0  0  0  0
  186.5910  176.5640  146.6660 C   0  0  0  0  0  2  0  0  0  0  0  0
  183.4850  178.9920  143.9830 O   0  0  0  0  0  0  0  0  0  0  0  0
  185.7420  179.3550  143.3820 C   0  0  0  0  0  2  0  0  0  0  0  0
  186.1340  177.1700  145.3470 C   0  0  1  0  0  3  0  0  0  0  0  0
  185.0240  178.1940  145.5810 C   0  0  0  0  0  2  0  0  0  0  0  0
  186.8720  178.3340  143.2610 C   0  0  0  0  0  2  0  0  0  0  0  0
  184.6560  178.8370  144.2810 C   0  0  0  0  0  0  0  0  0  0  0  0
  187.3150  177.8280  144.6340 C   0  0  0  0  0  2  0  0  0  0  0  0
  1 24  1  0  0  0  0
  2  6  1  0  0  0  0
  3  8  1  0  0  0  0
  4  3  1  6  0  0  0
  4  5  1  0  0  0  0
  4  7  1  0  0  0  0
  5  7  1  0  0  0  0
  5 12  1  1  0  0  0
  6  1  1  6  0  0  0
  6 10  1  0  0  0  0
  7 10  1  1  0  0  0
  8  2  1  0  0  0  0
  9  8  2  0  0  0  0
 12 11  1  6  0  0  0
 12 13  1  0  0  0  0
 13 14  1  0  0  0  0
 14 15  1  0  0  0  0
 16 15  1  6  0  0  0
 16 17  1  0  0  0  0
 17 18  1  0  0  0  0
 19 16  1  0  0  0  0
 20 23  1  0  0  0  0
 20 19  1  0  0  0  0
 21 22  1  0  0  0  0
 21 23  1  0  0  0  0
 22 23  1  0  0  0  0
 24 26  1  0  0  0  0
 26 25  1  6  0  0  0
 26 27  1  0  0  0  0
 27 28  1  0  0  0  0
 28 29  1  0  0  0  0
 30 29  1  1  0  0  0
 30 33  1  0  0  0  0
 30 35  1  0  0  0  0
 31 36  1  0  0  0  0
 31 35  1  0  0  0  0
 31 34  1  0  0  0  0
 31 32  1  0  0  0  0
 33 37  1  6  0  0  0
 33 35  1  0  0  0  0
 35 32  1  6  0  0  0
 36 34  1  0  0  0  0
 38 37  1  0  0  0  0
 39 44  2  0  0  0  0
 40 44  1  0  0  0  0
 41 42  1  0  0  0  0
 41 38  1  1  0  0  0
 43 40  1  0  0  0  0
 43 45  1  0  0  0  0
 44 42  1  0  0  0  0
 45 41  1  0  0  0  0
M  END
>  <MODEL>
3

>  <REMARK>
 VINA RESULT:      -6.6      2.265      7.047
  Name = 
  19 active torsions:
  status: ('A' for Active; 'I' for Inactive)
    1  A    between atoms: C_2  and  O_12
    2  A    between atoms: C_2  and  C_14
    3  A    between atoms: C_2  and  C_15
    4  A    between atoms: C_4  and  C_35
    5  A    between atoms: C_5  and  C_11
    6  A    between atoms: C_5  and  C_38
    7  A    between atoms: O_6  and  C_26
    8  A    between atoms: O_6  and  C_38
    9  A    between atoms: O_9  and  C_14
   10  A    between atoms: O_9  and  C_44
   11  A    between atoms: C_11  and  C_34
   12  A    between atoms: O_12  and  C_30
   13  A    between atoms: C_13  and  C_23
   14  A    between atoms: C_13  and  C_44
   15  A    between atoms: C_22  and  C_31
   16  A    between atoms: C_29  and  C_31
   17  A    between atoms: C_29  and  C_32
   18  A    between atoms: C_30  and  C_45
   19  A    between atoms: C_34  and  C_35
                            x       y       z     vdW  Elec       q    Type
                         _______ _______ _______ _____ _____    ______ ____

>  <TORSDO>
F 19

$$$$
=
 OpenBabel11072408563D

 45 51  0  0  1  0  0  0  0  0999 V2000
  190.5990  174.0490  140.5000 O   0  0  0  0  0  0  0  0  0  0  0  0
  191.2100  172.3910  138.7940 C   0  0  0  0  0  2  0  0  0  0  0  0
  192.3510  174.3000  136.8530 S   0  0  0  0  0  0  0  0  0  0  0  0
  193.5560  173.8520  138.1180 C   0  0  1  0  0  3  0  0  0  0  0  0
  194.3940  174.9220  138.7930 C   0  0  1  0  0  3  0  0  0  0  0  0
  191.5350  173.0630  140.1610 C   0  0  1  0  0  3  0  0  0  0  0  0
  193.0130  174.5650  139.3400 C   0  0  2  0  0  3  0  0  0  0  0  0
  190.9960  173.3590  137.6350 C   0  0  0  0  0  0  0  0  0  0  0  0
  189.7090  173.3870  137.0060 S   0  0  0  0  0  0  0  0  0  0  0  0
  192.8690  173.5420  140.2840 O   0  0  0  0  0  0  0  0  0  0  0  0
  196.0330  173.2090  139.1640 F   0  0  0  0  0  0  0  0  0  0  0  0
  195.5470  174.3990  139.6750 C   0  0  1  0  0  3  0  0  0  0  0  0
  196.7010  175.3700  139.9270 C   0  0  0  0  0  2  0  0  0  0  0  0
  196.4030  176.2270  140.9940 O   0  0  0  0  0  0  0  0  0  0  0  0
  196.1030  175.3950  142.0780 C   0  0  0  0  0  2  0  0  0  0  0  0
  195.1980  176.0880  143.0910 C   0  0  1  0  0  3  0  0  0  0  0  0
  193.8320  175.4190  143.1460 C   0  0  0  0  0  2  0  0  0  0  0  0
  192.7500  176.3870  142.7260 C   0  0  0  0  0  1  0  0  0  0  0  0
  195.7960  176.0740  144.3570 O   0  0  0  0  0  0  0  0  0  0  0  0
  196.3820  174.8130  144.4650 C   0  0  0  0  0  2  0  0  0  0  0  0
  195.6610  172.7900  145.6900 C   0  0  0  0  0  2  0  0  0  0  0  0
  197.0720  173.1150  146.1250 C   0  0  0  0  0  2  0  0  0  0  0  0
  196.0940  174.2350  145.8370 C   0  0  0  0  0  3  0  0  0  0  0  0
  189.5060  173.3530  141.0150 C   0  0  0  0  0  2  0  0  0  0  0  0
  188.8460  171.8560  142.7350 O   0  0  0  0  0  1  0  0  0  0  0  0
  189.8990  172.6630  142.3100 C   0  0  2  0  0  3  0  0  0  0  0  0
  190.1900  173.6970  143.3820 C   0  0  0  0  0  2  0  0  0  0  0  0
  190.5860  173.0040  144.6700 C   0  0  0  0  0  2  0  0  0  0  0  0
  189.6890  173.4800  145.7910 C   0  0  0  0  0  2  0  0  0  0  0  0
  189.7540  174.9910  145.8880 C   0  0  1  0  0  3  0  0  0  0  0  0
  191.6740  176.0880  146.3360 C   0  0  0  0  0  0  0  0  0  0  0  0
  190.9370  176.7080  147.3420 O   0  0  0  0  0  0  0  0  0  0  0  0
  189.0200  175.4380  147.0750 C   0  0  1  0  0  3  0  0  0  0  0  0
  193.0790  176.5210  146.7840 C   0  0  0  0  0  2  0  0  0  0  0  0
  190.5820  175.3750  147.1310 C   0  0  1  0  0  0  0  0  0  0  0  0
  192.7810  175.0900  146.7240 C   0  0  0  0  0  2  0  0  0  0  0  0
  188.3860  176.7960  146.7620 C   0  0  0  0  0  2  0  0  0  0  0  0
  186.8670  176.6890  146.7040 C   0  0  0  0  0  2  0  0  0  0  0  0
  183.6620  179.0150  144.0480 O   0  0  0  0  0  0  0  0  0  0  0  0
  185.8720  179.1750  143.2230 C   0  0  0  0  0  2  0  0  0  0  0  0
  186.3240  177.1830  145.3720 C   0  0  1  0  0  3  0  0  0  0  0  0
  185.2950  178.2920  145.5870 C   0  0  0  0  0  2  0  0  0  0  0  0
  186.9300  178.0800  143.1180 C   0  0  0  0  0  2  0  0  0  0  0  0
  184.8460  178.8200  144.2600 C   0  0  0  0  0  0  0  0  0  0  0  0
  187.4690  177.6910  144.4950 C   0  0  0  0  0  2  0  0  0  0  0  0
  1 24  1  0  0  0  0
  2  6  1  0  0  0  0
  3  8  1  0  0  0  0
  4  3  1  6  0  0  0
  4  5  1  0  0  0  0
  4  7  1  0  0  0  0
  5  7  1  0  0  0  0
  5 12  1  1  0  0  0
  6 10  1  0  0  0  0
  6  1  1  6  0  0  0
  7 10  1  1  0  0  0
  8  2  1  0  0  0  0
  9  8  2  0  0  0  0
 12 11  1  6  0  0  0
 12 13  1  0  0  0  0
 13 14  1  0  0  0  0
 14 15  1  0  0  0  0
 16 15  1  6  0  0  0
 16 17  1  0  0  0  0
 16 19  1  0  0  0  0
 18 17  1  0  0  0  0
 19 20  1  0  0  0  0
 20 23  1  0  0  0  0
 21 23  1  0  0  0  0
 21 22  1  0  0  0  0
 23 22  1  0  0  0  0
 24 26  1  0  0  0  0
 26 25  1  1  0  0  0
 26 27  1  0  0  0  0
 27 28  1  0  0  0  0
 28 29  1  0  0  0  0
 30 29  1  1  0  0  0
 30 33  1  0  0  0  0
 30 35  1  0  0  0  0
 31 36  1  0  0  0  0
 31 34  1  0  0  0  0
 31 35  1  0  0  0  0
 31 32  1  0  0  0  0
 33 37  1  6  0  0  0
 33 35  1  0  0  0  0
 35 32  1  6  0  0  0
 36 34  1  0  0  0  0
 38 37  1  0  0  0  0
 39 44  2  0  0  0  0
 40 44  1  0  0  0  0
 41 42  1  0  0  0  0
 41 38  1  1  0  0  0
 43 40  1  0  0  0  0
 43 45  1  0  0  0  0
 44 42  1  0  0  0  0
 45 41  1  0  0  0  0
M  END
>  <MODEL>
4

>  <REMARK>
 VINA RESULT:      -6.6      2.352      6.856
  Name = 
  19 active torsions:
  status: ('A' for Active; 'I' for Inactive)
    1  A    between atoms: C_2  and  O_12
    2  A    between atoms: C_2  and  C_14
    3  A    between atoms: C_2  and  C_15
    4  A    between atoms: C_4  and  C_35
    5  A    between atoms: C_5  and  C_11
    6  A    between atoms: C_5  and  C_38
    7  A    between atoms: O_6  and  C_26
    8  A    between atoms: O_6  and  C_38
    9  A    between atoms: O_9  and  C_14
   10  A    between atoms: O_9  and  C_44
   11  A    between atoms: C_11  and  C_34
   12  A    between atoms: O_12  and  C_30
   13  A    between atoms: C_13  and  C_23
   14  A    between atoms: C_13  and  C_44
   15  A    between atoms: C_22  and  C_31
   16  A    between atoms: C_29  and  C_31
   17  A    between atoms: C_29  and  C_32
   18  A    between atoms: C_30  and  C_45
   19  A    between atoms: C_34  and  C_35
                            x       y       z     vdW  Elec       q    Type
                         _______ _______ _______ _____ _____    ______ ____

>  <TORSDO>
F 19

$$$$
=
 OpenBabel11072408563D

 45 51  0  0  1  0  0  0  0  0999 V2000
  188.2560  175.2300  140.6170 O   0  0  0  0  0  0  0  0  0  0  0  0
  188.5470  173.0210  139.5830 C   0  0  0  0  0  2  0  0  0  0  0  0
  191.4880  173.1300  139.3630 S   0  0  0  0  0  0  0  0  0  0  0  0
  190.9730  172.5990  141.0090 C   0  0  1  0  0  3  0  0  0  0  0  0
  191.6170  173.1980  142.2450 C   0  0  1  0  0  3  0  0  0  0  0  0
  188.2730  173.8520  140.8720 C   0  0  1  0  0  3  0  0  0  0  0  0
  190.4160  173.8810  141.5940 C   0  0  2  0  0  3  0  0  0  0  0  0
  189.7810  173.4430  138.7950 C   0  0  0  0  0  0  0  0  0  0  0  0
  189.5980  173.9350  137.4610 S   0  0  0  0  0  0  0  0  0  0  0  0
  189.1140  173.5330  141.9740 O   0  0  0  0  0  0  0  0  0  0  0  0
  190.8250  171.2110  143.3320 F   0  0  0  0  0  0  0  0  0  0  0  0
  191.2690  172.4980  143.5750 C   0  0  1  0  0  3  0  0  0  0  0  0
  192.3670  172.4810  144.6390 C   0  0  0  0  0  2  0  0  0  0  0  0
  193.6340  172.4810  144.0420 O   0  0  0  0  0  0  0  0  0  0  0  0
  194.5500  172.5810  145.0960 C   0  0  0  0  0  2  0  0  0  0  0  0
  195.9090  171.9990  144.7220 C   0  0  1  0  0  3  0  0  0  0  0  0
  197.0090  172.5830  145.5980 C   0  0  0  0  0  2  0  0  0  0  0  0
  197.2220  174.0450  145.2770 C   0  0  0  0  0  1  0  0  0  0  0  0
  195.8840  170.6050  144.8420 O   0  0  0  0  0  0  0  0  0  0  0  0
  196.2480  170.3500  146.1650 C   0  0  0  0  0  2  0  0  0  0  0  0
  196.7220  168.5710  147.8160 C   0  0  0  0  0  2  0  0  0  0  0  0
  195.2270  168.6130  147.5980 C   0  0  0  0  0  2  0  0  0  0  0  0
  196.1660  168.8600  146.4350 C   0  0  0  0  0  3  0  0  0  0  0  0
  187.7120  175.8060  141.7650 C   0  0  0  0  0  2  0  0  0  0  0  0
  187.2330  177.4900  140.1640 O   0  0  0  0  0  1  0  0  0  0  0  0
  187.4440  177.2800  141.5250 C   0  0  2  0  0  3  0  0  0  0  0  0
  188.6360  178.1060  141.9710 C   0  0  0  0  0  2  0  0  0  0  0  0
  189.6500  177.2160  142.6590 C   0  0  0  0  0  2  0  0  0  0  0  0
  190.3720  178.0110  143.7260 C   0  0  0  0  0  2  0  0  0  0  0  0
  190.2250  177.3130  145.0640 C   0  0  1  0  0  3  0  0  0  0  0  0
  191.9750  176.3660  146.1270 C   0  0  0  0  0  0  0  0  0  0  0  0
  191.1650  175.2350  146.1850 O   0  0  0  0  0  0  0  0  0  0  0  0
  189.4430  176.0850  144.8930 C   0  0  1  0  0  3  0  0  0  0  0  0
  193.3080  175.7120  146.5220 C   0  0  0  0  0  2  0  0  0  0  0  0
  190.9990  175.9800  145.0180 C   0  0  1  0  0  0  0  0  0  0  0  0
  193.2140  176.3550  145.2120 C   0  0  0  0  0  2  0  0  0  0  0  0
  188.6230  175.8610  146.1660 C   0  0  0  0  0  2  0  0  0  0  0  0
  188.4080  177.1710  146.9140 C   0  0  0  0  0  2  0  0  0  0  0  0
  184.7210  177.7500  143.9460 O   0  0  0  0  0  0  0  0  0  0  0  0
  184.1740  178.1080  146.2180 C   0  0  0  0  0  2  0  0  0  0  0  0
  187.1150  177.8490  146.4870 C   0  0  1  0  0  3  0  0  0  0  0  0
  186.3840  177.0060  145.4430 C   0  0  0  0  0  2  0  0  0  0  0  0
  184.9710  178.8600  147.2820 C   0  0  0  0  0  2  0  0  0  0  0  0
  185.0760  177.6520  145.1070 C   0  0  0  0  0  0  0  0  0  0  0  0
  186.2160  178.0780  147.7020 C   0  0  0  0  0  2  0  0  0  0  0  0
  1 24  1  0  0  0  0
  2  6  1  0  0  0  0
  4  3  1  6  0  0  0
  4  7  1  0  0  0  0
  4  5  1  0  0  0  0
  5 12  1  1  0  0  0
  6  1  1  6  0  0  0
  6 10  1  0  0  0  0
  7 10  1  1  0  0  0
  7  5  1  0  0  0  0
  8  3  1  0  0  0  0
  8  2  1  0  0  0  0
  9  8  2  0  0  0  0
 12 11  1  6  0  0  0
 12 13  1  0  0  0  0
 14 13  1  0  0  0  0
 14 15  1  0  0  0  0
 16 19  1  0  0  0  0
 16 15  1  1  0  0  0
 16 17  1  0  0  0  0
 18 17  1  0  0  0  0
 19 20  1  0  0  0  0
 20 23  1  0  0  0  0
 22 21  1  0  0  0  0
 23 22  1  0  0  0  0
 23 21  1  0  0  0  0
 26 25  1  6  0  0  0
 26 24  1  0  0  0  0
 26 27  1  0  0  0  0
 27 28  1  0  0  0  0
 28 29  1  0  0  0  0
 30 29  1  6  0  0  0
 31 32  1  0  0  0  0
 31 34  1  0  0  0  0
 33 35  1  0  0  0  0
 33 30  1  0  0  0  0
 33 37  1  1  0  0  0
 35 30  1  0  0  0  0
 35 31  1  0  0  0  0
 35 32  1  1  0  0  0
 36 31  1  0  0  0  0
 36 34  1  0  0  0  0
 37 38  1  0  0  0  0
 39 44  2  0  0  0  0
 40 43  1  0  0  0  0
 41 38  1  1  0  0  0
 41 45  1  0  0  0  0
 42 41  1  0  0  0  0
 43 45  1  0  0  0  0
 44 42  1  0  0  0  0
 44 40  1  0  0  0  0
M  END
>  <MODEL>
5

>  <REMARK>
 VINA RESULT:      -6.5      2.119      7.717
  Name = 
  19 active torsions:
  status: ('A' for Active; 'I' for Inactive)
    1  A    between atoms: C_2  and  O_12
    2  A    between atoms: C_2  and  C_14
    3  A    between atoms: C_2  and  C_15
    4  A    between atoms: C_4  and  C_35
    5  A    between atoms: C_5  and  C_11
    6  A    between atoms: C_5  and  C_38
    7  A    between atoms: O_6  and  C_26
    8  A    between atoms: O_6  and  C_38
    9  A    between atoms: O_9  and  C_14
   10  A    between atoms: O_9  and  C_44
   11  A    between atoms: C_11  and  C_34
   12  A    between atoms: O_12  and  C_30
   13  A    between atoms: C_13  and  C_23
   14  A    between atoms: C_13  and  C_44
   15  A    between atoms: C_22  and  C_31
   16  A    between atoms: C_29  and  C_31
   17  A    between atoms: C_29  and  C_32
   18  A    between atoms: C_30  and  C_45
   19  A    between atoms: C_34  and  C_35
                            x       y       z     vdW  Elec       q    Type
                         _______ _______ _______ _____ _____    ______ ____

>  <TORSDO>
F 19

$$$$
=
 OpenBabel11072408563D

 45 51  0  0  1  0  0  0  0  0999 V2000
  188.8410  173.7480  140.3250 O   0  0  0  0  0  0  0  0  0  0  0  0
  189.6410  172.2910  138.5170 C   0  0  0  0  0  2  0  0  0  0  0  0
  191.8970  173.9980  137.6730 S   0  0  0  0  0  0  0  0  0  0  0  0
  192.3470  172.9630  139.0810 C   0  0  1  0  0  3  0  0  0  0  0  0
  193.0880  173.5580  140.2640 C   0  0  1  0  0  3  0  0  0  0  0  0
  189.5550  172.5740  140.0460 C   0  0  1  0  0  3  0  0  0  0  0  0
  191.5620  173.6040  140.2080 C   0  0  2  0  0  3  0  0  0  0  0  0
  190.1540  173.4530  137.6730 C   0  0  0  0  0  0  0  0  0  0  0  0
  189.2740  174.0200  136.6950 S   0  0  0  0  0  0  0  0  0  0  0  0
  190.8040  172.5470  140.7260 O   0  0  0  0  0  0  0  0  0  0  0  0
  194.1640  171.4440  140.6300 F   0  0  0  0  0  0  0  0  0  0  0  0
  193.6260  172.5360  141.2880 C   0  0  1  0  0  3  0  0  0  0  0  0
  194.6220  173.0690  142.3170 C   0  0  0  0  0  2  0  0  0  0  0  0
  193.9850  173.3180  143.5400 O   0  0  0  0  0  0  0  0  0  0  0  0
  193.2320  172.1720  143.8160 C   0  0  0  0  0  2  0  0  0  0  0  0
  193.8270  171.3660  144.9660 C   0  0  1  0  0  3  0  0  0  0  0  0
  194.6580  170.2030  144.4420 C   0  0  0  0  0  2  0  0  0  0  0  0
  194.0770  168.8860  144.9030 C   0  0  0  0  0  1  0  0  0  0  0  0
  194.6110  172.1940  145.7780 O   0  0  0  0  0  0  0  0  0  0  0  0
  195.9170  171.7350  145.6060 C   0  0  0  0  0  2  0  0  0  0  0  0
  197.5020  173.5410  145.0210 C   0  0  0  0  0  2  0  0  0  0  0  0
  196.3920  174.1500  145.8480 C   0  0  0  0  0  2  0  0  0  0  0  0
  196.8910  172.7550  146.1650 C   0  0  0  0  0  3  0  0  0  0  0  0
  188.1550  173.4830  141.5100 C   0  0  0  0  0  2  0  0  0  0  0  0
  187.9600  175.8490  141.5050 O   0  0  0  0  0  1  0  0  0  0  0  0
  188.0690  174.7460  142.3490 C   0  0  2  0  0  3  0  0  0  0  0  0
  189.3200  174.8950  143.1940 C   0  0  0  0  0  2  0  0  0  0  0  0
  189.6950  173.5580  143.8000 C   0  0  0  0  0  2  0  0  0  0  0  0
  189.6960  173.6740  145.3090 C   0  0  0  0  0  2  0  0  0  0  0  0
  189.7570  175.1360  145.7050 C   0  0  1  0  0  3  0  0  0  0  0  0
  191.6780  176.1340  146.3410 C   0  0  0  0  0  0  0  0  0  0  0  0
  190.9510  176.5350  147.4590 O   0  0  0  0  0  0  0  0  0  0  0  0
  189.0360  175.3320  146.9660 C   0  0  1  0  0  3  0  0  0  0  0  0
  193.0860  176.4780  146.8500 C   0  0  0  0  0  2  0  0  0  0  0  0
  190.5990  175.2700  146.9900 C   0  0  1  0  0  0  0  0  0  0  0  0
  192.7940  175.0860  146.5080 C   0  0  0  0  0  2  0  0  0  0  0  0
  188.3930  176.7210  146.9380 C   0  0  0  0  0  2  0  0  0  0  0  0
  186.8720  176.6180  146.9630 C   0  0  0  0  0  2  0  0  0  0  0  0
  186.3500  178.8230  142.7670 O   0  0  0  0  0  0  0  0  0  0  0  0
  184.3370  178.6280  143.9920 C   0  0  0  0  0  2  0  0  0  0  0  0
  186.2300  177.6590  146.0580 C   0  0  1  0  0  3  0  0  0  0  0  0
  186.4980  177.3330  144.5880 C   0  0  0  0  0  2  0  0  0  0  0  0
  184.1060  178.8470  145.4850 C   0  0  0  0  0  2  0  0  0  0  0  0
  185.7820  178.3200  143.7210 C   0  0  0  0  0  0  0  0  0  0  0  0
  184.7250  177.7230  146.3160 C   0  0  0  0  0  2  0  0  0  0  0  0
  1 24  1  0  0  0  0
  2  6  1  0  0  0  0
  3  8  1  0  0  0  0
  4  3  1  6  0  0  0
  4  7  1  0  0  0  0
  4  5  1  0  0  0  0
  5 12  1  1  0  0  0
  6  1  1  6  0  0  0
  6 10  1  0  0  0  0
  7  5  1  0  0  0  0
  7 10  1  1  0  0  0
  8  2  1  0  0  0  0
  9  8  2  0  0  0  0
 12 11  1  6  0  0  0
 12 13  1  0  0  0  0
 13 14  1  0  0  0  0
 14 15  1  0  0  0  0
 16 15  1  6  0  0  0
 16 19  1  0  0  0  0
 17 18  1  0  0  0  0
 17 16  1  0  0  0  0
 20 19  1  0  0  0  0
 20 23  1  0  0  0  0
 21 22  1  0  0  0  0
 21 23  1  0  0  0  0
 22 23  1  0  0  0  0
 24 26  1  0  0  0  0
 26 25  1  6  0  0  0
 26 27  1  0  0  0  0
 27 28  1  0  0  0  0
 28 29  1  0  0  0  0
 30 29  1  1  0  0  0
 30 33  1  0  0  0  0
 30 35  1  0  0  0  0
 31 36  1  0  0  0  0
 31 34  1  0  0  0  0
 31 35  1  0  0  0  0
 31 32  1  0  0  0  0
 33 37  1  6  0  0  0
 33 35  1  0  0  0  0
 35 32  1  6  0  0  0
 36 34  1  0  0  0  0
 37 38  1  0  0  0  0
 39 44  2  0  0  0  0
 40 43  1  0  0  0  0
 41 45  1  0  0  0  0
 41 38  1  1  0  0  0
 42 41  1  0  0  0  0
 43 45  1  0  0  0  0
 44 40  1  0  0  0  0
 44 42  1  0  0  0  0
M  END
>  <MODEL>
6

>  <REMARK>
 VINA RESULT:      -6.4      2.188      7.230
  Name = 
  19 active torsions:
  status: ('A' for Active; 'I' for Inactive)
    1  A    between atoms: C_2  and  O_12
    2  A    between atoms: C_2  and  C_14
    3  A    between atoms: C_2  and  C_15
    4  A    between atoms: C_4  and  C_35
    5  A    between atoms: C_5  and  C_11
    6  A    between atoms: C_5  and  C_38
    7  A    between atoms: O_6  and  C_26
    8  A    between atoms: O_6  and  C_38
    9  A    between atoms: O_9  and  C_14
   10  A    between atoms: O_9  and  C_44
   11  A    between atoms: C_11  and  C_34
   12  A    between atoms: O_12  and  C_30
   13  A    between atoms: C_13  and  C_23
   14  A    between atoms: C_13  and  C_44
   15  A    between atoms: C_22  and  C_31
   16  A    between atoms: C_29  and  C_31
   17  A    between atoms: C_29  and  C_32
   18  A    between atoms: C_30  and  C_45
   19  A    between atoms: C_34  and  C_35
                            x       y       z     vdW  Elec       q    Type
                         _______ _______ _______ _____ _____    ______ ____

>  <TORSDO>
F 19

$$$$
=
 OpenBabel11072408563D

 45 51  0  0  1  0  0  0  0  0999 V2000
  190.1770  171.9090  140.8080 O   0  0  0  0  0  0  0  0  0  0  0  0
  192.0960  170.4030  140.5240 C   0  0  0  0  0  2  0  0  0  0  0  0
  193.3610  171.8750  138.3000 S   0  0  0  0  0  0  0  0  0  0  0  0
  193.8050  172.5900  139.8960 C   0  0  1  0  0  3  0  0  0  0  0  0
  193.7570  174.0920  140.1040 C   0  0  1  0  0  3  0  0  0  0  0  0
  191.4200  171.5420  141.3420 C   0  0  1  0  0  3  0  0  0  0  0  0
  192.5060  173.2430  140.3210 C   0  0  2  0  0  3  0  0  0  0  0  0
  192.2050  170.6630  139.0250 C   0  0  0  0  0  0  0  0  0  0  0  0
  191.5080  169.7830  138.1340 S   0  0  0  0  0  0  0  0  0  0  0  0
  192.2460  172.6770  141.5750 O   0  0  0  0  0  0  0  0  0  0  0  0
  195.5620  173.9190  141.6750 F   0  0  0  0  0  0  0  0  0  0  0  0
  194.3830  174.5970  141.4200 C   0  0  1  0  0  3  0  0  0  0  0  0
  194.6130  176.1040  141.5270 C   0  0  0  0  0  2  0  0  0  0  0  0
  195.3650  176.4110  142.6680 O   0  0  0  0  0  0  0  0  0  0  0  0
  194.5070  176.2080  143.7540 C   0  0  0  0  0  2  0  0  0  0  0  0
  195.2490  175.6500  144.9650 C   0  0  1  0  0  3  0  0  0  0  0  0
  194.2960  175.4360  146.1330 C   0  0  0  0  0  2  0  0  0  0  0  0
  193.7910  176.7610  146.6550 C   0  0  0  0  0  1  0  0  0  0  0  0
  195.8820  174.4480  144.6280 O   0  0  0  0  0  0  0  0  0  0  0  0
  195.8110  173.6680  145.7830 C   0  0  0  0  0  2  0  0  0  0  0  0
  194.5900  171.5190  145.7230 C   0  0  0  0  0  2  0  0  0  0  0  0
  194.9240  171.9000  144.2990 C   0  0  0  0  0  2  0  0  0  0  0  0
  195.9080  172.2010  145.4110 C   0  0  0  0  0  3  0  0  0  0  0  0
  189.3820  172.2160  141.9110 C   0  0  0  0  0  2  0  0  0  0  0  0
  188.1410  173.0570  140.0720 O   0  0  0  0  0  1  0  0  0  0  0  0
  188.0930  172.8730  141.4520 C   0  0  2  0  0  3  0  0  0  0  0  0
  187.9300  174.2250  142.1230 C   0  0  0  0  0  2  0  0  0  0  0  0
  188.2830  175.3290  141.1480 C   0  0  0  0  0  2  0  0  0  0  0  0
  187.2590  176.4380  141.2550 C   0  0  0  0  0  2  0  0  0  0  0  0
  187.1880  176.9250  142.6890 C   0  0  1  0  0  3  0  0  0  0  0  0
  185.3640  177.9590  143.5220 C   0  0  0  0  0  0  0  0  0  0  0  0
  186.2610  178.9480  143.9180 O   0  0  0  0  0  0  0  0  0  0  0  0
  188.1180  178.0440  142.8730 C   0  0  1  0  0  3  0  0  0  0  0  0
  184.0570  178.7350  143.7440 C   0  0  0  0  0  2  0  0  0  0  0  0
  186.5930  178.3480  142.7030 C   0  0  1  0  0  0  0  0  0  0  0  0
  184.3610  178.2640  142.3940 C   0  0  0  0  0  2  0  0  0  0  0  0
  188.6630  177.9820  144.3020 C   0  0  0  0  0  2  0  0  0  0  0  0
  190.1410  177.6090  144.3070 C   0  0  0  0  0  2  0  0  0  0  0  0
  188.9420  174.2100  147.4300 O   0  0  0  0  0  0  0  0  0  0  0  0
  189.9890  173.3790  145.4800 C   0  0  0  0  0  2  0  0  0  0  0  0
  190.3770  176.2800  145.0100 C   0  0  1  0  0  3  0  0  0  0  0  0
  189.0980  175.7990  145.6950 C   0  0  0  0  0  2  0  0  0  0  0  0
  191.2030  173.9360  144.7400 C   0  0  0  0  0  2  0  0  0  0  0  0
  189.3340  174.4520  146.3010 C   0  0  0  0  0  0  0  0  0  0  0  0
  190.8610  175.2330  144.0070 C   0  0  0  0  0  2  0  0  0  0  0  0
  1 24  1  0  0  0  0
  2  6  1  0  0  0  0
  3  8  1  0  0  0  0
  4  3  1  6  0  0  0
  4  5  1  0  0  0  0
  4  7  1  0  0  0  0
  5  7  1  0  0  0  0
  5 12  1  1  0  0  0
  6  1  1  6  0  0  0
  6 10  1  0  0  0  0
  7 10  1  1  0  0  0
  8  2  1  0  0  0  0
  9  8  2  0  0  0  0
 12 13  1  0  0  0  0
 12 11  1  6  0  0  0
 13 14  1  0  0  0  0
 14 15  1  0  0  0  0
 16 15  1  6  0  0  0
 16 17  1  0  0  0  0
 17 18  1  0  0  0  0
 19 16  1  0  0  0  0
 19 20  1  0  0  0  0
 22 23  1  0  0  0  0
 22 21  1  0  0  0  0
 23 21  1  0  0  0  0
 23 20  1  0  0  0  0
 26 25  1  6  0  0  0
 26 24  1  0  0  0  0
 26 27  1  0  0  0  0
 28 29  1  0  0  0  0
 28 27  1  0  0  0  0
 30 29  1  6  0  0  0
 30 35  1  0  0  0  0
 30 33  1  0  0  0  0
 31 34  1  0  0  0  0
 31 32  1  0  0  0  0
 33 37  1  1  0  0  0
 35 33  1  0  0  0  0
 35 31  1  0  0  0  0
 35 32  1  1  0  0  0
 36 31  1  0  0  0  0
 36 34  1  0  0  0  0
 37 38  1  0  0  0  0
 40 44  1  0  0  0  0
 41 38  1  6  0  0  0
 41 42  1  0  0  0  0
 42 44  1  0  0  0  0
 43 40  1  0  0  0  0
 44 39  2  0  0  0  0
 45 43  1  0  0  0  0
 45 41  1  0  0  0  0
M  END
>  <MODEL>
7

>  <REMARK>
 VINA RESULT:      -6.4      2.235      7.572
  Name = 
  19 active torsions:
  status: ('A' for Active; 'I' for Inactive)
    1  A    between atoms: C_2  and  O_12
    2  A    between atoms: C_2  and  C_14
    3  A    between atoms: C_2  and  C_15
    4  A    between atoms: C_4  and  C_35
    5  A    between atoms: C_5  and  C_11
    6  A    between atoms: C_5  and  C_38
    7  A    between atoms: O_6  and  C_26
    8  A    between atoms: O_6  and  C_38
    9  A    between atoms: O_9  and  C_14
   10  A    between atoms: O_9  and  C_44
   11  A    between atoms: C_11  and  C_34
   12  A    between atoms: O_12  and  C_30
   13  A    between atoms: C_13  and  C_23
   14  A    between atoms: C_13  and  C_44
   15  A    between atoms: C_22  and  C_31
   16  A    between atoms: C_29  and  C_31
   17  A    between atoms: C_29  and  C_32
   18  A    between atoms: C_30  and  C_45
   19  A    between atoms: C_34  and  C_35
                            x       y       z     vdW  Elec       q    Type
                         _______ _______ _______ _____ _____    ______ ____

>  <TORSDO>
F 19

$$$$
=
 OpenBabel11072408563D

 45 51  0  0  1  0  0  0  0  0999 V2000
  191.6540  173.0050  141.1870 O   0  0  0  0  0  0  0  0  0  0  0  0
  193.0220  172.1660  139.3280 C   0  0  0  0  0  2  0  0  0  0  0  0
  193.5030  174.7820  138.0490 S   0  0  0  0  0  0  0  0  0  0  0  0
  194.6630  174.4890  139.3990 C   0  0  1  0  0  3  0  0  0  0  0  0
  194.9480  175.5790  140.4150 C   0  0  1  0  0  3  0  0  0  0  0  0
  192.9290  172.5390  140.8370 C   0  0  1  0  0  3  0  0  0  0  0  0
  193.7720  174.6260  140.6170 C   0  0  2  0  0  3  0  0  0  0  0  0
  192.5570  173.2520  138.3650 C   0  0  0  0  0  0  0  0  0  0  0  0
  191.4270  172.9770  137.5290 S   0  0  0  0  0  0  0  0  0  0  0  0
  193.9510  173.4160  141.2970 O   0  0  0  0  0  0  0  0  0  0  0  0
  197.2130  174.8240  140.6600 F   0  0  0  0  0  0  0  0  0  0  0  0
  196.1260  175.2990  141.3720 C   0  0  1  0  0  3  0  0  0  0  0  0
  196.5550  176.4550  142.2750 C   0  0  0  0  0  2  0  0  0  0  0  0
  197.1300  175.9730  143.4580 O   0  0  0  0  0  0  0  0  0  0  0  0
  196.2200  175.0410  143.9700 C   0  0  0  0  0  2  0  0  0  0  0  0
  195.6960  175.4560  145.3410 C   0  0  1  0  0  3  0  0  0  0  0  0
  194.5230  176.4160  145.2060 C   0  0  0  0  0  2  0  0  0  0  0  0
  194.2830  177.1460  146.5080 C   0  0  0  0  0  1  0  0  0  0  0  0
  195.3150  174.3240  146.0720 O   0  0  0  0  0  0  0  0  0  0  0  0
  195.1570  173.3170  145.1200 C   0  0  0  0  0  2  0  0  0  0  0  0
  193.4950  171.6300  144.4070 C   0  0  0  0  0  2  0  0  0  0  0  0
  194.5540  170.9200  145.2180 C   0  0  0  0  0  2  0  0  0  0  0  0
  194.1210  172.3200  145.6030 C   0  0  0  0  0  3  0  0  0  0  0  0
  190.8900  171.8560  141.3890 C   0  0  0  0  0  2  0  0  0  0  0  0
  188.8960  172.6810  140.4020 O   0  0  0  0  0  1  0  0  0  0  0  0
  189.4360  172.2350  141.6060 C   0  0  2  0  0  3  0  0  0  0  0  0
  189.3350  173.3490  142.6320 C   0  0  0  0  0  2  0  0  0  0  0  0
  189.3460  172.7640  144.0290 C   0  0  0  0  0  2  0  0  0  0  0  0
  190.4100  173.4560  144.8540 C   0  0  0  0  0  2  0  0  0  0  0  0
  189.9330  174.8430  145.2370 C   0  0  1  0  0  3  0  0  0  0  0  0
  190.4930  176.6800  144.0540 C   0  0  0  0  0  0  0  0  0  0  0  0
  190.9030  177.1910  145.2830 O   0  0  0  0  0  0  0  0  0  0  0  0
  190.5670  175.2480  146.4950 C   0  0  1  0  0  3  0  0  0  0  0  0
  191.1500  177.7270  143.1410 C   0  0  0  0  0  2  0  0  0  0  0  0
  191.1220  175.8200  145.1490 C   0  0  1  0  0  0  0  0  0  0  0  0
  191.5560  176.3300  142.9960 C   0  0  0  0  0  2  0  0  0  0  0  0
  189.5770  176.1210  147.2690 C   0  0  0  0  0  2  0  0  0  0  0  0
  188.1400  175.7990  146.8730 C   0  0  0  0  0  2  0  0  0  0  0  0
  186.2210  178.9610  143.8630 O   0  0  0  0  0  0  0  0  0  0  0  0
  184.9390  178.6150  145.8180 C   0  0  0  0  0  2  0  0  0  0  0  0
  187.3510  177.0640  146.5690 C   0  0  1  0  0  3  0  0  0  0  0  0
  186.8970  177.0770  145.1100 C   0  0  0  0  0  2  0  0  0  0  0  0
  185.4190  178.4900  147.2620 C   0  0  0  0  0  2  0  0  0  0  0  0
  186.0500  178.2860  144.8630 C   0  0  0  0  0  0  0  0  0  0  0  0
  186.1410  177.1640  147.4980 C   0  0  0  0  0  2  0  0  0  0  0  0
  1 24  1  0  0  0  0
  2  6  1  0  0  0  0
  3  8  1  0  0  0  0
  4  3  1  6  0  0  0
  4  5  1  0  0  0  0
  4  7  1  0  0  0  0
  5  7  1  0  0  0  0
  5 12  1  1  0  0  0
  6  1  1  6  0  0  0
  6 10  1  0  0  0  0
  7 10  1  1  0  0  0
  8  2  1  0  0  0  0
  9  8  2  0  0  0  0
 12 11  1  6  0  0  0
 12 13  1  0  0  0  0
 13 14  1  0  0  0  0
 14 15  1  0  0  0  0
 16 15  1  6  0  0  0
 16 19  1  0  0  0  0
 17 16  1  0  0  0  0
 17 18  1  0  0  0  0
 20 23  1  0  0  0  0
 20 19  1  0  0  0  0
 21 22  1  0  0  0  0
 21 23  1  0  0  0  0
 22 23  1  0  0  0  0
 24 26  1  0  0  0  0
 26 25  1  6  0  0  0
 26 27  1  0  0  0  0
 27 28  1  0  0  0  0
 28 29  1  0  0  0  0
 30 29  1  6  0  0  0
 30 33  1  0  0  0  0
 31 35  1  0  0  0  0
 31 32  1  0  0  0  0
 33 37  1  1  0  0  0
 34 31  1  0  0  0  0
 35 30  1  0  0  0  0
 35 32  1  1  0  0  0
 35 33  1  0  0  0  0
 36 34  1  0  0  0  0
 36 31  1  0  0  0  0
 38 37  1  0  0  0  0
 39 44  2  0  0  0  0
 40 43  1  0  0  0  0
 41 38  1  1  0  0  0
 41 45  1  0  0  0  0
 42 41  1  0  0  0  0
 43 45  1  0  0  0  0
 44 42  1  0  0  0  0
 44 40  1  0  0  0  0
M  END
>  <MODEL>
8

>  <REMARK>
 VINA RESULT:      -6.3      2.362      6.752
  Name = 
  19 active torsions:
  status: ('A' for Active; 'I' for Inactive)
    1  A    between atoms: C_2  and  O_12
    2  A    between atoms: C_2  and  C_14
    3  A    between atoms: C_2  and  C_15
    4  A    between atoms: C_4  and  C_35
    5  A    between atoms: C_5  and  C_11
    6  A    between atoms: C_5  and  C_38
    7  A    between atoms: O_6  and  C_26
    8  A    between atoms: O_6  and  C_38
    9  A    between atoms: O_9  and  C_14
   10  A    between atoms: O_9  and  C_44
   11  A    between atoms: C_11  and  C_34
   12  A    between atoms: O_12  and  C_30
   13  A    between atoms: C_13  and  C_23
   14  A    between atoms: C_13  and  C_44
   15  A    between atoms: C_22  and  C_31
   16  A    between atoms: C_29  and  C_31
   17  A    between atoms: C_29  and  C_32
   18  A    between atoms: C_30  and  C_45
   19  A    between atoms: C_34  and  C_35
                            x       y       z     vdW  Elec       q    Type
                         _______ _______ _______ _____ _____    ______ ____

>  <TORSDO>
F 19

$$$$
=
 OpenBabel11072408563D

 45 51  0  0  1  0  0  0  0  0999 V2000
  194.8730  172.1440  143.5310 O   0  0  0  0  0  0  0  0  0  0  0  0
  196.6420  173.8460  143.4850 C   0  0  0  0  0  2  0  0  0  0  0  0
  195.4140  175.5630  141.4220 S   0  0  0  0  0  0  0  0  0  0  0  0
  194.7350  175.9140  143.0570 C   0  0  1  0  0  3  0  0  0  0  0  0
  193.2370  176.0580  143.2500 C   0  0  1  0  0  3  0  0  0  0  0  0
  195.4010  173.2490  144.2120 C   0  0  1  0  0  3  0  0  0  0  0  0
  193.8940  174.6810  143.3210 C   0  0  2  0  0  3  0  0  0  0  0  0
  196.4330  174.1660  142.0100 C   0  0  0  0  0  0  0  0  0  0  0  0
  197.2240  173.4600  141.0450 S   0  0  0  0  0  0  0  0  0  0  0  0
  194.3900  174.1960  144.5370 O   0  0  0  0  0  0  0  0  0  0  0  0
  193.7160  177.5160  145.0960 F   0  0  0  0  0  0  0  0  0  0  0  0
  192.7980  176.5910  144.6300 C   0  0  1  0  0  3  0  0  0  0  0  0
  191.3850  177.1680  144.7150 C   0  0  0  0  0  2  0  0  0  0  0  0
  190.7630  176.7800  145.9080 O   0  0  0  0  0  0  0  0  0  0  0  0
  189.4120  177.1100  145.7570 C   0  0  0  0  0  2  0  0  0  0  0  0
  188.4980  176.0370  146.3410 C   0  0  1  0  0  3  0  0  0  0  0  0
  189.3090  174.9490  147.0300 C   0  0  0  0  0  2  0  0  0  0  0  0
  189.7060  173.8770  146.0400 C   0  0  0  0  0  1  0  0  0  0  0  0
  187.5960  176.6140  147.2430 O   0  0  0  0  0  0  0  0  0  0  0  0
  187.1020  177.7420  146.5870 C   0  0  0  0  0  2  0  0  0  0  0  0
  184.9830  178.9690  146.2370 C   0  0  0  0  0  2  0  0  0  0  0  0
  184.6390  177.5250  146.5230 C   0  0  0  0  0  2  0  0  0  0  0  0
  185.8030  178.1790  147.2380 C   0  0  0  0  0  3  0  0  0  0  0  0
  194.0500  171.5040  144.4580 C   0  0  0  0  0  2  0  0  0  0  0  0
  193.8480  169.5450  143.1340 O   0  0  0  0  0  1  0  0  0  0  0  0
  193.1060  170.5560  143.7410 C   0  0  2  0  0  3  0  0  0  0  0  0
  192.3280  171.3030  142.6740 C   0  0  0  0  0  2  0  0  0  0  0  0
  191.1420  172.0060  143.2990 C   0  0  0  0  0  2  0  0  0  0  0  0
  189.8820  171.6260  142.5510 C   0  0  0  0  0  2  0  0  0  0  0  0
  189.2630  172.8660  141.9380 C   0  0  1  0  0  3  0  0  0  0  0  0
  188.7510  173.0000  139.7450 C   0  0  0  0  0  0  0  0  0  0  0  0
  189.4920  174.1780  139.7730 O   0  0  0  0  0  0  0  0  0  0  0  0
  190.2390  173.9600  141.9540 C   0  0  1  0  0  3  0  0  0  0  0  0
  188.6490  172.8320  138.2210 C   0  0  0  0  0  2  0  0  0  0  0  0
  189.9910  173.1860  140.6170 C   0  0  1  0  0  0  0  0  0  0  0  0
  189.3120  171.7800  138.9900 C   0  0  0  0  0  2  0  0  0  0  0  0
  189.4790  175.2740  142.1500 C   0  0  0  0  0  2  0  0  0  0  0  0
  188.1370  175.0320  142.8320 C   0  0  0  0  0  2  0  0  0  0  0  0
  184.1990  177.7160  142.9990 O   0  0  0  0  0  0  0  0  0  0  0  0
  185.6830  178.3190  141.2610 C   0  0  0  0  0  2  0  0  0  0  0  0
  187.0270  175.8400  142.1750 C   0  0  1  0  0  3  0  0  0  0  0  0
  186.3330  176.7340  143.2020 C   0  0  0  0  0  2  0  0  0  0  0  0
  186.4600  177.4090  140.3130 C   0  0  0  0  0  2  0  0  0  0  0  0
  185.3080  177.5800  142.5130 C   0  0  0  0  0  0  0  0  0  0  0  0
  187.5970  176.6880  141.0380 C   0  0  0  0  0  2  0  0  0  0  0  0
  1 24  1  0  0  0  0
  2  6  1  0  0  0  0
  3  8  1  0  0  0  0
  4  3  1  6  0  0  0
  4  5  1  0  0  0  0
  4  7  1  0  0  0  0
  5  7  1  0  0  0  0
  5 12  1  1  0  0  0
  6  1  1  6  0  0  0
  6 10  1  0  0  0  0
  7 10  1  1  0  0  0
  8  2  1  0  0  0  0
  9  8  2  0  0  0  0
 12 13  1  0  0  0  0
 12 11  1  6  0  0  0
 13 14  1  0  0  0  0
 15 14  1  0  0  0  0
 16 15  1  1  0  0  0
 16 17  1  0  0  0  0
 16 19  1  0  0  0  0
 18 17  1  0  0  0  0
 20 23  1  0  0  0  0
 20 19  1  0  0  0  0
 21 22  1  0  0  0  0
 21 23  1  0  0  0  0
 22 23  1  0  0  0  0
 26 25  1  6  0  0  0
 26 24  1  0  0  0  0
 27 28  1  0  0  0  0
 27 26  1  0  0  0  0
 29 28  1  0  0  0  0
 30 33  1  0  0  0  0
 30 29  1  1  0  0  0
 31 32  1  0  0  0  0
 31 35  1  0  0  0  0
 33 37  1  6  0  0  0
 34 36  1  0  0  0  0
 34 31  1  0  0  0  0
 35 32  1  1  0  0  0
 35 30  1  0  0  0  0
 35 33  1  0  0  0  0
 36 31  1  0  0  0  0
 37 38  1  0  0  0  0
 40 44  1  0  0  0  0
 41 38  1  1  0  0  0
 41 42  1  0  0  0  0
 43 45  1  0  0  0  0
 43 40  1  0  0  0  0
 44 39  2  0  0  0  0
 44 42  1  0  0  0  0
 45 41  1  0  0  0  0
M  END
>  <MODEL>
9

>  <REMARK>
 VINA RESULT:      -6.2      2.513      5.838
  Name = 
  19 active torsions:
  status: ('A' for Active; 'I' for Inactive)
    1  A    between atoms: C_2  and  O_12
    2  A    between atoms: C_2  and  C_14
    3  A    between atoms: C_2  and  C_15
    4  A    between atoms: C_4  and  C_35
    5  A    between atoms: C_5  and  C_11
    6  A    between atoms: C_5  and  C_38
    7  A    between atoms: O_6  and  C_26
    8  A    between atoms: O_6  and  C_38
    9  A    between atoms: O_9  and  C_14
   10  A    between atoms: O_9  and  C_44
   11  A    between atoms: C_11  and  C_34
   12  A    between atoms: O_12  and  C_30
   13  A    between atoms: C_13  and  C_23
   14  A    between atoms: C_13  and  C_44
   15  A    between atoms: C_22  and  C_31
   16  A    between atoms: C_29  and  C_31
   17  A    between atoms: C_29  and  C_32
   18  A    between atoms: C_30  and  C_45
   19  A    between atoms: C_34  and  C_35
                            x       y       z     vdW  Elec       q    Type
                         _______ _______ _______ _____ _____    ______ ____

>  <TORSDO>
F 19

$$$$
