=
 OpenBabel11072408503D

 26 29  0  0  1  0  0  0  0  0999 V2000
  189.2720  176.9760  146.8190 N   0  0  0  0  0  0  0  0  0  0  0  0
  190.6050  176.7490  146.7340 C   0  0  0  0  0  3  0  0  0  0  0  0
  188.9100  176.0040  144.6610 C   0  0  0  0  0  0  0  0  0  0  0  0
  190.2970  175.7390  144.5500 C   0  0  0  0  0  0  0  0  0  0  0  0
  187.9520  175.5800  143.5880 C   0  0  0  0  0  1  0  0  0  0  0  0
  188.4190  176.6270  145.8230 C   0  0  0  0  0  0  0  0  0  0  0  0
  191.1560  176.1380  145.6030 C   0  0  0  0  0  0  0  0  0  0  0  0
  194.8580  176.5620  145.2350 C   0  0  0  0  0  2  0  0  0  0  0  0
  194.7600  175.5080  146.3290 C   0  0  0  0  0  2  0  0  0  0  0  0
  193.2170  173.6500  145.7600 C   0  0  0  0  0  1  0  0  0  0  0  0
  192.5820  175.9840  145.5250 N   0  0  0  0  0  0  0  0  0  0  0  0
  193.4380  176.9930  144.9290 C   0  0  0  0  0  2  0  0  0  0  0  0
  193.3160  175.0430  146.3520 C   0  0  2  0  0  3  0  0  0  0  0  0
  191.3910  173.4470  142.0710 C   0  0  0  0  0  0  0  0  0  0  0  0
  190.7930  173.6580  143.2570 N   0  0  0  0  0  0  0  0  0  0  0  0
  191.5770  172.1480  141.5230 N   0  0  0  0  0  1  0  0  0  0  0  0
  191.4460  175.5630  142.2800 C   0  0  0  0  0  3  0  0  0  0  0  0
  191.8010  174.5670  141.4470 N   0  0  0  0  0  0  0  0  0  0  0  0
  190.8280  174.9980  143.3800 C   0  0  2  0  0  3  0  0  0  0  0  0
  186.9640  176.9400  145.9840 C   0  0  0  0  0  2  0  0  0  0  0  0
  186.7590  178.3860  145.9710 N   0  0  0  0  0  0  0  0  0  0  0  0
  183.8740  178.7510  145.6390 C   0  0  0  0  0  2  0  0  0  0  0  0
  185.8990  178.7900  147.0950 C   0  0  0  0  0  2  0  0  0  0  0  0
  184.4650  178.2700  146.9550 C   0  0  0  0  0  2  0  0  0  0  0  0
  186.1790  178.7970  144.6840 C   0  0  0  0  0  2  0  0  0  0  0  0
  184.7500  178.2800  144.4900 C   0  0  0  0  0  2  0  0  0  0  0  0
  2  1  1  0  0  0  0
  3  6  1  0  0  0  0
  4  3  2  0  0  0  0
  4  7  1  0  0  0  0
  5  3  1  0  0  0  0
  6 20  1  0  0  0  0
  6  1  2  0  0  0  0
  7  2  2  0  0  0  0
  8  9  1  0  0  0  0
  9 13  1  0  0  0  0
 11  7  1  0  0  0  0
 11 13  1  0  0  0  0
 12  8  1  0  0  0  0
 12 11  1  0  0  0  0
 13 10  1  6  0  0  0
 14 15  2  0  0  0  0
 15 19  1  0  0  0  0
 16 14  1  0  0  0  0
 17 19  1  0  0  0  0
 18 14  1  0  0  0  0
 18 17  2  0  0  0  0
 19  4  1  1  0  0  0
 21 20  1  0  0  0  0
 21 23  1  0  0  0  0
 22 24  1  0  0  0  0
 24 23  1  0  0  0  0
 25 21  1  0  0  0  0
 26 25  1  0  0  0  0
 26 22  1  0  0  0  0
M  END
>  <MODEL>
1

>  <REMARK>
 VINA RESULT:      -6.7      0.000      0.000
  Name = 
  4 active torsions:
  status: ('A' for Active; 'I' for Inactive)
    1  A    between atoms: N_9  and  C_25
    2  A    between atoms: N_10  and  C_22
    3  A    between atoms: C_12  and  C_19
    4  A    between atoms: C_22  and  C_23
                            x       y       z     vdW  Elec       q    Type
                         _______ _______ _______ _____ _____    ______ ____

>  <TORSDO>
F 4

$$$$
=
 OpenBabel11072408503D

 26 29  0  0  1  0  0  0  0  0999 V2000
  190.2220  177.3990  146.5120 N   0  0  0  0  0  0  0  0  0  0  0  0
  188.8990  177.6210  146.6990 C   0  0  0  0  0  3  0  0  0  0  0  0
  189.8680  176.8900  144.1990 C   0  0  0  0  0  0  0  0  0  0  0  0
  188.4830  177.1320  144.3600 C   0  0  0  0  0  0  0  0  0  0  0  0
  190.4440  176.5380  142.8600 C   0  0  0  0  0  1  0  0  0  0  0  0
  190.7260  177.0380  145.3050 C   0  0  0  0  0  0  0  0  0  0  0  0
  187.9940  177.4860  145.6420 C   0  0  0  0  0  0  0  0  0  0  0  0
  184.4180  177.1970  146.7150 C   0  0  0  0  0  2  0  0  0  0  0  0
  184.6690  178.6950  146.8210 C   0  0  0  0  0  2  0  0  0  0  0  0
  185.7440  179.6520  144.8010 C   0  0  0  0  0  1  0  0  0  0  0  0
  186.5920  177.6600  145.9030 N   0  0  0  0  0  0  0  0  0  0  0  0
  185.7470  176.5670  146.3490 C   0  0  0  0  0  2  0  0  0  0  0  0
  185.9920  178.9620  146.1290 C   0  0  2  0  0  3  0  0  0  0  0  0
  186.4610  177.6100  141.4820 C   0  0  0  0  0  0  0  0  0  0  0  0
  187.3530  178.1100  142.3570 N   0  0  0  0  0  0  0  0  0  0  0  0
  185.9360  178.3680  140.3990 N   0  0  0  0  0  1  0  0  0  0  0  0
  186.8090  175.9880  142.8130 C   0  0  0  0  0  3  0  0  0  0  0  0
  186.1040  176.3340  141.7200 N   0  0  0  0  0  2  0  0  0  0  0  0
  187.5700  177.0770  143.1910 C   0  0  0  0  0  0  0  0  0  0  0  0
  192.1960  176.7840  145.1900 C   0  0  0  0  0  2  0  0  0  0  0  0
  192.7270  176.3280  146.4730 N   0  0  0  0  0  0  0  0  0  0  0  0
  194.9180  174.5100  145.7980 C   0  0  0  0  0  2  0  0  0  0  0  0
  194.1340  176.7330  146.6170 C   0  0  0  0  0  2  0  0  0  0  0  0
  195.0560  176.0140  145.6260 C   0  0  0  0  0  2  0  0  0  0  0  0
  192.5780  174.8700  146.5860 C   0  0  0  0  0  2  0  0  0  0  0  0
  193.4660  174.1100  145.5970 C   0  0  0  0  0  2  0  0  0  0  0  0
  1  2  1  0  0  0  0
  3  4  2  0  0  0  0
  3  6  1  0  0  0  0
  4  7  1  0  0  0  0
  5  3  1  0  0  0  0
  6  1  2  0  0  0  0
  7 11  1  0  0  0  0
  7  2  2  0  0  0  0
  8  9  1  0  0  0  0
 11 13  1  0  0  0  0
 11 12  1  0  0  0  0
 12  8  1  0  0  0  0
 13 10  1  6  0  0  0
 13  9  1  0  0  0  0
 14 18  1  0  0  0  0
 14 15  2  0  0  0  0
 15 19  1  0  0  0  0
 16 14  1  0  0  0  0
 17 19  2  0  0  0  0
 18 17  1  0  0  0  0
 19  4  1  0  0  0  0
 20  6  1  0  0  0  0
 20 21  1  0  0  0  0
 21 25  1  0  0  0  0
 21 23  1  0  0  0  0
 24 22  1  0  0  0  0
 24 23  1  0  0  0  0
 26 22  1  0  0  0  0
 26 25  1  0  0  0  0
M  END
>  <MODEL>
2

>  <REMARK>
 VINA RESULT:      -6.7      2.276      7.060
  Name = 
  4 active torsions:
  status: ('A' for Active; 'I' for Inactive)
    1  A    between atoms: N_9  and  C_25
    2  A    between atoms: N_10  and  C_22
    3  A    between atoms: C_12  and  C_19
    4  A    between atoms: C_22  and  C_23
                            x       y       z     vdW  Elec       q    Type
                         _______ _______ _______ _____ _____    ______ ____

>  <TORSDO>
F 4

$$$$
=
 OpenBabel11072408503D

 26 29  0  0  1  0  0  0  0  0999 V2000
  188.1320  176.5080  142.5760 N   0  0  0  0  0  0  0  0  0  0  0  0
  189.1330  175.6580  142.2420 C   0  0  0  0  0  3  0  0  0  0  0  0
  189.1540  176.9750  144.6900 C   0  0  0  0  0  0  0  0  0  0  0  0
  190.2230  176.1050  144.3630 C   0  0  0  0  0  0  0  0  0  0  0  0
  189.1440  177.7400  145.9790 C   0  0  0  0  0  1  0  0  0  0  0  0
  188.1120  177.1630  143.7640 C   0  0  0  0  0  0  0  0  0  0  0  0
  190.1950  175.4240  143.1210 C   0  0  0  0  0  0  0  0  0  0  0  0
  192.2300  172.3560  142.4360 C   0  0  0  0  0  2  0  0  0  0  0  0
  192.6380  173.2770  141.2950 C   0  0  0  0  0  2  0  0  0  0  0  0
  193.2450  175.5610  142.0510 C   0  0  0  0  0  1  0  0  0  0  0  0
  191.1970  174.4610  142.7570 N   0  0  0  0  0  0  0  0  0  0  0  0
  191.1380  173.0800  143.1990 C   0  0  0  0  0  2  0  0  0  0  0  0
  192.1010  174.6540  141.6380 C   0  0  2  0  0  3  0  0  0  0  0  0
  193.2530  176.2270  146.2070 C   0  0  0  0  0  0  0  0  0  0  0  0
  192.4910  176.7200  145.2140 N   0  0  0  0  0  0  0  0  0  0  0  0
  194.5450  176.7380  146.5130 N   0  0  0  0  0  1  0  0  0  0  0  0
  191.4960  175.0320  146.2950 C   0  0  0  0  0  3  0  0  0  0  0  0
  192.6920  175.2080  146.8850 N   0  0  0  0  0  0  0  0  0  0  0  0
  191.3810  175.9620  145.2790 C   0  0  2  0  0  3  0  0  0  0  0  0
  186.9530  178.0610  144.0660 C   0  0  0  0  0  2  0  0  0  0  0  0
  185.7230  177.2790  144.1570 N   0  0  0  0  0  0  0  0  0  0  0  0
  184.0730  178.6660  146.1370 C   0  0  0  0  0  2  0  0  0  0  0  0
  184.5670  178.0970  143.7580 C   0  0  0  0  0  2  0  0  0  0  0  0
  184.2850  179.2360  144.7430 C   0  0  0  0  0  2  0  0  0  0  0  0
  185.5610  176.7590  145.5220 C   0  0  0  0  0  2  0  0  0  0  0  0
  185.3000  177.8670  146.5470 C   0  0  0  0  0  2  0  0  0  0  0  0
  1  6  1  0  0  0  0
  2  1  2  0  0  0  0
  2  7  1  0  0  0  0
  3  5  1  0  0  0  0
  4  3  1  0  0  0  0
  6 20  1  0  0  0  0
  6  3  2  0  0  0  0
  7  4  2  0  0  0  0
  8 12  1  0  0  0  0
  9 13  1  0  0  0  0
  9  8  1  0  0  0  0
 11  7  1  0  0  0  0
 11 12  1  0  0  0  0
 13 10  1  1  0  0  0
 13 11  1  0  0  0  0
 14 16  1  0  0  0  0
 14 18  1  0  0  0  0
 15 19  1  0  0  0  0
 15 14  2  0  0  0  0
 17 18  2  0  0  0  0
 19  4  1  6  0  0  0
 19 17  1  0  0  0  0
 20 21  1  0  0  0  0
 21 25  1  0  0  0  0
 22 26  1  0  0  0  0
 23 21  1  0  0  0  0
 23 24  1  0  0  0  0
 24 22  1  0  0  0  0
 25 26  1  0  0  0  0
M  END
>  <MODEL>
3

>  <REMARK>
 VINA RESULT:      -6.6      1.577      3.939
  Name = 
  4 active torsions:
  status: ('A' for Active; 'I' for Inactive)
    1  A    between atoms: N_9  and  C_25
    2  A    between atoms: N_10  and  C_22
    3  A    between atoms: C_12  and  C_19
    4  A    between atoms: C_22  and  C_23
                            x       y       z     vdW  Elec       q    Type
                         _______ _______ _______ _____ _____    ______ ____

>  <TORSDO>
F 4

$$$$
=
 OpenBabel11072408503D

 26 29  0  0  1  0  0  0  0  0999 V2000
  187.1390  175.7450  142.6250 N   0  0  0  0  0  0  0  0  0  0  0  0
  187.8430  174.6720  142.1910 C   0  0  0  0  0  3  0  0  0  0  0  0
  188.8870  176.3490  144.1460 C   0  0  0  0  0  0  0  0  0  0  0  0
  189.6530  175.2450  143.7010 C   0  0  0  0  0  0  0  0  0  0  0  0
  189.4260  177.3070  145.1650 C   0  0  0  0  0  1  0  0  0  0  0  0
  187.6200  176.5810  143.5800 C   0  0  0  0  0  0  0  0  0  0  0  0
  189.1060  174.3840  142.7170 C   0  0  0  0  0  0  0  0  0  0  0  0
  190.3620  170.9050  142.1300 C   0  0  0  0  0  2  0  0  0  0  0  0
  190.4610  171.5250  140.7430 C   0  0  0  0  0  2  0  0  0  0  0  0
  191.5810  173.7380  140.7370 C   0  0  0  0  0  1  0  0  0  0  0  0
  189.7850  173.1960  142.2810 N   0  0  0  0  0  0  0  0  0  0  0  0
  189.7070  171.9470  143.0160 C   0  0  0  0  0  2  0  0  0  0  0  0
  190.2580  173.0170  140.9200 C   0  0  2  0  0  3  0  0  0  0  0  0
  193.1240  175.0930  144.4250 C   0  0  0  0  0  0  0  0  0  0  0  0
  192.1310  175.5640  143.6490 N   0  0  0  0  0  0  0  0  0  0  0  0
  194.4930  175.4050  144.1980 N   0  0  0  0  0  1  0  0  0  0  0  0
  191.3760  174.2540  145.2990 C   0  0  0  0  0  3  0  0  0  0  0  0
  192.7140  174.2990  145.4320 N   0  0  0  0  0  2  0  0  0  0  0  0
  191.0300  175.0330  144.2100 C   0  0  0  0  0  0  0  0  0  0  0  0
  186.7650  177.7270  144.0230 C   0  0  0  0  0  2  0  0  0  0  0  0
  185.4900  177.2310  144.5370 N   0  0  0  0  0  0  0  0  0  0  0  0
  185.0230  178.7280  147.0080 C   0  0  0  0  0  2  0  0  0  0  0  0
  184.5060  178.3240  144.6010 C   0  0  0  0  0  2  0  0  0  0  0  0
  184.8720  179.3830  145.6450 C   0  0  0  0  0  2  0  0  0  0  0  0
  185.6890  176.6160  145.8570 C   0  0  0  0  0  2  0  0  0  0  0  0
  186.0790  177.6370  146.9300 C   0  0  0  0  0  2  0  0  0  0  0  0
  1  6  1  0  0  0  0
  2  1  2  0  0  0  0
  2  7  1  0  0  0  0
  3  5  1  0  0  0  0
  4  3  1  0  0  0  0
  4 19  1  0  0  0  0
  6 20  1  0  0  0  0
  6  3  2  0  0  0  0
  7  4  2  0  0  0  0
  8 12  1  0  0  0  0
  9 13  1  0  0  0  0
  9  8  1  0  0  0  0
 11  7  1  0  0  0  0
 11 12  1  0  0  0  0
 13 10  1  1  0  0  0
 13 11  1  0  0  0  0
 14 18  1  0  0  0  0
 15 19  1  0  0  0  0
 15 14  2  0  0  0  0
 16 14  1  0  0  0  0
 17 18  1  0  0  0  0
 19 17  2  0  0  0  0
 20 21  1  0  0  0  0
 21 23  1  0  0  0  0
 21 25  1  0  0  0  0
 23 24  1  0  0  0  0
 24 22  1  0  0  0  0
 25 26  1  0  0  0  0
 26 22  1  0  0  0  0
M  END
>  <MODEL>
4

>  <REMARK>
 VINA RESULT:      -6.6      1.855      4.227
  Name = 
  4 active torsions:
  status: ('A' for Active; 'I' for Inactive)
    1  A    between atoms: N_9  and  C_25
    2  A    between atoms: N_10  and  C_22
    3  A    between atoms: C_12  and  C_19
    4  A    between atoms: C_22  and  C_23
                            x       y       z     vdW  Elec       q    Type
                         _______ _______ _______ _____ _____    ______ ____

>  <TORSDO>
F 4

$$$$
=
 OpenBabel11072408503D

 26 29  0  0  1  0  0  0  0  0999 V2000
  188.1060  176.4920  142.4560 N   0  0  0  0  0  0  0  0  0  0  0  0
  189.0700  175.6370  142.0390 C   0  0  0  0  0  3  0  0  0  0  0  0
  189.2220  176.8230  144.5480 C   0  0  0  0  0  0  0  0  0  0  0  0
  190.2540  175.9470  144.1340 C   0  0  0  0  0  0  0  0  0  0  0  0
  189.2830  177.5210  145.8740 C   0  0  0  0  0  1  0  0  0  0  0  0
  188.1500  177.0850  143.6760 C   0  0  0  0  0  0  0  0  0  0  0  0
  190.1600  175.3320  142.8610 C   0  0  0  0  0  0  0  0  0  0  0  0
  193.1740  173.4800  141.6330 C   0  0  0  0  0  2  0  0  0  0  0  0
  192.5330  172.4690  142.5730 C   0  0  0  0  0  2  0  0  0  0  0  0
  190.1020  172.1710  142.1770 C   0  0  0  0  0  1  0  0  0  0  0  0
  191.1200  174.3650  142.4080 N   0  0  0  0  0  0  0  0  0  0  0  0
  192.3550  174.7500  141.7500 C   0  0  0  0  0  2  0  0  0  0  0  0
  191.1490  172.9990  142.8990 C   0  0  2  0  0  3  0  0  0  0  0  0
  193.3620  175.8900  145.8480 C   0  0  0  0  0  0  0  0  0  0  0  0
  192.5790  176.4450  144.9050 N   0  0  0  0  0  0  0  0  0  0  0  0
  194.6840  176.3410  146.1140 N   0  0  0  0  0  1  0  0  0  0  0  0
  191.5640  174.7590  145.9720 C   0  0  0  0  0  3  0  0  0  0  0  0
  192.7900  174.8700  146.5150 N   0  0  0  0  0  0  0  0  0  0  0  0
  191.4430  175.7280  144.9930 C   0  0  2  0  0  3  0  0  0  0  0  0
  187.0280  177.9940  144.0700 C   0  0  0  0  0  2  0  0  0  0  0  0
  185.7810  177.2390  144.1650 N   0  0  0  0  0  0  0  0  0  0  0  0
  184.1180  178.7350  146.0530 C   0  0  0  0  0  2  0  0  0  0  0  0
  184.6500  178.0630  143.7100 C   0  0  0  0  0  2  0  0  0  0  0  0
  184.3700  179.2450  144.6420 C   0  0  0  0  0  2  0  0  0  0  0  0
  185.5810  176.7780  145.5460 C   0  0  0  0  0  2  0  0  0  0  0  0
  185.3200  177.9310  146.5200 C   0  0  0  0  0  2  0  0  0  0  0  0
  1  6  1  0  0  0  0
  2  1  2  0  0  0  0
  2  7  1  0  0  0  0
  3  5  1  0  0  0  0
  4  3  1  0  0  0  0
  6 20  1  0  0  0  0
  6  3  2  0  0  0  0
  7  4  2  0  0  0  0
  8 12  1  0  0  0  0
  8  9  1  0  0  0  0
  9 13  1  0  0  0  0
 11  7  1  0  0  0  0
 11 13  1  0  0  0  0
 12 11  1  0  0  0  0
 13 10  1  6  0  0  0
 14 16  1  0  0  0  0
 14 18  1  0  0  0  0
 15 19  1  0  0  0  0
 15 14  2  0  0  0  0
 17 18  2  0  0  0  0
 19  4  1  6  0  0  0
 19 17  1  0  0  0  0
 20 21  1  0  0  0  0
 21 25  1  0  0  0  0
 22 26  1  0  0  0  0
 23 21  1  0  0  0  0
 23 24  1  0  0  0  0
 24 22  1  0  0  0  0
 25 26  1  0  0  0  0
M  END
>  <MODEL>
5

>  <REMARK>
 VINA RESULT:      -6.4      1.550      3.787
  Name = 
  4 active torsions:
  status: ('A' for Active; 'I' for Inactive)
    1  A    between atoms: N_9  and  C_25
    2  A    between atoms: N_10  and  C_22
    3  A    between atoms: C_12  and  C_19
    4  A    between atoms: C_22  and  C_23
                            x       y       z     vdW  Elec       q    Type
                         _______ _______ _______ _____ _____    ______ ____

>  <TORSDO>
F 4

$$$$
=
 OpenBabel11072408503D

 26 29  0  0  1  0  0  0  0  0999 V2000
  188.7250  177.6180  144.8420 N   0  0  0  0  0  0  0  0  0  0  0  0
  190.0250  177.4140  145.1650 C   0  0  0  0  0  3  0  0  0  0  0  0
  188.7170  175.6900  143.4210 C   0  0  0  0  0  0  0  0  0  0  0  0
  190.0700  175.4420  143.7530 C   0  0  0  0  0  0  0  0  0  0  0  0
  187.9560  174.7640  142.5200 C   0  0  0  0  0  1  0  0  0  0  0  0
  188.0600  176.7960  143.9910 C   0  0  0  0  0  0  0  0  0  0  0  0
  190.7350  176.3360  144.6280 C   0  0  0  0  0  0  0  0  0  0  0  0
  194.4780  176.4310  144.7370 C   0  0  0  0  0  2  0  0  0  0  0  0
  194.1080  176.5010  146.2120 C   0  0  0  0  0  2  0  0  0  0  0  0
  192.4510  174.7820  146.8880 C   0  0  0  0  0  1  0  0  0  0  0  0
  192.1310  176.2000  144.9410 N   0  0  0  0  0  0  0  0  0  0  0  0
  193.1720  176.4760  143.9680 C   0  0  0  0  0  2  0  0  0  0  0  0
  192.6300  176.1710  146.3040 C   0  0  2  0  0  3  0  0  0  0  0  0
  191.8120  172.8890  142.0070 C   0  0  0  0  0  0  0  0  0  0  0  0
  191.3500  174.1520  142.0360 N   0  0  0  0  0  0  0  0  0  0  0  0
  192.5220  172.3540  140.8970 N   0  0  0  0  0  1  0  0  0  0  0  0
  190.8680  173.0240  143.9080 C   0  0  0  0  0  3  0  0  0  0  0  0
  191.5430  172.1730  143.1150 N   0  0  0  0  0  0  0  0  0  0  0  0
  190.7580  174.2310  143.2420 C   0  0  2  0  0  3  0  0  0  0  0  0
  186.6330  177.1090  143.6640 C   0  0  0  0  0  2  0  0  0  0  0  0
  186.5290  178.4630  143.1240 N   0  0  0  0  0  0  0  0  0  0  0  0
  184.5410  178.2850  140.9830 C   0  0  0  0  0  2  0  0  0  0  0  0
  185.1620  178.9780  143.2980 C   0  0  0  0  0  2  0  0  0  0  0  0
  184.1360  178.2230  142.4480 C   0  0  0  0  0  2  0  0  0  0  0  0
  186.9220  178.4660  141.7070 C   0  0  0  0  0  2  0  0  0  0  0  0
  185.9340  177.7020  140.8200 C   0  0  0  0  0  2  0  0  0  0  0  0
  1  2  1  0  0  0  0
  3  4  2  0  0  0  0
  3  6  1  0  0  0  0
  4  7  1  0  0  0  0
  5  3  1  0  0  0  0
  6  1  2  0  0  0  0
  7 11  1  0  0  0  0
  7  2  2  0  0  0  0
  8  9  1  0  0  0  0
  9 13  1  0  0  0  0
 11 13  1  0  0  0  0
 12  8  1  0  0  0  0
 12 11  1  0  0  0  0
 13 10  1  6  0  0  0
 14 15  2  0  0  0  0
 14 18  1  0  0  0  0
 15 19  1  0  0  0  0
 16 14  1  0  0  0  0
 18 17  2  0  0  0  0
 19  4  1  6  0  0  0
 19 17  1  0  0  0  0
 20  6  1  0  0  0  0
 21 23  1  0  0  0  0
 21 20  1  0  0  0  0
 22 24  1  0  0  0  0
 24 23  1  0  0  0  0
 25 21  1  0  0  0  0
 26 22  1  0  0  0  0
 26 25  1  0  0  0  0
M  END
>  <MODEL>
6

>  <REMARK>
 VINA RESULT:      -6.2      1.810      2.354
  Name = 
  4 active torsions:
  status: ('A' for Active; 'I' for Inactive)
    1  A    between atoms: N_9  and  C_25
    2  A    between atoms: N_10  and  C_22
    3  A    between atoms: C_12  and  C_19
    4  A    between atoms: C_22  and  C_23
                            x       y       z     vdW  Elec       q    Type
                         _______ _______ _______ _____ _____    ______ ____

>  <TORSDO>
F 4

$$$$
=
 OpenBabel11072408503D

 26 29  0  0  1  0  0  0  0  0999 V2000
  188.1750  176.0100  142.2770 N   0  0  0  0  0  0  0  0  0  0  0  0
  189.4910  175.7050  142.3840 C   0  0  0  0  0  3  0  0  0  0  0  0
  187.9780  176.2410  144.6530 C   0  0  0  0  0  0  0  0  0  0  0  0
  189.3540  175.9410  144.7940 C   0  0  0  0  0  0  0  0  0  0  0  0
  187.1310  176.5800  145.8430 C   0  0  0  0  0  1  0  0  0  0  0  0
  187.4090  176.2730  143.3660 C   0  0  0  0  0  0  0  0  0  0  0  0
  190.1140  175.6510  143.6340 C   0  0  0  0  0  0  0  0  0  0  0  0
  193.8240  175.4050  144.0830 C   0  0  0  0  0  2  0  0  0  0  0  0
  193.3550  174.0160  144.4910 C   0  0  0  0  0  2  0  0  0  0  0  0
  191.7890  172.9950  142.8600 C   0  0  0  0  0  1  0  0  0  0  0  0
  191.4930  175.2530  143.7050 N   0  0  0  0  0  0  0  0  0  0  0  0
  192.5720  176.2170  143.8170 C   0  0  0  0  0  2  0  0  0  0  0  0
  191.9030  173.9080  144.0660 C   0  0  2  0  0  3  0  0  0  0  0  0
  190.9690  176.6870  147.8660 C   0  0  0  0  0  0  0  0  0  0  0  0
  190.4650  177.1220  146.6960 N   0  0  0  0  0  0  0  0  0  0  0  0
  191.5770  177.5560  148.8130 N   0  0  0  0  0  1  0  0  0  0  0  0
  190.2360  174.9110  146.9540 C   0  0  0  0  0  3  0  0  0  0  0  0
  190.8530  175.3600  148.0620 N   0  0  0  0  0  0  0  0  0  0  0  0
  190.0000  175.9940  146.1280 C   0  0  2  0  0  3  0  0  0  0  0  0
  185.9570  176.5730  143.1630 C   0  0  0  0  0  2  0  0  0  0  0  0
  185.8020  177.7270  142.2800 N   0  0  0  0  0  0  0  0  0  0  0  0
  184.4780  179.7680  143.9070 C   0  0  0  0  0  2  0  0  0  0  0  0
  186.5400  178.8820  142.8160 C   0  0  0  0  0  2  0  0  0  0  0  0
  185.9400  179.4070  144.1240 C   0  0  0  0  0  2  0  0  0  0  0  0
  184.3760  178.0380  142.1110 C   0  0  0  0  0  2  0  0  0  0  0  0
  183.7270  178.5470  143.4020 C   0  0  0  0  0  2  0  0  0  0  0  0
  1  2  2  0  0  0  0
  1  6  1  0  0  0  0
  2  7  1  0  0  0  0
  3  4  1  0  0  0  0
  3  5  1  0  0  0  0
  6  3  2  0  0  0  0
  7 11  1  0  0  0  0
  7  4  2  0  0  0  0
  8  9  1  0  0  0  0
 11 12  1  0  0  0  0
 11 13  1  0  0  0  0
 12  8  1  0  0  0  0
 13 10  1  6  0  0  0
 13  9  1  0  0  0  0
 14 18  1  0  0  0  0
 14 16  1  0  0  0  0
 15 14  2  0  0  0  0
 17 18  2  0  0  0  0
 19  4  1  6  0  0  0
 19 15  1  0  0  0  0
 19 17  1  0  0  0  0
 20  6  1  0  0  0  0
 21 23  1  0  0  0  0
 21 20  1  0  0  0  0
 22 24  1  0  0  0  0
 23 24  1  0  0  0  0
 25 21  1  0  0  0  0
 25 26  1  0  0  0  0
 26 22  1  0  0  0  0
M  END
>  <MODEL>
7

>  <REMARK>
 VINA RESULT:      -6.2      1.983      3.940
  Name = 
  4 active torsions:
  status: ('A' for Active; 'I' for Inactive)
    1  A    between atoms: N_9  and  C_25
    2  A    between atoms: N_10  and  C_22
    3  A    between atoms: C_12  and  C_19
    4  A    between atoms: C_22  and  C_23
                            x       y       z     vdW  Elec       q    Type
                         _______ _______ _______ _____ _____    ______ ____

>  <TORSDO>
F 4

$$$$
=
 OpenBabel11072408503D

 26 29  0  0  1  0  0  0  0  0999 V2000
  187.9320  175.5660  142.9180 N   0  0  0  0  0  0  0  0  0  0  0  0
  189.0570  174.9300  142.5100 C   0  0  0  0  0  3  0  0  0  0  0  0
  189.0030  176.2870  144.9350 C   0  0  0  0  0  0  0  0  0  0  0  0
  190.1970  175.6450  144.5280 C   0  0  0  0  0  0  0  0  0  0  0  0
  188.9380  177.0680  146.2130 C   0  0  0  0  0  1  0  0  0  0  0  0
  187.8730  176.2340  144.0980 C   0  0  0  0  0  0  0  0  0  0  0  0
  190.2110  174.9410  143.2990 C   0  0  0  0  0  0  0  0  0  0  0  0
  192.7660  172.3330  142.4640 C   0  0  0  0  0  2  0  0  0  0  0  0
  192.8980  173.3020  141.2980 C   0  0  0  0  0  2  0  0  0  0  0  0
  193.0870  175.6710  142.0120 C   0  0  0  0  0  1  0  0  0  0  0  0
  191.3570  174.1920  142.8620 N   0  0  0  0  0  0  0  0  0  0  0  0
  191.6080  172.8330  143.3040 C   0  0  0  0  0  2  0  0  0  0  0  0
  192.1220  174.5480  141.6800 C   0  0  2  0  0  3  0  0  0  0  0  0
  193.2820  176.4230  146.1030 C   0  0  0  0  0  0  0  0  0  0  0  0
  192.3630  176.7180  145.1650 N   0  0  0  0  0  0  0  0  0  0  0  0
  194.4700  177.1840  146.2830 N   0  0  0  0  0  1  0  0  0  0  0  0
  191.8020  174.9190  146.3730 C   0  0  0  0  0  3  0  0  0  0  0  0
  192.9840  175.3460  146.8530 N   0  0  0  0  0  2  0  0  0  0  0  0
  191.4300  175.7660  145.3450 C   0  0  0  0  0  0  0  0  0  0  0  0
  186.5830  176.8850  144.4870 C   0  0  0  0  0  2  0  0  0  0  0  0
  186.5870  178.2880  144.0790 N   0  0  0  0  0  0  0  0  0  0  0  0
  183.7650  179.0400  143.8840 C   0  0  0  0  0  2  0  0  0  0  0  0
  185.9400  179.1200  145.1050 C   0  0  0  0  0  2  0  0  0  0  0  0
  184.4400  178.8370  145.2320 C   0  0  0  0  0  2  0  0  0  0  0  0
  185.9170  178.4310  142.7780 C   0  0  0  0  0  2  0  0  0  0  0  0
  184.4160  178.1350  142.8520 C   0  0  0  0  0  2  0  0  0  0  0  0
  1  6  1  0  0  0  0
  2  1  2  0  0  0  0
  2  7  1  0  0  0  0
  3  5  1  0  0  0  0
  4  3  1  0  0  0  0
  4 19  1  0  0  0  0
  6 20  1  0  0  0  0
  6  3  2  0  0  0  0
  7  4  2  0  0  0  0
  8 12  1  0  0  0  0
  9 13  1  0  0  0  0
  9  8  1  0  0  0  0
 11  7  1  0  0  0  0
 11 12  1  0  0  0  0
 13 10  1  1  0  0  0
 13 11  1  0  0  0  0
 14 16  1  0  0  0  0
 14 18  1  0  0  0  0
 15 19  1  0  0  0  0
 15 14  2  0  0  0  0
 17 18  1  0  0  0  0
 19 17  2  0  0  0  0
 21 20  1  0  0  0  0
 21 23  1  0  0  0  0
 22 24  1  0  0  0  0
 23 24  1  0  0  0  0
 25 26  1  0  0  0  0
 25 21  1  0  0  0  0
 26 22  1  0  0  0  0
M  END
>  <MODEL>
8

>  <REMARK>
 VINA RESULT:      -6.1      1.525      3.829
  Name = 
  4 active torsions:
  status: ('A' for Active; 'I' for Inactive)
    1  A    between atoms: N_9  and  C_25
    2  A    between atoms: N_10  and  C_22
    3  A    between atoms: C_12  and  C_19
    4  A    between atoms: C_22  and  C_23
                            x       y       z     vdW  Elec       q    Type
                         _______ _______ _______ _____ _____    ______ ____

>  <TORSDO>
F 4

$$$$
=
 OpenBabel11072408503D

 26 29  0  0  1  0  0  0  0  0999 V2000
  189.7720  176.8140  145.8750 N   0  0  0  0  0  0  0  0  0  0  0  0
  190.8870  176.0810  145.6400 C   0  0  0  0  0  3  0  0  0  0  0  0
  188.6940  175.8950  143.9430 C   0  0  0  0  0  0  0  0  0  0  0  0
  189.8400  175.1060  143.6820 C   0  0  0  0  0  0  0  0  0  0  0  0
  187.4700  175.7960  143.0820 C   0  0  0  0  0  1  0  0  0  0  0  0
  188.6860  176.7470  145.0630 C   0  0  0  0  0  0  0  0  0  0  0  0
  190.9600  175.2200  144.5410 C   0  0  0  0  0  0  0  0  0  0  0  0
  193.7150  172.7170  144.1250 C   0  0  0  0  0  2  0  0  0  0  0  0
  193.9860  173.6900  142.9870 C   0  0  0  0  0  2  0  0  0  0  0  0
  193.9680  176.0650  143.7050 C   0  0  0  0  0  1  0  0  0  0  0  0
  192.1880  174.5180  144.2900 N   0  0  0  0  0  0  0  0  0  0  0  0
  192.4220  173.1700  144.7750 C   0  0  0  0  0  2  0  0  0  0  0  0
  193.1110  174.9040  143.2370 C   0  0  2  0  0  3  0  0  0  0  0  0
  190.0360  173.2590  140.6570 C   0  0  0  0  0  0  0  0  0  0  0  0
  190.2170  174.4220  141.3080 N   0  0  0  0  0  0  0  0  0  0  0  0
  190.3150  173.0990  139.2720 N   0  0  0  0  0  1  0  0  0  0  0  0
  189.4340  172.8100  142.6470 C   0  0  0  0  0  3  0  0  0  0  0  0
  189.5640  172.2590  141.4270 N   0  0  0  0  0  2  0  0  0  0  0  0
  189.8390  174.1290  142.5650 C   0  0  0  0  0  0  0  0  0  0  0  0
  187.5050  177.6110  145.3770 C   0  0  0  0  0  2  0  0  0  0  0  0
  186.7200  177.0150  146.4560 N   0  0  0  0  0  0  0  0  0  0  0  0
  184.4640  178.8340  146.8620 C   0  0  0  0  0  2  0  0  0  0  0  0
  185.3680  176.6820  145.9800 C   0  0  0  0  0  2  0  0  0  0  0  0
  184.5410  177.9270  145.6440 C   0  0  0  0  0  2  0  0  0  0  0  0
  186.6700  177.9320  147.6030 C   0  0  0  0  0  2  0  0  0  0  0  0
  185.8690  179.2040  147.3050 C   0  0  0  0  0  2  0  0  0  0  0  0
  2  1  1  0  0  0  0
  3  6  1  0  0  0  0
  4  3  2  0  0  0  0
  4  7  1  0  0  0  0
  5  3  1  0  0  0  0
  6 20  1  0  0  0  0
  6  1  2  0  0  0  0
  7  2  2  0  0  0  0
  8 12  1  0  0  0  0
  9 13  1  0  0  0  0
  9  8  1  0  0  0  0
 11  7  1  0  0  0  0
 11 12  1  0  0  0  0
 13 10  1  1  0  0  0
 13 11  1  0  0  0  0
 14 15  2  0  0  0  0
 14 18  1  0  0  0  0
 15 19  1  0  0  0  0
 16 14  1  0  0  0  0
 18 17  1  0  0  0  0
 19 17  2  0  0  0  0
 19  4  1  0  0  0  0
 20 21  1  0  0  0  0
 21 25  1  0  0  0  0
 22 26  1  0  0  0  0
 23 21  1  0  0  0  0
 24 23  1  0  0  0  0
 24 22  1  0  0  0  0
 26 25  1  0  0  0  0
M  END
>  <MODEL>
9

>  <REMARK>
 VINA RESULT:      -6.0      1.553      2.429
  Name = 
  4 active torsions:
  status: ('A' for Active; 'I' for Inactive)
    1  A    between atoms: N_9  and  C_25
    2  A    between atoms: N_10  and  C_22
    3  A    between atoms: C_12  and  C_19
    4  A    between atoms: C_22  and  C_23
                            x       y       z     vdW  Elec       q    Type
                         _______ _______ _______ _____ _____    ______ ____

>  <TORSDO>
F 4

$$$$
