=
 OpenBabel11062419063D

 32 35  0  0  1  0  0  0  0  0999 V2000
  190.4020  173.4920  141.3660 C   0  0  0  0  0  3  0  0  0  0  0  0
  189.8070  174.7530  141.2180 C   0  0  0  0  0  3  0  0  0  0  0  0
  189.3340  175.3680  142.3720 C   0  0  0  0  0  0  0  0  0  0  0  0
  190.4900  172.9070  142.5990 N   0  0  0  0  0  0  0  0  0  0  0  0
  188.4580  177.4730  141.6280 O   0  0  0  0  0  0  0  0  0  0  0  0
  188.6420  176.6190  142.5340 C   0  0  0  0  0  0  0  0  0  0  0  0
  188.2790  176.7910  143.9030 N   0  0  0  0  0  0  0  0  0  0  0  0
  188.8560  175.6860  144.6840 C   0  0  1  0  0  3  0  0  0  0  0  0
  190.1100  172.8110  145.0330 C   0  0  0  0  0  1  0  0  0  0  0  0
  190.0220  173.5170  143.7270 C   0  0  0  0  0  0  0  0  0  0  0  0
  189.4450  174.7870  143.6150 C   0  0  0  0  0  0  0  0  0  0  0  0
  190.0430  174.8560  147.7980 O   0  0  0  0  0  0  0  0  0  0  0  0
  189.4560  177.1350  146.5270 O   0  0  0  0  0  0  0  0  0  0  0  0
  189.8760  175.7480  146.9270 C   0  0  0  0  0  0  0  0  0  0  0  0
  189.9400  176.2180  145.6340 C   0  0  1  0  0  0  0  0  0  0  0  0
  191.3360  176.5460  145.0730 C   0  0  0  0  0  2  0  0  0  0  0  0
  192.4820  175.7210  145.6620 C   0  0  2  0  0  3  0  0  0  0  0  0
  193.1480  176.4980  146.7020 N   0  0  0  0  0  2  0  0  0  0  0  0
  194.3960  176.9420  146.1170 C   0  0  0  0  0  2  0  0  0  0  0  0
  193.6420  173.9350  144.6860 C   0  0  0  0  0  1  0  0  0  0  0  0
  194.6990  175.9870  144.9960 C   0  0  0  0  0  2  0  0  0  0  0  0
  193.4410  175.3730  144.6160 N   0  0  0  0  0  0  0  0  0  0  0  0
  187.5890  177.9060  144.4920 C   0  0  0  0  0  3  0  0  0  0  0  0
  186.2840  178.1570  144.3530 C   0  0  0  0  0  0  0  0  0  0  0  0
  185.7570  179.2730  145.0840 N   0  0  0  0  0  2  0  0  0  0  0  0
  185.2580  178.2560  147.1300 F   0  0  0  0  0  0  0  0  0  0  0  0
  184.8440  179.2110  146.2200 C   0  0  0  0  0  3  0  0  0  0  0  0
  183.5560  178.9500  145.7930 F   0  0  0  0  0  0  0  0  0  0  0  0
  185.3840  177.1810  143.6440 C   0  0  0  0  0  2  0  0  0  0  0  0
  184.7270  177.7780  142.4080 C   0  0  0  0  0  3  0  0  0  0  0  0
  185.4960  178.8230  141.9360 F   0  0  0  0  0  0  0  0  0  0  0  0
  183.4530  178.2350  142.6940 F   0  0  0  0  0  0  0  0  0  0  0  0
  1  4  1  0  0  0  0
  2  1  2  0  0  0  0
  2  3  1  0  0  0  0
  3  6  1  0  0  0  0
  3 11  2  0  0  0  0
  4 10  2  0  0  0  0
  5  6  2  0  0  0  0
  6  7  1  0  0  0  0
  7 23  1  0  0  0  0
  7  8  1  0  0  0  0
  8 11  1  6  0  0  0
  8 15  1  0  0  0  0
 10  9  1  0  0  0  0
 11 10  1  0  0  0  0
 13 14  1  0  0  0  0
 14 12  2  0  0  0  0
 15 16  1  6  0  0  0
 15 13  1  0  0  0  0
 15 14  1  0  0  0  0
 17 16  1  6  0  0  0
 17 18  1  0  0  0  0
 19 18  1  0  0  0  0
 21 19  1  0  0  0  0
 22 20  1  0  0  0  0
 22 21  1  0  0  0  0
 22 17  1  0  0  0  0
 24 23  2  0  0  0  0
 24 25  1  0  0  0  0
 25 27  1  0  0  0  0
 27 26  1  0  0  0  0
 28 27  1  0  0  0  0
 29 24  1  0  0  0  0
 30 32  1  0  0  0  0
 30 29  1  0  0  0  0
 31 30  1  0  0  0  0
M  END
>  <MODEL>
1

>  <REMARK>
 VINA RESULT:      -6.8      0.000      0.000
  Name = 
  8 active torsions:
  status: ('A' for Active; 'I' for Inactive)
    1  A    between atoms: C_3  and  C_5
    2  A    between atoms: C_5  and  C_25
    3  A    between atoms: C_7  and  C_31
    4  A    between atoms: C_8  and  N_19
    5  A    between atoms: C_11  and  N_18
    6  A    between atoms: N_18  and  C_29
    7  A    between atoms: C_21  and  C_25
    8  A    between atoms: C_29  and  C_31
                            x       y       z     vdW  Elec       q    Type
                         _______ _______ _______ _____ _____    ______ ____

>  <TORSDO>
F 8

$$$$
=
 OpenBabel11062419063D

 32 35  0  0  1  0  0  0  0  0999 V2000
  193.3090  175.3370  146.1160 C   0  0  0  0  0  3  0  0  0  0  0  0
  192.1020  174.9350  146.7040 C   0  0  0  0  0  3  0  0  0  0  0  0
  190.9330  175.4770  146.1820 C   0  0  0  0  0  0  0  0  0  0  0  0
  193.3130  176.2350  145.0840 N   0  0  0  0  0  0  0  0  0  0  0  0
  189.1690  174.4800  147.4650 O   0  0  0  0  0  0  0  0  0  0  0  0
  189.5670  175.3010  146.5980 C   0  0  0  0  0  0  0  0  0  0  0  0
  188.7160  176.1330  145.8110 N   0  0  0  0  0  0  0  0  0  0  0  0
  189.5260  176.7770  144.7660 C   0  0  1  0  0  3  0  0  0  0  0  0
  192.2340  177.7670  143.4820 C   0  0  0  0  0  1  0  0  0  0  0  0
  192.1610  176.7640  144.5770 C   0  0  0  0  0  0  0  0  0  0  0  0
  190.9380  176.3630  145.1280 C   0  0  0  0  0  0  0  0  0  0  0  0
  188.8920  178.1520  141.6830 O   0  0  0  0  0  0  0  0  0  0  0  0
  187.7660  176.2520  143.1910 O   0  0  0  0  0  0  0  0  0  0  0  0
  188.6890  177.2070  142.4870 C   0  0  0  0  0  0  0  0  0  0  0  0
  189.1210  176.2510  143.3810 C   0  0  1  0  0  0  0  0  0  0  0  0
  189.8470  175.0240  142.8010 C   0  0  0  0  0  2  0  0  0  0  0  0
  188.9740  174.0890  141.9610 C   0  0  2  0  0  3  0  0  0  0  0  0
  188.8410  172.8090  142.6480 N   0  0  0  0  0  2  0  0  0  0  0  0
  189.6960  171.8900  141.9260 C   0  0  0  0  0  2  0  0  0  0  0  0
  188.5510  174.1710  139.6590 C   0  0  0  0  0  1  0  0  0  0  0  0
  189.8640  172.4650  140.5470 C   0  0  0  0  0  2  0  0  0  0  0  0
  189.5770  173.8830  140.6460 N   0  0  0  0  0  0  0  0  0  0  0  0
  187.2860  176.2480  145.8930 C   0  0  0  0  0  3  0  0  0  0  0  0
  186.6330  177.1910  146.5780 C   0  0  0  0  0  0  0  0  0  0  0  0
  185.2020  177.1950  146.4760 N   0  0  0  0  0  2  0  0  0  0  0  0
  185.2090  178.6530  144.6480 F   0  0  0  0  0  0  0  0  0  0  0  0
  184.4010  178.0000  145.5600 C   0  0  0  0  0  3  0  0  0  0  0  0
  183.6270  178.9050  146.2590 F   0  0  0  0  0  0  0  0  0  0  0  0
  187.3800  178.3190  147.2370 C   0  0  0  0  0  2  0  0  0  0  0  0
  186.5500  179.0390  148.2910 C   0  0  0  0  0  3  0  0  0  0  0  0
  185.8960  180.1090  147.7100 F   0  0  0  0  0  0  0  0  0  0  0  0
  187.3470  179.4920  149.3260 F   0  0  0  0  0  0  0  0  0  0  0  0
  1  2  1  0  0  0  0
  3  6  1  0  0  0  0
  3  2  2  0  0  0  0
  4  1  2  0  0  0  0
  6  5  2  0  0  0  0
  7 23  1  0  0  0  0
  7  6  1  0  0  0  0
  8 11  1  1  0  0  0
  8  7  1  0  0  0  0
  9 10  1  0  0  0  0
 10  4  1  0  0  0  0
 10 11  2  0  0  0  0
 11  3  1  0  0  0  0
 12 14  2  0  0  0  0
 13 15  1  0  0  0  0
 14 13  1  0  0  0  0
 14 15  1  0  0  0  0
 15 16  1  6  0  0  0
 15  8  1  0  0  0  0
 17 18  1  0  0  0  0
 17 16  1  1  0  0  0
 19 18  1  0  0  0  0
 20 22  1  0  0  0  0
 21 22  1  0  0  0  0
 21 19  1  0  0  0  0
 22 17  1  0  0  0  0
 23 24  2  0  0  0  0
 24 29  1  0  0  0  0
 25 24  1  0  0  0  0
 26 27  1  0  0  0  0
 27 28  1  0  0  0  0
 27 25  1  0  0  0  0
 29 30  1  0  0  0  0
 30 32  1  0  0  0  0
 31 30  1  0  0  0  0
M  END
>  <MODEL>
2

>  <REMARK>
 VINA RESULT:      -6.7      1.824      4.999
  Name = 
  8 active torsions:
  status: ('A' for Active; 'I' for Inactive)
    1  A    between atoms: C_3  and  C_5
    2  A    between atoms: C_5  and  C_25
    3  A    between atoms: C_7  and  C_31
    4  A    between atoms: C_8  and  N_19
    5  A    between atoms: C_11  and  N_18
    6  A    between atoms: N_18  and  C_29
    7  A    between atoms: C_21  and  C_25
    8  A    between atoms: C_29  and  C_31
                            x       y       z     vdW  Elec       q    Type
                         _______ _______ _______ _____ _____    ______ ____

>  <TORSDO>
F 8

$$$$
=
 OpenBabel11062419063D

 32 35  0  0  1  0  0  0  0  0999 V2000
  188.4550  173.4680  139.3170 C   0  0  0  0  0  3  0  0  0  0  0  0
  188.1360  174.8210  139.4930 C   0  0  0  0  0  3  0  0  0  0  0  0
  188.0740  175.2930  140.8000 C   0  0  0  0  0  0  0  0  0  0  0  0
  188.6770  172.6610  140.4000 N   0  0  0  0  0  0  0  0  0  0  0  0
  187.5450  177.6210  140.5870 O   0  0  0  0  0  0  0  0  0  0  0  0
  187.7290  176.5980  141.2950 C   0  0  0  0  0  0  0  0  0  0  0  0
  187.7200  176.5810  142.7220 N   0  0  0  0  0  0  0  0  0  0  0  0
  188.1940  175.2660  143.1780 C   0  0  1  0  0  3  0  0  0  0  0  0
  188.8250  172.1950  142.8160 C   0  0  0  0  0  1  0  0  0  0  0  0
  188.6140  173.1310  141.6800 C   0  0  0  0  0  0  0  0  0  0  0  0
  188.3220  174.4840  141.8860 C   0  0  0  0  0  0  0  0  0  0  0  0
  189.7180  173.8500  145.9120 O   0  0  0  0  0  0  0  0  0  0  0  0
  189.5190  176.3210  144.9080 O   0  0  0  0  0  0  0  0  0  0  0  0
  189.6240  174.8400  145.1420 C   0  0  0  0  0  0  0  0  0  0  0  0
  189.5490  175.4080  143.8880 C   0  0  1  0  0  0  0  0  0  0  0  0
  190.8390  175.4290  143.0490 C   0  0  0  0  0  2  0  0  0  0  0  0
  192.1390  175.4230  143.8560 C   0  0  2  0  0  3  0  0  0  0  0  0
  192.9770  176.5370  143.4270 N   0  0  0  0  0  2  0  0  0  0  0  0
  194.0260  175.9490  142.6220 C   0  0  0  0  0  2  0  0  0  0  0  0
  193.1530  173.6270  144.9680 C   0  0  0  0  0  1  0  0  0  0  0  0
  194.1230  174.5090  143.0430 C   0  0  0  0  0  2  0  0  0  0  0  0
  192.8520  174.1640  143.6510 N   0  0  0  0  0  0  0  0  0  0  0  0
  187.4400  177.6770  143.6080 C   0  0  0  0  0  3  0  0  0  0  0  0
  186.2160  178.0790  143.9620 C   0  0  0  0  0  0  0  0  0  0  0  0
  186.1350  179.1420  144.9240 N   0  0  0  0  0  2  0  0  0  0  0  0
  185.8650  177.9660  146.9270 F   0  0  0  0  0  0  0  0  0  0  0  0
  185.4700  179.0870  146.2210 C   0  0  0  0  0  3  0  0  0  0  0  0
  184.0970  179.1050  146.0640 F   0  0  0  0  0  0  0  0  0  0  0  0
  184.9980  177.3020  143.5400 C   0  0  0  0  0  2  0  0  0  0  0  0
  184.0970  178.0870  142.5960 C   0  0  0  0  0  3  0  0  0  0  0  0
  184.8750  178.8190  141.7200 F   0  0  0  0  0  0  0  0  0  0  0  0
  183.2650  178.9400  143.2980 F   0  0  0  0  0  0  0  0  0  0  0  0
  1  2  2  0  0  0  0
  1  4  1  0  0  0  0
  2  3  1  0  0  0  0
  3  6  1  0  0  0  0
  3 11  2  0  0  0  0
  4 10  2  0  0  0  0
  5  6  2  0  0  0  0
  6  7  1  0  0  0  0
  7  8  1  0  0  0  0
  7 23  1  0  0  0  0
  8 11  1  6  0  0  0
  8 15  1  0  0  0  0
 10 11  1  0  0  0  0
 10  9  1  0  0  0  0
 13 14  1  0  0  0  0
 14 12  2  0  0  0  0
 15 16  1  6  0  0  0
 15 13  1  0  0  0  0
 15 14  1  0  0  0  0
 17 16  1  6  0  0  0
 18 17  1  0  0  0  0
 19 21  1  0  0  0  0
 19 18  1  0  0  0  0
 21 22  1  0  0  0  0
 22 17  1  0  0  0  0
 22 20  1  0  0  0  0
 23 24  2  0  0  0  0
 24 25  1  0  0  0  0
 25 27  1  0  0  0  0
 27 26  1  0  0  0  0
 28 27  1  0  0  0  0
 29 24  1  0  0  0  0
 30 32  1  0  0  0  0
 30 29  1  0  0  0  0
 31 30  1  0  0  0  0
M  END
>  <MODEL>
3

>  <REMARK>
 VINA RESULT:      -6.5      1.681      1.901
  Name = 
  8 active torsions:
  status: ('A' for Active; 'I' for Inactive)
    1  A    between atoms: C_3  and  C_5
    2  A    between atoms: C_5  and  C_25
    3  A    between atoms: C_7  and  C_31
    4  A    between atoms: C_8  and  N_19
    5  A    between atoms: C_11  and  N_18
    6  A    between atoms: N_18  and  C_29
    7  A    between atoms: C_21  and  C_25
    8  A    between atoms: C_29  and  C_31
                            x       y       z     vdW  Elec       q    Type
                         _______ _______ _______ _____ _____    ______ ____

>  <TORSDO>
F 8

$$$$
=
 OpenBabel11062419063D

 32 35  0  0  1  0  0  0  0  0999 V2000
  194.3720  176.5950  145.8600 C   0  0  0  0  0  3  0  0  0  0  0  0
  194.0150  176.2080  144.5620 C   0  0  0  0  0  3  0  0  0  0  0  0
  192.6800  175.8850  144.3420 C   0  0  0  0  0  0  0  0  0  0  0  0
  193.4340  176.6330  146.8560 N   0  0  0  0  0  0  0  0  0  0  0  0
  192.5580  175.3350  142.0120 O   0  0  0  0  0  0  0  0  0  0  0  0
  192.0280  175.4130  143.1500 C   0  0  0  0  0  0  0  0  0  0  0  0
  190.6580  175.1330  143.4330 N   0  0  0  0  0  0  0  0  0  0  0  0
  190.3690  175.5530  144.8130 C   0  0  1  0  0  3  0  0  0  0  0  0
  191.1630  176.3350  147.7660 C   0  0  0  0  0  1  0  0  0  0  0  0
  192.1260  176.3140  146.6330 C   0  0  0  0  0  0  0  0  0  0  0  0
  191.7340  175.9460  145.3400 C   0  0  0  0  0  0  0  0  0  0  0  0
  189.5080  178.0450  142.6120 O   0  0  0  0  0  0  0  0  0  0  0  0
  189.9850  177.9040  145.2390 O   0  0  0  0  0  0  0  0  0  0  0  0
  189.5930  177.6660  143.8080 C   0  0  0  0  0  0  0  0  0  0  0  0
  189.3980  176.7430  144.8130 C   0  0  1  0  0  0  0  0  0  0  0  0
  187.9550  176.5370  145.3070 C   0  0  0  0  0  2  0  0  0  0  0  0
  187.1290  177.8160  145.4490 C   0  0  2  0  0  3  0  0  0  0  0  0
  186.6730  177.9430  146.8290 N   0  0  0  0  0  2  0  0  0  0  0  0
  185.2680  177.5990  146.8090 C   0  0  0  0  0  2  0  0  0  0  0  0
  185.9890  179.0060  143.7830 C   0  0  0  0  0  1  0  0  0  0  0  0
  184.7990  177.8240  145.3980 C   0  0  0  0  0  2  0  0  0  0  0  0
  185.9750  177.7730  144.5520 N   0  0  0  0  0  0  0  0  0  0  0  0
  189.6560  174.6570  142.5200 C   0  0  0  0  0  3  0  0  0  0  0  0
  189.2400  173.3900  142.4350 C   0  0  0  0  0  0  0  0  0  0  0  0
  188.1700  173.1180  141.5180 N   0  0  0  0  0  2  0  0  0  0  0  0
  189.4830  172.2640  139.7820 F   0  0  0  0  0  0  0  0  0  0  0  0
  188.2950  172.9040  140.0810 C   0  0  0  0  0  3  0  0  0  0  0  0
  188.2040  174.1040  139.4020 F   0  0  0  0  0  0  0  0  0  0  0  0
  189.7220  172.3550  143.4150 C   0  0  0  0  0  2  0  0  0  0  0  0
  190.7380  171.3970  142.8090 C   0  0  0  0  0  3  0  0  0  0  0  0
  191.6060  172.1010  141.9960 F   0  0  0  0  0  0  0  0  0  0  0  0
  190.1110  170.4100  142.0700 F   0  0  0  0  0  0  0  0  0  0  0  0
  1  4  1  0  0  0  0
  2  1  2  0  0  0  0
  3  2  1  0  0  0  0
  3 11  2  0  0  0  0
  5  6  2  0  0  0  0
  6  7  1  0  0  0  0
  6  3  1  0  0  0  0
  7  8  1  0  0  0  0
  8 11  1  6  0  0  0
 10  4  2  0  0  0  0
 10  9  1  0  0  0  0
 11 10  1  0  0  0  0
 12 14  2  0  0  0  0
 14 15  1  0  0  0  0
 14 13  1  0  0  0  0
 15  8  1  0  0  0  0
 15 13  1  0  0  0  0
 15 16  1  1  0  0  0
 17 16  1  1  0  0  0
 17 18  1  0  0  0  0
 19 18  1  0  0  0  0
 20 22  1  0  0  0  0
 21 19  1  0  0  0  0
 22 21  1  0  0  0  0
 22 17  1  0  0  0  0
 23  7  1  0  0  0  0
 24 23  2  0  0  0  0
 24 29  1  0  0  0  0
 25 24  1  0  0  0  0
 26 27  1  0  0  0  0
 27 25  1  0  0  0  0
 28 27  1  0  0  0  0
 30 29  1  0  0  0  0
 31 30  1  0  0  0  0
 32 30  1  0  0  0  0
M  END
>  <MODEL>
4

>  <REMARK>
 VINA RESULT:      -6.4      3.387      6.629
  Name = 
  8 active torsions:
  status: ('A' for Active; 'I' for Inactive)
    1  A    between atoms: C_3  and  C_5
    2  A    between atoms: C_5  and  C_25
    3  A    between atoms: C_7  and  C_31
    4  A    between atoms: C_8  and  N_19
    5  A    between atoms: C_11  and  N_18
    6  A    between atoms: N_18  and  C_29
    7  A    between atoms: C_21  and  C_25
    8  A    between atoms: C_29  and  C_31
                            x       y       z     vdW  Elec       q    Type
                         _______ _______ _______ _____ _____    ______ ____

>  <TORSDO>
F 8

$$$$
=
 OpenBabel11062419063D

 32 35  0  0  1  0  0  0  0  0999 V2000
  189.5460  172.0710  141.1740 C   0  0  0  0  0  3  0  0  0  0  0  0
  189.0240  173.3060  140.7680 C   0  0  0  0  0  3  0  0  0  0  0  0
  188.8150  174.2610  141.7580 C   0  0  0  0  0  0  0  0  0  0  0  0
  189.8170  171.8310  142.4930 N   0  0  0  0  0  0  0  0  0  0  0  0
  187.9670  176.1770  140.5930 O   0  0  0  0  0  0  0  0  0  0  0  0
  188.2540  175.5820  141.6630 C   0  0  0  0  0  0  0  0  0  0  0  0
  188.1600  176.1560  142.9660 N   0  0  0  0  0  0  0  0  0  0  0  0
  188.7920  175.2410  143.9290 C   0  0  1  0  0  3  0  0  0  0  0  0
  189.8830  172.4370  144.8820 C   0  0  0  0  0  1  0  0  0  0  0  0
  189.6080  172.7720  143.4600 C   0  0  0  0  0  0  0  0  0  0  0  0
  189.1100  174.0250  143.0820 C   0  0  0  0  0  0  0  0  0  0  0  0
  190.4480  175.1710  146.9370 O   0  0  0  0  0  0  0  0  0  0  0  0
  189.8220  177.0590  145.1500 O   0  0  0  0  0  0  0  0  0  0  0  0
  190.1980  175.7980  145.8760 C   0  0  0  0  0  0  0  0  0  0  0  0
  190.0660  175.8760  144.5060 C   0  0  1  0  0  0  0  0  0  0  0  0
  191.3600  175.8560  143.6740 C   0  0  0  0  0  2  0  0  0  0  0  0
  192.6350  175.5540  144.4630 C   0  0  2  0  0  3  0  0  0  0  0  0
  193.6360  176.5740  144.1690 N   0  0  0  0  0  2  0  0  0  0  0  0
  194.5930  175.9380  143.2890 C   0  0  0  0  0  2  0  0  0  0  0  0
  193.3560  173.5030  145.3370 C   0  0  0  0  0  1  0  0  0  0  0  0
  194.4680  174.4590  143.5290 C   0  0  0  0  0  2  0  0  0  0  0  0
  193.1530  174.2370  144.0990 N   0  0  0  0  0  0  0  0  0  0  0  0
  187.6700  177.4610  143.3130 C   0  0  0  0  0  3  0  0  0  0  0  0
  186.6350  177.6980  144.1240 C   0  0  0  0  0  0  0  0  0  0  0  0
  186.3430  179.0720  144.4200 N   0  0  0  0  0  2  0  0  0  0  0  0
  184.2410  179.6040  145.2950 F   0  0  0  0  0  0  0  0  0  0  0  0
  185.0720  179.7530  144.2000 C   0  0  0  0  0  3  0  0  0  0  0  0
  184.4590  179.2810  143.0560 F   0  0  0  0  0  0  0  0  0  0  0  0
  185.9600  176.5720  144.8600 C   0  0  0  0  0  2  0  0  0  0  0  0
  185.8110  176.8470  146.3490 C   0  0  0  0  0  3  0  0  0  0  0  0
  186.8010  176.1780  147.0430 F   0  0  0  0  0  0  0  0  0  0  0  0
  184.5710  176.4410  146.8080 F   0  0  0  0  0  0  0  0  0  0  0  0
  1  4  1  0  0  0  0
  2  1  2  0  0  0  0
  2  3  1  0  0  0  0
  3 11  2  0  0  0  0
  4 10  2  0  0  0  0
  5  6  2  0  0  0  0
  6  3  1  0  0  0  0
  6  7  1  0  0  0  0
  7 23  1  0  0  0  0
  7  8  1  0  0  0  0
  8 11  1  6  0  0  0
  8 15  1  0  0  0  0
 10  9  1  0  0  0  0
 11 10  1  0  0  0  0
 13 14  1  0  0  0  0
 14 12  2  0  0  0  0
 15 16  1  6  0  0  0
 15 13  1  0  0  0  0
 15 14  1  0  0  0  0
 17 16  1  6  0  0  0
 18 17  1  0  0  0  0
 19 21  1  0  0  0  0
 19 18  1  0  0  0  0
 21 22  1  0  0  0  0
 22 17  1  0  0  0  0
 22 20  1  0  0  0  0
 23 24  2  0  0  0  0
 24 25  1  0  0  0  0
 24 29  1  0  0  0  0
 27 25  1  0  0  0  0
 27 26  1  0  0  0  0
 28 27  1  0  0  0  0
 29 30  1  0  0  0  0
 30 32  1  0  0  0  0
 30 31  1  0  0  0  0
M  END
>  <MODEL>
5

>  <REMARK>
 VINA RESULT:      -6.4      1.471      2.152
  Name = 
  8 active torsions:
  status: ('A' for Active; 'I' for Inactive)
    1  A    between atoms: C_3  and  C_5
    2  A    between atoms: C_5  and  C_25
    3  A    between atoms: C_7  and  C_31
    4  A    between atoms: C_8  and  N_19
    5  A    between atoms: C_11  and  N_18
    6  A    between atoms: N_18  and  C_29
    7  A    between atoms: C_21  and  C_25
    8  A    between atoms: C_29  and  C_31
                            x       y       z     vdW  Elec       q    Type
                         _______ _______ _______ _____ _____    ______ ____

>  <TORSDO>
F 8

$$$$
=
 OpenBabel11062419063D

 32 35  0  0  1  0  0  0  0  0999 V2000
  193.1880  175.3120  146.3580 C   0  0  0  0  0  3  0  0  0  0  0  0
  191.9170  174.8910  146.7710 C   0  0  0  0  0  3  0  0  0  0  0  0
  190.8220  175.4920  146.1600 C   0  0  0  0  0  0  0  0  0  0  0  0
  193.3210  176.2830  145.4040 N   0  0  0  0  0  0  0  0  0  0  0  0
  188.9120  174.4360  147.1520 O   0  0  0  0  0  0  0  0  0  0  0  0
  189.4150  175.3110  146.4020 C   0  0  0  0  0  0  0  0  0  0  0  0
  188.6700  176.2140  145.5870 N   0  0  0  0  0  0  0  0  0  0  0  0
  189.6020  176.9190  144.6940 C   0  0  1  0  0  3  0  0  0  0  0  0
  192.4510  177.9490  143.8090 C   0  0  0  0  0  1  0  0  0  0  0  0
  192.2410  176.8700  144.8090 C   0  0  0  0  0  0  0  0  0  0  0  0
  190.9590  176.4530  145.1840 C   0  0  0  0  0  0  0  0  0  0  0  0
  188.5770  174.0710  143.0700 O   0  0  0  0  0  0  0  0  0  0  0  0
  190.4550  175.9300  142.6560 O   0  0  0  0  0  0  0  0  0  0  0  0
  189.2230  175.1490  143.0190 C   0  0  0  0  0  0  0  0  0  0  0  0
  189.3560  176.5040  143.2360 C   0  0  1  0  0  0  0  0  0  0  0  0
  188.5620  177.4440  142.3110 C   0  0  0  0  0  2  0  0  0  0  0  0
  187.1900  176.9230  141.8790 C   0  0  2  0  0  3  0  0  0  0  0  0
  187.2760  176.4110  140.5160 N   0  0  0  0  0  2  0  0  0  0  0  0
  186.6360  177.4080  139.6840 C   0  0  0  0  0  2  0  0  0  0  0  0
  185.0820  177.5010  142.7220 C   0  0  0  0  0  1  0  0  0  0  0  0
  185.7130  178.1790  140.5860 C   0  0  0  0  0  2  0  0  0  0  0  0
  186.2010  177.9980  141.9390 N   0  0  0  0  0  0  0  0  0  0  0  0
  187.2410  176.3490  145.5120 C   0  0  0  0  0  3  0  0  0  0  0  0
  186.4580  176.7450  146.5200 C   0  0  0  0  0  0  0  0  0  0  0  0
  185.0600  176.9000  146.2330 N   0  0  0  0  0  2  0  0  0  0  0  0
  185.0310  179.1530  145.6090 F   0  0  0  0  0  0  0  0  0  0  0  0
  184.3100  178.1510  146.2320 C   0  0  0  0  0  3  0  0  0  0  0  0
  183.9780  178.5190  147.5210 F   0  0  0  0  0  0  0  0  0  0  0  0
  187.0540  177.2150  147.8190 C   0  0  0  0  0  2  0  0  0  0  0  0
  187.6190  178.6260  147.7310 C   0  0  0  0  0  3  0  0  0  0  0  0
  188.9650  178.6040  148.0420 F   0  0  0  0  0  0  0  0  0  0  0  0
  186.9600  179.4800  148.5970 F   0  0  0  0  0  0  0  0  0  0  0  0
  1  2  1  0  0  0  0
  3  6  1  0  0  0  0
  3  2  2  0  0  0  0
  4  1  2  0  0  0  0
  6  5  2  0  0  0  0
  7  6  1  0  0  0  0
  8 11  1  1  0  0  0
  8  7  1  0  0  0  0
  9 10  1  0  0  0  0
 10 11  2  0  0  0  0
 10  4  1  0  0  0  0
 11  3  1  0  0  0  0
 13 14  1  0  0  0  0
 13 15  1  0  0  0  0
 14 12  2  0  0  0  0
 14 15  1  0  0  0  0
 15 16  1  6  0  0  0
 15  8  1  0  0  0  0
 17 22  1  0  0  0  0
 17 16  1  6  0  0  0
 18 17  1  0  0  0  0
 19 18  1  0  0  0  0
 19 21  1  0  0  0  0
 21 22  1  0  0  0  0
 22 20  1  0  0  0  0
 23  7  1  0  0  0  0
 23 24  2  0  0  0  0
 24 29  1  0  0  0  0
 25 24  1  0  0  0  0
 26 27  1  0  0  0  0
 27 25  1  0  0  0  0
 27 28  1  0  0  0  0
 30 29  1  0  0  0  0
 30 31  1  0  0  0  0
 30 32  1  0  0  0  0
M  END
>  <MODEL>
6

>  <REMARK>
 VINA RESULT:      -6.4      2.162      5.528
  Name = 
  8 active torsions:
  status: ('A' for Active; 'I' for Inactive)
    1  A    between atoms: C_3  and  C_5
    2  A    between atoms: C_5  and  C_25
    3  A    between atoms: C_7  and  C_31
    4  A    between atoms: C_8  and  N_19
    5  A    between atoms: C_11  and  N_18
    6  A    between atoms: N_18  and  C_29
    7  A    between atoms: C_21  and  C_25
    8  A    between atoms: C_29  and  C_31
                            x       y       z     vdW  Elec       q    Type
                         _______ _______ _______ _____ _____    ______ ____

>  <TORSDO>
F 8

$$$$
=
 OpenBabel11062419063D

 32 35  0  0  1  0  0  0  0  0999 V2000
  194.9200  176.7030  145.6200 C   0  0  0  0  0  3  0  0  0  0  0  0
  193.8910  176.6590  146.5690 C   0  0  0  0  0  3  0  0  0  0  0  0
  192.6100  176.3850  146.1020 C   0  0  0  0  0  0  0  0  0  0  0  0
  194.6510  176.4950  144.2940 N   0  0  0  0  0  0  0  0  0  0  0  0
  191.2310  176.3790  148.0630 O   0  0  0  0  0  0  0  0  0  0  0  0
  191.3610  176.3230  146.8130 C   0  0  0  0  0  0  0  0  0  0  0  0
  190.2960  176.0930  145.8910 N   0  0  0  0  0  0  0  0  0  0  0  0
  190.8720  175.8710  144.5560 C   0  0  1  0  0  3  0  0  0  0  0  0
  193.1560  176.0510  142.3850 C   0  0  0  0  0  1  0  0  0  0  0  0
  193.3910  176.2270  143.8430 C   0  0  0  0  0  0  0  0  0  0  0  0
  192.3460  176.1530  144.7710 C   0  0  0  0  0  0  0  0  0  0  0  0
  190.5660  174.2180  141.5610 O   0  0  0  0  0  0  0  0  0  0  0  0
  189.3090  174.1360  143.9200 O   0  0  0  0  0  0  0  0  0  0  0  0
  190.2900  174.2550  142.7870 C   0  0  0  0  0  0  0  0  0  0  0  0
  190.6340  174.4200  144.1110 C   0  0  1  0  0  0  0  0  0  0  0  0
  191.4420  173.2880  144.7730 C   0  0  0  0  0  2  0  0  0  0  0  0
  192.4160  172.5590  143.8470 C   0  0  2  0  0  3  0  0  0  0  0  0
  191.8590  171.2590  143.4900 N   0  0  0  0  0  2  0  0  0  0  0  0
  192.6050  170.2900  144.2630 C   0  0  0  0  0  2  0  0  0  0  0  0
  194.7240  172.8860  143.6120 C   0  0  0  0  0  1  0  0  0  0  0  0
  193.9130  170.9440  144.6100 C   0  0  0  0  0  2  0  0  0  0  0  0
  193.7040  172.3760  144.5130 N   0  0  0  0  0  0  0  0  0  0  0  0
  188.8980  175.9520  146.1880 C   0  0  0  0  0  3  0  0  0  0  0  0
  187.9350  176.7580  145.7310 C   0  0  0  0  0  0  0  0  0  0  0  0
  186.5840  176.4110  146.0670 N   0  0  0  0  0  2  0  0  0  0  0  0
  184.5600  177.5780  146.1780 F   0  0  0  0  0  0  0  0  0  0  0  0
  185.6720  177.1870  146.9010 C   0  0  0  0  0  3  0  0  0  0  0  0
  186.3180  178.2860  147.4330 F   0  0  0  0  0  0  0  0  0  0  0  0
  188.2460  177.8390  144.7310 C   0  0  0  0  0  2  0  0  0  0  0  0
  187.0690  178.1540  143.8190 C   0  0  0  0  0  3  0  0  0  0  0  0
  187.5370  178.5020  142.5660 F   0  0  0  0  0  0  0  0  0  0  0  0
  186.3070  179.1890  144.3310 F   0  0  0  0  0  0  0  0  0  0  0  0
  1  2  1  0  0  0  0
  3  2  2  0  0  0  0
  3  6  1  0  0  0  0
  4  1  2  0  0  0  0
  6  5  2  0  0  0  0
  7 23  1  0  0  0  0
  7  6  1  0  0  0  0
  8 11  1  1  0  0  0
  8  7  1  0  0  0  0
  9 10  1  0  0  0  0
 10  4  1  0  0  0  0
 10 11  2  0  0  0  0
 11  3  1  0  0  0  0
 12 14  2  0  0  0  0
 13 15  1  0  0  0  0
 14 13  1  0  0  0  0
 14 15  1  0  0  0  0
 15  8  1  0  0  0  0
 15 16  1  1  0  0  0
 17 22  1  0  0  0  0
 17 16  1  1  0  0  0
 18 17  1  0  0  0  0
 18 19  1  0  0  0  0
 19 21  1  0  0  0  0
 20 22  1  0  0  0  0
 22 21  1  0  0  0  0
 24 25  1  0  0  0  0
 24 23  2  0  0  0  0
 25 27  1  0  0  0  0
 26 27  1  0  0  0  0
 27 28  1  0  0  0  0
 29 24  1  0  0  0  0
 30 32  1  0  0  0  0
 30 29  1  0  0  0  0
 31 30  1  0  0  0  0
M  END
>  <MODEL>
7

>  <REMARK>
 VINA RESULT:      -6.3      2.140      4.376
  Name = 
  8 active torsions:
  status: ('A' for Active; 'I' for Inactive)
    1  A    between atoms: C_3  and  C_5
    2  A    between atoms: C_5  and  C_25
    3  A    between atoms: C_7  and  C_31
    4  A    between atoms: C_8  and  N_19
    5  A    between atoms: C_11  and  N_18
    6  A    between atoms: N_18  and  C_29
    7  A    between atoms: C_21  and  C_25
    8  A    between atoms: C_29  and  C_31
                            x       y       z     vdW  Elec       q    Type
                         _______ _______ _______ _____ _____    ______ ____

>  <TORSDO>
F 8

$$$$
=
 OpenBabel11062419063D

 32 35  0  0  1  0  0  0  0  0999 V2000
  194.8140  176.5220  145.8690 C   0  0  0  0  0  3  0  0  0  0  0  0
  193.6790  176.4240  146.6840 C   0  0  0  0  0  3  0  0  0  0  0  0
  192.4580  176.2270  146.0490 C   0  0  0  0  0  0  0  0  0  0  0  0
  194.7000  176.4380  144.5080 N   0  0  0  0  0  0  0  0  0  0  0  0
  190.8560  176.0890  147.8270 O   0  0  0  0  0  0  0  0  0  0  0  0
  191.1330  176.1380  146.6010 C   0  0  0  0  0  0  0  0  0  0  0  0
  190.1810  176.0190  145.5450 N   0  0  0  0  0  0  0  0  0  0  0  0
  190.9070  175.8990  144.2710 C   0  0  1  0  0  3  0  0  0  0  0  0
  193.4340  176.2050  142.4060 C   0  0  0  0  0  1  0  0  0  0  0  0
  193.4980  176.2460  143.8910 C   0  0  0  0  0  0  0  0  0  0  0  0
  192.3490  176.1200  144.6800 C   0  0  0  0  0  0  0  0  0  0  0  0
  189.6920  172.8850  145.3850 O   0  0  0  0  0  0  0  0  0  0  0  0
  191.7640  173.6680  143.8870 O   0  0  0  0  0  0  0  0  0  0  0  0
  190.4440  173.4970  144.5840 C   0  0  0  0  0  0  0  0  0  0  0  0
  190.6980  174.4990  143.6730 C   0  0  1  0  0  0  0  0  0  0  0  0
  190.0520  174.3650  142.2820 C   0  0  0  0  0  2  0  0  0  0  0  0
  190.6340  173.2600  141.3990 C   0  0  2  0  0  3  0  0  0  0  0  0
  190.8900  173.7930  140.0660 N   0  0  0  0  0  2  0  0  0  0  0  0
  189.8380  173.2610  139.2260 C   0  0  0  0  0  2  0  0  0  0  0  0
  190.4400  170.9390  141.6540 C   0  0  0  0  0  1  0  0  0  0  0  0
  189.3380  172.0200  139.9110 C   0  0  0  0  0  2  0  0  0  0  0  0
  189.6980  172.1410  141.3110 N   0  0  0  0  0  0  0  0  0  0  0  0
  188.7550  175.8920  145.6630 C   0  0  0  0  0  3  0  0  0  0  0  0
  187.8660  176.7600  145.1690 C   0  0  0  0  0  0  0  0  0  0  0  0
  186.4790  176.4220  145.3140 N   0  0  0  0  0  2  0  0  0  0  0  0
  184.5110  176.8230  146.5120 F   0  0  0  0  0  0  0  0  0  0  0  0
  185.3860  177.3500  145.5790 C   0  0  0  0  0  3  0  0  0  0  0  0
  184.7190  177.6620  144.4100 F   0  0  0  0  0  0  0  0  0  0  0  0
  188.3130  177.9140  144.3120 C   0  0  0  0  0  2  0  0  0  0  0  0
  187.9190  177.7480  142.8510 C   0  0  0  0  0  3  0  0  0  0  0  0
  189.0140  178.0060  142.0480 F   0  0  0  0  0  0  0  0  0  0  0  0
  186.8880  178.6060  142.5140 F   0  0  0  0  0  0  0  0  0  0  0  0
  1  2  1  0  0  0  0
  3  6  1  0  0  0  0
  3  2  2  0  0  0  0
  4  1  2  0  0  0  0
  6  5  2  0  0  0  0
  7 23  1  0  0  0  0
  7  6  1  0  0  0  0
  8 11  1  1  0  0  0
  8  7  1  0  0  0  0
  9 10  1  0  0  0  0
 10  4  1  0  0  0  0
 10 11  2  0  0  0  0
 11  3  1  0  0  0  0
 13 14  1  0  0  0  0
 14 12  2  0  0  0  0
 15 16  1  6  0  0  0
 15 13  1  0  0  0  0
 15  8  1  0  0  0  0
 15 14  1  0  0  0  0
 17 16  1  1  0  0  0
 18 17  1  0  0  0  0
 19 21  1  0  0  0  0
 19 18  1  0  0  0  0
 21 22  1  0  0  0  0
 22 17  1  0  0  0  0
 22 20  1  0  0  0  0
 24 25  1  0  0  0  0
 24 23  2  0  0  0  0
 25 27  1  0  0  0  0
 27 26  1  0  0  0  0
 28 27  1  0  0  0  0
 29 24  1  0  0  0  0
 30 29  1  0  0  0  0
 31 30  1  0  0  0  0
 32 30  1  0  0  0  0
M  END
>  <MODEL>
8

>  <REMARK>
 VINA RESULT:      -6.1      1.987      4.807
  Name = 
  8 active torsions:
  status: ('A' for Active; 'I' for Inactive)
    1  A    between atoms: C_3  and  C_5
    2  A    between atoms: C_5  and  C_25
    3  A    between atoms: C_7  and  C_31
    4  A    between atoms: C_8  and  N_19
    5  A    between atoms: C_11  and  N_18
    6  A    between atoms: N_18  and  C_29
    7  A    between atoms: C_21  and  C_25
    8  A    between atoms: C_29  and  C_31
                            x       y       z     vdW  Elec       q    Type
                         _______ _______ _______ _____ _____    ______ ____

>  <TORSDO>
F 8

$$$$
=
 OpenBabel11062419063D

 32 35  0  0  1  0  0  0  0  0999 V2000
  191.9000  171.1500  143.5450 C   0  0  0  0  0  3  0  0  0  0  0  0
  190.8480  171.8460  142.9330 C   0  0  0  0  0  3  0  0  0  0  0  0
  190.7000  173.1880  143.2640 C   0  0  0  0  0  0  0  0  0  0  0  0
  192.7240  171.7820  144.4360 N   0  0  0  0  0  0  0  0  0  0  0  0
  188.8300  173.9370  141.9630 O   0  0  0  0  0  0  0  0  0  0  0  0
  189.7020  174.1370  142.8470 C   0  0  0  0  0  0  0  0  0  0  0  0
  189.9110  175.3780  143.5210 N   0  0  0  0  0  0  0  0  0  0  0  0
  191.1520  175.2820  144.3050 C   0  0  1  0  0  3  0  0  0  0  0  0
  193.4730  173.7190  145.7640 C   0  0  0  0  0  1  0  0  0  0  0  0
  192.5710  173.1000  144.7570 C   0  0  0  0  0  0  0  0  0  0  0  0
  191.5440  173.8270  144.1440 C   0  0  0  0  0  0  0  0  0  0  0  0
  193.7370  177.1660  145.5560 O   0  0  0  0  0  0  0  0  0  0  0  0
  191.8250  177.5330  143.7230 O   0  0  0  0  0  0  0  0  0  0  0  0
  192.8870  177.0010  144.6450 C   0  0  0  0  0  0  0  0  0  0  0  0
  192.2190  176.2220  143.7240 C   0  0  1  0  0  0  0  0  0  0  0  0
  193.0030  175.7880  142.4720 C   0  0  0  0  0  2  0  0  0  0  0  0
  194.4950  176.1220  142.4920 C   0  0  2  0  0  3  0  0  0  0  0  0
  194.8770  176.6960  141.2070 N   0  0  0  0  0  2  0  0  0  0  0  0
  195.6010  175.6510  140.5140 C   0  0  0  0  0  2  0  0  0  0  0  0
  196.1730  175.2100  143.8500 C   0  0  0  0  0  1  0  0  0  0  0  0
  196.1140  174.7180  141.5750 C   0  0  0  0  0  2  0  0  0  0  0  0
  195.2780  174.9140  142.7440 N   0  0  0  0  0  0  0  0  0  0  0  0
  189.1490  176.5880  143.3810 C   0  0  0  0  0  3  0  0  0  0  0  0
  188.2340  177.0200  144.2540 C   0  0  0  0  0  0  0  0  0  0  0  0
  187.6330  178.2950  143.9880 N   0  0  0  0  0  2  0  0  0  0  0  0
  185.8270  179.5520  143.1960 F   0  0  0  0  0  0  0  0  0  0  0  0
  186.2270  178.6420  144.1570 C   0  0  0  0  0  3  0  0  0  0  0  0
  186.0000  179.1420  145.4250 F   0  0  0  0  0  0  0  0  0  0  0  0
  188.0190  176.3030  145.5600 C   0  0  0  0  0  2  0  0  0  0  0  0
  188.6850  177.0070  146.7350 C   0  0  0  0  0  3  0  0  0  0  0  0
  187.8010  177.9120  147.2910 F   0  0  0  0  0  0  0  0  0  0  0  0
  189.8310  177.6690  146.3320 F   0  0  0  0  0  0  0  0  0  0  0  0
  1  4  1  0  0  0  0
  2  3  1  0  0  0  0
  2  1  2  0  0  0  0
  3 11  2  0  0  0  0
  4 10  2  0  0  0  0
  5  6  2  0  0  0  0
  6  3  1  0  0  0  0
  6  7  1  0  0  0  0
  7  8  1  0  0  0  0
  8 11  1  6  0  0  0
 10  9  1  0  0  0  0
 11 10  1  0  0  0  0
 13 15  1  0  0  0  0
 13 14  1  0  0  0  0
 14 12  2  0  0  0  0
 15 16  1  6  0  0  0
 15  8  1  0  0  0  0
 15 14  1  0  0  0  0
 17 16  1  6  0  0  0
 17 22  1  0  0  0  0
 18 17  1  0  0  0  0
 19 18  1  0  0  0  0
 19 21  1  0  0  0  0
 21 22  1  0  0  0  0
 22 20  1  0  0  0  0
 23  7  1  0  0  0  0
 23 24  2  0  0  0  0
 24 29  1  0  0  0  0
 25 27  1  0  0  0  0
 25 24  1  0  0  0  0
 26 27  1  0  0  0  0
 27 28  1  0  0  0  0
 29 30  1  0  0  0  0
 30 31  1  0  0  0  0
 32 30  1  0  0  0  0
M  END
>  <MODEL>
9

>  <REMARK>
 VINA RESULT:      -6.1      2.566      3.815
  Name = 
  8 active torsions:
  status: ('A' for Active; 'I' for Inactive)
    1  A    between atoms: C_3  and  C_5
    2  A    between atoms: C_5  and  C_25
    3  A    between atoms: C_7  and  C_31
    4  A    between atoms: C_8  and  N_19
    5  A    between atoms: C_11  and  N_18
    6  A    between atoms: N_18  and  C_29
    7  A    between atoms: C_21  and  C_25
    8  A    between atoms: C_29  and  C_31
                            x       y       z     vdW  Elec       q    Type
                         _______ _______ _______ _____ _____    ______ ____

>  <TORSDO>
F 8

$$$$
