=
 OpenBabel11062419423D

 30 32  0  0  1  0  0  0  0  0999 V2000
  189.0680  177.1090  144.3100 C   0  0  0  0  0  0  0  0  0  0  0  0
  189.8180  175.2420  145.8190 C   0  0  2  0  0  3  0  0  0  0  0  0
  190.6090  177.8060  142.6160 O   0  0  0  0  0  1  0  0  0  0  0  0
  191.4470  176.2780  144.2390 C   0  0  0  0  0  2  0  0  0  0  0  0
  190.5000  177.4390  143.9570 C   0  0  2  0  0  3  0  0  0  0  0  0
  188.7870  176.1700  145.2290 C   0  0  0  0  0  3  0  0  0  0  0  0
  189.4540  175.0040  147.2730 C   0  0  0  0  0  1  0  0  0  0  0  0
  191.2580  175.7740  145.6690 C   0  0  2  0  0  3  0  0  0  0  0  0
  192.6230  173.9940  144.7860 O   0  0  0  0  0  1  0  0  0  0  0  0
  192.2960  174.6810  145.9590 C   0  0  1  0  0  3  0  0  0  0  0  0
  193.5090  175.2590  146.5170 N   0  0  0  0  0  2  0  0  0  0  0  0
  194.5510  175.1130  145.5140 C   0  0  0  0  0  2  0  0  0  0  0  0
  194.6650  177.4810  145.7310 O   0  0  0  0  0  1  0  0  0  0  0  0
  195.0400  176.4550  145.1040 C   0  0  0  0  0  0  0  0  0  0  0  0
  195.9340  176.5770  144.0470 O   0  0  0  0  0  0  0  0  0  0  0  0
  187.9700  178.0300  143.8460 C   0  0  0  0  0  2  0  0  0  0  0  0
  186.9280  176.2190  142.5580 O   0  0  0  0  0  0  0  0  0  0  0  0
  184.9620  179.1380  143.4600 C   0  0  0  0  0  3  0  0  0  0  0  0
  184.8580  178.9710  144.9210 C   0  0  0  0  0  3  0  0  0  0  0  0
  186.6620  177.3150  143.4230 C   0  0  1  0  0  0  0  0  0  0  0  0
  185.3590  177.8840  145.5200 C   0  0  0  0  0  0  0  0  0  0  0  0
  187.9490  175.6000  140.6000 O   0  0  0  0  0  1  0  0  0  0  0  0
  187.4570  176.6810  141.3290 C   0  0  1  0  0  3  0  0  0  0  0  0
  185.9480  176.7760  144.6790 C   0  0  0  0  0  2  0  0  0  0  0  0
  186.3760  177.3900  140.5210 C   0  0  0  0  0  2  0  0  0  0  0  0
  185.7450  178.3260  142.7430 C   0  0  0  0  0  0  0  0  0  0  0  0
  185.7840  178.4510  141.3220 N   0  0  0  0  0  2  0  0  0  0  0  0
  185.2550  177.7280  146.9780 C   0  0  0  0  0  0  0  0  0  0  0  0
  184.4420  178.4310  147.6360 O   0  0  0  0  0  0  0  0  0  0  0  0
  186.0460  176.8000  147.6460 O   0  0  0  0  0  1  0  0  0  0  0  0
  1  6  2  0  0  0  0
  2  7  1  1  0  0  0
  4  8  1  0  0  0  0
  5  3  1  6  0  0  0
  5  4  1  0  0  0  0
  5  1  1  0  0  0  0
  6  2  1  0  0  0  0
  8  2  1  0  0  0  0
  8 10  1  6  0  0  0
 10  9  1  6  0  0  0
 10 11  1  0  0  0  0
 12 11  1  0  0  0  0
 14 12  1  0  0  0  0
 14 13  1  0  0  0  0
 15 14  2  0  0  0  0
 16  1  1  0  0  0  0
 17 20  1  0  0  0  0
 18 19  1  0  0  0  0
 19 21  2  0  0  0  0
 20 16  1  1  0  0  0
 20 24  1  0  0  0  0
 21 28  1  0  0  0  0
 23 22  1  6  0  0  0
 23 17  1  0  0  0  0
 24 21  1  0  0  0  0
 25 27  1  0  0  0  0
 25 23  1  0  0  0  0
 26 20  1  0  0  0  0
 26 18  2  0  0  0  0
 27 26  1  0  0  0  0
 28 29  2  0  0  0  0
 28 30  1  0  0  0  0
M  END
>  <MODEL>
1

>  <REMARK>
 VINA RESULT:      -7.7      0.000      0.000
  Name = 
  7 active torsions:
  status: ('A' for Active; 'I' for Inactive)
    1  A    between atoms: N_1  and  C_11
    2  A    between atoms: N_1  and  C_19
    3  A    between atoms: C_2  and  C_15
    4  A    between atoms: C_6  and  C_9
    5  A    between atoms: C_9  and  C_13
    6  A    between atoms: C_11  and  C_14
    7  A    between atoms: C_19  and  C_30
                            x       y       z     vdW  Elec       q    Type
                         _______ _______ _______ _____ _____    ______ ____

>  <TORSDO>
F 7

$$$$
=
 OpenBabel11062419423D

 30 32  0  0  1  0  0  0  0  0999 V2000
  188.7330  177.5370  143.9440 C   0  0  0  0  0  0  0  0  0  0  0  0
  186.4570  177.7290  144.9970 C   0  0  2  0  0  3  0  0  0  0  0  0
  188.9700  178.4170  141.7310 O   0  0  0  0  0  1  0  0  0  0  0  0
  186.7510  178.3030  142.5880 C   0  0  0  0  0  2  0  0  0  0  0  0
  188.1370  177.6680  142.5620 C   0  0  2  0  0  3  0  0  0  0  0  0
  187.9420  177.4720  145.0290 C   0  0  0  0  0  3  0  0  0  0  0  0
  185.8010  176.7930  145.9960 C   0  0  0  0  0  1  0  0  0  0  0  0
  185.8520  177.5740  143.5870 C   0  0  2  0  0  3  0  0  0  0  0  0
  184.4220  179.4670  144.0140 O   0  0  0  0  0  1  0  0  0  0  0  0
  184.4360  178.1630  143.5120 C   0  0  1  0  0  3  0  0  0  0  0  0
  183.9610  178.1850  142.1380 N   0  0  0  0  0  2  0  0  0  0  0  0
  182.5460  178.5140  142.1810 C   0  0  0  0  0  2  0  0  0  0  0  0
  182.5260  177.6740  139.9540 O   0  0  0  0  0  0  0  0  0  0  0  0
  181.9640  178.3970  140.8180 C   0  0  0  0  0  0  0  0  0  0  0  0
  180.7860  179.0630  140.5050 O   0  0  0  0  0  1  0  0  0  0  0  0
  190.1920  177.1880  144.0820 C   0  0  0  0  0  2  0  0  0  0  0  0
  190.3040  175.7430  146.0620 O   0  0  0  0  0  0  0  0  0  0  0  0
  192.1400  174.8240  143.0650 C   0  0  0  0  0  3  0  0  0  0  0  0
  191.0370  174.4950  142.1450 C   0  0  0  0  0  3  0  0  0  0  0  0
  190.4680  175.7740  144.6500 C   0  0  1  0  0  0  0  0  0  0  0  0
  189.7680  174.5100  142.5690 C   0  0  0  0  0  0  0  0  0  0  0  0
  190.9670  176.7110  148.0330 O   0  0  0  0  0  1  0  0  0  0  0  0
  191.2910  176.5420  146.6880 C   0  0  1  0  0  3  0  0  0  0  0  0
  189.4740  174.7730  144.0280 C   0  0  0  0  0  2  0  0  0  0  0  0
  192.6590  175.8810  146.5730 C   0  0  0  0  0  2  0  0  0  0  0  0
  191.8820  175.3550  144.2640 C   0  0  0  0  0  0  0  0  0  0  0  0
  192.9520  175.6040  145.1750 N   0  0  0  0  0  2  0  0  0  0  0  0
  188.6720  174.1860  141.6440 C   0  0  0  0  0  0  0  0  0  0  0  0
  188.4370  174.9300  140.6540 O   0  0  0  0  0  0  0  0  0  0  0  0
  187.8910  173.0540  141.8450 O   0  0  0  0  0  1  0  0  0  0  0  0
  1 16  1  0  0  0  0
  1  6  2  0  0  0  0
  2  6  1  0  0  0  0
  2  7  1  1  0  0  0
  4  8  1  0  0  0  0
  5  3  1  6  0  0  0
  5  4  1  0  0  0  0
  5  1  1  0  0  0  0
  8 10  1  1  0  0  0
  8  2  1  0  0  0  0
 10  9  1  6  0  0  0
 11 12  1  0  0  0  0
 11 10  1  0  0  0  0
 13 14  2  0  0  0  0
 14 12  1  0  0  0  0
 15 14  1  0  0  0  0
 17 23  1  0  0  0  0
 18 26  2  0  0  0  0
 19 21  2  0  0  0  0
 19 18  1  0  0  0  0
 20 16  1  6  0  0  0
 20 17  1  0  0  0  0
 21 24  1  0  0  0  0
 23 22  1  1  0  0  0
 24 20  1  0  0  0  0
 25 23  1  0  0  0  0
 26 20  1  0  0  0  0
 26 27  1  0  0  0  0
 27 25  1  0  0  0  0
 28 30  1  0  0  0  0
 28 21  1  0  0  0  0
 29 28  2  0  0  0  0
M  END
>  <MODEL>
2

>  <REMARK>
 VINA RESULT:      -7.3      2.665      8.028
  Name = 
  7 active torsions:
  status: ('A' for Active; 'I' for Inactive)
    1  A    between atoms: N_1  and  C_11
    2  A    between atoms: N_1  and  C_19
    3  A    between atoms: C_2  and  C_15
    4  A    between atoms: C_6  and  C_9
    5  A    between atoms: C_9  and  C_13
    6  A    between atoms: C_11  and  C_14
    7  A    between atoms: C_19  and  C_30
                            x       y       z     vdW  Elec       q    Type
                         _______ _______ _______ _____ _____    ______ ____

>  <TORSDO>
F 7

$$$$
=
 OpenBabel11062419423D

 30 32  0  0  1  0  0  0  0  0999 V2000
  187.6390  175.9770  144.8600 C   0  0  0  0  0  0  0  0  0  0  0  0
  189.7430  175.6080  146.1880 C   0  0  2  0  0  3  0  0  0  0  0  0
  187.5630  175.0000  142.6760 O   0  0  0  0  0  1  0  0  0  0  0  0
  189.6670  174.9290  143.7890 C   0  0  0  0  0  2  0  0  0  0  0  0
  188.3730  175.7040  143.5670 C   0  0  2  0  0  3  0  0  0  0  0  0
  188.3020  176.0200  146.0280 C   0  0  0  0  0  3  0  0  0  0  0  0
  190.3800  176.5260  147.2150 C   0  0  0  0  0  1  0  0  0  0  0  0
  190.5200  175.6160  144.8560 C   0  0  2  0  0  3  0  0  0  0  0  0
  191.7090  173.5300  144.6460 O   0  0  0  0  0  1  0  0  0  0  0  0
  191.8610  174.8790  144.9790 C   0  0  1  0  0  3  0  0  0  0  0  0
  192.8550  175.4700  144.0970 N   0  0  0  0  0  2  0  0  0  0  0  0
  193.1020  176.8190  144.5780 C   0  0  0  0  0  2  0  0  0  0  0  0
  195.4540  176.5710  144.8490 O   0  0  0  0  0  0  0  0  0  0  0  0
  194.3480  176.8390  145.3880 C   0  0  0  0  0  0  0  0  0  0  0  0
  194.2980  177.1810  146.7340 O   0  0  0  0  0  1  0  0  0  0  0  0
  186.2220  176.4840  144.8040 C   0  0  0  0  0  2  0  0  0  0  0  0
  186.6750  178.6380  145.8900 O   0  0  0  0  0  0  0  0  0  0  0  0
  183.9840  178.3850  143.4630 C   0  0  0  0  0  3  0  0  0  0  0  0
  184.7420  178.1710  142.2180 C   0  0  0  0  0  3  0  0  0  0  0  0
  186.0890  178.0270  144.7490 C   0  0  1  0  0  0  0  0  0  0  0  0
  186.0810  178.2010  142.2210 C   0  0  0  0  0  0  0  0  0  0  0  0
  186.6760  178.6780  148.1840 O   0  0  0  0  0  1  0  0  0  0  0  0
  185.9520  178.2920  147.0570 C   0  0  1  0  0  3  0  0  0  0  0  0
  186.8140  178.5540  143.4940 C   0  0  0  0  0  2  0  0  0  0  0  0
  184.5950  178.9840  147.0630 C   0  0  0  0  0  2  0  0  0  0  0  0
  184.6120  178.3910  144.6420 C   0  0  0  0  0  0  0  0  0  0  0  0
  183.8800  178.6690  145.8350 N   0  0  0  0  0  2  0  0  0  0  0  0
  186.8300  177.9810  140.9750 C   0  0  0  0  0  0  0  0  0  0  0  0
  188.0890  178.0360  140.9750 O   0  0  0  0  0  1  0  0  0  0  0  0
  186.1610  177.7050  139.7890 O   0  0  0  0  0  0  0  0  0  0  0  0
  1  6  2  0  0  0  0
  2  7  1  1  0  0  0
  4  8  1  0  0  0  0
  5  3  1  6  0  0  0
  5  4  1  0  0  0  0
  5  1  1  0  0  0  0
  6  2  1  0  0  0  0
  8 10  1  1  0  0  0
  8  2  1  0  0  0  0
 10  9  1  6  0  0  0
 11 12  1  0  0  0  0
 11 10  1  0  0  0  0
 12 14  1  0  0  0  0
 13 14  2  0  0  0  0
 14 15  1  0  0  0  0
 16  1  1  0  0  0  0
 17 23  1  0  0  0  0
 18 26  2  0  0  0  0
 19 21  2  0  0  0  0
 19 18  1  0  0  0  0
 20 16  1  1  0  0  0
 20 17  1  0  0  0  0
 21 24  1  0  0  0  0
 23 25  1  0  0  0  0
 23 22  1  1  0  0  0
 24 20  1  0  0  0  0
 26 20  1  0  0  0  0
 26 27  1  0  0  0  0
 27 25  1  0  0  0  0
 28 21  1  0  0  0  0
 29 28  1  0  0  0  0
 30 28  2  0  0  0  0
M  END
>  <MODEL>
3

>  <REMARK>
 VINA RESULT:      -7.3      1.736      3.924
  Name = 
  7 active torsions:
  status: ('A' for Active; 'I' for Inactive)
    1  A    between atoms: N_1  and  C_11
    2  A    between atoms: N_1  and  C_19
    3  A    between atoms: C_2  and  C_15
    4  A    between atoms: C_6  and  C_9
    5  A    between atoms: C_9  and  C_13
    6  A    between atoms: C_11  and  C_14
    7  A    between atoms: C_19  and  C_30
                            x       y       z     vdW  Elec       q    Type
                         _______ _______ _______ _____ _____    ______ ____

>  <TORSDO>
F 7

$$$$
=
 OpenBabel11062419423D

 30 32  0  0  1  0  0  0  0  0999 V2000
  189.5450  177.0380  144.0770 C   0  0  0  0  0  0  0  0  0  0  0  0
  191.2710  175.3620  143.3450 C   0  0  2  0  0  3  0  0  0  0  0  0
  189.4980  177.5840  146.4070 O   0  0  0  0  0  1  0  0  0  0  0  0
  190.9010  175.7660  145.7790 C   0  0  0  0  0  2  0  0  0  0  0  0
  189.6130  176.5320  145.4990 C   0  0  2  0  0  3  0  0  0  0  0  0
  190.2360  176.4290  143.0990 C   0  0  0  0  0  3  0  0  0  0  0  0
  191.1850  174.3580  142.2100 C   0  0  0  0  0  1  0  0  0  0  0  0
  191.1150  174.6830  144.7210 C   0  0  2  0  0  3  0  0  0  0  0  0
  192.2220  172.5430  144.6380 O   0  0  0  0  0  1  0  0  0  0  0  0
  192.3570  173.8590  145.0890 C   0  0  1  0  0  3  0  0  0  0  0  0
  193.5520  174.4370  144.4930 N   0  0  0  0  0  2  0  0  0  0  0  0
  194.4500  174.7750  145.5850 C   0  0  0  0  0  2  0  0  0  0  0  0
  195.2910  176.7910  144.6370 O   0  0  0  0  0  0  0  0  0  0  0  0
  194.6890  176.2420  145.5980 C   0  0  0  0  0  0  0  0  0  0  0  0
  194.2250  177.0130  146.6560 O   0  0  0  0  0  1  0  0  0  0  0  0
  188.4810  178.0390  143.7080 C   0  0  0  0  0  2  0  0  0  0  0  0
  187.1290  176.3220  142.5900 O   0  0  0  0  0  0  0  0  0  0  0  0
  185.5470  179.3850  143.7360 C   0  0  0  0  0  3  0  0  0  0  0  0
  185.6350  179.2210  145.1980 C   0  0  0  0  0  3  0  0  0  0  0  0
  187.0740  177.4330  143.4760 C   0  0  1  0  0  0  0  0  0  0  0  0
  186.1260  178.0950  145.7300 C   0  0  0  0  0  0  0  0  0  0  0  0
  187.8160  175.6310  140.5130 O   0  0  0  0  0  1  0  0  0  0  0  0
  187.5170  176.7450  141.2960 C   0  0  1  0  0  3  0  0  0  0  0  0
  186.5030  176.9470  144.8220 C   0  0  0  0  0  2  0  0  0  0  0  0
  186.3940  177.5410  140.6410 C   0  0  0  0  0  2  0  0  0  0  0  0
  186.1550  178.5160  142.9230 C   0  0  0  0  0  0  0  0  0  0  0  0
  186.0060  178.6430  141.5090 N   0  0  0  0  0  2  0  0  0  0  0  0
  186.2150  177.9410  147.1890 C   0  0  0  0  0  0  0  0  0  0  0  0
  186.2560  176.7920  147.7040 O   0  0  0  0  0  0  0  0  0  0  0  0
  186.2600  179.0580  148.0140 O   0  0  0  0  0  1  0  0  0  0  0  0
  1  5  1  0  0  0  0
  2  7  1  6  0  0  0
  2  8  1  0  0  0  0
  5  4  1  0  0  0  0
  5  3  1  1  0  0  0
  6  2  1  0  0  0  0
  6  1  2  0  0  0  0
  8 10  1  1  0  0  0
  8  4  1  0  0  0  0
 10  9  1  6  0  0  0
 11 10  1  0  0  0  0
 11 12  1  0  0  0  0
 12 14  1  0  0  0  0
 13 14  2  0  0  0  0
 14 15  1  0  0  0  0
 16  1  1  0  0  0  0
 17 20  1  0  0  0  0
 18 19  1  0  0  0  0
 19 21  2  0  0  0  0
 20 16  1  1  0  0  0
 20 24  1  0  0  0  0
 21 28  1  0  0  0  0
 23 22  1  6  0  0  0
 23 17  1  0  0  0  0
 24 21  1  0  0  0  0
 25 23  1  0  0  0  0
 25 27  1  0  0  0  0
 26 20  1  0  0  0  0
 26 18  2  0  0  0  0
 27 26  1  0  0  0  0
 28 29  2  0  0  0  0
 28 30  1  0  0  0  0
M  END
>  <MODEL>
4

>  <REMARK>
 VINA RESULT:      -7.0      1.266      1.875
  Name = 
  7 active torsions:
  status: ('A' for Active; 'I' for Inactive)
    1  A    between atoms: N_1  and  C_11
    2  A    between atoms: N_1  and  C_19
    3  A    between atoms: C_2  and  C_15
    4  A    between atoms: C_6  and  C_9
    5  A    between atoms: C_9  and  C_13
    6  A    between atoms: C_11  and  C_14
    7  A    between atoms: C_19  and  C_30
                            x       y       z     vdW  Elec       q    Type
                         _______ _______ _______ _____ _____    ______ ____

>  <TORSDO>
F 7

$$$$
=
 OpenBabel11062419423D

 30 32  0  0  1  0  0  0  0  0999 V2000
  190.5130  177.0310  144.2290 C   0  0  0  0  0  0  0  0  0  0  0  0
  189.0860  176.6060  146.2560 C   0  0  2  0  0  3  0  0  0  0  0  0
  189.4820  178.2090  142.4190 O   0  0  0  0  0  1  0  0  0  0  0  0
  188.0410  177.5240  144.1860 C   0  0  0  0  0  2  0  0  0  0  0  0
  189.2850  177.2040  143.3650 C   0  0  2  0  0  3  0  0  0  0  0  0
  190.3980  176.6670  145.5170 C   0  0  0  0  0  3  0  0  0  0  0  0
  189.1480  175.4370  147.2210 C   0  0  0  0  0  1  0  0  0  0  0  0
  187.8710  176.5040  145.3120 C   0  0  2  0  0  3  0  0  0  0  0  0
  186.6790  177.9250  146.8520 O   0  0  0  0  0  1  0  0  0  0  0  0
  186.5560  176.7860  146.0510 C   0  0  1  0  0  3  0  0  0  0  0  0
  185.4690  176.9930  145.1060 N   0  0  0  0  0  2  0  0  0  0  0  0
  184.7440  178.1740  145.5440 C   0  0  0  0  0  2  0  0  0  0  0  0
  183.5510  178.9410  143.6320 O   0  0  0  0  0  0  0  0  0  0  0  0
  184.5440  179.0910  144.3910 C   0  0  0  0  0  0  0  0  0  0  0  0
  185.4360  180.1320  144.1670 O   0  0  0  0  0  1  0  0  0  0  0  0
  191.8680  176.9840  143.5740 C   0  0  0  0  0  2  0  0  0  0  0  0
  193.1540  175.5980  145.1390 O   0  0  0  0  0  0  0  0  0  0  0  0
  193.5910  175.1390  141.5610 C   0  0  0  0  0  3  0  0  0  0  0  0
  192.2860  174.5660  141.1860 C   0  0  0  0  0  3  0  0  0  0  0  0
  192.6550  175.6700  143.8090 C   0  0  1  0  0  0  0  0  0  0  0  0
  191.3700  174.2850  142.1210 C   0  0  0  0  0  0  0  0  0  0  0  0
  194.4170  176.6870  146.7130 O   0  0  0  0  0  1  0  0  0  0  0  0
  194.1280  176.6020  145.3520 C   0  0  1  0  0  3  0  0  0  0  0  0
  191.7180  174.4680  143.5810 C   0  0  0  0  0  2  0  0  0  0  0  0
  195.4020  176.2770  144.5810 C   0  0  0  0  0  2  0  0  0  0  0  0
  193.7970  175.5920  142.8010 C   0  0  0  0  0  0  0  0  0  0  0  0
  195.0850  176.0800  143.1740 N   0  0  0  0  0  2  0  0  0  0  0  0
  190.0690  173.7180  141.7380 C   0  0  0  0  0  0  0  0  0  0  0  0
  189.2570  174.3990  141.0560 O   0  0  0  0  0  0  0  0  0  0  0  0
  189.7240  172.4260  142.1170 O   0  0  0  0  0  1  0  0  0  0  0  0
  1  6  2  0  0  0  0
  2  7  1  1  0  0  0
  4  8  1  0  0  0  0
  5  3  1  6  0  0  0
  5  4  1  0  0  0  0
  5  1  1  0  0  0  0
  6  2  1  0  0  0  0
  8 10  1  1  0  0  0
  8  2  1  0  0  0  0
 10  9  1  6  0  0  0
 11 12  1  0  0  0  0
 11 10  1  0  0  0  0
 13 14  2  0  0  0  0
 14 12  1  0  0  0  0
 15 14  1  0  0  0  0
 16  1  1  0  0  0  0
 17 23  1  0  0  0  0
 18 26  2  0  0  0  0
 19 18  1  0  0  0  0
 19 21  2  0  0  0  0
 20 16  1  6  0  0  0
 20 17  1  0  0  0  0
 21 24  1  0  0  0  0
 23 22  1  1  0  0  0
 24 20  1  0  0  0  0
 25 23  1  0  0  0  0
 26 27  1  0  0  0  0
 26 20  1  0  0  0  0
 27 25  1  0  0  0  0
 28 30  1  0  0  0  0
 28 21  1  0  0  0  0
 29 28  2  0  0  0  0
M  END
>  <MODEL>
5

>  <REMARK>
 VINA RESULT:      -7.0      2.345      7.482
  Name = 
  7 active torsions:
  status: ('A' for Active; 'I' for Inactive)
    1  A    between atoms: N_1  and  C_11
    2  A    between atoms: N_1  and  C_19
    3  A    between atoms: C_2  and  C_15
    4  A    between atoms: C_6  and  C_9
    5  A    between atoms: C_9  and  C_13
    6  A    between atoms: C_11  and  C_14
    7  A    between atoms: C_19  and  C_30
                            x       y       z     vdW  Elec       q    Type
                         _______ _______ _______ _____ _____    ______ ____

>  <TORSDO>
F 7

$$$$
=
 OpenBabel11062419423D

 30 32  0  0  1  0  0  0  0  0999 V2000
  189.5820  177.1100  143.9830 C   0  0  0  0  0  0  0  0  0  0  0  0
  191.3300  175.5030  143.1540 C   0  0  2  0  0  3  0  0  0  0  0  0
  189.5940  177.5960  146.3260 O   0  0  0  0  0  1  0  0  0  0  0  0
  191.0260  175.8350  145.6080 C   0  0  0  0  0  2  0  0  0  0  0  0
  189.7090  176.5700  145.3880 C   0  0  2  0  0  3  0  0  0  0  0  0
  190.2590  176.5460  142.9680 C   0  0  0  0  0  3  0  0  0  0  0  0
  191.2370  174.5260  141.9970 C   0  0  0  0  0  1  0  0  0  0  0  0
  191.2360  174.7850  144.5160 C   0  0  2  0  0  3  0  0  0  0  0  0
  192.9870  174.2990  146.1010 O   0  0  0  0  0  1  0  0  0  0  0  0
  192.5120  173.9880  144.8240 C   0  0  1  0  0  3  0  0  0  0  0  0
  192.2540  172.5590  144.7560 N   0  0  0  0  0  2  0  0  0  0  0  0
  193.3750  171.9570  144.0530 C   0  0  0  0  0  2  0  0  0  0  0  0
  194.9860  171.5590  145.7600 O   0  0  0  0  0  1  0  0  0  0  0  0
  194.1260  171.0710  144.9810 C   0  0  0  0  0  0  0  0  0  0  0  0
  193.8620  169.7070  145.0080 O   0  0  0  0  0  0  0  0  0  0  0  0
  188.4800  178.0890  143.6720 C   0  0  0  0  0  2  0  0  0  0  0  0
  187.1510  176.3390  142.5770 O   0  0  0  0  0  0  0  0  0  0  0  0
  185.5140  179.3630  143.7530 C   0  0  0  0  0  3  0  0  0  0  0  0
  185.6320  179.2010  145.2130 C   0  0  0  0  0  3  0  0  0  0  0  0
  187.0850  177.4490  143.4640 C   0  0  1  0  0  0  0  0  0  0  0  0
  186.1600  178.0870  145.7350 C   0  0  0  0  0  0  0  0  0  0  0  0
  187.8170  175.6660  140.4880 O   0  0  0  0  0  1  0  0  0  0  0  0
  187.5050  176.7720  141.2770 C   0  0  1  0  0  3  0  0  0  0  0  0
  186.5490  176.9490  144.8210 C   0  0  0  0  0  2  0  0  0  0  0  0
  186.3520  177.5410  140.6420 C   0  0  0  0  0  2  0  0  0  0  0  0
  186.1290  178.5090  142.9280 C   0  0  0  0  0  0  0  0  0  0  0  0
  185.9520  178.6330  141.5180 N   0  0  0  0  0  2  0  0  0  0  0  0
  186.2780  177.9360  147.1930 C   0  0  0  0  0  0  0  0  0  0  0  0
  186.2870  176.7880  147.7120 O   0  0  0  0  0  0  0  0  0  0  0  0
  186.3880  179.0530  148.0110 O   0  0  0  0  0  1  0  0  0  0  0  0
  1  5  1  0  0  0  0
  2  7  1  6  0  0  0
  2  8  1  0  0  0  0
  5  4  1  0  0  0  0
  5  3  1  1  0  0  0
  6  2  1  0  0  0  0
  6  1  2  0  0  0  0
  8 10  1  1  0  0  0
  8  4  1  0  0  0  0
 10  9  1  1  0  0  0
 11 10  1  0  0  0  0
 12 11  1  0  0  0  0
 12 14  1  0  0  0  0
 14 15  2  0  0  0  0
 14 13  1  0  0  0  0
 16  1  1  0  0  0  0
 17 20  1  0  0  0  0
 18 19  1  0  0  0  0
 19 21  2  0  0  0  0
 20 16  1  1  0  0  0
 20 24  1  0  0  0  0
 21 28  1  0  0  0  0
 23 22  1  6  0  0  0
 23 17  1  0  0  0  0
 24 21  1  0  0  0  0
 25 23  1  0  0  0  0
 25 27  1  0  0  0  0
 26 20  1  0  0  0  0
 26 18  2  0  0  0  0
 27 26  1  0  0  0  0
 28 29  2  0  0  0  0
 28 30  1  0  0  0  0
M  END
>  <MODEL>
6

>  <REMARK>
 VINA RESULT:      -6.7      1.969      2.792
  Name = 
  7 active torsions:
  status: ('A' for Active; 'I' for Inactive)
    1  A    between atoms: N_1  and  C_11
    2  A    between atoms: N_1  and  C_19
    3  A    between atoms: C_2  and  C_15
    4  A    between atoms: C_6  and  C_9
    5  A    between atoms: C_9  and  C_13
    6  A    between atoms: C_11  and  C_14
    7  A    between atoms: C_19  and  C_30
                            x       y       z     vdW  Elec       q    Type
                         _______ _______ _______ _____ _____    ______ ____

>  <TORSDO>
F 7

$$$$
=
 OpenBabel11062419423D

 30 32  0  0  1  0  0  0  0  0999 V2000
  189.9110  177.1680  142.7480 C   0  0  0  0  0  0  0  0  0  0  0  0
  191.1250  174.9660  142.6780 C   0  0  2  0  0  3  0  0  0  0  0  0
  191.1590  179.0590  143.5170 O   0  0  0  0  0  1  0  0  0  0  0  0
  192.2050  176.9340  143.7660 C   0  0  0  0  0  2  0  0  0  0  0  0
  190.8940  177.7110  143.7580 C   0  0  2  0  0  3  0  0  0  0  0  0
  189.9800  175.8880  142.3430 C   0  0  0  0  0  3  0  0  0  0  0  0
  190.5580  173.5720  142.8800 C   0  0  0  0  0  1  0  0  0  0  0  0
  191.9330  175.4360  143.9050 C   0  0  2  0  0  3  0  0  0  0  0  0
  194.3080  175.4650  143.4940 O   0  0  0  0  0  1  0  0  0  0  0  0
  193.2700  174.6910  144.0190 C   0  0  1  0  0  3  0  0  0  0  0  0
  193.5710  174.3860  145.4090 N   0  0  0  0  0  2  0  0  0  0  0  0
  194.6080  175.3120  145.8340 C   0  0  0  0  0  2  0  0  0  0  0  0
  194.5670  177.5410  146.6690 O   0  0  0  0  0  0  0  0  0  0  0  0
  193.9970  176.4190  146.6150 C   0  0  0  0  0  0  0  0  0  0  0  0
  192.7830  176.2270  147.2640 O   0  0  0  0  0  1  0  0  0  0  0  0
  188.6830  177.9730  142.4150 C   0  0  0  0  0  2  0  0  0  0  0  0
  187.0190  176.5220  141.3420 O   0  0  0  0  0  0  0  0  0  0  0  0
  186.0540  178.5490  144.1990 C   0  0  0  0  0  3  0  0  0  0  0  0
  186.8110  177.8940  145.2810 C   0  0  0  0  0  3  0  0  0  0  0  0
  187.3460  177.2010  142.5470 C   0  0  1  0  0  0  0  0  0  0  0  0
  187.5250  176.7880  145.0410 C   0  0  0  0  0  0  0  0  0  0  0  0
  186.6890  176.7900  139.0870 O   0  0  0  0  0  1  0  0  0  0  0  0
  186.7530  177.4550  140.3110 C   0  0  1  0  0  3  0  0  0  0  0  0
  187.4740  176.1530  143.6700 C   0  0  0  0  0  2  0  0  0  0  0  0
  185.4320  178.1690  140.5700 C   0  0  0  0  0  2  0  0  0  0  0  0
  186.2440  178.1840  142.9270 C   0  0  0  0  0  0  0  0  0  0  0  0
  185.4550  178.7740  141.8940 N   0  0  0  0  0  2  0  0  0  0  0  0
  188.2820  176.1440  146.1240 C   0  0  0  0  0  0  0  0  0  0  0  0
  188.2210  176.6000  147.2980 O   0  0  0  0  0  1  0  0  0  0  0  0
  189.0640  175.0250  145.8700 O   0  0  0  0  0  0  0  0  0  0  0  0
  1  5  1  0  0  0  0
  2  7  1  1  0  0  0
  2  8  1  0  0  0  0
  4  8  1  0  0  0  0
  5  3  1  6  0  0  0
  5  4  1  0  0  0  0
  6  2  1  0  0  0  0
  6  1  2  0  0  0  0
  8 10  1  6  0  0  0
 10  9  1  1  0  0  0
 10 11  1  0  0  0  0
 11 12  1  0  0  0  0
 12 14  1  0  0  0  0
 14 13  2  0  0  0  0
 14 15  1  0  0  0  0
 16  1  1  0  0  0  0
 17 20  1  0  0  0  0
 18 19  1  0  0  0  0
 20 16  1  6  0  0  0
 20 26  1  0  0  0  0
 20 24  1  0  0  0  0
 21 19  2  0  0  0  0
 21 28  1  0  0  0  0
 23 22  1  6  0  0  0
 23 25  1  0  0  0  0
 23 17  1  0  0  0  0
 24 21  1  0  0  0  0
 25 27  1  0  0  0  0
 26 18  2  0  0  0  0
 27 26  1  0  0  0  0
 28 29  1  0  0  0  0
 30 28  2  0  0  0  0
M  END
>  <MODEL>
7

>  <REMARK>
 VINA RESULT:      -6.6      1.741      2.388
  Name = 
  7 active torsions:
  status: ('A' for Active; 'I' for Inactive)
    1  A    between atoms: N_1  and  C_11
    2  A    between atoms: N_1  and  C_19
    3  A    between atoms: C_2  and  C_15
    4  A    between atoms: C_6  and  C_9
    5  A    between atoms: C_9  and  C_13
    6  A    between atoms: C_11  and  C_14
    7  A    between atoms: C_19  and  C_30
                            x       y       z     vdW  Elec       q    Type
                         _______ _______ _______ _____ _____    ______ ____

>  <TORSDO>
F 7

$$$$
=
 OpenBabel11062419423D

 30 32  0  0  1  0  0  0  0  0999 V2000
  188.6530  177.2230  143.2500 C   0  0  0  0  0  0  0  0  0  0  0  0
  189.0430  175.2110  141.7910 C   0  0  2  0  0  3  0  0  0  0  0  0
  190.5970  178.4190  143.9700 O   0  0  0  0  0  1  0  0  0  0  0  0
  190.9850  176.3420  142.8730 C   0  0  0  0  0  2  0  0  0  0  0  0
  190.0640  177.1440  143.7850 C   0  0  2  0  0  3  0  0  0  0  0  0
  188.1830  176.2790  142.4170 C   0  0  0  0  0  3  0  0  0  0  0  0
  188.2180  173.9400  141.7020 C   0  0  0  0  0  1  0  0  0  0  0  0
  190.3630  174.9820  142.5550 C   0  0  2  0  0  3  0  0  0  0  0  0
  192.4350  174.9500  141.3220 O   0  0  0  0  0  1  0  0  0  0  0  0
  191.3580  174.1560  141.7270 C   0  0  1  0  0  3  0  0  0  0  0  0
  191.8670  173.0360  142.5040 N   0  0  0  0  0  2  0  0  0  0  0  0
  192.0280  171.9210  141.5870 C   0  0  0  0  0  2  0  0  0  0  0  0
  190.0680  170.7890  142.3240 O   0  0  0  0  0  1  0  0  0  0  0  0
  190.7110  171.2710  141.3550 C   0  0  0  0  0  0  0  0  0  0  0  0
  190.1770  171.2190  140.0740 O   0  0  0  0  0  0  0  0  0  0  0  0
  187.6870  178.1950  143.8740 C   0  0  0  0  0  2  0  0  0  0  0  0
  185.4800  177.1390  143.6690 O   0  0  0  0  0  0  0  0  0  0  0  0
  186.4570  178.6520  146.8240 C   0  0  0  0  0  3  0  0  0  0  0  0
  187.5230  177.7330  147.2630 C   0  0  0  0  0  3  0  0  0  0  0  0
  186.4830  177.5380  144.5950 C   0  0  1  0  0  0  0  0  0  0  0  0
  187.8090  176.6330  146.5550 C   0  0  0  0  0  0  0  0  0  0  0  0
  184.1210  177.8690  141.9710 O   0  0  0  0  0  1  0  0  0  0  0  0
  184.9060  178.2750  143.0490 C   0  0  1  0  0  3  0  0  0  0  0  0
  186.9660  176.2840  145.3500 C   0  0  0  0  0  2  0  0  0  0  0  0
  184.0460  179.0430  144.0440 C   0  0  0  0  0  2  0  0  0  0  0  0
  185.9160  178.5250  145.6090 C   0  0  0  0  0  0  0  0  0  0  0  0
  184.8370  179.3750  145.2200 N   0  0  0  0  0  2  0  0  0  0  0  0
  188.8770  175.7240  146.9970 C   0  0  0  0  0  0  0  0  0  0  0  0
  190.0850  176.0210  146.7980 O   0  0  0  0  0  0  0  0  0  0  0  0
  188.5660  174.5340  147.6430 O   0  0  0  0  0  1  0  0  0  0  0  0
  1  5  1  0  0  0  0
  1 16  1  0  0  0  0
  2  7  1  1  0  0  0
  2  6  1  0  0  0  0
  2  8  1  0  0  0  0
  4  5  1  0  0  0  0
  5  3  1  6  0  0  0
  6  1  2  0  0  0  0
  8 10  1  6  0  0  0
  8  4  1  0  0  0  0
 10  9  1  1  0  0  0
 10 11  1  0  0  0  0
 12 11  1  0  0  0  0
 14 12  1  0  0  0  0
 14 13  1  0  0  0  0
 15 14  2  0  0  0  0
 17 20  1  0  0  0  0
 18 19  1  0  0  0  0
 20 16  1  6  0  0  0
 20 24  1  0  0  0  0
 20 26  1  0  0  0  0
 21 28  1  0  0  0  0
 21 19  2  0  0  0  0
 23 22  1  6  0  0  0
 23 17  1  0  0  0  0
 23 25  1  0  0  0  0
 24 21  1  0  0  0  0
 25 27  1  0  0  0  0
 26 18  2  0  0  0  0
 27 26  1  0  0  0  0
 28 30  1  0  0  0  0
 29 28  2  0  0  0  0
M  END
>  <MODEL>
8

>  <REMARK>
 VINA RESULT:      -6.6      2.925      4.355
  Name = 
  7 active torsions:
  status: ('A' for Active; 'I' for Inactive)
    1  A    between atoms: N_1  and  C_11
    2  A    between atoms: N_1  and  C_19
    3  A    between atoms: C_2  and  C_15
    4  A    between atoms: C_6  and  C_9
    5  A    between atoms: C_9  and  C_13
    6  A    between atoms: C_11  and  C_14
    7  A    between atoms: C_19  and  C_30
                            x       y       z     vdW  Elec       q    Type
                         _______ _______ _______ _____ _____    ______ ____

>  <TORSDO>
F 7

$$$$
=
 OpenBabel11062419423D

 30 32  0  0  1  0  0  0  0  0999 V2000
  190.2720  177.2560  143.6710 C   0  0  0  0  0  0  0  0  0  0  0  0
  187.9560  177.2560  142.6880 C   0  0  2  0  0  3  0  0  0  0  0  0
  190.4250  177.1650  146.0570 O   0  0  0  0  0  1  0  0  0  0  0  0
  188.2480  177.4970  145.1540 C   0  0  0  0  0  2  0  0  0  0  0  0
  189.7410  177.7550  144.9950 C   0  0  2  0  0  3  0  0  0  0  0  0
  189.4560  177.1270  142.6110 C   0  0  0  0  0  3  0  0  0  0  0  0
  187.4770  177.9160  141.4080 C   0  0  0  0  0  1  0  0  0  0  0  0
  187.4860  178.0260  143.9390 C   0  0  2  0  0  3  0  0  0  0  0  0
  185.7260  176.6590  144.8580 O   0  0  0  0  0  1  0  0  0  0  0  0
  185.9790  177.8520  144.1750 C   0  0  1  0  0  3  0  0  0  0  0  0
  185.4500  178.9590  144.9560 N   0  0  0  0  0  2  0  0  0  0  0  0
  184.7770  178.3840  146.1090 C   0  0  0  0  0  2  0  0  0  0  0  0
  185.9420  179.7880  147.6380 O   0  0  0  0  0  0  0  0  0  0  0  0
  185.5910  178.6190  147.3300 C   0  0  0  0  0  0  0  0  0  0  0  0
  185.9420  177.5520  148.1490 O   0  0  0  0  0  1  0  0  0  0  0  0
  191.7610  177.1800  143.4600 C   0  0  0  0  0  2  0  0  0  0  0  0
  192.7510  175.8450  145.2670 O   0  0  0  0  0  0  0  0  0  0  0  0
  193.5370  175.0480  141.8110 C   0  0  0  0  0  3  0  0  0  0  0  0
  192.2390  174.5410  141.3330 C   0  0  0  0  0  3  0  0  0  0  0  0
  192.4080  175.8390  143.8870 C   0  0  1  0  0  0  0  0  0  0  0  0
  191.2060  174.4090  142.1740 C   0  0  0  0  0  0  0  0  0  0  0  0
  193.9190  176.9720  146.8880 O   0  0  0  0  0  1  0  0  0  0  0  0
  193.7740  176.7910  145.5130 C   0  0  1  0  0  3  0  0  0  0  0  0
  191.4060  174.6920  143.6460 C   0  0  0  0  0  2  0  0  0  0  0  0
  195.0940  176.3090  144.9220 C   0  0  0  0  0  2  0  0  0  0  0  0
  193.6420  175.5900  143.0280 C   0  0  0  0  0  0  0  0  0  0  0  0
  194.9180  176.0140  143.5080 N   0  0  0  0  0  2  0  0  0  0  0  0
  189.9130  173.9070  141.6890 C   0  0  0  0  0  0  0  0  0  0  0  0
  189.7320  173.7060  140.4580 O   0  0  0  0  0  0  0  0  0  0  0  0
  188.8800  173.6420  142.5790 O   0  0  0  0  0  1  0  0  0  0  0  0
  1  5  1  0  0  0  0
  2  7  1  6  0  0  0
  2  8  1  0  0  0  0
  5  4  1  0  0  0  0
  5  3  1  1  0  0  0
  6  2  1  0  0  0  0
  6  1  2  0  0  0  0
  8 10  1  1  0  0  0
  8  4  1  0  0  0  0
 10  9  1  1  0  0  0
 10 11  1  0  0  0  0
 11 12  1  0  0  0  0
 12 14  1  0  0  0  0
 14 13  2  0  0  0  0
 14 15  1  0  0  0  0
 16  1  1  0  0  0  0
 17 23  1  0  0  0  0
 18 26  2  0  0  0  0
 19 18  1  0  0  0  0
 19 21  2  0  0  0  0
 20 16  1  6  0  0  0
 20 17  1  0  0  0  0
 21 24  1  0  0  0  0
 23 22  1  1  0  0  0
 24 20  1  0  0  0  0
 25 23  1  0  0  0  0
 26 27  1  0  0  0  0
 26 20  1  0  0  0  0
 27 25  1  0  0  0  0
 28 21  1  0  0  0  0
 28 30  1  0  0  0  0
 29 28  2  0  0  0  0
M  END
>  <MODEL>
9

>  <REMARK>
 VINA RESULT:      -6.6      2.187      7.505
  Name = 
  7 active torsions:
  status: ('A' for Active; 'I' for Inactive)
    1  A    between atoms: N_1  and  C_11
    2  A    between atoms: N_1  and  C_19
    3  A    between atoms: C_2  and  C_15
    4  A    between atoms: C_6  and  C_9
    5  A    between atoms: C_9  and  C_13
    6  A    between atoms: C_11  and  C_14
    7  A    between atoms: C_19  and  C_30
                            x       y       z     vdW  Elec       q    Type
                         _______ _______ _______ _____ _____    ______ ____

>  <TORSDO>
F 7

$$$$
