=
 OpenBabel11072408493D

 26 29  0  0  1  0  0  0  0  0999 V2000
  189.5690  176.9240  143.9460 C   0  0  0  0  0  0  0  0  0  0  0  0
  190.5900  175.1650  142.9020 N   0  0  0  0  0  0  0  0  0  0  0  0
  190.7430  176.1210  143.9200 N   0  0  0  0  0  0  0  0  0  0  0  0
  188.6880  176.4190  142.9090 C   0  0  0  0  0  0  0  0  0  0  0  0
  187.5190  176.8500  142.5420 N   0  0  0  0  0  0  0  0  0  0  0  0
  189.4300  175.2990  142.3280 C   0  0  0  0  0  0  0  0  0  0  0  0
  189.3540  177.8810  144.7360 O   0  0  0  0  0  0  0  0  0  0  0  0
  191.9130  176.2310  144.7460 C   0  0  0  0  0  0  0  0  0  0  0  0
  192.9650  176.0430  146.9290 C   0  0  0  0  0  3  0  0  0  0  0  0
  194.1860  176.4430  146.3790 C   0  0  0  0  0  3  0  0  0  0  0  0
  191.8340  175.9380  146.1150 C   0  0  0  0  0  3  0  0  0  0  0  0
  193.1440  176.6320  144.2020 C   0  0  0  0  0  3  0  0  0  0  0  0
  194.2760  176.7370  145.0160 C   0  0  0  0  0  3  0  0  0  0  0  0
  189.2710  172.4460  141.1590 N   0  0  0  0  0  2  0  0  0  0  0  0
  188.9880  174.4830  141.1470 C   0  0  1  0  0  3  0  0  0  0  0  0
  190.0330  173.5560  140.7410 N   0  0  0  0  0  2  0  0  0  0  0  0
  188.1830  173.3040  141.5930 C   0  0  0  0  0  2  0  0  0  0  0  0
  186.8540  178.0020  143.1390 C   0  0  0  0  0  2  0  0  0  0  0  0
  185.9790  177.5490  145.4440 C   0  0  2  0  0  3  0  0  0  0  0  0
  184.0130  178.9580  145.4580 C   0  0  0  0  0  2  0  0  0  0  0  0
  184.2690  178.7140  143.6760 S   0  0  0  0  0  0  0  0  0  0  0  0
  184.6910  177.8210  146.1840 C   0  0  0  0  0  2  0  0  0  0  0  0
  185.6500  177.5620  143.9600 C   0  0  1  0  0  3  0  0  0  0  0  0
  186.4790  176.2990  145.8130 O   0  0  0  0  0  0  0  0  0  0  0  0
  187.1960  176.5320  146.9880 C   0  0  0  0  0  2  0  0  0  0  0  0
  188.2710  175.6470  147.0590 O   0  0  0  0  0  1  0  0  0  0  0  0
  1  7  2  0  0  0  0
  2  3  1  0  0  0  0
  3  1  1  0  0  0  0
  3  8  1  0  0  0  0
  4  1  1  0  0  0  0
  5  4  2  0  0  0  0
  5 18  1  0  0  0  0
  6  2  2  0  0  0  0
  6  4  1  0  0  0  0
  8 11  1  0  0  0  0
 10  9  1  0  0  0  0
 11  9  2  0  0  0  0
 12  8  2  0  0  0  0
 12 13  1  0  0  0  0
 13 10  2  0  0  0  0
 14 17  1  0  0  0  0
 15 17  1  0  0  0  0
 15  6  1  1  0  0  0
 16 15  1  0  0  0  0
 16 14  1  0  0  0  0
 19 24  1  1  0  0  0
 19 22  1  0  0  0  0
 20 22  1  0  0  0  0
 21 23  1  0  0  0  0
 21 20  1  0  0  0  0
 23 18  1  6  0  0  0
 23 19  1  0  0  0  0
 24 25  1  0  0  0  0
 25 26  1  0  0  0  0
M  END
>  <MODEL>
1

>  <REMARK>
 VINA RESULT:      -6.4      0.000      0.000
  Name = 
  6 active torsions:
  status: ('A' for Active; 'I' for Inactive)
    1  A    between atoms: C_2  and  N_10
    2  A    between atoms: C_3  and  O_6
    3  A    between atoms: O_6  and  C_18
    4  A    between atoms: C_11  and  C_21
    5  A    between atoms: C_11  and  N_24
    6  A    between atoms: C_12  and  C_25
                            x       y       z     vdW  Elec       q    Type
                         _______ _______ _______ _____ _____    ______ ____

>  <TORSDO>
F 6

$$$$
=
 OpenBabel11072408493D

 26 29  0  0  1  0  0  0  0  0999 V2000
  188.9780  177.1110  144.0240 C   0  0  0  0  0  0  0  0  0  0  0  0
  187.4590  175.7190  143.0340 N   0  0  0  0  0  0  0  0  0  0  0  0
  187.5940  176.7940  143.9280 N   0  0  0  0  0  0  0  0  0  0  0  0
  189.6840  176.1930  143.1510 C   0  0  0  0  0  0  0  0  0  0  0  0
  190.9600  176.0830  142.9320 N   0  0  0  0  0  0  0  0  0  0  0  0
  188.6230  175.3720  142.5650 C   0  0  0  0  0  0  0  0  0  0  0  0
  189.4710  178.0270  144.7340 O   0  0  0  0  0  0  0  0  0  0  0  0
  186.4920  177.4120  144.6090 C   0  0  0  0  0  0  0  0  0  0  0  0
  184.9380  179.2680  144.8340 C   0  0  0  0  0  3  0  0  0  0  0  0
  184.3400  178.6400  145.9290 C   0  0  0  0  0  3  0  0  0  0  0  0
  186.0100  178.6560  144.1770 C   0  0  0  0  0  3  0  0  0  0  0  0
  185.8850  176.7890  145.7110 C   0  0  0  0  0  3  0  0  0  0  0  0
  184.8130  177.4000  146.3680 C   0  0  0  0  0  3  0  0  0  0  0  0
  188.6550  172.2910  142.3860 N   0  0  0  0  0  2  0  0  0  0  0  0
  188.8340  174.2020  141.6480 C   0  0  1  0  0  3  0  0  0  0  0  0
  189.7110  173.2170  142.2620 N   0  0  0  0  0  2  0  0  0  0  0  0
  187.7150  173.2180  141.7840 C   0  0  0  0  0  2  0  0  0  0  0  0
  191.9690  176.9090  143.5830 C   0  0  0  0  0  2  0  0  0  0  0  0
  194.2820  176.5220  144.4690 C   0  0  2  0  0  3  0  0  0  0  0  0
  193.8750  176.6560  146.8490 C   0  0  0  0  0  2  0  0  0  0  0  0
  192.2210  176.2420  146.2230 S   0  0  0  0  0  0  0  0  0  0  0  0
  194.8850  176.2130  145.8180 C   0  0  0  0  0  2  0  0  0  0  0  0
  192.8320  176.0710  144.5170 C   0  0  1  0  0  3  0  0  0  0  0  0
  194.9690  175.8230  143.4750 O   0  0  0  0  0  0  0  0  0  0  0  0
  196.2040  176.4650  143.3710 C   0  0  0  0  0  2  0  0  0  0  0  0
  196.4150  176.8550  142.0490 O   0  0  0  0  0  1  0  0  0  0  0  0
  1  7  2  0  0  0  0
  2  3  1  0  0  0  0
  3  1  1  0  0  0  0
  3  8  1  0  0  0  0
  4  1  1  0  0  0  0
  5  4  2  0  0  0  0
  5 18  1  0  0  0  0
  6  2  2  0  0  0  0
  6  4  1  0  0  0  0
  8 12  1  0  0  0  0
  9 10  2  0  0  0  0
 10 13  1  0  0  0  0
 11  8  2  0  0  0  0
 11  9  1  0  0  0  0
 12 13  2  0  0  0  0
 15 17  1  0  0  0  0
 15 16  1  0  0  0  0
 15  6  1  1  0  0  0
 16 14  1  0  0  0  0
 17 14  1  0  0  0  0
 19 24  1  6  0  0  0
 19 23  1  0  0  0  0
 19 22  1  0  0  0  0
 21 20  1  0  0  0  0
 22 20  1  0  0  0  0
 23 18  1  6  0  0  0
 23 21  1  0  0  0  0
 25 24  1  0  0  0  0
 26 25  1  0  0  0  0
M  END
>  <MODEL>
2

>  <REMARK>
 VINA RESULT:      -6.4      2.759      6.647
  Name = 
  6 active torsions:
  status: ('A' for Active; 'I' for Inactive)
    1  A    between atoms: C_2  and  N_10
    2  A    between atoms: C_3  and  O_6
    3  A    between atoms: O_6  and  C_18
    4  A    between atoms: C_11  and  C_21
    5  A    between atoms: C_11  and  N_24
    6  A    between atoms: C_12  and  C_25
                            x       y       z     vdW  Elec       q    Type
                         _______ _______ _______ _____ _____    ______ ____

>  <TORSDO>
F 6

$$$$
=
 OpenBabel11072408493D

 26 29  0  0  1  0  0  0  0  0999 V2000
  189.1450  177.2070  144.2670 C   0  0  0  0  0  0  0  0  0  0  0  0
  187.7190  175.7140  143.2840 N   0  0  0  0  0  0  0  0  0  0  0  0
  187.7820  176.8100  144.1610 N   0  0  0  0  0  0  0  0  0  0  0  0
  189.9120  176.3170  143.4160 C   0  0  0  0  0  0  0  0  0  0  0  0
  191.1940  176.2760  143.2130 N   0  0  0  0  0  0  0  0  0  0  0  0
  188.9060  175.4270  142.8340 C   0  0  0  0  0  0  0  0  0  0  0  0
  189.5770  178.1610  144.9660 O   0  0  0  0  0  0  0  0  0  0  0  0
  186.6390  177.3750  144.8210 C   0  0  0  0  0  0  0  0  0  0  0  0
  185.0300  179.1820  145.0520 C   0  0  0  0  0  3  0  0  0  0  0  0
  184.4070  178.4990  146.0990 C   0  0  0  0  0  3  0  0  0  0  0  0
  186.1420  178.6220  144.4160 C   0  0  0  0  0  3  0  0  0  0  0  0
  186.0060  176.6950  145.8740 C   0  0  0  0  0  3  0  0  0  0  0  0
  184.8940  177.2560  146.5100 C   0  0  0  0  0  3  0  0  0  0  0  0
  188.6110  172.3710  142.5170 N   0  0  0  0  0  2  0  0  0  0  0  0
  189.1940  174.2570  141.9390 C   0  0  1  0  0  3  0  0  0  0  0  0
  189.7680  173.1560  142.6980 N   0  0  0  0  0  2  0  0  0  0  0  0
  187.9660  173.4220  141.7520 C   0  0  0  0  0  2  0  0  0  0  0  0
  192.1470  177.1700  143.8600 C   0  0  0  0  0  2  0  0  0  0  0  0
  192.2400  175.5710  145.7880 C   0  0  2  0  0  3  0  0  0  0  0  0
  193.6650  173.8460  144.8680 C   0  0  0  0  0  2  0  0  0  0  0  0
  194.1190  175.2750  143.8420 S   0  0  0  0  0  0  0  0  0  0  0  0
  193.0780  174.3690  146.1570 C   0  0  0  0  0  2  0  0  0  0  0  0
  193.0550  176.3950  144.8050 C   0  0  1  0  0  3  0  0  0  0  0  0
  191.9660  176.3230  146.9320 O   0  0  0  0  0  0  0  0  0  0  0  0
  191.2090  175.4770  147.7450 C   0  0  0  0  0  2  0  0  0  0  0  0
  189.8760  175.5140  147.3380 O   0  0  0  0  0  1  0  0  0  0  0  0
  1  7  2  0  0  0  0
  2  3  1  0  0  0  0
  3  1  1  0  0  0  0
  3  8  1  0  0  0  0
  4  1  1  0  0  0  0
  5  4  2  0  0  0  0
  5 18  1  0  0  0  0
  6  2  2  0  0  0  0
  6  4  1  0  0  0  0
  8 12  1  0  0  0  0
  9 10  2  0  0  0  0
 10 13  1  0  0  0  0
 11  8  2  0  0  0  0
 11  9  1  0  0  0  0
 12 13  2  0  0  0  0
 14 16  1  0  0  0  0
 15 16  1  0  0  0  0
 15  6  1  1  0  0  0
 17 15  1  0  0  0  0
 17 14  1  0  0  0  0
 19 22  1  0  0  0  0
 19 24  1  1  0  0  0
 20 22  1  0  0  0  0
 21 23  1  0  0  0  0
 21 20  1  0  0  0  0
 23 18  1  6  0  0  0
 23 19  1  0  0  0  0
 24 25  1  0  0  0  0
 26 25  1  0  0  0  0
M  END
>  <MODEL>
3

>  <REMARK>
 VINA RESULT:      -6.4      2.496      5.969
  Name = 
  6 active torsions:
  status: ('A' for Active; 'I' for Inactive)
    1  A    between atoms: C_2  and  N_10
    2  A    between atoms: C_3  and  O_6
    3  A    between atoms: O_6  and  C_18
    4  A    between atoms: C_11  and  C_21
    5  A    between atoms: C_11  and  N_24
    6  A    between atoms: C_12  and  C_25
                            x       y       z     vdW  Elec       q    Type
                         _______ _______ _______ _____ _____    ______ ____

>  <TORSDO>
F 6

$$$$
=
 OpenBabel11072408493D

 26 29  0  0  1  0  0  0  0  0999 V2000
  189.1280  176.8890  145.5440 C   0  0  0  0  0  0  0  0  0  0  0  0
  188.0660  176.0890  143.6840 N   0  0  0  0  0  0  0  0  0  0  0  0
  187.8930  176.8740  144.8360 N   0  0  0  0  0  0  0  0  0  0  0  0
  190.0640  176.0880  144.7790 C   0  0  0  0  0  0  0  0  0  0  0  0
  191.3000  175.7920  145.0430 N   0  0  0  0  0  0  0  0  0  0  0  0
  189.2890  175.6480  143.6170 C   0  0  0  0  0  0  0  0  0  0  0  0
  189.3450  177.4990  146.6240 O   0  0  0  0  0  0  0  0  0  0  0  0
  186.6570  177.5110  145.1930 C   0  0  0  0  0  0  0  0  0  0  0  0
  184.6050  177.5280  146.4970 C   0  0  0  0  0  3  0  0  0  0  0  0
  184.2330  178.7370  145.9030 C   0  0  0  0  0  3  0  0  0  0  0  0
  185.8120  176.9180  146.1420 C   0  0  0  0  0  3  0  0  0  0  0  0
  186.2750  178.7260  144.6030 C   0  0  0  0  0  3  0  0  0  0  0  0
  185.0680  179.3360  144.9570 C   0  0  0  0  0  3  0  0  0  0  0  0
  188.6710  173.0410  142.0840 N   0  0  0  0  0  2  0  0  0  0  0  0
  189.7770  174.7110  142.5500 C   0  0  1  0  0  3  0  0  0  0  0  0
  189.7020  173.3300  143.0020 N   0  0  0  0  0  2  0  0  0  0  0  0
  188.6800  174.4020  141.5800 C   0  0  0  0  0  2  0  0  0  0  0  0
  192.0020  176.2310  146.2430 C   0  0  0  0  0  2  0  0  0  0  0  0
  193.6510  174.6450  145.2220 C   0  0  2  0  0  3  0  0  0  0  0  0
  195.3300  176.1950  144.4290 C   0  0  0  0  0  2  0  0  0  0  0  0
  194.5160  177.1750  145.7250 S   0  0  0  0  0  0  0  0  0  0  0  0
  195.0730  174.7370  144.7220 C   0  0  0  0  0  2  0  0  0  0  0  0
  193.4550  175.7790  146.2140 C   0  0  1  0  0  3  0  0  0  0  0  0
  193.4540  173.4160  145.8540 O   0  0  0  0  0  0  0  0  0  0  0  0
  194.5570  172.6420  145.4900 C   0  0  0  0  0  2  0  0  0  0  0  0
  194.2730  171.2950  145.7080 O   0  0  0  0  0  1  0  0  0  0  0  0
  1  7  2  0  0  0  0
  2  3  1  0  0  0  0
  3  8  1  0  0  0  0
  3  1  1  0  0  0  0
  4  5  2  0  0  0  0
  4  1  1  0  0  0  0
  5 18  1  0  0  0  0
  6  2  2  0  0  0  0
  6  4  1  0  0  0  0
  8 11  1  0  0  0  0
 10  9  1  0  0  0  0
 11  9  2  0  0  0  0
 12 13  1  0  0  0  0
 12  8  2  0  0  0  0
 13 10  2  0  0  0  0
 14 16  1  0  0  0  0
 15 16  1  0  0  0  0
 15  6  1  1  0  0  0
 17 14  1  0  0  0  0
 17 15  1  0  0  0  0
 19 24  1  1  0  0  0
 19 23  1  0  0  0  0
 20 22  1  0  0  0  0
 20 21  1  0  0  0  0
 21 23  1  0  0  0  0
 22 19  1  0  0  0  0
 23 18  1  6  0  0  0
 25 26  1  0  0  0  0
 25 24  1  0  0  0  0
M  END
>  <MODEL>
4

>  <REMARK>
 VINA RESULT:      -6.3      3.163      6.735
  Name = 
  6 active torsions:
  status: ('A' for Active; 'I' for Inactive)
    1  A    between atoms: C_2  and  N_10
    2  A    between atoms: C_3  and  O_6
    3  A    between atoms: O_6  and  C_18
    4  A    between atoms: C_11  and  C_21
    5  A    between atoms: C_11  and  N_24
    6  A    between atoms: C_12  and  C_25
                            x       y       z     vdW  Elec       q    Type
                         _______ _______ _______ _____ _____    ______ ____

>  <TORSDO>
F 6

$$$$
=
 OpenBabel11072408493D

 26 29  0  0  1  0  0  0  0  0999 V2000
  188.6100  176.6330  144.0180 C   0  0  0  0  0  0  0  0  0  0  0  0
  189.0080  177.1720  146.2040 N   0  0  0  0  0  0  0  0  0  0  0  0
  188.0330  177.1910  145.1930 N   0  0  0  0  0  0  0  0  0  0  0  0
  189.9740  176.2660  144.3510 C   0  0  0  0  0  0  0  0  0  0  0  0
  190.8930  175.7480  143.5940 N   0  0  0  0  0  0  0  0  0  0  0  0
  190.1080  176.6370  145.7610 C   0  0  0  0  0  0  0  0  0  0  0  0
  188.0240  176.4860  142.9130 O   0  0  0  0  0  0  0  0  0  0  0  0
  186.7070  177.7130  145.3690 C   0  0  0  0  0  0  0  0  0  0  0  0
  184.5380  177.6060  146.4620 C   0  0  0  0  0  3  0  0  0  0  0  0
  184.1090  178.7140  145.7270 C   0  0  0  0  0  3  0  0  0  0  0  0
  185.8320  177.1070  146.2830 C   0  0  0  0  0  3  0  0  0  0  0  0
  186.2670  178.8260  144.6360 C   0  0  0  0  0  3  0  0  0  0  0  0
  184.9730  179.3240  144.8150 C   0  0  0  0  0  3  0  0  0  0  0  0
  191.3930  175.4040  148.2820 N   0  0  0  0  0  2  0  0  0  0  0  0
  191.3700  176.5410  146.5680 C   0  0  1  0  0  3  0  0  0  0  0  0
  191.0950  176.7490  147.9810 N   0  0  0  0  0  2  0  0  0  0  0  0
  191.6820  175.1130  146.8900 C   0  0  0  0  0  2  0  0  0  0  0  0
  190.7040  175.4400  142.1810 C   0  0  0  0  0  2  0  0  0  0  0  0
  189.4130  173.3830  141.5590 C   0  0  2  0  0  3  0  0  0  0  0  0
  190.7400  172.5680  139.7080 C   0  0  0  0  0  2  0  0  0  0  0  0
  191.9490  173.5930  140.5960 S   0  0  0  0  0  0  0  0  0  0  0  0
  189.6590  172.1760  140.6860 C   0  0  0  0  0  2  0  0  0  0  0  0
  190.7750  173.9380  141.9430 C   0  0  1  0  0  3  0  0  0  0  0  0
  188.7110  173.0020  142.7040 O   0  0  0  0  0  0  0  0  0  0  0  0
  189.4670  171.9690  143.2620 C   0  0  0  0  0  2  0  0  0  0  0  0
  189.5380  172.1400  144.6440 O   0  0  0  0  0  1  0  0  0  0  0  0
  1  4  1  0  0  0  0
  1  3  1  0  0  0  0
  3  8  1  0  0  0  0
  3  2  1  0  0  0  0
  4  6  1  0  0  0  0
  5  4  2  0  0  0  0
  6  2  2  0  0  0  0
  7  1  2  0  0  0  0
  8 11  1  0  0  0  0
 10  9  1  0  0  0  0
 11  9  2  0  0  0  0
 12 13  1  0  0  0  0
 12  8  2  0  0  0  0
 13 10  2  0  0  0  0
 15  6  1  6  0  0  0
 15 17  1  0  0  0  0
 15 16  1  0  0  0  0
 16 14  1  0  0  0  0
 17 14  1  0  0  0  0
 18  5  1  0  0  0  0
 19 23  1  0  0  0  0
 19 24  1  1  0  0  0
 20 21  1  0  0  0  0
 20 22  1  0  0  0  0
 21 23  1  0  0  0  0
 22 19  1  0  0  0  0
 23 18  1  6  0  0  0
 24 25  1  0  0  0  0
 25 26  1  0  0  0  0
M  END
>  <MODEL>
5

>  <REMARK>
 VINA RESULT:      -6.2      3.040      6.699
  Name = 
  6 active torsions:
  status: ('A' for Active; 'I' for Inactive)
    1  A    between atoms: C_2  and  N_10
    2  A    between atoms: C_3  and  O_6
    3  A    between atoms: O_6  and  C_18
    4  A    between atoms: C_11  and  C_21
    5  A    between atoms: C_11  and  N_24
    6  A    between atoms: C_12  and  C_25
                            x       y       z     vdW  Elec       q    Type
                         _______ _______ _______ _____ _____    ______ ____

>  <TORSDO>
F 6

$$$$
=
 OpenBabel11072408493D

 26 29  0  0  1  0  0  0  0  0999 V2000
  187.8830  175.9140  143.6020 C   0  0  0  0  0  0  0  0  0  0  0  0
  188.6290  176.1920  145.7450 N   0  0  0  0  0  0  0  0  0  0  0  0
  187.5940  176.5230  144.8550 N   0  0  0  0  0  0  0  0  0  0  0  0
  189.1320  175.1930  143.7600 C   0  0  0  0  0  0  0  0  0  0  0  0
  189.8030  174.5090  142.8830 N   0  0  0  0  0  0  0  0  0  0  0  0
  189.5020  175.4260  145.1570 C   0  0  0  0  0  0  0  0  0  0  0  0
  187.1690  175.9930  142.5680 O   0  0  0  0  0  0  0  0  0  0  0  0
  186.4730  177.3510  145.2030 C   0  0  0  0  0  0  0  0  0  0  0  0
  185.2260  179.4190  144.9240 C   0  0  0  0  0  3  0  0  0  0  0  0
  184.2930  178.9880  145.8700 C   0  0  0  0  0  3  0  0  0  0  0  0
  186.3120  178.6030  144.5920 C   0  0  0  0  0  3  0  0  0  0  0  0
  185.5300  176.9260  146.1520 C   0  0  0  0  0  3  0  0  0  0  0  0
  184.4440  177.7420  146.4840 C   0  0  0  0  0  3  0  0  0  0  0  0
  191.8650  176.2770  146.9510 N   0  0  0  0  0  2  0  0  0  0  0  0
  190.7720  174.9610  145.8090 C   0  0  1  0  0  3  0  0  0  0  0  0
  191.8450  175.9190  145.5880 N   0  0  0  0  0  2  0  0  0  0  0  0
  190.7930  175.3470  147.2540 C   0  0  0  0  0  2  0  0  0  0  0  0
  189.3960  174.3520  141.4920 C   0  0  0  0  0  2  0  0  0  0  0  0
  189.4500  172.6740  139.6310 C   0  0  2  0  0  3  0  0  0  0  0  0
  191.1350  171.1470  140.4550 C   0  0  0  0  0  2  0  0  0  0  0  0
  190.5800  171.9380  141.9940 S   0  0  0  0  0  0  0  0  0  0  0  0
  190.0320  171.2940  139.4350 C   0  0  0  0  0  2  0  0  0  0  0  0
  189.2840  172.8780  141.1270 C   0  0  1  0  0  3  0  0  0  0  0  0
  188.2090  172.7560  138.9960 O   0  0  0  0  0  0  0  0  0  0  0  0
  188.4030  173.6520  137.9430 C   0  0  0  0  0  2  0  0  0  0  0  0
  187.8160  174.8760  138.2620 O   0  0  0  0  0  1  0  0  0  0  0  0
  1  4  1  0  0  0  0
  1  3  1  0  0  0  0
  3  8  1  0  0  0  0
  3  2  1  0  0  0  0
  4  6  1  0  0  0  0
  5  4  2  0  0  0  0
  6  2  2  0  0  0  0
  7  1  2  0  0  0  0
  8 12  1  0  0  0  0
  9 10  2  0  0  0  0
 10 13  1  0  0  0  0
 11  9  1  0  0  0  0
 11  8  2  0  0  0  0
 12 13  2  0  0  0  0
 14 17  1  0  0  0  0
 15  6  1  6  0  0  0
 15 17  1  0  0  0  0
 16 15  1  0  0  0  0
 16 14  1  0  0  0  0
 18  5  1  0  0  0  0
 19 24  1  6  0  0  0
 19 23  1  0  0  0  0
 20 21  1  0  0  0  0
 22 19  1  0  0  0  0
 22 20  1  0  0  0  0
 23 18  1  6  0  0  0
 23 21  1  0  0  0  0
 25 26  1  0  0  0  0
 25 24  1  0  0  0  0
M  END
>  <MODEL>
6

>  <REMARK>
 VINA RESULT:      -6.1      3.431      7.177
  Name = 
  6 active torsions:
  status: ('A' for Active; 'I' for Inactive)
    1  A    between atoms: C_2  and  N_10
    2  A    between atoms: C_3  and  O_6
    3  A    between atoms: O_6  and  C_18
    4  A    between atoms: C_11  and  C_21
    5  A    between atoms: C_11  and  N_24
    6  A    between atoms: C_12  and  C_25
                            x       y       z     vdW  Elec       q    Type
                         _______ _______ _______ _____ _____    ______ ____

>  <TORSDO>
F 6

$$$$
=
 OpenBabel11072408493D

 26 29  0  0  1  0  0  0  0  0999 V2000
  188.3580  176.6070  143.8850 C   0  0  0  0  0  0  0  0  0  0  0  0
  188.8580  177.1540  146.0470 N   0  0  0  0  0  0  0  0  0  0  0  0
  187.8480  177.2020  145.0720 N   0  0  0  0  0  0  0  0  0  0  0  0
  189.7160  176.1860  144.1720 C   0  0  0  0  0  0  0  0  0  0  0  0
  190.5850  175.6210  143.3890 N   0  0  0  0  0  0  0  0  0  0  0  0
  189.9180  176.5680  145.5710 C   0  0  0  0  0  0  0  0  0  0  0  0
  187.7250  176.4720  142.8040 O   0  0  0  0  0  0  0  0  0  0  0  0
  186.5520  177.7820  145.2900 C   0  0  0  0  0  0  0  0  0  0  0  0
  184.4510  177.8230  146.5110 C   0  0  0  0  0  3  0  0  0  0  0  0
  184.0140  178.8970  145.7300 C   0  0  0  0  0  3  0  0  0  0  0  0
  185.7150  177.2680  146.2900 C   0  0  0  0  0  3  0  0  0  0  0  0
  186.1050  178.8610  144.5110 C   0  0  0  0  0  3  0  0  0  0  0  0
  184.8410  179.4160  144.7310 C   0  0  0  0  0  3  0  0  0  0  0  0
  191.2240  175.3830  148.1040 N   0  0  0  0  0  2  0  0  0  0  0  0
  191.2040  176.4290  146.3330 C   0  0  1  0  0  3  0  0  0  0  0  0
  191.0040  176.7280  147.7420 N   0  0  0  0  0  2  0  0  0  0  0  0
  191.4350  175.0020  146.7200 C   0  0  0  0  0  2  0  0  0  0  0  0
  190.3300  175.3050  141.9890 C   0  0  0  0  0  2  0  0  0  0  0  0
  191.3190  173.1190  142.7150 C   0  0  2  0  0  3  0  0  0  0  0  0
  189.3110  171.8580  143.1910 C   0  0  0  0  0  2  0  0  0  0  0  0
  188.6800  173.1250  142.0530 S   0  0  0  0  0  0  0  0  0  0  0  0
  190.7960  171.7230  142.9570 C   0  0  0  0  0  2  0  0  0  0  0  0
  190.3460  173.7980  141.7650 C   0  0  1  0  0  3  0  0  0  0  0  0
  192.5870  173.0520  142.1340 O   0  0  0  0  0  0  0  0  0  0  0  0
  193.4600  172.8340  143.2020 C   0  0  0  0  0  2  0  0  0  0  0  0
  193.4630  173.9510  144.0360 O   0  0  0  0  0  1  0  0  0  0  0  0
  1  4  1  0  0  0  0
  1  3  1  0  0  0  0
  3  8  1  0  0  0  0
  3  2  1  0  0  0  0
  4  6  1  0  0  0  0
  5  4  2  0  0  0  0
  6  2  2  0  0  0  0
  7  1  2  0  0  0  0
  8 11  1  0  0  0  0
 10  9  1  0  0  0  0
 11  9  2  0  0  0  0
 12 13  1  0  0  0  0
 12  8  2  0  0  0  0
 13 10  2  0  0  0  0
 15  6  1  6  0  0  0
 15 17  1  0  0  0  0
 15 16  1  0  0  0  0
 16 14  1  0  0  0  0
 17 14  1  0  0  0  0
 18  5  1  0  0  0  0
 19 24  1  6  0  0  0
 19 22  1  0  0  0  0
 21 20  1  0  0  0  0
 22 20  1  0  0  0  0
 23 18  1  1  0  0  0
 23 21  1  0  0  0  0
 23 19  1  0  0  0  0
 24 25  1  0  0  0  0
 25 26  1  0  0  0  0
M  END
>  <MODEL>
7

>  <REMARK>
 VINA RESULT:      -6.0      3.045      6.721
  Name = 
  6 active torsions:
  status: ('A' for Active; 'I' for Inactive)
    1  A    between atoms: C_2  and  N_10
    2  A    between atoms: C_3  and  O_6
    3  A    between atoms: O_6  and  C_18
    4  A    between atoms: C_11  and  C_21
    5  A    between atoms: C_11  and  N_24
    6  A    between atoms: C_12  and  C_25
                            x       y       z     vdW  Elec       q    Type
                         _______ _______ _______ _____ _____    ______ ____

>  <TORSDO>
F 6

$$$$
=
 OpenBabel11072408493D

 26 29  0  0  1  0  0  0  0  0999 V2000
  189.3440  176.7570  144.7270 C   0  0  0  0  0  0  0  0  0  0  0  0
  187.8250  175.5150  143.5540 N   0  0  0  0  0  0  0  0  0  0  0  0
  187.9630  176.6170  144.4150 N   0  0  0  0  0  0  0  0  0  0  0  0
  190.0470  175.7030  144.0210 C   0  0  0  0  0  0  0  0  0  0  0  0
  191.3130  175.4150  144.0220 N   0  0  0  0  0  0  0  0  0  0  0  0
  188.9890  174.9920  143.3000 C   0  0  0  0  0  0  0  0  0  0  0  0
  189.8390  177.6440  145.4720 O   0  0  0  0  0  0  0  0  0  0  0  0
  186.8620  177.4140  144.8780 C   0  0  0  0  0  0  0  0  0  0  0  0
  185.4920  179.4130  144.6890 C   0  0  0  0  0  3  0  0  0  0  0  0
  184.7160  178.9890  145.7700 C   0  0  0  0  0  3  0  0  0  0  0  0
  186.5610  178.6280  144.2460 C   0  0  0  0  0  3  0  0  0  0  0  0
  186.0760  176.9950  145.9640 C   0  0  0  0  0  3  0  0  0  0  0  0
  185.0070  177.7800  146.4070 C   0  0  0  0  0  3  0  0  0  0  0  0
  188.2900  173.6110  140.6300 N   0  0  0  0  0  2  0  0  0  0  0  0
  189.1800  173.7500  142.4780 C   0  0  1  0  0  3  0  0  0  0  0  0
  187.9100  173.2820  141.9470 N   0  0  0  0  0  2  0  0  0  0  0  0
  189.5800  174.1010  141.0800 C   0  0  0  0  0  2  0  0  0  0  0  0
  192.3100  176.1430  144.7980 C   0  0  0  0  0  2  0  0  0  0  0  0
  194.4140  174.8030  144.5470 C   0  0  2  0  0  3  0  0  0  0  0  0
  194.5110  174.5720  142.1420 C   0  0  0  0  0  2  0  0  0  0  0  0
  193.4650  176.0470  142.3210 S   0  0  0  0  0  0  0  0  0  0  0  0
  195.3260  174.4260  143.4040 C   0  0  0  0  0  2  0  0  0  0  0  0
  193.6760  176.0640  144.1290 C   0  0  1  0  0  3  0  0  0  0  0  0
  195.1730  175.0500  145.6930 O   0  0  0  0  0  0  0  0  0  0  0  0
  196.4230  174.4900  145.4240 C   0  0  0  0  0  2  0  0  0  0  0  0
  196.8310  173.7200  146.5120 O   0  0  0  0  0  1  0  0  0  0  0  0
  1  7  2  0  0  0  0
  2  3  1  0  0  0  0
  3  1  1  0  0  0  0
  3  8  1  0  0  0  0
  4  5  2  0  0  0  0
  4  1  1  0  0  0  0
  5 18  1  0  0  0  0
  6  2  2  0  0  0  0
  6  4  1  0  0  0  0
  8 12  1  0  0  0  0
  9 10  2  0  0  0  0
 10 13  1  0  0  0  0
 11  9  1  0  0  0  0
 11  8  2  0  0  0  0
 12 13  2  0  0  0  0
 14 17  1  0  0  0  0
 14 16  1  0  0  0  0
 15  6  1  1  0  0  0
 16 15  1  0  0  0  0
 17 15  1  0  0  0  0
 19 24  1  1  0  0  0
 20 21  1  0  0  0  0
 20 22  1  0  0  0  0
 21 23  1  0  0  0  0
 22 19  1  0  0  0  0
 23 19  1  0  0  0  0
 23 18  1  1  0  0  0
 25 24  1  0  0  0  0
 25 26  1  0  0  0  0
M  END
>  <MODEL>
8

>  <REMARK>
 VINA RESULT:      -5.8      3.246      6.868
  Name = 
  6 active torsions:
  status: ('A' for Active; 'I' for Inactive)
    1  A    between atoms: C_2  and  N_10
    2  A    between atoms: C_3  and  O_6
    3  A    between atoms: O_6  and  C_18
    4  A    between atoms: C_11  and  C_21
    5  A    between atoms: C_11  and  N_24
    6  A    between atoms: C_12  and  C_25
                            x       y       z     vdW  Elec       q    Type
                         _______ _______ _______ _____ _____    ______ ____

>  <TORSDO>
F 6

$$$$
=
 OpenBabel11072408493D

 26 29  0  0  1  0  0  0  0  0999 V2000
  190.2290  176.1470  145.3150 C   0  0  0  0  0  0  0  0  0  0  0  0
  190.6070  174.7510  143.5450 N   0  0  0  0  0  0  0  0  0  0  0  0
  191.2290  175.4170  144.6140 N   0  0  0  0  0  0  0  0  0  0  0  0
  188.9700  175.8970  144.6390 C   0  0  0  0  0  0  0  0  0  0  0  0
  187.7890  176.3690  144.8990 N   0  0  0  0  0  0  0  0  0  0  0  0
  189.3280  174.9900  143.5470 C   0  0  0  0  0  0  0  0  0  0  0  0
  190.4230  176.8590  146.3350 O   0  0  0  0  0  0  0  0  0  0  0  0
  192.6370  175.3490  144.8900 C   0  0  0  0  0  0  0  0  0  0  0  0
  194.5550  174.1080  145.7200 C   0  0  0  0  0  3  0  0  0  0  0  0
  195.3850  175.1960  145.4400 C   0  0  0  0  0  3  0  0  0  0  0  0
  193.1860  174.1850  145.4460 C   0  0  0  0  0  3  0  0  0  0  0  0
  193.4790  176.4370  144.6110 C   0  0  0  0  0  3  0  0  0  0  0  0
  194.8480  176.3600  144.8850 C   0  0  0  0  0  3  0  0  0  0  0  0
  189.0350  174.3640  140.5380 N   0  0  0  0  0  2  0  0  0  0  0  0
  188.3880  174.4930  142.4860 C   0  0  1  0  0  3  0  0  0  0  0  0
  188.4190  175.3620  141.3210 N   0  0  0  0  0  2  0  0  0  0  0  0
  189.0450  173.4370  141.6540 C   0  0  0  0  0  2  0  0  0  0  0  0
  187.5090  177.3050  145.9820 C   0  0  0  0  0  2  0  0  0  0  0  0
  185.7180  177.9300  144.3440 C   0  0  2  0  0  3  0  0  0  0  0  0
  183.9800  178.6820  145.8490 C   0  0  0  0  0  2  0  0  0  0  0  0
  185.4630  178.8800  146.8810 S   0  0  0  0  0  0  0  0  0  0  0  0
  184.4170  178.6940  144.4050 C   0  0  0  0  0  2  0  0  0  0  0  0
  186.5650  178.4040  145.5130 C   0  0  1  0  0  3  0  0  0  0  0  0
  186.3680  178.2030  143.1390 O   0  0  0  0  0  0  0  0  0  0  0  0
  185.6170  177.5410  142.1670 C   0  0  0  0  0  2  0  0  0  0  0  0
  185.7800  178.1800  140.9390 O   0  0  0  0  0  1  0  0  0  0  0  0
  1  7  2  0  0  0  0
  2  6  2  0  0  0  0
  2  3  1  0  0  0  0
  3  8  1  0  0  0  0
  3  1  1  0  0  0  0
  4  5  2  0  0  0  0
  4  1  1  0  0  0  0
  5 18  1  0  0  0  0
  6  4  1  0  0  0  0
  8 11  1  0  0  0  0
 10  9  1  0  0  0  0
 11  9  2  0  0  0  0
 12 13  1  0  0  0  0
 12  8  2  0  0  0  0
 13 10  2  0  0  0  0
 14 16  1  0  0  0  0
 14 17  1  0  0  0  0
 15  6  1  1  0  0  0
 16 15  1  0  0  0  0
 17 15  1  0  0  0  0
 19 24  1  6  0  0  0
 19 22  1  0  0  0  0
 19 23  1  0  0  0  0
 20 21  1  0  0  0  0
 22 20  1  0  0  0  0
 23 18  1  1  0  0  0
 23 21  1  0  0  0  0
 25 24  1  0  0  0  0
 26 25  1  0  0  0  0
M  END
>  <MODEL>
9

>  <REMARK>
 VINA RESULT:      -5.8      1.980      2.561
  Name = 
  6 active torsions:
  status: ('A' for Active; 'I' for Inactive)
    1  A    between atoms: C_2  and  N_10
    2  A    between atoms: C_3  and  O_6
    3  A    between atoms: O_6  and  C_18
    4  A    between atoms: C_11  and  C_21
    5  A    between atoms: C_11  and  N_24
    6  A    between atoms: C_12  and  C_25
                            x       y       z     vdW  Elec       q    Type
                         _______ _______ _______ _____ _____    ______ ____

>  <TORSDO>
F 6

$$$$
