=
 OpenBabel11072409073D

 47 51  0  0  1  0  0  0  0  0999 V2000
  195.5370  175.3050  145.7580 C   0  0  0  0  0  2  0  0  0  0  0  0
  194.1450  177.0770  146.5600 O   0  0  0  0  0  1  0  0  0  0  0  0
  194.2420  176.0920  145.5720 C   0  0  2  0  0  3  0  0  0  0  0  0
  192.1160  175.1750  146.7910 C   0  0  0  0  0  2  0  0  0  0  0  0
  191.6840  175.9730  145.5620 C   0  0  1  0  0  3  0  0  0  0  0  0
  192.9990  175.1770  145.5530 C   0  0  1  0  0  0  0  0  0  0  0  0
  193.4210  172.8150  145.6410 O   0  0  0  0  0  1  0  0  0  0  0  0
  193.0360  173.8500  144.7890 C   0  0  0  0  0  2  0  0  0  0  0  0
  190.8030  175.4000  143.3120 C   0  0  0  0  0  1  0  0  0  0  0  0
  190.4550  175.3970  144.7950 C   0  0  2  0  0  0  0  0  0  0  0  0
  188.5790  175.5750  147.2210 O   0  0  0  0  0  0  0  0  0  0  0  0
  185.3720  178.6450  146.2240 C   0  0  1  0  0  3  0  0  0  0  0  0
  188.3780  176.2210  146.1600 C   0  0  0  0  0  0  0  0  0  0  0  0
  185.8750  179.2740  144.8950 C   0  0  0  0  0  2  0  0  0  0  0  0
  184.2660  177.8330  145.9620 O   0  0  0  0  0  1  0  0  0  0  0  0
  188.6450  177.0670  144.0060 C   0  0  0  0  0  2  0  0  0  0  0  0
  186.4960  177.8290  146.9090 C   0  0  1  0  0  3  0  0  0  0  0  0
  187.5950  177.8590  144.7680 C   0  0  1  0  0  3  0  0  0  0  0  0
  186.4950  178.3260  144.0400 O   0  0  0  0  0  0  0  0  0  0  0  0
  185.9760  177.0640  147.9560 O   0  0  0  0  0  1  0  0  0  0  0  0
  187.1200  176.9320  145.8550 C   0  0  1  0  0  3  0  0  0  0  0  0
  189.2940  176.2750  145.0550 N   0  0  0  0  0  0  0  0  0  0  0  0
  189.6710  173.2230  143.9900 O   0  0  0  0  0  1  0  0  0  0  0  0
  190.0750  173.9370  145.1190 C   0  0  0  0  0  2  0  0  0  0  0  0
  196.1990  175.0540  144.4840 N   0  0  0  0  0  2  0  0  0  0  0  0
  196.7940  177.0430  143.4510 O   0  0  0  0  0  1  0  0  0  0  0  0
  195.7950  176.0690  143.5150 C   0  0  1  0  0  3  0  0  0  0  0  0
  195.8780  173.9390  142.1750 C   0  0  0  0  0  2  0  0  0  0  0  0
  193.9200  175.0150  140.2850 C   0  0  0  0  0  2  0  0  0  0  0  0
  195.6170  173.3180  140.8080 C   0  0  2  0  0  3  0  0  0  0  0  0
  194.2340  173.5960  140.3990 N   0  0  0  0  0  0  0  0  0  0  0  0
  194.1330  175.6770  141.6450 C   0  0  0  0  0  2  0  0  0  0  0  0
  193.1510  172.6830  140.6660 C   0  0  0  0  0  0  0  0  0  0  0  0
  195.5720  175.4430  142.1320 C   0  0  1  0  0  3  0  0  0  0  0  0
  195.9650  171.8380  140.7900 C   0  0  0  0  0  1  0  0  0  0  0  0
  193.2000  171.9300  141.6760 O   0  0  0  0  0  0  0  0  0  0  0  0
  192.2640  172.8720  138.4350 O   0  0  0  0  0  0  0  0  0  0  0  0
  191.9350  172.6200  139.7690 C   0  0  1  0  0  0  0  0  0  0  0  0
  191.8280  171.5620  138.1980 C   0  0  1  0  0  3  0  0  0  0  0  0
  191.4840  171.3160  139.5330 O   0  0  0  0  0  0  0  0  0  0  0  0
  190.9630  170.6980  136.3570 C   0  0  0  0  0  1  0  0  0  0  0  0
  190.6780  171.5750  137.4020 O   0  0  0  0  0  0  0  0  0  0  0  0
  190.8010  173.5290  140.2450 C   0  0  0  0  0  2  0  0  0  0  0  0
  189.7190  172.7630  140.6870 O   0  0  0  0  0  0  0  0  0  0  0  0
  188.8830  174.0060  138.9710 O   0  0  0  0  0  1  0  0  0  0  0  0
  188.5920  173.4310  140.2070 C   0  0  0  0  0  3  0  0  0  0  0  0
  188.2210  174.4290  141.1080 O   0  0  0  0  0  1  0  0  0  0  0  0
  3  1  1  0  0  0  0
  3  2  1  1  0  0  0
  5 10  1  6  0  0  0
  5  4  1  0  0  0  0
  6  8  1  6  0  0  0
  6  5  1  0  0  0  0
  6  3  1  0  0  0  0
  6  4  1  0  0  0  0
  8  7  1  0  0  0  0
 10  9  1  6  0  0  0
 10 22  1  0  0  0  0
 10 24  1  0  0  0  0
 12 15  1  6  0  0  0
 12 17  1  0  0  0  0
 13 11  2  0  0  0  0
 14 12  1  0  0  0  0
 16 22  1  0  0  0  0
 17 20  1  1  0  0  0
 18 16  1  6  0  0  0
 18 21  1  0  0  0  0
 19 18  1  0  0  0  0
 19 14  1  0  0  0  0
 21 13  1  1  0  0  0
 21 17  1  0  0  0  0
 22 13  1  0  0  0  0
 23 24  1  0  0  0  0
 25  1  1  0  0  0  0
 27 26  1  6  0  0  0
 27 25  1  0  0  0  0
 29 31  1  0  0  0  0
 29 32  1  0  0  0  0
 30 35  1  1  0  0  0
 30 28  1  0  0  0  0
 31 33  1  0  0  0  0
 31 30  1  0  0  0  0
 32 34  1  0  0  0  0
 33 36  2  0  0  0  0
 34 28  1  0  0  0  0
 34 27  1  1  0  0  0
 37 38  1  0  0  0  0
 38 43  1  1  0  0  0
 38 33  1  0  0  0  0
 39 42  1  6  0  0  0
 39 37  1  0  0  0  0
 39 40  1  0  0  0  0
 40 38  1  0  0  0  0
 41 42  1  0  0  0  0
 43 44  1  0  0  0  0
 45 46  1  0  0  0  0
 46 44  1  0  0  0  0
 46 47  1  0  0  0  0
M  END
>  <MODEL>
1

>  <REMARK>
 VINA RESULT:      -6.5      0.000      0.000
  Name = 
  14 active torsions:
  status: ('A' for Active; 'I' for Inactive)
    1  A    between atoms: N_14  and  C_25
    2  A    between atoms: N_14  and  C_41
    3  A    between atoms: C_16  and  C_45
    4  A    between atoms: O_18  and  C_28
    5  A    between atoms: O_18  and  C_36
    6  A    between atoms: C_19  and  C_24
    7  A    between atoms: C_19  and  C_36
    8  A    between atoms: C_22  and  O_34
    9  A    between atoms: C_25  and  C_31
   10  A    between atoms: C_35  and  C_45
   11  A    between atoms: C_38  and  C_47
   12  A    between atoms: C_40  and  C_41
   13  A    between atoms: C_40  and  C_47
   14  A    between atoms: N_43  and  C_45
                            x       y       z     vdW  Elec       q    Type
                         _______ _______ _______ _____ _____    ______ ____

>  <TORSDO>
F 14

$$$$
=
 OpenBabel11072409073D

 47 51  0  0  1  0  0  0  0  0999 V2000
  193.4630  172.9980  140.5450 C   0  0  0  0  0  2  0  0  0  0  0  0
  194.0230  174.5900  138.8510 O   0  0  0  0  0  1  0  0  0  0  0  0
  193.7210  174.4650  140.2100 C   0  0  2  0  0  3  0  0  0  0  0  0
  194.8780  176.6000  141.1840 C   0  0  0  0  0  2  0  0  0  0  0  0
  194.2420  175.8090  142.3260 C   0  0  1  0  0  3  0  0  0  0  0  0
  194.8200  175.0830  141.1010 C   0  0  1  0  0  0  0  0  0  0  0  0
  197.1160  174.9720  140.4070 O   0  0  0  0  0  1  0  0  0  0  0  0
  196.1730  174.3800  141.2470 C   0  0  0  0  0  2  0  0  0  0  0  0
  196.3200  176.6110  143.4260 C   0  0  0  0  0  1  0  0  0  0  0  0
  195.0550  175.7950  143.6560 C   0  0  2  0  0  0  0  0  0  0  0  0
  193.2530  173.3530  144.1360 O   0  0  0  0  0  0  0  0  0  0  0  0
  195.9640  169.8810  145.2760 C   0  0  1  0  0  3  0  0  0  0  0  0
  194.4990  173.3220  144.3150 C   0  0  0  0  0  0  0  0  0  0  0  0
  197.3920  170.4380  145.0210 C   0  0  0  0  0  2  0  0  0  0  0  0
  195.7460  169.7820  146.6520 O   0  0  0  0  0  1  0  0  0  0  0  0
  196.7320  173.9780  144.4140 C   0  0  0  0  0  2  0  0  0  0  0  0
  194.8920  170.7840  144.6170 C   0  0  1  0  0  3  0  0  0  0  0  0
  196.6110  172.4660  144.5180 C   0  0  1  0  0  3  0  0  0  0  0  0
  197.5140  171.8110  145.3620 O   0  0  0  0  0  0  0  0  0  0  0  0
  193.6160  170.4280  145.0580 O   0  0  0  0  0  1  0  0  0  0  0  0
  195.2050  172.2200  144.9980 C   0  0  1  0  0  3  0  0  0  0  0  0
  195.3950  174.3920  143.9770 N   0  0  0  0  0  0  0  0  0  0  0  0
  195.1540  177.4380  145.4680 O   0  0  0  0  0  1  0  0  0  0  0  0
  194.3700  176.4450  144.8770 C   0  0  0  0  0  2  0  0  0  0  0  0
  192.1450  172.8060  141.1380 N   0  0  0  0  0  2  0  0  0  0  0  0
  190.3930  173.5170  139.7950 O   0  0  0  0  0  1  0  0  0  0  0  0
  191.2830  173.9320  140.7870 C   0  0  1  0  0  3  0  0  0  0  0  0
  191.0680  175.7880  142.4760 C   0  0  0  0  0  2  0  0  0  0  0  0
  188.2680  175.0800  142.9430 C   0  0  0  0  0  2  0  0  0  0  0  0
  190.2740  176.2950  143.6730 C   0  0  2  0  0  3  0  0  0  0  0  0
  188.8490  176.3620  143.3250 N   0  0  0  0  0  0  0  0  0  0  0  0
  189.0110  174.5470  141.7200 C   0  0  0  0  0  2  0  0  0  0  0  0
  188.2340  177.5620  142.8140 C   0  0  0  0  0  0  0  0  0  0  0  0
  190.5140  174.4320  142.0170 C   0  0  1  0  0  3  0  0  0  0  0  0
  190.8290  177.6100  144.1970 C   0  0  0  0  0  1  0  0  0  0  0  0
  188.9210  178.3840  142.1490 O   0  0  0  0  0  0  0  0  0  0  0  0
  186.3220  178.9100  142.2440 O   0  0  0  0  0  0  0  0  0  0  0  0
  186.7670  177.8520  143.0400 C   0  0  1  0  0  0  0  0  0  0  0  0
  185.4800  177.9610  141.6510 C   0  0  1  0  0  3  0  0  0  0  0  0
  185.9160  176.9050  142.4600 O   0  0  0  0  0  0  0  0  0  0  0  0
  183.5040  178.2260  140.6960 C   0  0  0  0  0  1  0  0  0  0  0  0
  184.1430  178.2610  141.9350 O   0  0  0  0  0  0  0  0  0  0  0  0
  186.4310  178.0830  144.5140 C   0  0  0  0  0  2  0  0  0  0  0  0
  185.4760  177.1580  144.9440 O   0  0  0  0  0  0  0  0  0  0  0  0
  183.9050  178.7620  145.3270 O   0  0  0  0  0  1  0  0  0  0  0  0
  184.7490  177.8300  145.9270 C   0  0  0  0  0  3  0  0  0  0  0  0
  185.6270  178.4850  146.7910 O   0  0  0  0  0  1  0  0  0  0  0  0
  1 25  1  0  0  0  0
  3  2  1  6  0  0  0
  3  1  1  0  0  0  0
  3  6  1  0  0  0  0
  4  5  1  0  0  0  0
  5 10  1  1  0  0  0
  6  4  1  0  0  0  0
  6  8  1  1  0  0  0
  6  5  1  0  0  0  0
  7  8  1  0  0  0  0
 10  9  1  6  0  0  0
 10 22  1  0  0  0  0
 10 24  1  0  0  0  0
 11 13  2  0  0  0  0
 12 15  1  1  0  0  0
 14 12  1  0  0  0  0
 14 19  1  0  0  0  0
 17 21  1  0  0  0  0
 17 20  1  1  0  0  0
 17 12  1  0  0  0  0
 18 16  1  1  0  0  0
 18 21  1  0  0  0  0
 18 19  1  0  0  0  0
 21 13  1  6  0  0  0
 22 13  1  0  0  0  0
 22 16  1  0  0  0  0
 24 23  1  0  0  0  0
 27 26  1  6  0  0  0
 27 25  1  0  0  0  0
 28 30  1  0  0  0  0
 29 31  1  0  0  0  0
 30 35  1  6  0  0  0
 31 30  1  0  0  0  0
 32 34  1  0  0  0  0
 32 29  1  0  0  0  0
 33 38  1  0  0  0  0
 33 31  1  0  0  0  0
 34 27  1  6  0  0  0
 34 28  1  0  0  0  0
 36 33  2  0  0  0  0
 37 38  1  0  0  0  0
 38 43  1  1  0  0  0
 39 42  1  1  0  0  0
 39 37  1  0  0  0  0
 39 40  1  0  0  0  0
 40 38  1  0  0  0  0
 41 42  1  0  0  0  0
 43 44  1  0  0  0  0
 44 46  1  0  0  0  0
 45 46  1  0  0  0  0
 46 47  1  0  0  0  0
M  END
>  <MODEL>
2

>  <REMARK>
 VINA RESULT:      -6.5      2.373      8.275
  Name = 
  14 active torsions:
  status: ('A' for Active; 'I' for Inactive)
    1  A    between atoms: N_14  and  C_25
    2  A    between atoms: N_14  and  C_41
    3  A    between atoms: C_16  and  C_45
    4  A    between atoms: O_18  and  C_28
    5  A    between atoms: O_18  and  C_36
    6  A    between atoms: C_19  and  C_24
    7  A    between atoms: C_19  and  C_36
    8  A    between atoms: C_22  and  O_34
    9  A    between atoms: C_25  and  C_31
   10  A    between atoms: C_35  and  C_45
   11  A    between atoms: C_38  and  C_47
   12  A    between atoms: C_40  and  C_41
   13  A    between atoms: C_40  and  C_47
   14  A    between atoms: N_43  and  C_45
                            x       y       z     vdW  Elec       q    Type
                         _______ _______ _______ _____ _____    ______ ____

>  <TORSDO>
F 14

$$$$
=
 OpenBabel11072409073D

 47 51  0  0  1  0  0  0  0  0999 V2000
  194.4100  175.0780  145.8260 C   0  0  0  0  0  2  0  0  0  0  0  0
  194.2990  177.4580  145.6320 O   0  0  0  0  0  1  0  0  0  0  0  0
  193.6750  176.2750  145.2270 C   0  0  2  0  0  3  0  0  0  0  0  0
  191.3210  177.3930  145.0030 C   0  0  0  0  0  2  0  0  0  0  0  0
  191.2850  176.0140  144.3470 C   0  0  1  0  0  3  0  0  0  0  0  0
  192.1710  176.2710  145.5760 C   0  0  1  0  0  0  0  0  0  0  0  0
  191.5560  176.7870  147.8390 O   0  0  0  0  0  1  0  0  0  0  0  0
  191.7000  175.7380  146.9320 C   0  0  0  0  0  2  0  0  0  0  0  0
  189.6770  174.4830  143.2340 C   0  0  0  0  0  1  0  0  0  0  0  0
  189.9550  175.2230  144.5360 C   0  0  2  0  0  0  0  0  0  0  0  0
  188.3520  175.7470  147.1040 O   0  0  0  0  0  0  0  0  0  0  0  0
  185.2280  178.9060  146.1230 C   0  0  1  0  0  3  0  0  0  0  0  0
  188.0760  176.3010  146.0080 C   0  0  0  0  0  0  0  0  0  0  0  0
  185.6230  179.3740  144.6950 C   0  0  0  0  0  2  0  0  0  0  0  0
  184.0580  178.1450  146.0530 O   0  0  0  0  0  1  0  0  0  0  0  0
  188.1640  176.9220  143.7650 C   0  0  0  0  0  2  0  0  0  0  0  0
  186.3710  178.0890  146.7740 C   0  0  1  0  0  3  0  0  0  0  0  0
  187.2420  177.8480  144.5430 C   0  0  1  0  0  3  0  0  0  0  0  0
  186.1000  178.3120  143.8830 O   0  0  0  0  0  0  0  0  0  0  0  0
  185.9220  177.4600  147.9370 O   0  0  0  0  0  1  0  0  0  0  0  0
  186.8340  177.0590  145.7580 C   0  0  1  0  0  3  0  0  0  0  0  0
  188.8750  176.1930  144.8190 N   0  0  0  0  0  0  0  0  0  0  0  0
  189.7650  172.8520  145.1110 O   0  0  0  0  0  1  0  0  0  0  0  0
  189.9620  174.1340  145.6280 C   0  0  0  0  0  2  0  0  0  0  0  0
  194.9280  174.1930  144.7900 N   0  0  0  0  0  2  0  0  0  0  0  0
  193.3030  172.8380  145.7390 O   0  0  0  0  0  1  0  0  0  0  0  0
  194.5330  172.8170  145.0810 C   0  0  1  0  0  3  0  0  0  0  0  0
  193.4710  170.8140  143.9830 C   0  0  0  0  0  2  0  0  0  0  0  0
  193.8320  172.0290  141.3460 C   0  0  0  0  0  2  0  0  0  0  0  0
  193.3460  170.0280  142.6840 C   0  0  2  0  0  3  0  0  0  0  0  0
  192.9140  170.9260  141.6060 N   0  0  0  0  0  0  0  0  0  0  0  0
  193.9630  172.8700  142.6140 C   0  0  0  0  0  2  0  0  0  0  0  0
  191.5270  171.1050  141.2580 C   0  0  0  0  0  0  0  0  0  0  0  0
  194.4310  171.9960  143.7880 C   0  0  1  0  0  3  0  0  0  0  0  0
  192.4490  168.8110  142.8510 C   0  0  0  0  0  1  0  0  0  0  0  0
  190.6370  170.9670  142.1400 O   0  0  0  0  0  0  0  0  0  0  0  0
  192.1280  171.2360  138.9300 O   0  0  0  0  0  0  0  0  0  0  0  0
  191.1090  171.4790  139.8530 C   0  0  1  0  0  0  0  0  0  0  0  0
  191.2380  170.3150  138.3620 C   0  0  1  0  0  3  0  0  0  0  0  0
  190.2120  170.5710  139.2790 O   0  0  0  0  0  0  0  0  0  0  0  0
  191.0930  169.6410  136.2610 C   0  0  0  0  0  1  0  0  0  0  0  0
  190.8560  170.7410  137.0850 O   0  0  0  0  0  0  0  0  0  0  0  0
  190.5960  172.9160  139.7520 C   0  0  0  0  0  2  0  0  0  0  0  0
  189.2030  172.9430  139.8580 O   0  0  0  0  0  0  0  0  0  0  0  0
  188.1390  174.9430  140.0970 O   0  0  0  0  0  1  0  0  0  0  0  0
  188.8200  174.1150  139.2060 C   0  0  0  0  0  3  0  0  0  0  0  0
  187.9870  173.8010  138.1320 O   0  0  0  0  0  1  0  0  0  0  0  0
  3  6  1  0  0  0  0
  3  2  1  1  0  0  0
  3  1  1  0  0  0  0
  4  6  1  0  0  0  0
  5 10  1  1  0  0  0
  5  4  1  0  0  0  0
  5  6  1  0  0  0  0
  6  8  1  1  0  0  0
  8  7  1  0  0  0  0
 10  9  1  6  0  0  0
 10 22  1  0  0  0  0
 10 24  1  0  0  0  0
 12 15  1  6  0  0  0
 12 17  1  0  0  0  0
 13 11  2  0  0  0  0
 14 12  1  0  0  0  0
 16 22  1  0  0  0  0
 17 20  1  1  0  0  0
 18 16  1  6  0  0  0
 18 21  1  0  0  0  0
 19 18  1  0  0  0  0
 19 14  1  0  0  0  0
 21 13  1  1  0  0  0
 21 17  1  0  0  0  0
 22 13  1  0  0  0  0
 23 24  1  0  0  0  0
 25 27  1  0  0  0  0
 25  1  1  0  0  0  0
 27 26  1  6  0  0  0
 29 31  1  0  0  0  0
 29 32  1  0  0  0  0
 30 35  1  1  0  0  0
 30 28  1  0  0  0  0
 31 30  1  0  0  0  0
 32 34  1  0  0  0  0
 33 31  1  0  0  0  0
 33 36  2  0  0  0  0
 34 28  1  0  0  0  0
 34 27  1  1  0  0  0
 37 38  1  0  0  0  0
 38 43  1  6  0  0  0
 38 33  1  0  0  0  0
 39 42  1  6  0  0  0
 39 37  1  0  0  0  0
 39 40  1  0  0  0  0
 40 38  1  0  0  0  0
 41 42  1  0  0  0  0
 43 44  1  0  0  0  0
 46 44  1  0  0  0  0
 46 45  1  0  0  0  0
 47 46  1  0  0  0  0
M  END
>  <MODEL>
3

>  <REMARK>
 VINA RESULT:      -6.4      1.580      2.334
  Name = 
  14 active torsions:
  status: ('A' for Active; 'I' for Inactive)
    1  A    between atoms: N_14  and  C_25
    2  A    between atoms: N_14  and  C_41
    3  A    between atoms: C_16  and  C_45
    4  A    between atoms: O_18  and  C_28
    5  A    between atoms: O_18  and  C_36
    6  A    between atoms: C_19  and  C_24
    7  A    between atoms: C_19  and  C_36
    8  A    between atoms: C_22  and  O_34
    9  A    between atoms: C_25  and  C_31
   10  A    between atoms: C_35  and  C_45
   11  A    between atoms: C_38  and  C_47
   12  A    between atoms: C_40  and  C_41
   13  A    between atoms: C_40  and  C_47
   14  A    between atoms: N_43  and  C_45
                            x       y       z     vdW  Elec       q    Type
                         _______ _______ _______ _____ _____    ______ ____

>  <TORSDO>
F 14

$$$$
=
 OpenBabel11072409073D

 47 51  0  0  1  0  0  0  0  0999 V2000
  194.4450  175.5080  143.9680 C   0  0  0  0  0  2  0  0  0  0  0  0
  196.8000  175.4030  143.5690 O   0  0  0  0  0  1  0  0  0  0  0  0
  195.5990  174.7230  143.3490 C   0  0  2  0  0  3  0  0  0  0  0  0
  196.4460  173.6420  141.1220 C   0  0  0  0  0  2  0  0  0  0  0  0
  195.1660  172.9360  141.5670 C   0  0  1  0  0  3  0  0  0  0  0  0
  195.3710  174.4330  141.8500 C   0  0  1  0  0  0  0  0  0  0  0  0
  195.3210  176.6460  140.9200 O   0  0  0  0  0  1  0  0  0  0  0  0
  194.6180  175.4440  140.9800 C   0  0  0  0  0  2  0  0  0  0  0  0
  194.6540  173.2490  139.1560 C   0  0  0  0  0  1  0  0  0  0  0  0
  194.2040  172.5170  140.4140 C   0  0  2  0  0  0  0  0  0  0  0  0
  192.4740  171.7610  142.8380 O   0  0  0  0  0  0  0  0  0  0  0  0
  188.4020  173.7030  142.2490 C   0  0  1  0  0  3  0  0  0  0  0  0
  192.0290  172.4320  141.8710 C   0  0  0  0  0  0  0  0  0  0  0  0
  188.6170  174.6250  141.0160 C   0  0  0  0  0  2  0  0  0  0  0  0
  187.6120  172.6130  141.8780 O   0  0  0  0  0  1  0  0  0  0  0  0
  191.9160  173.5830  139.8490 C   0  0  0  0  0  2  0  0  0  0  0  0
  189.7580  173.2240  142.8230 C   0  0  1  0  0  3  0  0  0  0  0  0
  190.6970  173.8830  140.7070 C   0  0  1  0  0  3  0  0  0  0  0  0
  189.4770  174.0490  140.0440 O   0  0  0  0  0  0  0  0  0  0  0  0
  189.5600  172.2050  143.7570 O   0  0  0  0  0  1  0  0  0  0  0  0
  190.5970  172.7220  141.6610 C   0  0  1  0  0  3  0  0  0  0  0  0
  192.8310  172.9240  140.7850 N   0  0  0  0  0  0  0  0  0  0  0  0
  193.5080  170.7620  138.8560 O   0  0  0  0  0  1  0  0  0  0  0  0
  194.2090  171.0210  140.0360 C   0  0  0  0  0  2  0  0  0  0  0  0
  193.4720  174.6240  144.5980 N   0  0  0  0  0  2  0  0  0  0  0  0
  194.5310  175.6940  146.3610 O   0  0  0  0  0  1  0  0  0  0  0  0
  193.6410  174.6660  146.0490 C   0  0  1  0  0  3  0  0  0  0  0  0
  192.1930  176.3460  147.2400 C   0  0  0  0  0  2  0  0  0  0  0  0
  189.7910  174.8450  146.5040 C   0  0  0  0  0  2  0  0  0  0  0  0
  190.8370  176.5770  147.8970 C   0  0  2  0  0  3  0  0  0  0  0  0
  189.7680  176.2330  146.9510 N   0  0  0  0  0  0  0  0  0  0  0  0
  191.1220  174.5750  145.8060 C   0  0  0  0  0  2  0  0  0  0  0  0
  189.1580  177.2110  146.0850 C   0  0  0  0  0  0  0  0  0  0  0  0
  192.2940  174.8970  146.7460 C   0  0  1  0  0  3  0  0  0  0  0  0
  190.7180  177.9870  148.4540 C   0  0  0  0  0  1  0  0  0  0  0  0
  189.8240  178.2100  145.7000 O   0  0  0  0  0  0  0  0  0  0  0  0
  186.9660  176.3030  146.4970 O   0  0  0  0  0  0  0  0  0  0  0  0
  187.7310  177.0580  145.6060 C   0  0  1  0  0  0  0  0  0  0  0  0
  186.2080  177.4690  146.6580 C   0  0  1  0  0  3  0  0  0  0  0  0
  186.9670  178.2210  145.7520 O   0  0  0  0  0  0  0  0  0  0  0  0
  184.1690  178.3240  146.6920 C   0  0  0  0  0  1  0  0  0  0  0  0
  184.9160  177.2760  146.1550 O   0  0  0  0  0  0  0  0  0  0  0  0
  187.6430  176.5010  144.1840 C   0  0  0  0  0  2  0  0  0  0  0  0
  187.8740  177.5150  143.2510 O   0  0  0  0  0  0  0  0  0  0  0  0
  186.0220  178.7140  142.6860 O   0  0  0  0  0  1  0  0  0  0  0  0
  186.7270  177.5340  142.4570 C   0  0  0  0  0  3  0  0  0  0  0  0
  185.9220  176.4410  142.7730 O   0  0  0  0  0  1  0  0  0  0  0  0
  1 25  1  0  0  0  0
  3  2  1  6  0  0  0
  3  1  1  0  0  0  0
  4  5  1  0  0  0  0
  4  6  1  0  0  0  0
  5 10  1  6  0  0  0
  5  6  1  0  0  0  0
  6  8  1  6  0  0  0
  6  3  1  0  0  0  0
  7  8  1  0  0  0  0
 10  9  1  6  0  0  0
 10 22  1  0  0  0  0
 12 15  1  6  0  0  0
 12 17  1  0  0  0  0
 13 11  2  0  0  0  0
 14 12  1  0  0  0  0
 16 22  1  0  0  0  0
 17 20  1  1  0  0  0
 18 16  1  6  0  0  0
 18 21  1  0  0  0  0
 19 18  1  0  0  0  0
 19 14  1  0  0  0  0
 21 13  1  1  0  0  0
 21 17  1  0  0  0  0
 22 13  1  0  0  0  0
 23 24  1  0  0  0  0
 24 10  1  0  0  0  0
 25 27  1  0  0  0  0
 27 26  1  6  0  0  0
 28 30  1  0  0  0  0
 29 31  1  0  0  0  0
 30 35  1  6  0  0  0
 31 30  1  0  0  0  0
 32 29  1  0  0  0  0
 32 34  1  0  0  0  0
 33 31  1  0  0  0  0
 34 27  1  6  0  0  0
 34 28  1  0  0  0  0
 36 33  2  0  0  0  0
 37 39  1  0  0  0  0
 38 43  1  6  0  0  0
 38 40  1  0  0  0  0
 38 33  1  0  0  0  0
 38 37  1  0  0  0  0
 39 42  1  6  0  0  0
 40 39  1  0  0  0  0
 42 41  1  0  0  0  0
 44 43  1  0  0  0  0
 46 45  1  0  0  0  0
 46 47  1  0  0  0  0
 46 44  1  0  0  0  0
M  END
>  <MODEL>
4

>  <REMARK>
 VINA RESULT:      -6.2      1.774      7.250
  Name = 
  14 active torsions:
  status: ('A' for Active; 'I' for Inactive)
    1  A    between atoms: N_14  and  C_25
    2  A    between atoms: N_14  and  C_41
    3  A    between atoms: C_16  and  C_45
    4  A    between atoms: O_18  and  C_28
    5  A    between atoms: O_18  and  C_36
    6  A    between atoms: C_19  and  C_24
    7  A    between atoms: C_19  and  C_36
    8  A    between atoms: C_22  and  O_34
    9  A    between atoms: C_25  and  C_31
   10  A    between atoms: C_35  and  C_45
   11  A    between atoms: C_38  and  C_47
   12  A    between atoms: C_40  and  C_41
   13  A    between atoms: C_40  and  C_47
   14  A    between atoms: N_43  and  C_45
                            x       y       z     vdW  Elec       q    Type
                         _______ _______ _______ _____ _____    ______ ____

>  <TORSDO>
F 14

$$$$
=
 OpenBabel11072409073D

 47 51  0  0  1  0  0  0  0  0999 V2000
  195.6490  174.9000  145.8340 C   0  0  0  0  0  2  0  0  0  0  0  0
  196.6020  172.7440  145.4330 O   0  0  0  0  0  1  0  0  0  0  0  0
  195.5900  173.6130  145.0140 C   0  0  2  0  0  3  0  0  0  0  0  0
  195.5870  172.6800  142.5700 C   0  0  0  0  0  2  0  0  0  0  0  0
  194.3440  173.5430  142.7790 C   0  0  1  0  0  3  0  0  0  0  0  0
  195.6590  173.8830  143.4960 C   0  0  1  0  0  0  0  0  0  0  0  0
  197.8300  174.6780  142.8460 O   0  0  0  0  0  1  0  0  0  0  0  0
  196.4920  175.0530  142.9630 C   0  0  0  0  0  2  0  0  0  0  0  0
  193.8110  175.8470  142.0190 C   0  0  0  0  0  1  0  0  0  0  0  0
  193.9170  174.4020  141.5500 C   0  0  2  0  0  0  0  0  0  0  0  0
  193.1980  172.4300  139.3070 O   0  0  0  0  0  0  0  0  0  0  0  0
  188.6580  172.2870  139.0410 C   0  0  1  0  0  3  0  0  0  0  0  0
  192.3280  173.0870  139.9370 C   0  0  0  0  0  0  0  0  0  0  0  0
  188.1970  173.0970  140.2850 C   0  0  0  0  0  2  0  0  0  0  0  0
  188.4110  173.0340  137.8860 O   0  0  0  0  0  1  0  0  0  0  0  0
  191.3360  174.5480  141.4550 C   0  0  0  0  0  2  0  0  0  0  0  0
  190.1590  171.9220  139.1440 C   0  0  1  0  0  3  0  0  0  0  0  0
  190.2920  173.6460  140.8180 C   0  0  1  0  0  3  0  0  0  0  0  0
  189.0370  174.2080  140.5580 O   0  0  0  0  0  0  0  0  0  0  0  0
  190.6250  171.4260  137.9250 O   0  0  0  0  0  1  0  0  0  0  0  0
  190.9130  173.1830  139.5270 C   0  0  1  0  0  3  0  0  0  0  0  0
  192.6030  173.9140  141.0780 N   0  0  0  0  0  0  0  0  0  0  0  0
  194.7230  175.5420  139.5400 O   0  0  0  0  0  1  0  0  0  0  0  0
  194.9060  174.4320  140.3670 C   0  0  0  0  0  2  0  0  0  0  0  0
  194.3850  175.1620  146.5110 N   0  0  0  0  0  2  0  0  0  0  0  0
  194.7900  177.0990  145.3030 O   0  0  0  0  0  1  0  0  0  0  0  0
  193.8010  176.3970  145.9950 C   0  0  1  0  0  3  0  0  0  0  0  0
  191.8720  174.8400  145.5520 C   0  0  0  0  0  2  0  0  0  0  0  0
  190.4620  176.9520  144.0950 C   0  0  0  0  0  2  0  0  0  0  0  0
  190.6750  174.5680  144.6480 C   0  0  2  0  0  3  0  0  0  0  0  0
  189.8090  175.7530  144.6090 N   0  0  0  0  0  0  0  0  0  0  0  0
  191.6520  177.2870  144.9920 C   0  0  0  0  0  2  0  0  0  0  0  0
  188.6910  175.9230  145.5030 C   0  0  0  0  0  0  0  0  0  0  0  0
  192.6160  176.0920  145.0680 C   0  0  1  0  0  3  0  0  0  0  0  0
  189.9420  173.2990  145.0580 C   0  0  0  0  0  1  0  0  0  0  0  0
  188.7190  175.3990  146.6490 O   0  0  0  0  0  0  0  0  0  0  0  0
  186.3900  176.4860  145.9370 O   0  0  0  0  0  0  0  0  0  0  0  0
  187.4820  176.7410  145.1040 C   0  0  1  0  0  0  0  0  0  0  0  0
  186.4980  177.8340  146.3030 C   0  0  1  0  0  3  0  0  0  0  0  0
  187.5830  178.0920  145.4560 O   0  0  0  0  0  0  0  0  0  0  0  0
  184.5440  178.6080  146.9860 C   0  0  0  0  0  1  0  0  0  0  0  0
  185.3720  178.5410  145.8670 O   0  0  0  0  0  0  0  0  0  0  0  0
  187.1120  176.5690  143.6310 C   0  0  0  0  0  2  0  0  0  0  0  0
  185.7240  176.6000  143.4730 O   0  0  0  0  0  0  0  0  0  0  0  0
  186.3990  178.5310  142.4700 O   0  0  0  0  0  1  0  0  0  0  0  0
  185.5090  177.4610  142.3960 C   0  0  0  0  0  3  0  0  0  0  0  0
  184.2000  177.9410  142.4360 O   0  0  0  0  0  1  0  0  0  0  0  0
  1 25  1  0  0  0  0
  3  2  1  1  0  0  0
  3  1  1  0  0  0  0
  4  5  1  0  0  0  0
  4  6  1  0  0  0  0
  5 10  1  6  0  0  0
  5  6  1  0  0  0  0
  6  8  1  6  0  0  0
  6  3  1  0  0  0  0
  7  8  1  0  0  0  0
 10  9  1  1  0  0  0
 11 13  2  0  0  0  0
 12 15  1  6  0  0  0
 12 17  1  0  0  0  0
 12 14  1  0  0  0  0
 13 22  1  0  0  0  0
 14 19  1  0  0  0  0
 17 20  1  6  0  0  0
 17 21  1  0  0  0  0
 18 16  1  6  0  0  0
 19 18  1  0  0  0  0
 21 13  1  1  0  0  0
 21 18  1  0  0  0  0
 22 16  1  0  0  0  0
 22 10  1  0  0  0  0
 23 24  1  0  0  0  0
 24 10  1  0  0  0  0
 27 26  1  6  0  0  0
 27 25  1  0  0  0  0
 29 31  1  0  0  0  0
 29 32  1  0  0  0  0
 30 35  1  1  0  0  0
 30 28  1  0  0  0  0
 31 30  1  0  0  0  0
 31 33  1  0  0  0  0
 32 34  1  0  0  0  0
 33 36  2  0  0  0  0
 34 28  1  0  0  0  0
 34 27  1  1  0  0  0
 37 39  1  0  0  0  0
 38 43  1  6  0  0  0
 38 40  1  0  0  0  0
 38 33  1  0  0  0  0
 38 37  1  0  0  0  0
 39 42  1  6  0  0  0
 40 39  1  0  0  0  0
 42 41  1  0  0  0  0
 44 43  1  0  0  0  0
 46 47  1  0  0  0  0
 46 45  1  0  0  0  0
 46 44  1  0  0  0  0
M  END
>  <MODEL>
5

>  <REMARK>
 VINA RESULT:      -6.2      1.634      7.266
  Name = 
  14 active torsions:
  status: ('A' for Active; 'I' for Inactive)
    1  A    between atoms: N_14  and  C_25
    2  A    between atoms: N_14  and  C_41
    3  A    between atoms: C_16  and  C_45
    4  A    between atoms: O_18  and  C_28
    5  A    between atoms: O_18  and  C_36
    6  A    between atoms: C_19  and  C_24
    7  A    between atoms: C_19  and  C_36
    8  A    between atoms: C_22  and  O_34
    9  A    between atoms: C_25  and  C_31
   10  A    between atoms: C_35  and  C_45
   11  A    between atoms: C_38  and  C_47
   12  A    between atoms: C_40  and  C_41
   13  A    between atoms: C_40  and  C_47
   14  A    between atoms: N_43  and  C_45
                            x       y       z     vdW  Elec       q    Type
                         _______ _______ _______ _____ _____    ______ ____

>  <TORSDO>
F 14

$$$$
=
 OpenBabel11072409073D

 47 51  0  0  1  0  0  0  0  0999 V2000
  195.3470  174.4370  146.0030 C   0  0  0  0  0  2  0  0  0  0  0  0
  196.3980  173.8580  143.9350 O   0  0  0  0  0  1  0  0  0  0  0  0
  195.9700  173.3290  145.1560 C   0  0  2  0  0  3  0  0  0  0  0  0
  193.5930  172.2870  145.4840 C   0  0  0  0  0  2  0  0  0  0  0  0
  193.8630  172.4590  143.9900 C   0  0  1  0  0  3  0  0  0  0  0  0
  195.0110  172.1350  144.9590 C   0  0  1  0  0  0  0  0  0  0  0  0
  195.3590  170.1360  146.2420 O   0  0  0  0  0  1  0  0  0  0  0  0
  195.5550  170.7040  144.9830 C   0  0  0  0  0  2  0  0  0  0  0  0
  194.4890  170.7290  142.3220 C   0  0  0  0  0  1  0  0  0  0  0  0
  193.3080  171.3230  143.0800 C   0  0  2  0  0  0  0  0  0  0  0  0
  190.5820  172.6480  143.5820 O   0  0  0  0  0  0  0  0  0  0  0  0
  188.8090  173.6680  139.5180 C   0  0  1  0  0  3  0  0  0  0  0  0
  191.0160  172.4080  142.4250 C   0  0  0  0  0  0  0  0  0  0  0  0
  189.9760  173.3800  138.5310 C   0  0  0  0  0  2  0  0  0  0  0  0
  187.8290  172.6830  139.3730 O   0  0  0  0  0  1  0  0  0  0  0  0
  192.4010  171.7070  140.6890 C   0  0  0  0  0  2  0  0  0  0  0  0
  189.3200  173.7190  140.9780 C   0  0  1  0  0  3  0  0  0  0  0  0
  191.2760  172.5800  140.1580 C   0  0  1  0  0  3  0  0  0  0  0  0
  190.7440  172.2470  138.9080 O   0  0  0  0  0  0  0  0  0  0  0  0
  188.2460  173.7220  141.8710 O   0  0  0  0  0  1  0  0  0  0  0  0
  190.1940  172.4970  141.2020 C   0  0  1  0  0  3  0  0  0  0  0  0
  192.3350  171.9170  142.1370 N   0  0  0  0  0  0  0  0  0  0  0  0
  192.3690  169.0660  142.9470 O   0  0  0  0  0  1  0  0  0  0  0  0
  192.6520  170.1300  143.8060 C   0  0  0  0  0  2  0  0  0  0  0  0
  195.1270  175.6490  145.2240 N   0  0  0  0  0  2  0  0  0  0  0  0
  194.0890  177.7180  145.3580 O   0  0  0  0  0  1  0  0  0  0  0  0
  194.0000  176.3910  145.7830 C   0  0  1  0  0  3  0  0  0  0  0  0
  191.7580  175.5380  146.5480 C   0  0  0  0  0  2  0  0  0  0  0  0
  190.6200  176.0660  143.9040 C   0  0  0  0  0  2  0  0  0  0  0  0
  190.4230  174.9630  146.0890 C   0  0  2  0  0  3  0  0  0  0  0  0
  189.8140  175.8630  145.1020 N   0  0  0  0  0  0  0  0  0  0  0  0
  191.9600  176.6760  144.3100 C   0  0  0  0  0  2  0  0  0  0  0  0
  188.8790  176.8960  145.4700 C   0  0  0  0  0  0  0  0  0  0  0  0
  192.6680  175.7760  145.3350 C   0  0  1  0  0  3  0  0  0  0  0  0
  189.5110  174.6560  147.2680 C   0  0  0  0  0  1  0  0  0  0  0  0
  188.9520  177.4300  146.6100 O   0  0  0  0  0  0  0  0  0  0  0  0
  188.3670  178.1230  143.4620 O   0  0  0  0  0  0  0  0  0  0  0  0
  187.8170  177.3770  144.5070 C   0  0  1  0  0  0  0  0  0  0  0  0
  187.8830  177.1050  142.6310 C   0  0  1  0  0  3  0  0  0  0  0  0
  187.3180  176.3660  143.6780 O   0  0  0  0  0  0  0  0  0  0  0  0
  187.0730  176.9570  140.5790 C   0  0  0  0  0  1  0  0  0  0  0  0
  186.8740  177.6030  141.7990 O   0  0  0  0  0  0  0  0  0  0  0  0
  186.6890  178.1400  145.2040 C   0  0  0  0  0  2  0  0  0  0  0  0
  185.7280  177.2490  145.6890 O   0  0  0  0  0  0  0  0  0  0  0  0
  184.5040  179.0600  145.0490 O   0  0  0  0  0  1  0  0  0  0  0  0
  184.6280  178.0490  146.0000 C   0  0  0  0  0  3  0  0  0  0  0  0
  184.8050  178.6150  147.2620 O   0  0  0  0  0  1  0  0  0  0  0  0
  3  2  1  6  0  0  0
  3  1  1  0  0  0  0
  5 10  1  6  0  0  0
  5  6  1  0  0  0  0
  5  4  1  0  0  0  0
  6  8  1  6  0  0  0
  6  3  1  0  0  0  0
  6  4  1  0  0  0  0
  8  7  1  0  0  0  0
 10  9  1  6  0  0  0
 10 24  1  0  0  0  0
 12 15  1  1  0  0  0
 12 17  1  0  0  0  0
 13 11  2  0  0  0  0
 14 19  1  0  0  0  0
 14 12  1  0  0  0  0
 16 22  1  0  0  0  0
 17 21  1  0  0  0  0
 17 20  1  1  0  0  0
 18 16  1  1  0  0  0
 18 21  1  0  0  0  0
 19 18  1  0  0  0  0
 21 13  1  1  0  0  0
 22 13  1  0  0  0  0
 22 10  1  0  0  0  0
 23 24  1  0  0  0  0
 25 27  1  0  0  0  0
 25  1  1  0  0  0  0
 27 26  1  6  0  0  0
 29 32  1  0  0  0  0
 29 31  1  0  0  0  0
 30 28  1  0  0  0  0
 30 35  1  1  0  0  0
 31 33  1  0  0  0  0
 31 30  1  0  0  0  0
 32 34  1  0  0  0  0
 33 36  2  0  0  0  0
 34 27  1  1  0  0  0
 34 28  1  0  0  0  0
 37 38  1  0  0  0  0
 38 43  1  1  0  0  0
 38 33  1  0  0  0  0
 39 42  1  6  0  0  0
 39 37  1  0  0  0  0
 39 40  1  0  0  0  0
 40 38  1  0  0  0  0
 41 42  1  0  0  0  0
 43 44  1  0  0  0  0
 44 46  1  0  0  0  0
 45 46  1  0  0  0  0
 46 47  1  0  0  0  0
M  END
>  <MODEL>
6

>  <REMARK>
 VINA RESULT:      -6.2      2.033      6.720
  Name = 
  14 active torsions:
  status: ('A' for Active; 'I' for Inactive)
    1  A    between atoms: N_14  and  C_25
    2  A    between atoms: N_14  and  C_41
    3  A    between atoms: C_16  and  C_45
    4  A    between atoms: O_18  and  C_28
    5  A    between atoms: O_18  and  C_36
    6  A    between atoms: C_19  and  C_24
    7  A    between atoms: C_19  and  C_36
    8  A    between atoms: C_22  and  O_34
    9  A    between atoms: C_25  and  C_31
   10  A    between atoms: C_35  and  C_45
   11  A    between atoms: C_38  and  C_47
   12  A    between atoms: C_40  and  C_41
   13  A    between atoms: C_40  and  C_47
   14  A    between atoms: N_43  and  C_45
                            x       y       z     vdW  Elec       q    Type
                         _______ _______ _______ _____ _____    ______ ____

>  <TORSDO>
F 14

$$$$
=
 OpenBabel11072409073D

 47 51  0  0  1  0  0  0  0  0999 V2000
  194.1720  174.6470  145.7380 C   0  0  0  0  0  2  0  0  0  0  0  0
  194.2310  177.0360  145.8320 O   0  0  0  0  0  1  0  0  0  0  0  0
  193.5300  175.9570  145.2850 C   0  0  2  0  0  3  0  0  0  0  0  0
  191.2460  177.2220  145.1200 C   0  0  0  0  0  2  0  0  0  0  0  0
  191.1360  175.8890  144.3800 C   0  0  1  0  0  3  0  0  0  0  0  0
  192.0260  176.0190  145.6260 C   0  0  1  0  0  0  0  0  0  0  0  0
  191.2940  176.4510  147.8730 O   0  0  0  0  0  1  0  0  0  0  0  0
  191.5140  175.4320  146.9460 C   0  0  0  0  0  2  0  0  0  0  0  0
  189.4620  174.5050  143.1750 C   0  0  0  0  0  1  0  0  0  0  0  0
  189.7610  175.1670  144.5140 C   0  0  2  0  0  0  0  0  0  0  0  0
  188.2210  175.7200  147.1150 O   0  0  0  0  0  0  0  0  0  0  0  0
  185.2380  179.0400  146.2350 C   0  0  1  0  0  3  0  0  0  0  0  0
  187.9570  176.3060  146.0320 C   0  0  0  0  0  0  0  0  0  0  0  0
  185.6350  179.5150  144.8090 C   0  0  0  0  0  2  0  0  0  0  0  0
  184.0330  178.3370  146.1680 O   0  0  0  0  0  1  0  0  0  0  0  0
  188.0430  176.9630  143.7990 C   0  0  0  0  0  2  0  0  0  0  0  0
  186.3500  178.1590  146.8540 C   0  0  1  0  0  3  0  0  0  0  0  0
  187.1770  177.9160  144.6060 C   0  0  1  0  0  3  0  0  0  0  0  0
  186.0490  178.4460  143.9710 O   0  0  0  0  0  0  0  0  0  0  0  0
  185.8880  177.5320  148.0130 O   0  0  0  0  0  1  0  0  0  0  0  0
  186.7490  177.1260  145.8140 C   0  0  1  0  0  3  0  0  0  0  0  0
  188.7330  176.1820  144.8300 N   0  0  0  0  0  0  0  0  0  0  0  0
  189.6980  172.7620  144.9650 O   0  0  0  0  0  1  0  0  0  0  0  0
  189.6910  174.0280  145.5530 C   0  0  0  0  0  2  0  0  0  0  0  0
  193.9580  173.5810  144.7670 N   0  0  0  0  0  2  0  0  0  0  0  0
  195.8000  174.2310  143.5170 O   0  0  0  0  0  1  0  0  0  0  0  0
  194.4220  174.0180  143.4520 C   0  0  1  0  0  3  0  0  0  0  0  0
  193.2650  171.8290  142.9940 C   0  0  0  0  0  2  0  0  0  0  0  0
  192.9920  172.5300  140.1660 C   0  0  0  0  0  2  0  0  0  0  0  0
  192.9120  170.8100  141.9170 C   0  0  2  0  0  3  0  0  0  0  0  0
  192.2130  171.4820  140.8160 N   0  0  0  0  0  0  0  0  0  0  0  0
  193.3410  173.5970  141.2010 C   0  0  0  0  0  2  0  0  0  0  0  0
  190.7750  171.5710  140.7520 C   0  0  0  0  0  0  0  0  0  0  0  0
  194.0950  172.9670  142.3830 C   0  0  1  0  0  3  0  0  0  0  0  0
  192.1390  169.6330  142.4930 C   0  0  0  0  0  1  0  0  0  0  0  0
  190.1010  171.5880  141.8170 O   0  0  0  0  0  0  0  0  0  0  0  0
  188.7640  172.1900  139.5820 O   0  0  0  0  0  0  0  0  0  0  0  0
  190.0490  171.6670  139.4280 C   0  0  1  0  0  0  0  0  0  0  0  0
  189.2210  173.2470  138.7840 C   0  0  1  0  0  3  0  0  0  0  0  0
  190.5050  172.7130  138.6180 O   0  0  0  0  0  0  0  0  0  0  0  0
  188.2010  174.5880  137.3540 C   0  0  0  0  0  1  0  0  0  0  0  0
  188.5430  173.2530  137.5600 O   0  0  0  0  0  0  0  0  0  0  0  0
  190.0240  170.3390  138.6710 C   0  0  0  0  0  2  0  0  0  0  0  0
  190.8380  170.4120  137.5370 O   0  0  0  0  0  0  0  0  0  0  0  0
  191.0510  168.3420  138.4640 O   0  0  0  0  0  1  0  0  0  0  0  0
  191.6300  169.2650  137.5950 C   0  0  0  0  0  3  0  0  0  0  0  0
  192.9040  169.6000  138.0550 O   0  0  0  0  0  1  0  0  0  0  0  0
  3  6  1  0  0  0  0
  3  1  1  0  0  0  0
  3  2  1  1  0  0  0
  4  6  1  0  0  0  0
  5 10  1  1  0  0  0
  5  4  1  0  0  0  0
  5  6  1  0  0  0  0
  6  8  1  1  0  0  0
  8  7  1  0  0  0  0
 10  9  1  6  0  0  0
 10 22  1  0  0  0  0
 10 24  1  0  0  0  0
 12 15  1  6  0  0  0
 12 17  1  0  0  0  0
 13 11  2  0  0  0  0
 14 12  1  0  0  0  0
 16 22  1  0  0  0  0
 17 20  1  1  0  0  0
 18 16  1  6  0  0  0
 18 21  1  0  0  0  0
 19 18  1  0  0  0  0
 19 14  1  0  0  0  0
 21 13  1  1  0  0  0
 21 17  1  0  0  0  0
 22 13  1  0  0  0  0
 23 24  1  0  0  0  0
 25  1  1  0  0  0  0
 27 26  1  1  0  0  0
 27 25  1  0  0  0  0
 29 31  1  0  0  0  0
 29 32  1  0  0  0  0
 30 35  1  1  0  0  0
 30 28  1  0  0  0  0
 31 30  1  0  0  0  0
 32 34  1  0  0  0  0
 33 31  1  0  0  0  0
 33 36  2  0  0  0  0
 34 28  1  0  0  0  0
 34 27  1  1  0  0  0
 38 43  1  6  0  0  0
 38 37  1  0  0  0  0
 38 33  1  0  0  0  0
 39 42  1  6  0  0  0
 39 37  1  0  0  0  0
 40 39  1  0  0  0  0
 40 38  1  0  0  0  0
 41 42  1  0  0  0  0
 44 46  1  0  0  0  0
 44 43  1  0  0  0  0
 46 47  1  0  0  0  0
 46 45  1  0  0  0  0
M  END
>  <MODEL>
7

>  <REMARK>
 VINA RESULT:      -6.1      1.725      2.881
  Name = 
  14 active torsions:
  status: ('A' for Active; 'I' for Inactive)
    1  A    between atoms: N_14  and  C_25
    2  A    between atoms: N_14  and  C_41
    3  A    between atoms: C_16  and  C_45
    4  A    between atoms: O_18  and  C_28
    5  A    between atoms: O_18  and  C_36
    6  A    between atoms: C_19  and  C_24
    7  A    between atoms: C_19  and  C_36
    8  A    between atoms: C_22  and  O_34
    9  A    between atoms: C_25  and  C_31
   10  A    between atoms: C_35  and  C_45
   11  A    between atoms: C_38  and  C_47
   12  A    between atoms: C_40  and  C_41
   13  A    between atoms: C_40  and  C_47
   14  A    between atoms: N_43  and  C_45
                            x       y       z     vdW  Elec       q    Type
                         _______ _______ _______ _____ _____    ______ ____

>  <TORSDO>
F 14

$$$$
=
 OpenBabel11072409073D

 47 51  0  0  1  0  0  0  0  0999 V2000
  195.2930  176.3210  144.7290 C   0  0  0  0  0  2  0  0  0  0  0  0
  194.5420  177.1670  146.8360 O   0  0  0  0  0  1  0  0  0  0  0  0
  194.1190  176.8680  145.5370 C   0  0  2  0  0  3  0  0  0  0  0  0
  191.9910  175.9440  146.7460 C   0  0  0  0  0  2  0  0  0  0  0  0
  191.5690  176.6540  145.4610 C   0  0  1  0  0  3  0  0  0  0  0  0
  192.9100  175.9080  145.5360 C   0  0  1  0  0  0  0  0  0  0  0  0
  193.4400  173.5770  145.7660 O   0  0  0  0  0  1  0  0  0  0  0  0
  193.0180  174.5420  144.8520 C   0  0  0  0  0  2  0  0  0  0  0  0
  190.7250  176.0330  143.2090 C   0  0  0  0  0  1  0  0  0  0  0  0
  190.3850  175.9910  144.6930 C   0  0  2  0  0  0  0  0  0  0  0  0
  188.6410  176.1730  147.2160 O   0  0  0  0  0  0  0  0  0  0  0  0
  185.0980  178.8460  146.2150 C   0  0  1  0  0  3  0  0  0  0  0  0
  188.3180  176.7160  146.1270 C   0  0  0  0  0  0  0  0  0  0  0  0
  185.4610  179.4190  144.8160 C   0  0  0  0  0  2  0  0  0  0  0  0
  184.0630  177.9180  146.0800 O   0  0  0  0  0  1  0  0  0  0  0  0
  188.3780  177.4210  143.9080 C   0  0  0  0  0  2  0  0  0  0  0  0
  186.3330  178.1930  146.8820 C   0  0  1  0  0  3  0  0  0  0  0  0
  187.3010  178.1660  144.6780 C   0  0  1  0  0  3  0  0  0  0  0  0
  186.1210  178.4720  143.9910 O   0  0  0  0  0  0  0  0  0  0  0  0
  185.9500  177.4630  148.0090 O   0  0  0  0  0  1  0  0  0  0  0  0
  186.9810  177.2820  145.8550 C   0  0  1  0  0  3  0  0  0  0  0  0
  189.1600  176.7730  144.9650 N   0  0  0  0  0  0  0  0  0  0  0  0
  189.3160  173.8860  144.0470 O   0  0  0  0  0  1  0  0  0  0  0  0
  190.1220  174.5040  145.0060 C   0  0  0  0  0  2  0  0  0  0  0  0
  195.1090  176.5400  143.3000 N   0  0  0  0  0  2  0  0  0  0  0  0
  197.1300  175.4190  143.4910 O   0  0  0  0  0  1  0  0  0  0  0  0
  196.2540  175.9980  142.5710 C   0  0  1  0  0  3  0  0  0  0  0  0
  195.7970  173.5540  142.1680 C   0  0  0  0  0  2  0  0  0  0  0  0
  193.9490  174.2260  140.0000 C   0  0  0  0  0  2  0  0  0  0  0  0
  195.3060  172.5320  141.1500 C   0  0  2  0  0  3  0  0  0  0  0  0
  193.9790  172.9250  140.6590 N   0  0  0  0  0  0  0  0  0  0  0  0
  194.4010  175.2920  140.9960 C   0  0  0  0  0  2  0  0  0  0  0  0
  192.7590  172.4420  141.2570 C   0  0  0  0  0  0  0  0  0  0  0  0
  195.7980  174.9550  141.5410 C   0  0  1  0  0  3  0  0  0  0  0  0
  195.3460  171.1190  141.7120 C   0  0  0  0  0  1  0  0  0  0  0  0
  192.7380  172.1400  142.4810 O   0  0  0  0  0  0  0  0  0  0  0  0
  190.3520  172.3940  141.2590 O   0  0  0  0  0  0  0  0  0  0  0  0
  191.4870  172.3070  140.4500 C   0  0  1  0  0  0  0  0  0  0  0  0
  190.0500  173.5440  140.5190 C   0  0  1  0  0  3  0  0  0  0  0  0
  191.1810  173.4470  139.6980 O   0  0  0  0  0  0  0  0  0  0  0  0
  188.1920  174.5410  139.8570 C   0  0  0  0  0  1  0  0  0  0  0  0
  188.8910  173.3390  139.7630 O   0  0  0  0  0  0  0  0  0  0  0  0
  191.4630  171.0430  139.5910 C   0  0  0  0  0  2  0  0  0  0  0  0
  191.6800  171.3650  138.2480 O   0  0  0  0  0  0  0  0  0  0  0  0
  193.1390  169.7470  138.9140 O   0  0  0  0  0  1  0  0  0  0  0  0
  192.8020  170.6210  137.8820 C   0  0  0  0  0  3  0  0  0  0  0  0
  193.8720  171.4810  137.6330 O   0  0  0  0  0  1  0  0  0  0  0  0
  1  3  1  0  0  0  0
  3  2  1  1  0  0  0
  5 10  1  6  0  0  0
  5  6  1  0  0  0  0
  5  4  1  0  0  0  0
  6  8  1  6  0  0  0
  6  3  1  0  0  0  0
  6  4  1  0  0  0  0
  8  7  1  0  0  0  0
 10  9  1  6  0  0  0
 10 22  1  0  0  0  0
 10 24  1  0  0  0  0
 12 15  1  6  0  0  0
 12 17  1  0  0  0  0
 13 11  2  0  0  0  0
 14 12  1  0  0  0  0
 16 22  1  0  0  0  0
 17 20  1  1  0  0  0
 18 16  1  6  0  0  0
 18 21  1  0  0  0  0
 19 18  1  0  0  0  0
 19 14  1  0  0  0  0
 21 13  1  1  0  0  0
 21 17  1  0  0  0  0
 22 13  1  0  0  0  0
 23 24  1  0  0  0  0
 25  1  1  0  0  0  0
 27 25  1  0  0  0  0
 27 26  1  1  0  0  0
 29 31  1  0  0  0  0
 29 32  1  0  0  0  0
 30 35  1  1  0  0  0
 30 28  1  0  0  0  0
 31 30  1  0  0  0  0
 31 33  1  0  0  0  0
 32 34  1  0  0  0  0
 33 36  2  0  0  0  0
 34 28  1  0  0  0  0
 34 27  1  1  0  0  0
 38 43  1  6  0  0  0
 38 33  1  0  0  0  0
 38 37  1  0  0  0  0
 39 42  1  6  0  0  0
 39 37  1  0  0  0  0
 40 38  1  0  0  0  0
 40 39  1  0  0  0  0
 42 41  1  0  0  0  0
 44 43  1  0  0  0  0
 46 44  1  0  0  0  0
 46 45  1  0  0  0  0
 47 46  1  0  0  0  0
M  END
>  <MODEL>
8

>  <REMARK>
 VINA RESULT:      -6.1      1.024      2.261
  Name = 
  14 active torsions:
  status: ('A' for Active; 'I' for Inactive)
    1  A    between atoms: N_14  and  C_25
    2  A    between atoms: N_14  and  C_41
    3  A    between atoms: C_16  and  C_45
    4  A    between atoms: O_18  and  C_28
    5  A    between atoms: O_18  and  C_36
    6  A    between atoms: C_19  and  C_24
    7  A    between atoms: C_19  and  C_36
    8  A    between atoms: C_22  and  O_34
    9  A    between atoms: C_25  and  C_31
   10  A    between atoms: C_35  and  C_45
   11  A    between atoms: C_38  and  C_47
   12  A    between atoms: C_40  and  C_41
   13  A    between atoms: C_40  and  C_47
   14  A    between atoms: N_43  and  C_45
                            x       y       z     vdW  Elec       q    Type
                         _______ _______ _______ _____ _____    ______ ____

>  <TORSDO>
F 14

$$$$
=
 OpenBabel11072409073D

 47 51  0  0  1  0  0  0  0  0999 V2000
  194.7760  175.0720  145.8540 C   0  0  0  0  0  2  0  0  0  0  0  0
  196.3380  173.2620  145.8210 O   0  0  0  0  0  1  0  0  0  0  0  0
  195.2560  173.8170  145.1300 C   0  0  2  0  0  3  0  0  0  0  0  0
  196.0840  172.9140  142.8180 C   0  0  0  0  0  2  0  0  0  0  0  0
  194.6380  173.3890  142.6820 C   0  0  1  0  0  3  0  0  0  0  0  0
  195.6030  174.0910  143.6500 C   0  0  1  0  0  0  0  0  0  0  0  0
  197.5720  175.4290  143.3370 O   0  0  0  0  0  1  0  0  0  0  0  0
  196.1810  175.4490  143.2380 C   0  0  0  0  0  2  0  0  0  0  0  0
  193.9820  175.5460  141.6410 C   0  0  0  0  0  1  0  0  0  0  0  0
  194.2910  174.0870  141.3320 C   0  0  2  0  0  0  0  0  0  0  0  0
  193.8840  171.1930  140.3840 O   0  0  0  0  0  0  0  0  0  0  0  0
  189.6940  170.9260  138.6310 C   0  0  1  0  0  3  0  0  0  0  0  0
  193.0180  172.0910  140.2130 C   0  0  0  0  0  0  0  0  0  0  0  0
  189.0600  172.2960  138.9990 C   0  0  0  0  0  2  0  0  0  0  0  0
  189.9550  170.8910  137.2600 O   0  0  0  0  0  1  0  0  0  0  0  0
  191.9400  174.1540  140.2590 C   0  0  0  0  0  2  0  0  0  0  0  0
  190.9920  170.6820  139.4400 C   0  0  1  0  0  3  0  0  0  0  0  0
  190.9700  173.0500  139.8700 C   0  0  1  0  0  3  0  0  0  0  0  0
  189.9890  173.3670  138.9250 O   0  0  0  0  0  0  0  0  0  0  0  0
  191.6870  169.5840  138.9280 O   0  0  0  0  0  1  0  0  0  0  0  0
  191.8370  171.9390  139.3400 C   0  0  1  0  0  3  0  0  0  0  0  0
  193.1050  173.4180  140.7560 N   0  0  0  0  0  0  0  0  0  0  0  0
  195.7260  175.4240  139.8670 O   0  0  0  0  0  1  0  0  0  0  0  0
  195.4190  174.1260  140.2790 C   0  0  0  0  0  2  0  0  0  0  0  0
  193.3210  175.1740  145.8430 N   0  0  0  0  0  2  0  0  0  0  0  0
  194.0810  177.3020  145.3220 O   0  0  0  0  0  1  0  0  0  0  0  0
  192.9310  176.5580  145.5910 C   0  0  1  0  0  3  0  0  0  0  0  0
  191.1110  175.3610  144.3270 C   0  0  0  0  0  2  0  0  0  0  0  0
  190.0540  177.9160  143.3680 C   0  0  0  0  0  2  0  0  0  0  0  0
  190.1190  175.4680  143.1750 C   0  0  2  0  0  3  0  0  0  0  0  0
  189.2950  176.6710  143.3470 N   0  0  0  0  0  0  0  0  0  0  0  0
  191.0420  177.8710  144.5320 C   0  0  0  0  0  2  0  0  0  0  0  0
  188.0210  176.6460  144.0210 C   0  0  0  0  0  0  0  0  0  0  0  0
  191.9550  176.6410  144.4090 C   0  0  1  0  0  3  0  0  0  0  0  0
  189.3020  174.1950  143.0210 C   0  0  0  0  0  1  0  0  0  0  0  0
  187.8090  175.7970  144.9290 O   0  0  0  0  0  0  0  0  0  0  0  0
  187.1850  178.2900  142.4730 O   0  0  0  0  0  0  0  0  0  0  0  0
  186.9280  177.6350  143.6790 C   0  0  1  0  0  0  0  0  0  0  0  0
  186.0130  177.6730  142.0180 C   0  0  1  0  0  3  0  0  0  0  0  0
  185.7480  177.0280  143.2330 O   0  0  0  0  0  0  0  0  0  0  0  0
  184.5140  178.2900  140.5160 C   0  0  0  0  0  1  0  0  0  0  0  0
  185.0310  178.6360  141.7640 O   0  0  0  0  0  0  0  0  0  0  0  0
  186.6580  178.6300  144.8080 C   0  0  0  0  0  2  0  0  0  0  0  0
  185.3520  178.4810  145.2830 O   0  0  0  0  0  0  0  0  0  0  0  0
  184.8250  176.6370  146.5120 O   0  0  0  0  0  1  0  0  0  0  0  0
  185.4940  177.8600  146.5240 C   0  0  0  0  0  3  0  0  0  0  0  0
  184.9560  178.6760  147.5180 O   0  0  0  0  0  1  0  0  0  0  0  0
  3  2  1  1  0  0  0
  3  1  1  0  0  0  0
  4  6  1  0  0  0  0
  5 10  1  6  0  0  0
  5  4  1  0  0  0  0
  5  6  1  0  0  0  0
  6  8  1  6  0  0  0
  6  3  1  0  0  0  0
  8  7  1  0  0  0  0
 10  9  1  1  0  0  0
 12 15  1  6  0  0  0
 12 14  1  0  0  0  0
 12 17  1  0  0  0  0
 13 11  2  0  0  0  0
 13 22  1  0  0  0  0
 16 22  1  0  0  0  0
 17 20  1  6  0  0  0
 18 16  1  6  0  0  0
 19 14  1  0  0  0  0
 19 18  1  0  0  0  0
 21 17  1  0  0  0  0
 21 18  1  0  0  0  0
 21 13  1  1  0  0  0
 22 10  1  0  0  0  0
 23 24  1  0  0  0  0
 24 10  1  0  0  0  0
 25  1  1  0  0  0  0
 27 26  1  6  0  0  0
 27 25  1  0  0  0  0
 28 34  1  0  0  0  0
 29 32  1  0  0  0  0
 30 35  1  1  0  0  0
 30 31  1  0  0  0  0
 30 28  1  0  0  0  0
 31 29  1  0  0  0  0
 31 33  1  0  0  0  0
 33 36  2  0  0  0  0
 34 32  1  0  0  0  0
 34 27  1  1  0  0  0
 37 38  1  0  0  0  0
 38 33  1  0  0  0  0
 38 43  1  1  0  0  0
 39 42  1  1  0  0  0
 39 37  1  0  0  0  0
 39 40  1  0  0  0  0
 40 38  1  0  0  0  0
 41 42  1  0  0  0  0
 43 44  1  0  0  0  0
 44 46  1  0  0  0  0
 45 46  1  0  0  0  0
 46 47  1  0  0  0  0
M  END
>  <MODEL>
9

>  <REMARK>
 VINA RESULT:      -6.1      1.849      7.567
  Name = 
  14 active torsions:
  status: ('A' for Active; 'I' for Inactive)
    1  A    between atoms: N_14  and  C_25
    2  A    between atoms: N_14  and  C_41
    3  A    between atoms: C_16  and  C_45
    4  A    between atoms: O_18  and  C_28
    5  A    between atoms: O_18  and  C_36
    6  A    between atoms: C_19  and  C_24
    7  A    between atoms: C_19  and  C_36
    8  A    between atoms: C_22  and  O_34
    9  A    between atoms: C_25  and  C_31
   10  A    between atoms: C_35  and  C_45
   11  A    between atoms: C_38  and  C_47
   12  A    between atoms: C_40  and  C_41
   13  A    between atoms: C_40  and  C_47
   14  A    between atoms: N_43  and  C_45
                            x       y       z     vdW  Elec       q    Type
                         _______ _______ _______ _____ _____    ______ ____

>  <TORSDO>
F 14

$$$$
