=
 OpenBabel11062418523D

 37 43  0  0  1  0  0  0  0  0999 V2000
  190.2260  175.9050  147.6380 C   0  0  1  0  0  3  0  0  0  0  0  0
  191.8760  175.3130  144.0280 N   0  0  1  0  0  0  0  0  0  0  0  0
  194.3810  175.1820  143.4440 C   0  0  1  0  0  0  0  0  0  0  0  0
  195.5720  175.4650  142.5910 C   0  0  0  0  0  0  0  0  0  0  0  0
  187.2050  178.1760  145.6380 C   0  0  0  0  0  3  0  0  0  0  0  0
  188.1940  177.4380  146.2950 C   0  0  0  0  0  0  0  0  0  0  0  0
  187.9210  175.3280  141.7050 N   0  0  0  0  0  0  0  0  0  0  0  0
  194.5830  174.0670  144.4680 C   0  0  1  0  0  3  0  0  0  0  0  0
  191.1190  174.3350  143.2160 C   0  0  2  0  0  3  0  0  0  0  0  0
  196.9780  174.5400  144.4250 O   0  0  0  0  0  0  0  0  0  0  0  0
  188.2240  175.8540  144.4810 C   0  0  0  0  0  3  0  0  0  0  0  0
  191.6870  175.4580  147.6920 C   0  0  0  0  0  2  0  0  0  0  0  0
  195.4570  175.9380  141.4280 O   0  0  0  0  0  0  0  0  0  0  0  0
  192.7920  176.5960  142.1420 O   0  0  0  0  0  1  0  0  0  0  0  0
  186.0750  176.7350  141.7140 O   0  0  0  0  0  0  0  0  0  0  0  0
  192.2390  174.7430  145.3490 C   0  0  2  0  0  3  0  0  0  0  0  0
  196.1010  173.3140  146.1600 F   0  0  0  0  0  0  0  0  0  0  0  0
  190.3140  175.0690  142.1260 C   0  0  0  0  0  2  0  0  0  0  0  0
  187.2830  176.6070  143.7720 C   0  0  0  0  0  0  0  0  0  0  0  0
  188.6730  176.2580  145.7300 C   0  0  0  0  0  0  0  0  0  0  0  0
  197.9410  175.4010  142.5170 O   0  0  0  0  0  0  0  0  0  0  0  0
  186.7360  177.7610  144.3820 C   0  0  0  0  0  0  0  0  0  0  0  0
  190.1190  177.4200  147.8750 C   0  0  0  0  0  2  0  0  0  0  0  0
  189.0400  174.3370  141.7140 C   0  0  2  0  0  3  0  0  0  0  0  0
  188.5640  174.7550  140.4890 C   0  0  0  0  0  2  0  0  0  0  0  0
  185.7630  178.5630  143.7170 N   0  0  0  0  0  1  0  0  0  0  0  0
  188.7950  177.9110  147.4990 N   0  0  0  0  0  2  0  0  0  0  0  0
  194.0140  176.3900  144.0860 O   0  0  0  0  0  0  0  0  0  0  0  0
  189.6470  175.5090  146.3900 O   0  0  0  0  0  0  0  0  0  0  0  0
  193.0440  175.8000  143.2620 C   0  0  1  0  0  0  0  0  0  0  0  0
  192.4540  175.8140  146.4170 C   0  0  0  0  0  2  0  0  0  0  0  0
  187.0250  176.2260  142.3640 C   0  0  0  0  0  0  0  0  0  0  0  0
  195.8440  174.3540  145.2870 C   0  0  2  0  0  3  0  0  0  0  0  0
  196.8910  175.1550  143.1660 C   0  0  0  0  0  0  0  0  0  0  0  0
  193.3580  173.6930  145.3090 C   0  0  0  0  0  2  0  0  0  0  0  0
  190.5330  172.2420  143.6830 C   0  0  0  0  0  1  0  0  0  0  0  0
  190.2610  173.5690  144.0230 O   0  0  0  0  0  0  0  0  0  0  0  0
  1 12  1  6  0  0  0
  1 23  1  0  0  0  0
  2 16  1  0  0  0  0
  3 28  1  0  0  0  0
  3  8  1  0  0  0  0
  4 34  1  0  0  0  0
  4  3  1  0  0  0  0
  5  6  1  0  0  0  0
  6 27  1  0  0  0  0
  7 24  1  0  0  0  0
  7 32  1  0  0  0  0
  8 33  1  0  0  0  0
  8 35  1  0  0  0  0
  9 37  1  0  0  0  0
  9  2  1  0  0  0  0
 10 33  1  0  0  0  0
 11 20  1  0  0  0  0
 13  4  2  0  0  0  0
 14 30  1  0  0  0  0
 15 32  2  0  0  0  0
 16 31  1  0  0  0  0
 18  9  1  0  0  0  0
 19 22  1  0  0  0  0
 19 11  2  0  0  0  0
 20  6  2  0  0  0  0
 20 29  1  0  0  0  0
 21 34  2  0  0  0  0
 22  5  2  0  0  0  0
 24 18  1  0  0  0  0
 25  7  1  0  0  0  0
 25 24  1  0  0  0  0
 26 22  1  0  0  0  0
 27 23  1  0  0  0  0
 29  1  1  0  0  0  0
 30  3  1  0  0  0  0
 30  2  1  0  0  0  0
 30 28  1  0  0  0  0
 31 12  1  0  0  0  0
 32 19  1  0  0  0  0
 33 17  1  0  0  0  0
 34 10  1  0  0  0  0
 35 16  1  0  0  0  0
 36 37  1  0  0  0  0
M  END
>  <MODEL>
1

>  <REMARK>
 VINA RESULT:      -8.7      0.000      0.000
  Name = 
  1 active torsions:
  status: ('A' for Active; 'I' for Inactive)
    1  A    between atoms: C_9  and  O_28
                            x       y       z     vdW  Elec       q    Type
                         _______ _______ _______ _____ _____    ______ ____

>  <TORSDO>
F 1

$$$$
=
 OpenBabel11062418523D

 37 43  0  0  1  0  0  0  0  0999 V2000
  186.3830  177.0010  143.3170 C   0  0  1  0  0  3  0  0  0  0  0  0
  190.1450  175.6150  143.1600 N   0  0  1  0  0  0  0  0  0  0  0  0
  192.0710  176.0980  144.8010 C   0  0  1  0  0  0  0  0  0  0  0  0
  193.4920  176.3970  145.1450 C   0  0  0  0  0  0  0  0  0  0  0  0
  186.5030  177.1660  139.0460 C   0  0  0  0  0  3  0  0  0  0  0  0
  186.4630  177.1180  140.4430 C   0  0  0  0  0  0  0  0  0  0  0  0
  189.6590  173.4090  139.1690 N   0  0  0  0  0  0  0  0  0  0  0  0
  191.2230  175.6120  145.9740 C   0  0  1  0  0  3  0  0  0  0  0  0
  190.2090  174.2060  142.7120 C   0  0  2  0  0  3  0  0  0  0  0  0
  192.7360  176.7900  147.4840 O   0  0  0  0  0  0  0  0  0  0  0  0
  187.7040  175.0540  140.4120 C   0  0  0  0  0  3  0  0  0  0  0  0
  187.1410  177.1210  144.6400 C   0  0  0  0  0  2  0  0  0  0  0  0
  194.4140  176.3080  144.2900 O   0  0  0  0  0  0  0  0  0  0  0  0
  192.3630  176.2750  142.3310 O   0  0  0  0  0  1  0  0  0  0  0  0
  188.7560  174.0110  137.1170 O   0  0  0  0  0  0  0  0  0  0  0  0
  189.2310  175.7660  144.3180 C   0  0  2  0  0  3  0  0  0  0  0  0
  190.6700  176.1330  148.2450 F   0  0  0  0  0  0  0  0  0  0  0  0
  190.7020  174.1420  141.2530 C   0  0  0  0  0  2  0  0  0  0  0  0
  187.8160  175.1100  139.0200 C   0  0  0  0  0  0  0  0  0  0  0  0
  187.0320  176.0400  141.1180 C   0  0  0  0  0  0  0  0  0  0  0  0
  194.9410  177.0950  146.8880 O   0  0  0  0  0  0  0  0  0  0  0  0
  187.1670  176.1610  138.3270 C   0  0  0  0  0  0  0  0  0  0  0  0
  186.3410  178.3590  142.5980 C   0  0  0  0  0  2  0  0  0  0  0  0
  190.1750  172.9310  140.4880 C   0  0  2  0  0  3  0  0  0  0  0  0
  190.9270  172.6500  139.3650 C   0  0  0  0  0  2  0  0  0  0  0  0
  187.2320  176.2650  136.9060 N   0  0  0  0  0  1  0  0  0  0  0  0
  185.9250  178.1960  141.2060 N   0  0  0  0  0  2  0  0  0  0  0  0
  191.5110  177.2670  144.2290 O   0  0  0  0  0  0  0  0  0  0  0  0
  186.9780  175.9790  142.5110 O   0  0  0  0  0  0  0  0  0  0  0  0
  191.5120  176.1160  143.4260 C   0  0  1  0  0  0  0  0  0  0  0  0
  188.6570  177.1770  144.4400 C   0  0  0  0  0  2  0  0  0  0  0  0
  188.7300  174.1430  138.3680 C   0  0  0  0  0  0  0  0  0  0  0  0
  191.3570  176.5970  147.1380 C   0  0  2  0  0  3  0  0  0  0  0  0
  193.7710  176.7930  146.5350 C   0  0  0  0  0  0  0  0  0  0  0  0
  189.7780  175.2190  145.6440 C   0  0  0  0  0  2  0  0  0  0  0  0
  189.2160  172.3590  143.4490 C   0  0  0  0  0  1  0  0  0  0  0  0
  188.9550  173.5850  142.8320 O   0  0  0  0  0  0  0  0  0  0  0  0
  1 23  1  6  0  0  0
  1 12  1  0  0  0  0
  2 30  1  0  0  0  0
  2 16  1  0  0  0  0
  3  4  1  0  0  0  0
  3  8  1  0  0  0  0
  4 34  1  0  0  0  0
  5  6  1  0  0  0  0
  6 20  2  0  0  0  0
  6 27  1  0  0  0  0
  7 25  1  0  0  0  0
  7 24  1  0  0  0  0
  8 33  1  0  0  0  0
  9 37  1  0  0  0  0
  9  2  1  0  0  0  0
 11 20  1  0  0  0  0
 13  4  2  0  0  0  0
 14 30  1  0  0  0  0
 15 32  2  0  0  0  0
 16 31  1  0  0  0  0
 16 35  1  0  0  0  0
 18  9  1  0  0  0  0
 19 11  2  0  0  0  0
 20 29  1  0  0  0  0
 22 19  1  0  0  0  0
 22  5  2  0  0  0  0
 24 18  1  0  0  0  0
 25 24  1  0  0  0  0
 26 22  1  0  0  0  0
 27 23  1  0  0  0  0
 28  3  1  0  0  0  0
 29  1  1  0  0  0  0
 30 28  1  0  0  0  0
 30  3  1  0  0  0  0
 31 12  1  0  0  0  0
 32 19  1  0  0  0  0
 32  7  1  0  0  0  0
 33 10  1  0  0  0  0
 33 17  1  0  0  0  0
 34 21  2  0  0  0  0
 34 10  1  0  0  0  0
 35  8  1  0  0  0  0
 37 36  1  0  0  0  0
M  END
>  <MODEL>
2

>  <REMARK>
 VINA RESULT:      -7.8      2.548      4.596
  Name = 
  1 active torsions:
  status: ('A' for Active; 'I' for Inactive)
    1  A    between atoms: C_9  and  O_28
                            x       y       z     vdW  Elec       q    Type
                         _______ _______ _______ _____ _____    ______ ____

>  <TORSDO>
F 1

$$$$
=
 OpenBabel11062418523D

 37 43  0  0  1  0  0  0  0  0999 V2000
  187.3800  176.8830  143.7700 C   0  0  1  0  0  3  0  0  0  0  0  0
  190.7420  174.9410  142.7570 N   0  0  1  0  0  0  0  0  0  0  0  0
  193.0030  174.9590  143.9900 C   0  0  1  0  0  0  0  0  0  0  0  0
  194.4940  174.9970  144.0490 C   0  0  0  0  0  0  0  0  0  0  0  0
  186.6960  177.4250  139.5840 C   0  0  0  0  0  3  0  0  0  0  0  0
  186.9200  177.2540  140.9540 C   0  0  0  0  0  0  0  0  0  0  0  0
  189.1160  173.2220  138.8280 N   0  0  0  0  0  0  0  0  0  0  0  0
  192.3270  174.5050  145.2820 C   0  0  1  0  0  3  0  0  0  0  0  0
  190.4720  173.5880  142.2220 C   0  0  2  0  0  3  0  0  0  0  0  0
  194.2850  175.2840  146.5130 O   0  0  0  0  0  0  0  0  0  0  0  0
  187.7540  175.0320  140.5440 C   0  0  0  0  0  3  0  0  0  0  0  0
  188.3880  176.7570  144.9120 C   0  0  0  0  0  2  0  0  0  0  0  0
  195.2020  174.8430  143.0190 O   0  0  0  0  0  0  0  0  0  0  0  0
  192.8370  175.3170  141.5270 O   0  0  0  0  0  1  0  0  0  0  0  0
  187.9500  174.1480  137.0460 O   0  0  0  0  0  0  0  0  0  0  0  0
  190.1100  175.1260  144.0860 C   0  0  2  0  0  3  0  0  0  0  0  0
  192.3230  174.8920  147.6450 F   0  0  0  0  0  0  0  0  0  0  0  0
  190.6540  173.5830  140.6920 C   0  0  0  0  0  2  0  0  0  0  0  0
  187.6020  175.1990  139.1640 C   0  0  0  0  0  0  0  0  0  0  0  0
  187.4130  176.0410  141.4320 C   0  0  0  0  0  0  0  0  0  0  0  0
  196.3520  175.2910  145.4940 O   0  0  0  0  0  0  0  0  0  0  0  0
  187.0230  176.3990  138.6840 C   0  0  0  0  0  0  0  0  0  0  0  0
  187.4350  178.2910  143.1580 C   0  0  0  0  0  2  0  0  0  0  0  0
  189.7870  172.5480  139.9800 C   0  0  2  0  0  3  0  0  0  0  0  0
  190.2460  172.2580  138.7120 C   0  0  0  0  0  2  0  0  0  0  0  0
  186.8290  176.6240  137.2900 N   0  0  0  0  0  1  0  0  0  0  0  0
  186.7350  178.3270  141.8750 N   0  0  0  0  0  2  0  0  0  0  0  0
  192.5540  176.2500  143.6170 O   0  0  0  0  0  0  0  0  0  0  0  0
  187.6210  175.8600  142.7990 O   0  0  0  0  0  0  0  0  0  0  0  0
  192.1990  175.1930  142.7640 C   0  0  1  0  0  0  0  0  0  0  0  0
  189.8240  176.5920  144.4070 C   0  0  0  0  0  2  0  0  0  0  0  0
  188.1910  174.1650  138.2820 C   0  0  0  0  0  0  0  0  0  0  0  0
  192.8520  175.3440  146.4490 C   0  0  2  0  0  3  0  0  0  0  0  0
  195.1010  175.2110  145.3730 C   0  0  0  0  0  0  0  0  0  0  0  0
  190.8000  174.3780  145.2340 C   0  0  0  0  0  2  0  0  0  0  0  0
  189.3510  171.9160  143.1640 C   0  0  0  0  0  1  0  0  0  0  0  0
  189.1760  173.1640  142.5610 O   0  0  0  0  0  0  0  0  0  0  0  0
  1 23  1  6  0  0  0
  1 12  1  0  0  0  0
  2 30  1  0  0  0  0
  2 16  1  0  0  0  0
  3  4  1  0  0  0  0
  3  8  1  0  0  0  0
  4 34  1  0  0  0  0
  5  6  1  0  0  0  0
  6 20  2  0  0  0  0
  6 27  1  0  0  0  0
  7 24  1  0  0  0  0
  8 33  1  0  0  0  0
  9 37  1  0  0  0  0
  9  2  1  0  0  0  0
 11 20  1  0  0  0  0
 13  4  2  0  0  0  0
 14 30  1  0  0  0  0
 15 32  2  0  0  0  0
 16 31  1  0  0  0  0
 16 35  1  0  0  0  0
 18  9  1  0  0  0  0
 19 11  2  0  0  0  0
 20 29  1  0  0  0  0
 22 19  1  0  0  0  0
 22  5  2  0  0  0  0
 24 18  1  0  0  0  0
 25  7  1  0  0  0  0
 25 24  1  0  0  0  0
 26 22  1  0  0  0  0
 27 23  1  0  0  0  0
 28  3  1  0  0  0  0
 29  1  1  0  0  0  0
 30 28  1  0  0  0  0
 30  3  1  0  0  0  0
 31 12  1  0  0  0  0
 32  7  1  0  0  0  0
 32 19  1  0  0  0  0
 33 10  1  0  0  0  0
 33 17  1  0  0  0  0
 34 21  2  0  0  0  0
 34 10  1  0  0  0  0
 35  8  1  0  0  0  0
 37 36  1  0  0  0  0
M  END
>  <MODEL>
3

>  <REMARK>
 VINA RESULT:      -7.6      2.287      3.841
  Name = 
  1 active torsions:
  status: ('A' for Active; 'I' for Inactive)
    1  A    between atoms: C_9  and  O_28
                            x       y       z     vdW  Elec       q    Type
                         _______ _______ _______ _____ _____    ______ ____

>  <TORSDO>
F 1

$$$$
=
 OpenBabel11062418523D

 37 43  0  0  1  0  0  0  0  0999 V2000
  187.6340  176.7210  141.6300 C   0  0  1  0  0  3  0  0  0  0  0  0
  190.3030  173.9320  142.7230 N   0  0  1  0  0  0  0  0  0  0  0  0
  190.6960  171.6230  141.6530 C   0  0  1  0  0  0  0  0  0  0  0  0
  190.9740  170.1570  141.6980 C   0  0  0  0  0  0  0  0  0  0  0  0
  187.2040  177.6200  145.7880 C   0  0  0  0  0  3  0  0  0  0  0  0
  187.3390  177.3250  144.4280 C   0  0  0  0  0  0  0  0  0  0  0  0
  191.8630  176.2000  146.3920 N   0  0  0  0  0  0  0  0  0  0  0  0
  190.9190  172.2690  140.2870 C   0  0  1  0  0  3  0  0  0  0  0  0
  191.5970  174.5210  143.1360 C   0  0  2  0  0  3  0  0  0  0  0  0
  190.5060  170.0970  139.2540 O   0  0  0  0  0  0  0  0  0  0  0  0
  189.7080  177.0080  144.7270 C   0  0  0  0  0  3  0  0  0  0  0  0
  187.9050  175.6690  140.5530 C   0  0  0  0  0  2  0  0  0  0  0  0
  191.3350  169.5840  142.7610 O   0  0  0  0  0  0  0  0  0  0  0  0
  190.4550  171.9140  144.1180 O   0  0  0  0  0  1  0  0  0  0  0  0
  190.8160  177.2900  148.1540 O   0  0  0  0  0  0  0  0  0  0  0  0
  189.9110  174.4000  141.3710 C   0  0  2  0  0  3  0  0  0  0  0  0
  190.4030  171.9970  137.9650 F   0  0  0  0  0  0  0  0  0  0  0  0
  191.7300  174.4710  144.6700 C   0  0  0  0  0  2  0  0  0  0  0  0
  189.5920  177.2350  146.1010 C   0  0  0  0  0  0  0  0  0  0  0  0
  188.5980  177.0570  143.8950 C   0  0  0  0  0  0  0  0  0  0  0  0
  190.9990  168.1660  140.4110 O   0  0  0  0  0  0  0  0  0  0  0  0
  188.3270  177.5900  146.6280 C   0  0  0  0  0  0  0  0  0  0  0  0
  186.3080  176.4250  142.3470 C   0  0  0  0  0  2  0  0  0  0  0  0
  192.5970  175.5910  145.2410 C   0  0  2  0  0  3  0  0  0  0  0  0
  193.0510  175.3080  146.5130 C   0  0  0  0  0  2  0  0  0  0  0  0
  188.1470  177.8480  148.0190 N   0  0  0  0  0  1  0  0  0  0  0  0
  186.1990  177.2050  143.5780 N   0  0  0  0  0  2  0  0  0  0  0  0
  189.3640  171.8230  142.0890 O   0  0  0  0  0  0  0  0  0  0  0  0
  188.7400  176.7790  142.5360 O   0  0  0  0  0  0  0  0  0  0  0  0
  190.3690  172.4590  142.8350 C   0  0  1  0  0  0  0  0  0  0  0  0
  188.4010  174.3470  141.1410 C   0  0  0  0  0  2  0  0  0  0  0  0
  190.7780  176.9500  146.9420 C   0  0  0  0  0  0  0  0  0  0  0  0
  190.1450  171.4860  139.2240 C   0  0  2  0  0  3  0  0  0  0  0  0
  190.8170  169.4110  140.4390 C   0  0  0  0  0  0  0  0  0  0  0  0
  190.7210  173.7880  140.2200 C   0  0  0  0  0  2  0  0  0  0  0  0
  193.0010  175.9280  142.1410 C   0  0  0  0  0  1  0  0  0  0  0  0
  191.7150  175.8440  142.6780 O   0  0  0  0  0  0  0  0  0  0  0  0
  1 12  1  6  0  0  0
  1 23  1  0  0  0  0
  1 29  1  0  0  0  0
  2 30  1  0  0  0  0
  2  9  1  0  0  0  0
  3  4  1  0  0  0  0
  3 28  1  0  0  0  0
  3 30  1  0  0  0  0
  4 13  2  0  0  0  0
  5 22  1  0  0  0  0
  6  5  2  0  0  0  0
  7 25  1  0  0  0  0
  7 32  1  0  0  0  0
  8  3  1  0  0  0  0
  9 18  1  0  0  0  0
 10 34  1  0  0  0  0
 11 19  1  0  0  0  0
 12 31  1  0  0  0  0
 16  2  1  0  0  0  0
 17 33  1  0  0  0  0
 18 24  1  0  0  0  0
 19 22  2  0  0  0  0
 19 32  1  0  0  0  0
 20  6  1  0  0  0  0
 20 11  2  0  0  0  0
 21 34  2  0  0  0  0
 22 26  1  0  0  0  0
 23 27  1  0  0  0  0
 24  7  1  0  0  0  0
 24 25  1  0  0  0  0
 27  6  1  0  0  0  0
 28 30  1  0  0  0  0
 29 20  1  0  0  0  0
 30 14  1  0  0  0  0
 31 16  1  0  0  0  0
 32 15  2  0  0  0  0
 33 10  1  0  0  0  0
 33  8  1  0  0  0  0
 34  4  1  0  0  0  0
 35  8  1  0  0  0  0
 35 16  1  0  0  0  0
 36 37  1  0  0  0  0
 37  9  1  0  0  0  0
M  END
>  <MODEL>
4

>  <REMARK>
 VINA RESULT:      -7.5      2.943      6.012
  Name = 
  1 active torsions:
  status: ('A' for Active; 'I' for Inactive)
    1  A    between atoms: C_9  and  O_28
                            x       y       z     vdW  Elec       q    Type
                         _______ _______ _______ _____ _____    ______ ____

>  <TORSDO>
F 1

$$$$
=
 OpenBabel11062418523D

 37 43  0  0  1  0  0  0  0  0999 V2000
  188.7840  176.4320  144.7160 C   0  0  1  0  0  3  0  0  0  0  0  0
  191.8180  174.8440  142.6260 N   0  0  1  0  0  0  0  0  0  0  0  0
  194.3260  174.8880  143.2100 C   0  0  1  0  0  0  0  0  0  0  0  0
  195.7750  175.0220  142.8780 C   0  0  0  0  0  0  0  0  0  0  0  0
  186.9730  177.3620  140.9560 C   0  0  0  0  0  3  0  0  0  0  0  0
  187.5650  177.0630  142.1870 C   0  0  0  0  0  0  0  0  0  0  0  0
  189.2570  173.4390  139.0900 N   0  0  0  0  0  0  0  0  0  0  0  0
  194.0420  174.2550  144.5710 C   0  0  1  0  0  3  0  0  0  0  0  0
  191.4660  173.5390  142.0230 C   0  0  2  0  0  3  0  0  0  0  0  0
  196.2290  175.0340  145.3260 O   0  0  0  0  0  0  0  0  0  0  0  0
  188.3420  174.9600  141.3080 C   0  0  0  0  0  3  0  0  0  0  0  0
  190.0680  176.2560  145.5280 C   0  0  0  0  0  2  0  0  0  0  0  0
  196.1840  175.0270  141.6860 O   0  0  0  0  0  0  0  0  0  0  0  0
  193.4870  175.4900  140.9410 O   0  0  0  0  0  1  0  0  0  0  0  0
  187.6190  174.4630  137.8040 O   0  0  0  0  0  0  0  0  0  0  0  0
  191.5620  174.8430  144.0870 C   0  0  2  0  0  3  0  0  0  0  0  0
  194.6630  174.3910  146.8800 F   0  0  0  0  0  0  0  0  0  0  0  0
  191.2270  173.7070  140.5100 C   0  0  0  0  0  2  0  0  0  0  0  0
  187.8170  175.2600  140.0480 C   0  0  0  0  0  0  0  0  0  0  0  0
  188.2160  175.8440  142.3690 C   0  0  0  0  0  0  0  0  0  0  0  0
  197.9410  175.2900  143.8040 O   0  0  0  0  0  0  0  0  0  0  0  0
  187.0840  176.4610  139.8860 C   0  0  0  0  0  0  0  0  0  0  0  0
  188.6170  177.8970  144.2840 C   0  0  0  0  0  2  0  0  0  0  0  0
  190.2410  172.6950  139.9350 C   0  0  2  0  0  3  0  0  0  0  0  0
  190.3510  172.5720  138.5650 C   0  0  0  0  0  2  0  0  0  0  0  0
  186.5110  176.8170  138.6300 N   0  0  0  0  0  1  0  0  0  0  0  0
  187.5960  178.0190  143.2460 N   0  0  0  0  0  2  0  0  0  0  0  0
  193.7440  176.1770  143.1270 O   0  0  0  0  0  0  0  0  0  0  0  0
  188.7920  175.5350  143.6010 O   0  0  0  0  0  0  0  0  0  0  0  0
  193.2130  175.1930  142.2780 C   0  0  1  0  0  0  0  0  0  0  0  0
  191.3180  176.2450  144.6460 C   0  0  0  0  0  2  0  0  0  0  0  0
  188.1840  174.3680  138.9250 C   0  0  0  0  0  0  0  0  0  0  0  0
  194.8320  175.0010  145.6500 C   0  0  2  0  0  3  0  0  0  0  0  0
  196.7090  175.1380  144.0100 C   0  0  0  0  0  0  0  0  0  0  0  0
  192.5660  174.0280  144.9140 C   0  0  0  0  0  2  0  0  0  0  0  0
  190.6800  171.6770  142.9490 C   0  0  0  0  0  1  0  0  0  0  0  0
  190.3280  172.9930  142.6390 O   0  0  0  0  0  0  0  0  0  0  0  0
  1 23  1  6  0  0  0
  1 12  1  0  0  0  0
  2 16  1  0  0  0  0
  3  8  1  0  0  0  0
  4  3  1  0  0  0  0
  4 34  1  0  0  0  0
  5  6  1  0  0  0  0
  6 20  2  0  0  0  0
  6 27  1  0  0  0  0
  7 24  1  0  0  0  0
  8 35  1  0  0  0  0
  8 33  1  0  0  0  0
  9  2  1  0  0  0  0
  9 37  1  0  0  0  0
 10 33  1  0  0  0  0
 11 20  1  0  0  0  0
 13  4  2  0  0  0  0
 14 30  1  0  0  0  0
 15 32  2  0  0  0  0
 16 31  1  0  0  0  0
 16 35  1  0  0  0  0
 18  9  1  0  0  0  0
 19 11  2  0  0  0  0
 20 29  1  0  0  0  0
 21 34  2  0  0  0  0
 22 19  1  0  0  0  0
 22  5  2  0  0  0  0
 24 18  1  0  0  0  0
 25  7  1  0  0  0  0
 25 24  1  0  0  0  0
 26 22  1  0  0  0  0
 27 23  1  0  0  0  0
 28  3  1  0  0  0  0
 29  1  1  0  0  0  0
 30  2  1  0  0  0  0
 30 28  1  0  0  0  0
 30  3  1  0  0  0  0
 31 12  1  0  0  0  0
 32  7  1  0  0  0  0
 32 19  1  0  0  0  0
 33 17  1  0  0  0  0
 34 10  1  0  0  0  0
 37 36  1  0  0  0  0
M  END
>  <MODEL>
5

>  <REMARK>
 VINA RESULT:      -7.3      1.913      2.850
  Name = 
  1 active torsions:
  status: ('A' for Active; 'I' for Inactive)
    1  A    between atoms: C_9  and  O_28
                            x       y       z     vdW  Elec       q    Type
                         _______ _______ _______ _____ _____    ______ ____

>  <TORSDO>
F 1

$$$$
=
 OpenBabel11062418523D

 37 43  0  0  1  0  0  0  0  0999 V2000
  191.8720  174.9450  146.8210 C   0  0  1  0  0  3  0  0  0  0  0  0
  192.4830  174.1170  142.9430 N   0  0  1  0  0  0  0  0  0  0  0  0
  194.7240  173.6330  141.7700 C   0  0  1  0  0  0  0  0  0  0  0  0
  195.6950  173.7430  140.6410 C   0  0  0  0  0  0  0  0  0  0  0  0
  188.7890  177.6140  145.5360 C   0  0  0  0  0  3  0  0  0  0  0  0
  189.8000  176.7450  145.9590 C   0  0  0  0  0  0  0  0  0  0  0  0
  188.1170  174.6830  141.6570 N   0  0  0  0  0  0  0  0  0  0  0  0
  195.0200  172.5030  142.7540 C   0  0  1  0  0  3  0  0  0  0  0  0
  191.4230  173.2530  142.3760 C   0  0  2  0  0  3  0  0  0  0  0  0
  197.3710  172.6340  142.1100 O   0  0  0  0  0  0  0  0  0  0  0  0
  189.1650  175.1680  144.2530 C   0  0  0  0  0  3  0  0  0  0  0  0
  193.2270  174.2960  146.5340 C   0  0  0  0  0  2  0  0  0  0  0  0
  195.3620  174.2250  139.5250 O   0  0  0  0  0  0  0  0  0  0  0  0
  193.0710  175.2530  140.8430 O   0  0  0  0  0  1  0  0  0  0  0  0
  186.5390  176.3360  142.0640 O   0  0  0  0  0  0  0  0  0  0  0  0
  193.0800  173.5050  144.1540 C   0  0  2  0  0  3  0  0  0  0  0  0
  196.7920  171.5480  144.0510 F   0  0  0  0  0  0  0  0  0  0  0  0
  190.4820  174.0910  141.4900 C   0  0  0  0  0  2  0  0  0  0  0  0
  188.1900  176.0440  143.7670 C   0  0  0  0  0  0  0  0  0  0  0  0
  189.9590  175.5080  145.3380 C   0  0  0  0  0  0  0  0  0  0  0  0
  197.9410  173.3460  139.9940 O   0  0  0  0  0  0  0  0  0  0  0  0
  187.9720  177.2660  144.4500 C   0  0  0  0  0  0  0  0  0  0  0  0
  192.0340  176.4600  147.0210 C   0  0  0  0  0  2  0  0  0  0  0  0
  189.0580  173.5440  141.4290 C   0  0  2  0  0  3  0  0  0  0  0  0
  188.3560  174.0220  140.3420 C   0  0  0  0  0  2  0  0  0  0  0  0
  186.9830  178.1940  144.0130 N   0  0  0  0  0  1  0  0  0  0  0  0
  190.7370  177.1320  146.9620 N   0  0  0  0  0  2  0  0  0  0  0  0
  194.6950  174.8820  142.4370 O   0  0  0  0  0  0  0  0  0  0  0  0
  190.9550  174.6310  145.7680 O   0  0  0  0  0  0  0  0  0  0  0  0
  193.4800  174.4320  141.8960 C   0  0  1  0  0  0  0  0  0  0  0  0
  193.6970  174.5380  145.0970 C   0  0  0  0  0  2  0  0  0  0  0  0
  187.5420  175.7000  142.4800 C   0  0  0  0  0  0  0  0  0  0  0  0
  196.4710  172.6120  143.2280 C   0  0  2  0  0  3  0  0  0  0  0  0
  197.0600  173.2520  140.8880 C   0  0  0  0  0  0  0  0  0  0  0  0
  194.0010  172.3080  143.8820 C   0  0  0  0  0  2  0  0  0  0  0  0
  190.6430  171.2740  143.0200 C   0  0  0  0  0  1  0  0  0  0  0  0
  190.6960  172.6180  143.3970 O   0  0  0  0  0  0  0  0  0  0  0  0
  1 12  1  6  0  0  0
  1 23  1  0  0  0  0
  2 16  1  0  0  0  0
  3 30  1  0  0  0  0
  3 28  1  0  0  0  0
  3  8  1  0  0  0  0
  4 34  1  0  0  0  0
  4  3  1  0  0  0  0
  5  6  1  0  0  0  0
  6 27  1  0  0  0  0
  7 32  1  0  0  0  0
  8 33  1  0  0  0  0
  8 35  1  0  0  0  0
  9  2  1  0  0  0  0
  9 37  1  0  0  0  0
 10 33  1  0  0  0  0
 11 20  1  0  0  0  0
 13  4  2  0  0  0  0
 14 30  1  0  0  0  0
 15 32  2  0  0  0  0
 16 31  1  0  0  0  0
 18  9  1  0  0  0  0
 19 11  2  0  0  0  0
 19 22  1  0  0  0  0
 20 29  1  0  0  0  0
 20  6  2  0  0  0  0
 21 34  2  0  0  0  0
 22  5  2  0  0  0  0
 24 18  1  0  0  0  0
 24  7  1  0  0  0  0
 25 24  1  0  0  0  0
 25  7  1  0  0  0  0
 26 22  1  0  0  0  0
 27 23  1  0  0  0  0
 29  1  1  0  0  0  0
 30 28  1  0  0  0  0
 30  2  1  0  0  0  0
 31 12  1  0  0  0  0
 32 19  1  0  0  0  0
 33 17  1  0  0  0  0
 34 10  1  0  0  0  0
 35 16  1  0  0  0  0
 36 37  1  0  0  0  0
M  END
>  <MODEL>
6

>  <REMARK>
 VINA RESULT:      -7.0      1.767      1.967
  Name = 
  1 active torsions:
  status: ('A' for Active; 'I' for Inactive)
    1  A    between atoms: C_9  and  O_28
                            x       y       z     vdW  Elec       q    Type
                         _______ _______ _______ _____ _____    ______ ____

>  <TORSDO>
F 1

$$$$
=
 OpenBabel11062418523D

 37 43  0  0  1  0  0  0  0  0999 V2000
  187.0470  176.9810  141.9070 C   0  0  1  0  0  3  0  0  0  0  0  0
  189.8820  174.5390  143.3560 N   0  0  1  0  0  0  0  0  0  0  0  0
  190.5810  172.2290  142.4560 C   0  0  1  0  0  0  0  0  0  0  0  0
  190.9950  170.8040  142.6090 C   0  0  0  0  0  0  0  0  0  0  0  0
  186.2060  178.0470  145.9610 C   0  0  0  0  0  3  0  0  0  0  0  0
  186.4750  177.6960  144.6350 C   0  0  0  0  0  0  0  0  0  0  0  0
  190.9190  177.1410  146.9870 N   0  0  0  0  0  0  0  0  0  0  0  0
  190.8460  172.8230  141.0750 C   0  0  1  0  0  3  0  0  0  0  0  0
  191.0750  175.2770  143.8260 C   0  0  2  0  0  3  0  0  0  0  0  0
  190.7280  170.5690  140.1450 O   0  0  0  0  0  0  0  0  0  0  0  0
  188.8330  177.6380  145.1240 C   0  0  0  0  0  3  0  0  0  0  0  0
  187.5030  175.9080  140.9170 C   0  0  0  0  0  2  0  0  0  0  0  0
  191.3260  170.3260  143.7270 O   0  0  0  0  0  0  0  0  0  0  0  0
  190.1190  172.6210  144.8750 O   0  0  0  0  0  1  0  0  0  0  0  0
  189.6360  178.2090  148.6000 O   0  0  0  0  0  0  0  0  0  0  0  0
  189.5530  174.8930  141.9540 C   0  0  2  0  0  3  0  0  0  0  0  0
  190.5430  172.3790  138.7410 F   0  0  0  0  0  0  0  0  0  0  0  0
  191.0910  175.3210  145.3660 C   0  0  0  0  0  2  0  0  0  0  0  0
  188.5890  177.9230  146.4710 C   0  0  0  0  0  0  0  0  0  0  0  0
  187.7930  177.5310  144.2130 C   0  0  0  0  0  0  0  0  0  0  0  0
  191.3150  168.7610  141.4480 O   0  0  0  0  0  0  0  0  0  0  0  0
  187.2570  178.1740  146.8820 C   0  0  0  0  0  0  0  0  0  0  0  0
  185.7040  176.5890  142.5420 C   0  0  0  0  0  2  0  0  0  0  0  0
  191.7970  176.5500  145.9310 C   0  0  2  0  0  3  0  0  0  0  0  0
  192.1760  176.3820  147.2470 C   0  0  0  0  0  2  0  0  0  0  0  0
  186.9440  178.4840  148.2380 N   0  0  0  0  0  1  0  0  0  0  0  0
  185.4230  177.4170  143.7130 N   0  0  0  0  0  2  0  0  0  0  0  0
  189.2040  172.3150  142.7820 O   0  0  0  0  0  0  0  0  0  0  0  0
  188.0680  177.1980  142.8860 O   0  0  0  0  0  0  0  0  0  0  0  0
  190.0810  173.0870  143.5590 C   0  0  1  0  0  0  0  0  0  0  0  0
  188.0780  174.6750  141.6170 C   0  0  0  0  0  2  0  0  0  0  0  0
  189.7260  177.8040  147.4110 C   0  0  0  0  0  0  0  0  0  0  0  0
  190.2380  171.9110  140.0060 C   0  0  2  0  0  3  0  0  0  0  0  0
  191.0110  169.9810  141.3890 C   0  0  0  0  0  0  0  0  0  0  0  0
  190.5060  174.3080  140.9030 C   0  0  0  0  0  2  0  0  0  0  0  0
  192.3900  176.7410  142.7930 C   0  0  0  0  0  1  0  0  0  0  0  0
  191.0990  176.5790  143.3000 O   0  0  0  0  0  0  0  0  0  0  0  0
  1 12  1  6  0  0  0
  1 23  1  0  0  0  0
  1 29  1  0  0  0  0
  2 30  1  0  0  0  0
  2  9  1  0  0  0  0
  3  4  1  0  0  0  0
  3 28  1  0  0  0  0
  3 30  1  0  0  0  0
  4 13  2  0  0  0  0
  5 22  1  0  0  0  0
  6  5  2  0  0  0  0
  7 25  1  0  0  0  0
  7 32  1  0  0  0  0
  8  3  1  0  0  0  0
  9 18  1  0  0  0  0
 10 34  1  0  0  0  0
 11 19  1  0  0  0  0
 12 31  1  0  0  0  0
 16  2  1  0  0  0  0
 17 33  1  0  0  0  0
 18 24  1  0  0  0  0
 19 22  2  0  0  0  0
 19 32  1  0  0  0  0
 20  6  1  0  0  0  0
 20 11  2  0  0  0  0
 22 26  1  0  0  0  0
 23 27  1  0  0  0  0
 24  7  1  0  0  0  0
 24 25  1  0  0  0  0
 27  6  1  0  0  0  0
 28 30  1  0  0  0  0
 29 20  1  0  0  0  0
 30 14  1  0  0  0  0
 31 16  1  0  0  0  0
 32 15  2  0  0  0  0
 33 10  1  0  0  0  0
 33  8  1  0  0  0  0
 34 21  2  0  0  0  0
 34  4  1  0  0  0  0
 35  8  1  0  0  0  0
 35 16  1  0  0  0  0
 36 37  1  0  0  0  0
 37  9  1  0  0  0  0
M  END
>  <MODEL>
7

>  <REMARK>
 VINA RESULT:      -7.0      3.106      5.792
  Name = 
  1 active torsions:
  status: ('A' for Active; 'I' for Inactive)
    1  A    between atoms: C_9  and  O_28
                            x       y       z     vdW  Elec       q    Type
                         _______ _______ _______ _____ _____    ______ ____

>  <TORSDO>
F 1

$$$$
=
 OpenBabel11062418523D

 37 43  0  0  1  0  0  0  0  0999 V2000
  188.2940  176.6920  142.4040 C   0  0  1  0  0  3  0  0  0  0  0  0
  190.9690  173.7020  142.3840 N   0  0  1  0  0  0  0  0  0  0  0  0
  190.8530  171.4940  141.0630 C   0  0  1  0  0  0  0  0  0  0  0  0
  191.0290  170.0210  140.9020 C   0  0  0  0  0  0  0  0  0  0  0  0
  189.2220  177.1970  146.5470 C   0  0  0  0  0  3  0  0  0  0  0  0
  188.9130  177.0310  145.1940 C   0  0  0  0  0  0  0  0  0  0  0  0
  193.7310  175.5320  145.5550 N   0  0  0  0  0  0  0  0  0  0  0  0
  190.6920  172.2620  139.7530 C   0  0  1  0  0  3  0  0  0  0  0  0
  192.3650  174.1930  142.4200 C   0  0  2  0  0  3  0  0  0  0  0  0
  189.8310  170.2200  138.7290 O   0  0  0  0  0  0  0  0  0  0  0  0
  191.2310  176.5890  144.7140 C   0  0  0  0  0  3  0  0  0  0  0  0
  188.1480  175.7410  141.2150 C   0  0  0  0  0  2  0  0  0  0  0  0
  191.6570  169.3310  141.7490 O   0  0  0  0  0  0  0  0  0  0  0  0
  191.4000  171.5520  143.4950 O   0  0  0  0  0  1  0  0  0  0  0  0
  193.3530  176.4870  147.6370 O   0  0  0  0  0  0  0  0  0  0  0  0
  190.2150  174.3160  141.2640 C   0  0  2  0  0  3  0  0  0  0  0  0
  189.4710  172.2390  137.6930 F   0  0  0  0  0  0  0  0  0  0  0  0
  192.9570  173.9880  143.8270 C   0  0  0  0  0  2  0  0  0  0  0  0
  191.5590  176.6850  146.0700 C   0  0  0  0  0  0  0  0  0  0  0  0
  189.9270  176.7650  144.2760 C   0  0  0  0  0  0  0  0  0  0  0  0
  190.5190  168.1660  139.5150 O   0  0  0  0  0  0  0  0  0  0  0  0
  190.5430  177.0380  146.9920 C   0  0  0  0  0  0  0  0  0  0  0  0
  187.2340  176.3830  143.4730 C   0  0  0  0  0  2  0  0  0  0  0  0
  194.0330  175.0090  144.1880 C   0  0  2  0  0  3  0  0  0  0  0  0
  194.8340  174.5850  145.2280 C   0  0  0  0  0  2  0  0  0  0  0  0
  190.8170  177.1660  148.3850 N   0  0  0  0  0  1  0  0  0  0  0  0
  187.5620  177.0430  144.7350 N   0  0  0  0  0  2  0  0  0  0  0  0
  189.7350  171.7050  141.9070 O   0  0  0  0  0  0  0  0  0  0  0  0
  189.6260  176.6160  142.9220 O   0  0  0  0  0  0  0  0  0  0  0  0
  190.9620  172.2230  142.3510 C   0  0  1  0  0  0  0  0  0  0  0  0
  188.7080  174.3480  141.5120 C   0  0  0  0  0  2  0  0  0  0  0  0
  192.9220  176.2690  146.4740 C   0  0  0  0  0  0  0  0  0  0  0  0
  189.5770  171.6190  138.9240 C   0  0  2  0  0  3  0  0  0  0  0  0
  190.4420  169.4090  139.6990 C   0  0  0  0  0  0  0  0  0  0  0  0
  190.5890  173.7860  139.8730 C   0  0  0  0  0  2  0  0  0  0  0  0
  193.5730  175.6560  141.2620 C   0  0  0  0  0  1  0  0  0  0  0  0
  192.4290  175.5490  142.0560 O   0  0  0  0  0  0  0  0  0  0  0  0
  1 12  1  6  0  0  0
  1 29  1  0  0  0  0
  1 23  1  0  0  0  0
  2  9  1  0  0  0  0
  3 28  1  0  0  0  0
  3 30  1  0  0  0  0
  4  3  1  0  0  0  0
  4 13  2  0  0  0  0
  5 22  1  0  0  0  0
  6  5  2  0  0  0  0
  7 32  1  0  0  0  0
  8 35  1  0  0  0  0
  8  3  1  0  0  0  0
  9 18  1  0  0  0  0
 10 33  1  0  0  0  0
 10 34  1  0  0  0  0
 11 19  1  0  0  0  0
 12 31  1  0  0  0  0
 16 31  1  0  0  0  0
 16  2  1  0  0  0  0
 17 33  1  0  0  0  0
 18 24  1  0  0  0  0
 19 32  1  0  0  0  0
 19 22  2  0  0  0  0
 20 11  2  0  0  0  0
 20  6  1  0  0  0  0
 21 34  2  0  0  0  0
 22 26  1  0  0  0  0
 23 27  1  0  0  0  0
 24 25  1  0  0  0  0
 24  7  1  0  0  0  0
 25  7  1  0  0  0  0
 27  6  1  0  0  0  0
 28 30  1  0  0  0  0
 29 20  1  0  0  0  0
 30  2  1  0  0  0  0
 30 14  1  0  0  0  0
 32 15  2  0  0  0  0
 33  8  1  0  0  0  0
 34  4  1  0  0  0  0
 35 16  1  0  0  0  0
 36 37  1  0  0  0  0
 37  9  1  0  0  0  0
M  END
>  <MODEL>
8

>  <REMARK>
 VINA RESULT:      -7.0      3.285      6.321
  Name = 
  1 active torsions:
  status: ('A' for Active; 'I' for Inactive)
    1  A    between atoms: C_9  and  O_28
                            x       y       z     vdW  Elec       q    Type
                         _______ _______ _______ _____ _____    ______ ____

>  <TORSDO>
F 1

$$$$
=
 OpenBabel11062418523D

 37 43  0  0  1  0  0  0  0  0999 V2000
  188.5750  173.0500  140.5490 C   0  0  1  0  0  3  0  0  0  0  0  0
  191.7450  174.0650  142.7900 N   0  0  1  0  0  0  0  0  0  0  0  0
  191.7410  175.2130  145.0960 C   0  0  1  0  0  0  0  0  0  0  0  0
  192.2540  176.1820  146.1080 C   0  0  0  0  0  0  0  0  0  0  0  0
  190.9390  174.0770  137.1370 C   0  0  0  0  0  3  0  0  0  0  0  0
  190.1620  173.7450  138.2510 C   0  0  0  0  0  0  0  0  0  0  0  0
  194.9060  172.7880  139.7230 N   0  0  0  0  0  0  0  0  0  0  0  0
  190.8380  174.1200  145.6630 C   0  0  1  0  0  3  0  0  0  0  0  0
  192.8220  173.0510  142.7360 C   0  0  2  0  0  3  0  0  0  0  0  0
  190.2660  175.6230  147.4980 O   0  0  0  0  0  0  0  0  0  0  0  0
  192.0950  172.7800  139.3170 C   0  0  0  0  0  3  0  0  0  0  0  0
  188.2350  173.3130  142.0170 C   0  0  0  0  0  2  0  0  0  0  0  0
  193.3460  176.7900  145.9500 O   0  0  0  0  0  0  0  0  0  0  0  0
  193.2000  175.9970  143.2310 O   0  0  0  0  0  1  0  0  0  0  0  0
  195.1610  173.1650  137.4460 O   0  0  0  0  0  0  0  0  0  0  0  0
  190.4540  173.4520  143.1850 C   0  0  2  0  0  3  0  0  0  0  0  0
  188.9410  173.7910  147.0860 F   0  0  0  0  0  0  0  0  0  0  0  0
  193.9740  173.5570  141.8460 C   0  0  0  0  0  2  0  0  0  0  0  0
  192.9090  173.1580  138.2460 C   0  0  0  0  0  0  0  0  0  0  0  0
  190.7370  173.0630  139.3220 C   0  0  0  0  0  0  0  0  0  0  0  0
  191.7800  177.2170  148.1890 O   0  0  0  0  0  0  0  0  0  0  0  0
  192.3090  173.7770  137.1210 C   0  0  0  0  0  0  0  0  0  0  0  0
  188.1910  174.2600  139.6830 C   0  0  0  0  0  2  0  0  0  0  0  0
  194.7550  172.4350  141.1670 C   0  0  2  0  0  3  0  0  0  0  0  0
  195.9990  172.8460  140.7350 C   0  0  0  0  0  2  0  0  0  0  0  0
  193.0830  174.1720  135.9910 N   0  0  0  0  0  1  0  0  0  0  0  0
  188.8030  174.1660  138.3600 N   0  0  0  0  0  2  0  0  0  0  0  0
  191.0630  175.9530  144.0960 O   0  0  0  0  0  0  0  0  0  0  0  0
  189.9610  172.7140  140.4280 O   0  0  0  0  0  0  0  0  0  0  0  0
  192.1550  175.1810  143.6710 C   0  0  1  0  0  0  0  0  0  0  0  0
  189.2450  174.2450  142.6910 C   0  0  0  0  0  2  0  0  0  0  0  0
  194.3730  173.0150  138.4170 C   0  0  0  0  0  0  0  0  0  0  0  0
  189.7210  174.7630  146.4870 C   0  0  2  0  0  3  0  0  0  0  0  0
  191.4290  176.3870  147.3100 C   0  0  0  0  0  0  0  0  0  0  0  0
  190.3560  173.0590  144.6660 C   0  0  0  0  0  2  0  0  0  0  0  0
  192.7530  170.8760  143.1860 C   0  0  0  0  0  1  0  0  0  0  0  0
  192.3340  171.8260  142.2520 O   0  0  0  0  0  0  0  0  0  0  0  0
  1 23  1  6  0  0  0
  1 12  1  0  0  0  0
  2 16  1  0  0  0  0
  2 30  1  0  0  0  0
  3  8  1  0  0  0  0
  3  4  1  0  0  0  0
  4 34  1  0  0  0  0
  5  6  1  0  0  0  0
  6 27  1  0  0  0  0
  6 20  2  0  0  0  0
  7 25  1  0  0  0  0
  7 24  1  0  0  0  0
  8 33  1  0  0  0  0
  9  2  1  0  0  0  0
 11 20  1  0  0  0  0
 12 31  1  0  0  0  0
 13  4  2  0  0  0  0
 14 30  1  0  0  0  0
 15 32  2  0  0  0  0
 16 35  1  0  0  0  0
 18  9  1  0  0  0  0
 19 32  1  0  0  0  0
 19 11  2  0  0  0  0
 20 29  1  0  0  0  0
 22  5  2  0  0  0  0
 22 19  1  0  0  0  0
 24 18  1  0  0  0  0
 25 24  1  0  0  0  0
 26 22  1  0  0  0  0
 27 23  1  0  0  0  0
 28  3  1  0  0  0  0
 29  1  1  0  0  0  0
 30 28  1  0  0  0  0
 30  3  1  0  0  0  0
 31 16  1  0  0  0  0
 32  7  1  0  0  0  0
 33 17  1  0  0  0  0
 33 10  1  0  0  0  0
 34 10  1  0  0  0  0
 34 21  2  0  0  0  0
 35  8  1  0  0  0  0
 37  9  1  0  0  0  0
 37 36  1  0  0  0  0
M  END
>  <MODEL>
9

>  <REMARK>
 VINA RESULT:      -7.0      3.374      6.820
  Name = 
  1 active torsions:
  status: ('A' for Active; 'I' for Inactive)
    1  A    between atoms: C_9  and  O_28
                            x       y       z     vdW  Elec       q    Type
                         _______ _______ _______ _____ _____    ______ ____

>  <TORSDO>
F 1

$$$$
