=
 OpenBabel11062421553D

 37 42  0  0  1  0  0  0  0  0999 V2000
  188.6560  174.8750  142.3950 C   0  0  0  0  0  0  0  0  0  0  0  0
  189.5300  177.5410  146.2440 O   0  0  0  0  0  0  0  0  0  0  0  0
  186.9120  176.5470  144.0020 C   0  0  0  0  0  3  0  0  0  0  0  0
  186.5980  177.9800  142.0810 C   0  0  0  0  0  3  0  0  0  0  0  0
  188.9710  175.0180  143.6540 N   0  0  0  0  0  0  0  0  0  0  0  0
  186.8960  178.4310  147.2930 C   0  0  0  0  0  2  0  0  0  0  0  0
  188.5920  176.7790  146.4380 C   0  0  0  0  0  0  0  0  0  0  0  0
  188.8560  175.3200  146.7760 C   0  0  0  0  0  2  0  0  0  0  0  0
  187.6620  175.7610  141.8230 N   0  0  0  0  0  2  0  0  0  0  0  0
  189.1370  173.7200  141.6080 C   0  0  0  0  0  0  0  0  0  0  0  0
  191.4350  173.5320  142.7820 C   0  0  0  0  0  0  0  0  0  0  0  0
  190.9360  173.8050  143.9910 N   0  0  0  0  0  0  0  0  0  0  0  0
  191.9090  174.0690  144.8370 C   0  0  0  0  0  0  0  0  0  0  0  0
  189.8990  174.5610  145.9040 C   0  0  1  0  0  3  0  0  0  0  0  0
  186.2970  179.0410  142.9640 C   0  0  0  0  0  3  0  0  0  0  0  0
  186.9500  176.7280  142.6180 C   0  0  0  0  0  0  0  0  0  0  0  0
  189.6180  174.0290  144.4810 C   0  0  1  0  0  3  0  0  0  0  0  0
  191.4360  174.6350  146.1400 C   0  0  2  0  0  3  0  0  0  0  0  0
  186.4100  178.8650  144.3550 C   0  0  0  0  0  3  0  0  0  0  0  0
  190.6190  173.3430  141.5220 C   0  0  1  0  0  3  0  0  0  0  0  0
  193.1260  173.8360  144.2080 C   0  0  0  0  0  0  0  0  0  0  0  0
  184.4410  177.2800  146.8880 S   0  0  0  0  0  1  0  0  0  0  0  0
  190.7960  171.9070  141.0240 C   0  0  0  0  0  1  0  0  0  0  0  0
  188.3070  173.1130  140.8800 O   0  0  0  0  0  0  0  0  0  0  0  0
  187.1800  177.3290  146.2860 C   0  0  1  0  0  0  0  0  0  0  0  0
  186.1760  177.0900  147.4180 C   0  0  1  0  0  3  0  0  0  0  0  0
  186.7180  177.5940  144.8740 C   0  0  0  0  0  0  0  0  0  0  0  0
  192.8250  173.5170  142.8720 C   0  0  0  0  0  3  0  0  0  0  0  0
  191.8840  176.0780  146.2490 C   0  0  0  0  0  1  0  0  0  0  0  0
  194.4410  173.1890  146.0730 F   0  0  0  0  0  0  0  0  0  0  0  0
  194.5180  173.7570  144.8120 C   0  0  0  0  0  0  0  0  0  0  0  0
  195.2860  172.9060  144.0270 F   0  0  0  0  0  0  0  0  0  0  0  0
  195.1120  175.5650  146.2140 F   0  0  0  0  0  0  0  0  0  0  0  0
  195.2490  175.1120  144.9030 C   0  0  1  0  0  0  0  0  0  0  0  0
  196.7460  174.9160  144.6220 C   0  0  0  0  0  1  0  0  0  0  0  0
  194.6690  176.0210  143.9920 O   0  0  0  0  0  0  0  0  0  0  0  0
  195.6090  176.3790  143.0120 C   0  0  0  0  0  1  0  0  0  0  0  0
  1  5  2  0  0  0  0
  2  7  2  0  0  0  0
  3 27  1  0  0  0  0
  4 16  1  0  0  0  0
  4 15  2  0  0  0  0
  6 26  1  0  0  0  0
  7  8  1  0  0  0  0
  9  1  1  0  0  0  0
  9 16  1  0  0  0  0
 10  1  1  0  0  0  0
 11 28  2  0  0  0  0
 11 12  1  0  0  0  0
 12 17  1  0  0  0  0
 12 13  1  0  0  0  0
 13 18  1  0  0  0  0
 14 18  1  0  0  0  0
 14  8  1  6  0  0  0
 15 19  1  0  0  0  0
 16  3  2  0  0  0  0
 17  5  1  6  0  0  0
 17 14  1  0  0  0  0
 18 29  1  6  0  0  0
 19 27  2  0  0  0  0
 20 23  1  1  0  0  0
 20 10  1  0  0  0  0
 20 11  1  0  0  0  0
 21 31  1  0  0  0  0
 21 13  2  0  0  0  0
 24 10  2  0  0  0  0
 25  7  1  0  0  0  0
 25  6  1  1  0  0  0
 25 26  1  0  0  0  0
 26 22  1  6  0  0  0
 27 25  1  0  0  0  0
 28 21  1  0  0  0  0
 31 34  1  0  0  0  0
 31 30  1  0  0  0  0
 32 31  1  0  0  0  0
 34 35  1  6  0  0  0
 34 33  1  0  0  0  0
 36 34  1  0  0  0  0
 37 36  1  0  0  0  0
M  END
>  <MODEL>
1

>  <REMARK>
 VINA RESULT:      -9.2      0.000      0.000
  Name = 
  3 active torsions:
  status: ('A' for Active; 'I' for Inactive)
    1  A    between atoms: O_3  and  C_22
    2  A    between atoms: C_10  and  C_22
    3  A    between atoms: C_10  and  C_26
                            x       y       z     vdW  Elec       q    Type
                         _______ _______ _______ _____ _____    ______ ____

>  <TORSDO>
F 3

$$$$
=
 OpenBabel11062421553D

 37 42  0  0  1  0  0  0  0  0999 V2000
  188.8390  174.9930  142.4530 C   0  0  0  0  0  0  0  0  0  0  0  0
  189.5260  177.6620  146.3380 O   0  0  0  0  0  0  0  0  0  0  0  0
  186.9920  176.5640  144.0480 C   0  0  0  0  0  3  0  0  0  0  0  0
  186.6380  177.9980  142.1340 C   0  0  0  0  0  3  0  0  0  0  0  0
  189.1280  175.1390  143.7170 N   0  0  0  0  0  0  0  0  0  0  0  0
  186.8360  178.4150  147.3530 C   0  0  0  0  0  2  0  0  0  0  0  0
  188.6230  176.8540  146.5110 C   0  0  0  0  0  0  0  0  0  0  0  0
  188.9520  175.4060  146.8400 C   0  0  0  0  0  2  0  0  0  0  0  0
  187.8120  175.8350  141.8730 N   0  0  0  0  0  2  0  0  0  0  0  0
  189.3860  173.8700  141.6630 C   0  0  0  0  0  0  0  0  0  0  0  0
  191.6730  173.7810  142.8710 C   0  0  0  0  0  0  0  0  0  0  0  0
  191.1430  174.0190  144.0750 N   0  0  0  0  0  0  0  0  0  0  0  0
  192.0900  174.3220  144.9370 C   0  0  0  0  0  0  0  0  0  0  0  0
  190.0430  174.7070  145.9780 C   0  0  1  0  0  3  0  0  0  0  0  0
  186.2730  179.0350  143.0210 C   0  0  0  0  0  3  0  0  0  0  0  0
  187.0420  176.7600  142.6650 C   0  0  0  0  0  0  0  0  0  0  0  0
  189.8090  174.1750  144.5460 C   0  0  1  0  0  3  0  0  0  0  0  0
  191.5710  174.8530  146.2370 C   0  0  2  0  0  3  0  0  0  0  0  0
  186.3740  178.8520  144.4120 C   0  0  0  0  0  3  0  0  0  0  0  0
  190.8860  173.5650  141.5970 C   0  0  1  0  0  3  0  0  0  0  0  0
  193.3260  174.1530  144.3250 C   0  0  0  0  0  0  0  0  0  0  0  0
  184.4470  177.1510  146.9010 S   0  0  0  0  0  1  0  0  0  0  0  0
  191.1390  172.1440  141.0890 C   0  0  0  0  0  1  0  0  0  0  0  0
  188.5980  173.2300  140.9170 O   0  0  0  0  0  0  0  0  0  0  0  0
  187.1890  177.3370  146.3420 C   0  0  1  0  0  0  0  0  0  0  0  0
  186.1800  177.0390  147.4560 C   0  0  1  0  0  3  0  0  0  0  0  0
  186.7350  177.5920  144.9250 C   0  0  0  0  0  0  0  0  0  0  0  0
  193.0610  173.8330  142.9820 C   0  0  0  0  0  3  0  0  0  0  0  0
  191.9470  176.3140  146.3660 C   0  0  0  0  0  1  0  0  0  0  0  0
  195.5780  174.8830  144.1670 F   0  0  0  0  0  0  0  0  0  0  0  0
  194.7120  174.1360  144.9500 C   0  0  0  0  0  0  0  0  0  0  0  0
  194.6380  174.7630  146.1870 F   0  0  0  0  0  0  0  0  0  0  0  0
  195.6090  172.2170  143.9030 F   0  0  0  0  0  0  0  0  0  0  0  0
  195.2970  172.7260  145.1620 C   0  0  1  0  0  0  0  0  0  0  0  0
  196.5980  172.8190  145.9730 C   0  0  0  0  0  1  0  0  0  0  0  0
  194.3420  171.9140  145.8110 O   0  0  0  0  0  0  0  0  0  0  0  0
  194.3380  170.6320  145.2390 C   0  0  0  0  0  1  0  0  0  0  0  0
  1  5  2  0  0  0  0
  2  7  2  0  0  0  0
  3 27  1  0  0  0  0
  4 16  1  0  0  0  0
  4 15  2  0  0  0  0
  6 26  1  0  0  0  0
  7  8  1  0  0  0  0
  9  1  1  0  0  0  0
  9 16  1  0  0  0  0
 10  1  1  0  0  0  0
 11 28  2  0  0  0  0
 11 12  1  0  0  0  0
 12 17  1  0  0  0  0
 12 13  1  0  0  0  0
 13 18  1  0  0  0  0
 14 18  1  0  0  0  0
 14  8  1  6  0  0  0
 15 19  1  0  0  0  0
 16  3  2  0  0  0  0
 17  5  1  6  0  0  0
 17 14  1  0  0  0  0
 18 29  1  6  0  0  0
 19 27  2  0  0  0  0
 20 23  1  1  0  0  0
 20 10  1  0  0  0  0
 20 11  1  0  0  0  0
 21 13  2  0  0  0  0
 21 31  1  0  0  0  0
 24 10  2  0  0  0  0
 25  7  1  0  0  0  0
 25  6  1  1  0  0  0
 25 26  1  0  0  0  0
 26 22  1  6  0  0  0
 27 25  1  0  0  0  0
 28 21  1  0  0  0  0
 30 31  1  0  0  0  0
 31 34  1  0  0  0  0
 31 32  1  0  0  0  0
 33 34  1  0  0  0  0
 34 36  1  0  0  0  0
 34 35  1  1  0  0  0
 37 36  1  0  0  0  0
M  END
>  <MODEL>
2

>  <REMARK>
 VINA RESULT:      -8.8      1.110      1.699
  Name = 
  3 active torsions:
  status: ('A' for Active; 'I' for Inactive)
    1  A    between atoms: O_3  and  C_22
    2  A    between atoms: C_10  and  C_22
    3  A    between atoms: C_10  and  C_26
                            x       y       z     vdW  Elec       q    Type
                         _______ _______ _______ _____ _____    ______ ____

>  <TORSDO>
F 3

$$$$
=
 OpenBabel11062421553D

 37 42  0  0  1  0  0  0  0  0999 V2000
  189.5790  174.6750  142.3680 C   0  0  0  0  0  0  0  0  0  0  0  0
  192.2650  174.6680  146.3020 O   0  0  0  0  0  0  0  0  0  0  0  0
  192.3280  173.8580  142.8070 C   0  0  0  0  0  3  0  0  0  0  0  0
  191.6880  171.5910  142.2610 C   0  0  0  0  0  3  0  0  0  0  0  0
  190.2290  175.2820  143.3240 N   0  0  0  0  0  0  0  0  0  0  0  0
  195.0430  174.0500  145.4470 C   0  0  0  0  0  2  0  0  0  0  0  0
  192.8290  175.2460  145.3820 C   0  0  0  0  0  0  0  0  0  0  0  0
  192.4530  176.6800  145.0430 C   0  0  0  0  0  2  0  0  0  0  0  0
  190.1450  173.4700  141.7980 N   0  0  0  0  0  2  0  0  0  0  0  0
  188.3970  175.2930  141.7300 C   0  0  0  0  0  0  0  0  0  0  0  0
  187.5170  176.4590  143.8660 C   0  0  0  0  0  0  0  0  0  0  0  0
  188.7390  176.7950  144.2890 N   0  0  0  0  0  0  0  0  0  0  0  0
  188.6940  177.1900  145.5440 C   0  0  0  0  0  0  0  0  0  0  0  0
  190.9360  177.0170  144.9430 C   0  0  1  0  0  3  0  0  0  0  0  0
  192.7810  171.1330  143.0300 C   0  0  0  0  0  3  0  0  0  0  0  0
  191.4410  172.9740  142.1880 C   0  0  0  0  0  0  0  0  0  0  0  0
  190.0430  176.6510  143.7370 C   0  0  1  0  0  3  0  0  0  0  0  0
  190.0420  177.3380  146.1770 C   0  0  2  0  0  3  0  0  0  0  0  0
  193.5690  172.0410  143.7600 C   0  0  0  0  0  3  0  0  0  0  0  0
  187.2000  175.8070  142.5380 C   0  0  1  0  0  3  0  0  0  0  0  0
  187.3650  177.2510  145.9480 C   0  0  0  0  0  0  0  0  0  0  0  0
  196.1580  174.3780  142.9640 S   0  0  0  0  0  1  0  0  0  0  0  0
  186.3410  176.7600  141.7060 C   0  0  0  0  0  1  0  0  0  0  0  0
  188.3220  175.2680  140.4730 O   0  0  0  0  0  0  0  0  0  0  0  0
  193.8680  174.4740  144.5810 C   0  0  1  0  0  0  0  0  0  0  0  0
  195.2460  175.1090  144.3650 C   0  0  1  0  0  3  0  0  0  0  0  0
  193.3360  173.4230  143.6380 C   0  0  0  0  0  0  0  0  0  0  0  0
  186.6040  176.7510  144.8770 C   0  0  0  0  0  3  0  0  0  0  0  0
  190.2130  176.2750  147.2430 C   0  0  0  0  0  1  0  0  0  0  0  0
  186.1840  176.8790  147.9710 F   0  0  0  0  0  0  0  0  0  0  0  0
  186.7720  177.8710  147.2020 C   0  0  0  0  0  0  0  0  0  0  0  0
  187.8080  178.4080  147.9540 F   0  0  0  0  0  0  0  0  0  0  0  0
  185.9820  179.9960  147.8690 F   0  0  0  0  0  0  0  0  0  0  0  0
  185.7450  178.9900  146.9350 C   0  0  1  0  0  0  0  0  0  0  0  0
  185.9710  179.5790  145.5350 C   0  0  0  0  0  1  0  0  0  0  0  0
  184.4390  178.4720  147.0710 O   0  0  0  0  0  0  0  0  0  0  0  0
  183.7140  178.6920  145.8900 C   0  0  0  0  0  1  0  0  0  0  0  0
  1  5  2  0  0  0  0
  3 27  1  0  0  0  0
  4 15  2  0  0  0  0
  7  2  2  0  0  0  0
  8  7  1  0  0  0  0
  9 16  1  0  0  0  0
  9  1  1  0  0  0  0
 10  1  1  0  0  0  0
 10 20  1  0  0  0  0
 11 12  1  0  0  0  0
 11 28  2  0  0  0  0
 12 13  1  0  0  0  0
 13 21  2  0  0  0  0
 13 18  1  0  0  0  0
 14  8  1  1  0  0  0
 14 18  1  0  0  0  0
 15 19  1  0  0  0  0
 16  4  1  0  0  0  0
 16  3  2  0  0  0  0
 17  5  1  1  0  0  0
 17 12  1  0  0  0  0
 17 14  1  0  0  0  0
 18 29  1  1  0  0  0
 20 23  1  6  0  0  0
 20 11  1  0  0  0  0
 21 31  1  0  0  0  0
 24 10  2  0  0  0  0
 25  7  1  0  0  0  0
 25  6  1  1  0  0  0
 26 22  1  6  0  0  0
 26 25  1  0  0  0  0
 26  6  1  0  0  0  0
 27 19  2  0  0  0  0
 27 25  1  0  0  0  0
 28 21  1  0  0  0  0
 31 32  1  0  0  0  0
 31 30  1  0  0  0  0
 34 35  1  6  0  0  0
 34 36  1  0  0  0  0
 34 31  1  0  0  0  0
 34 33  1  0  0  0  0
 37 36  1  0  0  0  0
M  END
>  <MODEL>
3

>  <REMARK>
 VINA RESULT:      -8.8      3.775      7.414
  Name = 
  3 active torsions:
  status: ('A' for Active; 'I' for Inactive)
    1  A    between atoms: O_3  and  C_22
    2  A    between atoms: C_10  and  C_22
    3  A    between atoms: C_10  and  C_26
                            x       y       z     vdW  Elec       q    Type
                         _______ _______ _______ _____ _____    ______ ____

>  <TORSDO>
F 3

$$$$
=
 OpenBabel11062421553D

 37 42  0  0  1  0  0  0  0  0999 V2000
  190.6710  173.8580  142.0450 C   0  0  0  0  0  0  0  0  0  0  0  0
  192.0070  175.5740  146.2820 O   0  0  0  0  0  0  0  0  0  0  0  0
  193.2040  173.7230  143.4520 C   0  0  0  0  0  3  0  0  0  0  0  0
  192.9370  171.3250  143.5990 C   0  0  0  0  0  3  0  0  0  0  0  0
  190.9470  174.8420  142.8570 N   0  0  0  0  0  0  0  0  0  0  0  0
  194.9520  175.2210  146.4660 C   0  0  0  0  0  2  0  0  0  0  0  0
  192.7810  175.9220  145.4010 C   0  0  0  0  0  0  0  0  0  0  0  0
  192.4210  177.0840  144.4870 C   0  0  0  0  0  2  0  0  0  0  0  0
  191.4750  172.6550  142.1100 N   0  0  0  0  0  2  0  0  0  0  0  0
  189.6990  174.0210  140.9420 C   0  0  0  0  0  0  0  0  0  0  0  0
  188.1190  175.6290  142.2120 C   0  0  0  0  0  0  0  0  0  0  0  0
  189.1220  176.2930  142.7940 N   0  0  0  0  0  0  0  0  0  0  0  0
  188.6620  177.0510  143.7670 C   0  0  0  0  0  0  0  0  0  0  0  0
  190.9880  177.0970  143.8790 C   0  0  1  0  0  3  0  0  0  0  0  0
  193.7720  171.3350  144.7380 C   0  0  0  0  0  3  0  0  0  0  0  0
  192.6210  172.5460  142.9770 C   0  0  0  0  0  0  0  0  0  0  0  0
  190.5400  176.2150  142.6920 C   0  0  1  0  0  3  0  0  0  0  0  0
  189.7350  177.6280  144.6370 C   0  0  2  0  0  3  0  0  0  0  0  0
  194.2250  172.5520  145.2790 C   0  0  0  0  0  3  0  0  0  0  0  0
  188.2770  174.5440  141.1690 C   0  0  1  0  0  3  0  0  0  0  0  0
  187.2740  177.0000  143.7580 C   0  0  0  0  0  0  0  0  0  0  0  0
  196.7490  174.9370  144.4160 S   0  0  0  0  0  1  0  0  0  0  0  0
  187.6460  175.0160  139.8580 C   0  0  0  0  0  1  0  0  0  0  0  0
  190.0170  173.5870  139.8030 O   0  0  0  0  0  0  0  0  0  0  0  0
  194.0720  175.1330  145.2300 C   0  0  1  0  0  0  0  0  0  0  0  0
  195.3970  175.9000  145.1720 C   0  0  1  0  0  3  0  0  0  0  0  0
  193.9370  173.7600  144.6170 C   0  0  0  0  0  0  0  0  0  0  0  0
  186.9190  176.0590  142.7740 C   0  0  0  0  0  3  0  0  0  0  0  0
  189.6490  177.0060  146.0150 C   0  0  0  0  0  1  0  0  0  0  0  0
  186.7440  179.1730  144.5480 F   0  0  0  0  0  0  0  0  0  0  0  0
  186.2770  177.8690  144.5070 C   0  0  0  0  0  0  0  0  0  0  0  0
  185.0880  177.8850  143.7900 F   0  0  0  0  0  0  0  0  0  0  0  0
  186.5700  176.1450  146.0960 F   0  0  0  0  0  0  0  0  0  0  0  0
  185.9650  177.3900  145.9390 C   0  0  1  0  0  0  0  0  0  0  0  0
  186.5890  178.3540  146.9580 C   0  0  0  0  0  1  0  0  0  0  0  0
  184.5670  177.2970  146.1080 O   0  0  0  0  0  0  0  0  0  0  0  0
  184.0940  178.4220  146.8010 C   0  0  0  0  0  1  0  0  0  0  0  0
  1  9  1  0  0  0  0
  1  5  2  0  0  0  0
  3 27  1  0  0  0  0
  4 15  2  0  0  0  0
  7  2  2  0  0  0  0
  8  7  1  0  0  0  0
  9 16  1  0  0  0  0
 10 20  1  0  0  0  0
 10  1  1  0  0  0  0
 11 28  2  0  0  0  0
 11 12  1  0  0  0  0
 12 13  1  0  0  0  0
 13 18  1  0  0  0  0
 14  8  1  1  0  0  0
 14 18  1  0  0  0  0
 15 19  1  0  0  0  0
 16  3  2  0  0  0  0
 16  4  1  0  0  0  0
 17 12  1  0  0  0  0
 17  5  1  1  0  0  0
 17 14  1  0  0  0  0
 18 29  1  1  0  0  0
 20 23  1  6  0  0  0
 20 11  1  0  0  0  0
 21 13  2  0  0  0  0
 21 31  1  0  0  0  0
 24 10  2  0  0  0  0
 25  7  1  0  0  0  0
 25  6  1  1  0  0  0
 26 22  1  6  0  0  0
 26 25  1  0  0  0  0
 26  6  1  0  0  0  0
 27 25  1  0  0  0  0
 27 19  2  0  0  0  0
 28 21  1  0  0  0  0
 31 30  1  0  0  0  0
 31 34  1  0  0  0  0
 32 31  1  0  0  0  0
 34 33  1  0  0  0  0
 34 36  1  0  0  0  0
 34 35  1  1  0  0  0
 36 37  1  0  0  0  0
M  END
>  <MODEL>
4

>  <REMARK>
 VINA RESULT:      -8.7      3.855      7.358
  Name = 
  3 active torsions:
  status: ('A' for Active; 'I' for Inactive)
    1  A    between atoms: O_3  and  C_22
    2  A    between atoms: C_10  and  C_22
    3  A    between atoms: C_10  and  C_26
                            x       y       z     vdW  Elec       q    Type
                         _______ _______ _______ _____ _____    ______ ____

>  <TORSDO>
F 3

$$$$
=
 OpenBabel11062421553D

 37 42  0  0  1  0  0  0  0  0999 V2000
  190.0550  176.0770  146.1350 C   0  0  0  0  0  0  0  0  0  0  0  0
  186.7890  175.3630  142.7420 O   0  0  0  0  0  0  0  0  0  0  0  0
  187.5670  177.4520  145.5530 C   0  0  0  0  0  3  0  0  0  0  0  0
  186.7060  176.6870  147.6780 C   0  0  0  0  0  3  0  0  0  0  0  0
  189.6630  176.0850  144.8900 N   0  0  0  0  0  0  0  0  0  0  0  0
  184.9140  177.6660  142.8530 C   0  0  0  0  0  2  0  0  0  0  0  0
  187.1580  176.5300  142.7610 C   0  0  0  0  0  0  0  0  0  0  0  0
  188.4750  176.9210  142.1070 C   0  0  0  0  0  2  0  0  0  0  0  0
  189.1170  176.4820  147.1620 N   0  0  0  0  0  2  0  0  0  0  0  0
  191.4730  175.8590  146.4930 C   0  0  0  0  0  0  0  0  0  0  0  0
  191.9830  174.2000  144.5740 C   0  0  0  0  0  0  0  0  0  0  0  0
  191.2480  174.8710  143.6820 N   0  0  0  0  0  0  0  0  0  0  0  0
  191.0520  174.1370  142.6080 C   0  0  0  0  0  0  0  0  0  0  0  0
  189.7170  176.0350  142.4140 C   0  0  1  0  0  3  0  0  0  0  0  0
  185.4000  176.8050  147.1530 C   0  0  0  0  0  3  0  0  0  0  0  0
  187.8020  176.9770  146.8450 C   0  0  0  0  0  0  0  0  0  0  0  0
  190.5220  176.0950  143.7320 C   0  0  1  0  0  3  0  0  0  0  0  0
  190.0300  174.7030  141.6720 C   0  0  2  0  0  3  0  0  0  0  0  0
  185.2020  177.1450  145.8020 C   0  0  0  0  0  3  0  0  0  0  0  0
  192.2730  174.6550  145.9880 C   0  0  1  0  0  3  0  0  0  0  0  0
  191.7970  172.9690  142.7210 C   0  0  0  0  0  0  0  0  0  0  0  0
  185.3660  180.1630  143.8880 S   0  0  0  0  0  1  0  0  0  0  0  0
  193.7770  174.8890  146.1380 C   0  0  0  0  0  1  0  0  0  0  0  0
  191.9910  176.6230  147.3490 O   0  0  0  0  0  0  0  0  0  0  0  0
  186.2880  177.5440  143.4900 C   0  0  1  0  0  0  0  0  0  0  0  0
  185.8950  178.8320  142.7590 C   0  0  1  0  0  3  0  0  0  0  0  0
  186.3080  177.4770  144.9980 C   0  0  0  0  0  0  0  0  0  0  0  0
  192.3760  172.9920  144.0020 C   0  0  0  0  0  3  0  0  0  0  0  0
  188.8110  173.8050  141.6610 C   0  0  0  0  0  1  0  0  0  0  0  0
  192.2120  172.5350  140.4260 F   0  0  0  0  0  0  0  0  0  0  0  0
  192.1030  171.9210  141.6630 C   0  0  0  0  0  0  0  0  0  0  0  0
  193.3410  171.3620  141.9510 F   0  0  0  0  0  0  0  0  0  0  0  0
  190.0740  171.0590  142.5140 F   0  0  0  0  0  0  0  0  0  0  0  0
  191.0710  170.7790  141.5810 C   0  0  1  0  0  0  0  0  0  0  0  0
  190.4260  170.7600  140.1880 C   0  0  0  0  0  1  0  0  0  0  0  0
  191.7040  169.5520  141.8730 O   0  0  0  0  0  0  0  0  0  0  0  0
  190.8170  168.4900  141.6370 C   0  0  0  0  0  1  0  0  0  0  0  0
  1 10  1  0  0  0  0
  1  9  1  0  0  0  0
  2  7  2  0  0  0  0
  3 16  1  0  0  0  0
  5  1  2  0  0  0  0
  7 25  1  0  0  0  0
  8  7  1  0  0  0  0
 10 24  2  0  0  0  0
 11 20  1  0  0  0  0
 12 17  1  0  0  0  0
 12 11  1  0  0  0  0
 13 21  2  0  0  0  0
 13 12  1  0  0  0  0
 14  8  1  1  0  0  0
 14 17  1  0  0  0  0
 15  4  1  0  0  0  0
 16  9  1  0  0  0  0
 16  4  2  0  0  0  0
 17  5  1  1  0  0  0
 18 29  1  1  0  0  0
 18 14  1  0  0  0  0
 18 13  1  0  0  0  0
 19 15  2  0  0  0  0
 20 23  1  6  0  0  0
 20 10  1  0  0  0  0
 21 28  1  0  0  0  0
 25  6  1  6  0  0  0
 25 27  1  0  0  0  0
 26  6  1  0  0  0  0
 26 25  1  0  0  0  0
 26 22  1  1  0  0  0
 27  3  2  0  0  0  0
 27 19  1  0  0  0  0
 28 11  2  0  0  0  0
 30 31  1  0  0  0  0
 31 32  1  0  0  0  0
 31 21  1  0  0  0  0
 34 35  1  6  0  0  0
 34 31  1  0  0  0  0
 34 36  1  0  0  0  0
 34 33  1  0  0  0  0
 37 36  1  0  0  0  0
M  END
>  <MODEL>
5

>  <REMARK>
 VINA RESULT:      -8.3      2.383      5.028
  Name = 
  3 active torsions:
  status: ('A' for Active; 'I' for Inactive)
    1  A    between atoms: O_3  and  C_22
    2  A    between atoms: C_10  and  C_22
    3  A    between atoms: C_10  and  C_26
                            x       y       z     vdW  Elec       q    Type
                         _______ _______ _______ _____ _____    ______ ____

>  <TORSDO>
F 3

$$$$
=
 OpenBabel11062421553D

 37 42  0  0  1  0  0  0  0  0999 V2000
  191.0630  173.3440  141.9140 C   0  0  0  0  0  0  0  0  0  0  0  0
  192.2810  175.3060  146.0790 O   0  0  0  0  0  0  0  0  0  0  0  0
  193.5520  173.2840  143.4020 C   0  0  0  0  0  3  0  0  0  0  0  0
  193.2680  170.9000  143.6840 C   0  0  0  0  0  3  0  0  0  0  0  0
  191.3200  174.3740  142.6730 N   0  0  0  0  0  0  0  0  0  0  0  0
  195.2170  174.9530  146.3720 C   0  0  0  0  0  2  0  0  0  0  0  0
  193.0840  175.5970  145.2020 C   0  0  0  0  0  0  0  0  0  0  0  0
  192.7570  176.7040  144.2100 C   0  0  0  0  0  2  0  0  0  0  0  0
  191.8580  172.1440  142.0750 N   0  0  0  0  0  2  0  0  0  0  0  0
  190.1250  173.4440  140.7740 C   0  0  0  0  0  0  0  0  0  0  0  0
  188.5160  175.1320  141.8970 C   0  0  0  0  0  0  0  0  0  0  0  0
  189.5050  175.8260  142.4680 N   0  0  0  0  0  0  0  0  0  0  0  0
  189.0220  176.6420  143.3800 C   0  0  0  0  0  0  0  0  0  0  0  0
  191.3430  176.6860  143.5600 C   0  0  1  0  0  3  0  0  0  0  0  0
  194.0680  170.9760  144.8460 C   0  0  0  0  0  3  0  0  0  0  0  0
  192.9770  172.0830  142.9810 C   0  0  0  0  0  0  0  0  0  0  0  0
  190.9260  175.7360  142.4140 C   0  0  1  0  0  3  0  0  0  0  0  0
  190.0710  177.2660  144.2460 C   0  0  2  0  0  3  0  0  0  0  0  0
  194.5120  172.2210  145.3260 C   0  0  0  0  0  3  0  0  0  0  0  0
  188.7000  173.9850  140.9270 C   0  0  1  0  0  3  0  0  0  0  0  0
  187.6330  176.5960  143.3330 C   0  0  0  0  0  0  0  0  0  0  0  0
  197.0730  174.5400  144.3970 S   0  0  0  0  0  1  0  0  0  0  0  0
  188.1110  174.3800  139.5710 C   0  0  0  0  0  1  0  0  0  0  0  0
  190.4750  172.9410  139.6740 O   0  0  0  0  0  0  0  0  0  0  0  0
  194.3750  174.7950  145.1170 C   0  0  1  0  0  0  0  0  0  0  0  0
  195.7050  175.5520  145.0540 C   0  0  1  0  0  3  0  0  0  0  0  0
  194.2500  173.3880  144.5840 C   0  0  0  0  0  0  0  0  0  0  0  0
  187.3030  175.5990  142.3970 C   0  0  0  0  0  3  0  0  0  0  0  0
  189.9400  176.7290  145.6560 C   0  0  0  0  0  1  0  0  0  0  0  0
  185.6320  176.7480  144.5970 F   0  0  0  0  0  0  0  0  0  0  0  0
  186.6200  177.5130  143.9980 C   0  0  0  0  0  0  0  0  0  0  0  0
  187.2640  178.2120  145.0100 F   0  0  0  0  0  0  0  0  0  0  0  0
  186.8880  178.7940  142.0300 F   0  0  0  0  0  0  0  0  0  0  0  0
  185.9710  178.5390  143.0480 C   0  0  1  0  0  0  0  0  0  0  0  0
  184.7110  177.9340  142.4110 C   0  0  0  0  0  1  0  0  0  0  0  0
  185.6710  179.7180  143.7640 O   0  0  0  0  0  0  0  0  0  0  0  0
  184.3970  179.6130  144.3430 C   0  0  0  0  0  1  0  0  0  0  0  0
  1  9  1  0  0  0  0
  1  5  2  0  0  0  0
  3 27  1  0  0  0  0
  4 15  2  0  0  0  0
  7  2  2  0  0  0  0
  8  7  1  0  0  0  0
  9 16  1  0  0  0  0
 10 20  1  0  0  0  0
 10  1  1  0  0  0  0
 11 28  2  0  0  0  0
 11 12  1  0  0  0  0
 12 13  1  0  0  0  0
 13 18  1  0  0  0  0
 14  8  1  1  0  0  0
 14 18  1  0  0  0  0
 15 19  1  0  0  0  0
 16  3  2  0  0  0  0
 16  4  1  0  0  0  0
 17 12  1  0  0  0  0
 17  5  1  1  0  0  0
 17 14  1  0  0  0  0
 18 29  1  1  0  0  0
 20 23  1  6  0  0  0
 20 11  1  0  0  0  0
 21 13  2  0  0  0  0
 21 31  1  0  0  0  0
 24 10  2  0  0  0  0
 25  7  1  0  0  0  0
 25  6  1  1  0  0  0
 26 22  1  6  0  0  0
 26 25  1  0  0  0  0
 26  6  1  0  0  0  0
 27 25  1  0  0  0  0
 27 19  2  0  0  0  0
 28 21  1  0  0  0  0
 31 30  1  0  0  0  0
 31 32  1  0  0  0  0
 33 34  1  0  0  0  0
 34 35  1  6  0  0  0
 34 36  1  0  0  0  0
 34 31  1  0  0  0  0
 36 37  1  0  0  0  0
M  END
>  <MODEL>
6

>  <REMARK>
 VINA RESULT:      -8.3      3.910      7.483
  Name = 
  3 active torsions:
  status: ('A' for Active; 'I' for Inactive)
    1  A    between atoms: O_3  and  C_22
    2  A    between atoms: C_10  and  C_22
    3  A    between atoms: C_10  and  C_26
                            x       y       z     vdW  Elec       q    Type
                         _______ _______ _______ _____ _____    ______ ____

>  <TORSDO>
F 3

$$$$
=
 OpenBabel11062421553D

 37 42  0  0  1  0  0  0  0  0999 V2000
  191.7540  175.1040  144.3140 C   0  0  0  0  0  0  0  0  0  0  0  0
  189.8640  173.9850  140.0880 O   0  0  0  0  0  0  0  0  0  0  0  0
  192.4560  173.0520  142.3860 C   0  0  0  0  0  3  0  0  0  0  0  0
  194.5780  174.1610  142.0550 C   0  0  0  0  0  3  0  0  0  0  0  0
  190.7890  174.6420  143.5670 N   0  0  0  0  0  0  0  0  0  0  0  0
  191.1100  171.4250  139.2370 C   0  0  0  0  0  2  0  0  0  0  0  0
  189.9400  173.0010  140.8120 C   0  0  0  0  0  0  0  0  0  0  0  0
  188.8970  172.7740  141.8960 C   0  0  0  0  0  2  0  0  0  0  0  0
  193.1220  174.7940  143.9530 N   0  0  0  0  0  2  0  0  0  0  0  0
  191.4770  175.7570  145.6110 C   0  0  0  0  0  0  0  0  0  0  0  0
  189.2540  176.8660  144.8850 C   0  0  0  0  0  0  0  0  0  0  0  0
  188.8600  175.8070  144.1720 N   0  0  0  0  0  0  0  0  0  0  0  0
  187.8410  176.1290  143.4050 C   0  0  0  0  0  0  0  0  0  0  0  0
  188.5270  173.9890  142.7980 C   0  0  1  0  0  3  0  0  0  0  0  0
  194.6430  173.5790  140.7690 C   0  0  0  0  0  3  0  0  0  0  0  0
  193.4450  173.9220  142.8530 C   0  0  0  0  0  0  0  0  0  0  0  0
  189.4060  174.5100  143.9560 C   0  0  1  0  0  3  0  0  0  0  0  0
  187.5000  175.0850  142.3870 C   0  0  2  0  0  3  0  0  0  0  0  0
  193.5630  172.8270  140.2710 C   0  0  0  0  0  3  0  0  0  0  0  0
  190.4940  176.9240  145.7520 C   0  0  1  0  0  3  0  0  0  0  0  0
  187.4420  177.4260  143.7070 C   0  0  0  0  0  0  0  0  0  0  0  0
  192.3020  169.5220  140.8100 S   0  0  0  0  0  1  0  0  0  0  0  0
  190.0750  177.1200  147.2090 C   0  0  0  0  0  1  0  0  0  0  0  0
  192.1780  175.4250  146.6030 O   0  0  0  0  0  0  0  0  0  0  0  0
  191.1190  172.0590  140.6180 C   0  0  1  0  0  0  0  0  0  0  0  0
  190.8410  170.5590  140.4670 C   0  0  1  0  0  3  0  0  0  0  0  0
  192.4580  172.5600  141.1010 C   0  0  0  0  0  0  0  0  0  0  0  0
  188.3720  177.9160  144.6420 C   0  0  0  0  0  3  0  0  0  0  0  0
  187.8170  175.6130  141.0040 C   0  0  0  0  0  1  0  0  0  0  0  0
  186.5320  179.2560  142.5040 F   0  0  0  0  0  0  0  0  0  0  0  0
  186.1840  178.1660  143.2850 C   0  0  0  0  0  0  0  0  0  0  0  0
  185.4270  177.3180  142.4870 F   0  0  0  0  0  0  0  0  0  0  0  0
  185.9030  179.7690  144.9990 F   0  0  0  0  0  0  0  0  0  0  0  0
  185.2990  178.6360  144.4570 C   0  0  1  0  0  0  0  0  0  0  0  0
  183.9140  179.0410  143.9330 C   0  0  0  0  0  1  0  0  0  0  0  0
  185.2060  177.6060  145.4170 O   0  0  0  0  0  0  0  0  0  0  0  0
  184.4410  178.0430  146.5110 C   0  0  0  0  0  1  0  0  0  0  0  0
  1 10  1  0  0  0  0
  2  7  2  0  0  0  0
  3 16  1  0  0  0  0
  4 16  2  0  0  0  0
  5  1  2  0  0  0  0
  6 26  1  0  0  0  0
  7  8  1  0  0  0  0
  9  1  1  0  0  0  0
 10 20  1  0  0  0  0
 10 24  2  0  0  0  0
 11 20  1  0  0  0  0
 12 11  1  0  0  0  0
 13 21  2  0  0  0  0
 13 12  1  0  0  0  0
 14  8  1  6  0  0  0
 14 17  1  0  0  0  0
 15  4  1  0  0  0  0
 16  9  1  0  0  0  0
 17  5  1  6  0  0  0
 17 12  1  0  0  0  0
 18 29  1  6  0  0  0
 18 14  1  0  0  0  0
 18 13  1  0  0  0  0
 19 15  2  0  0  0  0
 19 27  1  0  0  0  0
 20 23  1  1  0  0  0
 21 28  1  0  0  0  0
 25  6  1  6  0  0  0
 25  7  1  0  0  0  0
 25 27  1  0  0  0  0
 26 25  1  0  0  0  0
 26 22  1  1  0  0  0
 27  3  2  0  0  0  0
 28 11  2  0  0  0  0
 30 31  1  0  0  0  0
 31 21  1  0  0  0  0
 31 34  1  0  0  0  0
 32 31  1  0  0  0  0
 34 35  1  6  0  0  0
 34 33  1  0  0  0  0
 34 36  1  0  0  0  0
 36 37  1  0  0  0  0
M  END
>  <MODEL>
7

>  <REMARK>
 VINA RESULT:      -8.2      4.054      8.170
  Name = 
  3 active torsions:
  status: ('A' for Active; 'I' for Inactive)
    1  A    between atoms: O_3  and  C_22
    2  A    between atoms: C_10  and  C_22
    3  A    between atoms: C_10  and  C_26
                            x       y       z     vdW  Elec       q    Type
                         _______ _______ _______ _____ _____    ______ ____

>  <TORSDO>
F 3

$$$$
=
 OpenBabel11062421553D

 37 42  0  0  1  0  0  0  0  0999 V2000
  191.7040  175.1370  145.9070 C   0  0  0  0  0  0  0  0  0  0  0  0
  191.6890  172.8910  141.7060 O   0  0  0  0  0  0  0  0  0  0  0  0
  193.0730  172.7400  145.0130 C   0  0  0  0  0  3  0  0  0  0  0  0
  195.1770  173.8940  145.3060 C   0  0  0  0  0  3  0  0  0  0  0  0
  191.1180  174.4360  144.9740 N   0  0  0  0  0  0  0  0  0  0  0  0
  193.0950  170.3040  142.1070 C   0  0  0  0  0  2  0  0  0  0  0  0
  191.4290  172.1200  142.6200 C   0  0  0  0  0  0  0  0  0  0  0  0
  190.0260  172.0820  143.2060 C   0  0  0  0  0  2  0  0  0  0  0  0
  193.0890  174.8540  146.2230 N   0  0  0  0  0  2  0  0  0  0  0  0
  190.9370  176.0600  146.7700 C   0  0  0  0  0  0  0  0  0  0  0  0
  189.2470  176.7890  144.9510 C   0  0  0  0  0  0  0  0  0  0  0  0
  189.1490  175.5620  144.4300 N   0  0  0  0  0  0  0  0  0  0  0  0
  188.5470  175.6110  143.2600 C   0  0  0  0  0  0  0  0  0  0  0  0
  189.3560  173.4460  143.5430 C   0  0  1  0  0  3  0  0  0  0  0  0
  195.7480  173.0270  144.3480 C   0  0  0  0  0  3  0  0  0  0  0  0
  193.8090  173.7690  145.6060 C   0  0  0  0  0  0  0  0  0  0  0  0
  189.6950  174.2970  144.7880 C   0  0  1  0  0  3  0  0  0  0  0  0
  188.6230  174.3300  142.4910 C   0  0  2  0  0  3  0  0  0  0  0  0
  194.9460  172.0970  143.6610 C   0  0  0  0  0  3  0  0  0  0  0  0
  190.0200  177.1480  146.2020 C   0  0  1  0  0  3  0  0  0  0  0  0
  188.1000  176.9090  143.0400 C   0  0  0  0  0  0  0  0  0  0  0  0
  193.4730  168.9330  144.4510 S   0  0  0  0  0  1  0  0  0  0  0  0
  189.0430  177.6570  147.2630 C   0  0  0  0  0  1  0  0  0  0  0  0
  191.1560  176.0310  148.0100 O   0  0  0  0  0  0  0  0  0  0  0  0
  192.5540  171.2510  143.1660 C   0  0  1  0  0  0  0  0  0  0  0  0
  192.3170  169.7420  143.2960 C   0  0  1  0  0  3  0  0  0  0  0  0
  193.5900  171.9540  144.0080 C   0  0  0  0  0  0  0  0  0  0  0  0
  188.5760  177.6790  144.1160 C   0  0  0  0  0  3  0  0  0  0  0  0
  189.4980  174.5310  141.2710 C   0  0  0  0  0  1  0  0  0  0  0  0
  187.8340  178.2910  141.1300 F   0  0  0  0  0  0  0  0  0  0  0  0
  187.1510  177.4270  141.9710 C   0  0  0  0  0  0  0  0  0  0  0  0
  186.7350  176.3510  141.1990 F   0  0  0  0  0  0  0  0  0  0  0  0
  186.2870  179.4070  142.9310 F   0  0  0  0  0  0  0  0  0  0  0  0
  185.8960  178.1330  142.5230 C   0  0  1  0  0  0  0  0  0  0  0  0
  184.8540  178.2910  141.4070 C   0  0  0  0  0  1  0  0  0  0  0  0
  185.3800  177.3930  143.6090 O   0  0  0  0  0  0  0  0  0  0  0  0
  184.8170  178.2640  144.5550 C   0  0  0  0  0  1  0  0  0  0  0  0
  1  9  1  0  0  0  0
  1 10  1  0  0  0  0
  2  7  2  0  0  0  0
  3 16  1  0  0  0  0
  4 16  2  0  0  0  0
  5  1  2  0  0  0  0
  6 26  1  0  0  0  0
  7 25  1  0  0  0  0
  7  8  1  0  0  0  0
 10 24  2  0  0  0  0
 11 20  1  0  0  0  0
 12 17  1  0  0  0  0
 12 11  1  0  0  0  0
 13 12  1  0  0  0  0
 14  8  1  6  0  0  0
 14 17  1  0  0  0  0
 15  4  1  0  0  0  0
 16  9  1  0  0  0  0
 17  5  1  6  0  0  0
 18 29  1  6  0  0  0
 18 13  1  0  0  0  0
 18 14  1  0  0  0  0
 19 27  1  0  0  0  0
 19 15  2  0  0  0  0
 20 10  1  0  0  0  0
 20 23  1  1  0  0  0
 21 13  2  0  0  0  0
 21 28  1  0  0  0  0
 25  6  1  6  0  0  0
 25 26  1  0  0  0  0
 25 27  1  0  0  0  0
 26 22  1  1  0  0  0
 27  3  2  0  0  0  0
 28 11  2  0  0  0  0
 30 31  1  0  0  0  0
 31 34  1  0  0  0  0
 31 21  1  0  0  0  0
 32 31  1  0  0  0  0
 34 35  1  6  0  0  0
 34 33  1  0  0  0  0
 34 36  1  0  0  0  0
 36 37  1  0  0  0  0
M  END
>  <MODEL>
8

>  <REMARK>
 VINA RESULT:      -8.1      3.923      8.131
  Name = 
  3 active torsions:
  status: ('A' for Active; 'I' for Inactive)
    1  A    between atoms: O_3  and  C_22
    2  A    between atoms: C_10  and  C_22
    3  A    between atoms: C_10  and  C_26
                            x       y       z     vdW  Elec       q    Type
                         _______ _______ _______ _____ _____    ______ ____

>  <TORSDO>
F 3

$$$$
=
 OpenBabel11062421553D

 37 42  0  0  1  0  0  0  0  0999 V2000
  190.0550  175.8430  145.9480 C   0  0  0  0  0  0  0  0  0  0  0  0
  186.5600  175.2690  142.7630 O   0  0  0  0  0  0  0  0  0  0  0  0
  187.6230  177.3560  145.4800 C   0  0  0  0  0  3  0  0  0  0  0  0
  186.8430  176.6810  147.6670 C   0  0  0  0  0  3  0  0  0  0  0  0
  189.5910  175.8530  144.7270 N   0  0  0  0  0  0  0  0  0  0  0  0
  184.8340  177.6820  142.9330 C   0  0  0  0  0  2  0  0  0  0  0  0
  186.9980  176.4120  142.7370 C   0  0  0  0  0  0  0  0  0  0  0  0
  188.2940  176.7110  142.0000 C   0  0  0  0  0  2  0  0  0  0  0  0
  189.2040  176.3230  147.0180 N   0  0  0  0  0  2  0  0  0  0  0  0
  191.4760  175.5470  146.2280 C   0  0  0  0  0  0  0  0  0  0  0  0
  191.7740  173.8260  144.3180 C   0  0  0  0  0  0  0  0  0  0  0  0
  191.0290  174.5250  143.4570 N   0  0  0  0  0  0  0  0  0  0  0  0
  190.7270  173.7850  142.4110 C   0  0  0  0  0  0  0  0  0  0  0  0
  189.4980  175.7570  142.2540 C   0  0  1  0  0  3  0  0  0  0  0  0
  185.5180  176.8690  147.2150 C   0  0  0  0  0  3  0  0  0  0  0  0
  187.9040  176.8910  146.7670 C   0  0  0  0  0  0  0  0  0  0  0  0
  190.3810  175.7910  143.5220 C   0  0  1  0  0  3  0  0  0  0  0  0
  189.6870  174.3950  141.5230 C   0  0  2  0  0  3  0  0  0  0  0  0
  185.2630  177.1970  145.8710 C   0  0  0  0  0  3  0  0  0  0  0  0
  192.1720  174.2870  145.7040 C   0  0  1  0  0  3  0  0  0  0  0  0
  191.4060  172.5760  142.5050 C   0  0  0  0  0  0  0  0  0  0  0  0
  185.4930  180.1660  143.8880 S   0  0  0  0  0  1  0  0  0  0  0  0
  193.6940  174.4320  145.7620 C   0  0  0  0  0  1  0  0  0  0  0  0
  192.0880  176.2930  147.0380 O   0  0  0  0  0  0  0  0  0  0  0  0
  186.2330  177.4890  143.4930 C   0  0  1  0  0  0  0  0  0  0  0  0
  185.8760  178.7860  142.7580 C   0  0  1  0  0  3  0  0  0  0  0  0
  186.3370  177.4470  144.9980 C   0  0  0  0  0  0  0  0  0  0  0  0
  192.0600  172.5870  143.7500 C   0  0  0  0  0  3  0  0  0  0  0  0
  188.4180  173.5730  141.6020 C   0  0  0  0  0  1  0  0  0  0  0  0
  192.3390  170.4580  141.9850 F   0  0  0  0  0  0  0  0  0  0  0  0
  191.5880  171.4940  141.4540 C   0  0  0  0  0  0  0  0  0  0  0  0
  190.3380  170.9730  141.1460 F   0  0  0  0  0  0  0  0  0  0  0  0
  192.9590  173.1350  140.4490 F   0  0  0  0  0  0  0  0  0  0  0  0
  192.2380  171.9820  140.1440 C   0  0  1  0  0  0  0  0  0  0  0  0
  193.2270  170.9250  139.6290 C   0  0  0  0  0  1  0  0  0  0  0  0
  191.2320  172.2530  139.1920 O   0  0  0  0  0  0  0  0  0  0  0  0
  191.5540  173.4160  138.4760 C   0  0  0  0  0  1  0  0  0  0  0  0
  1 10  1  0  0  0  0
  1  9  1  0  0  0  0
  3 16  1  0  0  0  0
  5  1  2  0  0  0  0
  7  2  2  0  0  0  0
  7 25  1  0  0  0  0
  8  7  1  0  0  0  0
 10 24  2  0  0  0  0
 11 20  1  0  0  0  0
 12 17  1  0  0  0  0
 12 11  1  0  0  0  0
 13 21  2  0  0  0  0
 13 12  1  0  0  0  0
 14  8  1  1  0  0  0
 14 17  1  0  0  0  0
 15  4  1  0  0  0  0
 16  9  1  0  0  0  0
 16  4  2  0  0  0  0
 17  5  1  1  0  0  0
 18 29  1  1  0  0  0
 18 14  1  0  0  0  0
 18 13  1  0  0  0  0
 19 15  2  0  0  0  0
 20 23  1  6  0  0  0
 20 10  1  0  0  0  0
 21 28  1  0  0  0  0
 25  6  1  6  0  0  0
 25 27  1  0  0  0  0
 26  6  1  0  0  0  0
 26 25  1  0  0  0  0
 26 22  1  1  0  0  0
 27  3  2  0  0  0  0
 27 19  1  0  0  0  0
 28 11  2  0  0  0  0
 31 30  1  0  0  0  0
 31 21  1  0  0  0  0
 32 31  1  0  0  0  0
 34 35  1  6  0  0  0
 34 33  1  0  0  0  0
 34 31  1  0  0  0  0
 36 34  1  0  0  0  0
 37 36  1  0  0  0  0
M  END
>  <MODEL>
9

>  <REMARK>
 VINA RESULT:      -8.0      2.451      4.802
  Name = 
  3 active torsions:
  status: ('A' for Active; 'I' for Inactive)
    1  A    between atoms: O_3  and  C_22
    2  A    between atoms: C_10  and  C_22
    3  A    between atoms: C_10  and  C_26
                            x       y       z     vdW  Elec       q    Type
                         _______ _______ _______ _____ _____    ______ ____

>  <TORSDO>
F 3

$$$$
