=
 OpenBabel11062422293D

 43 47  0  0  1  0  0  0  0  0999 V2000
  186.9830  178.7830  147.7740 C   0  0  0  0  0  3  0  0  0  0  0  0
  189.2580  177.4580  146.9660 C   0  0  0  0  0  0  0  0  0  0  0  0
  190.4850  178.4310  148.8580 N   0  0  0  0  0  1  0  0  0  0  0  0
  189.8850  174.4770  145.5330 C   0  0  0  0  0  2  0  0  0  0  0  0
  191.2570  173.9940  145.9600 C   0  0  0  0  0  2  0  0  0  0  0  0
  192.0910  173.5610  144.7500 C   0  0  0  0  0  2  0  0  0  0  0  0
  192.1710  176.1200  144.2440 C   0  0  0  0  0  2  0  0  0  0  0  0
  189.8540  175.9910  145.2800 C   0  0  2  0  0  0  0  0  0  0  0  0
  189.2890  178.2650  148.1070 C   0  0  0  0  0  0  0  0  0  0  0  0
  190.2900  176.7060  146.4430 O   0  0  0  0  0  0  0  0  0  0  0  0
  188.3830  176.4210  145.0670 C   0  0  0  0  0  2  0  0  0  0  0  0
  190.6830  176.3840  144.0520 C   0  0  0  0  0  2  0  0  0  0  0  0
  188.1140  177.3250  146.2300 C   0  0  0  0  0  0  0  0  0  0  0  0
  188.1450  178.9100  148.4840 N   0  0  0  0  0  0  0  0  0  0  0  0
  186.9320  177.9830  146.6080 C   0  0  0  0  0  0  0  0  0  0  0  0
  192.5380  174.7040  143.8070 C   0  0  1  0  0  3  0  0  0  0  0  0
  197.1360  176.9240  143.0880 C   0  0  0  0  0  1  0  0  0  0  0  0
  193.4990  172.8890  140.4650 O   0  0  0  0  0  0  0  0  0  0  0  0
  193.9970  173.6500  141.3190 C   0  0  0  0  0  0  0  0  0  0  0  0
  194.5200  174.4450  142.2260 C   0  0  0  0  0  0  0  0  0  0  0  0
  195.1220  175.4980  144.5680 S   0  0  0  0  0  0  0  0  0  0  0  0
  196.0530  175.9110  143.0860 C   0  0  1  0  0  3  0  0  0  0  0  0
  195.6840  175.2720  141.9790 C   0  0  0  0  0  2  0  0  0  0  0  0
  193.9790  174.6070  143.5430 N   0  0  0  0  0  0  0  0  0  0  0  0
  185.6620  177.8520  145.8570 C   0  0  0  0  0  0  0  0  0  0  0  0
  185.3720  178.7750  144.8000 N   0  0  0  0  0  2  0  0  0  0  0  0
  184.8420  176.9330  146.1350 O   0  0  0  0  0  0  0  0  0  0  0  0
  184.1130  178.8140  144.0550 C   0  0  0  0  0  2  0  0  0  0  0  0
  184.2170  178.1150  142.6830 C   0  0  1  0  0  3  0  0  0  0  0  0
  181.5250  178.2110  140.2320 N   0  0  0  0  0  0  0  0  0  0  0  0
  180.9980  178.7790  141.3430 C   0  0  0  0  0  0  0  0  0  0  0  0
  182.7880  177.9010  140.5840 C   0  0  0  0  0  3  0  0  0  0  0  0
  181.8570  178.8320  142.3330 O   0  0  0  0  0  0  0  0  0  0  0  0
  182.9650  178.2910  141.8930 C   0  0  0  0  0  0  0  0  0  0  0  0
  178.7610  177.2290  142.2370 O   0  0  0  0  0  1  0  0  0  0  0  0
  179.6150  179.2770  141.4580 C   0  0  0  0  0  3  0  0  0  0  0  0
  178.6210  178.5500  141.8660 N   0  0  0  0  0  0  0  0  0  0  0  0
  185.4480  178.5280  141.8710 C   0  0  0  0  0  2  0  0  0  0  0  0
  186.0890  177.5330  139.7300 O   0  0  0  0  0  1  0  0  0  0  0  0
  186.1100  177.3590  141.1190 C   0  0  1  0  0  3  0  0  0  0  0  0
  188.3950  178.3360  141.9530 C   0  0  0  0  0  1  0  0  0  0  0  0
  187.5330  177.1610  141.5800 C   0  0  0  0  0  0  0  0  0  0  0  0
  188.0100  176.0320  141.6160 O   0  0  0  0  0  0  0  0  0  0  0  0
  1 14  1  0  0  0  0
  2  9  1  0  0  0  0
  4  5  1  0  0  0  0
  6  5  1  0  0  0  0
  8 12  1  6  0  0  0
  8  4  1  0  0  0  0
  8 10  1  0  0  0  0
  9 14  2  0  0  0  0
  9  3  1  0  0  0  0
 10  2  1  0  0  0  0
 11  8  1  0  0  0  0
 11 13  1  0  0  0  0
 12  7  1  0  0  0  0
 13 15  1  0  0  0  0
 13  2  2  0  0  0  0
 15  1  2  0  0  0  0
 16 24  1  1  0  0  0
 16  7  1  0  0  0  0
 16  6  1  0  0  0  0
 18 19  2  0  0  0  0
 19 20  2  0  0  0  0
 20 24  1  0  0  0  0
 22 17  1  6  0  0  0
 22 21  1  0  0  0  0
 23 20  1  0  0  0  0
 23 22  1  0  0  0  0
 24 21  1  0  0  0  0
 25 27  2  0  0  0  0
 25 15  1  0  0  0  0
 26 25  1  0  0  0  0
 28 26  1  0  0  0  0
 29 38  1  6  0  0  0
 29 28  1  0  0  0  0
 30 32  1  0  0  0  0
 30 31  2  0  0  0  0
 31 36  1  0  0  0  0
 31 33  1  0  0  0  0
 32 34  2  0  0  0  0
 34 33  1  0  0  0  0
 34 29  1  0  0  0  0
 36 37  2  0  0  0  0
 37 35  1  0  0  0  0
 40 39  1  6  0  0  0
 40 42  1  0  0  0  0
 40 38  1  0  0  0  0
 42 43  2  0  0  0  0
 42 41  1  0  0  0  0
M  END
>  <MODEL>
1

>  <REMARK>
 VINA RESULT:      -7.5      0.000      0.000
  Name = 
  9 active torsions:
  status: ('A' for Active; 'I' for Inactive)
    1  A    between atoms: C_2  and  C_16
    2  A    between atoms: C_2  and  N_30
    3  A    between atoms: C_5  and  C_41
    4  A    between atoms: C_9  and  C_18
    5  A    between atoms: C_14  and  C_16
    6  A    between atoms: C_14  and  C_34
    7  A    between atoms: C_16  and  C_43
    8  A    between atoms: C_20  and  C_34
    9  A    between atoms: N_38  and  C_42
                            x       y       z     vdW  Elec       q    Type
                         _______ _______ _______ _____ _____    ______ ____

>  <TORSDO>
F 9

$$$$
=
 OpenBabel11062422293D

 43 47  0  0  1  0  0  0  0  0999 V2000
  192.8930  176.2610  146.7210 C   0  0  0  0  0  3  0  0  0  0  0  0
  192.7850  174.5130  144.5960 C   0  0  0  0  0  0  0  0  0  0  0  0
  195.2360  174.5560  144.4490 N   0  0  0  0  0  1  0  0  0  0  0  0
  190.8040  171.9260  143.7510 C   0  0  0  0  0  2  0  0  0  0  0  0
  191.5950  170.9410  142.9140 C   0  0  0  0  0  2  0  0  0  0  0  0
  190.8370  170.5680  141.6360 C   0  0  0  0  0  2  0  0  0  0  0  0
  191.4170  173.0070  140.9150 C   0  0  0  0  0  2  0  0  0  0  0  0
  191.1490  173.3830  143.4140 C   0  0  2  0  0  0  0  0  0  0  0  0
  194.0210  174.9680  145.0630 C   0  0  0  0  0  0  0  0  0  0  0  0
  192.5540  173.6180  143.5700 O   0  0  0  0  0  0  0  0  0  0  0  0
  190.4650  174.2990  144.4560 C   0  0  0  0  0  2  0  0  0  0  0  0
  190.6800  173.7730  142.0080 C   0  0  0  0  0  2  0  0  0  0  0  0
  191.6190  174.9350  145.1700 C   0  0  0  0  0  0  0  0  0  0  0  0
  194.0440  175.8350  146.1190 N   0  0  0  0  0  0  0  0  0  0  0  0
  191.6290  175.8260  146.2560 C   0  0  0  0  0  0  0  0  0  0  0  0
  190.7040  171.6980  140.5880 C   0  0  1  0  0  3  0  0  0  0  0  0
  194.2590  171.1750  136.8890 C   0  0  0  0  0  1  0  0  0  0  0  0
  188.5660  173.0430  137.5860 O   0  0  0  0  0  0  0  0  0  0  0  0
  189.6650  172.4980  137.8100 C   0  0  0  0  0  0  0  0  0  0  0  0
  190.8190  171.9140  138.0510 C   0  0  0  0  0  0  0  0  0  0  0  0
  192.6270  170.3010  139.0920 S   0  0  0  0  0  0  0  0  0  0  0  0
  192.9450  171.2130  137.5740 C   0  0  1  0  0  3  0  0  0  0  0  0
  191.9330  171.9510  137.1250 C   0  0  0  0  0  2  0  0  0  0  0  0
  191.1130  171.2110  139.2640 N   0  0  0  0  0  0  0  0  0  0  0  0
  190.3940  176.2940  146.9260 C   0  0  0  0  0  0  0  0  0  0  0  0
  189.1290  175.7540  146.5250 N   0  0  0  0  0  2  0  0  0  0  0  0
  190.4490  177.1550  147.8480 O   0  0  0  0  0  0  0  0  0  0  0  0
  187.8340  176.2060  147.0370 C   0  0  0  0  0  2  0  0  0  0  0  0
  187.1620  177.2410  146.1090 C   0  0  1  0  0  3  0  0  0  0  0  0
  188.9950  177.5270  142.9750 N   0  0  0  0  0  0  0  0  0  0  0  0
  188.0320  176.6070  142.7270 C   0  0  0  0  0  0  0  0  0  0  0  0
  188.7900  177.8870  144.2570 C   0  0  0  0  0  3  0  0  0  0  0  0
  187.2650  176.3920  143.7690 O   0  0  0  0  0  0  0  0  0  0  0  0
  187.7150  177.1630  144.7270 C   0  0  0  0  0  0  0  0  0  0  0  0
  186.8870  177.7540  140.3650 O   0  0  0  0  0  1  0  0  0  0  0  0
  187.8540  175.9020  141.4440 C   0  0  0  0  0  3  0  0  0  0  0  0
  187.3310  176.4480  140.3900 N   0  0  0  0  0  0  0  0  0  0  0  0
  185.6330  177.1610  146.1000 C   0  0  0  0  0  2  0  0  0  0  0  0
  185.5660  179.4210  147.0380 O   0  0  0  0  0  1  0  0  0  0  0  0
  184.9450  178.5390  146.1450 C   0  0  1  0  0  3  0  0  0  0  0  0
  184.0850  178.5440  143.6690 C   0  0  0  0  0  1  0  0  0  0  0  0
  184.9010  179.1620  144.7710 C   0  0  0  0  0  0  0  0  0  0  0  0
  185.5660  180.1640  144.5350 O   0  0  0  0  0  0  0  0  0  0  0  0
  2  9  2  0  0  0  0
  2 13  1  0  0  0  0
  3  9  1  0  0  0  0
  5  4  1  0  0  0  0
  6  5  1  0  0  0  0
  7 12  1  0  0  0  0
  8 12  1  6  0  0  0
  8 10  1  0  0  0  0
  8  4  1  0  0  0  0
  8 11  1  0  0  0  0
  9 14  1  0  0  0  0
 10  2  1  0  0  0  0
 11 13  1  0  0  0  0
 13 15  2  0  0  0  0
 14  1  2  0  0  0  0
 15  1  1  0  0  0  0
 15 25  1  0  0  0  0
 16 24  1  6  0  0  0
 16  7  1  0  0  0  0
 16  6  1  0  0  0  0
 18 19  2  0  0  0  0
 19 20  2  0  0  0  0
 20 24  1  0  0  0  0
 21 24  1  0  0  0  0
 22 17  1  1  0  0  0
 22 21  1  0  0  0  0
 23 22  1  0  0  0  0
 23 20  1  0  0  0  0
 25 27  2  0  0  0  0
 26 25  1  0  0  0  0
 26 28  1  0  0  0  0
 29 38  1  6  0  0  0
 29 28  1  0  0  0  0
 30 32  1  0  0  0  0
 31 30  2  0  0  0  0
 31 33  1  0  0  0  0
 32 34  2  0  0  0  0
 33 34  1  0  0  0  0
 34 29  1  0  0  0  0
 35 37  1  0  0  0  0
 36 31  1  0  0  0  0
 37 36  2  0  0  0  0
 38 40  1  0  0  0  0
 40 39  1  1  0  0  0
 41 42  1  0  0  0  0
 42 40  1  0  0  0  0
 43 42  2  0  0  0  0
M  END
>  <MODEL>
2

>  <REMARK>
 VINA RESULT:      -7.2      3.414      6.089
  Name = 
  9 active torsions:
  status: ('A' for Active; 'I' for Inactive)
    1  A    between atoms: C_2  and  C_16
    2  A    between atoms: C_2  and  N_30
    3  A    between atoms: C_5  and  C_41
    4  A    between atoms: C_9  and  C_18
    5  A    between atoms: C_14  and  C_16
    6  A    between atoms: C_14  and  C_34
    7  A    between atoms: C_16  and  C_43
    8  A    between atoms: C_20  and  C_34
    9  A    between atoms: N_38  and  C_42
                            x       y       z     vdW  Elec       q    Type
                         _______ _______ _______ _____ _____    ______ ____

>  <TORSDO>
F 9

$$$$
=
 OpenBabel11062422293D

 43 47  0  0  1  0  0  0  0  0999 V2000
  194.7270  175.6690  145.9000 C   0  0  0  0  0  3  0  0  0  0  0  0
  193.6650  174.1860  143.8380 C   0  0  0  0  0  0  0  0  0  0  0  0
  195.9330  173.5400  143.1480 N   0  0  0  0  0  1  0  0  0  0  0  0
  190.8800  172.3390  143.4320 C   0  0  0  0  0  2  0  0  0  0  0  0
  191.1520  171.2340  142.4310 C   0  0  0  0  0  2  0  0  0  0  0  0
  190.0670  171.1880  141.3510 C   0  0  0  0  0  2  0  0  0  0  0  0
  191.1720  173.4080  140.5410 C   0  0  0  0  0  2  0  0  0  0  0  0
  191.5590  173.6590  143.0400 C   0  0  2  0  0  0  0  0  0  0  0  0
  195.0500  174.2340  144.0210 C   0  0  0  0  0  0  0  0  0  0  0  0
  192.9710  173.4720  142.8810 O   0  0  0  0  0  0  0  0  0  0  0  0
  191.4100  174.6520  144.2170 C   0  0  0  0  0  2  0  0  0  0  0  0
  190.9400  174.2690  141.7770 C   0  0  0  0  0  2  0  0  0  0  0  0
  192.8230  174.8780  144.6610 C   0  0  0  0  0  0  0  0  0  0  0  0
  195.5480  174.9790  145.0530 N   0  0  0  0  0  0  0  0  0  0  0  0
  193.3230  175.6470  145.7250 C   0  0  0  0  0  0  0  0  0  0  0  0
  190.0540  172.3830  140.3690 C   0  0  1  0  0  3  0  0  0  0  0  0
  192.4350  171.1520  135.9640 C   0  0  0  0  0  1  0  0  0  0  0  0
  187.8160  174.4950  137.9350 O   0  0  0  0  0  0  0  0  0  0  0  0
  188.7300  173.6460  137.9020 C   0  0  0  0  0  0  0  0  0  0  0  0
  189.6870  172.7440  137.8730 C   0  0  0  0  0  0  0  0  0  0  0  0
  191.1230  170.6140  138.4680 S   0  0  0  0  0  0  0  0  0  0  0  0
  191.3650  171.5090  136.9260 C   0  0  1  0  0  3  0  0  0  0  0  0
  190.5410  172.5330  136.7220 C   0  0  0  0  0  2  0  0  0  0  0  0
  190.0130  171.8990  138.9830 N   0  0  0  0  0  0  0  0  0  0  0  0
  192.4500  176.3960  146.6580 C   0  0  0  0  0  0  0  0  0  0  0  0
  191.0330  176.3980  146.4470 N   0  0  0  0  0  2  0  0  0  0  0  0
  192.9430  177.0220  147.6380 O   0  0  0  0  0  0  0  0  0  0  0  0
  190.0780  177.1790  147.2340 C   0  0  0  0  0  2  0  0  0  0  0  0
  188.7570  177.4340  146.4760 C   0  0  1  0  0  3  0  0  0  0  0  0
  189.8950  177.9150  143.0500 N   0  0  0  0  0  0  0  0  0  0  0  0
  188.7760  177.1590  142.9370 C   0  0  0  0  0  0  0  0  0  0  0  0
  190.0260  178.1210  144.3750 C   0  0  0  0  0  3  0  0  0  0  0  0
  188.2280  176.9010  144.1000 O   0  0  0  0  0  0  0  0  0  0  0  0
  188.9830  177.4760  145.0030 C   0  0  0  0  0  0  0  0  0  0  0  0
  186.5350  178.2920  141.5580 O   0  0  0  0  0  1  0  0  0  0  0  0
  188.2240  176.6600  141.6650 C   0  0  0  0  0  3  0  0  0  0  0  0
  187.2070  177.1940  141.0630 N   0  0  0  0  0  0  0  0  0  0  0  0
  187.6380  176.4540  146.8380 C   0  0  0  0  0  2  0  0  0  0  0  0
  186.6630  178.3800  147.9910 O   0  0  0  0  0  1  0  0  0  0  0  0
  186.3810  177.1390  147.4080 C   0  0  1  0  0  3  0  0  0  0  0  0
  184.2030  178.2910  146.5140 C   0  0  0  0  0  1  0  0  0  0  0  0
  185.3320  177.3130  146.3370 C   0  0  0  0  0  0  0  0  0  0  0  0
  185.3740  176.6230  145.3240 O   0  0  0  0  0  0  0  0  0  0  0  0
  2  9  2  0  0  0  0
  2 13  1  0  0  0  0
  3  9  1  0  0  0  0
  5  4  1  0  0  0  0
  6  5  1  0  0  0  0
  7 12  1  0  0  0  0
  8 12  1  6  0  0  0
  8  4  1  0  0  0  0
  8 11  1  0  0  0  0
  9 14  1  0  0  0  0
 10  8  1  0  0  0  0
 10  2  1  0  0  0  0
 11 13  1  0  0  0  0
 13 15  2  0  0  0  0
 14  1  2  0  0  0  0
 15  1  1  0  0  0  0
 15 25  1  0  0  0  0
 16 24  1  6  0  0  0
 16  7  1  0  0  0  0
 16  6  1  0  0  0  0
 19 18  2  0  0  0  0
 20 19  2  0  0  0  0
 20 24  1  0  0  0  0
 21 24  1  0  0  0  0
 22 17  1  1  0  0  0
 22 21  1  0  0  0  0
 23 22  1  0  0  0  0
 23 20  1  0  0  0  0
 25 27  2  0  0  0  0
 26 25  1  0  0  0  0
 26 28  1  0  0  0  0
 29 38  1  6  0  0  0
 29 28  1  0  0  0  0
 30 32  1  0  0  0  0
 31 30  2  0  0  0  0
 31 33  1  0  0  0  0
 32 34  2  0  0  0  0
 33 34  1  0  0  0  0
 34 29  1  0  0  0  0
 36 31  1  0  0  0  0
 37 35  1  0  0  0  0
 37 36  2  0  0  0  0
 38 40  1  0  0  0  0
 40 39  1  6  0  0  0
 42 41  1  0  0  0  0
 42 40  1  0  0  0  0
 43 42  2  0  0  0  0
M  END
>  <MODEL>
3

>  <REMARK>
 VINA RESULT:      -7.1      3.698      6.949
  Name = 
  9 active torsions:
  status: ('A' for Active; 'I' for Inactive)
    1  A    between atoms: C_2  and  C_16
    2  A    between atoms: C_2  and  N_30
    3  A    between atoms: C_5  and  C_41
    4  A    between atoms: C_9  and  C_18
    5  A    between atoms: C_14  and  C_16
    6  A    between atoms: C_14  and  C_34
    7  A    between atoms: C_16  and  C_43
    8  A    between atoms: C_20  and  C_34
    9  A    between atoms: N_38  and  C_42
                            x       y       z     vdW  Elec       q    Type
                         _______ _______ _______ _____ _____    ______ ____

>  <TORSDO>
F 9

$$$$
=
 OpenBabel11062422293D

 43 47  0  0  1  0  0  0  0  0999 V2000
  188.5150  174.5300  139.9860 C   0  0  0  0  0  3  0  0  0  0  0  0
  190.5640  173.0520  141.0810 C   0  0  0  0  0  0  0  0  0  0  0  0
  190.8340  171.8650  138.9470 N   0  0  0  0  0  1  0  0  0  0  0  0
  193.0050  173.6720  143.3160 C   0  0  0  0  0  2  0  0  0  0  0  0
  194.2000  172.7920  143.0090 C   0  0  0  0  0  2  0  0  0  0  0  0
  194.6870  172.0650  144.2660 C   0  0  0  0  0  2  0  0  0  0  0  0
  192.4850  170.6940  143.9860 C   0  0  0  0  0  2  0  0  0  0  0  0
  191.6730  172.9360  143.1070 C   0  0  2  0  0  0  0  0  0  0  0  0
  190.1870  172.8440  139.7510 C   0  0  0  0  0  0  0  0  0  0  0  0
  191.5820  172.4260  141.7710 O   0  0  0  0  0  0  0  0  0  0  0  0
  190.5240  173.9650  143.2280 C   0  0  0  0  0  2  0  0  0  0  0  0
  191.4690  171.8200  144.1370 C   0  0  0  0  0  2  0  0  0  0  0  0
  189.9200  173.9730  141.8580 C   0  0  0  0  0  0  0  0  0  0  0  0
  189.1670  173.5920  139.2350 N   0  0  0  0  0  0  0  0  0  0  0  0
  188.8690  174.7480  141.3380 C   0  0  0  0  0  0  0  0  0  0  0  0
  193.7380  170.9720  144.8120 C   0  0  1  0  0  3  0  0  0  0  0  0
  197.6970  168.4320  146.9220 C   0  0  0  0  0  1  0  0  0  0  0  0
  194.9970  169.1460  141.5760 O   0  0  0  0  0  0  0  0  0  0  0  0
  195.2050  169.1680  142.8060 C   0  0  0  0  0  0  0  0  0  0  0  0
  195.4130  169.1870  144.1040 C   0  0  0  0  0  0  0  0  0  0  0  0
  194.9600  169.2910  146.7000 S   0  0  0  0  0  0  0  0  0  0  0  0
  196.5470  168.7530  146.0450 C   0  0  1  0  0  3  0  0  0  0  0  0
  196.6290  168.6940  144.7190 C   0  0  0  0  0  2  0  0  0  0  0  0
  194.4810  169.7280  145.0480 N   0  0  0  0  0  0  0  0  0  0  0  0
  188.1560  175.7740  142.1330 C   0  0  0  0  0  0  0  0  0  0  0  0
  188.9090  176.6890  142.9390 N   0  0  0  0  0  2  0  0  0  0  0  0
  186.8960  175.8520  142.0990 O   0  0  0  0  0  0  0  0  0  0  0  0
  188.3190  177.6770  143.8430 C   0  0  0  0  0  2  0  0  0  0  0  0
  187.6660  177.0270  145.0820 C   0  0  1  0  0  3  0  0  0  0  0  0
  189.7450  175.2490  147.4870 N   0  0  0  0  0  0  0  0  0  0  0  0
  190.4560  176.3580  147.1720 C   0  0  0  0  0  0  0  0  0  0  0  0
  188.6160  175.3590  146.7590 C   0  0  0  0  0  3  0  0  0  0  0  0
  189.8320  177.1250  146.3100 O   0  0  0  0  0  0  0  0  0  0  0  0
  188.6990  176.5280  146.0350 C   0  0  0  0  0  0  0  0  0  0  0  0
  192.9190  176.1220  145.7290 O   0  0  0  0  0  1  0  0  0  0  0  0
  191.7890  176.6830  147.7120 C   0  0  0  0  0  3  0  0  0  0  0  0
  192.8880  176.5660  147.0340 N   0  0  0  0  0  0  0  0  0  0  0  0
  186.6490  177.9270  145.7890 C   0  0  0  0  0  2  0  0  0  0  0  0
  184.2670  177.8470  146.3450 O   0  0  0  0  0  1  0  0  0  0  0  0
  185.2010  177.7130  145.3100 C   0  0  1  0  0  3  0  0  0  0  0  0
  184.1940  178.1800  142.9360 C   0  0  0  0  0  1  0  0  0  0  0  0
  184.8560  178.6690  144.1950 C   0  0  0  0  0  0  0  0  0  0  0  0
  185.1520  179.8550  144.2950 O   0  0  0  0  0  0  0  0  0  0  0  0
  1 15  1  0  0  0  0
  2 10  1  0  0  0  0
  2 13  1  0  0  0  0
  3  9  1  0  0  0  0
  5  4  1  0  0  0  0
  5  6  1  0  0  0  0
  6 16  1  0  0  0  0
  7 12  1  0  0  0  0
  8 11  1  1  0  0  0
  8  4  1  0  0  0  0
  8 12  1  0  0  0  0
  9  2  2  0  0  0  0
 10  8  1  0  0  0  0
 13 11  1  0  0  0  0
 14  9  1  0  0  0  0
 14  1  2  0  0  0  0
 15 13  2  0  0  0  0
 15 25  1  0  0  0  0
 16  7  1  6  0  0  0
 16 24  1  0  0  0  0
 18 19  2  0  0  0  0
 19 20  2  0  0  0  0
 20 23  1  0  0  0  0
 20 24  1  0  0  0  0
 22 21  1  0  0  0  0
 22 17  1  6  0  0  0
 23 22  1  0  0  0  0
 24 21  1  0  0  0  0
 25 26  1  0  0  0  0
 26 28  1  0  0  0  0
 27 25  2  0  0  0  0
 29 28  1  6  0  0  0
 29 38  1  0  0  0  0
 29 34  1  0  0  0  0
 31 30  2  0  0  0  0
 31 36  1  0  0  0  0
 32 30  1  0  0  0  0
 33 31  1  0  0  0  0
 34 33  1  0  0  0  0
 34 32  2  0  0  0  0
 35 37  1  0  0  0  0
 37 36  2  0  0  0  0
 40 38  1  0  0  0  0
 40 39  1  1  0  0  0
 41 42  1  0  0  0  0
 42 43  2  0  0  0  0
 42 40  1  0  0  0  0
M  END
>  <MODEL>
4

>  <REMARK>
 VINA RESULT:      -7.1      3.651      7.565
  Name = 
  9 active torsions:
  status: ('A' for Active; 'I' for Inactive)
    1  A    between atoms: C_2  and  C_16
    2  A    between atoms: C_2  and  N_30
    3  A    between atoms: C_5  and  C_41
    4  A    between atoms: C_9  and  C_18
    5  A    between atoms: C_14  and  C_16
    6  A    between atoms: C_14  and  C_34
    7  A    between atoms: C_16  and  C_43
    8  A    between atoms: C_20  and  C_34
    9  A    between atoms: N_38  and  C_42
                            x       y       z     vdW  Elec       q    Type
                         _______ _______ _______ _____ _____    ______ ____

>  <TORSDO>
F 9

$$$$
=
 OpenBabel11062422293D

 43 47  0  0  1  0  0  0  0  0999 V2000
  195.3880  173.9660  145.5170 C   0  0  0  0  0  3  0  0  0  0  0  0
  193.1880  175.6030  145.2770 C   0  0  0  0  0  0  0  0  0  0  0  0
  194.1860  177.1660  146.8880 N   0  0  0  0  0  1  0  0  0  0  0  0
  191.1060  176.4270  142.7620 C   0  0  0  0  0  2  0  0  0  0  0  0
  190.5700  177.8260  142.9920 C   0  0  0  0  0  2  0  0  0  0  0  0
  189.0450  177.8620  142.8560 C   0  0  0  0  0  2  0  0  0  0  0  0
  189.0930  176.5500  145.1110 C   0  0  0  0  0  2  0  0  0  0  0  0
  191.2160  175.6240  144.0660 C   0  0  2  0  0  0  0  0  0  0  0  0
  194.2370  175.9660  146.1260 C   0  0  0  0  0  0  0  0  0  0  0  0
  192.0350  176.3170  145.0170 O   0  0  0  0  0  0  0  0  0  0  0  0
  191.9700  174.3070  143.7660 C   0  0  0  0  0  2  0  0  0  0  0  0
  189.8400  175.3010  144.6580 C   0  0  0  0  0  2  0  0  0  0  0  0
  193.2270  174.4350  144.5690 C   0  0  0  0  0  0  0  0  0  0  0  0
  195.3160  175.1340  146.2250 N   0  0  0  0  0  0  0  0  0  0  0  0
  194.3320  173.5720  144.6630 C   0  0  0  0  0  0  0  0  0  0  0  0
  188.2600  177.1330  143.9730 C   0  0  1  0  0  3  0  0  0  0  0  0
  184.1830  177.9150  147.0320 C   0  0  0  0  0  1  0  0  0  0  0  0
  185.8490  178.6640  141.2830 O   0  0  0  0  0  0  0  0  0  0  0  0
  185.9090  178.4660  142.5130 C   0  0  0  0  0  0  0  0  0  0  0  0
  185.9810  178.2620  143.8100 C   0  0  0  0  0  0  0  0  0  0  0  0
  186.9490  178.1030  146.2590 S   0  0  0  0  0  0  0  0  0  0  0  0
  185.1770  178.0980  145.9470 C   0  0  1  0  0  3  0  0  0  0  0  0
  184.8180  178.2370  144.6740 C   0  0  0  0  0  2  0  0  0  0  0  0
  187.2080  178.0080  144.5050 N   0  0  0  0  0  0  0  0  0  0  0  0
  194.4320  172.3070  143.8990 C   0  0  0  0  0  0  0  0  0  0  0  0
  194.7240  172.3530  142.4970 N   0  0  0  0  0  2  0  0  0  0  0  0
  194.2700  171.1940  144.4740 O   0  0  0  0  0  0  0  0  0  0  0  0
  194.7490  171.1840  141.6160 C   0  0  0  0  0  2  0  0  0  0  0  0
  193.6170  171.2130  140.5660 C   0  0  1  0  0  3  0  0  0  0  0  0
  190.5510  169.8830  142.0120 N   0  0  0  0  0  0  0  0  0  0  0  0
  190.4350  171.2270  142.1400 C   0  0  0  0  0  0  0  0  0  0  0  0
  191.7400  169.7060  141.4050 C   0  0  0  0  0  3  0  0  0  0  0  0
  191.4710  171.8660  141.6490 O   0  0  0  0  0  0  0  0  0  0  0  0
  192.2920  170.9520  141.1970 C   0  0  0  0  0  0  0  0  0  0  0  0
  188.6130  172.9650  140.7750 O   0  0  0  0  0  1  0  0  0  0  0  0
  189.2930  171.9160  142.7660 C   0  0  0  0  0  3  0  0  0  0  0  0
  188.4840  172.6990  142.1220 N   0  0  0  0  0  0  0  0  0  0  0  0
  193.5880  172.4910  139.7240 C   0  0  0  0  0  2  0  0  0  0  0  0
  193.2770  170.9600  137.8400 O   0  0  0  0  0  1  0  0  0  0  0  0
  193.0730  172.2700  138.2890 C   0  0  1  0  0  3  0  0  0  0  0  0
  190.5700  171.5400  138.0190 C   0  0  0  0  0  1  0  0  0  0  0  0
  191.6080  172.6160  138.1850 C   0  0  0  0  0  0  0  0  0  0  0  0
  191.2560  173.7910  138.1980 O   0  0  0  0  0  0  0  0  0  0  0  0
  1 14  1  0  0  0  0
  2  9  1  0  0  0  0
  4  5  1  0  0  0  0
  6  5  1  0  0  0  0
  8  4  1  6  0  0  0
  8 12  1  0  0  0  0
  8 10  1  0  0  0  0
  9 14  2  0  0  0  0
  9  3  1  0  0  0  0
 10  2  1  0  0  0  0
 11  8  1  0  0  0  0
 11 13  1  0  0  0  0
 12  7  1  0  0  0  0
 13 15  1  0  0  0  0
 13  2  2  0  0  0  0
 15  1  2  0  0  0  0
 16  6  1  6  0  0  0
 16 24  1  0  0  0  0
 16  7  1  0  0  0  0
 18 19  2  0  0  0  0
 19 20  2  0  0  0  0
 20 24  1  0  0  0  0
 20 23  1  0  0  0  0
 22 21  1  0  0  0  0
 22 17  1  6  0  0  0
 23 22  1  0  0  0  0
 24 21  1  0  0  0  0
 25 27  2  0  0  0  0
 25 15  1  0  0  0  0
 26 25  1  0  0  0  0
 28 26  1  0  0  0  0
 29 38  1  1  0  0  0
 29 34  1  0  0  0  0
 29 28  1  0  0  0  0
 30 31  2  0  0  0  0
 31 36  1  0  0  0  0
 32 30  1  0  0  0  0
 33 31  1  0  0  0  0
 34 32  2  0  0  0  0
 34 33  1  0  0  0  0
 35 37  1  0  0  0  0
 37 36  2  0  0  0  0
 40 39  1  1  0  0  0
 40 38  1  0  0  0  0
 41 42  1  0  0  0  0
 42 43  2  0  0  0  0
 42 40  1  0  0  0  0
M  END
>  <MODEL>
5

>  <REMARK>
 VINA RESULT:      -6.8      3.651      9.147
  Name = 
  9 active torsions:
  status: ('A' for Active; 'I' for Inactive)
    1  A    between atoms: C_2  and  C_16
    2  A    between atoms: C_2  and  N_30
    3  A    between atoms: C_5  and  C_41
    4  A    between atoms: C_9  and  C_18
    5  A    between atoms: C_14  and  C_16
    6  A    between atoms: C_14  and  C_34
    7  A    between atoms: C_16  and  C_43
    8  A    between atoms: C_20  and  C_34
    9  A    between atoms: N_38  and  C_42
                            x       y       z     vdW  Elec       q    Type
                         _______ _______ _______ _____ _____    ______ ____

>  <TORSDO>
F 9

$$$$
=
 OpenBabel11062422293D

 43 47  0  0  1  0  0  0  0  0999 V2000
  189.6520  173.7340  139.3320 C   0  0  0  0  0  3  0  0  0  0  0  0
  191.5930  172.5460  140.8810 C   0  0  0  0  0  0  0  0  0  0  0  0
  192.8080  171.9000  138.8460 N   0  0  0  0  0  1  0  0  0  0  0  0
  192.9790  173.2180  143.8750 C   0  0  0  0  0  2  0  0  0  0  0  0
  194.4030  172.6980  143.8970 C   0  0  0  0  0  2  0  0  0  0  0  0
  194.6640  171.8560  145.1490 C   0  0  0  0  0  2  0  0  0  0  0  0
  193.1090  170.1250  143.9690 C   0  0  0  0  0  2  0  0  0  0  0  0
  192.0250  172.2680  143.1370 C   0  0  2  0  0  0  0  0  0  0  0  0
  191.7080  172.5330  139.4880 C   0  0  0  0  0  0  0  0  0  0  0  0
  192.4840  172.0300  141.8010 O   0  0  0  0  0  0  0  0  0  0  0  0
  190.6590  172.9770  142.9760 C   0  0  0  0  0  2  0  0  0  0  0  0
  191.8290  170.9500  143.8930 C   0  0  0  0  0  2  0  0  0  0  0  0
  190.5200  173.1300  141.4930 C   0  0  0  0  0  0  0  0  0  0  0  0
  190.7290  173.1300  138.7450 N   0  0  0  0  0  0  0  0  0  0  0  0
  189.5070  173.7470  140.7390 C   0  0  0  0  0  0  0  0  0  0  0  0
  193.9280  170.4960  145.2020 C   0  0  1  0  0  3  0  0  0  0  0  0
  197.1850  168.2210  148.4890 C   0  0  0  0  0  1  0  0  0  0  0  0
  197.0090  170.1960  142.7930 O   0  0  0  0  0  0  0  0  0  0  0  0
  196.6410  169.8300  143.9270 C   0  0  0  0  0  0  0  0  0  0  0  0
  196.2450  169.4380  145.1180 C   0  0  0  0  0  0  0  0  0  0  0  0
  194.7060  168.5430  147.0630 S   0  0  0  0  0  0  0  0  0  0  0  0
  196.4960  168.5920  147.2290 C   0  0  1  0  0  3  0  0  0  0  0  0
  197.1610  169.0150  146.1580 C   0  0  0  0  0  2  0  0  0  0  0  0
  194.8730  169.4210  145.5300 N   0  0  0  0  0  0  0  0  0  0  0  0
  188.3360  174.4120  141.3560 C   0  0  0  0  0  0  0  0  0  0  0  0
  188.1470  175.8200  141.1670 N   0  0  0  0  0  2  0  0  0  0  0  0
  187.5040  173.7490  142.0360 O   0  0  0  0  0  0  0  0  0  0  0  0
  187.0910  176.6070  141.8050 C   0  0  0  0  0  2  0  0  0  0  0  0
  187.6180  177.4580  142.9800 C   0  0  1  0  0  3  0  0  0  0  0  0
  184.9650  179.6950  144.0850 N   0  0  0  0  0  0  0  0  0  0  0  0
  184.9800  178.7000  145.0050 C   0  0  0  0  0  0  0  0  0  0  0  0
  185.9470  179.3670  143.2230 C   0  0  0  0  0  3  0  0  0  0  0  0
  185.9030  177.8020  144.7550 O   0  0  0  0  0  0  0  0  0  0  0  0
  186.5070  178.1860  143.6580 C   0  0  0  0  0  0  0  0  0  0  0  0
  185.7770  178.8460  147.7530 O   0  0  0  0  0  1  0  0  0  0  0  0
  184.0660  178.6070  146.1570 C   0  0  0  0  0  3  0  0  0  0  0  0
  184.4570  178.6770  147.3930 N   0  0  0  0  0  0  0  0  0  0  0  0
  188.4590  176.6680  143.9870 C   0  0  0  0  0  2  0  0  0  0  0  0
  189.2490  177.3440  146.2020 O   0  0  0  0  0  1  0  0  0  0  0  0
  189.4030  177.5500  144.8260 C   0  0  1  0  0  3  0  0  0  0  0  0
  191.5490  178.2410  143.4890 C   0  0  0  0  0  1  0  0  0  0  0  0
  190.8430  177.3140  144.4390 C   0  0  0  0  0  0  0  0  0  0  0  0
  191.4380  176.3330  144.8740 O   0  0  0  0  0  0  0  0  0  0  0  0
  1 15  1  0  0  0  0
  2 13  1  0  0  0  0
  2 10  1  0  0  0  0
  3  9  1  0  0  0  0
  4  5  1  0  0  0  0
  5  6  1  0  0  0  0
  6 16  1  0  0  0  0
  8 11  1  6  0  0  0
  8  4  1  0  0  0  0
  8 12  1  0  0  0  0
  9  2  2  0  0  0  0
 10  8  1  0  0  0  0
 12  7  1  0  0  0  0
 13 11  1  0  0  0  0
 14  1  2  0  0  0  0
 14  9  1  0  0  0  0
 15 25  1  0  0  0  0
 15 13  2  0  0  0  0
 16  7  1  6  0  0  0
 16 24  1  0  0  0  0
 18 19  2  0  0  0  0
 19 20  2  0  0  0  0
 20 24  1  0  0  0  0
 20 23  1  0  0  0  0
 21 22  1  0  0  0  0
 22 17  1  1  0  0  0
 23 22  1  0  0  0  0
 24 21  1  0  0  0  0
 25 27  2  0  0  0  0
 26 25  1  0  0  0  0
 26 28  1  0  0  0  0
 29 28  1  6  0  0  0
 29 34  1  0  0  0  0
 29 38  1  0  0  0  0
 30 31  2  0  0  0  0
 31 36  1  0  0  0  0
 32 34  2  0  0  0  0
 32 30  1  0  0  0  0
 33 31  1  0  0  0  0
 34 33  1  0  0  0  0
 36 37  2  0  0  0  0
 37 35  1  0  0  0  0
 38 40  1  0  0  0  0
 40 39  1  1  0  0  0
 41 42  1  0  0  0  0
 42 40  1  0  0  0  0
 42 43  2  0  0  0  0
M  END
>  <MODEL>
6

>  <REMARK>
 VINA RESULT:      -6.8      3.833      6.631
  Name = 
  9 active torsions:
  status: ('A' for Active; 'I' for Inactive)
    1  A    between atoms: C_2  and  C_16
    2  A    between atoms: C_2  and  N_30
    3  A    between atoms: C_5  and  C_41
    4  A    between atoms: C_9  and  C_18
    5  A    between atoms: C_14  and  C_16
    6  A    between atoms: C_14  and  C_34
    7  A    between atoms: C_16  and  C_43
    8  A    between atoms: C_20  and  C_34
    9  A    between atoms: N_38  and  C_42
                            x       y       z     vdW  Elec       q    Type
                         _______ _______ _______ _____ _____    ______ ____

>  <TORSDO>
F 9

$$$$
=
 OpenBabel11062422293D

 43 47  0  0  1  0  0  0  0  0999 V2000
  195.0080  173.9130  145.6350 C   0  0  0  0  0  3  0  0  0  0  0  0
  192.8550  175.5890  145.2730 C   0  0  0  0  0  0  0  0  0  0  0  0
  193.8240  177.1670  146.8870 N   0  0  0  0  0  1  0  0  0  0  0  0
  190.8910  176.3990  142.6600 C   0  0  0  0  0  2  0  0  0  0  0  0
  190.3770  177.8130  142.8390 C   0  0  0  0  0  2  0  0  0  0  0  0
  188.8590  177.8780  142.6420 C   0  0  0  0  0  2  0  0  0  0  0  0
  188.7910  176.6170  144.9250 C   0  0  0  0  0  2  0  0  0  0  0  0
  190.9330  175.6240  143.9860 C   0  0  2  0  0  0  0  0  0  0  0  0
  193.8780  175.9490  146.1540 C   0  0  0  0  0  0  0  0  0  0  0  0
  191.7290  176.3210  144.9520 O   0  0  0  0  0  0  0  0  0  0  0  0
  191.6690  174.2850  143.7440 C   0  0  0  0  0  2  0  0  0  0  0  0
  189.5280  175.3430  144.5300 C   0  0  0  0  0  2  0  0  0  0  0  0
  192.8970  174.4050  144.5930 C   0  0  0  0  0  0  0  0  0  0  0  0
  194.9340  175.0970  146.3140 N   0  0  0  0  0  0  0  0  0  0  0  0
  193.9770  173.5210  144.7490 C   0  0  0  0  0  0  0  0  0  0  0  0
  188.0160  177.1910  143.7430 C   0  0  1  0  0  3  0  0  0  0  0  0
  184.0660  178.2520  146.8840 C   0  0  0  0  0  1  0  0  0  0  0  0
  185.4330  178.3080  141.0090 O   0  0  0  0  0  0  0  0  0  0  0  0
  185.5580  178.2690  142.2500 C   0  0  0  0  0  0  0  0  0  0  0  0
  185.6970  178.2330  143.5560 C   0  0  0  0  0  0  0  0  0  0  0  0
  186.7840  178.4100  145.9530 S   0  0  0  0  0  0  0  0  0  0  0  0
  185.0010  178.3210  145.7350 C   0  0  1  0  0  3  0  0  0  0  0  0
  184.5780  178.2890  144.4750 C   0  0  0  0  0  2  0  0  0  0  0  0
  186.9630  178.1000  144.2150 N   0  0  0  0  0  0  0  0  0  0  0  0
  194.0800  172.2370  144.0180 C   0  0  0  0  0  0  0  0  0  0  0  0
  194.4110  172.2460  142.6240 N   0  0  0  0  0  2  0  0  0  0  0  0
  193.8850  171.1400  144.6130 O   0  0  0  0  0  0  0  0  0  0  0  0
  194.4430  171.0570  141.7710 C   0  0  0  0  0  2  0  0  0  0  0  0
  193.4790  171.1660  140.5700 C   0  0  1  0  0  3  0  0  0  0  0  0
  190.1510  170.9340  142.0320 N   0  0  0  0  0  0  0  0  0  0  0  0
  190.1420  172.1010  141.3430 C   0  0  0  0  0  0  0  0  0  0  0  0
  191.3850  170.4340  141.8260 C   0  0  0  0  0  3  0  0  0  0  0  0
  191.2830  172.3330  140.7380 O   0  0  0  0  0  0  0  0  0  0  0  0
  192.0680  171.3240  141.0260 C   0  0  0  0  0  0  0  0  0  0  0  0
  188.3180  172.3080  139.1440 O   0  0  0  0  0  1  0  0  0  0  0  0
  188.9990  173.0290  141.2760 C   0  0  0  0  0  3  0  0  0  0  0  0
  188.1890  173.1000  140.2650 N   0  0  0  0  0  0  0  0  0  0  0  0
  193.8620  172.2570  139.5670 C   0  0  0  0  0  2  0  0  0  0  0  0
  195.8510  172.0250  138.1590 O   0  0  0  0  0  1  0  0  0  0  0  0
  195.3840  172.4430  139.4110 C   0  0  1  0  0  3  0  0  0  0  0  0
  194.7790  174.8800  140.1610 C   0  0  0  0  0  1  0  0  0  0  0  0
  195.7760  173.8820  139.6400 C   0  0  0  0  0  0  0  0  0  0  0  0
  196.9110  174.2550  139.3650 O   0  0  0  0  0  0  0  0  0  0  0  0
  1 14  1  0  0  0  0
  2  9  1  0  0  0  0
  4  5  1  0  0  0  0
  6  5  1  0  0  0  0
  8  4  1  6  0  0  0
  8 12  1  0  0  0  0
  8 10  1  0  0  0  0
  9 14  2  0  0  0  0
  9  3  1  0  0  0  0
 10  2  1  0  0  0  0
 11  8  1  0  0  0  0
 11 13  1  0  0  0  0
 12  7  1  0  0  0  0
 13 15  1  0  0  0  0
 13  2  2  0  0  0  0
 15  1  2  0  0  0  0
 16  6  1  6  0  0  0
 16 24  1  0  0  0  0
 16  7  1  0  0  0  0
 18 19  2  0  0  0  0
 19 20  2  0  0  0  0
 20 24  1  0  0  0  0
 20 23  1  0  0  0  0
 22 21  1  0  0  0  0
 22 17  1  1  0  0  0
 23 22  1  0  0  0  0
 24 21  1  0  0  0  0
 25 27  2  0  0  0  0
 25 15  1  0  0  0  0
 26 25  1  0  0  0  0
 28 26  1  0  0  0  0
 29 38  1  1  0  0  0
 29 34  1  0  0  0  0
 29 28  1  0  0  0  0
 31 30  2  0  0  0  0
 32 30  1  0  0  0  0
 33 34  1  0  0  0  0
 33 31  1  0  0  0  0
 34 32  2  0  0  0  0
 35 37  1  0  0  0  0
 36 31  1  0  0  0  0
 37 36  2  0  0  0  0
 40 39  1  6  0  0  0
 40 38  1  0  0  0  0
 40 42  1  0  0  0  0
 42 41  1  0  0  0  0
 43 42  2  0  0  0  0
M  END
>  <MODEL>
7

>  <REMARK>
 VINA RESULT:      -6.8      3.528      9.189
  Name = 
  9 active torsions:
  status: ('A' for Active; 'I' for Inactive)
    1  A    between atoms: C_2  and  C_16
    2  A    between atoms: C_2  and  N_30
    3  A    between atoms: C_5  and  C_41
    4  A    between atoms: C_9  and  C_18
    5  A    between atoms: C_14  and  C_16
    6  A    between atoms: C_14  and  C_34
    7  A    between atoms: C_16  and  C_43
    8  A    between atoms: C_20  and  C_34
    9  A    between atoms: N_38  and  C_42
                            x       y       z     vdW  Elec       q    Type
                         _______ _______ _______ _____ _____    ______ ____

>  <TORSDO>
F 9

$$$$
=
 OpenBabel11062422293D

 43 47  0  0  1  0  0  0  0  0999 V2000
  183.8580  178.8700  144.2290 C   0  0  0  0  0  3  0  0  0  0  0  0
  186.3820  177.9830  144.8790 C   0  0  0  0  0  0  0  0  0  0  0  0
  185.9310  178.4630  147.2450 N   0  0  0  0  0  1  0  0  0  0  0  0
  188.4250  175.5750  143.7100 C   0  0  0  0  0  2  0  0  0  0  0  0
  189.3160  175.0850  144.8330 C   0  0  0  0  0  2  0  0  0  0  0  0
  190.7870  175.0670  144.4050 C   0  0  0  0  0  2  0  0  0  0  0  0
  190.5610  177.6640  144.5240 C   0  0  0  0  0  2  0  0  0  0  0  0
  188.2040  177.0940  143.7640 C   0  0  2  0  0  0  0  0  0  0  0  0
  185.5220  178.4350  145.8840 C   0  0  0  0  0  0  0  0  0  0  0  0
  187.6580  177.4790  145.0320 O   0  0  0  0  0  0  0  0  0  0  0  0
  187.1190  177.4660  142.7260 C   0  0  0  0  0  2  0  0  0  0  0  0
  189.4890  177.8710  143.4610 C   0  0  0  0  0  2  0  0  0  0  0  0
  185.9960  177.9860  143.5690 C   0  0  0  0  0  0  0  0  0  0  0  0
  184.2750  178.8700  145.5310 N   0  0  0  0  0  0  0  0  0  0  0  0
  184.7160  178.4300  143.1940 C   0  0  0  0  0  0  0  0  0  0  0  0
  191.4340  176.4560  144.1940 C   0  0  1  0  0  3  0  0  0  0  0  0
  196.0380  174.4820  145.4190 C   0  0  0  0  0  1  0  0  0  0  0  0
  191.1200  176.7280  148.0950 O   0  0  0  0  0  0  0  0  0  0  0  0
  191.9620  176.4450  147.2200 C   0  0  0  0  0  0  0  0  0  0  0  0
  192.8490  176.1560  146.2930 C   0  0  0  0  0  0  0  0  0  0  0  0
  194.2310  176.2540  144.0490 S   0  0  0  0  0  0  0  0  0  0  0  0
  194.8110  175.3140  145.4690 C   0  0  1  0  0  3  0  0  0  0  0  0
  194.0500  175.3890  146.5560 C   0  0  0  0  0  2  0  0  0  0  0  0
  192.7100  176.5350  144.9180 N   0  0  0  0  0  0  0  0  0  0  0  0
  184.2430  178.4320  141.7910 C   0  0  0  0  0  0  0  0  0  0  0  0
  182.8360  178.4060  141.5230 N   0  0  0  0  0  2  0  0  0  0  0  0
  185.0670  178.4630  140.8340 O   0  0  0  0  0  0  0  0  0  0  0  0
  182.2470  178.3030  140.1870 C   0  0  0  0  0  2  0  0  0  0  0  0
  180.8820  177.5810  140.1980 C   0  0  1  0  0  3  0  0  0  0  0  0
  178.5510  179.7880  141.9180 N   0  0  0  0  0  0  0  0  0  0  0  0
  178.6080  178.6780  142.6930 C   0  0  0  0  0  0  0  0  0  0  0  0
  179.3930  179.5270  140.8990 C   0  0  0  0  0  3  0  0  0  0  0  0
  179.4270  177.7730  142.2110 O   0  0  0  0  0  0  0  0  0  0  0  0
  179.9170  178.2700  141.1030 C   0  0  0  0  0  0  0  0  0  0  0  0
  179.4080  179.5880  145.2890 O   0  0  0  0  0  1  0  0  0  0  0  0
  177.8380  178.4790  143.9340 C   0  0  0  0  0  3  0  0  0  0  0  0
  178.2260  178.9030  145.0970 N   0  0  0  0  0  0  0  0  0  0  0  0
  180.2830  177.3720  138.8050 C   0  0  0  0  0  2  0  0  0  0  0  0
  177.8850  177.7460  138.4880 O   0  0  0  0  0  1  0  0  0  0  0  0
  178.8550  176.7950  138.8290 C   0  0  1  0  0  3  0  0  0  0  0  0
  179.0650  175.7280  136.4440 C   0  0  0  0  0  1  0  0  0  0  0  0
  178.7400  175.6050  137.9080 C   0  0  0  0  0  0  0  0  0  0  0  0
  178.3420  174.5320  138.3460 O   0  0  0  0  0  0  0  0  0  0  0  0
  1 14  1  0  0  0  0
  2 10  1  0  0  0  0
  2  9  1  0  0  0  0
  4  8  1  0  0  0  0
  4  5  1  0  0  0  0
  6  5  1  0  0  0  0
  8 11  1  6  0  0  0
  8 10  1  0  0  0  0
  9  3  1  0  0  0  0
 11 13  1  0  0  0  0
 12  8  1  0  0  0  0
 12  7  1  0  0  0  0
 13  2  2  0  0  0  0
 14  9  2  0  0  0  0
 15 13  1  0  0  0  0
 15  1  2  0  0  0  0
 16  6  1  1  0  0  0
 16  7  1  0  0  0  0
 16 24  1  0  0  0  0
 19 18  2  0  0  0  0
 20 23  1  0  0  0  0
 20 19  2  0  0  0  0
 21 24  1  0  0  0  0
 21 22  1  0  0  0  0
 22 17  1  6  0  0  0
 22 23  1  0  0  0  0
 24 20  1  0  0  0  0
 25 15  1  0  0  0  0
 26 25  1  0  0  0  0
 27 25  2  0  0  0  0
 28 29  1  0  0  0  0
 28 26  1  0  0  0  0
 29 38  1  6  0  0  0
 29 34  1  0  0  0  0
 30 31  2  0  0  0  0
 31 36  1  0  0  0  0
 32 34  2  0  0  0  0
 32 30  1  0  0  0  0
 33 31  1  0  0  0  0
 34 33  1  0  0  0  0
 36 37  2  0  0  0  0
 37 35  1  0  0  0  0
 38 40  1  0  0  0  0
 40 39  1  6  0  0  0
 41 42  1  0  0  0  0
 42 43  2  0  0  0  0
 42 40  1  0  0  0  0
M  END
>  <MODEL>
8

>  <REMARK>
 VINA RESULT:      -6.7      2.592      4.977
  Name = 
  9 active torsions:
  status: ('A' for Active; 'I' for Inactive)
    1  A    between atoms: C_2  and  C_16
    2  A    between atoms: C_2  and  N_30
    3  A    between atoms: C_5  and  C_41
    4  A    between atoms: C_9  and  C_18
    5  A    between atoms: C_14  and  C_16
    6  A    between atoms: C_14  and  C_34
    7  A    between atoms: C_16  and  C_43
    8  A    between atoms: C_20  and  C_34
    9  A    between atoms: N_38  and  C_42
                            x       y       z     vdW  Elec       q    Type
                         _______ _______ _______ _____ _____    ______ ____

>  <TORSDO>
F 9

$$$$
=
 OpenBabel11062422293D

 43 47  0  0  1  0  0  0  0  0999 V2000
  194.3050  171.6930  139.7440 C   0  0  0  0  0  3  0  0  0  0  0  0
  192.3180  172.9140  141.2070 C   0  0  0  0  0  0  0  0  0  0  0  0
  190.7560  172.5880  139.3390 N   0  0  0  0  0  1  0  0  0  0  0  0
  191.4950  173.0140  144.4700 C   0  0  0  0  0  2  0  0  0  0  0  0
  189.9990  173.2150  144.6040 C   0  0  0  0  0  2  0  0  0  0  0  0
  189.6790  174.3550  145.5760 C   0  0  0  0  0  2  0  0  0  0  0  0
  190.6070  175.8680  143.6630 C   0  0  0  0  0  2  0  0  0  0  0  0
  192.0910  173.8350  143.3170 C   0  0  2  0  0  0  0  0  0  0  0  0
  192.0450  172.4390  139.9210 C   0  0  0  0  0  0  0  0  0  0  0  0
  191.4370  173.5170  142.0820 O   0  0  0  0  0  0  0  0  0  0  0  0
  193.5630  173.4020  143.1200 C   0  0  0  0  0  2  0  0  0  0  0  0
  192.0350  175.3400  143.5960 C   0  0  0  0  0  2  0  0  0  0  0  0
  193.5660  172.7950  141.7500 C   0  0  0  0  0  0  0  0  0  0  0  0
  193.0510  171.8380  139.2180 N   0  0  0  0  0  0  0  0  0  0  0  0
  194.6080  172.1780  141.0380 C   0  0  0  0  0  0  0  0  0  0  0  0
  190.0530  175.7730  145.0820 C   0  0  1  0  0  3  0  0  0  0  0  0
  185.9900  177.4460  147.7820 C   0  0  0  0  0  1  0  0  0  0  0  0
  187.3990  175.6600  142.1950 O   0  0  0  0  0  0  0  0  0  0  0  0
  187.5150  176.0500  143.3740 C   0  0  0  0  0  0  0  0  0  0  0  0
  187.6460  176.4680  144.6140 C   0  0  0  0  0  0  0  0  0  0  0  0
  188.6890  177.5400  146.7860 S   0  0  0  0  0  0  0  0  0  0  0  0
  186.9240  177.2150  146.6540 C   0  0  1  0  0  3  0  0  0  0  0  0
  186.5180  176.7220  145.4870 C   0  0  0  0  0  2  0  0  0  0  0  0
  188.9120  176.6840  145.2480 N   0  0  0  0  0  0  0  0  0  0  0  0
  195.9700  172.0060  141.5920 C   0  0  0  0  0  0  0  0  0  0  0  0
  196.1390  171.3430  142.8510 N   0  0  0  0  0  2  0  0  0  0  0  0
  196.9790  172.4290  140.9620 O   0  0  0  0  0  0  0  0  0  0  0  0
  197.4170  171.2010  143.5490 C   0  0  0  0  0  2  0  0  0  0  0  0
  197.4360  171.9430  144.9030 C   0  0  1  0  0  3  0  0  0  0  0  0
  195.9430  175.2590  145.1140 N   0  0  0  0  0  0  0  0  0  0  0  0
  196.7750  175.3240  144.0460 C   0  0  0  0  0  0  0  0  0  0  0  0
  196.0750  173.9950  145.5620 C   0  0  0  0  0  3  0  0  0  0  0  0
  197.3930  174.1890  143.8230 O   0  0  0  0  0  0  0  0  0  0  0  0
  196.9840  173.3560  144.7480 C   0  0  0  0  0  0  0  0  0  0  0  0
  195.6010  175.7850  141.4750 O   0  0  0  0  0  1  0  0  0  0  0  0
  196.9900  176.5260  143.2210 C   0  0  0  0  0  3  0  0  0  0  0  0
  196.4440  176.7080  142.0580 N   0  0  0  0  0  0  0  0  0  0  0  0
  196.6550  171.2300  146.0100 C   0  0  0  0  0  2  0  0  0  0  0  0
  197.6070  169.0720  146.6610 O   0  0  0  0  0  1  0  0  0  0  0  0
  196.6410  169.6970  145.8630 C   0  0  1  0  0  3  0  0  0  0  0  0
  194.9540  168.6600  147.5800 C   0  0  0  0  0  1  0  0  0  0  0  0
  195.2780  169.1380  146.1920 C   0  0  0  0  0  0  0  0  0  0  0  0
  194.4330  169.0350  145.3090 O   0  0  0  0  0  0  0  0  0  0  0  0
  1 15  1  0  0  0  0
  2 13  1  0  0  0  0
  2 10  1  0  0  0  0
  3  9  1  0  0  0  0
  4  5  1  0  0  0  0
  5  6  1  0  0  0  0
  8 11  1  6  0  0  0
  8 12  1  0  0  0  0
  8  4  1  0  0  0  0
  9  2  2  0  0  0  0
 10  8  1  0  0  0  0
 12  7  1  0  0  0  0
 13 11  1  0  0  0  0
 14  1  2  0  0  0  0
 14  9  1  0  0  0  0
 15 25  1  0  0  0  0
 15 13  2  0  0  0  0
 16  7  1  6  0  0  0
 16 24  1  0  0  0  0
 16  6  1  0  0  0  0
 18 19  2  0  0  0  0
 19 20  2  0  0  0  0
 20 24  1  0  0  0  0
 20 23  1  0  0  0  0
 22 21  1  0  0  0  0
 22 17  1  1  0  0  0
 23 22  1  0  0  0  0
 24 21  1  0  0  0  0
 25 26  1  0  0  0  0
 26 28  1  0  0  0  0
 27 25  2  0  0  0  0
 29 28  1  6  0  0  0
 29 38  1  0  0  0  0
 30 32  1  0  0  0  0
 31 30  2  0  0  0  0
 33 31  1  0  0  0  0
 33 34  1  0  0  0  0
 34 29  1  0  0  0  0
 34 32  2  0  0  0  0
 35 37  1  0  0  0  0
 36 31  1  0  0  0  0
 37 36  2  0  0  0  0
 40 38  1  0  0  0  0
 40 42  1  0  0  0  0
 40 39  1  1  0  0  0
 42 41  1  0  0  0  0
 43 42  2  0  0  0  0
M  END
>  <MODEL>
9

>  <REMARK>
 VINA RESULT:      -6.7      4.269     11.509
  Name = 
  9 active torsions:
  status: ('A' for Active; 'I' for Inactive)
    1  A    between atoms: C_2  and  C_16
    2  A    between atoms: C_2  and  N_30
    3  A    between atoms: C_5  and  C_41
    4  A    between atoms: C_9  and  C_18
    5  A    between atoms: C_14  and  C_16
    6  A    between atoms: C_14  and  C_34
    7  A    between atoms: C_16  and  C_43
    8  A    between atoms: C_20  and  C_34
    9  A    between atoms: N_38  and  C_42
                            x       y       z     vdW  Elec       q    Type
                         _______ _______ _______ _____ _____    ______ ____

>  <TORSDO>
F 9

$$$$
