=
 OpenBabel11062423123D

 34 37  0  0  1  0  0  0  0  0999 V2000
  186.3350  176.4910  145.7150 C   0  0  1  0  0  3  0  0  0  0  0  0
  187.9130  176.3380  142.4790 C   0  0  0  0  0  3  0  0  0  0  0  0
  185.7360  178.5630  144.2970 C   0  0  0  0  0  0  0  0  0  0  0  0
  184.5610  178.1190  146.3460 C   0  0  0  0  0  3  0  0  0  0  0  0
  184.8710  178.9220  145.1970 N   0  0  0  0  0  0  0  0  0  0  0  0
  187.1860  176.8120  143.4530 C   0  0  0  0  0  0  0  0  0  0  0  0
  185.9700  179.4110  143.1760 N   0  0  0  0  0  1  0  0  0  0  0  0
  185.2120  176.9800  146.5950 C   0  0  0  0  0  3  0  0  0  0  0  0
  186.4550  177.2780  144.4330 C   0  0  0  0  0  0  0  0  0  0  0  0
  188.1870  173.2800  140.3230 C   0  0  0  0  0  2  0  0  0  0  0  0
  189.6520  172.8970  142.6950 C   0  0  0  0  0  2  0  0  0  0  0  0
  188.0260  174.8620  142.2450 C   0  0  2  0  0  3  0  0  0  0  0  0
  189.4650  174.3490  142.2450 C   0  0  2  0  0  0  0  0  0  0  0  0
  189.8450  172.0020  141.5100 C   0  0  0  0  0  0  0  0  0  0  0  0
  188.7370  174.5800  140.9190 C   0  0  1  0  0  3  0  0  0  0  0  0
  190.7660  170.9200  141.5820 N   0  0  0  0  0  1  0  0  0  0  0  0
  189.1720  172.2050  140.4190 N   0  0  0  0  0  0  0  0  0  0  0  0
  190.5750  175.2880  142.4770 C   0  0  0  0  0  0  0  0  0  0  0  0
  191.4460  176.0270  142.6590 N   0  0  0  0  0  0  0  0  0  0  0  0
  188.2820  175.3030  146.6590 C   0  0  0  0  0  3  0  0  0  0  0  0
  188.1380  177.6420  146.9880 O   0  0  0  0  0  1  0  0  0  0  0  0
  187.6310  176.4530  146.4740 C   0  0  0  0  0  0  0  0  0  0  0  0
  189.5740  175.2140  147.4030 C   0  0  0  0  0  2  0  0  0  0  0  0
  190.7420  175.1030  146.4290 C   0  0  0  0  0  2  0  0  0  0  0  0
  191.8390  176.1500  146.6560 C   0  0  1  0  0  0  0  0  0  0  0  0
  191.7000  177.1280  145.6730 O   0  0  0  0  0  1  0  0  0  0  0  0
  191.6830  176.8270  148.0110 C   0  0  0  0  0  1  0  0  0  0  0  0
  193.2380  175.5400  146.5090 C   0  0  0  0  0  2  0  0  0  0  0  0
  195.4370  174.9940  143.1510 C   0  0  0  0  0  2  0  0  0  0  0  0
  195.6980  176.3320  143.8410 C   0  0  0  0  0  2  0  0  0  0  0  0
  193.7400  175.6270  145.1450 N   0  0  0  0  0  0  0  0  0  0  0  0
  193.9220  174.2430  144.6620 C   0  0  0  0  0  2  0  0  0  0  0  0
  195.2050  174.0000  144.1160 O   0  0  0  0  0  0  0  0  0  0  0  0
  195.0170  176.3430  145.2080 C   0  0  0  0  0  2  0  0  0  0  0  0
  1 22  1  1  0  0  0
  1  8  1  0  0  0  0
  2  6  2  0  0  0  0
  3  9  1  0  0  0  0
  3  5  2  0  0  0  0
  4  8  2  0  0  0  0
  5  4  1  0  0  0  0
  6  9  2  0  0  0  0
  7  3  1  0  0  0  0
  9  1  1  0  0  0  0
 10 17  1  0  0  0  0
 12  2  1  6  0  0  0
 13 12  1  0  0  0  0
 13 18  1  1  0  0  0
 13 11  1  0  0  0  0
 14 16  1  0  0  0  0
 14 11  1  0  0  0  0
 15 10  1  1  0  0  0
 15 13  1  0  0  0  0
 15 12  1  0  0  0  0
 17 14  2  0  0  0  0
 18 19  3  0  0  0  0
 20 23  1  0  0  0  0
 22 20  2  0  0  0  0
 22 21  1  0  0  0  0
 24 25  1  0  0  0  0
 24 23  1  0  0  0  0
 25 27  1  1  0  0  0
 26 25  1  0  0  0  0
 28 25  1  0  0  0  0
 29 30  1  0  0  0  0
 29 33  1  0  0  0  0
 30 34  1  0  0  0  0
 31 34  1  0  0  0  0
 31 28  1  0  0  0  0
 32 31  1  0  0  0  0
 33 32  1  0  0  0  0
M  END
>  <MODEL>
1

>  <REMARK>
 VINA RESULT:      -7.2      0.000      0.000
  Name = 
  8 active torsions:
  status: ('A' for Active; 'I' for Inactive)
    1  A    between atoms: C_2  and  C_29
    2  A    between atoms: C_5  and  C_12
    3  A    between atoms: C_5  and  C_27
    4  A    between atoms: C_6  and  C_10
    5  A    between atoms: C_12  and  C_15
    6  A    between atoms: C_13  and  C_19
    7  A    between atoms: C_14  and  C_15
    8  A    between atoms: N_18  and  C_27
                            x       y       z     vdW  Elec       q    Type
                         _______ _______ _______ _____ _____    ______ ____

>  <TORSDO>
F 8

$$$$
=
 OpenBabel11062423123D

 34 37  0  0  1  0  0  0  0  0999 V2000
  187.2300  178.0390  144.0780 C   0  0  1  0  0  3  0  0  0  0  0  0
  189.2060  176.6710  146.7640 C   0  0  0  0  0  3  0  0  0  0  0  0
  186.0250  178.3140  146.3450 C   0  0  0  0  0  0  0  0  0  0  0  0
  185.2050  179.4520  144.3930 C   0  0  0  0  0  3  0  0  0  0  0  0
  185.1260  179.0550  145.7700 N   0  0  0  0  0  0  0  0  0  0  0  0
  188.1980  177.2520  146.1730 C   0  0  0  0  0  0  0  0  0  0  0  0
  185.8790  177.9820  147.7230 N   0  0  0  0  0  1  0  0  0  0  0  0
  186.1820  179.0100  143.5960 C   0  0  0  0  0  3  0  0  0  0  0  0
  187.1940  177.8380  145.5740 C   0  0  0  0  0  0  0  0  0  0  0  0
  192.9420  176.6440  147.1030 C   0  0  0  0  0  2  0  0  0  0  0  0
  192.2240  175.8180  144.5100 C   0  0  0  0  0  2  0  0  0  0  0  0
  190.6050  176.8420  146.2540 C   0  0  2  0  0  3  0  0  0  0  0  0
  191.1800  175.5830  145.6070 C   0  0  2  0  0  0  0  0  0  0  0  0
  193.6050  175.5890  145.0440 C   0  0  0  0  0  0  0  0  0  0  0  0
  191.5760  175.9550  147.0380 C   0  0  1  0  0  3  0  0  0  0  0  0
  194.5860  174.9650  144.2240 N   0  0  0  0  0  1  0  0  0  0  0  0
  193.9110  175.9630  146.2480 N   0  0  0  0  0  0  0  0  0  0  0  0
  190.3570  174.3650  145.5220 C   0  0  0  0  0  0  0  0  0  0  0  0
  189.7100  173.4090  145.4550 N   0  0  0  0  0  0  0  0  0  0  0  0
  188.2180  176.1830  142.7840 C   0  0  0  0  0  3  0  0  0  0  0  0
  185.8930  176.1210  143.2230 O   0  0  0  0  0  1  0  0  0  0  0  0
  187.1350  176.7370  143.3340 C   0  0  0  0  0  0  0  0  0  0  0  0
  188.1760  174.8910  142.0370 C   0  0  0  0  0  2  0  0  0  0  0  0
  189.5780  174.4920  141.5860 C   0  0  0  0  0  2  0  0  0  0  0  0
  189.8540  172.9870  141.6780 C   0  0  1  0  0  0  0  0  0  0  0  0
  191.0170  172.8160  142.4260 O   0  0  0  0  0  1  0  0  0  0  0  0
  188.7260  172.2630  142.4020 C   0  0  0  0  0  1  0  0  0  0  0  0
  190.0960  172.3730  140.2940 C   0  0  0  0  0  2  0  0  0  0  0  0
  189.3650  174.0140  136.6640 C   0  0  0  0  0  2  0  0  0  0  0  0
  190.8270  174.1120  137.0950 C   0  0  0  0  0  2  0  0  0  0  0  0
  189.8750  173.3290  139.2180 N   0  0  0  0  0  0  0  0  0  0  0  0
  188.6500  172.9050  138.5080 C   0  0  0  0  0  2  0  0  0  0  0  0
  188.8200  172.7980  137.1070 O   0  0  0  0  0  0  0  0  0  0  0  0
  191.0490  173.2630  138.3450 C   0  0  0  0  0  2  0  0  0  0  0  0
  1 22  1  6  0  0  0
  1  9  1  0  0  0  0
  3  7  1  0  0  0  0
  4  5  1  0  0  0  0
  5  3  2  0  0  0  0
  6  2  2  0  0  0  0
  8  1  1  0  0  0  0
  8  4  2  0  0  0  0
  9  6  2  0  0  0  0
  9  3  1  0  0  0  0
 11 14  1  0  0  0  0
 11 13  1  0  0  0  0
 12  2  1  1  0  0  0
 12 15  1  0  0  0  0
 13 18  1  6  0  0  0
 13 12  1  0  0  0  0
 13 15  1  0  0  0  0
 14 17  2  0  0  0  0
 15 10  1  6  0  0  0
 16 14  1  0  0  0  0
 17 10  1  0  0  0  0
 19 18  3  0  0  0  0
 20 22  2  0  0  0  0
 21 22  1  0  0  0  0
 23 20  1  0  0  0  0
 24 25  1  0  0  0  0
 24 23  1  0  0  0  0
 25 27  1  1  0  0  0
 25 26  1  0  0  0  0
 28 25  1  0  0  0  0
 29 30  1  0  0  0  0
 29 33  1  0  0  0  0
 30 34  1  0  0  0  0
 31 28  1  0  0  0  0
 32 31  1  0  0  0  0
 33 32  1  0  0  0  0
 34 31  1  0  0  0  0
M  END
>  <MODEL>
2

>  <REMARK>
 VINA RESULT:      -7.0      2.692      5.892
  Name = 
  8 active torsions:
  status: ('A' for Active; 'I' for Inactive)
    1  A    between atoms: C_2  and  C_29
    2  A    between atoms: C_5  and  C_12
    3  A    between atoms: C_5  and  C_27
    4  A    between atoms: C_6  and  C_10
    5  A    between atoms: C_12  and  C_15
    6  A    between atoms: C_13  and  C_19
    7  A    between atoms: C_14  and  C_15
    8  A    between atoms: N_18  and  C_27
                            x       y       z     vdW  Elec       q    Type
                         _______ _______ _______ _____ _____    ______ ____

>  <TORSDO>
F 8

$$$$
=
 OpenBabel11062423123D

 34 37  0  0  1  0  0  0  0  0999 V2000
  186.3890  176.5750  145.8510 C   0  0  1  0  0  3  0  0  0  0  0  0
  187.2090  176.1980  142.3610 C   0  0  0  0  0  3  0  0  0  0  0  0
  184.9300  178.1220  144.3870 C   0  0  0  0  0  0  0  0  0  0  0  0
  184.4020  177.8030  146.7100 C   0  0  0  0  0  3  0  0  0  0  0  0
  184.2130  178.4210  145.4280 N   0  0  0  0  0  0  0  0  0  0  0  0
  186.6040  176.6550  143.4230 C   0  0  0  0  0  0  0  0  0  0  0  0
  184.6640  178.7690  143.1460 N   0  0  0  0  0  1  0  0  0  0  0  0
  185.3910  176.9300  146.9230 C   0  0  0  0  0  3  0  0  0  0  0  0
  185.9990  177.1050  144.4920 C   0  0  0  0  0  0  0  0  0  0  0  0
  188.2660  173.0810  140.5620 C   0  0  0  0  0  2  0  0  0  0  0  0
  189.7420  173.3420  142.9440 C   0  0  0  0  0  2  0  0  0  0  0  0
  187.6870  174.7780  142.2950 C   0  0  2  0  0  3  0  0  0  0  0  0
  189.2080  174.6420  142.3340 C   0  0  2  0  0  0  0  0  0  0  0  0
  190.1690  172.3940  141.8650 C   0  0  0  0  0  0  0  0  0  0  0  0
  188.4670  174.5340  141.0000 C   0  0  1  0  0  3  0  0  0  0  0  0
  191.3280  171.5900  142.0480 N   0  0  0  0  0  1  0  0  0  0  0  0
  189.4840  172.3010  140.7670 N   0  0  0  0  0  0  0  0  0  0  0  0
  190.0470  175.8470  142.4460 C   0  0  0  0  0  0  0  0  0  0  0  0
  190.7060  176.7940  142.5320 N   0  0  0  0  0  0  0  0  0  0  0  0
  188.8440  176.3090  145.8560 C   0  0  0  0  0  3  0  0  0  0  0  0
  187.9190  178.1440  147.0310 O   0  0  0  0  0  1  0  0  0  0  0  0
  187.7730  177.0060  146.2450 C   0  0  0  0  0  0  0  0  0  0  0  0
  190.2390  176.6980  146.2200 C   0  0  0  0  0  2  0  0  0  0  0  0
  191.2230  175.6180  145.7810 C   0  0  0  0  0  2  0  0  0  0  0  0
  192.6510  176.1310  145.5640 C   0  0  1  0  0  0  0  0  0  0  0  0
  192.5620  177.4330  145.0760 O   0  0  0  0  0  1  0  0  0  0  0  0
  193.4250  176.1770  146.8750 C   0  0  0  0  0  1  0  0  0  0  0  0
  193.3980  175.2930  144.5200 C   0  0  0  0  0  2  0  0  0  0  0  0
  196.0430  176.4780  141.6900 C   0  0  0  0  0  2  0  0  0  0  0  0
  196.5670  176.6290  143.1180 C   0  0  0  0  0  2  0  0  0  0  0  0
  194.2260  176.1110  143.6430 N   0  0  0  0  0  0  0  0  0  0  0  0
  194.0340  175.6020  142.2700 C   0  0  0  0  0  2  0  0  0  0  0  0
  195.2480  175.3250  141.5970 O   0  0  0  0  0  0  0  0  0  0  0  0
  195.6110  175.9400  144.0880 C   0  0  0  0  0  2  0  0  0  0  0  0
  1 22  1  1  0  0  0
  1  8  1  0  0  0  0
  2  6  2  0  0  0  0
  3  9  1  0  0  0  0
  3  5  2  0  0  0  0
  4  8  2  0  0  0  0
  5  4  1  0  0  0  0
  6  9  2  0  0  0  0
  7  3  1  0  0  0  0
  9  1  1  0  0  0  0
 10 17  1  0  0  0  0
 12 13  1  0  0  0  0
 12  2  1  6  0  0  0
 13 18  1  1  0  0  0
 13 11  1  0  0  0  0
 14 16  1  0  0  0  0
 14 11  1  0  0  0  0
 15 10  1  1  0  0  0
 15 12  1  0  0  0  0
 15 13  1  0  0  0  0
 17 14  2  0  0  0  0
 18 19  3  0  0  0  0
 20 23  1  0  0  0  0
 20 22  2  0  0  0  0
 22 21  1  0  0  0  0
 24 23  1  0  0  0  0
 25 24  1  0  0  0  0
 25 27  1  1  0  0  0
 26 25  1  0  0  0  0
 28 25  1  0  0  0  0
 29 30  1  0  0  0  0
 30 34  1  0  0  0  0
 31 34  1  0  0  0  0
 31 28  1  0  0  0  0
 32 31  1  0  0  0  0
 33 29  1  0  0  0  0
 33 32  1  0  0  0  0
M  END
>  <MODEL>
3

>  <REMARK>
 VINA RESULT:      -7.0      1.097      1.272
  Name = 
  8 active torsions:
  status: ('A' for Active; 'I' for Inactive)
    1  A    between atoms: C_2  and  C_29
    2  A    between atoms: C_5  and  C_12
    3  A    between atoms: C_5  and  C_27
    4  A    between atoms: C_6  and  C_10
    5  A    between atoms: C_12  and  C_15
    6  A    between atoms: C_13  and  C_19
    7  A    between atoms: C_14  and  C_15
    8  A    between atoms: N_18  and  C_27
                            x       y       z     vdW  Elec       q    Type
                         _______ _______ _______ _____ _____    ______ ____

>  <TORSDO>
F 8

$$$$
=
 OpenBabel11062423123D

 34 37  0  0  1  0  0  0  0  0999 V2000
  187.0040  178.2710  144.1200 C   0  0  1  0  0  3  0  0  0  0  0  0
  188.8760  176.6130  146.7160 C   0  0  0  0  0  3  0  0  0  0  0  0
  185.6570  178.1880  146.3200 C   0  0  0  0  0  0  0  0  0  0  0  0
  184.9060  179.5560  144.4930 C   0  0  0  0  0  3  0  0  0  0  0  0
  184.7630  178.9700  145.7950 N   0  0  0  0  0  0  0  0  0  0  0  0
  187.8800  177.2360  146.1460 C   0  0  0  0  0  0  0  0  0  0  0  0
  185.4450  177.6640  147.6280 N   0  0  0  0  0  1  0  0  0  0  0  0
  185.9460  179.2620  143.7070 C   0  0  0  0  0  3  0  0  0  0  0  0
  186.8890  177.8640  145.5690 C   0  0  0  0  0  0  0  0  0  0  0  0
  192.5690  176.8170  147.3440 C   0  0  0  0  0  2  0  0  0  0  0  0
  192.1060  176.0740  144.6690 C   0  0  0  0  0  2  0  0  0  0  0  0
  190.2940  176.9020  146.3240 C   0  0  2  0  0  3  0  0  0  0  0  0
  191.0020  175.7170  145.6700 C   0  0  2  0  0  0  0  0  0  0  0  0
  193.4560  175.9110  145.2980 C   0  0  0  0  0  0  0  0  0  0  0  0
  191.2620  176.0430  147.1420 C   0  0  1  0  0  3  0  0  0  0  0  0
  194.5360  175.3950  144.5310 N   0  0  0  0  0  1  0  0  0  0  0  0
  193.6440  176.2440  146.5380 N   0  0  0  0  0  0  0  0  0  0  0  0
  190.2750  174.4530  145.4670 C   0  0  0  0  0  0  0  0  0  0  0  0
  189.7020  173.4610  145.3070 N   0  0  0  0  0  0  0  0  0  0  0  0
  188.0190  176.8790  142.3500 C   0  0  0  0  0  3  0  0  0  0  0  0
  185.9370  176.1970  143.2490 O   0  0  0  0  0  1  0  0  0  0  0  0
  187.0090  177.0820  143.2010 C   0  0  0  0  0  0  0  0  0  0  0  0
  188.0710  175.7120  141.4200 C   0  0  0  0  0  2  0  0  0  0  0  0
  189.0880  174.6860  141.9110 C   0  0  0  0  0  2  0  0  0  0  0  0
  189.0740  173.3720  141.1210 C   0  0  1  0  0  0  0  0  0  0  0  0
  188.2360  172.4850  141.7940 O   0  0  0  0  0  1  0  0  0  0  0  0
  188.5070  173.5760  139.7220 C   0  0  0  0  0  1  0  0  0  0  0  0
  190.4680  172.7390  141.0580 C   0  0  0  0  0  2  0  0  0  0  0  0
  193.1510  172.1250  144.0300 C   0  0  0  0  0  2  0  0  0  0  0  0
  192.0540  171.0630  143.9690 C   0  0  0  0  0  2  0  0  0  0  0  0
  191.1020  172.6620  142.3670 N   0  0  0  0  0  0  0  0  0  0  0  0
  192.4180  173.3220  142.2500 C   0  0  0  0  0  2  0  0  0  0  0  0
  193.4900  172.5320  142.7300 O   0  0  0  0  0  0  0  0  0  0  0  0
  191.2450  171.2390  142.6860 C   0  0  0  0  0  2  0  0  0  0  0  0
  1 22  1  6  0  0  0
  1  9  1  0  0  0  0
  3  7  1  0  0  0  0
  4  5  1  0  0  0  0
  5  3  2  0  0  0  0
  6  2  2  0  0  0  0
  8  1  1  0  0  0  0
  8  4  2  0  0  0  0
  9  6  2  0  0  0  0
  9  3  1  0  0  0  0
 11 14  1  0  0  0  0
 11 13  1  0  0  0  0
 12  2  1  1  0  0  0
 12 15  1  0  0  0  0
 13 18  1  6  0  0  0
 13 12  1  0  0  0  0
 13 15  1  0  0  0  0
 14 17  2  0  0  0  0
 15 10  1  6  0  0  0
 16 14  1  0  0  0  0
 17 10  1  0  0  0  0
 19 18  3  0  0  0  0
 20 22  2  0  0  0  0
 22 21  1  0  0  0  0
 23 24  1  0  0  0  0
 23 20  1  0  0  0  0
 25 27  1  6  0  0  0
 25 26  1  0  0  0  0
 25 24  1  0  0  0  0
 28 25  1  0  0  0  0
 28 31  1  0  0  0  0
 30 29  1  0  0  0  0
 31 34  1  0  0  0  0
 32 31  1  0  0  0  0
 32 33  1  0  0  0  0
 33 29  1  0  0  0  0
 34 30  1  0  0  0  0
M  END
>  <MODEL>
4

>  <REMARK>
 VINA RESULT:      -7.0      2.196      5.269
  Name = 
  8 active torsions:
  status: ('A' for Active; 'I' for Inactive)
    1  A    between atoms: C_2  and  C_29
    2  A    between atoms: C_5  and  C_12
    3  A    between atoms: C_5  and  C_27
    4  A    between atoms: C_6  and  C_10
    5  A    between atoms: C_12  and  C_15
    6  A    between atoms: C_13  and  C_19
    7  A    between atoms: C_14  and  C_15
    8  A    between atoms: N_18  and  C_27
                            x       y       z     vdW  Elec       q    Type
                         _______ _______ _______ _____ _____    ______ ____

>  <TORSDO>
F 8

$$$$
=
 OpenBabel11062423123D

 34 37  0  0  1  0  0  0  0  0999 V2000
  187.3640  176.7970  146.3470 C   0  0  1  0  0  3  0  0  0  0  0  0
  188.2350  177.5300  142.9280 C   0  0  0  0  0  3  0  0  0  0  0  0
  186.0190  178.8160  145.4640 C   0  0  0  0  0  0  0  0  0  0  0  0
  185.4270  177.7900  147.5550 C   0  0  0  0  0  3  0  0  0  0  0  0
  185.2980  178.8010  146.5450 N   0  0  0  0  0  0  0  0  0  0  0  0
  187.6330  177.6500  144.0790 C   0  0  0  0  0  0  0  0  0  0  0  0
  185.8130  179.8460  144.5020 N   0  0  0  0  0  1  0  0  0  0  0  0
  186.3640  176.8400  147.4750 C   0  0  0  0  0  3  0  0  0  0  0  0
  187.0300  177.7610  145.2350 C   0  0  0  0  0  0  0  0  0  0  0  0
  187.9350  173.8020  142.6300 C   0  0  0  0  0  2  0  0  0  0  0  0
  188.7750  174.8810  140.1700 C   0  0  0  0  0  2  0  0  0  0  0  0
  188.6390  176.1840  142.4040 C   0  0  2  0  0  3  0  0  0  0  0  0
  187.9730  175.8170  141.0790 C   0  0  2  0  0  0  0  0  0  0  0  0
  188.2490  173.4810  140.2650 C   0  0  0  0  0  0  0  0  0  0  0  0
  187.4400  175.2310  142.3880 C   0  0  1  0  0  3  0  0  0  0  0  0
  188.1930  172.6660  139.1010 N   0  0  0  0  0  1  0  0  0  0  0  0
  187.8520  173.0080  141.4060 N   0  0  0  0  0  0  0  0  0  0  0  0
  187.0460  176.7660  140.4400 C   0  0  0  0  0  0  0  0  0  0  0  0
  186.3170  177.5110  139.9380 N   0  0  0  0  0  0  0  0  0  0  0  0
  189.7120  176.0880  146.6350 C   0  0  0  0  0  3  0  0  0  0  0  0
  189.0440  178.1470  147.5930 O   0  0  0  0  0  1  0  0  0  0  0  0
  188.7610  176.9970  146.8640 C   0  0  0  0  0  0  0  0  0  0  0  0
  191.1140  176.2420  147.1250 C   0  0  0  0  0  2  0  0  0  0  0  0
  192.0550  175.3360  146.3370 C   0  0  0  0  0  2  0  0  0  0  0  0
  193.1490  176.0910  145.5750 C   0  0  1  0  0  0  0  0  0  0  0  0
  192.5250  177.0500  144.7800 O   0  0  0  0  0  1  0  0  0  0  0  0
  194.0850  176.8190  146.5320 C   0  0  0  0  0  1  0  0  0  0  0  0
  193.9360  175.1580  144.6480 C   0  0  0  0  0  2  0  0  0  0  0  0
  197.8630  174.1650  144.7330 C   0  0  0  0  0  2  0  0  0  0  0  0
  197.0050  173.3480  145.6980 C   0  0  0  0  0  2  0  0  0  0  0  0
  195.3290  175.0220  145.0520 N   0  0  0  0  0  0  0  0  0  0  0  0
  196.1560  175.3930  143.8850 C   0  0  0  0  0  2  0  0  0  0  0  0
  197.1380  174.4270  143.5600 O   0  0  0  0  0  0  0  0  0  0  0  0
  195.5280  173.6190  145.4220 C   0  0  0  0  0  2  0  0  0  0  0  0
  1 22  1  1  0  0  0
  1  8  1  0  0  0  0
  2  6  2  0  0  0  0
  3  5  2  0  0  0  0
  5  4  1  0  0  0  0
  6  9  2  0  0  0  0
  7  3  1  0  0  0  0
  8  4  2  0  0  0  0
  9  3  1  0  0  0  0
  9  1  1  0  0  0  0
 11 14  1  0  0  0  0
 11 13  1  0  0  0  0
 12  2  1  1  0  0  0
 13 18  1  6  0  0  0
 13 15  1  0  0  0  0
 13 12  1  0  0  0  0
 14 17  2  0  0  0  0
 15 12  1  0  0  0  0
 15 10  1  6  0  0  0
 16 14  1  0  0  0  0
 17 10  1  0  0  0  0
 19 18  3  0  0  0  0
 20 22  2  0  0  0  0
 20 23  1  0  0  0  0
 22 21  1  0  0  0  0
 24 23  1  0  0  0  0
 25 24  1  0  0  0  0
 25 27  1  1  0  0  0
 26 25  1  0  0  0  0
 28 31  1  0  0  0  0
 28 25  1  0  0  0  0
 29 30  1  0  0  0  0
 31 34  1  0  0  0  0
 32 31  1  0  0  0  0
 33 32  1  0  0  0  0
 33 29  1  0  0  0  0
 34 30  1  0  0  0  0
M  END
>  <MODEL>
5

>  <REMARK>
 VINA RESULT:      -6.6      1.678      2.409
  Name = 
  8 active torsions:
  status: ('A' for Active; 'I' for Inactive)
    1  A    between atoms: C_2  and  C_29
    2  A    between atoms: C_5  and  C_12
    3  A    between atoms: C_5  and  C_27
    4  A    between atoms: C_6  and  C_10
    5  A    between atoms: C_12  and  C_15
    6  A    between atoms: C_13  and  C_19
    7  A    between atoms: C_14  and  C_15
    8  A    between atoms: N_18  and  C_27
                            x       y       z     vdW  Elec       q    Type
                         _______ _______ _______ _____ _____    ______ ____

>  <TORSDO>
F 8

$$$$
=
 OpenBabel11062423123D

 34 37  0  0  1  0  0  0  0  0999 V2000
  190.6200  172.9290  141.1310 C   0  0  1  0  0  3  0  0  0  0  0  0
  192.7250  175.5700  142.3880 C   0  0  0  0  0  3  0  0  0  0  0  0
  192.4440  173.5530  139.4140 C   0  0  0  0  0  0  0  0  0  0  0  0
  191.1110  171.5780  139.0990 C   0  0  0  0  0  3  0  0  0  0  0  0
  192.0980  172.5340  138.6860 N   0  0  0  0  0  0  0  0  0  0  0  0
  192.2690  174.6730  141.5580 C   0  0  0  0  0  0  0  0  0  0  0  0
  193.4470  174.4440  138.9370 N   0  0  0  0  0  1  0  0  0  0  0  0
  190.4280  171.7300  140.2380 C   0  0  0  0  0  3  0  0  0  0  0  0
  191.8080  173.7690  140.7320 C   0  0  0  0  0  0  0  0  0  0  0  0
  193.9560  175.9820  145.9080 C   0  0  0  0  0  2  0  0  0  0  0  0
  191.1420  175.9040  145.8950 C   0  0  0  0  0  2  0  0  0  0  0  0
  192.6610  175.3540  143.8710 C   0  0  2  0  0  3  0  0  0  0  0  0
  191.8100  176.3890  144.6050 C   0  0  2  0  0  0  0  0  0  0  0  0
  191.9010  176.3910  147.0920 C   0  0  0  0  0  0  0  0  0  0  0  0
  193.3350  176.5120  144.6120 C   0  0  1  0  0  3  0  0  0  0  0  0
  191.1950  176.8000  148.2580 N   0  0  0  0  0  1  0  0  0  0  0  0
  193.1970  176.4340  147.0720 N   0  0  0  0  0  0  0  0  0  0  0  0
  191.1380  177.4550  143.8430 C   0  0  0  0  0  0  0  0  0  0  0  0
  190.6100  178.2930  143.2460 N   0  0  0  0  0  0  0  0  0  0  0  0
  188.9940  174.3270  142.3550 C   0  0  0  0  0  3  0  0  0  0  0  0
  188.5730  173.8700  140.0710 O   0  0  0  0  0  1  0  0  0  0  0  0
  189.3590  173.7420  141.2120 C   0  0  0  0  0  0  0  0  0  0  0  0
  187.7530  175.1470  142.4850 C   0  0  0  0  0  2  0  0  0  0  0  0
  187.9380  176.5030  141.8110 C   0  0  0  0  0  2  0  0  0  0  0  0
  186.7570  177.4600  142.0070 C   0  0  1  0  0  0  0  0  0  0  0  0
  187.2640  178.6670  142.4830 O   0  0  0  0  0  1  0  0  0  0  0  0
  186.0500  177.7410  140.6870 C   0  0  0  0  0  1  0  0  0  0  0  0
  185.7680  176.9270  143.0510 C   0  0  0  0  0  2  0  0  0  0  0  0
  185.0530  178.2410  146.8150 C   0  0  0  0  0  2  0  0  0  0  0  0
  184.3030  179.0270  145.7420 C   0  0  0  0  0  2  0  0  0  0  0  0
  185.7740  177.7190  144.2730 N   0  0  0  0  0  0  0  0  0  0  0  0
  186.0550  176.7920  145.3880 C   0  0  0  0  0  2  0  0  0  0  0  0
  185.1240  176.8870  146.4500 O   0  0  0  0  0  0  0  0  0  0  0  0
  184.4410  178.3150  144.3980 C   0  0  0  0  0  2  0  0  0  0  0  0
  1 22  1  6  0  0  0
  3  9  1  0  0  0  0
  4  8  2  0  0  0  0
  5  4  1  0  0  0  0
  5  3  2  0  0  0  0
  6  2  2  0  0  0  0
  7  3  1  0  0  0  0
  8  1  1  0  0  0  0
  9  1  1  0  0  0  0
  9  6  2  0  0  0  0
 10 17  1  0  0  0  0
 11 14  1  0  0  0  0
 12  2  1  6  0  0  0
 12 13  1  0  0  0  0
 12 15  1  0  0  0  0
 13 18  1  6  0  0  0
 13 15  1  0  0  0  0
 13 11  1  0  0  0  0
 14 16  1  0  0  0  0
 15 10  1  1  0  0  0
 17 14  2  0  0  0  0
 19 18  3  0  0  0  0
 20 23  1  0  0  0  0
 21 22  1  0  0  0  0
 22 20  2  0  0  0  0
 24 25  1  0  0  0  0
 24 23  1  0  0  0  0
 25 27  1  6  0  0  0
 25 26  1  0  0  0  0
 25 28  1  0  0  0  0
 28 31  1  0  0  0  0
 30 29  1  0  0  0  0
 31 34  1  0  0  0  0
 31 32  1  0  0  0  0
 32 33  1  0  0  0  0
 33 29  1  0  0  0  0
 34 30  1  0  0  0  0
M  END
>  <MODEL>
6

>  <REMARK>
 VINA RESULT:      -6.5      2.586      8.009
  Name = 
  8 active torsions:
  status: ('A' for Active; 'I' for Inactive)
    1  A    between atoms: C_2  and  C_29
    2  A    between atoms: C_5  and  C_12
    3  A    between atoms: C_5  and  C_27
    4  A    between atoms: C_6  and  C_10
    5  A    between atoms: C_12  and  C_15
    6  A    between atoms: C_13  and  C_19
    7  A    between atoms: C_14  and  C_15
    8  A    between atoms: N_18  and  C_27
                            x       y       z     vdW  Elec       q    Type
                         _______ _______ _______ _____ _____    ______ ____

>  <TORSDO>
F 8

$$$$
=
 OpenBabel11062423123D

 34 37  0  0  1  0  0  0  0  0999 V2000
  187.9720  177.5350  143.0780 C   0  0  1  0  0  3  0  0  0  0  0  0
  189.6490  176.7410  146.1680 C   0  0  0  0  0  3  0  0  0  0  0  0
  186.5740  178.2960  145.1100 C   0  0  0  0  0  0  0  0  0  0  0  0
  185.9730  179.0060  142.8940 C   0  0  0  0  0  3  0  0  0  0  0  0
  185.7550  178.9090  144.3090 N   0  0  0  0  0  0  0  0  0  0  0  0
  188.7190  177.1960  145.3740 C   0  0  0  0  0  0  0  0  0  0  0  0
  186.2920  178.2640  146.5060 N   0  0  0  0  0  1  0  0  0  0  0  0
  187.0040  178.3940  142.3050 C   0  0  0  0  0  3  0  0  0  0  0  0
  187.7920  177.6540  144.5720 C   0  0  0  0  0  0  0  0  0  0  0  0
  193.3330  176.4690  146.8240 C   0  0  0  0  0  2  0  0  0  0  0  0
  192.7670  175.5530  144.2230 C   0  0  0  0  0  2  0  0  0  0  0  0
  191.0940  176.7840  145.7700 C   0  0  2  0  0  3  0  0  0  0  0  0
  191.6230  175.4540  145.2380 C   0  0  2  0  0  0  0  0  0  0  0  0
  194.0790  175.2570  144.8830 C   0  0  0  0  0  0  0  0  0  0  0  0
  191.9280  175.8760  146.6770 C   0  0  1  0  0  3  0  0  0  0  0  0
  195.0740  174.5210  144.1820 N   0  0  0  0  0  1  0  0  0  0  0  0
  194.3150  175.6750  146.0890 N   0  0  0  0  0  0  0  0  0  0  0  0
  190.7210  174.2940  145.1440 C   0  0  0  0  0  0  0  0  0  0  0  0
  190.0110  173.3840  145.0710 N   0  0  0  0  0  0  0  0  0  0  0  0
  188.9680  175.5140  142.0670 C   0  0  0  0  0  3  0  0  0  0  0  0
  186.7090  175.4120  142.7670 O   0  0  0  0  0  1  0  0  0  0  0  0
  187.9050  176.1060  142.6170 C   0  0  0  0  0  0  0  0  0  0  0  0
  188.9520  174.0970  141.5960 C   0  0  0  0  0  2  0  0  0  0  0  0
  190.3730  173.6100  141.3270 C   0  0  0  0  0  2  0  0  0  0  0  0
  190.4450  172.3860  140.4070 C   0  0  1  0  0  0  0  0  0  0  0  0
  190.4440  171.2510  141.2140 O   0  0  0  0  0  1  0  0  0  0  0  0
  189.2280  172.3100  139.4950 C   0  0  0  0  0  1  0  0  0  0  0  0
  191.7410  172.3740  139.5880 C   0  0  0  0  0  2  0  0  0  0  0  0
  194.6130  175.2130  139.2770 C   0  0  0  0  0  2  0  0  0  0  0  0
  194.7380  174.3540  140.5340 C   0  0  0  0  0  2  0  0  0  0  0  0
  192.5310  173.5820  139.7830 N   0  0  0  0  0  0  0  0  0  0  0  0
  192.7930  174.1480  138.4440 C   0  0  0  0  0  2  0  0  0  0  0  0
  194.1610  174.4250  138.2070 O   0  0  0  0  0  0  0  0  0  0  0  0
  193.7740  173.1740  140.4430 C   0  0  0  0  0  2  0  0  0  0  0  0
  1 22  1  6  0  0  0
  1  9  1  0  0  0  0
  3  7  1  0  0  0  0
  4  5  1  0  0  0  0
  5  3  2  0  0  0  0
  6  2  2  0  0  0  0
  8  4  2  0  0  0  0
  8  1  1  0  0  0  0
  9  3  1  0  0  0  0
  9  6  2  0  0  0  0
 11 14  1  0  0  0  0
 11 13  1  0  0  0  0
 12  2  1  1  0  0  0
 12 15  1  0  0  0  0
 13 18  1  6  0  0  0
 13 12  1  0  0  0  0
 13 15  1  0  0  0  0
 14 17  2  0  0  0  0
 15 10  1  6  0  0  0
 16 14  1  0  0  0  0
 17 10  1  0  0  0  0
 19 18  3  0  0  0  0
 20 22  2  0  0  0  0
 22 21  1  0  0  0  0
 23 20  1  0  0  0  0
 24 23  1  0  0  0  0
 25 27  1  6  0  0  0
 25 26  1  0  0  0  0
 25 24  1  0  0  0  0
 28 31  1  0  0  0  0
 28 25  1  0  0  0  0
 29 30  1  0  0  0  0
 31 34  1  0  0  0  0
 32 31  1  0  0  0  0
 33 32  1  0  0  0  0
 33 29  1  0  0  0  0
 34 30  1  0  0  0  0
M  END
>  <MODEL>
7

>  <REMARK>
 VINA RESULT:      -6.3      2.678      5.468
  Name = 
  8 active torsions:
  status: ('A' for Active; 'I' for Inactive)
    1  A    between atoms: C_2  and  C_29
    2  A    between atoms: C_5  and  C_12
    3  A    between atoms: C_5  and  C_27
    4  A    between atoms: C_6  and  C_10
    5  A    between atoms: C_12  and  C_15
    6  A    between atoms: C_13  and  C_19
    7  A    between atoms: C_14  and  C_15
    8  A    between atoms: N_18  and  C_27
                            x       y       z     vdW  Elec       q    Type
                         _______ _______ _______ _____ _____    ______ ____

>  <TORSDO>
F 8

$$$$
=
 OpenBabel11062423123D

 34 37  0  0  1  0  0  0  0  0999 V2000
  195.2160  174.3180  144.4140 C   0  0  1  0  0  3  0  0  0  0  0  0
  192.8610  171.6610  143.7940 C   0  0  0  0  0  3  0  0  0  0  0  0
  196.0470  172.0920  145.4240 C   0  0  0  0  0  0  0  0  0  0  0  0
  197.5220  173.9850  145.2890 C   0  0  0  0  0  3  0  0  0  0  0  0
  197.1910  172.6480  145.6910 N   0  0  0  0  0  0  0  0  0  0  0  0
  193.9370  172.2500  144.2390 C   0  0  0  0  0  0  0  0  0  0  0  0
  195.8070  170.7520  145.8430 N   0  0  0  0  0  1  0  0  0  0  0  0
  196.6300  174.7700  144.6790 C   0  0  0  0  0  3  0  0  0  0  0  0
  195.0160  172.8460  144.6780 C   0  0  0  0  0  0  0  0  0  0  0  0
  191.0740  171.0610  140.5500 C   0  0  0  0  0  2  0  0  0  0  0  0
  190.2040  173.4920  141.6710 C   0  0  0  0  0  2  0  0  0  0  0  0
  192.2170  172.0960  142.5110 C   0  0  2  0  0  3  0  0  0  0  0  0
  190.7380  172.4470  142.6560 C   0  0  2  0  0  0  0  0  0  0  0  0
  189.4400  172.8280  140.5660 C   0  0  0  0  0  0  0  0  0  0  0  0
  191.1470  171.0900  142.0800 C   0  0  1  0  0  3  0  0  0  0  0  0
  188.2650  173.4420  140.0510 N   0  0  0  0  0  1  0  0  0  0  0  0
  189.8490  171.7000  140.0740 N   0  0  0  0  0  0  0  0  0  0  0  0
  190.0920  172.3540  143.9760 C   0  0  0  0  0  0  0  0  0  0  0  0
  189.5840  172.2840  145.0130 N   0  0  0  0  0  0  0  0  0  0  0  0
  193.1110  175.5960  144.5950 C   0  0  0  0  0  3  0  0  0  0  0  0
  194.5190  175.4930  146.4950 O   0  0  0  0  0  1  0  0  0  0  0  0
  194.2340  175.1640  145.1750 C   0  0  0  0  0  0  0  0  0  0  0  0
  192.1030  176.4360  145.3090 C   0  0  0  0  0  2  0  0  0  0  0  0
  190.8250  175.6400  145.5520 C   0  0  0  0  0  2  0  0  0  0  0  0
  190.1540  175.9390  146.8970 C   0  0  1  0  0  0  0  0  0  0  0  0
  189.4380  174.8050  147.2740 O   0  0  0  0  0  1  0  0  0  0  0  0
  191.1900  176.2150  147.9800 C   0  0  0  0  0  1  0  0  0  0  0  0
  189.1600  177.1010  146.7850 C   0  0  0  0  0  2  0  0  0  0  0  0
  185.6920  177.2930  144.7020 C   0  0  0  0  0  2  0  0  0  0  0  0
  185.5170  176.7900  146.1340 C   0  0  0  0  0  2  0  0  0  0  0  0
  187.9690  176.7400  146.0280 N   0  0  0  0  0  0  0  0  0  0  0  0
  187.9320  177.6140  144.8380 C   0  0  0  0  0  2  0  0  0  0  0  0
  186.6930  178.2760  144.6640 O   0  0  0  0  0  0  0  0  0  0  0  0
  186.8200  176.9820  146.9050 C   0  0  0  0  0  2  0  0  0  0  0  0
  1  9  1  0  0  0  0
  1  8  1  0  0  0  0
  1 22  1  1  0  0  0
  2  6  2  0  0  0  0
  3  5  2  0  0  0  0
  3  7  1  0  0  0  0
  4  5  1  0  0  0  0
  6  9  2  0  0  0  0
  8  4  2  0  0  0  0
  9  3  1  0  0  0  0
 11 13  1  0  0  0  0
 12 13  1  0  0  0  0
 12  2  1  1  0  0  0
 13 18  1  1  0  0  0
 14 11  1  0  0  0  0
 15 10  1  6  0  0  0
 15 12  1  0  0  0  0
 15 13  1  0  0  0  0
 16 14  1  0  0  0  0
 17 10  1  0  0  0  0
 17 14  2  0  0  0  0
 18 19  3  0  0  0  0
 20 22  2  0  0  0  0
 20 23  1  0  0  0  0
 22 21  1  0  0  0  0
 23 24  1  0  0  0  0
 24 25  1  0  0  0  0
 25 26  1  0  0  0  0
 25 27  1  1  0  0  0
 28 25  1  0  0  0  0
 29 30  1  0  0  0  0
 30 34  1  0  0  0  0
 31 28  1  0  0  0  0
 31 34  1  0  0  0  0
 32 31  1  0  0  0  0
 33 29  1  0  0  0  0
 33 32  1  0  0  0  0
M  END
>  <MODEL>
8

>  <REMARK>
 VINA RESULT:      -6.3      2.337      7.436
  Name = 
  8 active torsions:
  status: ('A' for Active; 'I' for Inactive)
    1  A    between atoms: C_2  and  C_29
    2  A    between atoms: C_5  and  C_12
    3  A    between atoms: C_5  and  C_27
    4  A    between atoms: C_6  and  C_10
    5  A    between atoms: C_12  and  C_15
    6  A    between atoms: C_13  and  C_19
    7  A    between atoms: C_14  and  C_15
    8  A    between atoms: N_18  and  C_27
                            x       y       z     vdW  Elec       q    Type
                         _______ _______ _______ _____ _____    ______ ____

>  <TORSDO>
F 8

$$$$
=
 OpenBabel11062423123D

 34 37  0  0  1  0  0  0  0  0999 V2000
  192.6900  175.7070  144.5630 C   0  0  1  0  0  3  0  0  0  0  0  0
  192.7240  172.3590  143.2300 C   0  0  0  0  0  3  0  0  0  0  0  0
  194.6970  174.3670  145.4810 C   0  0  0  0  0  0  0  0  0  0  0  0
  194.5680  176.7420  145.8290 C   0  0  0  0  0  3  0  0  0  0  0  0
  195.1680  175.4520  146.0190 N   0  0  0  0  0  0  0  0  0  0  0  0
  193.1070  173.3890  143.9330 C   0  0  0  0  0  0  0  0  0  0  0  0
  195.3660  173.1300  145.7050 N   0  0  0  0  0  1  0  0  0  0  0  0
  193.4310  176.8860  145.1410 C   0  0  0  0  0  3  0  0  0  0  0  0
  193.4890  174.4270  144.6310 C   0  0  0  0  0  0  0  0  0  0  0  0
  191.3250  171.1300  139.9730 C   0  0  0  0  0  2  0  0  0  0  0  0
  189.7970  173.3070  140.8950 C   0  0  0  0  0  2  0  0  0  0  0  0
  192.0570  172.5360  141.8990 C   0  0  2  0  0  3  0  0  0  0  0  0
  190.5320  172.4950  141.9670 C   0  0  2  0  0  0  0  0  0  0  0  0
  189.2900  172.4050  139.8110 C   0  0  0  0  0  0  0  0  0  0  0  0
  191.3080  171.2620  141.4990 C   0  0  1  0  0  3  0  0  0  0  0  0
  188.0250  172.6600  139.2140 N   0  0  0  0  0  1  0  0  0  0  0  0
  190.0030  171.3970  139.4120 N   0  0  0  0  0  0  0  0  0  0  0  0
  189.8630  172.3110  143.2660 C   0  0  0  0  0  0  0  0  0  0  0  0
  189.3390  172.1650  144.2870 N   0  0  0  0  0  0  0  0  0  0  0  0
  190.2470  176.0620  144.6190 C   0  0  0  0  0  3  0  0  0  0  0  0
  191.2440  174.8940  146.4200 O   0  0  0  0  0  1  0  0  0  0  0  0
  191.3380  175.5600  145.2030 C   0  0  0  0  0  0  0  0  0  0  0  0
  188.8820  175.9400  145.2130 C   0  0  0  0  0  2  0  0  0  0  0  0
  188.5300  177.2000  145.9980 C   0  0  0  0  0  2  0  0  0  0  0  0
  187.0260  177.4870  146.0650 C   0  0  1  0  0  0  0  0  0  0  0  0
  186.3560  176.3000  145.7780 O   0  0  0  0  0  1  0  0  0  0  0  0
  186.6110  177.9280  147.4630 C   0  0  0  0  0  1  0  0  0  0  0  0
  186.6030  178.5250  145.0190 C   0  0  0  0  0  2  0  0  0  0  0  0
  185.0730  177.8800  141.3240 C   0  0  0  0  0  2  0  0  0  0  0  0
  184.0130  178.2030  142.3750 C   0  0  0  0  0  2  0  0  0  0  0  0
  185.9370  177.9170  143.8750 N   0  0  0  0  0  0  0  0  0  0  0  0
  186.8500  178.0520  142.7210 C   0  0  0  0  0  2  0  0  0  0  0  0
  186.2370  178.6220  141.5800 O   0  0  0  0  0  0  0  0  0  0  0  0
  184.6950  178.6640  143.6620 C   0  0  0  0  0  2  0  0  0  0  0  0
  1  9  1  0  0  0  0
  1  8  1  0  0  0  0
  1 22  1  1  0  0  0
  2  6  2  0  0  0  0
  3  7  1  0  0  0  0
  3  5  2  0  0  0  0
  4  5  1  0  0  0  0
  6  9  2  0  0  0  0
  8  4  2  0  0  0  0
  9  3  1  0  0  0  0
 11 13  1  0  0  0  0
 12 13  1  0  0  0  0
 12  2  1  1  0  0  0
 13 18  1  1  0  0  0
 14 11  1  0  0  0  0
 15 10  1  6  0  0  0
 15 12  1  0  0  0  0
 15 13  1  0  0  0  0
 16 14  1  0  0  0  0
 17 14  2  0  0  0  0
 17 10  1  0  0  0  0
 18 19  3  0  0  0  0
 20 22  2  0  0  0  0
 20 23  1  0  0  0  0
 22 21  1  0  0  0  0
 23 24  1  0  0  0  0
 24 25  1  0  0  0  0
 25 27  1  1  0  0  0
 26 25  1  0  0  0  0
 28 25  1  0  0  0  0
 29 33  1  0  0  0  0
 29 30  1  0  0  0  0
 30 34  1  0  0  0  0
 31 28  1  0  0  0  0
 32 31  1  0  0  0  0
 33 32  1  0  0  0  0
 34 31  1  0  0  0  0
M  END
>  <MODEL>
9

>  <REMARK>
 VINA RESULT:      -6.3      2.148      6.948
  Name = 
  8 active torsions:
  status: ('A' for Active; 'I' for Inactive)
    1  A    between atoms: C_2  and  C_29
    2  A    between atoms: C_5  and  C_12
    3  A    between atoms: C_5  and  C_27
    4  A    between atoms: C_6  and  C_10
    5  A    between atoms: C_12  and  C_15
    6  A    between atoms: C_13  and  C_19
    7  A    between atoms: C_14  and  C_15
    8  A    between atoms: N_18  and  C_27
                            x       y       z     vdW  Elec       q    Type
                         _______ _______ _______ _____ _____    ______ ____

>  <TORSDO>
F 8

$$$$
