=
 OpenBabel11062419583D

 28 31  0  0  1  0  0  0  0  0999 V2000
  188.4190  175.9890  147.1220 C   0  0  0  0  0  2  0  0  0  0  0  0
  184.9540  178.9620  146.5760 C   0  0  0  0  0  2  0  0  0  0  0  0
  189.4050  175.5180  144.7100 C   0  0  2  0  0  3  0  0  0  0  0  0
  187.0610  177.9760  147.1290 N   0  0  0  0  0  0  0  0  0  0  0  0
  189.5130  173.8770  146.5760 C   0  0  0  0  0  1  0  0  0  0  0  0
  186.2080  178.2380  146.1840 C   0  0  0  0  0  0  0  0  0  0  0  0
  187.1810  176.6440  144.4610 C   0  0  0  0  0  2  0  0  0  0  0  0
  186.7730  177.7000  141.7370 C   0  0  0  0  0  2  0  0  0  0  0  0
  188.2790  177.3810  146.8920 O   0  0  0  0  0  0  0  0  0  0  0  0
  184.2280  179.0580  144.3460 C   0  0  0  0  0  2  0  0  0  0  0  0
  191.6330  175.7860  145.3610 C   0  0  0  0  0  0  0  0  0  0  0  0
  192.8840  175.8880  145.2610 O   0  0  0  0  0  0  0  0  0  0  0  0
  186.5170  177.9990  144.7070 C   0  0  1  0  0  3  0  0  0  0  0  0
  185.6300  178.5120  142.3360 C   0  0  2  0  0  3  0  0  0  0  0  0
  190.7900  175.4930  144.2630 N   0  0  0  0  0  0  0  0  0  0  0  0
  191.2270  174.6530  143.1580 C   0  0  0  0  0  1  0  0  0  0  0  0
  188.6880  176.8140  144.2300 C   0  0  2  0  0  3  0  0  0  0  0  0
  190.8970  175.9170  146.6360 C   0  0  0  0  0  2  0  0  0  0  0  0
  183.8520  178.6260  145.6830 N   0  0  0  0  0  2  0  0  0  0  0  0
  188.0980  178.2860  142.1890 C   0  0  0  0  0  2  0  0  0  0  0  0
  190.4180  177.8000  142.6830 C   0  0  0  0  0  1  0  0  0  0  0  0
  189.0190  177.2130  142.7620 C   0  0  1  0  0  3  0  0  0  0  0  0
  189.5200  175.3650  146.2620 C   0  0  2  0  0  0  0  0  0  0  0  0
  185.2780  178.1010  143.7830 C   0  0  2  0  0  3  0  0  0  0  0  0
  184.5120  178.7630  140.2320 O   0  0  0  0  0  0  0  0  0  0  0  0
  184.4360  178.4030  141.4400 C   0  0  0  0  0  0  0  0  0  0  0  0
  181.9830  178.2310  141.3890 C   0  0  0  0  0  1  0  0  0  0  0  0
  183.2400  177.9060  141.9600 O   0  0  0  0  0  0  0  0  0  0  0  0
  3 15  1  6  0  0  0
  3 23  1  0  0  0  0
  6  2  1  0  0  0  0
  6  4  2  0  0  0  0
  8 20  1  0  0  0  0
  8 14  1  0  0  0  0
  9  1  1  0  0  0  0
  9  4  1  0  0  0  0
 10 19  1  0  0  0  0
 11 18  1  0  0  0  0
 12 11  2  0  0  0  0
 13  7  1  1  0  0  0
 13  6  1  0  0  0  0
 14 26  1  6  0  0  0
 14 24  1  0  0  0  0
 15 11  1  0  0  0  0
 16 15  1  0  0  0  0
 17  7  1  6  0  0  0
 17  3  1  0  0  0  0
 19  2  1  0  0  0  0
 20 22  1  0  0  0  0
 22 21  1  1  0  0  0
 22 17  1  0  0  0  0
 23  5  1  1  0  0  0
 23 18  1  0  0  0  0
 23  1  1  0  0  0  0
 24 10  1  1  0  0  0
 24 13  1  0  0  0  0
 25 26  2  0  0  0  0
 26 28  1  0  0  0  0
 27 28  1  0  0  0  0
M  END
>  <MODEL>
1

>  <REMARK>
 VINA RESULT:      -8.7      0.000      0.000
  Name = 
  2 active torsions:
  status: ('A' for Active; 'I' for Inactive)
    1  A    between atoms: O_9  and  C_18
    2  A    between atoms: C_17  and  C_18
                            x       y       z     vdW  Elec       q    Type
                         _______ _______ _______ _____ _____    ______ ____

>  <TORSDO>
F 2

$$$$
=
 OpenBabel11062419583D

 28 31  0  0  1  0  0  0  0  0999 V2000
  191.3820  175.7810  142.3610 C   0  0  0  0  0  2  0  0  0  0  0  0
  187.1110  176.4370  140.7880 C   0  0  0  0  0  2  0  0  0  0  0  0
  191.3400  176.3670  144.9440 C   0  0  2  0  0  3  0  0  0  0  0  0
  189.1550  175.4330  141.5170 N   0  0  0  0  0  0  0  0  0  0  0  0
  193.3670  176.5970  143.5220 C   0  0  0  0  0  1  0  0  0  0  0  0
  188.1620  176.2090  141.8330 C   0  0  0  0  0  0  0  0  0  0  0  0
  189.2420  177.2420  143.8890 C   0  0  0  0  0  2  0  0  0  0  0  0
  187.1910  177.9170  145.8990 C   0  0  0  0  0  2  0  0  0  0  0  0
  190.1470  175.0870  142.4060 O   0  0  0  0  0  0  0  0  0  0  0  0
  185.8280  177.7380  142.2600 C   0  0  0  0  0  2  0  0  0  0  0  0
  192.5120  174.4520  145.5900 C   0  0  0  0  0  0  0  0  0  0  0  0
  193.0320  173.5900  146.3470 O   0  0  0  0  0  0  0  0  0  0  0  0
  187.9480  176.7340  143.2530 C   0  0  1  0  0  3  0  0  0  0  0  0
  186.2070  177.9340  144.7340 C   0  0  2  0  0  3  0  0  0  0  0  0
  191.8950  175.6320  146.0700 N   0  0  0  0  0  0  0  0  0  0  0  0
  192.3520  176.3030  147.2770 C   0  0  0  0  0  1  0  0  0  0  0  0
  189.7910  176.2170  144.8900 C   0  0  2  0  0  3  0  0  0  0  0  0
  192.5160  174.3610  144.1160 C   0  0  0  0  0  2  0  0  0  0  0  0
  186.4750  177.7370  140.9580 N   0  0  0  0  0  2  0  0  0  0  0  0
  187.5830  176.4850  146.2060 C   0  0  0  0  0  2  0  0  0  0  0  0
  189.3250  175.0450  147.0740 C   0  0  0  0  0  1  0  0  0  0  0  0
  189.0980  176.3200  146.2810 C   0  0  1  0  0  3  0  0  0  0  0  0
  192.1020  175.7770  143.7110 C   0  0  2  0  0  0  0  0  0  0  0  0
  186.8910  177.8610  143.3510 C   0  0  2  0  0  3  0  0  0  0  0  0
  185.7160  180.2430  144.3250 O   0  0  0  0  0  0  0  0  0  0  0  0
  185.3450  179.1540  144.8440 C   0  0  0  0  0  0  0  0  0  0  0  0
  183.9590  178.1960  146.6370 C   0  0  0  0  0  1  0  0  0  0  0  0
  184.1340  179.0690  145.5310 O   0  0  0  0  0  0  0  0  0  0  0  0
  1  9  1  0  0  0  0
  1 23  1  0  0  0  0
  2 19  1  0  0  0  0
  2  6  1  0  0  0  0
  3 15  1  1  0  0  0
  4  6  2  0  0  0  0
  4  9  1  0  0  0  0
  6 13  1  0  0  0  0
  8 20  1  0  0  0  0
 11 15  1  0  0  0  0
 11 12  2  0  0  0  0
 13 24  1  0  0  0  0
 13  7  1  6  0  0  0
 14 26  1  6  0  0  0
 14  8  1  0  0  0  0
 15 16  1  0  0  0  0
 17  7  1  6  0  0  0
 17  3  1  0  0  0  0
 17 22  1  0  0  0  0
 18 11  1  0  0  0  0
 19 10  1  0  0  0  0
 20 22  1  0  0  0  0
 22 21  1  1  0  0  0
 23  5  1  6  0  0  0
 23 18  1  0  0  0  0
 23  3  1  0  0  0  0
 24 10  1  6  0  0  0
 24 14  1  0  0  0  0
 25 26  2  0  0  0  0
 26 28  1  0  0  0  0
 28 27  1  0  0  0  0
M  END
>  <MODEL>
2

>  <REMARK>
 VINA RESULT:      -7.9      2.494      4.176
  Name = 
  2 active torsions:
  status: ('A' for Active; 'I' for Inactive)
    1  A    between atoms: O_9  and  C_18
    2  A    between atoms: C_17  and  C_18
                            x       y       z     vdW  Elec       q    Type
                         _______ _______ _______ _____ _____    ______ ____

>  <TORSDO>
F 2

$$$$
=
 OpenBabel11062419583D

 28 31  0  0  1  0  0  0  0  0999 V2000
  189.6910  174.0390  146.1670 C   0  0  0  0  0  2  0  0  0  0  0  0
  186.2410  176.8410  147.3440 C   0  0  0  0  0  2  0  0  0  0  0  0
  190.4090  174.7070  143.7070 C   0  0  2  0  0  3  0  0  0  0  0  0
  188.3770  175.7780  147.1880 N   0  0  0  0  0  0  0  0  0  0  0  0
  190.6830  172.4170  144.6380 C   0  0  0  0  0  1  0  0  0  0  0  0
  187.4340  176.4030  146.5480 C   0  0  0  0  0  0  0  0  0  0  0  0
  188.1910  175.7590  144.2090 C   0  0  0  0  0  2  0  0  0  0  0  0
  187.5180  177.8940  142.2860 C   0  0  0  0  0  2  0  0  0  0  0  0
  189.5520  175.3850  146.5900 O   0  0  0  0  0  0  0  0  0  0  0  0
  185.2860  177.8860  145.4720 C   0  0  0  0  0  2  0  0  0  0  0  0
  192.6980  174.7290  144.1780 C   0  0  0  0  0  0  0  0  0  0  0  0
  193.9330  174.9030  144.0060 O   0  0  0  0  0  0  0  0  0  0  0  0
  187.5810  176.8470  145.0930 C   0  0  1  0  0  3  0  0  0  0  0  0
  186.4590  178.3230  143.2960 C   0  0  2  0  0  3  0  0  0  0  0  0
  191.7380  174.9240  143.1560 N   0  0  0  0  0  0  0  0  0  0  0  0
  192.0420  174.6690  141.7560 C   0  0  0  0  0  1  0  0  0  0  0  0
  189.6680  176.0590  143.9240 C   0  0  2  0  0  3  0  0  0  0  0  0
  192.1030  174.2640  145.4480 C   0  0  0  0  0  2  0  0  0  0  0  0
  185.0460  176.8990  146.5120 N   0  0  0  0  0  2  0  0  0  0  0  0
  188.8930  178.2600  142.8120 C   0  0  0  0  0  2  0  0  0  0  0  0
  191.2430  177.6780  142.8020 C   0  0  0  0  0  1  0  0  0  0  0  0
  189.8510  177.0740  142.7560 C   0  0  1  0  0  3  0  0  0  0  0  0
  190.6840  173.8900  145.0130 C   0  0  2  0  0  0  0  0  0  0  0  0
  186.2540  177.3070  144.4410 C   0  0  2  0  0  3  0  0  0  0  0  0
  184.1760  179.0400  143.1930 O   0  0  0  0  0  0  0  0  0  0  0  0
  185.1750  178.5840  142.5710 C   0  0  0  0  0  0  0  0  0  0  0  0
  183.8610  178.2900  140.5130 C   0  0  0  0  0  1  0  0  0  0  0  0
  185.0990  178.3100  141.2050 O   0  0  0  0  0  0  0  0  0  0  0  0
  1  9  1  0  0  0  0
  3 15  1  1  0  0  0
  3 17  1  0  0  0  0
  3 23  1  0  0  0  0
  6  4  2  0  0  0  0
  6  2  1  0  0  0  0
  8 20  1  0  0  0  0
  8 14  1  0  0  0  0
  9  4  1  0  0  0  0
 10 19  1  0  0  0  0
 11 18  1  0  0  0  0
 12 11  2  0  0  0  0
 13  7  1  6  0  0  0
 13  6  1  0  0  0  0
 14 26  1  6  0  0  0
 14 24  1  0  0  0  0
 15 11  1  0  0  0  0
 16 15  1  0  0  0  0
 17  7  1  6  0  0  0
 19  2  1  0  0  0  0
 22 21  1  1  0  0  0
 22 20  1  0  0  0  0
 22 17  1  0  0  0  0
 23  5  1  6  0  0  0
 23 18  1  0  0  0  0
 23  1  1  0  0  0  0
 24 13  1  0  0  0  0
 24 10  1  1  0  0  0
 26 25  2  0  0  0  0
 27 28  1  0  0  0  0
 28 26  1  0  0  0  0
M  END
>  <MODEL>
3

>  <REMARK>
 VINA RESULT:      -7.8      1.525      1.933
  Name = 
  2 active torsions:
  status: ('A' for Active; 'I' for Inactive)
    1  A    between atoms: O_9  and  C_18
    2  A    between atoms: C_17  and  C_18
                            x       y       z     vdW  Elec       q    Type
                         _______ _______ _______ _____ _____    ______ ____

>  <TORSDO>
F 2

$$$$
=
 OpenBabel11062419583D

 28 31  0  0  1  0  0  0  0  0999 V2000
  192.0770  175.0880  142.3080 C   0  0  0  0  0  2  0  0  0  0  0  0
  187.4960  174.7890  142.0470 C   0  0  0  0  0  2  0  0  0  0  0  0
  192.6330  176.2690  144.6120 C   0  0  2  0  0  3  0  0  0  0  0  0
  189.8160  174.2620  142.2820 N   0  0  0  0  0  0  0  0  0  0  0  0
  194.1060  176.4090  142.6130 C   0  0  0  0  0  1  0  0  0  0  0  0
  188.8170  174.9570  142.7370 C   0  0  0  0  0  0  0  0  0  0  0  0
  190.1980  176.5860  144.1160 C   0  0  0  0  0  2  0  0  0  0  0  0
  188.6870  177.4560  146.4960 C   0  0  0  0  0  2  0  0  0  0  0  0
  191.0620  174.2720  142.8670 O   0  0  0  0  0  0  0  0  0  0  0  0
  186.4380  176.2300  143.5680 C   0  0  0  0  0  2  0  0  0  0  0  0
  194.2880  174.7340  145.2160 C   0  0  0  0  0  0  0  0  0  0  0  0
  195.1540  174.1550  145.9230 O   0  0  0  0  0  0  0  0  0  0  0  0
  188.9040  175.7770  144.0240 C   0  0  1  0  0  3  0  0  0  0  0  0
  187.4370  177.0640  145.7160 C   0  0  2  0  0  3  0  0  0  0  0  0
  193.6090  175.9050  145.6290 N   0  0  0  0  0  0  0  0  0  0  0  0
  194.2400  176.9010  146.4810 C   0  0  0  0  0  1  0  0  0  0  0  0
  191.1890  175.9120  145.0730 C   0  0  2  0  0  3  0  0  0  0  0  0
  193.9050  174.2910  143.8600 C   0  0  0  0  0  2  0  0  0  0  0  0
  186.6900  175.9980  142.1550 N   0  0  0  0  0  2  0  0  0  0  0  0
  189.4200  176.2020  146.9350 C   0  0  0  0  0  2  0  0  0  0  0  0
  191.5800  175.2510  147.4760 C   0  0  0  0  0  1  0  0  0  0  0  0
  190.8990  176.2570  146.5640 C   0  0  1  0  0  3  0  0  0  0  0  0
  193.1270  175.5020  143.3410 C   0  0  2  0  0  0  0  0  0  0  0  0
  187.7150  176.7480  144.2290 C   0  0  2  0  0  3  0  0  0  0  0  0
  185.5960  178.1360  146.8110 O   0  0  0  0  0  0  0  0  0  0  0  0
  186.4180  178.1530  145.8530 C   0  0  0  0  0  0  0  0  0  0  0  0
  185.1690  179.6660  144.3700 C   0  0  0  0  0  1  0  0  0  0  0  0
  186.3890  179.1770  144.9070 O   0  0  0  0  0  0  0  0  0  0  0  0
  1  9  1  0  0  0  0
  1 23  1  0  0  0  0
  2 19  1  0  0  0  0
  2  6  1  0  0  0  0
  3 17  1  0  0  0  0
  3 15  1  1  0  0  0
  4  6  2  0  0  0  0
  4  9  1  0  0  0  0
  6 13  1  0  0  0  0
  8 20  1  0  0  0  0
 11 15  1  0  0  0  0
 11 12  2  0  0  0  0
 13  7  1  6  0  0  0
 13 24  1  0  0  0  0
 14 26  1  6  0  0  0
 14  8  1  0  0  0  0
 15 16  1  0  0  0  0
 17  7  1  6  0  0  0
 17 22  1  0  0  0  0
 18 11  1  0  0  0  0
 19 10  1  0  0  0  0
 22 20  1  0  0  0  0
 22 21  1  1  0  0  0
 23  5  1  6  0  0  0
 23 18  1  0  0  0  0
 23  3  1  0  0  0  0
 24 10  1  1  0  0  0
 24 14  1  0  0  0  0
 26 25  2  0  0  0  0
 27 28  1  0  0  0  0
 28 26  1  0  0  0  0
M  END
>  <MODEL>
4

>  <REMARK>
 VINA RESULT:      -7.8      2.689      4.799
  Name = 
  2 active torsions:
  status: ('A' for Active; 'I' for Inactive)
    1  A    between atoms: O_9  and  C_18
    2  A    between atoms: C_17  and  C_18
                            x       y       z     vdW  Elec       q    Type
                         _______ _______ _______ _____ _____    ______ ____

>  <TORSDO>
F 2

$$$$
=
 OpenBabel11062419583D

 28 31  0  0  1  0  0  0  0  0999 V2000
  193.2610  174.8080  142.0430 C   0  0  0  0  0  2  0  0  0  0  0  0
  188.8290  173.9310  141.1900 C   0  0  0  0  0  2  0  0  0  0  0  0
  193.3360  176.2870  144.2380 C   0  0  2  0  0  3  0  0  0  0  0  0
  191.1290  173.7160  141.8070 N   0  0  0  0  0  0  0  0  0  0  0  0
  195.0720  176.3890  142.4600 C   0  0  0  0  0  1  0  0  0  0  0  0
  190.0050  174.3300  142.0300 C   0  0  0  0  0  0  0  0  0  0  0  0
  190.9840  176.2520  143.3740 C   0  0  0  0  0  2  0  0  0  0  0  0
  189.0480  177.1830  145.3970 C   0  0  0  0  0  2  0  0  0  0  0  0
  192.2640  173.9390  142.5520 O   0  0  0  0  0  0  0  0  0  0  0  0
  187.4090  175.3870  142.3600 C   0  0  0  0  0  2  0  0  0  0  0  0
  195.0310  175.0370  145.2500 C   0  0  0  0  0  0  0  0  0  0  0  0
  195.8350  174.6460  146.1360 O   0  0  0  0  0  0  0  0  0  0  0  0
  189.8100  175.2870  143.2050 C   0  0  1  0  0  3  0  0  0  0  0  0
  187.9790  176.5620  144.5050 C   0  0  2  0  0  3  0  0  0  0  0  0
  194.1790  176.1550  145.4170 N   0  0  0  0  0  0  0  0  0  0  0  0
  194.5660  177.3050  146.2180 C   0  0  0  0  0  1  0  0  0  0  0  0
  191.8840  175.8100  144.5350 C   0  0  2  0  0  3  0  0  0  0  0  0
  194.9050  174.4080  143.9190 C   0  0  0  0  0  2  0  0  0  0  0  0
  187.8940  175.0380  141.0350 N   0  0  0  0  0  2  0  0  0  0  0  0
  189.8320  176.0810  146.0840 C   0  0  0  0  0  2  0  0  0  0  0  0
  191.9730  175.4620  147.0320 C   0  0  0  0  0  1  0  0  0  0  0  0
  191.3370  176.2750  145.9170 C   0  0  1  0  0  3  0  0  0  0  0  0
  194.0930  175.4540  143.1520 C   0  0  2  0  0  0  0  0  0  0  0  0
  188.5100  176.1240  143.1220 C   0  0  2  0  0  3  0  0  0  0  0  0
  187.0110  178.6220  143.7580 O   0  0  0  0  0  0  0  0  0  0  0  0
  186.8430  177.5270  144.3640 C   0  0  0  0  0  0  0  0  0  0  0  0
  185.4710  176.7790  146.2640 C   0  0  0  0  0  1  0  0  0  0  0  0
  185.6040  177.2020  144.9160 O   0  0  0  0  0  0  0  0  0  0  0  0
  1  9  1  0  0  0  0
  1 23  1  0  0  0  0
  2  6  1  0  0  0  0
  3 17  1  0  0  0  0
  3 15  1  1  0  0  0
  4  6  2  0  0  0  0
  4  9  1  0  0  0  0
  6 13  1  0  0  0  0
  8 20  1  0  0  0  0
 11 15  1  0  0  0  0
 11 12  2  0  0  0  0
 13  7  1  6  0  0  0
 14 26  1  6  0  0  0
 14  8  1  0  0  0  0
 15 16  1  0  0  0  0
 17  7  1  6  0  0  0
 17 22  1  0  0  0  0
 18 11  1  0  0  0  0
 19  2  1  0  0  0  0
 19 10  1  0  0  0  0
 22 20  1  0  0  0  0
 22 21  1  1  0  0  0
 23  5  1  6  0  0  0
 23 18  1  0  0  0  0
 23  3  1  0  0  0  0
 24 10  1  1  0  0  0
 24 13  1  0  0  0  0
 24 14  1  0  0  0  0
 25 26  2  0  0  0  0
 26 28  1  0  0  0  0
 28 27  1  0  0  0  0
M  END
>  <MODEL>
5

>  <REMARK>
 VINA RESULT:      -7.5      3.108      5.323
  Name = 
  2 active torsions:
  status: ('A' for Active; 'I' for Inactive)
    1  A    between atoms: O_9  and  C_18
    2  A    between atoms: C_17  and  C_18
                            x       y       z     vdW  Elec       q    Type
                         _______ _______ _______ _____ _____    ______ ____

>  <TORSDO>
F 2

$$$$
=
 OpenBabel11062419583D

 28 31  0  0  1  0  0  0  0  0999 V2000
  190.7120  176.8340  146.0360 C   0  0  0  0  0  2  0  0  0  0  0  0
  188.0710  177.9290  142.4350 C   0  0  0  0  0  2  0  0  0  0  0  0
  191.9730  174.5930  145.4020 C   0  0  2  0  0  3  0  0  0  0  0  0
  189.8080  177.9020  144.0780 N   0  0  0  0  0  0  0  0  0  0  0  0
  191.4260  175.2400  147.7400 C   0  0  0  0  0  1  0  0  0  0  0  0
  189.1980  177.2370  143.1420 C   0  0  0  0  0  0  0  0  0  0  0  0
  190.1010  174.9470  143.7750 C   0  0  0  0  0  2  0  0  0  0  0  0
  190.3850  173.2550  141.3760 C   0  0  0  0  0  2  0  0  0  0  0  0
  190.9000  177.4100  144.7550 O   0  0  0  0  0  0  0  0  0  0  0  0
  187.7670  176.1060  140.9880 C   0  0  0  0  0  2  0  0  0  0  0  0
  194.0660  175.3460  146.1180 C   0  0  0  0  0  0  0  0  0  0  0  0
  195.3100  175.3550  146.3130 O   0  0  0  0  0  0  0  0  0  0  0  0
  189.6970  175.8840  142.6360 C   0  0  1  0  0  3  0  0  0  0  0  0
  189.3470  174.1710  140.7360 C   0  0  2  0  0  3  0  0  0  0  0  0
  193.3790  174.2470  145.5510 N   0  0  0  0  0  0  0  0  0  0  0  0
  193.8150  172.8750  145.7610 C   0  0  0  0  0  1  0  0  0  0  0  0
  191.6280  174.8920  143.9140 C   0  0  2  0  0  3  0  0  0  0  0  0
  193.1690  176.4590  146.4910 C   0  0  0  0  0  2  0  0  0  0  0  0
  187.0920  176.9680  141.9440 N   0  0  0  0  0  2  0  0  0  0  0  0
  191.7050  173.9930  141.4920 C   0  0  0  0  0  2  0  0  0  0  0  0
  193.7590  174.2000  142.7560 C   0  0  0  0  0  1  0  0  0  0  0  0
  192.2770  173.9010  142.9030 C   0  0  1  0  0  3  0  0  0  0  0  0
  191.7900  175.8040  146.3760 C   0  0  2  0  0  0  0  0  0  0  0  0
  188.6800  175.1370  141.7390 C   0  0  2  0  0  3  0  0  0  0  0  0
  187.6000  172.5330  140.6910 O   0  0  0  0  0  0  0  0  0  0  0  0
  188.3250  173.3320  140.0350 C   0  0  0  0  0  0  0  0  0  0  0  0
  189.2840  173.7870  137.8170 C   0  0  0  0  0  1  0  0  0  0  0  0
  188.1890  173.4420  138.6510 O   0  0  0  0  0  0  0  0  0  0  0  0
  1 23  1  0  0  0  0
  2  6  1  0  0  0  0
  3 15  1  6  0  0  0
  3 23  1  0  0  0  0
  4  9  1  0  0  0  0
  6  4  2  0  0  0  0
  8 20  1  0  0  0  0
  9  1  1  0  0  0  0
 10 19  1  0  0  0  0
 11 12  2  0  0  0  0
 11 18  1  0  0  0  0
 13  6  1  0  0  0  0
 13  7  1  1  0  0  0
 14 26  1  1  0  0  0
 14  8  1  0  0  0  0
 14 24  1  0  0  0  0
 15 16  1  0  0  0  0
 15 11  1  0  0  0  0
 17  7  1  1  0  0  0
 17  3  1  0  0  0  0
 19  2  1  0  0  0  0
 20 22  1  0  0  0  0
 22 21  1  6  0  0  0
 22 17  1  0  0  0  0
 23 18  1  0  0  0  0
 23  5  1  1  0  0  0
 24 10  1  6  0  0  0
 24 13  1  0  0  0  0
 26 25  2  0  0  0  0
 27 28  1  0  0  0  0
 28 26  1  0  0  0  0
M  END
>  <MODEL>
6

>  <REMARK>
 VINA RESULT:      -7.3      3.477      4.835
  Name = 
  2 active torsions:
  status: ('A' for Active; 'I' for Inactive)
    1  A    between atoms: O_9  and  C_18
    2  A    between atoms: C_17  and  C_18
                            x       y       z     vdW  Elec       q    Type
                         _______ _______ _______ _____ _____    ______ ____

>  <TORSDO>
F 2

$$$$
=
 OpenBabel11062419583D

 28 31  0  0  1  0  0  0  0  0999 V2000
  186.6560  177.7680  146.3230 C   0  0  0  0  0  2  0  0  0  0  0  0
  189.9910  175.0130  147.8820 C   0  0  0  0  0  2  0  0  0  0  0  0
  187.1070  178.1210  143.7370 C   0  0  2  0  0  3  0  0  0  0  0  0
  187.8790  175.8730  147.1640 N   0  0  0  0  0  0  0  0  0  0  0  0
  185.9410  179.7920  145.1630 C   0  0  0  0  0  1  0  0  0  0  0  0
  189.1170  175.6450  146.8400 C   0  0  0  0  0  0  0  0  0  0  0  0
  189.1600  177.1360  144.7820 C   0  0  0  0  0  2  0  0  0  0  0  0
  191.0160  176.0470  142.7630 C   0  0  0  0  0  2  0  0  0  0  0  0
  186.9570  176.3840  146.2790 O   0  0  0  0  0  0  0  0  0  0  0  0
  191.8080  174.9150  146.3990 C   0  0  0  0  0  2  0  0  0  0  0  0
  184.8930  177.7250  143.1040 C   0  0  0  0  0  0  0  0  0  0  0  0
  183.8990  177.5410  142.3530 O   0  0  0  0  0  0  0  0  0  0  0  0
  189.6430  175.8320  145.4170 C   0  0  1  0  0  3  0  0  0  0  0  0
  191.6880  175.3240  143.9250 C   0  0  2  0  0  3  0  0  0  0  0  0
  186.1820  178.0470  142.6160 N   0  0  0  0  0  0  0  0  0  0  0  0
  186.3740  178.8320  141.4070 C   0  0  0  0  0  1  0  0  0  0  0  0
  188.0240  176.8640  143.7880 C   0  0  2  0  0  3  0  0  0  0  0  0
  184.8300  177.6700  144.5790 C   0  0  0  0  0  2  0  0  0  0  0  0
  191.3850  175.4000  147.7030 N   0  0  0  0  0  2  0  0  0  0  0  0
  189.6830  175.3880  142.4640 C   0  0  0  0  0  2  0  0  0  0  0  0
  187.4440  175.7340  141.6090 C   0  0  0  0  0  1  0  0  0  0  0  0
  188.5530  176.4120  142.3950 C   0  0  1  0  0  3  0  0  0  0  0  0
  186.1670  178.3010  144.9750 C   0  0  2  0  0  0  0  0  0  0  0  0
  191.1870  175.7890  145.3100 C   0  0  2  0  0  3  0  0  0  0  0  0
  193.8840  174.5430  143.3690 O   0  0  0  0  0  0  0  0  0  0  0  0
  193.1720  175.4900  143.8060 C   0  0  0  0  0  0  0  0  0  0  0  0
  194.8470  176.7520  145.0900 C   0  0  0  0  0  1  0  0  0  0  0  0
  193.7520  176.6990  144.1890 O   0  0  0  0  0  0  0  0  0  0  0  0
  3 15  1  6  0  0  0
  3 17  1  0  0  0  0
  3 23  1  0  0  0  0
  6  4  2  0  0  0  0
  6  2  1  0  0  0  0
  8 14  1  0  0  0  0
  9  1  1  0  0  0  0
  9  4  1  0  0  0  0
 10 19  1  0  0  0  0
 11 18  1  0  0  0  0
 12 11  2  0  0  0  0
 13  7  1  1  0  0  0
 13  6  1  0  0  0  0
 14 26  1  1  0  0  0
 14 24  1  0  0  0  0
 15 11  1  0  0  0  0
 16 15  1  0  0  0  0
 17  7  1  1  0  0  0
 18 23  1  0  0  0  0
 19  2  1  0  0  0  0
 20  8  1  0  0  0  0
 22 21  1  6  0  0  0
 22 20  1  0  0  0  0
 22 17  1  0  0  0  0
 23  5  1  1  0  0  0
 23  1  1  0  0  0  0
 24 13  1  0  0  0  0
 24 10  1  1  0  0  0
 25 26  2  0  0  0  0
 26 28  1  0  0  0  0
 28 27  1  0  0  0  0
M  END
>  <MODEL>
7

>  <REMARK>
 VINA RESULT:      -7.2      1.793      6.646
  Name = 
  2 active torsions:
  status: ('A' for Active; 'I' for Inactive)
    1  A    between atoms: O_9  and  C_18
    2  A    between atoms: C_17  and  C_18
                            x       y       z     vdW  Elec       q    Type
                         _______ _______ _______ _____ _____    ______ ____

>  <TORSDO>
F 2

$$$$
=
 OpenBabel11062419583D

 28 31  0  0  1  0  0  0  0  0999 V2000
  190.3430  175.5620  147.1400 C   0  0  0  0  0  2  0  0  0  0  0  0
  186.0890  177.2850  146.8660 C   0  0  0  0  0  2  0  0  0  0  0  0
  191.4850  175.9750  144.7870 C   0  0  2  0  0  3  0  0  0  0  0  0
  188.3920  176.9450  147.4110 N   0  0  0  0  0  0  0  0  0  0  0  0
  192.1000  174.0950  146.2940 C   0  0  0  0  0  1  0  0  0  0  0  0
  187.5220  177.1140  146.4600 C   0  0  0  0  0  0  0  0  0  0  0  0
  189.0170  176.3400  144.5560 C   0  0  0  0  0  2  0  0  0  0  0  0
  188.3380  177.7730  142.0680 C   0  0  0  0  0  2  0  0  0  0  0  0
  189.7450  176.8460  147.1780 O   0  0  0  0  0  0  0  0  0  0  0  0
  185.4240  177.6230  144.6410 C   0  0  0  0  0  2  0  0  0  0  0  0
  193.4750  176.8070  145.6870 C   0  0  0  0  0  0  0  0  0  0  0  0
  194.6190  177.3300  145.7280 O   0  0  0  0  0  0  0  0  0  0  0  0
  187.9280  177.3170  145.0010 C   0  0  1  0  0  3  0  0  0  0  0  0
  186.9740  178.0160  142.7050 C   0  0  2  0  0  3  0  0  0  0  0  0
  192.8060  176.5020  144.4770 N   0  0  0  0  0  0  0  0  0  0  0  0
  193.5270  176.1130  143.2750 C   0  0  0  0  0  1  0  0  0  0  0  0
  190.3820  177.0380  144.5070 C   0  0  2  0  0  3  0  0  0  0  0  0
  192.7100  176.4090  146.8860 C   0  0  0  0  0  2  0  0  0  0  0  0
  185.1870  176.8110  145.8240 N   0  0  0  0  0  2  0  0  0  0  0  0
  189.3750  178.6450  142.7510 C   0  0  0  0  0  2  0  0  0  0  0  0
  191.7100  178.8480  143.3570 C   0  0  0  0  0  1  0  0  0  0  0  0
  190.5920  177.8340  143.1850 C   0  0  1  0  0  3  0  0  0  0  0  0
  191.6090  175.5340  146.2830 C   0  0  2  0  0  0  0  0  0  0  0  0
  186.7490  177.2080  144.0020 C   0  0  2  0  0  3  0  0  0  0  0  0
  186.1850  177.0730  140.6490 O   0  0  0  0  0  0  0  0  0  0  0  0
  185.9080  177.7220  141.6960 C   0  0  0  0  0  0  0  0  0  0  0  0
  183.6600  178.2990  140.8800 C   0  0  0  0  0  1  0  0  0  0  0  0
  184.6100  178.1790  141.9270 O   0  0  0  0  0  0  0  0  0  0  0  0
  1  9  1  0  0  0  0
  3 15  1  1  0  0  0
  3 23  1  0  0  0  0
  6  2  1  0  0  0  0
  6  4  2  0  0  0  0
  8 14  1  0  0  0  0
  8 20  1  0  0  0  0
  9  4  1  0  0  0  0
 10 19  1  0  0  0  0
 11 12  2  0  0  0  0
 11 18  1  0  0  0  0
 13  7  1  6  0  0  0
 13  6  1  0  0  0  0
 14 26  1  6  0  0  0
 14 24  1  0  0  0  0
 15 11  1  0  0  0  0
 16 15  1  0  0  0  0
 17  7  1  6  0  0  0
 17  3  1  0  0  0  0
 19  2  1  0  0  0  0
 20 22  1  0  0  0  0
 22 21  1  1  0  0  0
 22 17  1  0  0  0  0
 23  5  1  1  0  0  0
 23 18  1  0  0  0  0
 23  1  1  0  0  0  0
 24 10  1  1  0  0  0
 24 13  1  0  0  0  0
 25 26  2  0  0  0  0
 26 28  1  0  0  0  0
 27 28  1  0  0  0  0
M  END
>  <MODEL>
8

>  <REMARK>
 VINA RESULT:      -7.2      1.568      1.943
  Name = 
  2 active torsions:
  status: ('A' for Active; 'I' for Inactive)
    1  A    between atoms: O_9  and  C_18
    2  A    between atoms: C_17  and  C_18
                            x       y       z     vdW  Elec       q    Type
                         _______ _______ _______ _____ _____    ______ ____

>  <TORSDO>
F 2

$$$$
=
 OpenBabel11062419583D

 28 31  0  0  1  0  0  0  0  0999 V2000
  186.6930  177.7000  147.8140 C   0  0  0  0  0  2  0  0  0  0  0  0
  189.9040  174.4610  147.2300 C   0  0  0  0  0  2  0  0  0  0  0  0
  186.4380  178.9470  145.4910 C   0  0  2  0  0  3  0  0  0  0  0  0
  187.8200  175.5900  147.5450 N   0  0  0  0  0  0  0  0  0  0  0  0
  185.9760  180.0290  147.6820 C   0  0  0  0  0  1  0  0  0  0  0  0
  188.8700  175.4540  146.7910 C   0  0  0  0  0  0  0  0  0  0  0  0
  188.5410  177.5840  145.4440 C   0  0  0  0  0  2  0  0  0  0  0  0
  189.5730  177.2370  142.7020 C   0  0  0  0  0  2  0  0  0  0  0  0
  186.7680  176.4150  147.2190 O   0  0  0  0  0  0  0  0  0  0  0  0
  191.1920  174.8440  145.3070 C   0  0  0  0  0  2  0  0  0  0  0  0
  184.1030  178.8780  145.4950 C   0  0  0  0  0  0  0  0  0  0  0  0
  182.9210  179.0090  145.0810 O   0  0  0  0  0  0  0  0  0  0  0  0
  188.9920  176.1240  145.4230 C   0  0  1  0  0  3  0  0  0  0  0  0
  190.4370  176.1220  143.2820 C   0  0  2  0  0  3  0  0  0  0  0  0
  185.2330  179.3120  144.7620 N   0  0  0  0  0  0  0  0  0  0  0  0
  185.1850  180.4730  143.8880 C   0  0  0  0  0  1  0  0  0  0  0  0
  187.1430  177.7270  144.8280 C   0  0  2  0  0  3  0  0  0  0  0  0
  184.4540  178.2970  146.8080 C   0  0  0  0  0  2  0  0  0  0  0  0
  191.2300  174.8400  146.7600 N   0  0  0  0  0  2  0  0  0  0  0  0
  188.1300  176.7730  142.6380 C   0  0  0  0  0  2  0  0  0  0  0  0
  185.8140  177.4770  142.6990 C   0  0  0  0  0  1  0  0  0  0  0  0
  187.1850  177.7900  143.2730 C   0  0  1  0  0  3  0  0  0  0  0  0
  185.9240  178.6990  146.9480 C   0  0  2  0  0  0  0  0  0  0  0  0
  190.4200  176.0720  144.8260 C   0  0  2  0  0  3  0  0  0  0  0  0
  192.5300  177.2710  143.0910 O   0  0  0  0  0  0  0  0  0  0  0  0
  191.8330  176.2700  142.7630 C   0  0  0  0  0  0  0  0  0  0  0  0
  191.6210  174.1160  141.5950 C   0  0  0  0  0  1  0  0  0  0  0  0
  192.3480  175.2930  141.9100 O   0  0  0  0  0  0  0  0  0  0  0  0
  3 15  1  6  0  0  0
  3 23  1  0  0  0  0
  6  2  1  0  0  0  0
  6  4  2  0  0  0  0
  8 14  1  0  0  0  0
  9  4  1  0  0  0  0
  9  1  1  0  0  0  0
 10 19  1  0  0  0  0
 11 18  1  0  0  0  0
 12 11  2  0  0  0  0
 13  7  1  1  0  0  0
 13  6  1  0  0  0  0
 14 26  1  1  0  0  0
 14 24  1  0  0  0  0
 15 11  1  0  0  0  0
 16 15  1  0  0  0  0
 17  7  1  1  0  0  0
 17  3  1  0  0  0  0
 18 23  1  0  0  0  0
 19  2  1  0  0  0  0
 20  8  1  0  0  0  0
 20 22  1  0  0  0  0
 22 21  1  6  0  0  0
 22 17  1  0  0  0  0
 23  5  1  1  0  0  0
 23  1  1  0  0  0  0
 24 10  1  6  0  0  0
 24 13  1  0  0  0  0
 26 25  2  0  0  0  0
 27 28  1  0  0  0  0
 28 26  1  0  0  0  0
M  END
>  <MODEL>
9

>  <REMARK>
 VINA RESULT:      -7.0      1.987      6.270
  Name = 
  2 active torsions:
  status: ('A' for Active; 'I' for Inactive)
    1  A    between atoms: O_9  and  C_18
    2  A    between atoms: C_17  and  C_18
                            x       y       z     vdW  Elec       q    Type
                         _______ _______ _______ _____ _____    ______ ____

>  <TORSDO>
F 2

$$$$
