=
 OpenBabel11072409013D

 47 51  0  0  1  0  0  0  0  0999 V2000
  190.2550  173.9510  143.3090 C   0  0  0  0  0  2  0  0  0  0  0  0
  189.9350  173.8790  144.8000 C   0  0  2  0  0  0  0  0  0  0  0  0
  196.5590  171.8900  143.3540 C   0  0  0  0  0  1  0  0  0  0  0  0
  189.0640  175.0110  145.2910 C   0  0  0  0  0  2  0  0  0  0  0  0
  195.3490  174.6400  143.5550 C   0  0  0  0  0  1  0  0  0  0  0  0
  191.3070  172.9270  142.9100 C   0  0  0  0  0  2  0  0  0  0  0  0
  192.6290  170.7270  144.1950 C   0  0  0  0  0  2  0  0  0  0  0  0
  195.1390  169.5110  144.7910 C   0  0  0  0  0  1  0  0  0  0  0  0
  193.8110  176.3370  145.1950 C   0  0  0  0  0  2  0  0  0  0  0  0
  190.5020  174.8800  145.8040 C   0  0  2  0  0  3  0  0  0  0  0  0
  191.4900  175.8810  145.1500 C   0  0  2  0  0  3  0  0  0  0  0  0
  191.7760  170.6780  142.9110 C   0  0  1  0  0  3  0  0  0  0  0  0
  192.6430  176.1120  146.0280 N   0  0  1  0  0  0  0  0  0  0  0  0
  194.8350  174.0670  144.8090 N   0  0  0  0  0  0  0  0  0  0  0  0
  193.8340  171.4050  143.9540 O   0  0  0  0  0  0  0  0  0  0  0  0
  196.0410  171.8350  144.7940 C   0  0  1  0  0  3  0  0  0  0  0  0
  190.7410  171.6380  142.9010 O   0  0  0  0  0  0  0  0  0  0  0  0
  189.5480  172.6510  145.3370 O   0  0  0  0  0  1  0  0  0  0  0  0
  194.5570  175.1420  145.7680 C   0  0  2  0  0  3  0  0  0  0  0  0
  195.8780  173.2190  145.4320 C   0  0  1  0  0  3  0  0  0  0  0  0
  193.2600  174.8780  146.4980 C   0  0  0  0  0  2  0  0  0  0  0  0
  194.7650  170.9910  144.9210 C   0  0  2  0  0  3  0  0  0  0  0  0
  197.2260  173.9170  145.6210 C   0  0  0  0  0  1  0  0  0  0  0  0
  192.5100  170.6010  141.5550 C   0  0  0  0  0  2  0  0  0  0  0  0
  191.6030  170.3200  140.3660 C   0  0  2  0  0  3  0  0  0  0  0  0
  192.3590  170.3600  139.1380 N   0  0  0  0  0  0  0  0  0  0  0  0
  191.5350  171.4000  139.5430 O   0  0  0  0  0  0  0  0  0  0  0  0
  191.6510  169.6240  138.2430 O   0  0  0  0  0  0  0  0  0  0  0  0
  192.1640  169.9940  136.9990 C   0  0  0  0  0  2  0  0  0  0  0  0
  191.2650  172.0310  136.1250 O   0  0  0  0  0  1  0  0  0  0  0  0
  189.8230  170.3370  136.6350 O   0  0  0  0  0  1  0  0  0  0  0  0
  191.0890  170.6460  136.1410 C   0  0  0  0  0  3  0  0  0  0  0  0
  190.8400  177.1690  144.9460 N   0  0  0  0  0  2  0  0  0  0  0  0
  191.1750  177.6710  143.6190 C   0  0  0  0  0  2  0  0  0  0  0  0
  189.6100  177.7860  142.5930 P   0  0  0  0  0  2  0  0  0  0  0  0
  188.5380  177.8990  143.9610 O   0  0  0  0  0  0  0  0  0  0  0  0
  187.2500  178.0840  143.4370 C   0  0  2  0  0  3  0  0  0  0  0  0
  184.3860  178.4690  146.6170 C   0  0  0  0  0  3  0  0  0  0  0  0
  184.0840  178.9690  145.3480 C   0  0  0  0  0  3  0  0  0  0  0  0
  186.5800  177.7970  145.8410 C   0  0  0  0  0  3  0  0  0  0  0  0
  185.6350  177.8970  146.8710 C   0  0  0  0  0  0  0  0  0  0  0  0
  185.0310  178.8760  144.3260 C   0  0  0  0  0  3  0  0  0  0  0  0
  186.2820  178.2910  144.5670 C   0  0  0  0  0  0  0  0  0  0  0  0
  185.9250  177.3680  148.1570 N   0  0  0  0  0  1  0  0  0  0  0  0
  186.7450  176.5640  142.4560 P   0  0  0  0  0  2  0  0  0  0  0  0
  186.4490  177.4650  140.8480 C   0  0  0  0  0  2  0  0  0  0  0  0
  185.0800  178.1190  140.8560 C   0  0  0  0  0  1  0  0  0  0  0  0
  1  2  1  0  0  0  0
  2  4  1  0  0  0  0
  2 18  1  1  0  0  0
  2 10  1  0  0  0  0
  5 14  1  0  0  0  0
  6  1  1  0  0  0  0
 10  4  1  6  0  0  0
 11 33  1  1  0  0  0
 11 10  1  0  0  0  0
 11 13  1  0  0  0  0
 12 24  1  6  0  0  0
 12  7  1  0  0  0  0
 13  9  1  6  0  0  0
 13 21  1  0  0  0  0
 14 20  1  0  0  0  0
 14 19  1  0  0  0  0
 15  7  1  0  0  0  0
 15 22  1  0  0  0  0
 16  3  1  6  0  0  0
 16 22  1  0  0  0  0
 16 20  1  0  0  0  0
 17  6  1  0  0  0  0
 17 12  1  0  0  0  0
 19  9  1  6  0  0  0
 19 21  1  0  0  0  0
 20 23  1  6  0  0  0
 22  8  1  6  0  0  0
 25 24  1  1  0  0  0
 26 27  1  0  0  0  0
 26 25  1  0  0  0  0
 27 25  1  0  0  0  0
 28 26  1  0  0  0  0
 29 28  1  0  0  0  0
 30 32  1  0  0  0  0
 32 31  1  0  0  0  0
 32 29  1  0  0  0  0
 34 33  1  0  0  0  0
 35 34  1  0  0  0  0
 35 36  1  0  0  0  0
 37 45  1  1  0  0  0
 37 36  1  0  0  0  0
 37 43  1  0  0  0  0
 38 41  1  0  0  0  0
 39 38  2  0  0  0  0
 40 41  2  0  0  0  0
 41 44  1  0  0  0  0
 42 43  2  0  0  0  0
 42 39  1  0  0  0  0
 43 40  1  0  0  0  0
 46 47  1  0  0  0  0
 46 45  1  0  0  0  0
M  END
>  <MODEL>
1

>  <REMARK>
 VINA RESULT:      -7.0      0.000      0.000
  Name = 
  13 active torsions:
  status: ('A' for Active; 'I' for Inactive)
    1  A    between atoms: C_2  and  C_5
    2  A    between atoms: C_2  and  C_28
    3  A    between atoms: C_12  and  O_36
    4  A    between atoms: C_12  and  C_37
    5  A    between atoms: C_14  and  P_26
    6  A    between atoms: N_15  and  O_36
    7  A    between atoms: C_16  and  N_20
    8  A    between atoms: C_16  and  P_22
    9  A    between atoms: N_20  and  C_25
   10  A    between atoms: P_22  and  O_41
   11  A    between atoms: P_26  and  C_39
   12  A    between atoms: C_39  and  C_40
   13  A    between atoms: C_39  and  O_41
                            x       y       z     vdW  Elec       q    Type
                         _______ _______ _______ _____ _____    ______ ____

>  <TORSDO>
F 13

$$$$
=
 OpenBabel11072409013D

 47 51  0  0  1  0  0  0  0  0999 V2000
  190.7240  173.6990  140.8510 C   0  0  0  0  0  2  0  0  0  0  0  0
  190.1140  172.7060  141.8360 C   0  0  2  0  0  0  0  0  0  0  0  0
  195.7070  176.0900  144.5180 C   0  0  0  0  0  1  0  0  0  0  0  0
  188.6050  172.6550  141.7920 C   0  0  0  0  0  2  0  0  0  0  0  0
  192.8590  177.0040  144.1690 C   0  0  0  0  0  1  0  0  0  0  0  0
  192.2170  173.8790  141.0860 C   0  0  0  0  0  2  0  0  0  0  0  0
  194.2080  172.6200  142.7260 C   0  0  0  0  0  2  0  0  0  0  0  0
  196.3060  173.0290  144.6130 C   0  0  0  0  0  1  0  0  0  0  0  0
  190.1720  176.3290  144.6820 C   0  0  0  0  0  2  0  0  0  0  0  0
  189.3120  173.1570  143.0550 C   0  0  2  0  0  3  0  0  0  0  0  0
  189.2870  174.7000  143.2120 C   0  0  2  0  0  3  0  0  0  0  0  0
  194.2100  172.7410  141.1880 C   0  0  1  0  0  3  0  0  0  0  0  0
  189.4400  175.0760  144.6220 N   0  0  1  0  0  0  0  0  0  0  0  0
  192.6100  175.7020  144.8100 N   0  0  0  0  0  0  0  0  0  0  0  0
  194.4130  173.8770  143.3140 O   0  0  0  0  0  0  0  0  0  0  0  0
  194.9930  175.0180  145.3450 C   0  0  1  0  0  3  0  0  0  0  0  0
  192.9120  172.7410  140.6340 O   0  0  0  0  0  0  0  0  0  0  0  0
  190.6780  171.4340  141.9320 O   0  0  0  0  0  1  0  0  0  0  0  0
  191.3100  175.7250  145.4900 C   0  0  2  0  0  3  0  0  0  0  0  0
  193.6230  175.4650  145.8650 C   0  0  1  0  0  3  0  0  0  0  0  0
  190.5720  174.4240  145.2680 C   0  0  0  0  0  2  0  0  0  0  0  0
  194.9160  173.6720  144.6100 C   0  0  2  0  0  3  0  0  0  0  0  0
  193.7470  176.6010  146.8830 C   0  0  0  0  0  1  0  0  0  0  0  0
  195.1150  173.8150  140.5470 C   0  0  0  0  0  2  0  0  0  0  0  0
  195.6450  173.4480  139.1690 C   0  0  2  0  0  3  0  0  0  0  0  0
  196.0670  174.6330  138.4620 N   0  0  0  0  0  0  0  0  0  0  0  0
  194.8690  173.9890  138.1920 O   0  0  0  0  0  0  0  0  0  0  0  0
  196.9590  174.2090  137.5300 O   0  0  0  0  0  0  0  0  0  0  0  0
  197.6500  175.3630  137.1540 C   0  0  0  0  0  2  0  0  0  0  0  0
  196.8350  176.9060  135.5200 O   0  0  0  0  0  1  0  0  0  0  0  0
  196.6570  174.6730  135.0890 O   0  0  0  0  0  1  0  0  0  0  0  0
  197.4450  175.6610  135.6760 C   0  0  0  0  0  3  0  0  0  0  0  0
  188.0070  175.2310  142.7610 N   0  0  0  0  0  2  0  0  0  0  0  0
  188.2210  176.0760  141.5930 C   0  0  0  0  0  2  0  0  0  0  0  0
  187.7320  177.8360  142.0110 P   0  0  0  0  0  2  0  0  0  0  0  0
  186.3380  177.3880  142.9550 O   0  0  0  0  0  0  0  0  0  0  0  0
  185.9480  178.5410  143.6510 C   0  0  2  0  0  3  0  0  0  0  0  0
  186.1920  177.7110  147.8600 C   0  0  0  0  0  3  0  0  0  0  0  0
  185.4150  178.7800  147.4080 C   0  0  0  0  0  3  0  0  0  0  0  0
  186.8770  177.2340  145.5860 C   0  0  0  0  0  3  0  0  0  0  0  0
  186.9340  176.9470  146.9550 C   0  0  0  0  0  0  0  0  0  0  0  0
  185.3670  179.0710  146.0430 C   0  0  0  0  0  3  0  0  0  0  0  0
  186.0970  178.3010  145.1260 C   0  0  0  0  0  0  0  0  0  0  0  0
  187.7020  175.8450  147.4200 N   0  0  0  0  0  1  0  0  0  0  0  0
  184.1520  178.9320  143.2630 P   0  0  0  0  0  2  0  0  0  0  0  0
  184.0200  177.7840  141.7970 C   0  0  0  0  0  2  0  0  0  0  0  0
  184.1050  178.5710  140.5030 C   0  0  0  0  0  1  0  0  0  0  0  0
  1  6  1  0  0  0  0
  1  2  1  0  0  0  0
  2 18  1  1  0  0  0
  2 10  1  0  0  0  0
  4  2  1  0  0  0  0
  5 14  1  0  0  0  0
  7 15  1  0  0  0  0
 10  4  1  6  0  0  0
 10 11  1  0  0  0  0
 11 33  1  1  0  0  0
 11 13  1  0  0  0  0
 12 24  1  1  0  0  0
 12  7  1  0  0  0  0
 13  9  1  6  0  0  0
 13 21  1  0  0  0  0
 14 19  1  0  0  0  0
 14 20  1  0  0  0  0
 15 22  1  0  0  0  0
 16  3  1  6  0  0  0
 16 20  1  0  0  0  0
 17  6  1  0  0  0  0
 17 12  1  0  0  0  0
 19  9  1  6  0  0  0
 20 23  1  6  0  0  0
 21 19  1  0  0  0  0
 22  8  1  6  0  0  0
 22 16  1  0  0  0  0
 25 24  1  1  0  0  0
 26 25  1  0  0  0  0
 27 26  1  0  0  0  0
 27 25  1  0  0  0  0
 28 26  1  0  0  0  0
 29 28  1  0  0  0  0
 30 32  1  0  0  0  0
 31 32  1  0  0  0  0
 32 29  1  0  0  0  0
 34 35  1  0  0  0  0
 34 33  1  0  0  0  0
 35 36  1  0  0  0  0
 37 36  1  6  0  0  0
 37 43  1  0  0  0  0
 39 38  1  0  0  0  0
 40 41  1  0  0  0  0
 41 44  1  0  0  0  0
 41 38  2  0  0  0  0
 42 39  2  0  0  0  0
 43 40  2  0  0  0  0
 43 42  1  0  0  0  0
 45 37  1  0  0  0  0
 46 45  1  0  0  0  0
 47 46  1  0  0  0  0
M  END
>  <MODEL>
2

>  <REMARK>
 VINA RESULT:      -6.9      3.117      3.993
  Name = 
  13 active torsions:
  status: ('A' for Active; 'I' for Inactive)
    1  A    between atoms: C_2  and  C_5
    2  A    between atoms: C_2  and  C_28
    3  A    between atoms: C_12  and  O_36
    4  A    between atoms: C_12  and  C_37
    5  A    between atoms: C_14  and  P_26
    6  A    between atoms: N_15  and  O_36
    7  A    between atoms: C_16  and  N_20
    8  A    between atoms: C_16  and  P_22
    9  A    between atoms: N_20  and  C_25
   10  A    between atoms: P_22  and  O_41
   11  A    between atoms: P_26  and  C_39
   12  A    between atoms: C_39  and  C_40
   13  A    between atoms: C_39  and  O_41
                            x       y       z     vdW  Elec       q    Type
                         _______ _______ _______ _____ _____    ______ ____

>  <TORSDO>
F 13

$$$$
=
 OpenBabel11072409013D

 47 52  0  0  1  0  0  0  0  0999 V2000
  189.9340  174.1570  142.6520 C   0  0  0  0  0  2  0  0  0  0  0  0
  190.3900  173.1480  143.7020 C   0  0  2  0  0  0  0  0  0  0  0  0
  195.5380  174.8600  139.1750 C   0  0  0  0  0  1  0  0  0  0  0  0
  189.8200  173.4010  145.0780 C   0  0  0  0  0  2  0  0  0  0  0  0
  194.4530  176.3590  141.5500 C   0  0  0  0  0  1  0  0  0  0  0  0
  190.7020  173.9970  141.3480 C   0  0  0  0  0  2  0  0  0  0  0  0
  192.5880  172.1110  140.2890 C   0  0  0  0  0  2  0  0  0  0  0  0
  195.1220  171.7710  139.0250 C   0  0  0  0  0  1  0  0  0  0  0  0
  193.8390  176.1460  144.2910 C   0  0  0  0  0  2  0  0  0  0  0  0
  191.3290  173.5310  144.8450 C   0  0  2  0  0  3  0  0  0  0  0  0
  191.8200  174.9990  144.7430 C   0  0  2  0  0  3  0  0  0  0  0  0
  191.2180  172.4910  139.6910 C   0  0  1  0  0  3  0  0  0  0  0  0
  193.2430  175.0900  145.0900 N   0  0  1  0  0  0  0  0  0  0  0  0
  194.6490  175.0410  142.1750 N   0  0  0  0  0  0  0  0  0  0  0  0
  193.4850  173.1830  140.1720 O   0  0  0  0  0  0  0  0  0  0  0  0
  195.7970  173.8220  140.2700 C   0  0  1  0  0  3  0  0  0  0  0  0
  190.2660  172.8400  140.6750 O   0  0  0  0  0  0  0  0  0  0  0  0
  190.3770  171.7930  143.3720 O   0  0  0  0  0  1  0  0  0  0  0  0
  194.8260  175.2010  143.6230 C   0  0  2  0  0  3  0  0  0  0  0  0
  195.9020  174.4330  141.6720 C   0  0  1  0  0  3  0  0  0  0  0  0
  194.0690  174.1280  144.3710 C   0  0  0  0  0  2  0  0  0  0  0  0
  194.7900  172.6650  140.2240 C   0  0  2  0  0  3  0  0  0  0  0  0
  197.1350  175.3310  141.8070 C   0  0  0  0  0  1  0  0  0  0  0  0
  191.1940  173.4620  138.4910 C   0  0  0  0  0  2  0  0  0  0  0  0
  190.0540  173.2220  137.5130 C   0  0  2  0  0  3  0  0  0  0  0  0
  189.7130  174.4460  136.8290 N   0  0  0  0  0  0  0  0  0  0  0  0
  188.9520  173.9340  137.8690 O   0  0  0  0  0  0  0  0  0  0  0  0
  189.1050  174.0680  135.6750 O   0  0  0  0  0  0  0  0  0  0  0  0
  189.0830  175.2250  134.8940 C   0  0  0  0  0  2  0  0  0  0  0  0
  186.8110  175.9630  135.0130 O   0  0  0  0  0  1  0  0  0  0  0  0
  188.4680  177.5310  135.0720 O   0  0  0  0  0  1  0  0  0  0  0  0
  188.1030  176.2430  135.4600 C   0  0  0  0  0  3  0  0  0  0  0  0
  191.0920  175.8390  145.6860 N   0  0  0  0  0  2  0  0  0  0  0  0
  190.4060  176.8970  144.9550 C   0  0  0  0  0  2  0  0  0  0  0  0
  188.7030  177.1500  145.6970 P   0  0  2  0  0  0  0  0  0  0  0  0
  187.8620  176.2660  144.4540 O   0  0  0  0  0  0  0  0  0  0  0  0
  186.6270  176.9090  144.2820 C   0  0  2  0  0  3  0  0  0  0  0  0
  186.0180  177.6480  140.0920 C   0  0  0  0  0  3  0  0  0  0  0  0
  187.2480  177.1580  140.5390 C   0  0  0  0  0  3  0  0  0  0  0  0
  185.2150  177.7380  142.3750 C   0  0  0  0  0  3  0  0  0  0  0  0
  185.0070  177.9520  141.0070 C   0  0  0  0  0  0  0  0  0  0  0  0
  187.4560  176.9540  141.9040 C   0  0  0  0  0  3  0  0  0  0  0  0
  186.4430  177.2430  142.8280 C   0  0  0  0  0  0  0  0  0  0  0  0
  183.7500  178.4260  140.5430 N   0  0  0  0  0  1  0  0  0  0  0  0
  186.5960  178.4930  145.2920 P   0  0  1  0  0  0  0  0  0  0  0  0
  184.9290  178.1870  146.0740 C   0  0  0  0  0  2  0  0  0  0  0  0
  184.8320  176.7530  146.5600 C   0  0  0  0  0  1  0  0  0  0  0  0
  1  2  1  0  0  0  0
  2 18  1  6  0  0  0
  2 10  1  0  0  0  0
  2  4  1  0  0  0  0
  5 14  1  0  0  0  0
  6  1  1  0  0  0  0
 10  4  1  1  0  0  0
 11 10  1  0  0  0  0
 11 13  1  0  0  0  0
 11 33  1  1  0  0  0
 12 24  1  6  0  0  0
 12  7  1  0  0  0  0
 12 17  1  0  0  0  0
 13  9  1  6  0  0  0
 14 19  1  0  0  0  0
 15 22  1  0  0  0  0
 15  7  1  0  0  0  0
 16  3  1  6  0  0  0
 16 20  1  0  0  0  0
 17  6  1  0  0  0  0
 19  9  1  1  0  0  0
 19 21  1  0  0  0  0
 20 23  1  6  0  0  0
 20 14  1  0  0  0  0
 21 13  1  0  0  0  0
 22  8  1  6  0  0  0
 22 16  1  0  0  0  0
 25 27  1  0  0  0  0
 25 24  1  1  0  0  0
 26 25  1  0  0  0  0
 26 27  1  0  0  0  0
 28 26  1  0  0  0  0
 29 32  1  0  0  0  0
 29 28  1  0  0  0  0
 30 32  1  0  0  0  0
 31 32  1  0  0  0  0
 34 33  1  0  0  0  0
 35 34  1  6  0  0  0
 36 35  1  0  0  0  0
 37 43  1  6  0  0  0
 37 36  1  0  0  0  0
 37 45  1  0  0  0  0
 38 39  2  0  0  0  0
 38 41  1  0  0  0  0
 39 42  1  0  0  0  0
 40 43  1  0  0  0  0
 41 40  2  0  0  0  0
 42 43  2  0  0  0  0
 44 41  1  0  0  0  0
 45 35  1  0  0  0  0
 45 46  1  1  0  0  0
 46 47  1  0  0  0  0
M  END
>  <MODEL>
3

>  <REMARK>
 VINA RESULT:      -6.7      3.047      4.264
  Name = 
  13 active torsions:
  status: ('A' for Active; 'I' for Inactive)
    1  A    between atoms: C_2  and  C_5
    2  A    between atoms: C_2  and  C_28
    3  A    between atoms: C_12  and  O_36
    4  A    between atoms: C_12  and  C_37
    5  A    between atoms: C_14  and  P_26
    6  A    between atoms: N_15  and  O_36
    7  A    between atoms: C_16  and  N_20
    8  A    between atoms: C_16  and  P_22
    9  A    between atoms: N_20  and  C_25
   10  A    between atoms: P_22  and  O_41
   11  A    between atoms: P_26  and  C_39
   12  A    between atoms: C_39  and  C_40
   13  A    between atoms: C_39  and  O_41
                            x       y       z     vdW  Elec       q    Type
                         _______ _______ _______ _____ _____    ______ ____

>  <TORSDO>
F 13

$$$$
=
 OpenBabel11072409013D

 47 51  0  0  1  0  0  0  0  0999 V2000
  192.4320  174.2250  144.3850 C   0  0  0  0  0  2  0  0  0  0  0  0
  192.3190  175.3580  143.3690 C   0  0  2  0  0  0  0  0  0  0  0  0
  192.9520  169.0250  140.3000 C   0  0  0  0  0  1  0  0  0  0  0  0
  191.3490  176.4440  143.7740 C   0  0  0  0  0  2  0  0  0  0  0  0
  190.5600  170.3490  141.5640 C   0  0  0  0  0  1  0  0  0  0  0  0
  193.2400  173.0580  143.8360 C   0  0  0  0  0  2  0  0  0  0  0  0
  194.8230  172.5720  141.4930 C   0  0  0  0  0  2  0  0  0  0  0  0
  195.3090  170.8110  139.3030 C   0  0  0  0  0  1  0  0  0  0  0  0
  189.0060  172.6980  141.5880 C   0  0  0  0  0  2  0  0  0  0  0  0
  191.0560  175.5840  142.5400 C   0  0  2  0  0  3  0  0  0  0  0  0
  189.9830  174.4920  142.7810 C   0  0  2  0  0  3  0  0  0  0  0  0
  195.2870  172.4910  142.9610 C   0  0  1  0  0  3  0  0  0  0  0  0
  189.3460  174.1080  141.5160 N   0  0  1  0  0  0  0  0  0  0  0  0
  191.0120  171.4540  140.7040 N   0  0  0  0  0  0  0  0  0  0  0  0
  193.9390  171.5220  141.2020 O   0  0  0  0  0  0  0  0  0  0  0  0
  192.8760  170.2880  139.4380 C   0  0  1  0  0  3  0  0  0  0  0  0
  194.6060  173.3960  143.8040 O   0  0  0  0  0  0  0  0  0  0  0  0
  193.4910  175.8810  142.8240 O   0  0  0  0  0  1  0  0  0  0  0  0
  189.8810  172.3380  140.3970 C   0  0  2  0  0  3  0  0  0  0  0  0
  191.4780  170.9160  139.4050 C   0  0  1  0  0  3  0  0  0  0  0  0
  190.3060  173.7870  140.4680 C   0  0  0  0  0  2  0  0  0  0  0  0
  193.9550  171.3130  139.8120 C   0  0  2  0  0  3  0  0  0  0  0  0
  190.4670  170.0080  138.7020 C   0  0  0  0  0  1  0  0  0  0  0  0
  195.4260  171.0930  143.6020 C   0  0  0  0  0  2  0  0  0  0  0  0
  196.7880  170.8190  144.2210 C   0  0  2  0  0  3  0  0  0  0  0  0
  196.6430  170.4340  145.6040 N   0  0  0  0  0  0  0  0  0  0  0  0
  197.0530  171.7020  145.2200 O   0  0  0  0  0  0  0  0  0  0  0  0
  197.7660  169.7350  145.9130 O   0  0  0  0  0  0  0  0  0  0  0  0
  197.2960  168.5410  146.4620 C   0  0  0  0  0  2  0  0  0  0  0  0
  197.2710  168.1910  148.8280 O   0  0  0  0  0  1  0  0  0  0  0  0
  195.2770  168.2910  147.7230 O   0  0  0  0  0  1  0  0  0  0  0  0
  196.5760  168.7940  147.7790 C   0  0  0  0  0  3  0  0  0  0  0  0
  188.9330  175.0010  143.6550 N   0  0  0  0  0  2  0  0  0  0  0  0
  187.9120  175.6570  142.8470 C   0  0  0  0  0  2  0  0  0  0  0  0
  187.5390  177.3420  143.5780 P   0  0  0  0  0  2  0  0  0  0  0  0
  186.9800  176.7260  145.1080 O   0  0  0  0  0  0  0  0  0  0  0  0
  187.5770  177.5230  146.0940 C   0  0  2  0  0  3  0  0  0  0  0  0
  190.8360  175.2790  147.7710 C   0  0  0  0  0  3  0  0  0  0  0  0
  189.6780  174.6160  147.3570 C   0  0  0  0  0  3  0  0  0  0  0  0
  189.8440  177.4070  147.1750 C   0  0  0  0  0  3  0  0  0  0  0  0
  190.9170  176.6720  147.6950 C   0  0  0  0  0  0  0  0  0  0  0  0
  188.6060  175.3510  146.8470 C   0  0  0  0  0  3  0  0  0  0  0  0
  188.6830  176.7480  146.7540 C   0  0  0  0  0  0  0  0  0  0  0  0
  192.1070  177.3370  148.0940 N   0  0  0  0  0  1  0  0  0  0  0  0
  186.2950  177.9950  147.3830 P   0  0  0  0  0  2  0  0  0  0  0  0
  185.3440  179.1680  146.2850 C   0  0  0  0  0  2  0  0  0  0  0  0
  183.9490  178.6320  146.0260 C   0  0  0  0  0  1  0  0  0  0  0  0
  2 18  1  6  0  0  0
  2  4  1  0  0  0  0
  2  1  1  0  0  0  0
  6  1  1  0  0  0  0
  7 12  1  0  0  0  0
 10 11  1  0  0  0  0
 10  2  1  0  0  0  0
 10  4  1  1  0  0  0
 11 33  1  1  0  0  0
 12 24  1  1  0  0  0
 12 17  1  0  0  0  0
 13 21  1  6  0  0  0
 13  9  1  0  0  0  0
 13 11  1  0  0  0  0
 14  5  1  0  0  0  0
 15  7  1  0  0  0  0
 16 22  1  0  0  0  0
 16  3  1  1  0  0  0
 17  6  1  0  0  0  0
 19 21  1  1  0  0  0
 19 14  1  0  0  0  0
 19  9  1  0  0  0  0
 20 23  1  1  0  0  0
 20 16  1  0  0  0  0
 20 14  1  0  0  0  0
 22  8  1  1  0  0  0
 22 15  1  0  0  0  0
 25 24  1  6  0  0  0
 25 27  1  0  0  0  0
 25 26  1  0  0  0  0
 26 28  1  0  0  0  0
 27 26  1  0  0  0  0
 28 29  1  0  0  0  0
 29 32  1  0  0  0  0
 31 32  1  0  0  0  0
 32 30  1  0  0  0  0
 34 35  1  0  0  0  0
 34 33  1  0  0  0  0
 35 36  1  0  0  0  0
 37 36  1  6  0  0  0
 37 43  1  0  0  0  0
 37 45  1  0  0  0  0
 39 38  2  0  0  0  0
 40 41  2  0  0  0  0
 41 38  1  0  0  0  0
 41 44  1  0  0  0  0
 42 39  1  0  0  0  0
 43 42  2  0  0  0  0
 43 40  1  0  0  0  0
 46 45  1  0  0  0  0
 47 46  1  0  0  0  0
M  END
>  <MODEL>
4

>  <REMARK>
 VINA RESULT:      -6.7      2.851      6.538
  Name = 
  13 active torsions:
  status: ('A' for Active; 'I' for Inactive)
    1  A    between atoms: C_2  and  C_5
    2  A    between atoms: C_2  and  C_28
    3  A    between atoms: C_12  and  O_36
    4  A    between atoms: C_12  and  C_37
    5  A    between atoms: C_14  and  P_26
    6  A    between atoms: N_15  and  O_36
    7  A    between atoms: C_16  and  N_20
    8  A    between atoms: C_16  and  P_22
    9  A    between atoms: N_20  and  C_25
   10  A    between atoms: P_22  and  O_41
   11  A    between atoms: P_26  and  C_39
   12  A    between atoms: C_39  and  C_40
   13  A    between atoms: C_39  and  O_41
                            x       y       z     vdW  Elec       q    Type
                         _______ _______ _______ _____ _____    ______ ____

>  <TORSDO>
F 13

$$$$
=
 OpenBabel11072409013D

 47 51  0  0  1  0  0  0  0  0999 V2000
  188.1330  173.1160  141.5820 C   0  0  0  0  0  2  0  0  0  0  0  0
  188.5800  173.5520  140.1900 C   0  0  2  0  0  0  0  0  0  0  0  0
  192.5960  176.3100  145.3070 C   0  0  0  0  0  1  0  0  0  0  0  0
  188.4800  172.4610  139.1490 C   0  0  0  0  0  2  0  0  0  0  0  0
  192.6030  173.5530  144.0960 C   0  0  0  0  0  1  0  0  0  0  0  0
  188.4600  174.1680  142.6320 C   0  0  0  0  0  2  0  0  0  0  0  0
  189.4480  176.8620  142.6070 C   0  0  0  0  0  2  0  0  0  0  0  0
  191.3800  178.6720  143.6690 C   0  0  0  0  0  1  0  0  0  0  0  0
  192.7080  172.1340  141.6650 C   0  0  0  0  0  2  0  0  0  0  0  0
  189.8540  173.0180  139.5390 C   0  0  2  0  0  3  0  0  0  0  0  0
  190.6590  172.0880  140.4840 C   0  0  2  0  0  3  0  0  0  0  0  0
  188.1130  176.3670  143.1990 C   0  0  1  0  0  3  0  0  0  0  0  0
  192.0970  172.3540  140.3660 N   0  0  1  0  0  0  0  0  0  0  0  0
  192.6150  174.3520  142.8600 N   0  0  0  0  0  0  0  0  0  0  0  0
  190.5250  176.3980  143.3770 O   0  0  0  0  0  0  0  0  0  0  0  0
  192.8630  176.6760  143.8440 C   0  0  1  0  0  3  0  0  0  0  0  0
  187.5800  175.2600  142.5050 O   0  0  0  0  0  0  0  0  0  0  0  0
  188.1330  174.7800  139.7040 O   0  0  0  0  0  1  0  0  0  0  0  0
  193.2060  173.5670  141.7690 C   0  0  2  0  0  3  0  0  0  0  0  0
  193.4910  175.5330  143.0390 C   0  0  1  0  0  3  0  0  0  0  0  0
  192.4270  173.7690  140.4890 C   0  0  0  0  0  2  0  0  0  0  0  0
  191.6200  177.2500  143.1520 C   0  0  2  0  0  3  0  0  0  0  0  0
  194.9010  175.2010  143.5310 C   0  0  0  0  0  1  0  0  0  0  0  0
  188.0200  176.1920  144.7300 C   0  0  0  0  0  2  0  0  0  0  0  0
  186.6500  176.5030  145.3150 C   0  0  2  0  0  3  0  0  0  0  0  0
  186.6780  177.7630  146.0180 N   0  0  0  0  0  0  0  0  0  0  0  0
  186.7000  176.5400  146.6730 O   0  0  0  0  0  0  0  0  0  0  0  0
  185.3930  178.2000  146.0460 O   0  0  0  0  0  0  0  0  0  0  0  0
  185.4540  179.5040  145.5520 C   0  0  0  0  0  2  0  0  0  0  0  0
  183.9720  178.5540  143.9330 O   0  0  0  0  0  1  0  0  0  0  0  0
  185.9370  179.4610  143.2080 O   0  0  0  0  0  1  0  0  0  0  0  0
  184.9030  179.5750  144.1350 C   0  0  0  0  0  3  0  0  0  0  0  0
  190.4480  170.6930  140.1160 N   0  0  0  0  0  2  0  0  0  0  0  0
  191.3270  170.3510  139.0050 C   0  0  0  0  0  2  0  0  0  0  0  0
  190.5120  169.0200  137.9650 P   0  0  0  0  0  2  0  0  0  0  0  0
  190.0020  170.1050  136.7010 O   0  0  0  0  0  0  0  0  0  0  0  0
  191.1700  170.6960  136.1960 C   0  0  2  0  0  3  0  0  0  0  0  0
  190.4170  174.9160  135.8890 C   0  0  0  0  0  3  0  0  0  0  0  0
  189.4430  174.0060  135.4710 C   0  0  0  0  0  3  0  0  0  0  0  0
  191.9110  173.0860  136.4270 C   0  0  0  0  0  3  0  0  0  0  0  0
  191.6540  174.4620  136.3530 C   0  0  0  0  0  0  0  0  0  0  0  0
  189.7050  172.6360  135.5370 C   0  0  0  0  0  3  0  0  0  0  0  0
  190.9380  172.1700  136.0140 C   0  0  0  0  0  0  0  0  0  0  0  0
  192.6300  175.3930  136.8000 N   0  0  0  0  0  1  0  0  0  0  0  0
  191.5990  169.9240  134.5380 P   0  0  0  0  0  2  0  0  0  0  0  0
  193.4470  170.1250  134.7090 C   0  0  0  0  0  2  0  0  0  0  0  0
  193.8870  169.7710  136.1160 C   0  0  0  0  0  1  0  0  0  0  0  0
  1  6  1  0  0  0  0
  2 18  1  6  0  0  0
  2  1  1  0  0  0  0
  4  2  1  0  0  0  0
  7 12  1  0  0  0  0
  7 15  1  0  0  0  0
  9 19  1  0  0  0  0
 10  4  1  6  0  0  0
 10  2  1  0  0  0  0
 10 11  1  0  0  0  0
 11 33  1  6  0  0  0
 12 24  1  1  0  0  0
 13 11  1  0  0  0  0
 13 21  1  1  0  0  0
 13  9  1  0  0  0  0
 14 20  1  0  0  0  0
 14  5  1  0  0  0  0
 16  3  1  1  0  0  0
 17  6  1  0  0  0  0
 17 12  1  0  0  0  0
 19 21  1  6  0  0  0
 19 14  1  0  0  0  0
 20 23  1  1  0  0  0
 20 16  1  0  0  0  0
 22 15  1  0  0  0  0
 22  8  1  1  0  0  0
 22 16  1  0  0  0  0
 25 24  1  6  0  0  0
 25 26  1  0  0  0  0
 25 27  1  0  0  0  0
 26 28  1  0  0  0  0
 26 27  1  0  0  0  0
 29 28  1  0  0  0  0
 30 32  1  0  0  0  0
 31 32  1  0  0  0  0
 32 29  1  0  0  0  0
 34 33  1  0  0  0  0
 35 34  1  0  0  0  0
 36 35  1  0  0  0  0
 37 45  1  6  0  0  0
 37 36  1  0  0  0  0
 38 41  1  0  0  0  0
 39 42  1  0  0  0  0
 39 38  2  0  0  0  0
 41 40  2  0  0  0  0
 41 44  1  0  0  0  0
 42 43  2  0  0  0  0
 43 37  1  0  0  0  0
 43 40  1  0  0  0  0
 45 46  1  0  0  0  0
 46 47  1  0  0  0  0
M  END
>  <MODEL>
5

>  <REMARK>
 VINA RESULT:      -6.7      3.426      9.216
  Name = 
  13 active torsions:
  status: ('A' for Active; 'I' for Inactive)
    1  A    between atoms: C_2  and  C_5
    2  A    between atoms: C_2  and  C_28
    3  A    between atoms: C_12  and  O_36
    4  A    between atoms: C_12  and  C_37
    5  A    between atoms: C_14  and  P_26
    6  A    between atoms: N_15  and  O_36
    7  A    between atoms: C_16  and  N_20
    8  A    between atoms: C_16  and  P_22
    9  A    between atoms: N_20  and  C_25
   10  A    between atoms: P_22  and  O_41
   11  A    between atoms: P_26  and  C_39
   12  A    between atoms: C_39  and  C_40
   13  A    between atoms: C_39  and  O_41
                            x       y       z     vdW  Elec       q    Type
                         _______ _______ _______ _____ _____    ______ ____

>  <TORSDO>
F 13

$$$$
=
 OpenBabel11072409013D

 47 51  0  0  1  0  0  0  0  0999 V2000
  189.6120  172.2270  141.4590 C   0  0  0  0  0  2  0  0  0  0  0  0
  190.8200  172.5090  140.5700 C   0  0  2  0  0  0  0  0  0  0  0  0
  190.4520  176.8840  146.1060 C   0  0  0  0  0  1  0  0  0  0  0  0
  191.4760  171.2640  140.0200 C   0  0  0  0  0  2  0  0  0  0  0  0
  191.3970  174.0300  145.9360 C   0  0  0  0  0  1  0  0  0  0  0  0
  189.1270  173.4860  142.1630 C   0  0  0  0  0  2  0  0  0  0  0  0
  189.7380  176.2860  142.0270 C   0  0  0  0  0  2  0  0  0  0  0  0
  190.4290  178.6200  143.5130 C   0  0  0  0  0  1  0  0  0  0  0  0
  193.1200  172.2800  144.5550 C   0  0  0  0  0  2  0  0  0  0  0  0
  192.2450  172.1610  140.9970 C   0  0  2  0  0  3  0  0  0  0  0  0
  192.3110  171.5970  142.4400 C   0  0  2  0  0  3  0  0  0  0  0  0
  188.3660  175.6220  141.7930 C   0  0  1  0  0  3  0  0  0  0  0  0
  193.4710  172.1440  143.1530 N   0  0  1  0  0  0  0  0  0  0  0  0
  192.1510  174.5940  144.8050 N   0  0  0  0  0  0  0  0  0  0  0  0
  190.0970  176.1990  143.3810 O   0  0  0  0  0  0  0  0  0  0  0  0
  191.5710  177.0490  145.0750 C   0  0  1  0  0  3  0  0  0  0  0  0
  188.4700  174.3250  141.2440 O   0  0  0  0  0  0  0  0  0  0  0  0
  190.7160  173.5140  139.6080 O   0  0  0  0  0  1  0  0  0  0  0  0
  193.3490  173.7840  144.5540 C   0  0  2  0  0  3  0  0  0  0  0  0
  192.6360  175.9490  145.1560 C   0  0  1  0  0  3  0  0  0  0  0  0
  193.5600  173.5960  143.0700 C   0  0  0  0  0  2  0  0  0  0  0  0
  191.0280  177.2170  143.6490 C   0  0  2  0  0  3  0  0  0  0  0  0
  193.4200  176.0160  146.4680 C   0  0  0  0  0  1  0  0  0  0  0  0
  187.3250  175.6890  142.9300 C   0  0  0  0  0  2  0  0  0  0  0  0
  186.7270  177.0700  143.1520 C   0  0  2  0  0  3  0  0  0  0  0  0
  185.5210  176.9760  143.9390 N   0  0  0  0  0  0  0  0  0  0  0  0
  185.5040  177.1690  142.5650 O   0  0  0  0  0  0  0  0  0  0  0  0
  185.3540  178.1960  144.5090 O   0  0  0  0  0  0  0  0  0  0  0  0
  184.8650  177.9230  145.7880 C   0  0  0  0  0  2  0  0  0  0  0  0
  185.5670  177.3850  148.0100 O   0  0  0  0  0  1  0  0  0  0  0  0
  187.1500  178.0200  146.4940 O   0  0  0  0  0  1  0  0  0  0  0  0
  185.9530  177.3270  146.6700 C   0  0  0  0  0  3  0  0  0  0  0  0
  192.4680  170.1480  142.4080 N   0  0  0  0  0  2  0  0  0  0  0  0
  193.8740  169.8220  142.2070 C   0  0  0  0  0  2  0  0  0  0  0  0
  194.4500  168.7040  143.5970 P   0  0  0  0  0  2  0  0  0  0  0  0
  196.0470  169.3930  143.6960 O   0  0  0  0  0  0  0  0  0  0  0  0
  196.1880  169.8730  145.0060 C   0  0  2  0  0  3  0  0  0  0  0  0
  197.3720  174.0040  144.9280 C   0  0  0  0  0  3  0  0  0  0  0  0
  196.9310  173.4310  146.1230 C   0  0  0  0  0  3  0  0  0  0  0  0
  196.9630  171.9170  143.7670 C   0  0  0  0  0  3  0  0  0  0  0  0
  197.3760  173.2560  143.7470 C   0  0  0  0  0  0  0  0  0  0  0  0
  196.5110  172.1000  146.1380 C   0  0  0  0  0  3  0  0  0  0  0  0
  196.5240  171.3370  144.9620 C   0  0  0  0  0  0  0  0  0  0  0  0
  197.8510  173.8370  142.5410 N   0  0  0  0  0  1  0  0  0  0  0  0
  197.5710  168.9430  145.8720 P   0  0  0  0  0  2  0  0  0  0  0  0
  196.4910  168.1850  147.1930 C   0  0  0  0  0  2  0  0  0  0  0  0
  195.1650  168.9170  147.2720 C   0  0  0  0  0  1  0  0  0  0  0  0
  1  6  1  0  0  0  0
  2 18  1  6  0  0  0
  2 10  1  0  0  0  0
  2  1  1  0  0  0  0
  4  2  1  0  0  0  0
  7 15  1  0  0  0  0
 10  4  1  6  0  0  0
 10 11  1  0  0  0  0
 11 33  1  6  0  0  0
 11 13  1  0  0  0  0
 12  7  1  0  0  0  0
 12 24  1  1  0  0  0
 13 21  1  6  0  0  0
 13  9  1  0  0  0  0
 14 20  1  0  0  0  0
 14  5  1  0  0  0  0
 15 22  1  0  0  0  0
 16 20  1  0  0  0  0
 16  3  1  1  0  0  0
 17 12  1  0  0  0  0
 17  6  1  0  0  0  0
 19 21  1  6  0  0  0
 19  9  1  0  0  0  0
 19 14  1  0  0  0  0
 20 23  1  1  0  0  0
 22  8  1  1  0  0  0
 22 16  1  0  0  0  0
 25 24  1  6  0  0  0
 25 26  1  0  0  0  0
 26 28  1  0  0  0  0
 27 25  1  0  0  0  0
 27 26  1  0  0  0  0
 28 29  1  0  0  0  0
 29 32  1  0  0  0  0
 31 32  1  0  0  0  0
 32 30  1  0  0  0  0
 34 33  1  0  0  0  0
 34 35  1  0  0  0  0
 35 36  1  0  0  0  0
 37 36  1  6  0  0  0
 37 45  1  0  0  0  0
 38 39  1  0  0  0  0
 39 42  2  0  0  0  0
 40 43  2  0  0  0  0
 41 40  1  0  0  0  0
 41 38  2  0  0  0  0
 43 37  1  0  0  0  0
 43 42  1  0  0  0  0
 44 41  1  0  0  0  0
 45 46  1  0  0  0  0
 46 47  1  0  0  0  0
M  END
>  <MODEL>
6

>  <REMARK>
 VINA RESULT:      -6.5      3.253      9.579
  Name = 
  13 active torsions:
  status: ('A' for Active; 'I' for Inactive)
    1  A    between atoms: C_2  and  C_5
    2  A    between atoms: C_2  and  C_28
    3  A    between atoms: C_12  and  O_36
    4  A    between atoms: C_12  and  C_37
    5  A    between atoms: C_14  and  P_26
    6  A    between atoms: N_15  and  O_36
    7  A    between atoms: C_16  and  N_20
    8  A    between atoms: C_16  and  P_22
    9  A    between atoms: N_20  and  C_25
   10  A    between atoms: P_22  and  O_41
   11  A    between atoms: P_26  and  C_39
   12  A    between atoms: C_39  and  C_40
   13  A    between atoms: C_39  and  O_41
                            x       y       z     vdW  Elec       q    Type
                         _______ _______ _______ _____ _____    ______ ____

>  <TORSDO>
F 13

$$$$
=
 OpenBabel11072409013D

 47 51  0  0  1  0  0  0  0  0999 V2000
  192.8800  174.5390  140.8120 C   0  0  0  0  0  2  0  0  0  0  0  0
  192.3480  173.3280  140.0500 C   0  0  2  0  0  0  0  0  0  0  0  0
  196.7790  171.5210  145.2490 C   0  0  0  0  0  1  0  0  0  0  0  0
  190.8960  173.4500  139.6510 C   0  0  0  0  0  2  0  0  0  0  0  0
  193.8800  172.3290  145.3510 C   0  0  0  0  0  1  0  0  0  0  0  0
  194.2660  174.2770  141.3840 C   0  0  0  0  0  2  0  0  0  0  0  0
  196.2270  172.1940  141.1570 C   0  0  0  0  0  2  0  0  0  0  0  0
  197.9390  170.4070  142.5740 C   0  0  0  0  0  1  0  0  0  0  0  0
  191.3300  171.8020  144.2770 C   0  0  0  0  0  2  0  0  0  0  0  0
  191.3200  172.3730  140.6550 C   0  0  2  0  0  3  0  0  0  0  0  0
  190.9780  172.7230  142.1260 C   0  0  2  0  0  3  0  0  0  0  0  0
  196.4100  173.6850  140.8080 C   0  0  1  0  0  3  0  0  0  0  0  0
  190.8670  171.5030  142.9330 N   0  0  1  0  0  0  0  0  0  0  0  0
  193.8040  171.3210  144.2810 N   0  0  0  0  0  0  0  0  0  0  0  0
  196.1070  172.0300  142.5450 O   0  0  0  0  0  0  0  0  0  0  0  0
  196.1820  170.4410  144.3430 C   0  0  1  0  0  3  0  0  0  0  0  0
  195.2210  174.2930  140.3490 O   0  0  0  0  0  0  0  0  0  0  0  0
  193.1280  172.7920  139.0270 O   0  0  0  0  0  1  0  0  0  0  0  0
  192.4450  170.7700  144.2150 C   0  0  2  0  0  3  0  0  0  0  0  0
  194.6950  170.1830  144.6060 C   0  0  1  0  0  3  0  0  0  0  0  0
  192.0090  170.6100  142.7770 C   0  0  0  0  0  2  0  0  0  0  0  0
  196.4630  170.7070  142.8580 C   0  0  2  0  0  3  0  0  0  0  0  0
  194.4620  169.5780  145.9930 C   0  0  0  0  0  1  0  0  0  0  0  0
  197.1670  174.5780  141.8140 C   0  0  0  0  0  2  0  0  0  0  0  0
  196.6860  174.4500  143.2520 C   0  0  2  0  0  3  0  0  0  0  0  0
  196.6830  175.7400  143.8970 N   0  0  0  0  0  0  0  0  0  0  0  0
  197.6710  174.7930  144.1240 O   0  0  0  0  0  0  0  0  0  0  0  0
  195.7990  175.6390  144.9230 O   0  0  0  0  0  0  0  0  0  0  0  0
  194.9250  176.7120  144.7410 C   0  0  0  0  0  2  0  0  0  0  0  0
  193.6850  175.6720  146.5010 O   0  0  0  0  0  1  0  0  0  0  0  0
  192.7990  175.6690  144.3980 O   0  0  0  0  0  1  0  0  0  0  0  0
  193.5520  176.3980  145.3160 C   0  0  0  0  0  3  0  0  0  0  0  0
  189.6900  173.4030  142.1960 N   0  0  0  0  0  2  0  0  0  0  0  0
  189.8600  174.6870  142.8650 C   0  0  0  0  0  2  0  0  0  0  0  0
  188.3140  175.7180  142.6170 P   0  0  0  0  0  2  0  0  0  0  0  0
  188.7860  176.9710  143.7320 O   0  0  0  0  0  0  0  0  0  0  0  0
  188.3760  176.5410  145.0020 C   0  0  2  0  0  3  0  0  0  0  0  0
  184.7990  178.6240  146.1580 C   0  0  0  0  0  3  0  0  0  0  0  0
  185.2370  177.5280  146.9070 C   0  0  0  0  0  3  0  0  0  0  0  0
  186.6370  178.3120  144.6110 C   0  0  0  0  0  3  0  0  0  0  0  0
  185.4870  179.0080  145.0040 C   0  0  0  0  0  0  0  0  0  0  0  0
  186.3780  176.8300  146.5080 C   0  0  0  0  0  3  0  0  0  0  0  0
  187.0830  177.2170  145.3600 C   0  0  0  0  0  0  0  0  0  0  0  0
  185.0510  180.1390  144.2620 N   0  0  0  0  0  1  0  0  0  0  0  0
  189.6850  176.9920  146.2720 P   0  0  0  0  0  2  0  0  0  0  0  0
  190.1330  175.2350  146.7150 C   0  0  0  0  0  2  0  0  0  0  0  0
  188.9600  174.5460  147.3860 C   0  0  0  0  0  1  0  0  0  0  0  0
  1  6  1  0  0  0  0
  2 18  1  6  0  0  0
  2 10  1  0  0  0  0
  2  1  1  0  0  0  0
  4  2  1  0  0  0  0
  7 15  1  0  0  0  0
 10  4  1  6  0  0  0
 10 11  1  0  0  0  0
 11 33  1  6  0  0  0
 11 13  1  0  0  0  0
 12  7  1  0  0  0  0
 12 24  1  1  0  0  0
 13 21  1  6  0  0  0
 13  9  1  0  0  0  0
 14 20  1  0  0  0  0
 14  5  1  0  0  0  0
 15 22  1  0  0  0  0
 16 20  1  0  0  0  0
 16  3  1  1  0  0  0
 17 12  1  0  0  0  0
 17  6  1  0  0  0  0
 19 21  1  6  0  0  0
 19  9  1  0  0  0  0
 19 14  1  0  0  0  0
 20 23  1  1  0  0  0
 22  8  1  1  0  0  0
 22 16  1  0  0  0  0
 25 24  1  6  0  0  0
 25 26  1  0  0  0  0
 25 27  1  0  0  0  0
 26 27  1  0  0  0  0
 26 28  1  0  0  0  0
 29 28  1  0  0  0  0
 29 32  1  0  0  0  0
 31 32  1  0  0  0  0
 32 30  1  0  0  0  0
 33 34  1  0  0  0  0
 35 34  1  0  0  0  0
 35 36  1  0  0  0  0
 37 36  1  6  0  0  0
 37 43  1  0  0  0  0
 37 45  1  0  0  0  0
 38 39  1  0  0  0  0
 40 41  1  0  0  0  0
 40 43  2  0  0  0  0
 41 38  2  0  0  0  0
 42 39  2  0  0  0  0
 43 42  1  0  0  0  0
 44 41  1  0  0  0  0
 45 46  1  0  0  0  0
 46 47  1  0  0  0  0
M  END
>  <MODEL>
7

>  <REMARK>
 VINA RESULT:      -6.4      2.673      5.715
  Name = 
  13 active torsions:
  status: ('A' for Active; 'I' for Inactive)
    1  A    between atoms: C_2  and  C_5
    2  A    between atoms: C_2  and  C_28
    3  A    between atoms: C_12  and  O_36
    4  A    between atoms: C_12  and  C_37
    5  A    between atoms: C_14  and  P_26
    6  A    between atoms: N_15  and  O_36
    7  A    between atoms: C_16  and  N_20
    8  A    between atoms: C_16  and  P_22
    9  A    between atoms: N_20  and  C_25
   10  A    between atoms: P_22  and  O_41
   11  A    between atoms: P_26  and  C_39
   12  A    between atoms: C_39  and  C_40
   13  A    between atoms: C_39  and  O_41
                            x       y       z     vdW  Elec       q    Type
                         _______ _______ _______ _____ _____    ______ ____

>  <TORSDO>
F 13

$$$$
=
 OpenBabel11072409013D

 47 51  0  0  1  0  0  0  0  0999 V2000
  188.3000  172.8130  140.9810 C   0  0  0  0  0  2  0  0  0  0  0  0
  189.6120  172.9030  140.2060 C   0  0  2  0  0  0  0  0  0  0  0  0
  189.7660  176.5900  146.2320 C   0  0  0  0  0  1  0  0  0  0  0  0
  190.0150  171.6100  139.5380 C   0  0  0  0  0  2  0  0  0  0  0  0
  190.0560  173.6320  145.7490 C   0  0  0  0  0  1  0  0  0  0  0  0
  188.0520  174.0630  141.8140 C   0  0  0  0  0  2  0  0  0  0  0  0
  189.2870  176.6390  142.0760 C   0  0  0  0  0  2  0  0  0  0  0  0
  190.3560  178.5650  143.8880 C   0  0  0  0  0  1  0  0  0  0  0  0
  191.4520  171.6950  144.2530 C   0  0  0  0  0  2  0  0  0  0  0  0
  190.8800  172.1850  140.6650 C   0  0  2  0  0  3  0  0  0  0  0  0
  190.6940  171.4630  142.0250 C   0  0  2  0  0  3  0  0  0  0  0  0
  187.8260  176.3450  141.6800 C   0  0  1  0  0  3  0  0  0  0  0  0
  191.8820  171.6390  142.8680 N   0  0  1  0  0  0  0  0  0  0  0  0
  191.0110  174.1280  144.7440 N   0  0  0  0  0  0  0  0  0  0  0  0
  189.5010  176.3190  143.4250 O   0  0  0  0  0  0  0  0  0  0  0  0
  190.9780  176.6040  145.2960 C   0  0  1  0  0  3  0  0  0  0  0  0
  187.6820  175.1300  140.9740 O   0  0  0  0  0  0  0  0  0  0  0  0
  189.8190  174.0060  139.3780 O   0  0  0  0  0  1  0  0  0  0  0  0
  192.0130  173.0940  144.4600 C   0  0  2  0  0  3  0  0  0  0  0  0
  191.7570  175.2840  145.2950 C   0  0  1  0  0  3  0  0  0  0  0  0
  192.3030  173.0300  142.9780 C   0  0  0  0  0  2  0  0  0  0  0  0
  190.6100  177.0540  143.8760 C   0  0  2  0  0  3  0  0  0  0  0  0
  192.4210  175.0170  146.6470 C   0  0  0  0  0  1  0  0  0  0  0  0
  186.7330  176.5250  142.7540 C   0  0  0  0  0  2  0  0  0  0  0  0
  186.6330  177.9360  143.3170 C   0  0  2  0  0  3  0  0  0  0  0  0
  185.2520  178.2980  143.5220 N   0  0  0  0  0  0  0  0  0  0  0  0
  185.9940  178.7600  142.4450 O   0  0  0  0  0  0  0  0  0  0  0  0
  185.2620  179.2820  144.4570 O   0  0  0  0  0  0  0  0  0  0  0  0
  184.1440  179.0220  145.2530 C   0  0  0  0  0  2  0  0  0  0  0  0
  185.7000  179.0970  147.0670 O   0  0  0  0  0  1  0  0  0  0  0  0
  184.8100  177.0790  146.4810 O   0  0  0  0  0  1  0  0  0  0  0  0
  184.5580  178.4450  146.5990 C   0  0  0  0  0  3  0  0  0  0  0  0
  190.5240  170.0310  141.8150 N   0  0  0  0  0  2  0  0  0  0  0  0
  191.8330  169.3940  141.7600 C   0  0  0  0  0  2  0  0  0  0  0  0
  191.8620  168.1680  140.3420 P   0  0  0  0  0  2  0  0  0  0  0  0
  192.6930  169.2300  139.2390 O   0  0  0  0  0  0  0  0  0  0  0  0
  193.7190  169.8370  139.9770 C   0  0  2  0  0  3  0  0  0  0  0  0
  194.2460  173.8370  138.4950 C   0  0  0  0  0  3  0  0  0  0  0  0
  193.6240  172.8760  137.6940 C   0  0  0  0  0  3  0  0  0  0  0  0
  194.6010  172.1770  140.2240 C   0  0  0  0  0  3  0  0  0  0  0  0
  194.7470  173.4880  139.7520 C   0  0  0  0  0  0  0  0  0  0  0  0
  193.4880  171.5680  138.1620 C   0  0  0  0  0  3  0  0  0  0  0  0
  193.9750  171.2120  139.4280 C   0  0  0  0  0  0  0  0  0  0  0  0
  195.3540  174.4760  140.5730 N   0  0  0  0  0  1  0  0  0  0  0  0
  195.2870  168.8100  139.8360 P   0  0  0  0  0  2  0  0  0  0  0  0
  195.0460  168.3410  138.0450 C   0  0  0  0  0  2  0  0  0  0  0  0
  196.2720  168.7160  137.2340 C   0  0  0  0  0  1  0  0  0  0  0  0
  1  6  1  0  0  0  0
  2 18  1  6  0  0  0
  2 10  1  0  0  0  0
  2  1  1  0  0  0  0
  4  2  1  0  0  0  0
  7 15  1  0  0  0  0
  9 19  1  0  0  0  0
 10  4  1  6  0  0  0
 10 11  1  0  0  0  0
 11 33  1  6  0  0  0
 11 13  1  0  0  0  0
 12  7  1  0  0  0  0
 12 24  1  1  0  0  0
 13 21  1  6  0  0  0
 13  9  1  0  0  0  0
 14 20  1  0  0  0  0
 14  5  1  0  0  0  0
 15 22  1  0  0  0  0
 16  3  1  1  0  0  0
 17 12  1  0  0  0  0
 17  6  1  0  0  0  0
 19 21  1  6  0  0  0
 19 14  1  0  0  0  0
 20 16  1  0  0  0  0
 20 23  1  1  0  0  0
 22  8  1  1  0  0  0
 22 16  1  0  0  0  0
 25 24  1  6  0  0  0
 25 26  1  0  0  0  0
 26 28  1  0  0  0  0
 27 25  1  0  0  0  0
 27 26  1  0  0  0  0
 28 29  1  0  0  0  0
 29 32  1  0  0  0  0
 31 32  1  0  0  0  0
 32 30  1  0  0  0  0
 34 33  1  0  0  0  0
 35 34  1  0  0  0  0
 36 35  1  0  0  0  0
 37 36  1  6  0  0  0
 38 41  1  0  0  0  0
 39 42  1  0  0  0  0
 39 38  2  0  0  0  0
 41 40  2  0  0  0  0
 41 44  1  0  0  0  0
 42 43  2  0  0  0  0
 43 37  1  0  0  0  0
 43 40  1  0  0  0  0
 45 37  1  0  0  0  0
 46 45  1  0  0  0  0
 47 46  1  0  0  0  0
M  END
>  <MODEL>
8

>  <REMARK>
 VINA RESULT:      -6.3      3.479      9.558
  Name = 
  13 active torsions:
  status: ('A' for Active; 'I' for Inactive)
    1  A    between atoms: C_2  and  C_5
    2  A    between atoms: C_2  and  C_28
    3  A    between atoms: C_12  and  O_36
    4  A    between atoms: C_12  and  C_37
    5  A    between atoms: C_14  and  P_26
    6  A    between atoms: N_15  and  O_36
    7  A    between atoms: C_16  and  N_20
    8  A    between atoms: C_16  and  P_22
    9  A    between atoms: N_20  and  C_25
   10  A    between atoms: P_22  and  O_41
   11  A    between atoms: P_26  and  C_39
   12  A    between atoms: C_39  and  C_40
   13  A    between atoms: C_39  and  O_41
                            x       y       z     vdW  Elec       q    Type
                         _______ _______ _______ _____ _____    ______ ____

>  <TORSDO>
F 13

$$$$
=
 OpenBabel11072409013D

 47 51  0  0  1  0  0  0  0  0999 V2000
  191.3240  173.1110  140.4060 C   0  0  0  0  0  2  0  0  0  0  0  0
  191.4490  171.7150  141.0100 C   0  0  2  0  0  0  0  0  0  0  0  0
  196.4760  176.1170  143.3050 C   0  0  0  0  0  1  0  0  0  0  0  0
  190.1220  171.0740  141.3410 C   0  0  0  0  0  2  0  0  0  0  0  0
  193.5890  175.8620  144.1200 C   0  0  0  0  0  1  0  0  0  0  0  0
  192.6770  173.8000  140.2980 C   0  0  0  0  0  2  0  0  0  0  0  0
  195.4140  173.0320  140.6880 C   0  0  0  0  0  2  0  0  0  0  0  0
  197.8840  173.6790  141.9590 C   0  0  0  0  0  1  0  0  0  0  0  0
  191.6180  174.0420  144.9820 C   0  0  0  0  0  2  0  0  0  0  0  0
  191.1000  171.4240  142.4680 C   0  0  2  0  0  3  0  0  0  0  0  0
  190.7140  172.7050  143.2530 C   0  0  2  0  0  3  0  0  0  0  0  0
  194.7800  173.5890  139.3970 C   0  0  1  0  0  3  0  0  0  0  0  0
  191.2980  172.6790  144.5990 N   0  0  1  0  0  0  0  0  0  0  0  0
  193.9810  174.4450  144.2010 N   0  0  0  0  0  0  0  0  0  0  0  0
  195.4790  174.0310  141.6700 O   0  0  0  0  0  0  0  0  0  0  0  0
  196.4710  174.6570  143.7650 C   0  0  1  0  0  3  0  0  0  0  0  0
  193.4230  173.2270  139.2510 O   0  0  0  0  0  0  0  0  0  0  0  0
  192.3320  170.8120  140.4180 O   0  0  0  0  0  1  0  0  0  0  0  0
  193.1010  173.7410  145.1410 C   0  0  2  0  0  3  0  0  0  0  0  0
  195.3490  174.3390  144.7600 C   0  0  1  0  0  3  0  0  0  0  0  0
  192.7250  172.3810  144.5970 C   0  0  0  0  0  2  0  0  0  0  0  0
  196.4850  173.6760  142.5850 C   0  0  2  0  0  3  0  0  0  0  0  0
  195.5450  175.0750  146.0870 C   0  0  0  0  0  1  0  0  0  0  0  0
  195.0250  175.0730  139.0510 C   0  0  0  0  0  2  0  0  0  0  0  0
  195.9240  175.2950  137.8440 C   0  0  2  0  0  3  0  0  0  0  0  0
  195.1390  175.3300  136.6330 N   0  0  0  0  0  0  0  0  0  0  0  0
  195.8860  174.2230  137.0080 O   0  0  0  0  0  0  0  0  0  0  0  0
  195.8830  176.0180  135.7290 O   0  0  0  0  0  0  0  0  0  0  0  0
  194.9970  176.3020  134.6880 C   0  0  0  0  0  2  0  0  0  0  0  0
  196.0010  178.4640  134.8800 O   0  0  0  0  0  1  0  0  0  0  0  0
  193.7660  178.2620  135.2960 O   0  0  0  0  0  1  0  0  0  0  0  0
  194.8260  177.8040  134.5150 C   0  0  0  0  0  3  0  0  0  0  0  0
  189.2680  172.7810  143.4130 N   0  0  0  0  0  2  0  0  0  0  0  0
  188.8610  174.1800  143.4540 C   0  0  0  0  0  2  0  0  0  0  0  0
  188.1400  174.6590  141.7910 P   0  0  0  0  0  2  0  0  0  0  0  0
  186.9660  175.7660  142.4470 O   0  0  0  0  0  0  0  0  0  0  0  0
  187.6820  176.6680  143.2480 C   0  0  2  0  0  3  0  0  0  0  0  0
  184.8550  178.5280  145.8970 C   0  0  0  0  0  3  0  0  0  0  0  0
  184.5220  178.3310  144.5540 C   0  0  0  0  0  3  0  0  0  0  0  0
  187.0540  177.5950  145.4980 C   0  0  0  0  0  3  0  0  0  0  0  0
  186.1230  178.1760  146.3670 C   0  0  0  0  0  0  0  0  0  0  0  0
  185.4560  177.7610  143.6870 C   0  0  0  0  0  3  0  0  0  0  0  0
  186.7250  177.3910  144.1530 C   0  0  0  0  0  0  0  0  0  0  0  0
  186.4450  178.3560  147.7390 N   0  0  0  0  0  1  0  0  0  0  0  0
  188.5660  177.9150  142.1550 P   0  0  0  0  0  2  0  0  0  0  0  0
  190.2850  177.5120  142.7610 C   0  0  0  0  0  2  0  0  0  0  0  0
  190.4510  177.9500  144.2040 C   0  0  0  0  0  1  0  0  0  0  0  0
  1  2  1  0  0  0  0
  2 18  1  6  0  0  0
  2  4  1  0  0  0  0
  2 10  1  0  0  0  0
  5 14  1  0  0  0  0
  6  1  1  0  0  0  0
  7 15  1  0  0  0  0
  9 19  1  0  0  0  0
 10  4  1  6  0  0  0
 10 11  1  0  0  0  0
 11 33  1  1  0  0  0
 11 13  1  0  0  0  0
 12 24  1  1  0  0  0
 12  7  1  0  0  0  0
 13 21  1  6  0  0  0
 13  9  1  0  0  0  0
 14 20  1  0  0  0  0
 14 19  1  0  0  0  0
 15 22  1  0  0  0  0
 16  3  1  6  0  0  0
 16 20  1  0  0  0  0
 17 12  1  0  0  0  0
 17  6  1  0  0  0  0
 19 21  1  6  0  0  0
 20 23  1  1  0  0  0
 22  8  1  6  0  0  0
 22 16  1  0  0  0  0
 25 24  1  1  0  0  0
 26 27  1  0  0  0  0
 26 25  1  0  0  0  0
 27 25  1  0  0  0  0
 28 26  1  0  0  0  0
 29 28  1  0  0  0  0
 32 29  1  0  0  0  0
 32 30  1  0  0  0  0
 32 31  1  0  0  0  0
 33 34  1  0  0  0  0
 35 36  1  0  0  0  0
 35 34  1  0  0  0  0
 36 37  1  0  0  0  0
 37 45  1  6  0  0  0
 37 43  1  0  0  0  0
 38 41  1  0  0  0  0
 39 38  2  0  0  0  0
 40 41  2  0  0  0  0
 41 44  1  0  0  0  0
 42 43  2  0  0  0  0
 42 39  1  0  0  0  0
 43 40  1  0  0  0  0
 45 46  1  0  0  0  0
 46 47  1  0  0  0  0
M  END
>  <MODEL>
9

>  <REMARK>
 VINA RESULT:      -6.2      3.447      4.591
  Name = 
  13 active torsions:
  status: ('A' for Active; 'I' for Inactive)
    1  A    between atoms: C_2  and  C_5
    2  A    between atoms: C_2  and  C_28
    3  A    between atoms: C_12  and  O_36
    4  A    between atoms: C_12  and  C_37
    5  A    between atoms: C_14  and  P_26
    6  A    between atoms: N_15  and  O_36
    7  A    between atoms: C_16  and  N_20
    8  A    between atoms: C_16  and  P_22
    9  A    between atoms: N_20  and  C_25
   10  A    between atoms: P_22  and  O_41
   11  A    between atoms: P_26  and  C_39
   12  A    between atoms: C_39  and  C_40
   13  A    between atoms: C_39  and  O_41
                            x       y       z     vdW  Elec       q    Type
                         _______ _______ _______ _____ _____    ______ ____

>  <TORSDO>
F 13

$$$$
