=
 OpenBabel11072408283D

 34 37  0  0  1  0  0  0  0  0999 V2000
  187.4730  176.3210  142.7860 C   0  0  0  0  0  3  0  0  0  0  0  0
  187.9670  175.9400  146.4930 C   0  0  0  0  0  2  0  0  0  0  0  0
  185.4230  177.5620  142.3700 C   0  0  0  0  0  0  0  0  0  0  0  0
  184.2600  178.6040  144.2460 C   0  0  0  0  0  3  0  0  0  0  0  0
  186.2230  177.6630  146.0210 C   0  0  0  0  0  0  0  0  0  0  0  0
  185.0380  178.7400  147.8440 O   0  0  0  0  0  1  0  0  0  0  0  0
  186.5050  176.8030  141.9050 C   0  0  0  0  0  3  0  0  0  0  0  0
  186.3190  177.3700  144.6420 C   0  0  0  0  0  0  0  0  0  0  0  0
  185.3280  177.8480  143.7470 C   0  0  0  0  0  0  0  0  0  0  0  0
  184.1680  178.8900  145.6100 C   0  0  0  0  0  3  0  0  0  0  0  0
  187.3930  176.5960  144.1570 C   0  0  0  0  0  0  0  0  0  0  0  0
  187.3160  177.2360  146.9670 C   0  0  0  0  0  2  0  0  0  0  0  0
  185.1450  178.4290  146.4940 C   0  0  0  0  0  0  0  0  0  0  0  0
  188.3590  176.0630  145.0920 N   0  0  0  0  0  0  0  0  0  0  0  0
  189.7030  175.5960  144.7290 C   0  0  2  0  0  3  0  0  0  0  0  0
  190.5670  173.3470  145.0900 O   0  0  0  0  0  1  0  0  0  0  0  0
  190.3040  174.5740  145.7050 C   0  0  1  0  0  3  0  0  0  0  0  0
  191.2960  176.6270  148.3990 O   0  0  0  0  0  0  0  0  0  0  0  0
  192.8210  174.6300  145.9960 N   0  0  0  0  0  1  0  0  0  0  0  0
  191.5300  175.0940  146.3830 C   0  0  0  0  0  0  0  0  0  0  0  0
  191.4120  175.8790  147.4170 C   0  0  0  0  0  0  0  0  0  0  0  0
  190.4580  177.8510  144.8810 O   0  0  0  0  0  0  0  0  0  0  0  0
  190.6240  176.7170  144.3540 C   0  0  0  0  0  0  0  0  0  0  0  0
  191.5870  175.5390  142.4160 C   0  0  0  0  0  1  0  0  0  0  0  0
  191.6740  176.5000  143.4570 O   0  0  0  0  0  0  0  0  0  0  0  0
  184.4210  178.0690  141.4700 N   0  0  0  0  0  2  0  0  0  0  0  0
  183.0170  178.2600  141.7050 C   0  0  0  0  0  3  0  0  0  0  0  0
  182.0910  178.1390  140.7560 C   0  0  0  0  0  3  0  0  0  0  0  0
  180.2430  179.0950  142.1950 C   0  0  0  0  0  2  0  0  0  0  0  0
  178.3870  177.6340  140.6260 C   0  0  0  0  0  2  0  0  0  0  0  0
  180.6970  178.3320  141.0270 N   0  0  0  0  0  0  0  0  0  0  0  0
  177.9870  178.6830  141.4760 O   0  0  0  0  0  0  0  0  0  0  0  0
  178.8420  178.6330  142.5940 C   0  0  0  0  0  2  0  0  0  0  0  0
  179.7340  177.9650  139.9840 C   0  0  0  0  0  2  0  0  0  0  0  0
  1 11  1  0  0  0  0
  2 12  1  0  0  0  0
  3  9  2  0  0  0  0
  4 10  2  0  0  0  0
  5 13  2  0  0  0  0
  5 12  1  0  0  0  0
  7  3  1  0  0  0  0
  7  1  2  0  0  0  0
  8  5  1  0  0  0  0
  9  4  1  0  0  0  0
  9  8  1  0  0  0  0
 10 13  1  0  0  0  0
 11  8  2  0  0  0  0
 11 14  1  0  0  0  0
 13  6  1  0  0  0  0
 14  2  1  0  0  0  0
 15 23  1  1  0  0  0
 15 14  1  0  0  0  0
 15 17  1  0  0  0  0
 17 16  1  6  0  0  0
 17 20  1  0  0  0  0
 19 20  1  0  0  0  0
 20 21  2  0  0  0  0
 21 18  2  0  0  0  0
 23 22  2  0  0  0  0
 24 25  1  0  0  0  0
 25 23  1  0  0  0  0
 26 27  1  0  0  0  0
 26  3  1  0  0  0  0
 28 31  1  0  0  0  0
 28 27  2  0  0  0  0
 29 33  1  0  0  0  0
 30 32  1  0  0  0  0
 31 29  1  0  0  0  0
 32 33  1  0  0  0  0
 34 30  1  0  0  0  0
 34 31  1  0  0  0  0
M  END
>  <MODEL>
1

>  <REMARK>
 VINA RESULT:      -8.0      0.000      0.000
  Name = 
  8 active torsions:
  status: ('A' for Active; 'I' for Inactive)
    1  A    between atoms: C_7  and  N_28
    2  A    between atoms: C_11  and  C_25
    3  A    between atoms: C_11  and  CA_29
    4  A    between atoms: N_13  and  C_32
    5  A    between atoms: C_20  and  O_21
    6  A    between atoms: C_20  and  C_25
    7  A    between atoms: C_24  and  N_28
    8  A    between atoms: C_25  and  N_33
                            x       y       z     vdW  Elec       q    Type
                         _______ _______ _______ _____ _____    ______ ____

>  <TORSDO>
F 8

$$$$
=
 OpenBabel11072408283D

 34 37  0  0  1  0  0  0  0  0999 V2000
  187.4350  176.4960  142.5900 C   0  0  0  0  0  3  0  0  0  0  0  0
  188.0580  175.9450  146.2560 C   0  0  0  0  0  2  0  0  0  0  0  0
  185.3300  177.6800  142.3000 C   0  0  0  0  0  0  0  0  0  0  0  0
  184.1900  178.5810  144.2620 C   0  0  0  0  0  3  0  0  0  0  0  0
  186.2400  177.6250  145.9260 C   0  0  0  0  0  0  0  0  0  0  0  0
  185.0760  178.5620  147.8360 O   0  0  0  0  0  1  0  0  0  0  0  0
  186.4230  176.9860  141.7650 C   0  0  0  0  0  3  0  0  0  0  0  0
  186.3030  177.4050  144.5310 C   0  0  0  0  0  0  0  0  0  0  0  0
  185.2680  177.8920  143.6920 C   0  0  0  0  0  0  0  0  0  0  0  0
  184.1320  178.7940  145.6400 C   0  0  0  0  0  3  0  0  0  0  0  0
  187.3880  176.6980  143.9750 C   0  0  0  0  0  0  0  0  0  0  0  0
  187.3760  177.1910  146.8160 C   0  0  0  0  0  2  0  0  0  0  0  0
  185.1510  178.3250  146.4700 C   0  0  0  0  0  0  0  0  0  0  0  0
  188.4010  176.1540  144.8520 N   0  0  0  0  0  0  0  0  0  0  0  0
  189.7480  175.7560  144.4260 C   0  0  2  0  0  3  0  0  0  0  0  0
  190.2410  178.1340  144.6140 O   0  0  0  0  0  1  0  0  0  0  0  0
  190.6680  176.9290  144.0530 C   0  0  1  0  0  3  0  0  0  0  0  0
  192.7420  176.3420  146.8480 O   0  0  0  0  0  0  0  0  0  0  0  0
  193.0670  176.4500  143.3880 N   0  0  0  0  0  1  0  0  0  0  0  0
  192.0950  176.6620  144.4090 C   0  0  0  0  0  0  0  0  0  0  0  0
  192.4280  176.4960  145.6600 C   0  0  0  0  0  0  0  0  0  0  0  0
  190.2040  174.8320  142.2770 O   0  0  0  0  0  0  0  0  0  0  0  0
  189.7340  174.6350  143.4310 C   0  0  0  0  0  0  0  0  0  0  0  0
  189.8490  172.5870  144.7970 C   0  0  0  0  0  1  0  0  0  0  0  0
  189.2380  173.3790  143.7880 O   0  0  0  0  0  0  0  0  0  0  0  0
  184.2820  178.1950  141.4580 N   0  0  0  0  0  2  0  0  0  0  0  0
  182.8680  178.2350  141.7060 C   0  0  0  0  0  3  0  0  0  0  0  0
  181.9550  178.3110  140.7400 C   0  0  0  0  0  3  0  0  0  0  0  0
  180.0300  178.9860  142.2350 C   0  0  0  0  0  2  0  0  0  0  0  0
  178.3220  177.4390  140.5850 C   0  0  0  0  0  2  0  0  0  0  0  0
  180.5510  178.3440  141.0240 N   0  0  0  0  0  0  0  0  0  0  0  0
  177.8230  178.3890  141.4960 O   0  0  0  0  0  0  0  0  0  0  0  0
  178.6870  178.3610  142.6080 C   0  0  0  0  0  2  0  0  0  0  0  0
  179.6240  177.9430  139.9620 C   0  0  0  0  0  2  0  0  0  0  0  0
  1 11  1  0  0  0  0
  2 12  1  0  0  0  0
  3  9  2  0  0  0  0
  4 10  2  0  0  0  0
  5 13  2  0  0  0  0
  5 12  1  0  0  0  0
  7  3  1  0  0  0  0
  7  1  2  0  0  0  0
  8  5  1  0  0  0  0
  9  4  1  0  0  0  0
  9  8  1  0  0  0  0
 10 13  1  0  0  0  0
 11  8  2  0  0  0  0
 11 14  1  0  0  0  0
 13  6  1  0  0  0  0
 14  2  1  0  0  0  0
 15 23  1  6  0  0  0
 15 14  1  0  0  0  0
 17 20  1  0  0  0  0
 17 15  1  0  0  0  0
 17 16  1  1  0  0  0
 19 20  1  0  0  0  0
 20 21  2  0  0  0  0
 21 18  2  0  0  0  0
 22 23  2  0  0  0  0
 23 25  1  0  0  0  0
 25 24  1  0  0  0  0
 26 27  1  0  0  0  0
 26  3  1  0  0  0  0
 28 31  1  0  0  0  0
 28 27  2  0  0  0  0
 29 33  1  0  0  0  0
 30 32  1  0  0  0  0
 31 29  1  0  0  0  0
 32 33  1  0  0  0  0
 34 30  1  0  0  0  0
 34 31  1  0  0  0  0
M  END
>  <MODEL>
2

>  <REMARK>
 VINA RESULT:      -8.0      1.112      1.829
  Name = 
  8 active torsions:
  status: ('A' for Active; 'I' for Inactive)
    1  A    between atoms: C_7  and  N_28
    2  A    between atoms: C_11  and  C_25
    3  A    between atoms: C_11  and  CA_29
    4  A    between atoms: N_13  and  C_32
    5  A    between atoms: C_20  and  O_21
    6  A    between atoms: C_20  and  C_25
    7  A    between atoms: C_24  and  N_28
    8  A    between atoms: C_25  and  N_33
                            x       y       z     vdW  Elec       q    Type
                         _______ _______ _______ _____ _____    ______ ____

>  <TORSDO>
F 8

$$$$
=
 OpenBabel11072408283D

 34 37  0  0  1  0  0  0  0  0999 V2000
  187.2560  176.9590  142.1550 C   0  0  0  0  0  3  0  0  0  0  0  0
  188.1060  176.2250  145.7420 C   0  0  0  0  0  2  0  0  0  0  0  0
  185.1050  178.0910  142.0530 C   0  0  0  0  0  0  0  0  0  0  0  0
  184.0570  178.8460  144.1240 C   0  0  0  0  0  3  0  0  0  0  0  0
  186.2260  177.8630  145.6120 C   0  0  0  0  0  0  0  0  0  0  0  0
  185.1500  178.6560  147.6360 O   0  0  0  0  0  1  0  0  0  0  0  0
  186.1840  177.4620  141.4170 C   0  0  0  0  0  3  0  0  0  0  0  0
  186.2140  177.7240  144.2060 C   0  0  0  0  0  0  0  0  0  0  0  0
  185.1190  178.2240  143.4560 C   0  0  0  0  0  0  0  0  0  0  0  0
  184.0730  178.9810  145.5140 C   0  0  0  0  0  3  0  0  0  0  0  0
  187.2840  177.0820  143.5500 C   0  0  0  0  0  0  0  0  0  0  0  0
  187.4250  177.4160  146.4100 C   0  0  0  0  0  2  0  0  0  0  0  0
  185.1520  178.4970  146.2560 C   0  0  0  0  0  0  0  0  0  0  0  0
  188.3610  176.5220  144.3350 N   0  0  0  0  0  0  0  0  0  0  0  0
  189.6920  176.1900  143.8110 C   0  0  2  0  0  3  0  0  0  0  0  0
  188.9840  173.8870  143.4530 O   0  0  0  0  0  1  0  0  0  0  0  0
  190.0430  174.6960  143.8700 C   0  0  1  0  0  3  0  0  0  0  0  0
  193.1100  172.9780  144.1820 O   0  0  0  0  0  0  0  0  0  0  0  0
  191.3870  174.7290  141.7220 N   0  0  0  0  0  1  0  0  0  0  0  0
  191.2820  174.3760  143.0990 C   0  0  0  0  0  0  0  0  0  0  0  0
  192.2200  173.6580  143.6520 C   0  0  0  0  0  0  0  0  0  0  0  0
  190.8980  178.2450  143.8090 O   0  0  0  0  0  0  0  0  0  0  0  0
  190.7630  177.1030  144.3270 C   0  0  0  0  0  0  0  0  0  0  0  0
  192.9920  176.8340  145.3420 C   0  0  0  0  0  1  0  0  0  0  0  0
  191.5780  176.7070  145.3900 O   0  0  0  0  0  0  0  0  0  0  0  0
  183.9960  178.6190  141.3020 N   0  0  0  0  0  2  0  0  0  0  0  0
  182.6560  178.1140  141.2050 C   0  0  0  0  0  3  0  0  0  0  0  0
  181.5730  178.8840  141.3040 C   0  0  0  0  0  3  0  0  0  0  0  0
  179.3950  178.1740  142.3760 C   0  0  0  0  0  2  0  0  0  0  0  0
  178.6160  177.0960  139.8720 C   0  0  0  0  0  2  0  0  0  0  0  0
  180.2490  178.3460  141.1960 N   0  0  0  0  0  0  0  0  0  0  0  0
  177.6920  177.3230  140.9100 O   0  0  0  0  0  0  0  0  0  0  0  0
  178.3770  177.0650  142.1120 C   0  0  0  0  0  2  0  0  0  0  0  0
  179.6700  178.2030  139.8570 C   0  0  0  0  0  2  0  0  0  0  0  0
  1 11  1  0  0  0  0
  2 12  1  0  0  0  0
  3  9  2  0  0  0  0
  4 10  2  0  0  0  0
  5 13  2  0  0  0  0
  5 12  1  0  0  0  0
  7  3  1  0  0  0  0
  7  1  2  0  0  0  0
  8  5  1  0  0  0  0
  9  4  1  0  0  0  0
  9  8  1  0  0  0  0
 10 13  1  0  0  0  0
 11  8  2  0  0  0  0
 11 14  1  0  0  0  0
 13  6  1  0  0  0  0
 14  2  1  0  0  0  0
 15 17  1  0  0  0  0
 15 23  1  1  0  0  0
 15 14  1  0  0  0  0
 17 16  1  6  0  0  0
 19 20  1  0  0  0  0
 20 21  2  0  0  0  0
 20 17  1  0  0  0  0
 21 18  2  0  0  0  0
 22 23  2  0  0  0  0
 23 25  1  0  0  0  0
 24 25  1  0  0  0  0
 26  3  1  0  0  0  0
 27 26  1  0  0  0  0
 27 28  2  0  0  0  0
 30 32  1  0  0  0  0
 31 28  1  0  0  0  0
 31 29  1  0  0  0  0
 32 33  1  0  0  0  0
 33 29  1  0  0  0  0
 34 30  1  0  0  0  0
 34 31  1  0  0  0  0
M  END
>  <MODEL>
3

>  <REMARK>
 VINA RESULT:      -7.9      1.470      1.950
  Name = 
  8 active torsions:
  status: ('A' for Active; 'I' for Inactive)
    1  A    between atoms: C_7  and  N_28
    2  A    between atoms: C_11  and  C_25
    3  A    between atoms: C_11  and  CA_29
    4  A    between atoms: N_13  and  C_32
    5  A    between atoms: C_20  and  O_21
    6  A    between atoms: C_20  and  C_25
    7  A    between atoms: C_24  and  N_28
    8  A    between atoms: C_25  and  N_33
                            x       y       z     vdW  Elec       q    Type
                         _______ _______ _______ _____ _____    ______ ____

>  <TORSDO>
F 8

$$$$
=
 OpenBabel11072408283D

 34 37  0  0  1  0  0  0  0  0999 V2000
  187.5140  175.2580  142.3280 C   0  0  0  0  0  3  0  0  0  0  0  0
  188.4810  177.4660  145.2120 C   0  0  0  0  0  2  0  0  0  0  0  0
  189.2050  173.5360  142.0310 C   0  0  0  0  0  0  0  0  0  0  0  0
  190.9550  173.2810  143.7130 C   0  0  0  0  0  3  0  0  0  0  0  0
  189.8500  175.3780  145.2190 C   0  0  0  0  0  0  0  0  0  0  0  0
  191.5980  175.0640  146.8710 O   0  0  0  0  0  1  0  0  0  0  0  0
  188.0560  174.2060  141.5900 C   0  0  0  0  0  3  0  0  0  0  0  0
  189.2470  174.9900  144.0010 C   0  0  0  0  0  0  0  0  0  0  0  0
  189.8050  173.9290  143.2430 C   0  0  0  0  0  0  0  0  0  0  0  0
  191.5470  173.6680  144.9170 C   0  0  0  0  0  3  0  0  0  0  0  0
  188.0990  175.6620  143.5350 C   0  0  0  0  0  0  0  0  0  0  0  0
  189.2150  176.4440  146.0760 C   0  0  0  0  0  2  0  0  0  0  0  0
  190.9980  174.7070  145.6700 C   0  0  0  0  0  0  0  0  0  0  0  0
  187.5810  176.7830  144.2870 N   0  0  0  0  0  0  0  0  0  0  0  0
  186.2190  177.3140  144.1620 C   0  0  2  0  0  3  0  0  0  0  0  0
  187.2890  178.7820  142.5380 O   0  0  0  0  0  1  0  0  0  0  0  0
  186.0820  178.4830  143.1740 C   0  0  1  0  0  3  0  0  0  0  0  0
  185.6270  177.5640  139.7970 O   0  0  0  0  0  0  0  0  0  0  0  0
  183.6330  178.2670  142.5570 N   0  0  0  0  0  1  0  0  0  0  0  0
  185.0040  178.2470  142.1660 C   0  0  0  0  0  0  0  0  0  0  0  0
  185.3220  177.8960  140.9510 C   0  0  0  0  0  0  0  0  0  0  0  0
  185.1730  176.5430  146.1590 O   0  0  0  0  0  0  0  0  0  0  0  0
  185.5600  177.5400  145.4890 C   0  0  0  0  0  0  0  0  0  0  0  0
  185.6830  179.1520  147.3480 C   0  0  0  0  0  1  0  0  0  0  0  0
  185.4070  178.8340  145.9920 O   0  0  0  0  0  0  0  0  0  0  0  0
  189.7710  172.4450  141.2810 N   0  0  0  0  0  2  0  0  0  0  0  0
  189.7460  172.2220  139.8620 C   0  0  0  0  0  3  0  0  0  0  0  0
  190.3490  173.0210  138.9830 C   0  0  0  0  0  3  0  0  0  0  0  0
  190.6530  173.8030  136.5970 C   0  0  0  0  0  2  0  0  0  0  0  0
  189.5200  171.3500  135.7420 C   0  0  0  0  0  2  0  0  0  0  0  0
  190.3090  172.7650  137.5740 N   0  0  0  0  0  0  0  0  0  0  0  0
  190.2320  172.1910  134.8660 O   0  0  0  0  0  0  0  0  0  0  0  0
  189.9530  173.5100  135.2710 C   0  0  0  0  0  2  0  0  0  0  0  0
  190.1600  171.3760  137.1300 C   0  0  0  0  0  2  0  0  0  0  0  0
  1 11  1  0  0  0  0
  2 12  1  0  0  0  0
  3  9  2  0  0  0  0
  4 10  2  0  0  0  0
  5 13  2  0  0  0  0
  5 12  1  0  0  0  0
  7  3  1  0  0  0  0
  7  1  2  0  0  0  0
  8  5  1  0  0  0  0
  9  4  1  0  0  0  0
  9  8  1  0  0  0  0
 10 13  1  0  0  0  0
 11  8  2  0  0  0  0
 11 14  1  0  0  0  0
 13  6  1  0  0  0  0
 14  2  1  0  0  0  0
 15 14  1  0  0  0  0
 15 23  1  1  0  0  0
 17 16  1  6  0  0  0
 17 15  1  0  0  0  0
 18 21  2  0  0  0  0
 20 19  1  0  0  0  0
 20 17  1  0  0  0  0
 21 20  2  0  0  0  0
 23 25  1  0  0  0  0
 23 22  2  0  0  0  0
 25 24  1  0  0  0  0
 26  3  1  0  0  0  0
 27 26  1  0  0  0  0
 28 27  2  0  0  0  0
 29 31  1  0  0  0  0
 30 34  1  0  0  0  0
 31 28  1  0  0  0  0
 32 33  1  0  0  0  0
 32 30  1  0  0  0  0
 33 29  1  0  0  0  0
 34 31  1  0  0  0  0
M  END
>  <MODEL>
4

>  <REMARK>
 VINA RESULT:      -7.4      4.119      8.352
  Name = 
  8 active torsions:
  status: ('A' for Active; 'I' for Inactive)
    1  A    between atoms: C_7  and  N_28
    2  A    between atoms: C_11  and  C_25
    3  A    between atoms: C_11  and  CA_29
    4  A    between atoms: N_13  and  C_32
    5  A    between atoms: C_20  and  O_21
    6  A    between atoms: C_20  and  C_25
    7  A    between atoms: C_24  and  N_28
    8  A    between atoms: C_25  and  N_33
                            x       y       z     vdW  Elec       q    Type
                         _______ _______ _______ _____ _____    ______ ____

>  <TORSDO>
F 8

$$$$
=
 OpenBabel11072408283D

 34 37  0  0  1  0  0  0  0  0999 V2000
  192.0950  176.9120  143.4620 C   0  0  0  0  0  3  0  0  0  0  0  0
  193.5130  173.4980  142.7840 C   0  0  0  0  0  2  0  0  0  0  0  0
  189.7860  176.9910  142.7020 C   0  0  0  0  0  0  0  0  0  0  0  0
  188.6940  174.9250  141.9940 C   0  0  0  0  0  3  0  0  0  0  0  0
  191.0270  173.4670  142.5580 C   0  0  0  0  0  0  0  0  0  0  0  0
  189.8840  171.4420  141.8660 O   0  0  0  0  0  1  0  0  0  0  0  0
  190.9300  177.6310  143.1960 C   0  0  0  0  0  3  0  0  0  0  0  0
  191.0000  174.8640  142.7700 C   0  0  0  0  0  0  0  0  0  0  0  0
  189.8190  175.5990  142.4870 C   0  0  0  0  0  0  0  0  0  0  0  0
  188.7270  173.5450  141.7850 C   0  0  0  0  0  3  0  0  0  0  0  0
  192.1450  175.5280  143.2540 C   0  0  0  0  0  0  0  0  0  0  0  0
  192.2440  172.6640  142.9390 C   0  0  0  0  0  2  0  0  0  0  0  0
  189.8830  172.8170  142.0690 C   0  0  0  0  0  0  0  0  0  0  0  0
  193.3580  174.7740  143.4760 N   0  0  0  0  0  0  0  0  0  0  0  0
  194.4730  175.2170  144.3220 C   0  0  2  0  0  3  0  0  0  0  0  0
  196.8790  175.1850  143.9400 O   0  0  0  0  0  1  0  0  0  0  0  0
  195.7560  174.3870  144.1670 C   0  0  1  0  0  3  0  0  0  0  0  0
  194.7680  171.2500  145.4480 O   0  0  0  0  0  0  0  0  0  0  0  0
  196.9790  173.7910  146.3060 N   0  0  0  0  0  1  0  0  0  0  0  0
  195.9860  173.4800  145.3330 C   0  0  0  0  0  0  0  0  0  0  0  0
  195.3630  172.3350  145.3930 C   0  0  0  0  0  0  0  0  0  0  0  0
  194.6120  176.4020  146.3850 O   0  0  0  0  0  0  0  0  0  0  0  0
  194.0600  175.4680  145.7410 C   0  0  0  0  0  0  0  0  0  0  0  0
  191.9260  175.2890  146.9600 C   0  0  0  0  0  1  0  0  0  0  0  0
  193.0540  174.6980  146.3320 O   0  0  0  0  0  0  0  0  0  0  0  0
  188.5760  177.7210  142.4280 N   0  0  0  0  0  2  0  0  0  0  0  0
  187.5210  178.0840  143.3320 C   0  0  0  0  0  3  0  0  0  0  0  0
  187.2850  177.4460  144.4770 C   0  0  0  0  0  3  0  0  0  0  0  0
  184.8370  177.9200  144.8990 C   0  0  0  0  0  2  0  0  0  0  0  0
  185.5590  178.9070  147.4560 C   0  0  0  0  0  2  0  0  0  0  0  0
  186.2260  177.8390  145.3590 N   0  0  0  0  0  0  0  0  0  0  0  0
  184.2290  178.5830  147.1270 O   0  0  0  0  0  0  0  0  0  0  0  0
  184.0670  178.9130  145.7680 C   0  0  0  0  0  2  0  0  0  0  0  0
  186.5190  177.9180  146.7940 C   0  0  0  0  0  2  0  0  0  0  0  0
  2 12  1  0  0  0  0
  2 14  1  0  0  0  0
  3  7  1  0  0  0  0
  4  9  1  0  0  0  0
  5  8  1  0  0  0  0
  5 12  1  0  0  0  0
  6 13  1  0  0  0  0
  7  1  2  0  0  0  0
  8 11  2  0  0  0  0
  9  3  2  0  0  0  0
  9  8  1  0  0  0  0
 10  4  2  0  0  0  0
 10 13  1  0  0  0  0
 11  1  1  0  0  0  0
 11 14  1  0  0  0  0
 13  5  2  0  0  0  0
 14 15  1  0  0  0  0
 15 23  1  1  0  0  0
 17 16  1  1  0  0  0
 17 15  1  0  0  0  0
 17 20  1  0  0  0  0
 20 21  2  0  0  0  0
 20 19  1  0  0  0  0
 21 18  2  0  0  0  0
 23 25  1  0  0  0  0
 23 22  2  0  0  0  0
 25 24  1  0  0  0  0
 26  3  1  0  0  0  0
 26 27  1  0  0  0  0
 27 28  2  0  0  0  0
 28 31  1  0  0  0  0
 29 31  1  0  0  0  0
 29 33  1  0  0  0  0
 31 34  1  0  0  0  0
 32 30  1  0  0  0  0
 33 32  1  0  0  0  0
 34 30  1  0  0  0  0
M  END
>  <MODEL>
5

>  <REMARK>
 VINA RESULT:      -7.1      3.689      6.384
  Name = 
  8 active torsions:
  status: ('A' for Active; 'I' for Inactive)
    1  A    between atoms: C_7  and  N_28
    2  A    between atoms: C_11  and  C_25
    3  A    between atoms: C_11  and  CA_29
    4  A    between atoms: N_13  and  C_32
    5  A    between atoms: C_20  and  O_21
    6  A    between atoms: C_20  and  C_25
    7  A    between atoms: C_24  and  N_28
    8  A    between atoms: C_25  and  N_33
                            x       y       z     vdW  Elec       q    Type
                         _______ _______ _______ _____ _____    ______ ____

>  <TORSDO>
F 8

$$$$
=
 OpenBabel11072408283D

 34 37  0  0  1  0  0  0  0  0999 V2000
  187.6050  175.4410  142.7580 C   0  0  0  0  0  3  0  0  0  0  0  0
  189.2740  177.9090  145.0500 C   0  0  0  0  0  2  0  0  0  0  0  0
  189.0740  173.5320  142.4240 C   0  0  0  0  0  0  0  0  0  0  0  0
  191.0950  173.3310  143.7790 C   0  0  0  0  0  3  0  0  0  0  0  0
  190.4600  175.7140  145.1240 C   0  0  0  0  0  0  0  0  0  0  0  0
  192.4680  175.4510  146.4600 O   0  0  0  0  0  1  0  0  0  0  0  0
  187.9150  174.2500  142.1020 C   0  0  0  0  0  3  0  0  0  0  0  0
  189.6060  175.2280  144.1090 C   0  0  0  0  0  0  0  0  0  0  0  0
  189.9260  174.0220  143.4330 C   0  0  0  0  0  0  0  0  0  0  0  0
  191.9360  173.8160  144.7820 C   0  0  0  0  0  3  0  0  0  0  0  0
  188.4420  175.9430  143.7630 C   0  0  0  0  0  0  0  0  0  0  0  0
  190.0840  176.9440  145.9100 C   0  0  0  0  0  2  0  0  0  0  0  0
  191.6220  174.9970  145.4560 C   0  0  0  0  0  0  0  0  0  0  0  0
  188.1640  177.2010  144.4180 N   0  0  0  0  0  0  0  0  0  0  0  0
  186.8460  177.8460  144.4630 C   0  0  2  0  0  3  0  0  0  0  0  0
  186.5410  176.4160  146.4110 O   0  0  0  0  0  1  0  0  0  0  0  0
  185.8870  177.2590  145.5100 C   0  0  1  0  0  3  0  0  0  0  0  0
  186.3000  179.6840  148.0410 O   0  0  0  0  0  0  0  0  0  0  0  0
  183.8050  178.6650  145.8430 N   0  0  0  0  0  1  0  0  0  0  0  0
  185.1300  178.3200  146.2400 C   0  0  0  0  0  0  0  0  0  0  0  0
  185.7290  179.0220  147.1630 C   0  0  0  0  0  0  0  0  0  0  0  0
  186.8980  178.6590  142.2240 O   0  0  0  0  0  0  0  0  0  0  0  0
  186.2450  178.0330  143.1030 C   0  0  0  0  0  0  0  0  0  0  0  0
  183.9350  178.2830  142.2820 C   0  0  0  0  0  1  0  0  0  0  0  0
  184.9920  177.4910  142.8020 O   0  0  0  0  0  0  0  0  0  0  0  0
  189.4020  172.2980  141.7580 N   0  0  0  0  0  2  0  0  0  0  0  0
  189.8540  172.0980  140.4090 C   0  0  0  0  0  3  0  0  0  0  0  0
  190.5590  173.0010  139.7300 C   0  0  0  0  0  3  0  0  0  0  0  0
  190.5440  173.6050  137.2740 C   0  0  0  0  0  2  0  0  0  0  0  0
  192.0130  171.2330  136.7720 C   0  0  0  0  0  2  0  0  0  0  0  0
  190.9980  172.7650  138.3860 N   0  0  0  0  0  0  0  0  0  0  0  0
  191.9080  172.2640  135.8200 O   0  0  0  0  0  0  0  0  0  0  0  0
  190.6200  172.8110  135.9700 C   0  0  0  0  0  2  0  0  0  0  0  0
  192.1040  171.8250  138.1790 C   0  0  0  0  0  2  0  0  0  0  0  0
  1 11  1  0  0  0  0
  2 12  1  0  0  0  0
  3  9  2  0  0  0  0
  4 10  2  0  0  0  0
  5 13  2  0  0  0  0
  5 12  1  0  0  0  0
  7  3  1  0  0  0  0
  7  1  2  0  0  0  0
  8  5  1  0  0  0  0
  9  4  1  0  0  0  0
  9  8  1  0  0  0  0
 10 13  1  0  0  0  0
 11  8  2  0  0  0  0
 11 14  1  0  0  0  0
 13  6  1  0  0  0  0
 14 15  1  0  0  0  0
 14  2  1  0  0  0  0
 15 23  1  6  0  0  0
 15 17  1  0  0  0  0
 17 20  1  0  0  0  0
 17 16  1  1  0  0  0
 19 20  1  0  0  0  0
 20 21  2  0  0  0  0
 21 18  2  0  0  0  0
 22 23  2  0  0  0  0
 24 25  1  0  0  0  0
 25 23  1  0  0  0  0
 26  3  1  0  0  0  0
 27 26  1  0  0  0  0
 28 27  2  0  0  0  0
 29 31  1  0  0  0  0
 30 34  1  0  0  0  0
 31 28  1  0  0  0  0
 32 33  1  0  0  0  0
 32 30  1  0  0  0  0
 33 29  1  0  0  0  0
 34 31  1  0  0  0  0
M  END
>  <MODEL>
6

>  <REMARK>
 VINA RESULT:      -7.0      3.818      8.283
  Name = 
  8 active torsions:
  status: ('A' for Active; 'I' for Inactive)
    1  A    between atoms: C_7  and  N_28
    2  A    between atoms: C_11  and  C_25
    3  A    between atoms: C_11  and  CA_29
    4  A    between atoms: N_13  and  C_32
    5  A    between atoms: C_20  and  O_21
    6  A    between atoms: C_20  and  C_25
    7  A    between atoms: C_24  and  N_28
    8  A    between atoms: C_25  and  N_33
                            x       y       z     vdW  Elec       q    Type
                         _______ _______ _______ _____ _____    ______ ____

>  <TORSDO>
F 8

$$$$
=
 OpenBabel11072408283D

 34 37  0  0  1  0  0  0  0  0999 V2000
  193.6870  175.4730  145.9560 C   0  0  0  0  0  3  0  0  0  0  0  0
  194.6540  173.1210  143.1880 C   0  0  0  0  0  2  0  0  0  0  0  0
  191.3040  175.2630  146.3950 C   0  0  0  0  0  0  0  0  0  0  0  0
  190.0490  173.4650  145.3220 C   0  0  0  0  0  3  0  0  0  0  0  0
  192.3850  172.5520  144.0590 C   0  0  0  0  0  0  0  0  0  0  0  0
  191.0930  170.7690  143.0400 O   0  0  0  0  0  1  0  0  0  0  0  0
  192.5280  175.9150  146.5940 C   0  0  0  0  0  3  0  0  0  0  0  0
  192.4360  173.6820  144.9060 C   0  0  0  0  0  0  0  0  0  0  0  0
  191.2560  174.1400  145.5460 C   0  0  0  0  0  0  0  0  0  0  0  0
  190.0030  172.3490  144.4840 C   0  0  0  0  0  3  0  0  0  0  0  0
  193.6560  174.3590  145.1090 C   0  0  0  0  0  0  0  0  0  0  0  0
  193.6480  172.0040  143.4450 C   0  0  0  0  0  2  0  0  0  0  0  0
  191.1630  171.8900  143.8580 C   0  0  0  0  0  0  0  0  0  0  0  0
  194.8360  173.9170  144.3990 N   0  0  0  0  0  0  0  0  0  0  0  0
  196.2140  174.2430  144.7860 C   0  0  2  0  0  3  0  0  0  0  0  0
  197.2050  173.6100  142.6530 O   0  0  0  0  0  1  0  0  0  0  0  0
  197.1300  174.6220  143.6120 C   0  0  1  0  0  3  0  0  0  0  0  0
  196.5770  176.0780  140.4450 O   0  0  0  0  0  0  0  0  0  0  0  0
  196.3030  177.0120  143.7830 N   0  0  0  0  0  1  0  0  0  0  0  0
  196.7300  175.9150  142.9790 C   0  0  0  0  0  0  0  0  0  0  0  0
  196.6500  176.0000  141.6790 C   0  0  0  0  0  0  0  0  0  0  0  0
  197.1920  173.6360  146.8720 O   0  0  0  0  0  0  0  0  0  0  0  0
  196.8010  173.2460  145.7380 C   0  0  0  0  0  0  0  0  0  0  0  0
  196.0980  170.9020  146.0270 C   0  0  0  0  0  1  0  0  0  0  0  0
  196.8840  171.8960  145.3860 O   0  0  0  0  0  0  0  0  0  0  0  0
  190.1020  175.7060  147.0520 N   0  0  0  0  0  2  0  0  0  0  0  0
  189.0300  176.5020  146.5220 C   0  0  0  0  0  3  0  0  0  0  0  0
  187.7480  176.1490  146.5960 C   0  0  0  0  0  3  0  0  0  0  0  0
  186.9290  177.8380  144.9010 C   0  0  0  0  0  2  0  0  0  0  0  0
  184.5230  178.0310  146.3860 C   0  0  0  0  0  2  0  0  0  0  0  0
  186.7030  176.9710  146.0620 N   0  0  0  0  0  0  0  0  0  0  0  0
  184.6300  178.5150  145.0690 O   0  0  0  0  0  0  0  0  0  0  0  0
  185.9430  179.0050  144.9340 C   0  0  0  0  0  2  0  0  0  0  0  0
  185.3360  176.7460  146.5410 C   0  0  0  0  0  2  0  0  0  0  0  0
  1  7  1  0  0  0  0
  2 12  1  0  0  0  0
  2 14  1  0  0  0  0
  3  7  2  0  0  0  0
  3 26  1  0  0  0  0
  4  9  1  0  0  0  0
  5  8  1  0  0  0  0
  6 13  1  0  0  0  0
  8 11  1  0  0  0  0
  8  9  2  0  0  0  0
  9  3  1  0  0  0  0
 10  4  2  0  0  0  0
 11  1  2  0  0  0  0
 12  5  1  0  0  0  0
 13  5  2  0  0  0  0
 13 10  1  0  0  0  0
 14 15  1  0  0  0  0
 14 11  1  0  0  0  0
 15 23  1  6  0  0  0
 17 16  1  6  0  0  0
 17 15  1  0  0  0  0
 18 21  2  0  0  0  0
 20 17  1  0  0  0  0
 20 19  1  0  0  0  0
 21 20  2  0  0  0  0
 23 22  2  0  0  0  0
 25 23  1  0  0  0  0
 25 24  1  0  0  0  0
 27 28  2  0  0  0  0
 27 26  1  0  0  0  0
 29 33  1  0  0  0  0
 29 31  1  0  0  0  0
 30 34  1  0  0  0  0
 31 34  1  0  0  0  0
 31 28  1  0  0  0  0
 32 30  1  0  0  0  0
 33 32  1  0  0  0  0
M  END
>  <MODEL>
7

>  <REMARK>
 VINA RESULT:      -6.9      4.301      7.828
  Name = 
  8 active torsions:
  status: ('A' for Active; 'I' for Inactive)
    1  A    between atoms: C_7  and  N_28
    2  A    between atoms: C_11  and  C_25
    3  A    between atoms: C_11  and  CA_29
    4  A    between atoms: N_13  and  C_32
    5  A    between atoms: C_20  and  O_21
    6  A    between atoms: C_20  and  C_25
    7  A    between atoms: C_24  and  N_28
    8  A    between atoms: C_25  and  N_33
                            x       y       z     vdW  Elec       q    Type
                         _______ _______ _______ _____ _____    ______ ____

>  <TORSDO>
F 8

$$$$
=
 OpenBabel11072408283D

 34 37  0  0  1  0  0  0  0  0999 V2000
  190.8130  173.2190  144.6740 C   0  0  0  0  0  3  0  0  0  0  0  0
  194.5260  173.7300  144.4000 C   0  0  0  0  0  2  0  0  0  0  0  0
  189.9210  174.6940  146.3910 C   0  0  0  0  0  0  0  0  0  0  0  0
  191.3690  176.4020  147.3630 C   0  0  0  0  0  3  0  0  0  0  0  0
  193.4880  175.5840  145.7120 C   0  0  0  0  0  0  0  0  0  0  0  0
  194.8740  177.3150  146.6950 O   0  0  0  0  0  1  0  0  0  0  0  0
  189.7580  173.6370  145.4850 C   0  0  0  0  0  3  0  0  0  0  0  0
  192.2400  174.9260  145.6350 C   0  0  0  0  0  0  0  0  0  0  0  0
  191.1700  175.3430  146.4680 C   0  0  0  0  0  0  0  0  0  0  0  0
  192.6050  177.0480  147.4360 C   0  0  0  0  0  3  0  0  0  0  0  0
  192.0600  173.8530  144.7390 C   0  0  0  0  0  0  0  0  0  0  0  0
  194.6040  175.2090  144.7700 C   0  0  0  0  0  2  0  0  0  0  0  0
  193.6590  176.6470  146.6130 C   0  0  0  0  0  0  0  0  0  0  0  0
  193.1790  173.4010  143.9440 N   0  0  0  0  0  0  0  0  0  0  0  0
  193.0640  172.5950  142.7220 C   0  0  2  0  0  3  0  0  0  0  0  0
  193.1640  170.7330  144.2900 O   0  0  0  0  0  1  0  0  0  0  0  0
  193.2370  171.0840  142.9400 C   0  0  1  0  0  3  0  0  0  0  0  0
  189.9070  171.1660  141.7740 O   0  0  0  0  0  0  0  0  0  0  0  0
  192.6860  169.1010  141.4610 N   0  0  0  0  0  1  0  0  0  0  0  0
  192.2640  170.2830  142.1370 C   0  0  0  0  0  0  0  0  0  0  0  0
  191.0550  170.7350  141.9490 C   0  0  0  0  0  0  0  0  0  0  0  0
  194.7890  172.4650  141.0840 O   0  0  0  0  0  0  0  0  0  0  0  0
  193.8580  173.1550  141.5810 C   0  0  0  0  0  0  0  0  0  0  0  0
  193.9170  174.7840  139.7340 C   0  0  0  0  0  1  0  0  0  0  0  0
  193.5480  174.4110  141.0530 O   0  0  0  0  0  0  0  0  0  0  0  0
  188.8390  175.1380  147.2290 N   0  0  0  0  0  2  0  0  0  0  0  0
  187.7320  175.9890  146.8910 C   0  0  0  0  0  3  0  0  0  0  0  0
  187.6250  176.6240  145.7250 C   0  0  0  0  0  3  0  0  0  0  0  0
  186.5500  178.4340  144.3230 C   0  0  0  0  0  2  0  0  0  0  0  0
  184.3740  178.4270  146.1390 C   0  0  0  0  0  2  0  0  0  0  0  0
  186.5030  177.4620  145.4190 N   0  0  0  0  0  0  0  0  0  0  0  0
  184.2880  179.0300  144.8700 O   0  0  0  0  0  0  0  0  0  0  0  0
  185.5620  179.5650  144.5990 C   0  0  0  0  0  2  0  0  0  0  0  0
  185.2200  177.1570  146.0600 C   0  0  0  0  0  2  0  0  0  0  0  0
  1 11  2  0  0  0  0
  1  7  1  0  0  0  0
  2 12  1  0  0  0  0
  3  9  1  0  0  0  0
  3 26  1  0  0  0  0
  4 10  1  0  0  0  0
  5 13  1  0  0  0  0
  7  3  2  0  0  0  0
  8  5  2  0  0  0  0
  8  9  1  0  0  0  0
  9  4  2  0  0  0  0
 11  8  1  0  0  0  0
 12  5  1  0  0  0  0
 13  6  1  0  0  0  0
 13 10  2  0  0  0  0
 14  2  1  0  0  0  0
 14 11  1  0  0  0  0
 15 23  1  6  0  0  0
 15 17  1  0  0  0  0
 15 14  1  0  0  0  0
 17 16  1  1  0  0  0
 18 21  2  0  0  0  0
 19 20  1  0  0  0  0
 20 17  1  0  0  0  0
 21 20  2  0  0  0  0
 22 23  2  0  0  0  0
 24 25  1  0  0  0  0
 25 23  1  0  0  0  0
 27 26  1  0  0  0  0
 28 27  2  0  0  0  0
 29 33  1  0  0  0  0
 29 31  1  0  0  0  0
 31 28  1  0  0  0  0
 31 34  1  0  0  0  0
 32 30  1  0  0  0  0
 33 32  1  0  0  0  0
 34 30  1  0  0  0  0
M  END
>  <MODEL>
8

>  <REMARK>
 VINA RESULT:      -6.9      3.891      6.994
  Name = 
  8 active torsions:
  status: ('A' for Active; 'I' for Inactive)
    1  A    between atoms: C_7  and  N_28
    2  A    between atoms: C_11  and  C_25
    3  A    between atoms: C_11  and  CA_29
    4  A    between atoms: N_13  and  C_32
    5  A    between atoms: C_20  and  O_21
    6  A    between atoms: C_20  and  C_25
    7  A    between atoms: C_24  and  N_28
    8  A    between atoms: C_25  and  N_33
                            x       y       z     vdW  Elec       q    Type
                         _______ _______ _______ _____ _____    ______ ____

>  <TORSDO>
F 8

$$$$
=
 OpenBabel11072408283D

 34 37  0  0  1  0  0  0  0  0999 V2000
  188.1390  175.3750  142.1540 C   0  0  0  0  0  3  0  0  0  0  0  0
  188.7180  177.5330  145.1770 C   0  0  0  0  0  2  0  0  0  0  0  0
  189.9670  173.7840  141.9390 C   0  0  0  0  0  0  0  0  0  0  0  0
  191.5930  173.5860  143.7480 C   0  0  0  0  0  3  0  0  0  0  0  0
  190.2270  175.5450  145.2270 C   0  0  0  0  0  0  0  0  0  0  0  0
  191.8580  175.2880  147.0040 O   0  0  0  0  0  1  0  0  0  0  0  0
  188.8110  174.3910  141.4290 C   0  0  0  0  0  3  0  0  0  0  0  0
  189.7510  175.1630  143.9520 C   0  0  0  0  0  0  0  0  0  0  0  0
  190.4400  174.1710  143.2080 C   0  0  0  0  0  0  0  0  0  0  0  0
  192.0600  173.9670  145.0080 C   0  0  0  0  0  3  0  0  0  0  0  0
  188.5980  175.7720  143.4170 C   0  0  0  0  0  0  0  0  0  0  0  0
  189.4530  176.5310  146.0630 C   0  0  0  0  0  2  0  0  0  0  0  0
  191.3810  174.9370  145.7480 C   0  0  0  0  0  0  0  0  0  0  0  0
  187.9450  176.8250  144.1610 N   0  0  0  0  0  0  0  0  0  0  0  0
  186.5620  177.2670  143.9430 C   0  0  2  0  0  3  0  0  0  0  0  0
  187.6310  178.7710  142.3520 O   0  0  0  0  0  1  0  0  0  0  0  0
  186.4170  178.4360  142.9560 C   0  0  1  0  0  3  0  0  0  0  0  0
  186.0720  177.5570  139.5550 O   0  0  0  0  0  0  0  0  0  0  0  0
  183.9930  178.1340  142.2810 N   0  0  0  0  0  1  0  0  0  0  0  0
  185.3710  178.1750  141.9210 C   0  0  0  0  0  0  0  0  0  0  0  0
  185.7290  177.8570  140.7080 C   0  0  0  0  0  0  0  0  0  0  0  0
  185.5570  176.4160  145.9290 O   0  0  0  0  0  0  0  0  0  0  0  0
  185.7980  177.4330  145.2220 C   0  0  0  0  0  0  0  0  0  0  0  0
  184.0140  179.0400  145.7760 C   0  0  0  0  0  1  0  0  0  0  0  0
  185.3860  178.7000  145.6410 O   0  0  0  0  0  0  0  0  0  0  0  0
  190.6660  172.7640  141.2020 N   0  0  0  0  0  2  0  0  0  0  0  0
  191.4450  172.8960  140.0040 C   0  0  0  0  0  3  0  0  0  0  0  0
  192.4360  173.7760  139.8660 C   0  0  0  0  0  3  0  0  0  0  0  0
  192.5570  174.1660  137.3700 C   0  0  0  0  0  2  0  0  0  0  0  0
  195.2870  173.4100  137.4730 C   0  0  0  0  0  2  0  0  0  0  0  0
  193.1980  173.8770  138.6570 N   0  0  0  0  0  0  0  0  0  0  0  0
  194.7370  174.0800  136.3640 O   0  0  0  0  0  0  0  0  0  0  0  0
  193.4160  173.6110  136.2350 C   0  0  0  0  0  2  0  0  0  0  0  0
  194.6590  173.9320  138.7650 C   0  0  0  0  0  2  0  0  0  0  0  0
  1 11  1  0  0  0  0
  2 12  1  0  0  0  0
  3  9  2  0  0  0  0
  4 10  2  0  0  0  0
  5 13  2  0  0  0  0
  5 12  1  0  0  0  0
  7  3  1  0  0  0  0
  7  1  2  0  0  0  0
  8  5  1  0  0  0  0
  9  4  1  0  0  0  0
  9  8  1  0  0  0  0
 10 13  1  0  0  0  0
 11  8  2  0  0  0  0
 11 14  1  0  0  0  0
 13  6  1  0  0  0  0
 14  2  1  0  0  0  0
 15 14  1  0  0  0  0
 15 23  1  1  0  0  0
 17 16  1  6  0  0  0
 17 15  1  0  0  0  0
 18 21  2  0  0  0  0
 20 19  1  0  0  0  0
 20 17  1  0  0  0  0
 21 20  2  0  0  0  0
 23 25  1  0  0  0  0
 23 22  2  0  0  0  0
 25 24  1  0  0  0  0
 26  3  1  0  0  0  0
 27 26  1  0  0  0  0
 28 27  2  0  0  0  0
 29 31  1  0  0  0  0
 30 34  1  0  0  0  0
 31 34  1  0  0  0  0
 31 28  1  0  0  0  0
 32 30  1  0  0  0  0
 33 32  1  0  0  0  0
 33 29  1  0  0  0  0
M  END
>  <MODEL>
9

>  <REMARK>
 VINA RESULT:      -6.7      3.616      9.224
  Name = 
  8 active torsions:
  status: ('A' for Active; 'I' for Inactive)
    1  A    between atoms: C_7  and  N_28
    2  A    between atoms: C_11  and  C_25
    3  A    between atoms: C_11  and  CA_29
    4  A    between atoms: N_13  and  C_32
    5  A    between atoms: C_20  and  O_21
    6  A    between atoms: C_20  and  C_25
    7  A    between atoms: C_24  and  N_28
    8  A    between atoms: C_25  and  N_33
                            x       y       z     vdW  Elec       q    Type
                         _______ _______ _______ _____ _____    ______ ____

>  <TORSDO>
F 8

$$$$
