=
 OpenBabel11062421033D

 38 43  0  0  1  0  0  0  0  0999 V2000
  186.0120  176.1690  145.2780 C   0  0  0  0  0  3  0  0  0  0  0  0
  191.9060  174.8770  146.3930 C   0  0  0  0  0  2  0  0  0  0  0  0
  185.3740  179.4600  146.4630 O   0  0  0  0  0  0  0  0  0  0  0  0
  189.7520  177.8140  143.1290 C   0  0  0  0  0  3  0  0  0  0  0  0
  189.8220  173.8310  143.5230 C   0  0  0  0  0  0  0  0  0  0  0  0
  194.4270  173.6260  142.6060 C   0  0  0  0  0  0  0  0  0  0  0  0
  185.9980  178.4930  145.9520 C   0  0  0  0  0  0  0  0  0  0  0  0
  189.3530  177.8700  144.4690 C   0  0  0  0  0  0  0  0  0  0  0  0
  190.3760  173.1880  142.4160 C   0  0  0  0  0  3  0  0  0  0  0  0
  187.9390  177.7370  144.7960 C   0  0  0  0  0  0  0  0  0  0  0  0
  190.9980  177.2790  142.7950 C   0  0  0  0  0  3  0  0  0  0  0  0
  188.7090  174.6950  143.3590 C   0  0  0  0  0  0  0  0  0  0  0  0
  193.5080  173.4030  143.6330 C   0  0  0  0  0  3  0  0  0  0  0  0
  188.7990  174.2680  140.9450 C   0  0  0  0  0  0  0  0  0  0  0  0
  192.2880  176.3550  146.2510 C   0  0  0  0  0  2  0  0  0  0  0  0
  189.8800  173.4150  141.1400 C   0  0  0  0  0  3  0  0  0  0  0  0
  191.4980  176.9960  145.1550 C   0  0  0  0  0  0  0  0  0  0  0  0
  192.6840  174.4490  144.0520 C   0  0  0  0  0  0  0  0  0  0  0  0
  188.1430  175.3090  144.4990 O   0  0  0  0  0  0  0  0  0  0  0  0
  194.5060  174.8470  142.0110 N   0  0  0  0  0  0  0  0  0  0  0  0
  193.7110  175.8830  142.3920 C   0  0  0  0  0  3  0  0  0  0  0  0
  190.2420  177.4940  145.4740 C   0  0  0  0  0  3  0  0  0  0  0  0
  192.7950  175.7160  143.4350 C   0  0  0  0  0  0  0  0  0  0  0  0
  191.8410  176.7850  143.7990 C   0  0  0  0  0  0  0  0  0  0  0  0
  191.7080  174.2410  145.0910 N   0  0  0  0  0  0  0  0  0  0  0  0
  185.3990  177.1530  145.9370 C   0  0  0  0  0  3  0  0  0  0  0  0
  188.1770  174.8960  142.0520 C   0  0  0  0  0  0  0  0  0  0  0  0
  187.2440  176.4270  144.4540 C   0  0  1  0  0  3  0  0  0  0  0  0
  187.3280  178.6770  145.4550 N   0  0  0  0  0  0  0  0  0  0  0  0
  195.2750  172.5700  142.1730 N   0  0  0  0  0  1  0  0  0  0  0  0
  190.4360  173.5380  144.8670 C   0  0  0  0  0  2  0  0  0  0  0  0
  188.3960  174.5140  139.5840 C   0  0  0  0  0  0  0  0  0  0  0  0
  188.0680  174.7100  138.4920 N   0  0  0  0  0  0  0  0  0  0  0  0
  187.0500  175.7200  141.8950 O   0  0  0  0  0  0  0  0  0  0  0  0
  187.0460  176.9740  141.2200 C   0  0  0  0  0  2  0  0  0  0  0  0
  185.6330  177.5350  141.1390 C   0  0  0  0  0  2  0  0  0  0  0  0
  184.1770  178.3340  142.8570 O   0  0  0  0  0  1  0  0  0  0  0  0
  185.3960  178.5740  142.2220 C   0  0  0  0  0  2  0  0  0  0  0  0
  1 26  2  0  0  0  0
  4  8  1  0  0  0  0
  5 31  1  0  0  0  0
  6 13  1  0  0  0  0
  7  3  2  0  0  0  0
  8 10  1  0  0  0  0
  8 22  2  0  0  0  0
  9  5  2  0  0  0  0
 10 29  2  0  0  0  0
 11  4  2  0  0  0  0
 11 24  1  0  0  0  0
 12  5  1  0  0  0  0
 12 19  1  0  0  0  0
 13 18  2  0  0  0  0
 14 16  2  0  0  0  0
 14 27  1  0  0  0  0
 15  2  1  0  0  0  0
 16  9  1  0  0  0  0
 17 22  1  0  0  0  0
 17 15  1  0  0  0  0
 18 25  1  0  0  0  0
 20 21  1  0  0  0  0
 20  6  2  0  0  0  0
 21 23  2  0  0  0  0
 23 24  1  0  0  0  0
 23 18  1  0  0  0  0
 24 17  2  0  0  0  0
 25  2  1  0  0  0  0
 26  7  1  0  0  0  0
 27 12  2  0  0  0  0
 28 19  1  0  0  0  0
 28 10  1  0  0  0  0
 28  1  1  1  0  0  0
 29  7  1  0  0  0  0
 30  6  1  0  0  0  0
 31 25  1  0  0  0  0
 32 14  1  0  0  0  0
 33 32  3  0  0  0  0
 34 27  1  0  0  0  0
 35 34  1  0  0  0  0
 36 35  1  0  0  0  0
 36 38  1  0  0  0  0
 38 37  1  0  0  0  0
M  END
>  <MODEL>
1

>  <REMARK>
 VINA RESULT:      -7.5      0.000      0.000
  Name = 
  5 active torsions:
  status: ('A' for Active; 'I' for Inactive)
    1  A    between atoms: C_7  and  C_20
    2  A    between atoms: C_12  and  C_18
    3  A    between atoms: C_13  and  C_20
    4  A    between atoms: C_13  and  O_23
    5  A    between atoms: O_23  and  C_33
                            x       y       z     vdW  Elec       q    Type
                         _______ _______ _______ _____ _____    ______ ____

>  <TORSDO>
F 5

$$$$
=
 OpenBabel11062421033D

 38 43  0  0  1  0  0  0  0  0999 V2000
  189.1240  178.1520  142.1330 C   0  0  0  0  0  3  0  0  0  0  0  0
  193.2710  173.8340  140.7860 C   0  0  0  0  0  2  0  0  0  0  0  0
  185.9780  177.0710  140.8790 O   0  0  0  0  0  0  0  0  0  0  0  0
  189.6370  173.9870  144.0550 C   0  0  0  0  0  3  0  0  0  0  0  0
  193.0870  175.9970  143.7800 C   0  0  0  0  0  0  0  0  0  0  0  0
  195.6340  172.1110  144.4890 C   0  0  0  0  0  0  0  0  0  0  0  0
  187.1260  177.0060  141.3900 C   0  0  0  0  0  0  0  0  0  0  0  0
  189.3860  174.3740  142.7340 C   0  0  0  0  0  0  0  0  0  0  0  0
  193.9210  175.7930  144.8800 C   0  0  0  0  0  3  0  0  0  0  0  0
  188.7720  175.6700  142.4770 C   0  0  0  0  0  0  0  0  0  0  0  0
  190.7360  173.1770  144.3480 C   0  0  0  0  0  3  0  0  0  0  0  0
  191.7730  176.4960  143.9680 C   0  0  0  0  0  0  0  0  0  0  0  0
  195.3530  173.0690  143.5130 C   0  0  0  0  0  3  0  0  0  0  0  0
  192.1790  176.5050  146.3880 C   0  0  0  0  0  0  0  0  0  0  0  0
  192.2010  172.7390  140.8650 C   0  0  0  0  0  2  0  0  0  0  0  0
  193.4680  176.0300  146.1690 C   0  0  0  0  0  3  0  0  0  0  0  0
  191.2420  173.0260  141.9770 C   0  0  0  0  0  0  0  0  0  0  0  0
  194.0330  173.2590  143.1010 C   0  0  0  0  0  0  0  0  0  0  0  0
  190.9580  176.7280  142.8380 O   0  0  0  0  0  0  0  0  0  0  0  0
  194.6260  171.3830  145.0420 N   0  0  0  0  0  0  0  0  0  0  0  0
  193.3300  171.5510  144.6670 C   0  0  0  0  0  3  0  0  0  0  0  0
  190.1680  173.8620  141.7010 C   0  0  0  0  0  3  0  0  0  0  0  0
  193.0030  172.4780  143.6720 C   0  0  0  0  0  0  0  0  0  0  0  0
  191.5960  172.7650  143.3210 C   0  0  0  0  0  0  0  0  0  0  0  0
  193.7110  174.2590  142.1140 N   0  0  0  0  0  0  0  0  0  0  0  0
  187.9660  178.2080  141.4730 C   0  0  0  0  0  3  0  0  0  0  0  0
  191.3230  176.7750  145.2920 C   0  0  0  0  0  0  0  0  0  0  0  0
  189.5360  176.9190  142.8910 C   0  0  1  0  0  3  0  0  0  0  0  0
  187.6530  175.7460  141.8190 N   0  0  0  0  0  0  0  0  0  0  0  0
  196.9740  171.9050  144.9140 N   0  0  0  0  0  1  0  0  0  0  0  0
  193.6580  175.6960  142.4190 C   0  0  0  0  0  2  0  0  0  0  0  0
  191.7570  176.6480  147.7580 C   0  0  0  0  0  0  0  0  0  0  0  0
  191.4190  176.7680  148.8580 N   0  0  0  0  0  0  0  0  0  0  0  0
  190.0360  177.3070  145.4760 O   0  0  0  0  0  0  0  0  0  0  0  0
  188.9830  176.6640  146.1880 C   0  0  0  0  0  2  0  0  0  0  0  0
  187.7030  177.4850  146.1090 C   0  0  0  0  0  2  0  0  0  0  0  0
  185.4400  176.7230  146.0230 O   0  0  0  0  0  1  0  0  0  0  0  0
  186.6370  176.7570  145.3080 C   0  0  0  0  0  2  0  0  0  0  0  0
  2 15  1  0  0  0  0
  2 25  1  0  0  0  0
  3  7  2  0  0  0  0
  4 11  1  0  0  0  0
  5 12  2  0  0  0  0
  5  9  1  0  0  0  0
  6 30  1  0  0  0  0
  6 20  1  0  0  0  0
  7 26  1  0  0  0  0
  7 29  1  0  0  0  0
  8  4  2  0  0  0  0
  9 16  2  0  0  0  0
 10  8  1  0  0  0  0
 10 28  1  0  0  0  0
 12 27  1  0  0  0  0
 13  6  2  0  0  0  0
 14 32  1  0  0  0  0
 15 17  1  0  0  0  0
 16 14  1  0  0  0  0
 17 24  1  0  0  0  0
 18 13  1  0  0  0  0
 18 23  2  0  0  0  0
 19 28  1  0  0  0  0
 19 12  1  0  0  0  0
 21 20  2  0  0  0  0
 22 17  2  0  0  0  0
 22  8  1  0  0  0  0
 23 21  1  0  0  0  0
 24 23  1  0  0  0  0
 24 11  2  0  0  0  0
 25 31  1  0  0  0  0
 25 18  1  0  0  0  0
 26  1  2  0  0  0  0
 27 34  1  0  0  0  0
 27 14  2  0  0  0  0
 28  1  1  6  0  0  0
 29 10  2  0  0  0  0
 31  5  1  0  0  0  0
 32 33  3  0  0  0  0
 34 35  1  0  0  0  0
 36 35  1  0  0  0  0
 38 37  1  0  0  0  0
 38 36  1  0  0  0  0
M  END
>  <MODEL>
2

>  <REMARK>
 VINA RESULT:      -7.2      1.911      5.032
  Name = 
  5 active torsions:
  status: ('A' for Active; 'I' for Inactive)
    1  A    between atoms: C_7  and  C_20
    2  A    between atoms: C_12  and  C_18
    3  A    between atoms: C_13  and  C_20
    4  A    between atoms: C_13  and  O_23
    5  A    between atoms: O_23  and  C_33
                            x       y       z     vdW  Elec       q    Type
                         _______ _______ _______ _____ _____    ______ ____

>  <TORSDO>
F 5

$$$$
=
 OpenBabel11062421033D

 38 43  0  0  1  0  0  0  0  0999 V2000
  186.4430  175.7790  143.0840 C   0  0  0  0  0  3  0  0  0  0  0  0
  191.0150  175.3220  147.1520 C   0  0  0  0  0  2  0  0  0  0  0  0
  185.2480  179.1260  143.1590 O   0  0  0  0  0  0  0  0  0  0  0  0
  190.7300  177.4600  142.7630 C   0  0  0  0  0  3  0  0  0  0  0  0
  190.6560  173.6200  143.8880 C   0  0  0  0  0  0  0  0  0  0  0  0
  195.1080  173.7720  145.3890 C   0  0  0  0  0  0  0  0  0  0  0  0
  186.0580  178.1650  143.2110 C   0  0  0  0  0  0  0  0  0  0  0  0
  189.7150  177.6820  143.7000 C   0  0  0  0  0  0  0  0  0  0  0  0
  191.6990  172.8750  143.3360 C   0  0  0  0  0  3  0  0  0  0  0  0
  188.3280  177.4510  143.3140 C   0  0  0  0  0  0  0  0  0  0  0  0
  191.9850  177.0170  143.1860 C   0  0  0  0  0  3  0  0  0  0  0  0
  189.7600  174.3220  143.0420 C   0  0  0  0  0  0  0  0  0  0  0  0
  193.8020  173.6140  145.8590 C   0  0  0  0  0  3  0  0  0  0  0  0
  191.0490  173.5340  141.1090 C   0  0  0  0  0  0  0  0  0  0  0  0
  191.3940  176.7910  146.9360 C   0  0  0  0  0  2  0  0  0  0  0  0
  191.9020  172.8440  141.9640 C   0  0  0  0  0  3  0  0  0  0  0  0
  191.2450  177.1630  145.4950 C   0  0  0  0  0  0  0  0  0  0  0  0
  192.8640  174.6190  145.6160 C   0  0  0  0  0  0  0  0  0  0  0  0
  188.6910  175.0420  143.6220 O   0  0  0  0  0  0  0  0  0  0  0  0
  195.4540  174.8860  144.6880 N   0  0  0  0  0  0  0  0  0  0  0  0
  194.5590  175.8760  144.4290 C   0  0  0  0  0  3  0  0  0  0  0  0
  189.9900  177.5670  145.0600 C   0  0  0  0  0  3  0  0  0  0  0  0
  193.2470  175.7770  144.9040 C   0  0  0  0  0  0  0  0  0  0  0  0
  192.2230  176.7810  144.5460 C   0  0  0  0  0  0  0  0  0  0  0  0
  191.5020  174.4720  146.0660 N   0  0  0  0  0  0  0  0  0  0  0  0
  185.5670  176.7820  143.1610 C   0  0  0  0  0  3  0  0  0  0  0  0
  189.9480  174.2580  141.6310 C   0  0  0  0  0  0  0  0  0  0  0  0
  187.9180  176.0360  142.9330 C   0  0  1  0  0  3  0  0  0  0  0  0
  187.4550  178.4110  143.4000 N   0  0  0  0  0  0  0  0  0  0  0  0
  196.0750  172.7590  145.6330 N   0  0  0  0  0  1  0  0  0  0  0  0
  190.5230  173.6090  145.3880 C   0  0  0  0  0  2  0  0  0  0  0  0
  191.3740  173.5190  139.7060 C   0  0  0  0  0  0  0  0  0  0  0  0
  191.6330  173.5030  138.5780 N   0  0  0  0  0  0  0  0  0  0  0  0
  189.0370  174.9200  140.7920 O   0  0  0  0  0  0  0  0  0  0  0  0
  188.0240  174.2790  140.0230 C   0  0  0  0  0  2  0  0  0  0  0  0
  187.9140  174.9150  138.6440 C   0  0  0  0  0  2  0  0  0  0  0  0
  189.0120  174.5020  136.5620 O   0  0  0  0  0  1  0  0  0  0  0  0
  188.2290  173.9070  137.5520 C   0  0  0  0  0  2  0  0  0  0  0  0
  1 26  2  0  0  0  0
  3  7  2  0  0  0  0
  4 11  2  0  0  0  0
  4  8  1  0  0  0  0
  5 31  1  0  0  0  0
  6 30  1  0  0  0  0
  6 13  1  0  0  0  0
  7 29  1  0  0  0  0
  8 22  2  0  0  0  0
  9  5  1  0  0  0  0
 10 29  2  0  0  0  0
 10  8  1  0  0  0  0
 11 24  1  0  0  0  0
 12 19  1  0  0  0  0
 12  5  2  0  0  0  0
 14 27  2  0  0  0  0
 14 16  1  0  0  0  0
 15  2  1  0  0  0  0
 16  9  2  0  0  0  0
 17 15  1  0  0  0  0
 18 13  2  0  0  0  0
 18 25  1  0  0  0  0
 20  6  2  0  0  0  0
 21 20  1  0  0  0  0
 21 23  2  0  0  0  0
 22 17  1  0  0  0  0
 23 18  1  0  0  0  0
 24 23  1  0  0  0  0
 24 17  2  0  0  0  0
 25  2  1  0  0  0  0
 26  7  1  0  0  0  0
 27 12  1  0  0  0  0
 28  1  1  1  0  0  0
 28 10  1  0  0  0  0
 28 19  1  0  0  0  0
 31 25  1  0  0  0  0
 32 14  1  0  0  0  0
 33 32  3  0  0  0  0
 34 27  1  0  0  0  0
 35 34  1  0  0  0  0
 36 35  1  0  0  0  0
 37 38  1  0  0  0  0
 38 36  1  0  0  0  0
M  END
>  <MODEL>
3

>  <REMARK>
 VINA RESULT:      -7.2      1.917      2.816
  Name = 
  5 active torsions:
  status: ('A' for Active; 'I' for Inactive)
    1  A    between atoms: C_7  and  C_20
    2  A    between atoms: C_12  and  C_18
    3  A    between atoms: C_13  and  C_20
    4  A    between atoms: C_13  and  O_23
    5  A    between atoms: O_23  and  C_33
                            x       y       z     vdW  Elec       q    Type
                         _______ _______ _______ _____ _____    ______ ____

>  <TORSDO>
F 5

$$$$
=
 OpenBabel11062421033D

 38 43  0  0  1  0  0  0  0  0999 V2000
  188.9450  174.7170  146.5670 C   0  0  0  0  0  3  0  0  0  0  0  0
  195.0410  175.2800  146.1370 C   0  0  0  0  0  2  0  0  0  0  0  0
  187.5920  177.9490  147.1680 O   0  0  0  0  0  0  0  0  0  0  0  0
  191.4080  176.5390  143.1140 C   0  0  0  0  0  3  0  0  0  0  0  0
  192.8040  172.9790  144.2980 C   0  0  0  0  0  0  0  0  0  0  0  0
  196.9180  173.6510  142.1260 C   0  0  0  0  0  0  0  0  0  0  0  0
  188.3560  177.0600  146.7110 C   0  0  0  0  0  0  0  0  0  0  0  0
  191.3200  176.8770  144.4690 C   0  0  0  0  0  0  0  0  0  0  0  0
  193.2700  172.2010  143.2370 C   0  0  0  0  0  3  0  0  0  0  0  0
  190.1280  176.5020  145.2190 C   0  0  0  0  0  0  0  0  0  0  0  0
  192.6510  176.2520  142.5470 C   0  0  0  0  0  3  0  0  0  0  0  0
  191.4700  173.4600  144.2930 C   0  0  0  0  0  0  0  0  0  0  0  0
  196.3660  173.5140  143.4010 C   0  0  0  0  0  3  0  0  0  0  0  0
  191.1490  172.3950  142.1050 C   0  0  0  0  0  0  0  0  0  0  0  0
  194.9000  176.7010  145.5810 C   0  0  0  0  0  2  0  0  0  0  0  0
  192.4580  171.9250  142.1470 C   0  0  0  0  0  3  0  0  0  0  0  0
  193.7260  176.7880  144.6580 C   0  0  0  0  0  0  0  0  0  0  0  0
  195.3720  174.4030  143.8150 C   0  0  0  0  0  0  0  0  0  0  0  0
  191.0090  174.2180  145.3930 O   0  0  0  0  0  0  0  0  0  0  0  0
  196.4760  174.6320  141.2910 N   0  0  0  0  0  0  0  0  0  0  0  0
  195.5030  175.5060  141.6630 C   0  0  0  0  0  3  0  0  0  0  0  0
  192.4810  177.0340  145.2210 C   0  0  0  0  0  3  0  0  0  0  0  0
  194.9420  175.4270  142.9410 C   0  0  0  0  0  0  0  0  0  0  0  0
  193.8080  176.2880  143.3370 C   0  0  0  0  0  0  0  0  0  0  0  0
  194.7660  174.2690  145.1160 N   0  0  0  0  0  0  0  0  0  0  0  0
  188.2180  175.6670  147.1560 C   0  0  0  0  0  3  0  0  0  0  0  0
  190.6250  173.1430  143.1890 C   0  0  0  0  0  0  0  0  0  0  0  0
  189.8200  175.0210  145.3810 C   0  0  1  0  0  3  0  0  0  0  0  0
  189.4160  177.4120  145.8170 N   0  0  0  0  0  0  0  0  0  0  0  0
  197.9340  172.7560  141.6940 N   0  0  0  0  0  1  0  0  0  0  0  0
  193.7620  173.2430  145.4300 C   0  0  0  0  0  2  0  0  0  0  0  0
  190.3970  172.1350  140.9050 C   0  0  0  0  0  0  0  0  0  0  0  0
  189.7930  171.9220  139.9410 N   0  0  0  0  0  0  0  0  0  0  0  0
  189.2920  173.5860  143.2030 O   0  0  0  0  0  0  0  0  0  0  0  0
  188.6660  174.3150  142.1520 C   0  0  0  0  0  2  0  0  0  0  0  0
  187.6670  175.3170  142.7160 C   0  0  0  0  0  2  0  0  0  0  0  0
  187.5660  177.6920  142.9550 O   0  0  0  0  0  1  0  0  0  0  0  0
  187.8100  176.6690  142.0380 C   0  0  0  0  0  2  0  0  0  0  0  0
  1 26  2  0  0  0  0
  4  8  1  0  0  0  0
  5 31  1  0  0  0  0
  6 13  1  0  0  0  0
  7 26  1  0  0  0  0
  7  3  2  0  0  0  0
  8 10  1  0  0  0  0
  8 22  2  0  0  0  0
  9  5  2  0  0  0  0
 10 28  1  0  0  0  0
 10 29  2  0  0  0  0
 11  4  2  0  0  0  0
 11 24  1  0  0  0  0
 12  5  1  0  0  0  0
 12 19  1  0  0  0  0
 13 18  2  0  0  0  0
 14 16  2  0  0  0  0
 14 27  1  0  0  0  0
 15  2  1  0  0  0  0
 16  9  1  0  0  0  0
 17 22  1  0  0  0  0
 17 15  1  0  0  0  0
 18 25  1  0  0  0  0
 20 21  1  0  0  0  0
 20  6  2  0  0  0  0
 21 23  2  0  0  0  0
 23 24  1  0  0  0  0
 23 18  1  0  0  0  0
 24 17  2  0  0  0  0
 25 31  1  0  0  0  0
 25  2  1  0  0  0  0
 27 34  1  0  0  0  0
 27 12  2  0  0  0  0
 28 19  1  0  0  0  0
 28  1  1  1  0  0  0
 29  7  1  0  0  0  0
 30  6  1  0  0  0  0
 32 14  1  0  0  0  0
 33 32  3  0  0  0  0
 35 36  1  0  0  0  0
 35 34  1  0  0  0  0
 38 36  1  0  0  0  0
 38 37  1  0  0  0  0
M  END
>  <MODEL>
4

>  <REMARK>
 VINA RESULT:      -7.0      2.074      2.906
  Name = 
  5 active torsions:
  status: ('A' for Active; 'I' for Inactive)
    1  A    between atoms: C_7  and  C_20
    2  A    between atoms: C_12  and  C_18
    3  A    between atoms: C_13  and  C_20
    4  A    between atoms: C_13  and  O_23
    5  A    between atoms: O_23  and  C_33
                            x       y       z     vdW  Elec       q    Type
                         _______ _______ _______ _____ _____    ______ ____

>  <TORSDO>
F 5

$$$$
=
 OpenBabel11062421033D

 38 43  0  0  1  0  0  0  0  0999 V2000
  188.4040  177.9550  141.9900 C   0  0  0  0  0  3  0  0  0  0  0  0
  193.5430  174.6910  141.2200 C   0  0  0  0  0  2  0  0  0  0  0  0
  186.1800  177.1260  139.3440 O   0  0  0  0  0  0  0  0  0  0  0  0
  189.0490  173.4370  142.6830 C   0  0  0  0  0  3  0  0  0  0  0  0
  191.8960  175.6820  144.3790 C   0  0  0  0  0  0  0  0  0  0  0  0
  194.7670  171.9970  144.8960 C   0  0  0  0  0  0  0  0  0  0  0  0
  187.0660  176.9800  140.2250 C   0  0  0  0  0  0  0  0  0  0  0  0
  189.2000  174.2310  141.5410 C   0  0  0  0  0  0  0  0  0  0  0  0
  192.3170  175.1800  145.6110 C   0  0  0  0  0  3  0  0  0  0  0  0
  188.4650  175.4860  141.4440 C   0  0  0  0  0  0  0  0  0  0  0  0
  190.1170  172.6640  143.1420 C   0  0  0  0  0  3  0  0  0  0  0  0
  190.5260  175.9840  144.1670 C   0  0  0  0  0  0  0  0  0  0  0  0
  194.6560  173.2060  144.2060 C   0  0  0  0  0  3  0  0  0  0  0  0
  190.0540  175.1980  146.4440 C   0  0  0  0  0  0  0  0  0  0  0  0
  192.7580  173.5550  140.5550 C   0  0  0  0  0  2  0  0  0  0  0  0
  191.4070  174.9270  146.6260 C   0  0  0  0  0  3  0  0  0  0  0  0
  191.4350  173.3700  141.2280 C   0  0  0  0  0  0  0  0  0  0  0  0
  193.5520  173.4220  143.3790 C   0  0  0  0  0  0  0  0  0  0  0  0
  190.1260  176.5230  142.9240 O   0  0  0  0  0  0  0  0  0  0  0  0
  193.7990  171.0480  144.7730 N   0  0  0  0  0  0  0  0  0  0  0  0
  192.7090  171.2330  143.9820 C   0  0  0  0  0  3  0  0  0  0  0  0
  190.3790  174.1640  140.8020 C   0  0  0  0  0  3  0  0  0  0  0  0
  192.5690  172.4160  143.2490 C   0  0  0  0  0  0  0  0  0  0  0  0
  191.3450  172.6950  142.4680 C   0  0  0  0  0  0  0  0  0  0  0  0
  193.3980  174.6700  142.6750 N   0  0  0  0  0  0  0  0  0  0  0  0
  187.5630  178.1430  140.9730 C   0  0  0  0  0  3  0  0  0  0  0  0
  189.5970  175.7590  145.2250 C   0  0  0  0  0  0  0  0  0  0  0  0
  188.7680  176.5740  142.4630 C   0  0  1  0  0  3  0  0  0  0  0  0
  187.6550  175.6950  140.4490 N   0  0  0  0  0  0  0  0  0  0  0  0
  195.8880  171.7630  145.7380 N   0  0  0  0  0  1  0  0  0  0  0  0
  192.9520  175.9090  143.3300 C   0  0  0  0  0  2  0  0  0  0  0  0
  189.1630  174.8320  147.5140 C   0  0  0  0  0  0  0  0  0  0  0  0
  188.4490  174.5410  148.3770 N   0  0  0  0  0  0  0  0  0  0  0  0
  188.2470  176.0950  145.0290 O   0  0  0  0  0  0  0  0  0  0  0  0
  187.5900  177.2080  145.6260 C   0  0  0  0  0  2  0  0  0  0  0  0
  186.1330  176.8780  145.9180 C   0  0  0  0  0  2  0  0  0  0  0  0
  185.3260  177.4840  143.7520 O   0  0  0  0  0  1  0  0  0  0  0  0
  185.2010  177.7680  145.1120 C   0  0  0  0  0  2  0  0  0  0  0  0
  2 25  1  0  0  0  0
  3  7  2  0  0  0  0
  4 11  1  0  0  0  0
  5  9  1  0  0  0  0
  6 30  1  0  0  0  0
  7 29  1  0  0  0  0
  7 26  1  0  0  0  0
  8  4  2  0  0  0  0
  9 16  2  0  0  0  0
 10  8  1  0  0  0  0
 10 28  1  0  0  0  0
 12  5  2  0  0  0  0
 12 27  1  0  0  0  0
 13  6  2  0  0  0  0
 14 16  1  0  0  0  0
 14 32  1  0  0  0  0
 15  2  1  0  0  0  0
 15 17  1  0  0  0  0
 17 24  1  0  0  0  0
 18 13  1  0  0  0  0
 19 12  1  0  0  0  0
 20  6  1  0  0  0  0
 21 20  2  0  0  0  0
 22 17  2  0  0  0  0
 22  8  1  0  0  0  0
 23 18  2  0  0  0  0
 23 21  1  0  0  0  0
 24 11  2  0  0  0  0
 24 23  1  0  0  0  0
 25 31  1  0  0  0  0
 25 18  1  0  0  0  0
 26  1  2  0  0  0  0
 27 14  2  0  0  0  0
 28  1  1  6  0  0  0
 28 19  1  0  0  0  0
 29 10  2  0  0  0  0
 31  5  1  0  0  0  0
 32 33  3  0  0  0  0
 34 27  1  0  0  0  0
 34 35  1  0  0  0  0
 35 36  1  0  0  0  0
 37 38  1  0  0  0  0
 38 36  1  0  0  0  0
M  END
>  <MODEL>
5

>  <REMARK>
 VINA RESULT:      -6.8      1.913      4.784
  Name = 
  5 active torsions:
  status: ('A' for Active; 'I' for Inactive)
    1  A    between atoms: C_7  and  C_20
    2  A    between atoms: C_12  and  C_18
    3  A    between atoms: C_13  and  C_20
    4  A    between atoms: C_13  and  O_23
    5  A    between atoms: O_23  and  C_33
                            x       y       z     vdW  Elec       q    Type
                         _______ _______ _______ _____ _____    ______ ____

>  <TORSDO>
F 5

$$$$
=
 OpenBabel11062421033D

 38 43  0  0  1  0  0  0  0  0999 V2000
  188.9070  177.7090  142.0170 C   0  0  0  0  0  3  0  0  0  0  0  0
  191.3790  172.4550  140.0310 C   0  0  0  0  0  2  0  0  0  0  0  0
  185.4250  177.1680  142.4830 O   0  0  0  0  0  0  0  0  0  0  0  0
  189.6910  173.8390  144.4070 C   0  0  0  0  0  3  0  0  0  0  0  0
  192.8650  175.0010  142.2630 C   0  0  0  0  0  0  0  0  0  0  0  0
  194.9230  170.7940  142.6660 C   0  0  0  0  0  0  0  0  0  0  0  0
  186.6600  176.9290  142.4610 C   0  0  0  0  0  0  0  0  0  0  0  0
  188.9190  174.0840  143.2670 C   0  0  0  0  0  0  0  0  0  0  0  0
  194.0740  174.7770  142.9230 C   0  0  0  0  0  3  0  0  0  0  0  0
  188.4300  175.4340  143.0150 C   0  0  0  0  0  0  0  0  0  0  0  0
  190.6870  172.8610  144.3780 C   0  0  0  0  0  3  0  0  0  0  0  0
  191.8600  175.7930  142.8750 C   0  0  0  0  0  0  0  0  0  0  0  0
  194.3560  171.6460  141.7160 C   0  0  0  0  0  3  0  0  0  0  0  0
  193.3230  176.0500  144.8280 C   0  0  0  0  0  0  0  0  0  0  0  0
  190.3300  171.6390  140.7940 C   0  0  0  0  0  2  0  0  0  0  0  0
  194.2950  175.2820  144.1960 C   0  0  0  0  0  3  0  0  0  0  0  0
  190.0310  172.2760  142.1140 C   0  0  0  0  0  0  0  0  0  0  0  0
  193.0310  172.0560  141.8710 C   0  0  0  0  0  0  0  0  0  0  0  0
  190.6570  176.0360  142.1750 O   0  0  0  0  0  0  0  0  0  0  0  0
  194.1930  170.3840  143.7390 N   0  0  0  0  0  0  0  0  0  0  0  0
  192.9030  170.7740  143.9210 C   0  0  0  0  0  3  0  0  0  0  0  0
  189.0690  173.2770  142.1410 C   0  0  0  0  0  3  0  0  0  0  0  0
  192.2830  171.6030  142.9800 C   0  0  0  0  0  0  0  0  0  0  0  0
  190.9220  172.1340  143.2030 C   0  0  0  0  0  0  0  0  0  0  0  0
  192.4280  172.9560  140.9190 N   0  0  0  0  0  0  0  0  0  0  0  0
  187.5950  177.9210  141.9140 C   0  0  0  0  0  3  0  0  0  0  0  0
  192.1040  176.3430  144.1670 C   0  0  0  0  0  0  0  0  0  0  0  0
  189.4550  176.5340  142.7810 C   0  0  1  0  0  3  0  0  0  0  0  0
  187.1550  175.6570  142.8930 N   0  0  0  0  0  0  0  0  0  0  0  0
  196.2700  170.3650  142.5190 N   0  0  0  0  0  1  0  0  0  0  0  0
  192.7070  174.3990  140.8920 C   0  0  0  0  0  2  0  0  0  0  0  0
  193.5950  176.4690  146.1790 C   0  0  0  0  0  0  0  0  0  0  0  0
  193.8160  176.8100  147.2630 N   0  0  0  0  0  0  0  0  0  0  0  0
  191.1250  177.1600  144.7560 O   0  0  0  0  0  0  0  0  0  0  0  0
  190.4580  176.8770  145.9820 C   0  0  0  0  0  2  0  0  0  0  0  0
  189.0870  177.5400  146.0120 C   0  0  0  0  0  2  0  0  0  0  0  0
  186.7650  176.9790  146.0730 O   0  0  0  0  0  1  0  0  0  0  0  0
  188.0260  176.5750  146.5140 C   0  0  0  0  0  2  0  0  0  0  0  0
  2 15  1  0  0  0  0
  2 25  1  0  0  0  0
  5 12  2  0  0  0  0
  5  9  1  0  0  0  0
  6 20  1  0  0  0  0
  7  3  2  0  0  0  0
  7 29  1  0  0  0  0
  8  4  2  0  0  0  0
  9 16  2  0  0  0  0
 10  8  1  0  0  0  0
 11  4  1  0  0  0  0
 12 27  1  0  0  0  0
 13 18  1  0  0  0  0
 13  6  2  0  0  0  0
 14 32  1  0  0  0  0
 15 17  1  0  0  0  0
 16 14  1  0  0  0  0
 17 22  2  0  0  0  0
 17 24  1  0  0  0  0
 18 23  2  0  0  0  0
 19 28  1  0  0  0  0
 19 12  1  0  0  0  0
 20 21  2  0  0  0  0
 22  8  1  0  0  0  0
 23 24  1  0  0  0  0
 23 21  1  0  0  0  0
 24 11  2  0  0  0  0
 25 18  1  0  0  0  0
 26  1  2  0  0  0  0
 26  7  1  0  0  0  0
 27 34  1  0  0  0  0
 27 14  2  0  0  0  0
 28  1  1  6  0  0  0
 28 10  1  0  0  0  0
 29 10  2  0  0  0  0
 30  6  1  0  0  0  0
 31 25  1  0  0  0  0
 31  5  1  0  0  0  0
 32 33  3  0  0  0  0
 34 35  1  0  0  0  0
 35 36  1  0  0  0  0
 36 38  1  0  0  0  0
 37 38  1  0  0  0  0
M  END
>  <MODEL>
6

>  <REMARK>
 VINA RESULT:      -6.6      2.138      5.074
  Name = 
  5 active torsions:
  status: ('A' for Active; 'I' for Inactive)
    1  A    between atoms: C_7  and  C_20
    2  A    between atoms: C_12  and  C_18
    3  A    between atoms: C_13  and  C_20
    4  A    between atoms: C_13  and  O_23
    5  A    between atoms: O_23  and  C_33
                            x       y       z     vdW  Elec       q    Type
                         _______ _______ _______ _____ _____    ______ ____

>  <TORSDO>
F 5

$$$$
=
 OpenBabel11062421033D

 38 43  0  0  1  0  0  0  0  0999 V2000
  195.1850  174.3890  140.6060 C   0  0  0  0  0  3  0  0  0  0  0  0
  193.2440  177.0500  145.7830 C   0  0  0  0  0  2  0  0  0  0  0  0
  197.7170  172.0470  141.4670 O   0  0  0  0  0  0  0  0  0  0  0  0
  192.5600  172.5730  143.9400 C   0  0  0  0  0  3  0  0  0  0  0  0
  191.2890  176.1830  142.7670 C   0  0  0  0  0  0  0  0  0  0  0  0
  188.6090  176.6990  146.5930 C   0  0  0  0  0  0  0  0  0  0  0  0
  196.6640  172.7300  141.5620 C   0  0  0  0  0  0  0  0  0  0  0  0
  193.8500  173.1120  143.9670 C   0  0  0  0  0  0  0  0  0  0  0  0
  189.8980  176.2840  142.7450 C   0  0  0  0  0  3  0  0  0  0  0  0
  194.6340  173.1430  142.7380 C   0  0  0  0  0  0  0  0  0  0  0  0
  191.5740  173.0800  144.7900 C   0  0  0  0  0  3  0  0  0  0  0  0
  191.9380  175.1730  142.0110 C   0  0  0  0  0  0  0  0  0  0  0  0
  189.7390  177.2340  145.9710 C   0  0  0  0  0  3  0  0  0  0  0  0
  189.7350  174.3710  141.2860 C   0  0  0  0  0  0  0  0  0  0  0  0
  193.5560  175.7830  146.5870 C   0  0  0  0  0  2  0  0  0  0  0  0
  189.1290  175.3810  142.0260 C   0  0  0  0  0  3  0  0  0  0  0  0
  193.2170  174.5630  145.7910 C   0  0  0  0  0  0  0  0  0  0  0  0
  190.8270  176.4030  145.6980 C   0  0  0  0  0  0  0  0  0  0  0  0
  193.3500  175.1090  142.0210 O   0  0  0  0  0  0  0  0  0  0  0  0
  188.5660  175.3760  146.9130 N   0  0  0  0  0  0  0  0  0  0  0  0
  189.6070  174.5410  146.6510 C   0  0  0  0  0  3  0  0  0  0  0  0
  194.1790  174.0770  144.9160 C   0  0  0  0  0  3  0  0  0  0  0  0
  190.7710  175.0380  146.0570 C   0  0  0  0  0  0  0  0  0  0  0  0
  191.8740  174.1380  145.6580 C   0  0  0  0  0  0  0  0  0  0  0  0
  191.9950  176.9230  145.0330 N   0  0  0  0  0  0  0  0  0  0  0  0
  196.3630  173.7660  140.5660 C   0  0  0  0  0  3  0  0  0  0  0  0
  191.1490  174.2690  141.2420 C   0  0  0  0  0  0  0  0  0  0  0  0
  194.1120  173.9760  141.5770 C   0  0  1  0  0  3  0  0  0  0  0  0
  195.7940  172.5580  142.6850 N   0  0  0  0  0  0  0  0  0  0  0  0
  187.4960  177.5340  146.8820 N   0  0  0  0  0  1  0  0  0  0  0  0
  192.0400  177.1960  143.5890 C   0  0  0  0  0  2  0  0  0  0  0  0
  188.8670  173.4250  140.6340 C   0  0  0  0  0  0  0  0  0  0  0  0
  188.1720  172.6660  140.1050 N   0  0  0  0  0  0  0  0  0  0  0  0
  191.7930  173.2940  140.4620 O   0  0  0  0  0  0  0  0  0  0  0  0
  191.9000  173.3280  139.0420 C   0  0  0  0  0  2  0  0  0  0  0  0
  191.7750  171.9260  138.4620 C   0  0  0  0  0  2  0  0  0  0  0  0
  190.4410  170.1410  139.3260 O   0  0  0  0  0  1  0  0  0  0  0  0
  191.5900  170.8960  139.5640 C   0  0  0  0  0  2  0  0  0  0  0  0
  2 15  1  0  0  0  0
  3  7  2  0  0  0  0
  4  8  2  0  0  0  0
  4 11  1  0  0  0  0
  5 31  1  0  0  0  0
  6 30  1  0  0  0  0
  6 20  1  0  0  0  0
  7 29  1  0  0  0  0
  8 22  1  0  0  0  0
  9  5  1  0  0  0  0
 10  8  1  0  0  0  0
 11 24  2  0  0  0  0
 12 19  1  0  0  0  0
 12  5  2  0  0  0  0
 13  6  2  0  0  0  0
 14 16  1  0  0  0  0
 16  9  2  0  0  0  0
 17 15  1  0  0  0  0
 18 13  1  0  0  0  0
 18 23  2  0  0  0  0
 21 20  2  0  0  0  0
 22 17  2  0  0  0  0
 23 21  1  0  0  0  0
 24 17  1  0  0  0  0
 24 23  1  0  0  0  0
 25 18  1  0  0  0  0
 25  2  1  0  0  0  0
 26  1  2  0  0  0  0
 26  7  1  0  0  0  0
 27 14  2  0  0  0  0
 27 12  1  0  0  0  0
 28  1  1  1  0  0  0
 28 19  1  0  0  0  0
 28 10  1  0  0  0  0
 29 10  2  0  0  0  0
 31 25  1  0  0  0  0
 32 14  1  0  0  0  0
 33 32  3  0  0  0  0
 34 27  1  0  0  0  0
 35 34  1  0  0  0  0
 36 35  1  0  0  0  0
 36 38  1  0  0  0  0
 37 38  1  0  0  0  0
M  END
>  <MODEL>
7

>  <REMARK>
 VINA RESULT:      -6.6      3.286      7.031
  Name = 
  5 active torsions:
  status: ('A' for Active; 'I' for Inactive)
    1  A    between atoms: C_7  and  C_20
    2  A    between atoms: C_12  and  C_18
    3  A    between atoms: C_13  and  C_20
    4  A    between atoms: C_13  and  O_23
    5  A    between atoms: O_23  and  C_33
                            x       y       z     vdW  Elec       q    Type
                         _______ _______ _______ _____ _____    ______ ____

>  <TORSDO>
F 5

$$$$
=
 OpenBabel11062421033D

 38 43  0  0  1  0  0  0  0  0999 V2000
  190.9560  177.2860  143.7360 C   0  0  0  0  0  3  0  0  0  0  0  0
  189.8700  173.3010  139.1970 C   0  0  0  0  0  2  0  0  0  0  0  0
  187.8760  177.9160  145.3940 O   0  0  0  0  0  0  0  0  0  0  0  0
  190.0500  172.7710  144.0550 C   0  0  0  0  0  3  0  0  0  0  0  0
  192.8710  173.5920  141.3380 C   0  0  0  0  0  0  0  0  0  0  0  0
  192.4560  169.3570  139.3410 C   0  0  0  0  0  0  0  0  0  0  0  0
  188.7710  177.2840  144.7750 C   0  0  0  0  0  0  0  0  0  0  0  0
  189.3140  173.8280  143.5090 C   0  0  0  0  0  0  0  0  0  0  0  0
  193.8860  172.6350  141.3060 C   0  0  0  0  0  3  0  0  0  0  0  0
  189.5660  175.1860  143.9750 C   0  0  0  0  0  0  0  0  0  0  0  0
  190.3580  171.6570  143.2720 C   0  0  0  0  0  3  0  0  0  0  0  0
  192.5710  174.2680  142.5480 C   0  0  0  0  0  0  0  0  0  0  0  0
  192.2450  170.7130  139.0800 C   0  0  0  0  0  3  0  0  0  0  0  0
  194.3010  172.9310  143.6630 C   0  0  0  0  0  0  0  0  0  0  0  0
  188.7220  172.6660  139.9900 C   0  0  0  0  0  2  0  0  0  0  0  0
  194.5820  172.2970  142.4570 C   0  0  0  0  0  3  0  0  0  0  0  0
  189.0650  172.5990  141.4440 C   0  0  0  0  0  0  0  0  0  0  0  0
  191.3910  171.4430  139.9080 C   0  0  0  0  0  0  0  0  0  0  0  0
  191.5630  175.2580  142.5500 O   0  0  0  0  0  0  0  0  0  0  0  0
  191.8460  168.7620  140.4020 N   0  0  0  0  0  0  0  0  0  0  0  0
  191.0160  169.4500  141.2310 C   0  0  0  0  0  3  0  0  0  0  0  0
  188.7960  173.7190  142.2200 C   0  0  0  0  0  3  0  0  0  0  0  0
  190.7510  170.8020  140.9920 C   0  0  0  0  0  0  0  0  0  0  0  0
  189.9430  171.6050  141.9350 C   0  0  0  0  0  0  0  0  0  0  0  0
  191.1750  172.8500  139.6780 N   0  0  0  0  0  0  0  0  0  0  0  0
  189.9580  177.9880  144.2730 C   0  0  0  0  0  3  0  0  0  0  0  0
  193.3140  173.9460  143.7220 C   0  0  0  0  0  0  0  0  0  0  0  0
  190.9450  175.7810  143.7350 C   0  0  1  0  0  3  0  0  0  0  0  0
  188.6000  175.8930  144.4840 N   0  0  0  0  0  0  0  0  0  0  0  0
  193.3200  168.6010  138.5030 N   0  0  0  0  0  1  0  0  0  0  0  0
  192.1570  173.8810  140.0440 C   0  0  0  0  0  2  0  0  0  0  0  0
  195.0100  172.4680  144.8280 C   0  0  0  0  0  0  0  0  0  0  0  0
  195.5790  172.0920  145.7630 N   0  0  0  0  0  0  0  0  0  0  0  0
  193.0440  174.6440  144.9110 O   0  0  0  0  0  0  0  0  0  0  0  0
  193.8930  175.6320  145.4860 C   0  0  0  0  0  2  0  0  0  0  0  0
  193.1900  176.3380  146.6380 C   0  0  0  0  0  2  0  0  0  0  0  0
  190.9230  176.3510  147.3930 O   0  0  0  0  0  1  0  0  0  0  0  0
  192.0140  175.5180  147.1420 C   0  0  0  0  0  2  0  0  0  0  0  0
  1 26  2  0  0  0  0
  2 25  1  0  0  0  0
  2 15  1  0  0  0  0
  5 12  1  0  0  0  0
  6 20  1  0  0  0  0
  7  3  2  0  0  0  0
  8 10  1  0  0  0  0
  8  4  1  0  0  0  0
  9  5  2  0  0  0  0
  9 16  1  0  0  0  0
 10 29  2  0  0  0  0
 11  4  2  0  0  0  0
 12 19  1  0  0  0  0
 12 27  2  0  0  0  0
 13  6  2  0  0  0  0
 13 18  1  0  0  0  0
 14 27  1  0  0  0  0
 14 32  1  0  0  0  0
 15 17  1  0  0  0  0
 16 14  2  0  0  0  0
 17 24  2  0  0  0  0
 17 22  1  0  0  0  0
 18 23  2  0  0  0  0
 19 28  1  0  0  0  0
 20 21  2  0  0  0  0
 22  8  2  0  0  0  0
 23 21  1  0  0  0  0
 23 24  1  0  0  0  0
 24 11  1  0  0  0  0
 25 18  1  0  0  0  0
 25 31  1  0  0  0  0
 26  7  1  0  0  0  0
 27 34  1  0  0  0  0
 28  1  1  6  0  0  0
 28 10  1  0  0  0  0
 29  7  1  0  0  0  0
 30  6  1  0  0  0  0
 31  5  1  0  0  0  0
 32 33  3  0  0  0  0
 34 35  1  0  0  0  0
 35 36  1  0  0  0  0
 36 38  1  0  0  0  0
 38 37  1  0  0  0  0
M  END
>  <MODEL>
8

>  <REMARK>
 VINA RESULT:      -6.5      2.773      6.100
  Name = 
  5 active torsions:
  status: ('A' for Active; 'I' for Inactive)
    1  A    between atoms: C_7  and  C_20
    2  A    between atoms: C_12  and  C_18
    3  A    between atoms: C_13  and  C_20
    4  A    between atoms: C_13  and  O_23
    5  A    between atoms: O_23  and  C_33
                            x       y       z     vdW  Elec       q    Type
                         _______ _______ _______ _____ _____    ______ ____

>  <TORSDO>
F 5

$$$$
=
 OpenBabel11062421033D

 38 43  0  0  1  0  0  0  0  0999 V2000
  188.6220  175.2420  146.1060 C   0  0  0  0  0  3  0  0  0  0  0  0
  193.8840  172.1920  145.2870 C   0  0  0  0  0  2  0  0  0  0  0  0
  189.3870  178.3320  147.6860 O   0  0  0  0  0  0  0  0  0  0  0  0
  191.9860  176.1150  143.0690 C   0  0  0  0  0  3  0  0  0  0  0  0
  190.8990  172.2630  143.1050 C   0  0  0  0  0  0  0  0  0  0  0  0
  194.7940  170.9410  140.8300 C   0  0  0  0  0  0  0  0  0  0  0  0
  189.5180  177.3310  146.9360 C   0  0  0  0  0  0  0  0  0  0  0  0
  191.9920  176.0550  144.4660 C   0  0  0  0  0  0  0  0  0  0  0  0
  190.9110  171.6870  141.8340 C   0  0  0  0  0  3  0  0  0  0  0  0
  190.7460  176.2690  145.1920 C   0  0  0  0  0  0  0  0  0  0  0  0
  192.8660  175.3190  142.3330 C   0  0  0  0  0  3  0  0  0  0  0  0
  190.1130  173.4180  143.3530 C   0  0  0  0  0  0  0  0  0  0  0  0
  194.1550  170.8140  142.0650 C   0  0  0  0  0  3  0  0  0  0  0  0
  189.4260  173.3930  140.9970 C   0  0  0  0  0  0  0  0  0  0  0  0
  194.6600  173.5070  145.1550 C   0  0  0  0  0  2  0  0  0  0  0  0
  190.1950  172.2530  140.7900 C   0  0  0  0  0  3  0  0  0  0  0  0
  193.8530  174.5170  144.4020 C   0  0  0  0  0  0  0  0  0  0  0  0
  193.8430  171.9630  142.7940 C   0  0  0  0  0  0  0  0  0  0  0  0
  190.0900  173.9650  144.6560 O   0  0  0  0  0  0  0  0  0  0  0  0
  195.0940  172.1740  140.3380 N   0  0  0  0  0  0  0  0  0  0  0  0
  194.7950  173.3110  141.0210 C   0  0  0  0  0  3  0  0  0  0  0  0
  192.9480  175.2850  145.1230 C   0  0  0  0  0  3  0  0  0  0  0  0
  194.1820  173.2330  142.2760 C   0  0  0  0  0  0  0  0  0  0  0  0
  193.7430  174.4490  142.9930 C   0  0  0  0  0  0  0  0  0  0  0  0
  193.1600  171.8640  144.0590 N   0  0  0  0  0  0  0  0  0  0  0  0
  188.5450  176.2320  146.9950 C   0  0  0  0  0  3  0  0  0  0  0  0
  189.3480  173.9750  142.2880 C   0  0  0  0  0  0  0  0  0  0  0  0
  189.6100  175.2810  144.9720 C   0  0  1  0  0  3  0  0  0  0  0  0
  190.6580  177.2170  146.0780 N   0  0  0  0  0  0  0  0  0  0  0  0
  195.1200  169.7790  140.0790 N   0  0  0  0  0  1  0  0  0  0  0  0
  191.7200  171.5910  144.1730 C   0  0  0  0  0  2  0  0  0  0  0  0
  188.7780  173.9660  139.8460 C   0  0  0  0  0  0  0  0  0  0  0  0
  188.2620  174.4260  138.9180 N   0  0  0  0  0  0  0  0  0  0  0  0
  188.5380  175.0950  142.5430 O   0  0  0  0  0  0  0  0  0  0  0  0
  187.1150  175.0780  142.5760 C   0  0  0  0  0  2  0  0  0  0  0  0
  186.5650  176.4970  142.6480 C   0  0  0  0  0  2  0  0  0  0  0  0
  187.0390  178.7510  142.0120 O   0  0  0  0  0  1  0  0  0  0  0  0
  187.3100  177.4180  141.6980 C   0  0  0  0  0  2  0  0  0  0  0  0
  1 26  2  0  0  0  0
  4  8  1  0  0  0  0
  5 12  1  0  0  0  0
  5 31  1  0  0  0  0
  6 13  1  0  0  0  0
  7 26  1  0  0  0  0
  7  3  2  0  0  0  0
  8 22  2  0  0  0  0
  8 10  1  0  0  0  0
  9  5  2  0  0  0  0
 10 29  2  0  0  0  0
 11 24  1  0  0  0  0
 11  4  2  0  0  0  0
 12 19  1  0  0  0  0
 13 18  2  0  0  0  0
 14 27  1  0  0  0  0
 15  2  1  0  0  0  0
 16 14  2  0  0  0  0
 16  9  1  0  0  0  0
 17 22  1  0  0  0  0
 17 15  1  0  0  0  0
 18 25  1  0  0  0  0
 19 28  1  0  0  0  0
 20  6  2  0  0  0  0
 20 21  1  0  0  0  0
 21 23  2  0  0  0  0
 23 18  1  0  0  0  0
 23 24  1  0  0  0  0
 24 17  2  0  0  0  0
 25 31  1  0  0  0  0
 25  2  1  0  0  0  0
 27 34  1  0  0  0  0
 27 12  2  0  0  0  0
 28 10  1  0  0  0  0
 28  1  1  1  0  0  0
 29  7  1  0  0  0  0
 30  6  1  0  0  0  0
 32 14  1  0  0  0  0
 33 32  3  0  0  0  0
 34 35  1  0  0  0  0
 35 36  1  0  0  0  0
 38 37  1  0  0  0  0
 38 36  1  0  0  0  0
M  END
>  <MODEL>
9

>  <REMARK>
 VINA RESULT:      -6.2      2.068      2.839
  Name = 
  5 active torsions:
  status: ('A' for Active; 'I' for Inactive)
    1  A    between atoms: C_7  and  C_20
    2  A    between atoms: C_12  and  C_18
    3  A    between atoms: C_13  and  C_20
    4  A    between atoms: C_13  and  O_23
    5  A    between atoms: O_23  and  C_33
                            x       y       z     vdW  Elec       q    Type
                         _______ _______ _______ _____ _____    ______ ____

>  <TORSDO>
F 5

$$$$
