=
 OpenBabel11062421103D

 33 37  0  0  1  0  0  0  0  0999 V2000
  191.6630  177.7370  143.6420 C   0  0  0  0  0  3  0  0  0  0  0  0
  191.6510  176.5140  142.9790 C   0  0  0  0  0  0  0  0  0  0  0  0
  192.5750  175.8480  142.2040 C   0  0  0  0  0  0  0  0  0  0  0  0
  189.3770  177.2380  144.3950 C   0  0  0  0  0  0  0  0  0  0  0  0
  192.0500  174.6680  141.8060 N   0  0  0  0  0  0  0  0  0  0  0  0
  190.8180  174.5610  142.3020 N   0  0  0  0  0  2  0  0  0  0  0  0
  189.4120  176.0020  143.7080 C   0  0  0  0  0  3  0  0  0  0  0  0
  190.5040  178.0920  144.3570 C   0  0  0  0  0  3  0  0  0  0  0  0
  190.5720  175.6780  143.0100 C   0  0  0  0  0  0  0  0  0  0  0  0
  185.4480  178.5340  143.1000 C   0  0  1  0  0  3  0  0  0  0  0  0
  184.6900  177.5450  142.5030 F   0  0  0  0  0  0  0  0  0  0  0  0
  185.9400  178.4490  145.5440 C   0  0  1  0  0  3  0  0  0  0  0  0
  183.8470  179.2750  144.7160 O   0  0  0  0  0  0  0  0  0  0  0  0
  187.0700  178.0120  144.6780 C   0  0  0  0  0  0  0  0  0  0  0  0
  184.9430  178.7920  144.4820 C   0  0  0  0  0  0  0  0  0  0  0  0
  186.7630  178.0550  143.3240 O   0  0  0  0  0  0  0  0  0  0  0  0
  188.2290  177.6590  145.1510 N   0  0  0  0  0  0  0  0  0  0  0  0
  186.2650  177.1010  147.4870 F   0  0  0  0  0  0  0  0  0  0  0  0
  185.3960  176.1260  145.6550 F   0  0  0  0  0  0  0  0  0  0  0  0
  185.4310  177.2920  146.4000 C   0  0  0  0  0  3  0  0  0  0  0  0
  193.8860  176.2890  141.8370 N   0  0  0  0  0  2  0  0  0  0  0  0
  195.5430  174.8780  143.9340 C   0  0  1  0  0  3  0  0  0  0  0  0
  194.7890  174.3790  142.8570 O   0  0  0  0  0  0  0  0  0  0  0  0
  195.8860  176.1480  143.1980 C   0  0  0  0  0  2  0  0  0  0  0  0
  195.0940  175.5150  142.0850 C   0  0  2  0  0  3  0  0  0  0  0  0
  194.6770  175.1490  145.1300 C   0  0  0  0  0  0  0  0  0  0  0  0
  194.6870  176.3820  145.6400 C   0  0  0  0  0  3  0  0  0  0  0  0
  193.9190  174.0350  145.7890 C   0  0  0  0  0  2  0  0  0  0  0  0
  191.6310  173.3810  145.2100 F   0  0  0  0  0  0  0  0  0  0  0  0
  191.9100  175.3080  146.4640 C   0  0  0  0  0  3  0  0  0  0  0  0
  192.4490  174.2890  145.7930 C   0  0  0  0  0  0  0  0  0  0  0  0
  192.6630  176.3890  147.1290 C   0  0  0  0  0  3  0  0  0  0  0  0
  193.8680  176.8530  146.7740 C   0  0  0  0  0  3  0  0  0  0  0  0
  1  8  1  0  0  0  0
  2  9  1  0  0  0  0
  2  1  2  0  0  0  0
  3  2  1  0  0  0  0
  4 17  1  0  0  0  0
  5  3  2  0  0  0  0
  5  6  1  0  0  0  0
  6  9  1  0  0  0  0
  7  4  1  0  0  0  0
  8  4  2  0  0  0  0
  9  7  2  0  0  0  0
 10 11  1  1  0  0  0
 10 16  1  0  0  0  0
 10 15  1  0  0  0  0
 12 20  1  1  0  0  0
 14 17  2  0  0  0  0
 14 12  1  0  0  0  0
 15 13  2  0  0  0  0
 15 12  1  0  0  0  0
 16 14  1  0  0  0  0
 19 20  1  0  0  0  0
 20 18  1  0  0  0  0
 21  3  1  0  0  0  0
 22 26  1  1  0  0  0
 23 22  1  0  0  0  0
 24 22  1  0  0  0  0
 25 21  1  1  0  0  0
 25 23  1  0  0  0  0
 25 24  1  0  0  0  0
 26 27  2  0  0  0  0
 26 28  1  0  0  0  0
 27 33  1  0  0  0  0
 28 31  1  0  0  0  0
 29 31  1  0  0  0  0
 30 32  1  0  0  0  0
 31 30  2  0  0  0  0
 33 32  2  0  0  0  0
M  END
>  <MODEL>
1

>  <REMARK>
 VINA RESULT:      -8.3      0.000      0.000
  Name = 
  5 active torsions:
  status: ('A' for Active; 'I' for Inactive)
    1  A    between atoms: N_1  and  C_10
    2  A    between atoms: N_1  and  C_32
    3  A    between atoms: C_2  and  C_7
    4  A    between atoms: C_11  and  N_31
    5  A    between atoms: C_16  and  C_19
                            x       y       z     vdW  Elec       q    Type
                         _______ _______ _______ _____ _____    ______ ____

>  <TORSDO>
F 5

$$$$
=
 OpenBabel11062421103D

 33 37  0  0  1  0  0  0  0  0999 V2000
  191.2120  177.5530  143.5010 C   0  0  0  0  0  3  0  0  0  0  0  0
  191.4690  176.3800  142.7970 C   0  0  0  0  0  0  0  0  0  0  0  0
  192.6260  175.7150  142.4570 C   0  0  0  0  0  0  0  0  0  0  0  0
  188.8200  177.1420  143.1200 C   0  0  0  0  0  0  0  0  0  0  0  0
  192.3050  174.5970  141.7660 N   0  0  0  0  0  0  0  0  0  0  0  0
  190.9800  174.5310  141.6550 N   0  0  0  0  0  2  0  0  0  0  0  0
  189.1280  175.9550  142.4140 C   0  0  0  0  0  3  0  0  0  0  0  0
  189.8650  177.9270  143.6580 C   0  0  0  0  0  3  0  0  0  0  0  0
  190.4700  175.6100  142.2760 C   0  0  0  0  0  0  0  0  0  0  0  0
  186.2480  176.8750  146.5990 C   0  0  1  0  0  3  0  0  0  0  0  0
  186.6570  177.6460  147.6710 F   0  0  0  0  0  0  0  0  0  0  0  0
  185.3630  177.9520  144.5310 C   0  0  1  0  0  3  0  0  0  0  0  0
  183.9830  177.6340  146.4660 O   0  0  0  0  0  0  0  0  0  0  0  0
  186.7700  177.4800  144.4190 C   0  0  0  0  0  0  0  0  0  0  0  0
  185.0750  177.5180  145.9330 C   0  0  0  0  0  0  0  0  0  0  0  0
  187.2410  176.8990  145.5890 O   0  0  0  0  0  0  0  0  0  0  0  0
  187.4660  177.5790  143.3240 N   0  0  0  0  0  0  0  0  0  0  0  0
  185.7960  179.8850  143.1980 F   0  0  0  0  0  0  0  0  0  0  0  0
  186.0220  180.0640  145.4300 F   0  0  0  0  0  0  0  0  0  0  0  0
  185.2880  179.4730  144.4170 C   0  0  0  0  0  3  0  0  0  0  0  0
  193.9730  176.1000  142.7460 N   0  0  0  0  0  2  0  0  0  0  0  0
  193.8930  174.8960  145.5180 C   0  0  1  0  0  3  0  0  0  0  0  0
  194.1660  174.3210  144.2640 O   0  0  0  0  0  0  0  0  0  0  0  0
  194.4760  176.2270  145.1130 C   0  0  0  0  0  2  0  0  0  0  0  0
  194.7650  175.5150  143.8190 C   0  0  2  0  0  3  0  0  0  0  0  0
  192.4160  174.9920  145.7660 C   0  0  0  0  0  0  0  0  0  0  0  0
  191.6410  174.0080  145.3020 C   0  0  0  0  0  3  0  0  0  0  0  0
  191.8300  176.2120  146.4110 C   0  0  0  0  0  2  0  0  0  0  0  0
  191.4980  176.4820  148.8230 F   0  0  0  0  0  0  0  0  0  0  0  0
  190.0150  175.1170  147.6840 C   0  0  0  0  0  3  0  0  0  0  0  0
  191.1080  175.8800  147.6740 C   0  0  0  0  0  0  0  0  0  0  0  0
  189.4770  174.3770  146.5250 C   0  0  0  0  0  3  0  0  0  0  0  0
  190.1820  173.8980  145.4920 C   0  0  0  0  0  3  0  0  0  0  0  0
  1  8  1  0  0  0  0
  2  1  2  0  0  0  0
  3 21  1  0  0  0  0
  3  2  1  0  0  0  0
  4 17  1  0  0  0  0
  4  8  2  0  0  0  0
  5  3  2  0  0  0  0
  6  5  1  0  0  0  0
  6  9  1  0  0  0  0
  7  4  1  0  0  0  0
  9  7  2  0  0  0  0
  9  2  1  0  0  0  0
 10 11  1  1  0  0  0
 12 20  1  1  0  0  0
 12 15  1  0  0  0  0
 14 12  1  0  0  0  0
 14 16  1  0  0  0  0
 15 13  2  0  0  0  0
 15 10  1  0  0  0  0
 16 10  1  0  0  0  0
 17 14  2  0  0  0  0
 18 20  1  0  0  0  0
 20 19  1  0  0  0  0
 22 26  1  6  0  0  0
 23 22  1  0  0  0  0
 24 22  1  0  0  0  0
 25 21  1  6  0  0  0
 25 23  1  0  0  0  0
 25 24  1  0  0  0  0
 26 28  1  0  0  0  0
 27 33  1  0  0  0  0
 27 26  2  0  0  0  0
 28 31  1  0  0  0  0
 31 30  2  0  0  0  0
 31 29  1  0  0  0  0
 32 30  1  0  0  0  0
 33 32  2  0  0  0  0
M  END
>  <MODEL>
2

>  <REMARK>
 VINA RESULT:      -8.0      1.711      2.736
  Name = 
  5 active torsions:
  status: ('A' for Active; 'I' for Inactive)
    1  A    between atoms: N_1  and  C_10
    2  A    between atoms: N_1  and  C_32
    3  A    between atoms: C_2  and  C_7
    4  A    between atoms: C_11  and  N_31
    5  A    between atoms: C_16  and  C_19
                            x       y       z     vdW  Elec       q    Type
                         _______ _______ _______ _____ _____    ______ ____

>  <TORSDO>
F 5

$$$$
=
 OpenBabel11062421103D

 33 37  0  0  1  0  0  0  0  0999 V2000
  191.3770  177.6250  143.3700 C   0  0  0  0  0  3  0  0  0  0  0  0
  191.7020  176.4160  142.7630 C   0  0  0  0  0  0  0  0  0  0  0  0
  192.8960  175.8050  142.4490 C   0  0  0  0  0  0  0  0  0  0  0  0
  189.0130  177.0160  143.0920 C   0  0  0  0  0  0  0  0  0  0  0  0
  192.6420  174.6120  141.8660 N   0  0  0  0  0  0  0  0  0  0  0  0
  191.3220  174.4440  141.7980 N   0  0  0  0  0  2  0  0  0  0  0  0
  189.3910  175.7960  142.4830 C   0  0  0  0  0  3  0  0  0  0  0  0
  190.0100  177.9170  143.5310 C   0  0  0  0  0  3  0  0  0  0  0  0
  190.7500  175.5350  142.3380 C   0  0  0  0  0  0  0  0  0  0  0  0
  186.5690  176.9690  146.6710 C   0  0  1  0  0  3  0  0  0  0  0  0
  186.9480  177.8870  147.6330 F   0  0  0  0  0  0  0  0  0  0  0  0
  185.5450  177.7310  144.5290 C   0  0  1  0  0  3  0  0  0  0  0  0
  184.2500  177.5410  146.5370 O   0  0  0  0  0  0  0  0  0  0  0  0
  186.9810  177.3530  144.4190 C   0  0  0  0  0  0  0  0  0  0  0  0
  185.3320  177.4430  145.9810 C   0  0  0  0  0  0  0  0  0  0  0  0
  187.5290  176.9480  145.6290 O   0  0  0  0  0  0  0  0  0  0  0  0
  187.6360  177.3740  143.2950 N   0  0  0  0  0  0  0  0  0  0  0  0
  185.9410  179.9750  145.2420 F   0  0  0  0  0  0  0  0  0  0  0  0
  184.0010  179.5220  144.1960 F   0  0  0  0  0  0  0  0  0  0  0  0
  185.3500  179.2190  144.2450 C   0  0  0  0  0  3  0  0  0  0  0  0
  194.2180  176.3080  142.6660 N   0  0  0  0  0  2  0  0  0  0  0  0
  194.9110  174.9330  145.2670 C   0  0  1  0  0  3  0  0  0  0  0  0
  194.6960  174.4200  143.9760 O   0  0  0  0  0  0  0  0  0  0  0  0
  195.4740  176.2260  144.7370 C   0  0  0  0  0  2  0  0  0  0  0  0
  195.2460  175.5800  143.3970 C   0  0  2  0  0  3  0  0  0  0  0  0
  193.6150  175.1500  145.9930 C   0  0  0  0  0  0  0  0  0  0  0  0
  193.3680  176.3700  146.4750 C   0  0  0  0  0  3  0  0  0  0  0  0
  192.6910  174.0000  146.2620 C   0  0  0  0  0  2  0  0  0  0  0  0
  190.8790  173.2980  144.7700 F   0  0  0  0  0  0  0  0  0  0  0  0
  190.5400  175.2010  146.0470 C   0  0  0  0  0  3  0  0  0  0  0  0
  191.3460  174.2140  145.6520 C   0  0  0  0  0  0  0  0  0  0  0  0
  190.9080  176.2850  146.9790 C   0  0  0  0  0  3  0  0  0  0  0  0
  192.1340  176.7910  147.1660 C   0  0  0  0  0  3  0  0  0  0  0  0
  1  8  1  0  0  0  0
  2  1  2  0  0  0  0
  3 21  1  0  0  0  0
  3  2  1  0  0  0  0
  4 17  1  0  0  0  0
  4  8  2  0  0  0  0
  5  3  2  0  0  0  0
  6  5  1  0  0  0  0
  6  9  1  0  0  0  0
  7  4  1  0  0  0  0
  9  7  2  0  0  0  0
  9  2  1  0  0  0  0
 10 11  1  1  0  0  0
 12 20  1  1  0  0  0
 12 15  1  0  0  0  0
 14 12  1  0  0  0  0
 14 16  1  0  0  0  0
 15 13  2  0  0  0  0
 15 10  1  0  0  0  0
 16 10  1  0  0  0  0
 17 14  2  0  0  0  0
 19 20  1  0  0  0  0
 20 18  1  0  0  0  0
 22 26  1  6  0  0  0
 23 22  1  0  0  0  0
 24 22  1  0  0  0  0
 25 21  1  6  0  0  0
 25 23  1  0  0  0  0
 25 24  1  0  0  0  0
 26 28  1  0  0  0  0
 26 27  2  0  0  0  0
 27 33  1  0  0  0  0
 29 31  1  0  0  0  0
 30 32  1  0  0  0  0
 31 30  2  0  0  0  0
 31 28  1  0  0  0  0
 32 33  2  0  0  0  0
M  END
>  <MODEL>
3

>  <REMARK>
 VINA RESULT:      -8.0      1.378      2.062
  Name = 
  5 active torsions:
  status: ('A' for Active; 'I' for Inactive)
    1  A    between atoms: N_1  and  C_10
    2  A    between atoms: N_1  and  C_32
    3  A    between atoms: C_2  and  C_7
    4  A    between atoms: C_11  and  N_31
    5  A    between atoms: C_16  and  C_19
                            x       y       z     vdW  Elec       q    Type
                         _______ _______ _______ _____ _____    ______ ____

>  <TORSDO>
F 5

$$$$
=
 OpenBabel11062421103D

 33 37  0  0  1  0  0  0  0  0999 V2000
  190.1100  177.3700  143.5730 C   0  0  0  0  0  3  0  0  0  0  0  0
  189.3580  176.6970  142.6140 C   0  0  0  0  0  0  0  0  0  0  0  0
  188.2260  177.0220  141.9010 C   0  0  0  0  0  0  0  0  0  0  0  0
  191.5870  175.4070  143.6490 C   0  0  0  0  0  0  0  0  0  0  0  0
  187.9120  175.9960  141.0780 N   0  0  0  0  0  0  0  0  0  0  0  0
  188.8100  175.0270  141.2460 N   0  0  0  0  0  2  0  0  0  0  0  0
  190.7940  174.7630  142.6690 C   0  0  0  0  0  3  0  0  0  0  0  0
  191.2380  176.7050  144.0890 C   0  0  0  0  0  3  0  0  0  0  0  0
  189.6860  175.4470  142.1770 C   0  0  0  0  0  0  0  0  0  0  0  0
  195.7880  175.8900  142.6980 C   0  0  1  0  0  3  0  0  0  0  0  0
  196.3020  177.1370  143.0020 F   0  0  0  0  0  0  0  0  0  0  0  0
  195.1420  174.3090  144.5150 C   0  0  1  0  0  3  0  0  0  0  0  0
  197.4240  174.5530  143.8200 O   0  0  0  0  0  0  0  0  0  0  0  0
  193.9930  175.0120  143.8800 C   0  0  0  0  0  0  0  0  0  0  0  0
  196.2570  174.8910  143.7040 C   0  0  0  0  0  0  0  0  0  0  0  0
  194.3830  175.8960  142.8830 O   0  0  0  0  0  0  0  0  0  0  0  0
  192.7550  174.7890  144.2120 N   0  0  0  0  0  0  0  0  0  0  0  0
  195.3140  176.0890  146.0970 F   0  0  0  0  0  0  0  0  0  0  0  0
  196.4540  174.1930  146.5080 F   0  0  0  0  0  0  0  0  0  0  0  0
  195.2830  174.7110  145.9820 C   0  0  0  0  0  3  0  0  0  0  0  0
  187.4560  178.2260  141.9840 N   0  0  0  0  0  2  0  0  0  0  0  0
  184.8560  178.2850  143.5240 C   0  0  1  0  0  3  0  0  0  0  0  0
  185.4840  179.2570  142.7260 O   0  0  0  0  0  0  0  0  0  0  0  0
  185.4050  177.1500  142.6970 C   0  0  0  0  0  2  0  0  0  0  0  0
  186.0040  178.2620  141.8780 C   0  0  2  0  0  3  0  0  0  0  0  0
  185.4160  178.2750  144.9170 C   0  0  0  0  0  0  0  0  0  0  0  0
  184.5850  178.5530  145.9240 C   0  0  0  0  0  3  0  0  0  0  0  0
  186.8840  178.0730  145.1460 C   0  0  0  0  0  2  0  0  0  0  0  0
  187.9460  175.8940  145.5040 F   0  0  0  0  0  0  0  0  0  0  0  0
  186.7530  176.8080  147.2670 C   0  0  0  0  0  3  0  0  0  0  0  0
  187.1540  176.8770  145.9970 C   0  0  0  0  0  0  0  0  0  0  0  0
  185.8730  177.7830  147.9400 C   0  0  0  0  0  3  0  0  0  0  0  0
  184.9340  178.5410  147.3580 C   0  0  0  0  0  3  0  0  0  0  0  0
  1  8  1  0  0  0  0
  2  1  2  0  0  0  0
  3 21  1  0  0  0  0
  3  2  1  0  0  0  0
  4  8  2  0  0  0  0
  4 17  1  0  0  0  0
  5  6  1  0  0  0  0
  5  3  2  0  0  0  0
  6  9  1  0  0  0  0
  7  4  1  0  0  0  0
  9  2  1  0  0  0  0
  9  7  2  0  0  0  0
 10 16  1  0  0  0  0
 10 11  1  1  0  0  0
 10 15  1  0  0  0  0
 12 20  1  1  0  0  0
 14 17  2  0  0  0  0
 14 12  1  0  0  0  0
 15 13  2  0  0  0  0
 15 12  1  0  0  0  0
 16 14  1  0  0  0  0
 20 18  1  0  0  0  0
 20 19  1  0  0  0  0
 22 26  1  1  0  0  0
 23 22  1  0  0  0  0
 24 22  1  0  0  0  0
 25 21  1  1  0  0  0
 25 24  1  0  0  0  0
 25 23  1  0  0  0  0
 26 28  1  0  0  0  0
 26 27  2  0  0  0  0
 27 33  1  0  0  0  0
 28 31  1  0  0  0  0
 29 31  1  0  0  0  0
 30 32  1  0  0  0  0
 31 30  2  0  0  0  0
 33 32  2  0  0  0  0
M  END
>  <MODEL>
4

>  <REMARK>
 VINA RESULT:      -8.0      2.342      8.178
  Name = 
  5 active torsions:
  status: ('A' for Active; 'I' for Inactive)
    1  A    between atoms: N_1  and  C_10
    2  A    between atoms: N_1  and  C_32
    3  A    between atoms: C_2  and  C_7
    4  A    between atoms: C_11  and  N_31
    5  A    between atoms: C_16  and  C_19
                            x       y       z     vdW  Elec       q    Type
                         _______ _______ _______ _____ _____    ______ ____

>  <TORSDO>
F 5

$$$$
=
 OpenBabel11062421103D

 33 37  0  0  1  0  0  0  0  0999 V2000
  189.9650  176.7600  143.5560 C   0  0  0  0  0  3  0  0  0  0  0  0
  189.6610  175.8200  142.5760 C   0  0  0  0  0  0  0  0  0  0  0  0
  188.5040  175.4980  141.9010 C   0  0  0  0  0  0  0  0  0  0  0  0
  192.2750  175.9210  143.5020 C   0  0  0  0  0  0  0  0  0  0  0  0
  188.7650  174.4970  141.0300 N   0  0  0  0  0  0  0  0  0  0  0  0
  190.0520  174.1710  141.1310 N   0  0  0  0  0  2  0  0  0  0  0  0
  191.9190  174.9840  142.5030 C   0  0  0  0  0  3  0  0  0  0  0  0
  191.2940  176.8010  144.0160 C   0  0  0  0  0  3  0  0  0  0  0  0
  190.5970  174.9680  142.0670 C   0  0  0  0  0  0  0  0  0  0  0  0
  194.7720  173.0050  145.5140 C   0  0  1  0  0  3  0  0  0  0  0  0
  195.1560  171.9390  144.7220 F   0  0  0  0  0  0  0  0  0  0  0  0
  195.6880  175.2870  145.0960 C   0  0  1  0  0  3  0  0  0  0  0  0
  196.9350  173.6410  146.3160 O   0  0  0  0  0  0  0  0  0  0  0  0
  194.3050  175.0820  144.5860 C   0  0  0  0  0  0  0  0  0  0  0  0
  195.9250  173.9380  145.6980 C   0  0  0  0  0  0  0  0  0  0  0  0
  193.8260  173.7990  144.8190 O   0  0  0  0  0  0  0  0  0  0  0  0
  193.6140  176.0220  144.0110 N   0  0  0  0  0  0  0  0  0  0  0  0
  196.6850  176.8810  143.6250 F   0  0  0  0  0  0  0  0  0  0  0  0
  196.2740  174.8160  142.8290 F   0  0  0  0  0  0  0  0  0  0  0  0
  196.6620  175.5350  143.9460 C   0  0  0  0  0  3  0  0  0  0  0  0
  187.2080  176.0820  142.0610 N   0  0  0  0  0  2  0  0  0  0  0  0
  185.9430  178.7880  142.5280 C   0  0  1  0  0  3  0  0  0  0  0  0
  187.2650  178.4220  142.2150 O   0  0  0  0  0  0  0  0  0  0  0  0
  185.3660  177.6270  141.7580 C   0  0  0  0  0  2  0  0  0  0  0  0
  186.8090  177.3380  141.4420 C   0  0  2  0  0  3  0  0  0  0  0  0
  185.6750  178.6630  143.9990 C   0  0  0  0  0  0  0  0  0  0  0  0
  184.4450  178.9470  144.4350 C   0  0  0  0  0  3  0  0  0  0  0  0
  186.7880  178.3430  144.9510 C   0  0  0  0  0  2  0  0  0  0  0  0
  187.4220  176.0770  145.6330 F   0  0  0  0  0  0  0  0  0  0  0  0
  185.5060  176.9800  146.5680 C   0  0  0  0  0  3  0  0  0  0  0  0
  186.5240  177.0870  145.7130 C   0  0  0  0  0  0  0  0  0  0  0  0
  184.4350  177.9790  146.7540 C   0  0  0  0  0  3  0  0  0  0  0  0
  183.9770  178.8330  145.8300 C   0  0  0  0  0  3  0  0  0  0  0  0
  1  8  1  0  0  0  0
  2  1  2  0  0  0  0
  3 21  1  0  0  0  0
  3  2  1  0  0  0  0
  4 17  1  0  0  0  0
  4  8  2  0  0  0  0
  5  6  1  0  0  0  0
  5  3  2  0  0  0  0
  6  9  1  0  0  0  0
  7  4  1  0  0  0  0
  9  7  2  0  0  0  0
  9  2  1  0  0  0  0
 10 11  1  6  0  0  0
 10 15  1  0  0  0  0
 12 20  1  6  0  0  0
 12 15  1  0  0  0  0
 14 16  1  0  0  0  0
 14 12  1  0  0  0  0
 15 13  2  0  0  0  0
 16 10  1  0  0  0  0
 17 14  2  0  0  0  0
 18 20  1  0  0  0  0
 19 20  1  0  0  0  0
 22 26  1  1  0  0  0
 23 22  1  0  0  0  0
 24 22  1  0  0  0  0
 25 24  1  0  0  0  0
 25 21  1  1  0  0  0
 25 23  1  0  0  0  0
 26 27  2  0  0  0  0
 26 28  1  0  0  0  0
 27 33  1  0  0  0  0
 28 31  1  0  0  0  0
 29 31  1  0  0  0  0
 30 32  1  0  0  0  0
 31 30  2  0  0  0  0
 33 32  2  0  0  0  0
M  END
>  <MODEL>
5

>  <REMARK>
 VINA RESULT:      -8.0      2.299      8.378
  Name = 
  5 active torsions:
  status: ('A' for Active; 'I' for Inactive)
    1  A    between atoms: N_1  and  C_10
    2  A    between atoms: N_1  and  C_32
    3  A    between atoms: C_2  and  C_7
    4  A    between atoms: C_11  and  N_31
    5  A    between atoms: C_16  and  C_19
                            x       y       z     vdW  Elec       q    Type
                         _______ _______ _______ _____ _____    ______ ____

>  <TORSDO>
F 5

$$$$
=
 OpenBabel11062421103D

 33 37  0  0  1  0  0  0  0  0999 V2000
  190.0460  174.5310  146.2620 C   0  0  0  0  0  3  0  0  0  0  0  0
  191.2340  175.1600  145.9050 C   0  0  0  0  0  0  0  0  0  0  0  0
  192.5140  174.7050  145.6760 C   0  0  0  0  0  0  0  0  0  0  0  0
  188.9720  176.7410  146.1930 C   0  0  0  0  0  0  0  0  0  0  0  0
  193.3020  175.7510  145.3400 N   0  0  0  0  0  0  0  0  0  0  0  0
  192.5630  176.8590  145.3490 N   0  0  0  0  0  2  0  0  0  0  0  0
  190.2020  177.3360  145.8260 C   0  0  0  0  0  3  0  0  0  0  0  0
  188.9060  175.3440  146.4040 C   0  0  0  0  0  3  0  0  0  0  0  0
  191.3120  176.5060  145.6930 C   0  0  0  0  0  0  0  0  0  0  0  0
  185.9380  177.8700  143.3110 C   0  0  1  0  0  3  0  0  0  0  0  0
  185.1970  176.8120  142.8180 F   0  0  0  0  0  0  0  0  0  0  0  0
  185.6760  178.6040  145.6790 C   0  0  1  0  0  3  0  0  0  0  0  0
  184.1270  179.2840  143.9800 O   0  0  0  0  0  0  0  0  0  0  0  0
  186.8930  177.7840  145.4250 C   0  0  0  0  0  0  0  0  0  0  0  0
  185.1200  178.6460  144.2910 C   0  0  0  0  0  0  0  0  0  0  0  0
  187.0040  177.3770  144.1020 O   0  0  0  0  0  0  0  0  0  0  0  0
  187.7680  177.5100  146.3480 N   0  0  0  0  0  0  0  0  0  0  0  0
  185.0200  178.1720  147.9340 F   0  0  0  0  0  0  0  0  0  0  0  0
  184.8110  176.5090  146.4330 F   0  0  0  0  0  0  0  0  0  0  0  0
  184.7150  177.8770  146.6170 C   0  0  0  0  0  3  0  0  0  0  0  0
  192.9930  173.3600  145.7750 N   0  0  0  0  0  2  0  0  0  0  0  0
  192.8650  172.4880  142.8840 C   0  0  1  0  0  3  0  0  0  0  0  0
  193.6600  173.4530  143.5270 O   0  0  0  0  0  0  0  0  0  0  0  0
  192.8150  171.6100  144.1080 C   0  0  0  0  0  2  0  0  0  0  0  0
  193.6980  172.6760  144.7000 C   0  0  2  0  0  3  0  0  0  0  0  0
  191.5100  173.0350  142.5400 C   0  0  0  0  0  0  0  0  0  0  0  0
  190.4400  172.3710  142.9820 C   0  0  0  0  0  3  0  0  0  0  0  0
  191.3760  174.2220  141.6340 C   0  0  0  0  0  2  0  0  0  0  0  0
  191.3010  176.5490  142.3970 F   0  0  0  0  0  0  0  0  0  0  0  0
  189.3960  175.2640  142.6850 C   0  0  0  0  0  3  0  0  0  0  0  0
  190.6700  175.3540  142.3010 C   0  0  0  0  0  0  0  0  0  0  0  0
  188.5820  174.0330  142.6670 C   0  0  0  0  0  3  0  0  0  0  0  0
  189.0340  172.7790  142.7940 C   0  0  0  0  0  3  0  0  0  0  0  0
  1  8  1  0  0  0  0
  2  1  2  0  0  0  0
  3 21  1  0  0  0  0
  3  2  1  0  0  0  0
  4 17  1  0  0  0  0
  4  8  2  0  0  0  0
  5  6  1  0  0  0  0
  5  3  2  0  0  0  0
  6  9  1  0  0  0  0
  7  4  1  0  0  0  0
  9  7  2  0  0  0  0
  9  2  1  0  0  0  0
 10 11  1  1  0  0  0
 10 16  1  0  0  0  0
 10 15  1  0  0  0  0
 12 20  1  1  0  0  0
 13 15  2  0  0  0  0
 14 12  1  0  0  0  0
 14 17  2  0  0  0  0
 15 12  1  0  0  0  0
 16 14  1  0  0  0  0
 19 20  1  0  0  0  0
 20 18  1  0  0  0  0
 22 26  1  1  0  0  0
 22 23  1  0  0  0  0
 22 24  1  0  0  0  0
 23 25  1  0  0  0  0
 24 25  1  0  0  0  0
 25 21  1  1  0  0  0
 26 27  2  0  0  0  0
 28 31  1  0  0  0  0
 28 26  1  0  0  0  0
 31 29  1  0  0  0  0
 31 30  2  0  0  0  0
 32 30  1  0  0  0  0
 32 33  2  0  0  0  0
 33 27  1  0  0  0  0
M  END
>  <MODEL>
6

>  <REMARK>
 VINA RESULT:      -7.9      2.250      3.689
  Name = 
  5 active torsions:
  status: ('A' for Active; 'I' for Inactive)
    1  A    between atoms: N_1  and  C_10
    2  A    between atoms: N_1  and  C_32
    3  A    between atoms: C_2  and  C_7
    4  A    between atoms: C_11  and  N_31
    5  A    between atoms: C_16  and  C_19
                            x       y       z     vdW  Elec       q    Type
                         _______ _______ _______ _____ _____    ______ ____

>  <TORSDO>
F 5

$$$$
=
 OpenBabel11062421103D

 33 37  0  0  1  0  0  0  0  0999 V2000
  189.9830  177.9170  144.8710 C   0  0  0  0  0  3  0  0  0  0  0  0
  189.5580  176.7970  145.5800 C   0  0  0  0  0  0  0  0  0  0  0  0
  188.5890  176.5950  146.5370 C   0  0  0  0  0  0  0  0  0  0  0  0
  191.6170  176.4640  143.7500 C   0  0  0  0  0  0  0  0  0  0  0  0
  188.5840  175.2900  146.8920 N   0  0  0  0  0  0  0  0  0  0  0  0
  189.5220  174.6560  146.1920 N   0  0  0  0  0  2  0  0  0  0  0  0
  191.1490  175.3530  144.4910 C   0  0  0  0  0  3  0  0  0  0  0  0
  191.0270  177.7340  143.9460 C   0  0  0  0  0  3  0  0  0  0  0  0
  190.1150  175.5650  145.3980 C   0  0  0  0  0  0  0  0  0  0  0  0
  195.9130  176.2030  144.2630 C   0  0  1  0  0  3  0  0  0  0  0  0
  196.3450  175.0400  144.8730 F   0  0  0  0  0  0  0  0  0  0  0  0
  194.9740  176.1460  141.9540 C   0  0  1  0  0  3  0  0  0  0  0  0
  197.3400  176.1410  142.3440 O   0  0  0  0  0  0  0  0  0  0  0  0
  193.9480  176.2500  143.0270 C   0  0  0  0  0  0  0  0  0  0  0  0
  196.2080  176.1440  142.8000 C   0  0  0  0  0  0  0  0  0  0  0  0
  194.4980  176.2640  144.3020 O   0  0  0  0  0  0  0  0  0  0  0  0
  192.6740  176.3470  142.7830 N   0  0  0  0  0  0  0  0  0  0  0  0
  193.8580  174.9230  140.2330 F   0  0  0  0  0  0  0  0  0  0  0  0
  194.5070  173.8070  142.0760 F   0  0  0  0  0  0  0  0  0  0  0  0
  194.8420  174.8240  141.2000 C   0  0  0  0  0  3  0  0  0  0  0  0
  187.7100  177.5680  147.1100 N   0  0  0  0  0  2  0  0  0  0  0  0
  185.1930  177.3980  145.4440 C   0  0  1  0  0  3  0  0  0  0  0  0
  185.8540  176.4360  146.2280 O   0  0  0  0  0  0  0  0  0  0  0  0
  185.6200  178.5280  146.3460 C   0  0  0  0  0  2  0  0  0  0  0  0
  186.2610  177.4240  147.1430 C   0  0  2  0  0  3  0  0  0  0  0  0
  185.8130  177.5130  144.0820 C   0  0  0  0  0  0  0  0  0  0  0  0
  186.1470  178.7320  143.6500 C   0  0  0  0  0  3  0  0  0  0  0  0
  185.9410  176.3080  143.2000 C   0  0  0  0  0  2  0  0  0  0  0  0
  187.8940  174.8290  143.1450 F   0  0  0  0  0  0  0  0  0  0  0  0
  188.0780  176.8860  142.0970 C   0  0  0  0  0  3  0  0  0  0  0  0
  187.3620  176.0350  142.8340 C   0  0  0  0  0  0  0  0  0  0  0  0
  187.6510  178.2410  141.6980 C   0  0  0  0  0  3  0  0  0  0  0  0
  186.8120  179.0410  142.3690 C   0  0  0  0  0  3  0  0  0  0  0  0
  1  2  1  0  0  0  0
  2  3  1  0  0  0  0
  3  5  2  0  0  0  0
  3 21  1  0  0  0  0
  4  8  1  0  0  0  0
  4  7  2  0  0  0  0
  6  5  1  0  0  0  0
  7  9  1  0  0  0  0
  8  1  2  0  0  0  0
  9  2  2  0  0  0  0
  9  6  1  0  0  0  0
 10 16  1  0  0  0  0
 10 11  1  1  0  0  0
 12 20  1  1  0  0  0
 12 15  1  0  0  0  0
 12 14  1  0  0  0  0
 13 15  2  0  0  0  0
 14 16  1  0  0  0  0
 15 10  1  0  0  0  0
 17 14  2  0  0  0  0
 17  4  1  0  0  0  0
 18 20  1  0  0  0  0
 20 19  1  0  0  0  0
 22 26  1  6  0  0  0
 22 23  1  0  0  0  0
 22 24  1  0  0  0  0
 23 25  1  0  0  0  0
 24 25  1  0  0  0  0
 25 21  1  6  0  0  0
 27 26  2  0  0  0  0
 28 26  1  0  0  0  0
 30 31  2  0  0  0  0
 31 29  1  0  0  0  0
 31 28  1  0  0  0  0
 32 30  1  0  0  0  0
 32 33  2  0  0  0  0
 33 27  1  0  0  0  0
M  END
>  <MODEL>
7

>  <REMARK>
 VINA RESULT:      -7.8      2.437      8.311
  Name = 
  5 active torsions:
  status: ('A' for Active; 'I' for Inactive)
    1  A    between atoms: N_1  and  C_10
    2  A    between atoms: N_1  and  C_32
    3  A    between atoms: C_2  and  C_7
    4  A    between atoms: C_11  and  N_31
    5  A    between atoms: C_16  and  C_19
                            x       y       z     vdW  Elec       q    Type
                         _______ _______ _______ _____ _____    ______ ____

>  <TORSDO>
F 5

$$$$
=
 OpenBabel11062421103D

 33 37  0  0  1  0  0  0  0  0999 V2000
  188.6960  177.7780  145.2810 C   0  0  0  0  0  3  0  0  0  0  0  0
  187.6780  177.4260  146.1610 C   0  0  0  0  0  0  0  0  0  0  0  0
  186.4570  177.9850  146.4670 C   0  0  0  0  0  0  0  0  0  0  0  0
  189.9170  175.7900  146.0550 C   0  0  0  0  0  0  0  0  0  0  0  0
  185.8440  177.2230  147.4010 N   0  0  0  0  0  0  0  0  0  0  0  0
  186.6370  176.1970  147.7000 N   0  0  0  0  0  2  0  0  0  0  0  0
  188.8530  175.4700  146.9320 C   0  0  0  0  0  3  0  0  0  0  0  0
  189.8260  176.9400  145.2370 C   0  0  0  0  0  3  0  0  0  0  0  0
  187.7500  176.3170  146.9530 C   0  0  0  0  0  0  0  0  0  0  0  0
  191.1160  172.9020  143.0530 C   0  0  1  0  0  3  0  0  0  0  0  0
  191.3880  173.4480  141.8130 F   0  0  0  0  0  0  0  0  0  0  0  0
  192.6340  173.3270  144.9850 C   0  0  1  0  0  3  0  0  0  0  0  0
  193.1380  171.6570  143.3400 O   0  0  0  0  0  0  0  0  0  0  0  0
  191.3890  174.1430  144.9970 C   0  0  0  0  0  0  0  0  0  0  0  0
  192.3930  172.5380  143.7370 C   0  0  0  0  0  0  0  0  0  0  0  0
  190.5700  173.8970  143.9020 O   0  0  0  0  0  0  0  0  0  0  0  0
  191.0950  174.9740  145.9530 N   0  0  0  0  0  0  0  0  0  0  0  0
  194.2660  174.7000  146.0580 F   0  0  0  0  0  0  0  0  0  0  0  0
  193.5790  175.2850  143.9960 F   0  0  0  0  0  0  0  0  0  0  0  0
  193.8660  174.2150  144.8250 C   0  0  0  0  0  3  0  0  0  0  0  0
  185.8840  179.1810  145.9280 N   0  0  0  0  0  2  0  0  0  0  0  0
  184.7770  178.2220  143.2840 C   0  0  1  0  0  3  0  0  0  0  0  0
  184.4430  177.8830  144.6070 O   0  0  0  0  0  0  0  0  0  0  0  0
  185.1470  179.6330  143.6640 C   0  0  0  0  0  2  0  0  0  0  0  0
  184.7290  179.1910  145.0410 C   0  0  2  0  0  3  0  0  0  0  0  0
  185.9700  177.4480  142.8040 C   0  0  0  0  0  0  0  0  0  0  0  0
  186.1470  176.2150  143.2840 C   0  0  0  0  0  3  0  0  0  0  0  0
  186.9840  178.0910  141.9060 C   0  0  0  0  0  2  0  0  0  0  0  0
  186.9010  178.0400  139.4580 F   0  0  0  0  0  0  0  0  0  0  0  0
  187.5780  176.1120  140.5480 C   0  0  0  0  0  3  0  0  0  0  0  0
  187.1210  177.3630  140.6110 C   0  0  0  0  0  0  0  0  0  0  0  0
  187.8420  175.2380  141.7080 C   0  0  0  0  0  3  0  0  0  0  0  0
  187.2230  175.2840  142.8950 C   0  0  0  0  0  3  0  0  0  0  0  0
  1  2  1  0  0  0  0
  2  3  1  0  0  0  0
  2  9  2  0  0  0  0
  3  5  2  0  0  0  0
  4  7  2  0  0  0  0
  5  6  1  0  0  0  0
  7  9  1  0  0  0  0
  8  1  2  0  0  0  0
  8  4  1  0  0  0  0
  9  6  1  0  0  0  0
 10 11  1  6  0  0  0
 10 15  1  0  0  0  0
 10 16  1  0  0  0  0
 12 20  1  6  0  0  0
 12 14  1  0  0  0  0
 13 15  2  0  0  0  0
 14 17  2  0  0  0  0
 15 12  1  0  0  0  0
 16 14  1  0  0  0  0
 17  4  1  0  0  0  0
 19 20  1  0  0  0  0
 20 18  1  0  0  0  0
 21  3  1  0  0  0  0
 22 26  1  1  0  0  0
 22 24  1  0  0  0  0
 22 23  1  0  0  0  0
 23 25  1  0  0  0  0
 24 25  1  0  0  0  0
 25 21  1  1  0  0  0
 26 27  2  0  0  0  0
 28 26  1  0  0  0  0
 29 31  1  0  0  0  0
 30 31  2  0  0  0  0
 30 32  1  0  0  0  0
 31 28  1  0  0  0  0
 32 33  2  0  0  0  0
 33 27  1  0  0  0  0
M  END
>  <MODEL>
8

>  <REMARK>
 VINA RESULT:      -7.7      3.143      8.101
  Name = 
  5 active torsions:
  status: ('A' for Active; 'I' for Inactive)
    1  A    between atoms: N_1  and  C_10
    2  A    between atoms: N_1  and  C_32
    3  A    between atoms: C_2  and  C_7
    4  A    between atoms: C_11  and  N_31
    5  A    between atoms: C_16  and  C_19
                            x       y       z     vdW  Elec       q    Type
                         _______ _______ _______ _____ _____    ______ ____

>  <TORSDO>
F 5

$$$$
=
 OpenBabel11062421103D

 33 37  0  0  1  0  0  0  0  0999 V2000
  190.4860  175.0140  146.0050 C   0  0  0  0  0  3  0  0  0  0  0  0
  191.4810  175.8100  145.4450 C   0  0  0  0  0  0  0  0  0  0  0  0
  192.8570  175.7520  145.4570 C   0  0  0  0  0  0  0  0  0  0  0  0
  188.8400  176.5350  144.9960 C   0  0  0  0  0  0  0  0  0  0  0  0
  193.3480  176.7830  144.7330 N   0  0  0  0  0  0  0  0  0  0  0  0
  192.3270  177.4970  144.2620 N   0  0  0  0  0  2  0  0  0  0  0  0
  189.8860  177.3110  144.4430 C   0  0  0  0  0  3  0  0  0  0  0  0
  189.1520  175.3920  145.7690 C   0  0  0  0  0  3  0  0  0  0  0  0
  191.1960  176.9120  144.6930 C   0  0  0  0  0  0  0  0  0  0  0  0
  185.9460  178.4220  147.6130 C   0  0  1  0  0  3  0  0  0  0  0  0
  186.2130  179.7490  147.8950 F   0  0  0  0  0  0  0  0  0  0  0  0
  185.2280  177.7350  145.3250 C   0  0  1  0  0  3  0  0  0  0  0  0
  183.6760  178.6660  146.8980 O   0  0  0  0  0  0  0  0  0  0  0  0
  186.6590  177.4530  145.6270 C   0  0  0  0  0  0  0  0  0  0  0  0
  184.8200  178.3310  146.6360 C   0  0  0  0  0  0  0  0  0  0  0  0
  187.0340  177.8590  146.9010 O   0  0  0  0  0  0  0  0  0  0  0  0
  187.4560  176.8580  144.7880 N   0  0  0  0  0  0  0  0  0  0  0  0
  185.5840  179.9920  144.6320 F   0  0  0  0  0  0  0  0  0  0  0  0
  183.7740  178.9130  143.8420 F   0  0  0  0  0  0  0  0  0  0  0  0
  185.1000  178.7670  144.2070 C   0  0  0  0  0  3  0  0  0  0  0  0
  193.6860  174.7920  146.1190 N   0  0  0  0  0  2  0  0  0  0  0  0
  194.0910  172.7270  143.9490 C   0  0  1  0  0  3  0  0  0  0  0  0
  194.4920  174.0720  144.0360 O   0  0  0  0  0  0  0  0  0  0  0  0
  194.2010  172.5240  145.4380 C   0  0  0  0  0  2  0  0  0  0  0  0
  194.6600  173.9570  145.4290 C   0  0  2  0  0  3  0  0  0  0  0  0
  192.6700  172.6090  143.4780 C   0  0  0  0  0  0  0  0  0  0  0  0
  191.8040  171.9670  144.2660 C   0  0  0  0  0  3  0  0  0  0  0  0
  192.2770  173.0970  142.1160 C   0  0  0  0  0  2  0  0  0  0  0  0
  191.4640  175.3580  141.6340 F   0  0  0  0  0  0  0  0  0  0  0  0
  189.9960  173.8860  142.6550 C   0  0  0  0  0  3  0  0  0  0  0  0
  191.2170  174.1460  142.1870 C   0  0  0  0  0  0  0  0  0  0  0  0
  189.5780  172.6290  143.3060 C   0  0  0  0  0  3  0  0  0  0  0  0
  190.3620  171.7960  144.0020 C   0  0  0  0  0  3  0  0  0  0  0  0
  2  3  1  0  0  0  0
  2  1  2  0  0  0  0
  3 21  1  0  0  0  0
  4  8  2  0  0  0  0
  5  3  2  0  0  0  0
  6  9  1  0  0  0  0
  6  5  1  0  0  0  0
  7  9  2  0  0  0  0
  7  4  1  0  0  0  0
  8  1  1  0  0  0  0
  9  2  1  0  0  0  0
 10 11  1  6  0  0  0
 12 20  1  6  0  0  0
 12 14  1  0  0  0  0
 12 15  1  0  0  0  0
 14 16  1  0  0  0  0
 15 13  2  0  0  0  0
 15 10  1  0  0  0  0
 16 10  1  0  0  0  0
 17  4  1  0  0  0  0
 17 14  2  0  0  0  0
 19 20  1  0  0  0  0
 20 18  1  0  0  0  0
 22 26  1  1  0  0  0
 22 23  1  0  0  0  0
 22 24  1  0  0  0  0
 23 25  1  0  0  0  0
 25 24  1  0  0  0  0
 25 21  1  1  0  0  0
 26 27  2  0  0  0  0
 28 31  1  0  0  0  0
 28 26  1  0  0  0  0
 29 31  1  0  0  0  0
 30 32  1  0  0  0  0
 31 30  2  0  0  0  0
 32 33  2  0  0  0  0
 33 27  1  0  0  0  0
M  END
>  <MODEL>
9

>  <REMARK>
 VINA RESULT:      -7.6      2.366      3.737
  Name = 
  5 active torsions:
  status: ('A' for Active; 'I' for Inactive)
    1  A    between atoms: N_1  and  C_10
    2  A    between atoms: N_1  and  C_32
    3  A    between atoms: C_2  and  C_7
    4  A    between atoms: C_11  and  N_31
    5  A    between atoms: C_16  and  C_19
                            x       y       z     vdW  Elec       q    Type
                         _______ _______ _______ _____ _____    ______ ____

>  <TORSDO>
F 5

$$$$
