=
 OpenBabel11062420153D

 25 27  0  0  1  0  0  0  0  0999 V2000
  188.5110  176.5900  144.1800 C   0  0  0  0  0  3  0  0  0  0  0  0
  189.7710  175.9960  144.0260 O   0  0  0  0  0  0  0  0  0  0  0  0
  188.8830  176.6980  146.6120 C   0  0  0  0  0  2  0  0  0  0  0  0
  188.0280  176.9110  145.3890 C   0  0  0  0  0  0  0  0  0  0  0  0
  189.8910  175.5680  146.4270 C   0  0  2  0  0  3  0  0  0  0  0  0
  190.8320  175.5550  147.6180 C   0  0  0  0  0  1  0  0  0  0  0  0
  190.6640  175.7950  145.1230 C   0  0  1  0  0  3  0  0  0  0  0  0
  191.2120  173.3270  144.7310 C   0  0  0  0  0  0  0  0  0  0  0  0
  195.2610  174.2240  144.0480 N   0  0  0  0  0  1  0  0  0  0  0  0
  189.7890  172.9290  144.9370 C   0  0  0  0  0  1  0  0  0  0  0  0
  193.4330  172.6350  144.2510 C   0  0  0  0  0  3  0  0  0  0  0  0
  191.6260  174.6750  144.8150 C   0  0  0  0  0  0  0  0  0  0  0  0
  192.9860  174.9820  144.6340 C   0  0  0  0  0  0  0  0  0  0  0  0
  193.8930  173.9480  144.3330 C   0  0  0  0  0  0  0  0  0  0  0  0
  192.1210  172.3560  144.4560 N   0  0  0  0  0  0  0  0  0  0  0  0
  193.4020  176.3170  144.7240 O   0  0  0  0  0  0  0  0  0  0  0  0
  194.1400  176.8310  145.7930 C   0  0  0  0  0  0  0  0  0  0  0  0
  194.1210  176.2360  146.9010 O   0  0  0  0  0  1  0  0  0  0  0  0
  194.9320  177.9640  145.6380 O   0  0  0  0  0  0  0  0  0  0  0  0
  184.4950  177.6280  146.5590 C   0  0  0  0  0  3  0  0  0  0  0  0
  186.3430  178.6600  144.7360 C   0  0  0  0  0  3  0  0  0  0  0  0
  185.7560  177.0380  146.4310 C   0  0  0  0  0  3  0  0  0  0  0  0
  186.6950  177.5470  145.5190 C   0  0  0  0  0  0  0  0  0  0  0  0
  184.1590  178.7340  145.7750 C   0  0  0  0  0  3  0  0  0  0  0  0
  185.0830  179.2510  144.8640 C   0  0  0  0  0  3  0  0  0  0  0  0
  1  4  2  0  0  0  0
  2  1  1  0  0  0  0
  2  7  1  0  0  0  0
  4 23  1  0  0  0  0
  4  3  1  0  0  0  0
  5  3  1  0  0  0  0
  5  6  1  1  0  0  0
  7 12  1  6  0  0  0
  7  5  1  0  0  0  0
  8 12  1  0  0  0  0
  8 10  1  0  0  0  0
  9 14  1  0  0  0  0
 11 14  2  0  0  0  0
 11 15  1  0  0  0  0
 13 16  1  0  0  0  0
 13 12  2  0  0  0  0
 14 13  1  0  0  0  0
 15  8  2  0  0  0  0
 16 17  1  0  0  0  0
 17 18  1  0  0  0  0
 19 17  2  0  0  0  0
 21 25  2  0  0  0  0
 21 23  1  0  0  0  0
 22 20  1  0  0  0  0
 23 22  2  0  0  0  0
 24 20  2  0  0  0  0
 25 24  1  0  0  0  0
M  END
>  <MODEL>
1

>  <REMARK>
 VINA RESULT:      -7.5      0.000      0.000
  Name = 
  4 active torsions:
  status: ('A' for Active; 'I' for Inactive)
    1  A    between atoms: C_8  and  O_21
    2  A    between atoms: C_11  and  C_23
    3  A    between atoms: C_12  and  O_21
    4  A    between atoms: C_15  and  C_16
                            x       y       z     vdW  Elec       q    Type
                         _______ _______ _______ _____ _____    ______ ____

>  <TORSDO>
F 4

$$$$
=
 OpenBabel11062420153D

 25 27  0  0  1  0  0  0  0  0999 V2000
  188.6740  177.4920  144.5620 C   0  0  0  0  0  3  0  0  0  0  0  0
  189.9110  176.8510  144.7070 O   0  0  0  0  0  0  0  0  0  0  0  0
  187.8590  176.3260  146.5720 C   0  0  0  0  0  2  0  0  0  0  0  0
  187.6550  177.2520  145.3990 C   0  0  0  0  0  0  0  0  0  0  0  0
  188.9410  175.2830  146.3070 C   0  0  2  0  0  3  0  0  0  0  0  0
  189.2150  174.5290  147.5950 C   0  0  0  0  0  1  0  0  0  0  0  0
  190.2060  175.9900  145.8080 C   0  0  1  0  0  3  0  0  0  0  0  0
  192.6230  175.1620  145.9260 C   0  0  0  0  0  0  0  0  0  0  0  0
  191.7480  171.9180  143.4000 N   0  0  0  0  0  1  0  0  0  0  0  0
  193.0090  176.2720  146.8440 C   0  0  0  0  0  1  0  0  0  0  0  0
  193.3060  173.2270  144.7280 C   0  0  0  0  0  3  0  0  0  0  0  0
  191.3040  175.0250  145.4380 C   0  0  0  0  0  0  0  0  0  0  0  0
  191.0100  173.9700  144.5560 C   0  0  0  0  0  0  0  0  0  0  0  0
  192.0230  173.0550  144.2140 C   0  0  0  0  0  0  0  0  0  0  0  0
  193.5770  174.2670  145.5570 N   0  0  0  0  0  0  0  0  0  0  0  0
  189.7040  173.8350  144.0650 O   0  0  0  0  0  0  0  0  0  0  0  0
  189.3420  174.0950  142.7410 C   0  0  0  0  0  0  0  0  0  0  0  0
  190.0090  174.9210  142.0670 O   0  0  0  0  0  0  0  0  0  0  0  0
  188.2830  173.4200  142.1430 O   0  0  0  0  0  1  0  0  0  0  0  0
  184.9340  179.4510  143.9420 C   0  0  0  0  0  3  0  0  0  0  0  0
  185.3270  177.8100  146.1680 C   0  0  0  0  0  3  0  0  0  0  0  0
  186.1500  178.7820  144.1130 C   0  0  0  0  0  3  0  0  0  0  0  0
  186.3610  177.9540  145.2260 C   0  0  0  0  0  0  0  0  0  0  0  0
  183.9150  179.2990  144.8850 C   0  0  0  0  0  3  0  0  0  0  0  0
  184.1110  178.4780  145.9980 C   0  0  0  0  0  3  0  0  0  0  0  0
  1  2  1  0  0  0  0
  1  4  2  0  0  0  0
  2  7  1  0  0  0  0
  4  3  1  0  0  0  0
  5  3  1  0  0  0  0
  5  6  1  1  0  0  0
  7 12  1  6  0  0  0
  7  5  1  0  0  0  0
  8 10  1  0  0  0  0
  9 14  1  0  0  0  0
 11 15  2  0  0  0  0
 12  8  2  0  0  0  0
 13 12  1  0  0  0  0
 14 13  2  0  0  0  0
 14 11  1  0  0  0  0
 15  8  1  0  0  0  0
 16 13  1  0  0  0  0
 17 16  1  0  0  0  0
 18 17  2  0  0  0  0
 19 17  1  0  0  0  0
 20 22  2  0  0  0  0
 20 24  1  0  0  0  0
 22 23  1  0  0  0  0
 23  4  1  0  0  0  0
 23 21  2  0  0  0  0
 24 25  2  0  0  0  0
 25 21  1  0  0  0  0
M  END
>  <MODEL>
2

>  <REMARK>
 VINA RESULT:      -7.3      1.913      3.363
  Name = 
  4 active torsions:
  status: ('A' for Active; 'I' for Inactive)
    1  A    between atoms: C_8  and  O_21
    2  A    between atoms: C_11  and  C_23
    3  A    between atoms: C_12  and  O_21
    4  A    between atoms: C_15  and  C_16
                            x       y       z     vdW  Elec       q    Type
                         _______ _______ _______ _____ _____    ______ ____

>  <TORSDO>
F 4

$$$$
=
 OpenBabel11062420153D

 25 27  0  0  1  0  0  0  0  0999 V2000
  188.7410  177.2230  144.2960 C   0  0  0  0  0  3  0  0  0  0  0  0
  189.9390  176.5170  144.4670 O   0  0  0  0  0  0  0  0  0  0  0  0
  187.9310  176.3250  146.4420 C   0  0  0  0  0  2  0  0  0  0  0  0
  187.7420  177.1390  145.1870 C   0  0  0  0  0  0  0  0  0  0  0  0
  188.9340  175.1900  146.2520 C   0  0  2  0  0  3  0  0  0  0  0  0
  189.2090  174.5540  147.6020 C   0  0  0  0  0  1  0  0  0  0  0  0
  190.2210  175.7550  145.6420 C   0  0  1  0  0  3  0  0  0  0  0  0
  192.5640  174.7460  145.8290 C   0  0  0  0  0  0  0  0  0  0  0  0
  191.4410  171.4360  143.4950 N   0  0  0  0  0  1  0  0  0  0  0  0
  193.0340  175.8760  146.6820 C   0  0  0  0  0  1  0  0  0  0  0  0
  193.0950  172.6950  144.7540 C   0  0  0  0  0  3  0  0  0  0  0  0
  191.2400  174.6850  145.3390 C   0  0  0  0  0  0  0  0  0  0  0  0
  190.8660  173.6060  144.5200 C   0  0  0  0  0  0  0  0  0  0  0  0
  191.8030  172.5940  144.2410 C   0  0  0  0  0  0  0  0  0  0  0  0
  193.4450  173.7580  145.5210 N   0  0  0  0  0  0  0  0  0  0  0  0
  189.5550  173.5460  144.0270 O   0  0  0  0  0  0  0  0  0  0  0  0
  189.2230  173.7120  142.6800 C   0  0  0  0  0  0  0  0  0  0  0  0
  188.2340  173.0980  142.2060 O   0  0  0  0  0  1  0  0  0  0  0  0
  189.9420  174.5830  141.8680 O   0  0  0  0  0  0  0  0  0  0  0  0
  184.2510  178.5110  145.7230 C   0  0  0  0  0  3  0  0  0  0  0  0
  186.3250  178.7450  143.8680 C   0  0  0  0  0  3  0  0  0  0  0  0
  185.4380  177.7960  145.9080 C   0  0  0  0  0  3  0  0  0  0  0  0
  186.4890  177.9050  144.9840 C   0  0  0  0  0  0  0  0  0  0  0  0
  184.1020  179.3430  144.6120 C   0  0  0  0  0  3  0  0  0  0  0  0
  185.1390  179.4600  143.6840 C   0  0  0  0  0  3  0  0  0  0  0  0
  1  2  1  0  0  0  0
  1  4  2  0  0  0  0
  2  7  1  0  0  0  0
  4  3  1  0  0  0  0
  5  3  1  0  0  0  0
  5  6  1  1  0  0  0
  7 12  1  6  0  0  0
  7  5  1  0  0  0  0
  8 10  1  0  0  0  0
  9 14  1  0  0  0  0
 11 15  2  0  0  0  0
 12  8  2  0  0  0  0
 13 12  1  0  0  0  0
 14 13  2  0  0  0  0
 14 11  1  0  0  0  0
 15  8  1  0  0  0  0
 16 13  1  0  0  0  0
 17 16  1  0  0  0  0
 18 17  1  0  0  0  0
 19 17  2  0  0  0  0
 20 22  1  0  0  0  0
 21 23  1  0  0  0  0
 23  4  1  0  0  0  0
 23 22  2  0  0  0  0
 24 20  2  0  0  0  0
 25 21  2  0  0  0  0
 25 24  1  0  0  0  0
M  END
>  <MODEL>
3

>  <REMARK>
 VINA RESULT:      -7.3      1.931      3.263
  Name = 
  4 active torsions:
  status: ('A' for Active; 'I' for Inactive)
    1  A    between atoms: C_8  and  O_21
    2  A    between atoms: C_11  and  C_23
    3  A    between atoms: C_12  and  O_21
    4  A    between atoms: C_15  and  C_16
                            x       y       z     vdW  Elec       q    Type
                         _______ _______ _______ _____ _____    ______ ____

>  <TORSDO>
F 4

$$$$
=
 OpenBabel11062420153D

 25 27  0  0  1  0  0  0  0  0999 V2000
  188.2410  175.8300  145.4740 C   0  0  0  0  0  3  0  0  0  0  0  0
  189.4610  175.2340  145.1300 O   0  0  0  0  0  0  0  0  0  0  0  0
  188.7100  177.6530  143.8850 C   0  0  0  0  0  2  0  0  0  0  0  0
  187.8530  176.9960  144.9380 C   0  0  0  0  0  0  0  0  0  0  0  0
  190.1840  177.2870  144.0270 C   0  0  2  0  0  3  0  0  0  0  0  0
  190.9360  177.8250  142.8230 C   0  0  0  0  0  1  0  0  0  0  0  0
  190.3160  175.7630  144.1160 C   0  0  1  0  0  3  0  0  0  0  0  0
  192.3870  174.4020  143.4820 C   0  0  0  0  0  0  0  0  0  0  0  0
  194.5290  175.9360  146.7570 N   0  0  0  0  0  1  0  0  0  0  0  0
  191.7040  173.8300  142.2860 C   0  0  0  0  0  1  0  0  0  0  0  0
  194.3600  174.5030  144.8010 C   0  0  0  0  0  3  0  0  0  0  0  0
  191.7380  175.3140  144.3440 C   0  0  0  0  0  0  0  0  0  0  0  0
  192.4290  175.7980  145.4690 C   0  0  0  0  0  0  0  0  0  0  0  0
  193.7600  175.3980  145.6860 C   0  0  0  0  0  0  0  0  0  0  0  0
  193.6680  174.0260  143.7360 N   0  0  0  0  0  0  0  0  0  0  0  0
  191.7850  176.6980  146.3300 O   0  0  0  0  0  0  0  0  0  0  0  0
  191.4300  176.3940  147.6460 C   0  0  0  0  0  0  0  0  0  0  0  0
  191.0610  175.2260  147.9350 O   0  0  0  0  0  0  0  0  0  0  0  0
  191.5230  177.3500  148.6520 O   0  0  0  0  0  1  0  0  0  0  0  0
  184.8580  179.3180  144.9920 C   0  0  0  0  0  3  0  0  0  0  0  0
  185.7680  177.0500  146.3450 C   0  0  0  0  0  3  0  0  0  0  0  0
  186.0820  178.7400  144.6430 C   0  0  0  0  0  3  0  0  0  0  0  0
  186.5510  177.5990  145.3140 C   0  0  0  0  0  0  0  0  0  0  0  0
  184.0900  178.7610  146.0170 C   0  0  0  0  0  3  0  0  0  0  0  0
  184.5440  177.6270  146.6940 C   0  0  0  0  0  3  0  0  0  0  0  0
  2  1  1  0  0  0  0
  3  5  1  0  0  0  0
  3  4  1  0  0  0  0
  4 23  1  0  0  0  0
  4  1  2  0  0  0  0
  5  6  1  6  0  0  0
  5  7  1  0  0  0  0
  7 12  1  1  0  0  0
  7  2  1  0  0  0  0
  8 15  2  0  0  0  0
  8 12  1  0  0  0  0
 10  8  1  0  0  0  0
 11 14  2  0  0  0  0
 12 13  2  0  0  0  0
 13 14  1  0  0  0  0
 13 16  1  0  0  0  0
 14  9  1  0  0  0  0
 15 11  1  0  0  0  0
 16 17  1  0  0  0  0
 17 18  2  0  0  0  0
 17 19  1  0  0  0  0
 20 24  1  0  0  0  0
 21 25  1  0  0  0  0
 22 20  2  0  0  0  0
 22 23  1  0  0  0  0
 23 21  2  0  0  0  0
 24 25  2  0  0  0  0
M  END
>  <MODEL>
4

>  <REMARK>
 VINA RESULT:      -7.2      1.726      2.580
  Name = 
  4 active torsions:
  status: ('A' for Active; 'I' for Inactive)
    1  A    between atoms: C_8  and  O_21
    2  A    between atoms: C_11  and  C_23
    3  A    between atoms: C_12  and  O_21
    4  A    between atoms: C_15  and  C_16
                            x       y       z     vdW  Elec       q    Type
                         _______ _______ _______ _____ _____    ______ ____

>  <TORSDO>
F 4

$$$$
=
 OpenBabel11062420153D

 25 27  0  0  1  0  0  0  0  0999 V2000
  188.6340  177.9090  143.9010 C   0  0  0  0  0  3  0  0  0  0  0  0
  189.9230  177.4890  143.5510 O   0  0  0  0  0  0  0  0  0  0  0  0
  188.5640  176.1710  145.6450 C   0  0  0  0  0  2  0  0  0  0  0  0
  187.9310  177.2960  144.8640 C   0  0  0  0  0  0  0  0  0  0  0  0
  189.6330  175.4370  144.8410 C   0  0  2  0  0  3  0  0  0  0  0  0
  190.3470  174.4620  145.7590 C   0  0  0  0  0  1  0  0  0  0  0  0
  190.6150  176.4600  144.2610 C   0  0  1  0  0  3  0  0  0  0  0  0
  191.3220  175.0050  142.2800 C   0  0  0  0  0  0  0  0  0  0  0  0
  195.3880  175.7340  143.0580 N   0  0  0  0  0  1  0  0  0  0  0  0
  189.9030  174.7160  141.9240 C   0  0  0  0  0  1  0  0  0  0  0  0
  193.6190  174.6710  141.7740 C   0  0  0  0  0  3  0  0  0  0  0  0
  191.6610  175.8270  143.3780 C   0  0  0  0  0  0  0  0  0  0  0  0
  193.0180  176.0410  143.6760 C   0  0  0  0  0  0  0  0  0  0  0  0
  194.0040  175.4670  142.8510 C   0  0  0  0  0  0  0  0  0  0  0  0
  192.3040  174.4540  141.5190 N   0  0  0  0  0  0  0  0  0  0  0  0
  193.3580  176.8510  144.7680 O   0  0  0  0  0  0  0  0  0  0  0  0
  193.7900  176.3520  145.9990 C   0  0  0  0  0  0  0  0  0  0  0  0
  194.1910  177.1510  146.8850 O   0  0  0  0  0  1  0  0  0  0  0  0
  193.7420  174.9900  146.2770 O   0  0  0  0  0  0  0  0  0  0  0  0
  184.7460  179.3490  144.9070 C   0  0  0  0  0  3  0  0  0  0  0  0
  185.8090  177.1140  146.2020 C   0  0  0  0  0  3  0  0  0  0  0  0
  186.0260  178.8920  144.5770 C   0  0  0  0  0  3  0  0  0  0  0  0
  186.5720  177.7700  145.2190 C   0  0  0  0  0  0  0  0  0  0  0  0
  183.9990  178.6880  145.8850 C   0  0  0  0  0  3  0  0  0  0  0  0
  184.5300  177.5700  146.5320 C   0  0  0  0  0  3  0  0  0  0  0  0
  1  4  2  0  0  0  0
  2  1  1  0  0  0  0
  2  7  1  0  0  0  0
  4 23  1  0  0  0  0
  4  3  1  0  0  0  0
  5  3  1  0  0  0  0
  5  6  1  1  0  0  0
  7 12  1  6  0  0  0
  7  5  1  0  0  0  0
  8 12  1  0  0  0  0
 10  8  1  0  0  0  0
 11 14  2  0  0  0  0
 12 13  2  0  0  0  0
 13 16  1  0  0  0  0
 14  9  1  0  0  0  0
 14 13  1  0  0  0  0
 15 11  1  0  0  0  0
 15  8  2  0  0  0  0
 16 17  1  0  0  0  0
 17 19  2  0  0  0  0
 17 18  1  0  0  0  0
 20 24  1  0  0  0  0
 21 25  1  0  0  0  0
 22 20  2  0  0  0  0
 22 23  1  0  0  0  0
 23 21  2  0  0  0  0
 24 25  2  0  0  0  0
M  END
>  <MODEL>
5

>  <REMARK>
 VINA RESULT:      -7.2      1.608      2.081
  Name = 
  4 active torsions:
  status: ('A' for Active; 'I' for Inactive)
    1  A    between atoms: C_8  and  O_21
    2  A    between atoms: C_11  and  C_23
    3  A    between atoms: C_12  and  O_21
    4  A    between atoms: C_15  and  C_16
                            x       y       z     vdW  Elec       q    Type
                         _______ _______ _______ _____ _____    ______ ____

>  <TORSDO>
F 4

$$$$
=
 OpenBabel11062420153D

 25 27  0  0  1  0  0  0  0  0999 V2000
  188.4570  175.9510  145.8150 C   0  0  0  0  0  3  0  0  0  0  0  0
  189.7430  175.4380  145.6010 O   0  0  0  0  0  0  0  0  0  0  0  0
  188.9800  177.8280  144.3080 C   0  0  0  0  0  2  0  0  0  0  0  0
  188.0570  177.1010  145.2520 C   0  0  0  0  0  0  0  0  0  0  0  0
  190.4510  177.5510  144.6060 C   0  0  2  0  0  3  0  0  0  0  0  0
  191.2940  178.1560  143.4980 C   0  0  0  0  0  1  0  0  0  0  0  0
  190.6680  176.0370  144.6930 C   0  0  1  0  0  3  0  0  0  0  0  0
  192.6150  175.9480  146.3500 C   0  0  0  0  0  0  0  0  0  0  0  0
  195.0600  174.0040  143.5380 N   0  0  0  0  0  1  0  0  0  0  0  0
  191.8050  176.6140  147.4110 C   0  0  0  0  0  1  0  0  0  0  0  0
  194.6990  174.9920  145.7290 C   0  0  0  0  0  3  0  0  0  0  0  0
  192.0820  175.6730  145.0710 C   0  0  0  0  0  0  0  0  0  0  0  0
  192.9050  175.0640  144.1070 C   0  0  0  0  0  0  0  0  0  0  0  0
  194.2220  174.7070  144.4500 C   0  0  0  0  0  0  0  0  0  0  0  0
  193.8970  175.6040  146.6370 N   0  0  0  0  0  0  0  0  0  0  0  0
  192.3820  174.7960  142.8340 O   0  0  0  0  0  0  0  0  0  0  0  0
  191.6600  173.6430  142.5190 C   0  0  0  0  0  0  0  0  0  0  0  0
  190.7550  173.6970  141.6470 O   0  0  0  0  0  0  0  0  0  0  0  0
  191.9560  172.4250  143.1230 O   0  0  0  0  0  1  0  0  0  0  0  0
  184.9480  179.2570  145.0360 C   0  0  0  0  0  3  0  0  0  0  0  0
  185.8170  176.9740  146.3900 C   0  0  0  0  0  3  0  0  0  0  0  0
  186.2370  178.7620  144.8170 C   0  0  0  0  0  3  0  0  0  0  0  0
  186.6860  177.6150  145.4900 C   0  0  0  0  0  0  0  0  0  0  0  0
  184.0940  178.6100  145.9320 C   0  0  0  0  0  3  0  0  0  0  0  0
  184.5280  177.4690  146.6100 C   0  0  0  0  0  3  0  0  0  0  0  0
  2  1  1  0  0  0  0
  3  5  1  0  0  0  0
  3  4  1  0  0  0  0
  4 23  1  0  0  0  0
  4  1  2  0  0  0  0
  5  6  1  6  0  0  0
  5  7  1  0  0  0  0
  7 12  1  1  0  0  0
  7  2  1  0  0  0  0
  8 15  1  0  0  0  0
  8 10  1  0  0  0  0
  9 14  1  0  0  0  0
 11 15  2  0  0  0  0
 12  8  2  0  0  0  0
 13 14  2  0  0  0  0
 13 12  1  0  0  0  0
 14 11  1  0  0  0  0
 16 13  1  0  0  0  0
 17 16  1  0  0  0  0
 17 19  1  0  0  0  0
 18 17  2  0  0  0  0
 20 24  1  0  0  0  0
 21 25  1  0  0  0  0
 22 20  2  0  0  0  0
 22 23  1  0  0  0  0
 23 21  2  0  0  0  0
 24 25  2  0  0  0  0
M  END
>  <MODEL>
6

>  <REMARK>
 VINA RESULT:      -7.2      2.020      3.216
  Name = 
  4 active torsions:
  status: ('A' for Active; 'I' for Inactive)
    1  A    between atoms: C_8  and  O_21
    2  A    between atoms: C_11  and  C_23
    3  A    between atoms: C_12  and  O_21
    4  A    between atoms: C_15  and  C_16
                            x       y       z     vdW  Elec       q    Type
                         _______ _______ _______ _____ _____    ______ ____

>  <TORSDO>
F 4

$$$$
=
 OpenBabel11062420153D

 25 27  0  0  1  0  0  0  0  0999 V2000
  188.2930  175.8270  146.2690 C   0  0  0  0  0  3  0  0  0  0  0  0
  189.3930  174.9730  146.1200 O   0  0  0  0  0  0  0  0  0  0  0  0
  188.2250  176.1320  143.8260 C   0  0  0  0  0  2  0  0  0  0  0  0
  187.7220  176.4300  145.2160 C   0  0  0  0  0  0  0  0  0  0  0  0
  189.6940  175.7220  143.8160 C   0  0  2  0  0  3  0  0  0  0  0  0
  190.0580  175.2530  142.4190 C   0  0  0  0  0  1  0  0  0  0  0  0
  189.9090  174.6020  144.8400 C   0  0  1  0  0  3  0  0  0  0  0  0
  192.3720  175.1090  145.3080 C   0  0  0  0  0  0  0  0  0  0  0  0
  193.4360  171.0990  144.6300 N   0  0  0  0  0  1  0  0  0  0  0  0
  192.0740  176.5430  145.5870 C   0  0  0  0  0  1  0  0  0  0  0  0
  194.0160  173.3990  145.1610 C   0  0  0  0  0  3  0  0  0  0  0  0
  191.3560  174.1920  144.9590 C   0  0  0  0  0  0  0  0  0  0  0  0
  191.7060  172.8580  144.6850 C   0  0  0  0  0  0  0  0  0  0  0  0
  193.0500  172.4590  144.8050 C   0  0  0  0  0  0  0  0  0  0  0  0
  193.6610  174.6880  145.3960 N   0  0  0  0  0  0  0  0  0  0  0  0
  190.7000  171.9480  144.3320 O   0  0  0  0  0  0  0  0  0  0  0  0
  190.2990  171.7060  143.0160 C   0  0  0  0  0  0  0  0  0  0  0  0
  189.0920  171.8590  142.6980 O   0  0  0  0  0  1  0  0  0  0  0  0
  191.2230  171.3420  142.0410 O   0  0  0  0  0  0  0  0  0  0  0  0
  184.4200  177.7960  146.4780 C   0  0  0  0  0  3  0  0  0  0  0  0
  186.4420  178.5320  144.6970 C   0  0  0  0  0  3  0  0  0  0  0  0
  185.5290  176.9640  146.2960 C   0  0  0  0  0  3  0  0  0  0  0  0
  186.5530  177.3220  145.4050 C   0  0  0  0  0  0  0  0  0  0  0  0
  184.3230  178.9960  145.7700 C   0  0  0  0  0  3  0  0  0  0  0  0
  185.3340  179.3640  144.8790 C   0  0  0  0  0  3  0  0  0  0  0  0
  2  1  1  0  0  0  0
  3  4  1  0  0  0  0
  4 23  1  0  0  0  0
  4  1  2  0  0  0  0
  5  6  1  6  0  0  0
  5  3  1  0  0  0  0
  5  7  1  0  0  0  0
  7 12  1  1  0  0  0
  7  2  1  0  0  0  0
  8 15  1  0  0  0  0
  8 10  1  0  0  0  0
  9 14  1  0  0  0  0
 11 15  2  0  0  0  0
 12  8  2  0  0  0  0
 13 14  2  0  0  0  0
 13 12  1  0  0  0  0
 14 11  1  0  0  0  0
 16 13  1  0  0  0  0
 17 16  1  0  0  0  0
 18 17  1  0  0  0  0
 19 17  2  0  0  0  0
 21 25  2  0  0  0  0
 21 23  1  0  0  0  0
 22 20  1  0  0  0  0
 23 22  2  0  0  0  0
 24 20  2  0  0  0  0
 25 24  1  0  0  0  0
M  END
>  <MODEL>
7

>  <REMARK>
 VINA RESULT:      -7.0      2.208      3.586
  Name = 
  4 active torsions:
  status: ('A' for Active; 'I' for Inactive)
    1  A    between atoms: C_8  and  O_21
    2  A    between atoms: C_11  and  C_23
    3  A    between atoms: C_12  and  O_21
    4  A    between atoms: C_15  and  C_16
                            x       y       z     vdW  Elec       q    Type
                         _______ _______ _______ _____ _____    ______ ____

>  <TORSDO>
F 4

$$$$
=
 OpenBabel11062420153D

 25 27  0  0  1  0  0  0  0  0999 V2000
  191.0250  177.5450  145.1540 C   0  0  0  0  0  3  0  0  0  0  0  0
  189.6690  177.8940  145.1220 O   0  0  0  0  0  0  0  0  0  0  0  0
  190.5700  175.7120  143.5730 C   0  0  0  0  0  2  0  0  0  0  0  0
  191.4990  176.4970  144.4650 C   0  0  0  0  0  0  0  0  0  0  0  0
  189.1210  175.7700  144.0500 C   0  0  2  0  0  3  0  0  0  0  0  0
  188.2370  175.1270  142.9970 C   0  0  0  0  0  1  0  0  0  0  0  0
  188.7260  177.2330  144.2760 C   0  0  1  0  0  3  0  0  0  0  0  0
  186.9410  176.7830  146.0520 C   0  0  0  0  0  0  0  0  0  0  0  0
  184.1160  179.0770  143.9480 N   0  0  0  0  0  1  0  0  0  0  0  0
  187.8900  175.9740  146.8700 C   0  0  0  0  0  1  0  0  0  0  0  0
  184.7470  177.6660  145.8240 C   0  0  0  0  0  3  0  0  0  0  0  0
  187.3320  177.3800  144.8320 C   0  0  0  0  0  0  0  0  0  0  0  0
  186.3820  178.1110  144.0970 C   0  0  0  0  0  0  0  0  0  0  0  0
  185.0820  178.2660  144.6110 C   0  0  0  0  0  0  0  0  0  0  0  0
  185.6700  176.9420  146.5050 N   0  0  0  0  0  0  0  0  0  0  0  0
  186.7650  178.6980  142.8830 O   0  0  0  0  0  0  0  0  0  0  0  0
  186.6180  178.0770  141.6400 C   0  0  0  0  0  0  0  0  0  0  0  0
  187.6380  177.8210  140.9500 O   0  0  0  0  0  0  0  0  0  0  0  0
  185.3630  177.6980  141.1730 O   0  0  0  0  0  1  0  0  0  0  0  0
  195.0450  175.7540  143.3560 C   0  0  0  0  0  3  0  0  0  0  0  0
  193.5880  175.9070  145.7340 C   0  0  0  0  0  3  0  0  0  0  0  0
  193.6850  176.0770  143.3240 C   0  0  0  0  0  3  0  0  0  0  0  0
  192.9410  176.1580  144.5110 C   0  0  0  0  0  0  0  0  0  0  0  0
  195.6760  175.5080  144.5780 C   0  0  0  0  0  3  0  0  0  0  0  0
  194.9480  175.5850  145.7670 C   0  0  0  0  0  3  0  0  0  0  0  0
  2  1  1  0  0  0  0
  3  5  1  0  0  0  0
  3  4  1  0  0  0  0
  4 23  1  0  0  0  0
  4  1  2  0  0  0  0
  5  6  1  6  0  0  0
  5  7  1  0  0  0  0
  7 12  1  1  0  0  0
  7  2  1  0  0  0  0
  8 15  1  0  0  0  0
  8 10  1  0  0  0  0
  9 14  1  0  0  0  0
 11 15  2  0  0  0  0
 12  8  2  0  0  0  0
 13 14  2  0  0  0  0
 13 12  1  0  0  0  0
 14 11  1  0  0  0  0
 16 13  1  0  0  0  0
 17 16  1  0  0  0  0
 18 17  2  0  0  0  0
 19 17  1  0  0  0  0
 20 24  1  0  0  0  0
 21 25  1  0  0  0  0
 22 20  2  0  0  0  0
 22 23  1  0  0  0  0
 23 21  2  0  0  0  0
 24 25  2  0  0  0  0
M  END
>  <MODEL>
8

>  <REMARK>
 VINA RESULT:      -6.9      3.539      7.746
  Name = 
  4 active torsions:
  status: ('A' for Active; 'I' for Inactive)
    1  A    between atoms: C_8  and  O_21
    2  A    between atoms: C_11  and  C_23
    3  A    between atoms: C_12  and  O_21
    4  A    between atoms: C_15  and  C_16
                            x       y       z     vdW  Elec       q    Type
                         _______ _______ _______ _____ _____    ______ ____

>  <TORSDO>
F 4

$$$$
=
 OpenBabel11062420153D

 25 27  0  0  1  0  0  0  0  0999 V2000
  188.5070  176.1760  146.1070 C   0  0  0  0  0  3  0  0  0  0  0  0
  189.6210  175.3430  145.9400 O   0  0  0  0  0  0  0  0  0  0  0  0
  187.9030  175.8050  143.7490 C   0  0  0  0  0  2  0  0  0  0  0  0
  187.6790  176.4560  145.0910 C   0  0  0  0  0  0  0  0  0  0  0  0
  189.3670  175.4460  143.5150 C   0  0  2  0  0  3  0  0  0  0  0  0
  189.4690  174.6260  142.2410 C   0  0  0  0  0  1  0  0  0  0  0  0
  189.8870  174.6530  144.7180 C   0  0  1  0  0  3  0  0  0  0  0  0
  191.8240  173.0110  144.4060 C   0  0  0  0  0  0  0  0  0  0  0  0
  194.6420  176.1190  144.6680 N   0  0  0  0  0  1  0  0  0  0  0  0
  190.8880  171.8570  144.2800 C   0  0  0  0  0  1  0  0  0  0  0  0
  194.0760  173.7680  144.4230 C   0  0  0  0  0  3  0  0  0  0  0  0
  191.3560  174.3290  144.6100 C   0  0  0  0  0  0  0  0  0  0  0  0
  192.2910  175.3700  144.7450 C   0  0  0  0  0  0  0  0  0  0  0  0
  193.6650  175.0830  144.6330 C   0  0  0  0  0  0  0  0  0  0  0  0
  193.1590  172.7730  144.3220 N   0  0  0  0  0  0  0  0  0  0  0  0
  191.8310  176.6770  144.9540 O   0  0  0  0  0  0  0  0  0  0  0  0
  191.5680  177.5820  143.9230 C   0  0  0  0  0  0  0  0  0  0  0  0
  192.1080  177.4150  142.7990 O   0  0  0  0  0  0  0  0  0  0  0  0
  190.6830  178.6400  144.1070 O   0  0  0  0  0  1  0  0  0  0  0  0
  185.2760  179.3690  144.7720 C   0  0  0  0  0  3  0  0  0  0  0  0
  185.4980  176.9920  146.2220 C   0  0  0  0  0  3  0  0  0  0  0  0
  186.3790  178.5320  144.5790 C   0  0  0  0  0  3  0  0  0  0  0  0
  186.5030  177.3340  145.3000 C   0  0  0  0  0  0  0  0  0  0  0  0
  184.2840  179.0170  145.6900 C   0  0  0  0  0  3  0  0  0  0  0  0
  184.3950  177.8280  146.4150 C   0  0  0  0  0  3  0  0  0  0  0  0
  2  1  1  0  0  0  0
  3  4  1  0  0  0  0
  4 23  1  0  0  0  0
  4  1  2  0  0  0  0
  5  6  1  6  0  0  0
  5  3  1  0  0  0  0
  5  7  1  0  0  0  0
  7 12  1  6  0  0  0
  7  2  1  0  0  0  0
  8 12  1  0  0  0  0
 10  8  1  0  0  0  0
 11 14  2  0  0  0  0
 12 13  2  0  0  0  0
 13 16  1  0  0  0  0
 14  9  1  0  0  0  0
 14 13  1  0  0  0  0
 15  8  2  0  0  0  0
 15 11  1  0  0  0  0
 17 19  1  0  0  0  0
 17 16  1  0  0  0  0
 18 17  2  0  0  0  0
 20 24  1  0  0  0  0
 21 25  1  0  0  0  0
 22 20  2  0  0  0  0
 22 23  1  0  0  0  0
 23 21  2  0  0  0  0
 24 25  2  0  0  0  0
M  END
>  <MODEL>
9

>  <REMARK>
 VINA RESULT:      -6.8      1.538      2.482
  Name = 
  4 active torsions:
  status: ('A' for Active; 'I' for Inactive)
    1  A    between atoms: C_8  and  O_21
    2  A    between atoms: C_11  and  C_23
    3  A    between atoms: C_12  and  O_21
    4  A    between atoms: C_15  and  C_16
                            x       y       z     vdW  Elec       q    Type
                         _______ _______ _______ _____ _____    ______ ____

>  <TORSDO>
F 4

$$$$
