=
 OpenBabel11062419093D

 54 61  0  0  1  0  0  0  0  0999 V2000
  196.8870  177.2620  143.4760 O   0  0  0  0  0  0  0  0  0  0  0  0
  194.0370  176.2150  144.7690 C   0  0  2  0  0  3  0  0  0  0  0  0
  189.3310  173.5850  146.0950 N   0  0  0  0  0  2  0  0  0  0  0  0
  195.5500  174.4430  141.9150 C   0  0  2  0  0  3  0  0  0  0  0  0
  189.7440  175.7850  146.9760 C   0  0  2  0  0  3  0  0  0  0  0  0
  191.6730  173.5180  142.5660 O   0  0  0  0  0  0  0  0  0  0  0  0
  192.2000  176.4090  146.5140 C   0  0  1  0  0  3  0  0  0  0  0  0
  191.2280  175.5640  147.3290 C   0  0  0  0  0  2  0  0  0  0  0  0
  189.6180  173.3430  143.7820 C   0  0  0  0  0  2  0  0  0  0  0  0
  196.5570  176.3170  142.7140 C   0  0  0  0  0  0  0  0  0  0  0  0
  192.7260  176.0810  144.0280 C   0  0  2  0  0  3  0  0  0  0  0  0
  190.1080  174.1250  144.9850 C   0  0  1  0  0  0  0  0  0  0  0  0
  197.2430  175.9500  141.4810 C   0  0  0  0  0  2  0  0  0  0  0  0
  190.7820  172.6050  143.1380 C   0  0  0  0  0  2  0  0  0  0  0  0
  193.1680  176.9320  147.3790 O   0  0  0  0  0  1  0  0  0  0  0  0
  196.6430  174.7440  141.0450 O   0  0  0  0  0  0  0  0  0  0  0  0
  195.0060  175.1380  144.3100 C   0  0  0  0  0  2  0  0  0  0  0  0
  194.2440  174.4680  141.1140 C   0  0  0  0  0  2  0  0  0  0  0  0
  189.1610  174.9980  145.7870 C   0  0  1  0  0  0  0  0  0  0  0  0
  189.8110  175.4460  144.6460 O   0  0  0  0  0  0  0  0  0  0  0  0
  192.8710  172.8190  142.4470 C   0  0  0  0  0  2  0  0  0  0  0  0
  193.5100  173.1190  141.1020 C   0  0  2  0  0  3  0  0  0  0  0  0
  195.5080  175.4310  142.9750 N   0  0  0  0  0  0  0  0  0  0  0  0
  192.0930  177.3260  143.9910 O   0  0  0  0  0  1  0  0  0  0  0  0
  192.8670  175.5300  145.4530 C   0  0  1  0  0  3  0  0  0  0  0  0
  189.3970  177.2010  146.8950 N   0  0  0  0  0  2  0  0  0  0  0  0
  187.9440  177.3070  146.8870 C   0  0  1  0  0  3  0  0  0  0  0  0
  187.5130  178.3720  147.8780 C   0  0  0  0  0  1  0  0  0  0  0  0
  187.5000  177.6530  145.6080 O   0  0  0  0  0  0  0  0  0  0  0  0
  186.2260  177.0870  145.5070 C   0  0  0  0  0  2  0  0  0  0  0  0
  185.5480  177.5570  144.2270 C   0  0  1  0  0  3  0  0  0  0  0  0
  184.4710  179.1500  145.8180 O   0  0  0  0  0  1  0  0  0  0  0  0
  183.6670  178.9420  143.6830 O   0  0  0  0  0  0  0  0  0  0  0  0
  184.5080  178.5840  144.5510 C   0  0  0  0  0  0  0  0  0  0  0  0
  186.4950  178.0950  143.3500 O   0  0  0  0  0  0  0  0  0  0  0  0
  188.0840  175.7080  141.2710 O   0  0  0  0  0  1  0  0  0  0  0  0
  187.9760  176.9590  141.8800 C   0  0  2  0  0  3  0  0  0  0  0  0
  186.6290  177.3110  139.8950 O   0  0  0  0  0  1  0  0  0  0  0  0
  186.5320  177.2110  142.2690 C   0  0  2  0  0  3  0  0  0  0  0  0
  187.1120  177.9160  141.0580 C   0  0  1  0  0  3  0  0  0  0  0  0
  194.3960  171.9510  140.6790 C   0  0  0  0  0  2  0  0  0  0  0  0
  194.6270  170.5430  138.4100 O   0  0  0  0  0  0  0  0  0  0  0  0
  193.0330  169.6960  140.0770 O   0  0  0  0  0  0  0  0  0  0  0  0
  193.6040  170.9360  139.4410 S   0  0  0  0  0  0  0  0  0  0  0  0
  192.3360  171.8500  138.6940 N   0  0  0  0  0  2  0  0  0  0  0  0
  191.0880  171.0990  138.8200 C   0  0  1  0  0  3  0  0  0  0  0  0
  191.0890  171.1740  136.3110 C   0  0  0  0  0  2  0  0  0  0  0  0
  190.1080  171.8230  139.7670 C   0  0  0  0  0  2  0  0  0  0  0  0
  190.4280  170.7710  137.4650 C   0  0  2  0  0  3  0  0  0  0  0  0
  188.8170  173.5810  138.4080 C   0  0  0  0  0  2  0  0  0  0  0  0
  189.3390  173.2960  137.0390 C   0  0  0  0  0  0  0  0  0  0  0  0
  189.9010  173.3210  139.4620 C   0  0  0  0  0  2  0  0  0  0  0  0
  190.0320  172.0730  136.8650 N   0  0  0  0  0  0  0  0  0  0  0  0
  189.4940  174.2550  136.1880 N   0  0  0  0  0  2  0  0  0  0  0  0
  2 17  1  6  0  0  0
  2 25  1  0  0  0  0
  4 18  1  6  0  0  0
  4 23  1  0  0  0  0
  5 26  1  6  0  0  0
  5  8  1  0  0  0  0
  6 14  1  0  0  0  0
  7  8  1  0  0  0  0
  7 15  1  1  0  0  0
 10 23  1  0  0  0  0
 10  1  2  0  0  0  0
 11 24  1  1  0  0  0
 11  2  1  0  0  0  0
 11 25  1  0  0  0  0
 12  9  1  6  0  0  0
 12 19  1  0  0  0  0
 12  3  1  0  0  0  0
 13 10  1  0  0  0  0
 14  9  1  0  0  0  0
 16 13  1  0  0  0  0
 16  4  1  0  0  0  0
 19 20  1  6  0  0  0
 19  3  1  0  0  0  0
 19  5  1  0  0  0  0
 20 12  1  0  0  0  0
 21  6  1  0  0  0  0
 22 41  1  1  0  0  0
 22 18  1  0  0  0  0
 22 21  1  0  0  0  0
 23 17  1  0  0  0  0
 25  7  1  0  0  0  0
 27 26  1  0  0  0  0
 27 28  1  0  0  0  0
 29 27  1  0  0  0  0
 30 29  1  0  0  0  0
 31 34  1  0  0  0  0
 31 30  1  0  0  0  0
 33 34  2  0  0  0  0
 34 32  1  0  0  0  0
 35 31  1  0  0  0  0
 36 37  1  0  0  0  0
 37 39  1  0  0  0  0
 38 40  1  0  0  0  0
 39 35  1  0  0  0  0
 40 37  1  0  0  0  0
 40 39  1  0  0  0  0
 42 44  2  0  0  0  0
 44 43  2  0  0  0  0
 44 41  1  0  0  0  0
 45 46  1  0  0  0  0
 45 44  1  0  0  0  0
 46 48  1  0  0  0  0
 47 53  1  0  0  0  0
 47 49  1  0  0  0  0
 49 46  1  0  0  0  0
 50 52  1  0  0  0  0
 51 50  1  0  0  0  0
 52 48  1  0  0  0  0
 53 51  1  0  0  0  0
 53 49  1  0  0  0  0
 54 51  2  0  0  0  0
M  END
>  <MODEL>
1

>  <REMARK>
 VINA RESULT:      -7.5      0.000      0.000
  Name = 
  12 active torsions:
  status: ('A' for Active; 'I' for Inactive)
    1  A    between atoms: C_4  and  N_10
    2  A    between atoms: C_8  and  N_23
    3  A    between atoms: O_9  and  C_28
    4  A    between atoms: O_9  and  C_40
    5  A    between atoms: N_10  and  S_43
    6  A    between atoms: O_17  and  C_41
    7  A    between atoms: O_17  and  C_45
    8  A    between atoms: N_23  and  C_28
    9  A    between atoms: C_29  and  S_43
   10  A    between atoms: C_29  and  C_49
   11  A    between atoms: C_40  and  C_41
   12  A    between atoms: C_41  and  C_52
                            x       y       z     vdW  Elec       q    Type
                         _______ _______ _______ _____ _____    ______ ____

>  <TORSDO>
F 12

$$$$
=
 OpenBabel11062419093D

 54 61  0  0  1  0  0  0  0  0999 V2000
  194.6600  177.5880  145.6850 O   0  0  0  0  0  0  0  0  0  0  0  0
  191.5980  176.7360  144.7960 C   0  0  2  0  0  3  0  0  0  0  0  0
  187.0220  174.5240  142.5620 N   0  0  0  0  0  2  0  0  0  0  0  0
  194.5110  175.1200  143.2230 C   0  0  2  0  0  3  0  0  0  0  0  0
  186.8510  176.5570  143.8360 C   0  0  2  0  0  3  0  0  0  0  0  0
  191.0430  174.5730  141.2290 O   0  0  0  0  0  0  0  0  0  0  0  0
  189.0800  176.9470  145.0680 C   0  0  1  0  0  3  0  0  0  0  0  0
  187.7930  176.1340  144.9810 C   0  0  0  0  0  2  0  0  0  0  0  0
  188.6720  174.5010  140.8990 C   0  0  0  0  0  2  0  0  0  0  0  0
  194.8500  176.7730  144.7450 C   0  0  0  0  0  0  0  0  0  0  0  0
  191.0230  176.8300  143.4010 C   0  0  2  0  0  3  0  0  0  0  0  0
  188.3310  175.0890  142.2530 C   0  0  1  0  0  0  0  0  0  0  0  0
  196.1440  176.4660  144.1460 C   0  0  0  0  0  2  0  0  0  0  0  0
  189.9690  173.7100  140.9910 C   0  0  0  0  0  2  0  0  0  0  0  0
  189.3170  177.2620  146.4100 O   0  0  0  0  0  1  0  0  0  0  0  0
  195.9150  175.3880  143.2570 O   0  0  0  0  0  0  0  0  0  0  0  0
  192.6180  175.6110  144.8630 C   0  0  0  0  0  2  0  0  0  0  0  0
  193.9820  175.3780  141.8080 C   0  0  0  0  0  2  0  0  0  0  0  0
  187.1110  175.9720  142.4350 C   0  0  1  0  0  0  0  0  0  0  0  0
  188.3370  176.4630  142.0110 O   0  0  0  0  0  0  0  0  0  0  0  0
  192.0420  173.7600  141.7580 C   0  0  0  0  0  2  0  0  0  0  0  0
  193.3820  174.1290  141.1460 C   0  0  2  0  0  3  0  0  0  0  0  0
  193.8450  175.9870  144.1740 N   0  0  0  0  0  0  0  0  0  0  0  0
  190.5760  178.1340  143.1780 O   0  0  0  0  0  1  0  0  0  0  0  0
  190.2400  176.1170  144.5120 C   0  0  1  0  0  3  0  0  0  0  0  0
  186.6600  178.0030  143.7800 N   0  0  0  0  0  2  0  0  0  0  0  0
  185.3200  178.2980  144.2710 C   0  0  1  0  0  3  0  0  0  0  0  0
  185.4200  179.0820  145.5660 C   0  0  0  0  0  1  0  0  0  0  0  0
  184.6220  179.0510  143.3230 O   0  0  0  0  0  0  0  0  0  0  0  0
  183.8110  178.1260  142.6590 C   0  0  0  0  0  2  0  0  0  0  0  0
  183.5660  178.5830  141.2270 C   0  0  1  0  0  3  0  0  0  0  0  0
  185.9640  178.4300  140.5540 O   0  0  0  0  0  1  0  0  0  0  0  0
  184.3690  177.2750  139.3850 O   0  0  0  0  0  0  0  0  0  0  0  0
  184.6450  178.0560  140.3330 C   0  0  0  0  0  0  0  0  0  0  0  0
  182.3170  178.1350  140.7850 O   0  0  0  0  0  0  0  0  0  0  0  0
  179.3450  178.7990  142.5960 O   0  0  0  0  0  1  0  0  0  0  0  0
  180.0620  178.2660  141.5230 C   0  0  2  0  0  3  0  0  0  0  0  0
  179.7060  180.5330  140.7400 O   0  0  0  0  0  1  0  0  0  0  0  0
  181.3900  178.9860  141.3930 C   0  0  2  0  0  3  0  0  0  0  0  0
  180.2730  179.2990  140.4150 C   0  0  1  0  0  3  0  0  0  0  0  0
  194.3130  172.9200  141.1750 C   0  0  0  0  0  2  0  0  0  0  0  0
  195.2970  172.1720  138.7970 O   0  0  0  0  0  0  0  0  0  0  0  0
  194.1120  170.4530  140.0920 O   0  0  0  0  0  0  0  0  0  0  0  0
  194.1330  171.9100  139.7130 S   0  0  0  0  0  0  0  0  0  0  0  0
  192.6520  172.3330  138.9200 N   0  0  0  0  0  2  0  0  0  0  0  0
  192.7750  172.0000  137.5020 C   0  0  1  0  0  3  0  0  0  0  0  0
  192.2540  174.4300  137.1490 C   0  0  0  0  0  2  0  0  0  0  0  0
  191.8760  170.7990  137.1420 C   0  0  0  0  0  2  0  0  0  0  0  0
  192.5210  173.1980  136.5650 C   0  0  2  0  0  3  0  0  0  0  0  0
  189.5120  171.6760  136.6460 C   0  0  0  0  0  2  0  0  0  0  0  0
  189.7460  173.1460  136.7520 C   0  0  0  0  0  0  0  0  0  0  0  0
  190.4150  170.9160  137.6260 C   0  0  0  0  0  2  0  0  0  0  0  0
  191.0940  173.5780  136.7460 N   0  0  0  0  0  0  0  0  0  0  0  0
  188.8200  173.9220  137.2080 N   0  0  0  0  0  2  0  0  0  0  0  0
  2 17  1  6  0  0  0
  4 18  1  6  0  0  0
  4 16  1  0  0  0  0
  4 23  1  0  0  0  0
  5 26  1  6  0  0  0
  5  8  1  0  0  0  0
  6 21  1  0  0  0  0
  7 15  1  1  0  0  0
  8  7  1  0  0  0  0
  9 14  1  0  0  0  0
 10  1  2  0  0  0  0
 11 24  1  1  0  0  0
 11 25  1  0  0  0  0
 11  2  1  0  0  0  0
 12  9  1  6  0  0  0
 12 19  1  0  0  0  0
 12  3  1  0  0  0  0
 13 10  1  0  0  0  0
 14  6  1  0  0  0  0
 16 13  1  0  0  0  0
 19 20  1  6  0  0  0
 19  3  1  0  0  0  0
 19  5  1  0  0  0  0
 20 12  1  0  0  0  0
 22 41  1  1  0  0  0
 22 21  1  0  0  0  0
 22 18  1  0  0  0  0
 23 10  1  0  0  0  0
 23 17  1  0  0  0  0
 25  2  1  0  0  0  0
 25  7  1  0  0  0  0
 26 27  1  0  0  0  0
 27 28  1  0  0  0  0
 29 27  1  0  0  0  0
 30 29  1  0  0  0  0
 31 30  1  0  0  0  0
 33 34  2  0  0  0  0
 34 32  1  0  0  0  0
 34 31  1  0  0  0  0
 35 31  1  0  0  0  0
 35 39  1  0  0  0  0
 37 36  1  0  0  0  0
 39 37  1  0  0  0  0
 40 38  1  0  0  0  0
 40 39  1  0  0  0  0
 40 37  1  0  0  0  0
 42 44  2  0  0  0  0
 44 43  2  0  0  0  0
 44 41  1  0  0  0  0
 45 44  1  0  0  0  0
 46 45  1  0  0  0  0
 48 46  1  0  0  0  0
 48 52  1  0  0  0  0
 49 53  1  0  0  0  0
 49 47  1  0  0  0  0
 49 46  1  0  0  0  0
 50 51  1  0  0  0  0
 50 52  1  0  0  0  0
 51 54  2  0  0  0  0
 53 51  1  0  0  0  0
 53 47  1  0  0  0  0
M  END
>  <MODEL>
2

>  <REMARK>
 VINA RESULT:      -6.9      2.435      3.741
  Name = 
  12 active torsions:
  status: ('A' for Active; 'I' for Inactive)
    1  A    between atoms: C_4  and  N_10
    2  A    between atoms: C_8  and  N_23
    3  A    between atoms: O_9  and  C_28
    4  A    between atoms: O_9  and  C_40
    5  A    between atoms: N_10  and  S_43
    6  A    between atoms: O_17  and  C_41
    7  A    between atoms: O_17  and  C_45
    8  A    between atoms: N_23  and  C_28
    9  A    between atoms: C_29  and  S_43
   10  A    between atoms: C_29  and  C_49
   11  A    between atoms: C_40  and  C_41
   12  A    between atoms: C_41  and  C_52
                            x       y       z     vdW  Elec       q    Type
                         _______ _______ _______ _____ _____    ______ ____

>  <TORSDO>
F 12

$$$$
=
 OpenBabel11062419093D

 54 61  0  0  1  0  0  0  0  0999 V2000
  196.3810  174.8220  142.6240 O   0  0  0  0  0  0  0  0  0  0  0  0
  193.6530  174.0680  140.9260 C   0  0  2  0  0  3  0  0  0  0  0  0
  188.4980  173.3610  138.9910 N   0  0  0  0  0  2  0  0  0  0  0  0
  193.4120  175.8400  144.1470 C   0  0  2  0  0  3  0  0  0  0  0  0
  190.3070  172.1110  138.0180 C   0  0  2  0  0  3  0  0  0  0  0  0
  189.9300  174.2340  142.8810 O   0  0  0  0  0  0  0  0  0  0  0  0
  192.5340  173.0900  138.8650 C   0  0  1  0  0  3  0  0  0  0  0  0
  191.3210  173.2710  137.9610 C   0  0  0  0  0  2  0  0  0  0  0  0
  188.3620  173.3030  141.3300 C   0  0  0  0  0  2  0  0  0  0  0  0
  195.4550  175.1930  143.3900 C   0  0  0  0  0  0  0  0  0  0  0  0
  192.5090  173.2150  141.4240 C   0  0  2  0  0  3  0  0  0  0  0  0
  189.3410  173.2350  140.1750 C   0  0  1  0  0  0  0  0  0  0  0  0
  195.6330  175.6760  144.7540 C   0  0  0  0  0  2  0  0  0  0  0  0
  188.7130  174.4730  142.2360 C   0  0  0  0  0  2  0  0  0  0  0  0
  193.6800  173.4560  138.1500 O   0  0  0  0  0  1  0  0  0  0  0  0
  194.3620  176.1370  145.1740 O   0  0  0  0  0  0  0  0  0  0  0  0
  193.6530  175.4080  141.6430 C   0  0  0  0  0  2  0  0  0  0  0  0
  192.3700  174.8580  144.6920 C   0  0  0  0  0  2  0  0  0  0  0  0
  189.2550  172.1270  139.1430 C   0  0  1  0  0  0  0  0  0  0  0  0
  189.9400  171.9860  140.3410 O   0  0  0  0  0  0  0  0  0  0  0  0
  190.3770  175.4920  143.2760 C   0  0  0  0  0  2  0  0  0  0  0  0
  190.9410  175.4200  144.6840 C   0  0  2  0  0  3  0  0  0  0  0  0
  194.1090  175.2570  143.0180 N   0  0  0  0  0  0  0  0  0  0  0  0
  192.8290  171.8680  141.2400 O   0  0  0  0  0  1  0  0  0  0  0  0
  192.3810  173.9810  140.1010 C   0  0  1  0  0  3  0  0  0  0  0  0
  190.9520  170.8050  137.9130 N   0  0  0  0  0  2  0  0  0  0  0  0
  190.9270  170.4030  136.5130 C   0  0  1  0  0  3  0  0  0  0  0  0
  189.7090  171.0070  135.8390 C   0  0  0  0  0  1  0  0  0  0  0  0
  192.0850  170.8490  135.8700 O   0  0  0  0  0  0  0  0  0  0  0  0
  193.0000  169.8030  136.0180 C   0  0  0  0  0  2  0  0  0  0  0  0
  194.2550  170.3050  136.7210 C   0  0  1  0  0  3  0  0  0  0  0  0
  195.6940  168.5490  137.7550 O   0  0  0  0  0  0  0  0  0  0  0  0
  193.9060  169.3930  138.9100 O   0  0  0  0  0  1  0  0  0  0  0  0
  194.5990  169.3960  137.8590 C   0  0  0  0  0  0  0  0  0  0  0  0
  195.3210  170.3670  135.8170 O   0  0  0  0  0  0  0  0  0  0  0  0
  195.3140  173.7990  134.9410 O   0  0  0  0  0  1  0  0  0  0  0  0
  195.4050  172.4370  134.6530 C   0  0  2  0  0  3  0  0  0  0  0  0
  197.7080  172.9220  135.2330 O   0  0  0  0  0  1  0  0  0  0  0  0
  195.7960  171.6770  135.9060 C   0  0  2  0  0  3  0  0  0  0  0  0
  196.8320  171.9150  134.8230 C   0  0  1  0  0  3  0  0  0  0  0  0
  190.8210  176.7830  145.3590 C   0  0  0  0  0  2  0  0  0  0  0  0
  189.3580  175.2980  147.0440 O   0  0  0  0  0  0  0  0  0  0  0  0
  190.4070  177.3140  147.9760 O   0  0  0  0  0  0  0  0  0  0  0  0
  189.7250  176.7300  146.7680 S   0  0  0  0  0  0  0  0  0  0  0  0
  188.2980  177.6420  146.4010 N   0  0  0  0  0  2  0  0  0  0  0  0
  187.2400  176.7110  146.0110 C   0  0  1  0  0  3  0  0  0  0  0  0
  187.5760  177.6900  143.7240 C   0  0  0  0  0  2  0  0  0  0  0  0
  186.0030  176.8790  146.9160 C   0  0  0  0  0  2  0  0  0  0  0  0
  186.8660  176.7980  144.5170 C   0  0  2  0  0  3  0  0  0  0  0  0
  184.5590  178.7840  145.9720 C   0  0  0  0  0  2  0  0  0  0  0  0
  185.3180  179.1010  144.7270 C   0  0  0  0  0  0  0  0  0  0  0  0
  185.5150  178.3330  147.0850 C   0  0  0  0  0  2  0  0  0  0  0  0
  186.2800  178.1500  144.3090 N   0  0  0  0  0  0  0  0  0  0  0  0
  185.3750  180.3140  144.2900 N   0  0  0  0  0  2  0  0  0  0  0  0
  1 10  2  0  0  0  0
  2 11  1  0  0  0  0
  2 17  1  1  0  0  0
  3 12  1  0  0  0  0
  4 18  1  1  0  0  0
  4 16  1  0  0  0  0
  5 26  1  1  0  0  0
  5 19  1  0  0  0  0
  6 21  1  0  0  0  0
  7 15  1  6  0  0  0
  7 25  1  0  0  0  0
  8  5  1  0  0  0  0
  8  7  1  0  0  0  0
  9 14  1  0  0  0  0
 10 13  1  0  0  0  0
 11 24  1  6  0  0  0
 12 20  1  0  0  0  0
 12  9  1  1  0  0  0
 13 16  1  0  0  0  0
 14  6  1  0  0  0  0
 17 23  1  0  0  0  0
 19  3  1  6  0  0  0
 19 12  1  0  0  0  0
 19 20  1  0  0  0  0
 21 22  1  0  0  0  0
 22 18  1  0  0  0  0
 22 41  1  6  0  0  0
 23 10  1  0  0  0  0
 23  4  1  0  0  0  0
 25  2  1  0  0  0  0
 25 11  1  0  0  0  0
 27 26  1  0  0  0  0
 28 27  1  0  0  0  0
 29 30  1  0  0  0  0
 29 27  1  0  0  0  0
 30 31  1  0  0  0  0
 31 34  1  0  0  0  0
 32 34  2  0  0  0  0
 34 33  1  0  0  0  0
 35 39  1  0  0  0  0
 35 31  1  0  0  0  0
 37 40  1  0  0  0  0
 37 36  1  0  0  0  0
 37 39  1  0  0  0  0
 40 38  1  0  0  0  0
 40 39  1  0  0  0  0
 41 44  1  0  0  0  0
 44 42  2  0  0  0  0
 44 43  2  0  0  0  0
 45 44  1  0  0  0  0
 46 45  1  0  0  0  0
 46 48  1  0  0  0  0
 47 53  1  0  0  0  0
 47 49  1  0  0  0  0
 48 52  1  0  0  0  0
 49 46  1  0  0  0  0
 50 52  1  0  0  0  0
 51 50  1  0  0  0  0
 53 49  1  0  0  0  0
 53 51  1  0  0  0  0
 54 51  2  0  0  0  0
M  END
>  <MODEL>
3

>  <REMARK>
 VINA RESULT:      -6.7      2.961      9.538
  Name = 
  12 active torsions:
  status: ('A' for Active; 'I' for Inactive)
    1  A    between atoms: C_4  and  N_10
    2  A    between atoms: C_8  and  N_23
    3  A    between atoms: O_9  and  C_28
    4  A    between atoms: O_9  and  C_40
    5  A    between atoms: N_10  and  S_43
    6  A    between atoms: O_17  and  C_41
    7  A    between atoms: O_17  and  C_45
    8  A    between atoms: N_23  and  C_28
    9  A    between atoms: C_29  and  S_43
   10  A    between atoms: C_29  and  C_49
   11  A    between atoms: C_40  and  C_41
   12  A    between atoms: C_41  and  C_52
                            x       y       z     vdW  Elec       q    Type
                         _______ _______ _______ _____ _____    ______ ____

>  <TORSDO>
F 12

$$$$
=
 OpenBabel11062419093D

 54 61  0  0  1  0  0  0  0  0999 V2000
  189.8450  172.3450  136.7800 O   0  0  0  0  0  0  0  0  0  0  0  0
  191.3650  171.2400  139.4920 C   0  0  2  0  0  3  0  0  0  0  0  0
  193.1520  170.1290  144.6300 N   0  0  0  0  0  2  0  0  0  0  0  0
  188.6790  173.7480  139.7540 C   0  0  2  0  0  3  0  0  0  0  0  0
  194.4690  169.4290  142.7430 C   0  0  2  0  0  3  0  0  0  0  0  0
  190.9350  173.3910  143.0840 O   0  0  0  0  0  0  0  0  0  0  0  0
  193.0600  169.7080  140.6050 C   0  0  1  0  0  3  0  0  0  0  0  0
  193.2980  168.9130  141.8840 C   0  0  0  0  0  2  0  0  0  0  0  0
  192.4640  172.3690  144.6170 C   0  0  0  0  0  2  0  0  0  0  0  0
  189.3360  173.0410  137.6970 C   0  0  0  0  0  0  0  0  0  0  0  0
  192.1170  172.0880  140.4920 C   0  0  2  0  0  3  0  0  0  0  0  0
  192.8060  171.2060  143.7080 C   0  0  1  0  0  0  0  0  0  0  0  0
  188.4230  174.1610  137.4970 C   0  0  0  0  0  2  0  0  0  0  0  0
  191.0350  172.8230  144.3580 C   0  0  0  0  0  2  0  0  0  0  0  0
  192.8360  168.8080  139.5570 O   0  0  0  0  0  1  0  0  0  0  0  0
  187.9770  174.5340  138.7870 O   0  0  0  0  0  0  0  0  0  0  0  0
  189.8720  171.4960  139.6130 C   0  0  0  0  0  2  0  0  0  0  0  0
  189.5280  174.6720  140.6340 C   0  0  0  0  0  2  0  0  0  0  0  0
  194.1920  170.5870  143.7200 C   0  0  1  0  0  0  0  0  0  0  0  0
  193.8720  171.6980  142.9530 O   0  0  0  0  0  0  0  0  0  0  0  0
  189.5800  173.3250  142.7710 C   0  0  0  0  0  2  0  0  0  0  0  0
  189.1390  174.6240  142.1190 C   0  0  2  0  0  3  0  0  0  0  0  0
  189.5260  172.7990  139.0600 N   0  0  0  0  0  0  0  0  0  0  0  0
  193.4140  172.3070  140.0220 O   0  0  0  0  0  1  0  0  0  0  0  0
  191.8360  170.6100  140.7910 C   0  0  1  0  0  3  0  0  0  0  0  0
  195.6700  169.6790  141.9520 N   0  0  0  0  0  2  0  0  0  0  0  0
  196.7500  170.0210  142.8690 C   0  0  1  0  0  3  0  0  0  0  0  0
  197.8080  168.9350  142.8260 C   0  0  0  0  0  1  0  0  0  0  0  0
  197.3190  171.2420  142.4990 O   0  0  0  0  0  0  0  0  0  0  0  0
  197.9410  171.7120  143.6590 C   0  0  0  0  0  2  0  0  0  0  0  0
  197.1270  172.8490  144.2620 C   0  0  1  0  0  3  0  0  0  0  0  0
  197.2160  173.5740  146.6480 O   0  0  0  0  0  1  0  0  0  0  0  0
  196.4140  171.4980  146.1090 O   0  0  0  0  0  0  0  0  0  0  0  0
  196.8970  172.5930  145.7180 C   0  0  0  0  0  0  0  0  0  0  0  0
  197.7960  174.0650  144.0890 O   0  0  0  0  0  0  0  0  0  0  0  0
  196.4280  176.8700  142.4120 O   0  0  0  0  0  1  0  0  0  0  0  0
  196.5320  175.9850  143.4870 C   0  0  2  0  0  3  0  0  0  0  0  0
  194.9710  174.7860  142.0710 O   0  0  0  0  0  1  0  0  0  0  0  0
  197.1520  174.6840  143.0140 C   0  0  2  0  0  3  0  0  0  0  0  0
  195.6600  174.7450  143.2850 C   0  0  1  0  0  3  0  0  0  0  0  0
  187.6490  174.8450  142.3630 C   0  0  0  0  0  2  0  0  0  0  0  0
  188.4710  177.3840  142.1190 O   0  0  0  0  0  0  0  0  0  0  0  0
  186.3090  176.8200  141.0960 O   0  0  0  0  0  0  0  0  0  0  0  0
  187.2130  176.5740  142.2750 S   0  0  0  0  0  0  0  0  0  0  0  0
  186.4020  177.0230  143.7400 N   0  0  0  0  0  2  0  0  0  0  0  0
  187.0070  178.2540  144.2460 C   0  0  1  0  0  3  0  0  0  0  0  0
  188.3170  176.7010  145.7200 C   0  0  0  0  0  2  0  0  0  0  0  0
  185.9200  179.2540  144.6900 C   0  0  0  0  0  2  0  0  0  0  0  0
  188.0470  178.0150  145.3600 C   0  0  2  0  0  3  0  0  0  0  0  0
  185.2400  178.6940  147.1040 C   0  0  0  0  0  2  0  0  0  0  0  0
  186.2080  177.5990  147.4060 C   0  0  0  0  0  0  0  0  0  0  0  0
  184.8410  178.6670  145.6220 C   0  0  0  0  0  2  0  0  0  0  0  0
  187.3000  177.4530  146.5170 N   0  0  0  0  0  0  0  0  0  0  0  0
  185.8650  176.6220  148.1770 N   0  0  0  0  0  2  0  0  0  0  0  0
  1 10  2  0  0  0  0
  2 17  1  1  0  0  0
  2 11  1  0  0  0  0
  2 25  1  0  0  0  0
  4 18  1  6  0  0  0
  5 26  1  6  0  0  0
  5 19  1  0  0  0  0
  6 14  1  0  0  0  0
  7 15  1  6  0  0  0
  7 25  1  0  0  0  0
  7  8  1  0  0  0  0
  8  5  1  0  0  0  0
 10 23  1  0  0  0  0
 11 24  1  6  0  0  0
 11 25  1  0  0  0  0
 12 19  1  0  0  0  0
 12  9  1  1  0  0  0
 12  3  1  0  0  0  0
 13 10  1  0  0  0  0
 13 16  1  0  0  0  0
 14  9  1  0  0  0  0
 16  4  1  0  0  0  0
 18 22  1  0  0  0  0
 19 20  1  1  0  0  0
 19  3  1  0  0  0  0
 20 12  1  0  0  0  0
 21  6  1  0  0  0  0
 22 41  1  6  0  0  0
 22 21  1  0  0  0  0
 23 17  1  0  0  0  0
 23  4  1  0  0  0  0
 26 27  1  0  0  0  0
 28 27  1  0  0  0  0
 29 27  1  0  0  0  0
 29 30  1  0  0  0  0
 30 31  1  0  0  0  0
 31 34  1  0  0  0  0
 34 33  2  0  0  0  0
 34 32  1  0  0  0  0
 35 31  1  0  0  0  0
 36 37  1  0  0  0  0
 38 40  1  0  0  0  0
 39 40  1  0  0  0  0
 39 37  1  0  0  0  0
 39 35  1  0  0  0  0
 40 37  1  0  0  0  0
 42 44  2  0  0  0  0
 43 44  2  0  0  0  0
 44 41  1  0  0  0  0
 44 45  1  0  0  0  0
 45 46  1  0  0  0  0
 46 48  1  0  0  0  0
 46 49  1  0  0  0  0
 47 53  1  0  0  0  0
 48 52  1  0  0  0  0
 49 47  1  0  0  0  0
 49 53  1  0  0  0  0
 50 51  1  0  0  0  0
 51 54  2  0  0  0  0
 52 50  1  0  0  0  0
 53 51  1  0  0  0  0
M  END
>  <MODEL>
4

>  <REMARK>
 VINA RESULT:      -6.5      3.061      9.570
  Name = 
  12 active torsions:
  status: ('A' for Active; 'I' for Inactive)
    1  A    between atoms: C_4  and  N_10
    2  A    between atoms: C_8  and  N_23
    3  A    between atoms: O_9  and  C_28
    4  A    between atoms: O_9  and  C_40
    5  A    between atoms: N_10  and  S_43
    6  A    between atoms: O_17  and  C_41
    7  A    between atoms: O_17  and  C_45
    8  A    between atoms: N_23  and  C_28
    9  A    between atoms: C_29  and  S_43
   10  A    between atoms: C_29  and  C_49
   11  A    between atoms: C_40  and  C_41
   12  A    between atoms: C_41  and  C_52
                            x       y       z     vdW  Elec       q    Type
                         _______ _______ _______ _____ _____    ______ ____

>  <TORSDO>
F 12

$$$$
=
 OpenBabel11062419093D

 54 61  0  0  1  0  0  0  0  0999 V2000
  196.5170  175.6490  142.5430 O   0  0  0  0  0  0  0  0  0  0  0  0
  193.8250  174.4050  141.0950 C   0  0  2  0  0  3  0  0  0  0  0  0
  188.7130  172.8550  139.5800 N   0  0  0  0  0  2  0  0  0  0  0  0
  193.5330  176.3550  144.2070 C   0  0  2  0  0  3  0  0  0  0  0  0
  190.6190  171.7990  138.5610 C   0  0  2  0  0  3  0  0  0  0  0  0
  190.2430  174.1970  143.2950 O   0  0  0  0  0  0  0  0  0  0  0  0
  192.7320  173.1350  139.1840 C   0  0  1  0  0  3  0  0  0  0  0  0
  191.4520  173.0810  138.3590 C   0  0  0  0  0  2  0  0  0  0  0  0
  188.7320  172.9480  141.9210 C   0  0  0  0  0  2  0  0  0  0  0  0
  195.5960  175.9440  143.3480 C   0  0  0  0  0  0  0  0  0  0  0  0
  192.8470  173.4400  141.7260 C   0  0  2  0  0  3  0  0  0  0  0  0
  189.6380  172.9330  140.7060 C   0  0  1  0  0  0  0  0  0  0  0  0
  195.7870  176.5440  144.6630 C   0  0  0  0  0  2  0  0  0  0  0  0
  188.9670  174.2180  142.7250 C   0  0  0  0  0  2  0  0  0  0  0  0
  193.7680  173.6030  138.3680 O   0  0  0  0  0  1  0  0  0  0  0  0
  194.4920  176.8530  145.1420 O   0  0  0  0  0  0  0  0  0  0  0  0
  193.6770  175.7800  141.7240 C   0  0  0  0  0  2  0  0  0  0  0  0
  192.6760  175.2800  144.8850 C   0  0  0  0  0  2  0  0  0  0  0  0
  189.6470  171.7510  139.7540 C   0  0  1  0  0  0  0  0  0  0  0  0
  190.4170  171.7930  140.9080 O   0  0  0  0  0  0  0  0  0  0  0  0
  190.5300  175.5300  143.5770 C   0  0  0  0  0  2  0  0  0  0  0  0
  191.1840  175.6380  144.9430 C   0  0  2  0  0  3  0  0  0  0  0  0
  194.2340  175.7940  143.0700 N   0  0  0  0  0  0  0  0  0  0  0  0
  193.3440  172.1410  141.6040 O   0  0  0  0  0  1  0  0  0  0  0  0
  192.5300  174.0830  140.3690 C   0  0  1  0  0  3  0  0  0  0  0  0
  191.4360  170.5910  138.4930 N   0  0  0  0  0  2  0  0  0  0  0  0
  190.6140  169.4690  138.9280 C   0  0  1  0  0  3  0  0  0  0  0  0
  190.3900  168.5280  137.7590 C   0  0  0  0  0  1  0  0  0  0  0  0
  191.2560  168.7830  139.9630 O   0  0  0  0  0  0  0  0  0  0  0  0
  192.3530  168.1660  139.3550 C   0  0  0  0  0  2  0  0  0  0  0  0
  193.5910  168.3310  140.2270 C   0  0  1  0  0  3  0  0  0  0  0  0
  194.4370  169.6870  138.3100 O   0  0  0  0  0  0  0  0  0  0  0  0
  195.9130  168.6480  139.7210 O   0  0  0  0  0  1  0  0  0  0  0  0
  194.7160  168.8900  139.4130 C   0  0  0  0  0  0  0  0  0  0  0  0
  193.3120  169.1780  141.3040 O   0  0  0  0  0  0  0  0  0  0  0  0
  193.3030  168.5210  144.7850 O   0  0  0  0  0  1  0  0  0  0  0  0
  193.5100  169.3310  143.6670 C   0  0  2  0  0  3  0  0  0  0  0  0
  195.6410  168.1820  143.7840 O   0  0  0  0  0  1  0  0  0  0  0  0
  193.7000  168.4620  142.4390 C   0  0  2  0  0  3  0  0  0  0  0  0
  194.9040  169.1310  143.0730 C   0  0  1  0  0  3  0  0  0  0  0  0
  190.9130  177.0170  145.5380 C   0  0  0  0  0  2  0  0  0  0  0  0
  189.2620  175.6040  147.1070 O   0  0  0  0  0  0  0  0  0  0  0  0
  189.7120  177.9230  147.7820 O   0  0  0  0  0  0  0  0  0  0  0  0
  189.4850  177.0060  146.6100 S   0  0  0  0  0  0  0  0  0  0  0  0
  188.1030  177.5370  145.7080 N   0  0  0  0  0  2  0  0  0  0  0  0
  187.0160  176.5830  145.9220 C   0  0  1  0  0  3  0  0  0  0  0  0
  186.4850  177.0410  143.5120 C   0  0  0  0  0  2  0  0  0  0  0  0
  186.1710  176.9840  147.1480 C   0  0  0  0  0  2  0  0  0  0  0  0
  186.1370  176.3640  144.6740 C   0  0  2  0  0  3  0  0  0  0  0  0
  184.4090  178.6960  146.3930 C   0  0  0  0  0  2  0  0  0  0  0  0
  184.6670  178.7130  144.9230 C   0  0  0  0  0  0  0  0  0  0  0  0
  185.7130  178.4570  147.1660 C   0  0  0  0  0  2  0  0  0  0  0  0
  185.4600  177.6610  144.4040 N   0  0  0  0  0  0  0  0  0  0  0  0
  184.5160  179.8030  144.2480 N   0  0  0  0  0  2  0  0  0  0  0  0
  1 10  2  0  0  0  0
  2 17  1  1  0  0  0
  2 11  1  0  0  0  0
  3 12  1  0  0  0  0
  4 18  1  1  0  0  0
  4 16  1  0  0  0  0
  5 26  1  1  0  0  0
  5 19  1  0  0  0  0
  6 21  1  0  0  0  0
  7 15  1  6  0  0  0
  7 25  1  0  0  0  0
  8  5  1  0  0  0  0
  8  7  1  0  0  0  0
  9 14  1  0  0  0  0
 10 13  1  0  0  0  0
 11 24  1  6  0  0  0
 12 20  1  0  0  0  0
 12  9  1  1  0  0  0
 13 16  1  0  0  0  0
 14  6  1  0  0  0  0
 17 23  1  0  0  0  0
 18 22  1  0  0  0  0
 19  3  1  6  0  0  0
 19 12  1  0  0  0  0
 19 20  1  0  0  0  0
 21 22  1  0  0  0  0
 22 41  1  6  0  0  0
 23 10  1  0  0  0  0
 23  4  1  0  0  0  0
 25  2  1  0  0  0  0
 25 11  1  0  0  0  0
 26 27  1  0  0  0  0
 27 29  1  0  0  0  0
 28 27  1  0  0  0  0
 30 29  1  0  0  0  0
 30 31  1  0  0  0  0
 31 35  1  0  0  0  0
 32 34  2  0  0  0  0
 34 33  1  0  0  0  0
 34 31  1  0  0  0  0
 35 39  1  0  0  0  0
 37 36  1  0  0  0  0
 39 40  1  0  0  0  0
 39 37  1  0  0  0  0
 40 37  1  0  0  0  0
 40 38  1  0  0  0  0
 41 44  1  0  0  0  0
 44 42  2  0  0  0  0
 44 43  2  0  0  0  0
 45 46  1  0  0  0  0
 45 44  1  0  0  0  0
 46 48  1  0  0  0  0
 47 53  1  0  0  0  0
 47 49  1  0  0  0  0
 48 52  1  0  0  0  0
 49 46  1  0  0  0  0
 50 52  1  0  0  0  0
 51 50  1  0  0  0  0
 53 49  1  0  0  0  0
 53 51  1  0  0  0  0
 54 51  2  0  0  0  0
M  END
>  <MODEL>
5

>  <REMARK>
 VINA RESULT:      -6.4      2.883      9.230
  Name = 
  12 active torsions:
  status: ('A' for Active; 'I' for Inactive)
    1  A    between atoms: C_4  and  N_10
    2  A    between atoms: C_8  and  N_23
    3  A    between atoms: O_9  and  C_28
    4  A    between atoms: O_9  and  C_40
    5  A    between atoms: N_10  and  S_43
    6  A    between atoms: O_17  and  C_41
    7  A    between atoms: O_17  and  C_45
    8  A    between atoms: N_23  and  C_28
    9  A    between atoms: C_29  and  S_43
   10  A    between atoms: C_29  and  C_49
   11  A    between atoms: C_40  and  C_41
   12  A    between atoms: C_41  and  C_52
                            x       y       z     vdW  Elec       q    Type
                         _______ _______ _______ _____ _____    ______ ____

>  <TORSDO>
F 12

$$$$
=
 OpenBabel11062419093D

 54 61  0  0  1  0  0  0  0  0999 V2000
  188.7580  172.1050  137.8760 O   0  0  0  0  0  0  0  0  0  0  0  0
  188.6210  174.1950  140.4260 C   0  0  2  0  0  3  0  0  0  0  0  0
  189.3550  177.0820  145.1120 N   0  0  0  0  0  2  0  0  0  0  0  0
  191.1870  171.5540  140.3190 C   0  0  2  0  0  3  0  0  0  0  0  0
  187.3050  177.3300  143.8790 C   0  0  2  0  0  3  0  0  0  0  0  0
  190.6970  173.2330  143.9590 O   0  0  0  0  0  0  0  0  0  0  0  0
  187.5870  176.2120  141.5760 C   0  0  1  0  0  3  0  0  0  0  0  0
  187.9410  177.3900  142.4760 C   0  0  0  0  0  2  0  0  0  0  0  0
  190.0140  174.8780  145.5580 C   0  0  0  0  0  2  0  0  0  0  0  0
  189.6460  171.6680  138.6530 C   0  0  0  0  0  0  0  0  0  0  0  0
  188.4290  173.8100  141.8760 C   0  0  2  0  0  3  0  0  0  0  0  0
  189.2660  175.7350  144.5570 C   0  0  1  0  0  0  0  0  0  0  0  0
  190.3930  170.4290  138.4660 C   0  0  0  0  0  2  0  0  0  0  0  0
  191.1770  174.1770  144.8710 C   0  0  0  0  0  2  0  0  0  0  0  0
  187.2850  176.7020  140.3010 O   0  0  0  0  0  1  0  0  0  0  0  0
  191.3890  170.4200  139.4720 O   0  0  0  0  0  0  0  0  0  0  0  0
  190.0100  173.7900  139.9600 C   0  0  0  0  0  2  0  0  0  0  0  0
  190.8580  171.0750  141.7360 C   0  0  0  0  0  2  0  0  0  0  0  0
  188.0260  176.5080  144.9640 C   0  0  1  0  0  0  0  0  0  0  0  0
  187.9860  175.1810  144.5610 O   0  0  0  0  0  0  0  0  0  0  0  0
  191.7560  173.0140  143.0820 C   0  0  0  0  0  2  0  0  0  0  0  0
  191.8810  171.5290  142.7870 C   0  0  2  0  0  3  0  0  0  0  0  0
  190.0950  172.3460  139.7900 N   0  0  0  0  0  0  0  0  0  0  0  0
  187.0660  173.6330  142.1250 O   0  0  0  0  0  1  0  0  0  0  0  0
  188.7810  175.2560  141.5010 C   0  0  1  0  0  3  0  0  0  0  0  0
  185.8810  177.0110  143.8300 N   0  0  0  0  0  2  0  0  0  0  0  0
  185.1390  178.2080  144.2040 C   0  0  1  0  0  3  0  0  0  0  0  0
  186.0550  179.1490  144.9640 C   0  0  0  0  0  1  0  0  0  0  0  0
  184.6620  178.8480  143.0570 O   0  0  0  0  0  0  0  0  0  0  0  0
  183.3310  178.4350  142.9460 C   0  0  0  0  0  2  0  0  0  0  0  0
  182.8320  178.6630  141.5250 C   0  0  1  0  0  3  0  0  0  0  0  0
  185.0890  178.9920  140.5120 O   0  0  0  0  0  1  0  0  0  0  0  0
  183.7230  177.3180  139.7520 O   0  0  0  0  0  0  0  0  0  0  0  0
  183.8970  178.2800  140.5450 C   0  0  0  0  0  0  0  0  0  0  0  0
  181.6760  177.9110  141.2940 O   0  0  0  0  0  0  0  0  0  0  0  0
  179.9410  180.8980  140.5090 O   0  0  0  0  0  1  0  0  0  0  0  0
  180.2190  179.7890  141.3090 C   0  0  2  0  0  3  0  0  0  0  0  0
  178.6120  178.8340  139.7660 O   0  0  0  0  0  1  0  0  0  0  0  0
  180.8810  178.7120  140.4700 C   0  0  2  0  0  3  0  0  0  0  0  0
  179.4250  178.5590  140.8680 C   0  0  1  0  0  3  0  0  0  0  0  0
  193.3230  171.1970  142.4130 C   0  0  0  0  0  2  0  0  0  0  0  0
  193.5560  170.2270  144.9000 O   0  0  0  0  0  0  0  0  0  0  0  0
  195.5760  170.1770  143.5020 O   0  0  0  0  0  0  0  0  0  0  0  0
  194.3460  170.9700  143.8590 S   0  0  0  0  0  0  0  0  0  0  0  0
  194.8070  172.5250  144.4680 N   0  0  0  0  0  2  0  0  0  0  0  0
  196.1220  172.8640  143.9260 C   0  0  1  0  0  3  0  0  0  0  0  0
  196.4430  174.0330  146.1230 C   0  0  0  0  0  2  0  0  0  0  0  0
  195.9860  173.5240  142.5380 C   0  0  0  0  0  2  0  0  0  0  0  0
  196.9780  173.7220  144.8800 C   0  0  2  0  0  3  0  0  0  0  0  0
  195.5690  176.0370  142.8720 C   0  0  0  0  0  2  0  0  0  0  0  0
  195.6920  176.1330  144.3560 C   0  0  0  0  0  0  0  0  0  0  0  0
  194.9710  174.6830  142.4680 C   0  0  0  0  0  2  0  0  0  0  0  0
  196.2740  175.0250  145.0180 N   0  0  0  0  0  0  0  0  0  0  0  0
  194.9710  176.9760  145.0170 N   0  0  0  0  0  2  0  0  0  0  0  0
  1 10  2  0  0  0  0
  2 17  1  1  0  0  0
  2 25  1  0  0  0  0
  2 11  1  0  0  0  0
  4 18  1  1  0  0  0
  5 26  1  6  0  0  0
  5 19  1  0  0  0  0
  6 14  1  0  0  0  0
  7 15  1  6  0  0  0
  7  8  1  0  0  0  0
  8  5  1  0  0  0  0
 10 23  1  0  0  0  0
 11 24  1  6  0  0  0
 12 20  1  0  0  0  0
 12 19  1  0  0  0  0
 12  3  1  0  0  0  0
 12  9  1  1  0  0  0
 13 10  1  0  0  0  0
 13 16  1  0  0  0  0
 14  9  1  0  0  0  0
 16  4  1  0  0  0  0
 18 22  1  0  0  0  0
 19 20  1  1  0  0  0
 19  3  1  0  0  0  0
 21  6  1  0  0  0  0
 22 41  1  6  0  0  0
 22 21  1  0  0  0  0
 23 17  1  0  0  0  0
 23  4  1  0  0  0  0
 25  7  1  0  0  0  0
 25 11  1  0  0  0  0
 26 27  1  0  0  0  0
 27 28  1  0  0  0  0
 29 27  1  0  0  0  0
 30 29  1  0  0  0  0
 31 30  1  0  0  0  0
 32 34  1  0  0  0  0
 33 34  2  0  0  0  0
 34 31  1  0  0  0  0
 35 31  1  0  0  0  0
 36 37  1  0  0  0  0
 38 40  1  0  0  0  0
 39 40  1  0  0  0  0
 39 35  1  0  0  0  0
 39 37  1  0  0  0  0
 40 37  1  0  0  0  0
 41 44  1  0  0  0  0
 43 44  2  0  0  0  0
 44 45  1  0  0  0  0
 44 42  2  0  0  0  0
 46 45  1  0  0  0  0
 46 49  1  0  0  0  0
 48 46  1  0  0  0  0
 49 53  1  0  0  0  0
 49 47  1  0  0  0  0
 50 51  1  0  0  0  0
 51 54  2  0  0  0  0
 51 53  1  0  0  0  0
 52 48  1  0  0  0  0
 52 50  1  0  0  0  0
 53 47  1  0  0  0  0
M  END
>  <MODEL>
6

>  <REMARK>
 VINA RESULT:      -6.4      2.865      6.530
  Name = 
  12 active torsions:
  status: ('A' for Active; 'I' for Inactive)
    1  A    between atoms: C_4  and  N_10
    2  A    between atoms: C_8  and  N_23
    3  A    between atoms: O_9  and  C_28
    4  A    between atoms: O_9  and  C_40
    5  A    between atoms: N_10  and  S_43
    6  A    between atoms: O_17  and  C_41
    7  A    between atoms: O_17  and  C_45
    8  A    between atoms: N_23  and  C_28
    9  A    between atoms: C_29  and  S_43
   10  A    between atoms: C_29  and  C_49
   11  A    between atoms: C_40  and  C_41
   12  A    between atoms: C_41  and  C_52
                            x       y       z     vdW  Elec       q    Type
                         _______ _______ _______ _____ _____    ______ ____

>  <TORSDO>
F 12

$$$$
=
 OpenBabel11062419093D

 54 61  0  0  1  0  0  0  0  0999 V2000
  195.0480  175.4720  145.4700 O   0  0  0  0  0  0  0  0  0  0  0  0
  193.1100  174.5230  142.9740 C   0  0  2  0  0  3  0  0  0  0  0  0
  188.9760  173.4760  139.4180 N   0  0  0  0  0  2  0  0  0  0  0  0
  191.6940  176.3630  145.8340 C   0  0  2  0  0  3  0  0  0  0  0  0
  191.0630  172.3040  139.1820 C   0  0  2  0  0  3  0  0  0  0  0  0
  188.9370  174.5320  143.5210 O   0  0  0  0  0  0  0  0  0  0  0  0
  192.8150  173.4290  140.6980 C   0  0  1  0  0  3  0  0  0  0  0  0
  191.9820  173.5180  139.4250 C   0  0  0  0  0  2  0  0  0  0  0  0
  188.0430  173.4730  141.5680 C   0  0  0  0  0  2  0  0  0  0  0  0
  193.8990  175.8120  145.8540 C   0  0  0  0  0  0  0  0  0  0  0  0
  191.9020  173.6200  143.0850 C   0  0  2  0  0  3  0  0  0  0  0  0
  189.3630  173.4300  140.8240 C   0  0  1  0  0  0  0  0  0  0  0  0
  193.5740  176.3400  147.1740 C   0  0  0  0  0  2  0  0  0  0  0  0
  188.0080  174.6850  142.4870 C   0  0  0  0  0  2  0  0  0  0  0  0
  194.1200  173.8390  140.4050 O   0  0  0  0  0  1  0  0  0  0  0  0
  192.2170  176.7390  147.1100 O   0  0  0  0  0  0  0  0  0  0  0  0
  192.8030  175.8790  143.5870 C   0  0  0  0  0  2  0  0  0  0  0  0
  190.5710  175.3380  146.0300 C   0  0  0  0  0  2  0  0  0  0  0  0
  189.6870  172.2910  139.8750 C   0  0  1  0  0  0  0  0  0  0  0  0
  189.9210  172.2200  141.2410 O   0  0  0  0  0  0  0  0  0  0  0  0
  189.1650  175.8230  143.9890 C   0  0  0  0  0  2  0  0  0  0  0  0
  189.2100  175.8190  145.5070 C   0  0  2  0  0  3  0  0  0  0  0  0
  192.7630  175.7900  145.0400 N   0  0  0  0  0  0  0  0  0  0  0  0
  192.3250  172.2890  143.0820 O   0  0  0  0  0  1  0  0  0  0  0  0
  192.2060  174.3420  141.7660 C   0  0  1  0  0  3  0  0  0  0  0  0
  191.7600  171.0340  139.3630 N   0  0  0  0  0  2  0  0  0  0  0  0
  191.8220  170.3680  138.0690 C   0  0  1  0  0  3  0  0  0  0  0  0
  190.9870  169.1030  138.1140 C   0  0  0  0  0  1  0  0  0  0  0  0
  191.3300  171.2170  137.0740 O   0  0  0  0  0  0  0  0  0  0  0  0
  192.1730  171.0090  135.9780 C   0  0  0  0  0  2  0  0  0  0  0  0
  193.2840  172.0510  135.9720 C   0  0  1  0  0  3  0  0  0  0  0  0
  195.6490  172.0610  135.1750 O   0  0  0  0  0  0  0  0  0  0  0  0
  194.7930  170.2020  136.2030 O   0  0  0  0  0  1  0  0  0  0  0  0
  194.6100  171.3790  135.7940 C   0  0  0  0  0  0  0  0  0  0  0  0
  193.0730  172.9740  134.9430 O   0  0  0  0  0  0  0  0  0  0  0  0
  192.1420  176.3910  135.0060 O   0  0  0  0  0  1  0  0  0  0  0  0
  193.0310  175.3430  134.7640 C   0  0  2  0  0  3  0  0  0  0  0  0
  193.4520  175.7490  137.1170 O   0  0  0  0  0  1  0  0  0  0  0  0
  192.6240  174.1330  135.5820 C   0  0  2  0  0  3  0  0  0  0  0  0
  193.8150  174.9630  136.0210 C   0  0  1  0  0  3  0  0  0  0  0  0
  188.8060  177.1910  146.0390 C   0  0  0  0  0  2  0  0  0  0  0  0
  186.6420  176.0350  147.1200 O   0  0  0  0  0  0  0  0  0  0  0  0
  186.7530  178.4870  147.2260 O   0  0  0  0  0  0  0  0  0  0  0  0
  187.0550  177.2780  146.3800 S   0  0  0  0  0  0  0  0  0  0  0  0
  186.1960  177.3830  144.8790 N   0  0  0  0  0  2  0  0  0  0  0  0
  186.5120  178.6650  144.2530 C   0  0  1  0  0  3  0  0  0  0  0  0
  184.1570  179.2630  144.8850 C   0  0  0  0  0  2  0  0  0  0  0  0
  187.0630  178.4560  142.8270 C   0  0  0  0  0  2  0  0  0  0  0  0
  185.3350  179.6620  144.2650 C   0  0  2  0  0  3  0  0  0  0  0  0
  185.0740  178.2520  141.2120 C   0  0  0  0  0  2  0  0  0  0  0  0
  183.9420  178.5120  142.1490 C   0  0  0  0  0  0  0  0  0  0  0  0
  186.2160  177.5240  141.9360 C   0  0  0  0  0  2  0  0  0  0  0  0
  184.2740  179.0690  143.4080 N   0  0  0  0  0  0  0  0  0  0  0  0
  182.8090  177.9160  141.9830 N   0  0  0  0  0  2  0  0  0  0  0  0
  1 10  2  0  0  0  0
  2 11  1  0  0  0  0
  2 17  1  1  0  0  0
  3 12  1  0  0  0  0
  4 18  1  1  0  0  0
  4 16  1  0  0  0  0
  5 26  1  1  0  0  0
  5  8  1  0  0  0  0
  5 19  1  0  0  0  0
  6 21  1  0  0  0  0
  7 15  1  6  0  0  0
  7 25  1  0  0  0  0
  8  7  1  0  0  0  0
  9 14  1  0  0  0  0
 10 13  1  0  0  0  0
 11 24  1  6  0  0  0
 12 20  1  0  0  0  0
 12  9  1  1  0  0  0
 14  6  1  0  0  0  0
 16 13  1  0  0  0  0
 17 23  1  0  0  0  0
 19  3  1  6  0  0  0
 19 12  1  0  0  0  0
 19 20  1  0  0  0  0
 21 22  1  0  0  0  0
 22 18  1  0  0  0  0
 22 41  1  6  0  0  0
 23  4  1  0  0  0  0
 23 10  1  0  0  0  0
 25  2  1  0  0  0  0
 25 11  1  0  0  0  0
 27 28  1  0  0  0  0
 27 26  1  0  0  0  0
 29 27  1  0  0  0  0
 30 29  1  0  0  0  0
 31 30  1  0  0  0  0
 32 34  2  0  0  0  0
 34 31  1  0  0  0  0
 34 33  1  0  0  0  0
 35 39  1  0  0  0  0
 35 31  1  0  0  0  0
 37 36  1  0  0  0  0
 37 39  1  0  0  0  0
 37 40  1  0  0  0  0
 39 40  1  0  0  0  0
 40 38  1  0  0  0  0
 41 44  1  0  0  0  0
 44 42  2  0  0  0  0
 44 43  2  0  0  0  0
 45 44  1  0  0  0  0
 46 49  1  0  0  0  0
 46 45  1  0  0  0  0
 48 46  1  0  0  0  0
 49 47  1  0  0  0  0
 50 52  1  0  0  0  0
 50 51  1  0  0  0  0
 51 53  1  0  0  0  0
 52 48  1  0  0  0  0
 53 49  1  0  0  0  0
 53 47  1  0  0  0  0
 54 51  2  0  0  0  0
M  END
>  <MODEL>
7

>  <REMARK>
 VINA RESULT:      -6.4      3.307      9.094
  Name = 
  12 active torsions:
  status: ('A' for Active; 'I' for Inactive)
    1  A    between atoms: C_4  and  N_10
    2  A    between atoms: C_8  and  N_23
    3  A    between atoms: O_9  and  C_28
    4  A    between atoms: O_9  and  C_40
    5  A    between atoms: N_10  and  S_43
    6  A    between atoms: O_17  and  C_41
    7  A    between atoms: O_17  and  C_45
    8  A    between atoms: N_23  and  C_28
    9  A    between atoms: C_29  and  S_43
   10  A    between atoms: C_29  and  C_49
   11  A    between atoms: C_40  and  C_41
   12  A    between atoms: C_41  and  C_52
                            x       y       z     vdW  Elec       q    Type
                         _______ _______ _______ _____ _____    ______ ____

>  <TORSDO>
F 12

$$$$
=
 OpenBabel11062419093D

 54 61  0  0  1  0  0  0  0  0999 V2000
  188.6690  171.0640  138.2330 O   0  0  0  0  0  0  0  0  0  0  0  0
  188.7740  173.8780  139.9520 C   0  0  2  0  0  3  0  0  0  0  0  0
  190.1160  178.3050  143.0230 N   0  0  0  0  0  2  0  0  0  0  0  0
  191.7700  171.7520  139.6750 C   0  0  2  0  0  3  0  0  0  0  0  0
  187.7990  177.8160  142.6030 C   0  0  2  0  0  3  0  0  0  0  0  0
  191.9760  174.5220  142.6070 O   0  0  0  0  0  0  0  0  0  0  0  0
  187.6560  176.0070  140.7750 C   0  0  1  0  0  3  0  0  0  0  0  0
  187.9540  177.4640  141.1100 C   0  0  0  0  0  2  0  0  0  0  0  0
  191.4090  176.5150  143.8070 C   0  0  0  0  0  2  0  0  0  0  0  0
  189.8270  171.0560  138.7240 C   0  0  0  0  0  0  0  0  0  0  0  0
  189.1240  174.0080  141.4180 C   0  0  2  0  0  3  0  0  0  0  0  0
  190.2070  176.8510  142.9460 C   0  0  1  0  0  0  0  0  0  0  0  0
  190.7710  169.9480  138.6400 C   0  0  0  0  0  2  0  0  0  0  0  0
  192.4520  175.7840  142.9740 C   0  0  0  0  0  2  0  0  0  0  0  0
  186.8770  175.9690  139.6130 O   0  0  0  0  0  1  0  0  0  0  0  0
  191.9890  170.4320  139.1730 O   0  0  0  0  0  0  0  0  0  0  0  0
  190.0170  173.5320  139.1500 C   0  0  0  0  0  2  0  0  0  0  0  0
  192.0070  171.7630  141.1890 C   0  0  0  0  0  2  0  0  0  0  0  0
  188.9910  177.5380  143.5380 C   0  0  1  0  0  0  0  0  0  0  0  0
  189.1680  176.1620  143.5720 O   0  0  0  0  0  0  0  0  0  0  0  0
  192.7480  174.1570  141.5070 C   0  0  0  0  0  2  0  0  0  0  0  0
  193.1480  172.6960  141.6210 C   0  0  2  0  0  3  0  0  0  0  0  0
  190.4080  172.1470  139.3770 N   0  0  0  0  0  0  0  0  0  0  0  0
  187.9860  173.7430  142.1830 O   0  0  0  0  0  1  0  0  0  0  0  0
  188.9750  175.2620  140.5470 C   0  0  1  0  0  3  0  0  0  0  0  0
  186.5520  177.3060  143.1670 N   0  0  0  0  0  2  0  0  0  0  0  0
  186.1560  178.1920  144.2540 C   0  0  1  0  0  3  0  0  0  0  0  0
  185.8260  179.5620  143.6910 C   0  0  0  0  0  1  0  0  0  0  0  0
  185.0330  177.6730  144.9040 O   0  0  0  0  0  0  0  0  0  0  0  0
  185.5460  176.7400  145.8100 C   0  0  0  0  0  2  0  0  0  0  0  0
  186.6060  177.3930  146.6860 C   0  0  1  0  0  3  0  0  0  0  0  0
  184.5850  178.4990  147.6450 O   0  0  0  0  0  0  0  0  0  0  0  0
  186.6760  179.1680  148.2970 O   0  0  0  0  0  1  0  0  0  0  0  0
  185.9690  178.4040  147.5870 C   0  0  0  0  0  0  0  0  0  0  0  0
  187.2680  176.4240  147.4450 O   0  0  0  0  0  0  0  0  0  0  0  0
  189.6940  174.1720  146.1830 O   0  0  0  0  0  1  0  0  0  0  0  0
  188.9780  174.7910  147.2090 C   0  0  2  0  0  3  0  0  0  0  0  0
  190.7690  176.3920  146.8860 O   0  0  0  0  0  1  0  0  0  0  0  0
  188.4150  176.1080  146.7120 C   0  0  2  0  0  3  0  0  0  0  0  0
  189.6220  176.1120  147.6310 C   0  0  1  0  0  3  0  0  0  0  0  0
  194.4480  172.4560  140.8600 C   0  0  0  0  0  2  0  0  0  0  0  0
  195.3110  170.2500  142.1140 O   0  0  0  0  0  0  0  0  0  0  0  0
  197.0340  171.7580  141.2230 O   0  0  0  0  0  0  0  0  0  0  0  0
  195.6870  171.6890  141.8930 S   0  0  0  0  0  0  0  0  0  0  0  0
  195.7440  172.5230  143.4120 N   0  0  0  0  0  2  0  0  0  0  0  0
  197.0250  173.2190  143.5100 C   0  0  1  0  0  3  0  0  0  0  0  0
  196.5830  173.1500  145.9800 C   0  0  0  0  0  2  0  0  0  0  0  0
  197.0370  174.4700  142.6070 C   0  0  0  0  0  2  0  0  0  0  0  0
  197.4300  173.5620  144.9580 C   0  0  2  0  0  3  0  0  0  0  0  0
  195.9740  176.4170  143.9050 C   0  0  0  0  0  2  0  0  0  0  0  0
  195.7510  175.7650  145.2280 C   0  0  0  0  0  0  0  0  0  0  0  0
  195.8150  175.3980  142.7680 C   0  0  0  0  0  2  0  0  0  0  0  0
  196.4240  174.5400  145.4550 N   0  0  0  0  0  0  0  0  0  0  0  0
  194.7270  176.0830  145.9470 N   0  0  0  0  0  2  0  0  0  0  0  0
  1 10  2  0  0  0  0
  2 17  1  6  0  0  0
  2 25  1  0  0  0  0
  2 11  1  0  0  0  0
  4 18  1  1  0  0  0
  5 26  1  1  0  0  0
  5 19  1  0  0  0  0
  6 14  1  0  0  0  0
  7 15  1  6  0  0  0
  7  8  1  0  0  0  0
  8  5  1  0  0  0  0
 10 23  1  0  0  0  0
 11 24  1  1  0  0  0
 12  3  1  0  0  0  0
 12 19  1  0  0  0  0
 12 20  1  0  0  0  0
 12  9  1  1  0  0  0
 13 10  1  0  0  0  0
 13 16  1  0  0  0  0
 14  9  1  0  0  0  0
 16  4  1  0  0  0  0
 17 23  1  0  0  0  0
 18 22  1  0  0  0  0
 19  3  1  1  0  0  0
 19 20  1  0  0  0  0
 21 22  1  0  0  0  0
 21  6  1  0  0  0  0
 22 41  1  6  0  0  0
 23  4  1  0  0  0  0
 25  7  1  0  0  0  0
 25 11  1  0  0  0  0
 26 27  1  0  0  0  0
 27 29  1  0  0  0  0
 28 27  1  0  0  0  0
 29 30  1  0  0  0  0
 30 31  1  0  0  0  0
 31 35  1  0  0  0  0
 31 34  1  0  0  0  0
 34 32  2  0  0  0  0
 34 33  1  0  0  0  0
 36 37  1  0  0  0  0
 37 40  1  0  0  0  0
 38 40  1  0  0  0  0
 39 37  1  0  0  0  0
 39 35  1  0  0  0  0
 39 40  1  0  0  0  0
 41 44  1  0  0  0  0
 43 44  2  0  0  0  0
 44 42  2  0  0  0  0
 44 45  1  0  0  0  0
 45 46  1  0  0  0  0
 46 49  1  0  0  0  0
 48 52  1  0  0  0  0
 48 46  1  0  0  0  0
 49 53  1  0  0  0  0
 49 47  1  0  0  0  0
 50 51  1  0  0  0  0
 51 53  1  0  0  0  0
 51 54  2  0  0  0  0
 52 50  1  0  0  0  0
 53 47  1  0  0  0  0
M  END
>  <MODEL>
8

>  <REMARK>
 VINA RESULT:      -6.4      2.253      6.469
  Name = 
  12 active torsions:
  status: ('A' for Active; 'I' for Inactive)
    1  A    between atoms: C_4  and  N_10
    2  A    between atoms: C_8  and  N_23
    3  A    between atoms: O_9  and  C_28
    4  A    between atoms: O_9  and  C_40
    5  A    between atoms: N_10  and  S_43
    6  A    between atoms: O_17  and  C_41
    7  A    between atoms: O_17  and  C_45
    8  A    between atoms: N_23  and  C_28
    9  A    between atoms: C_29  and  S_43
   10  A    between atoms: C_29  and  C_49
   11  A    between atoms: C_40  and  C_41
   12  A    between atoms: C_41  and  C_52
                            x       y       z     vdW  Elec       q    Type
                         _______ _______ _______ _____ _____    ______ ____

>  <TORSDO>
F 12

$$$$
=
 OpenBabel11062419093D

 54 61  0  0  1  0  0  0  0  0999 V2000
  188.6310  172.2810  138.3050 O   0  0  0  0  0  0  0  0  0  0  0  0
  189.7610  173.6840  141.0700 C   0  0  2  0  0  3  0  0  0  0  0  0
  192.6050  175.2910  145.5590 N   0  0  0  0  0  2  0  0  0  0  0  0
  191.6970  171.0290  139.4030 C   0  0  2  0  0  3  0  0  0  0  0  0
  190.2990  175.9340  145.3280 C   0  0  2  0  0  3  0  0  0  0  0  0
  192.8550  171.7830  143.1980 O   0  0  0  0  0  0  0  0  0  0  0  0
  189.5320  175.4040  142.9270 C   0  0  1  0  0  3  0  0  0  0  0  0
  190.3620  176.3060  143.8330 C   0  0  0  0  0  2  0  0  0  0  0  0
  193.0650  173.0160  145.2400 C   0  0  0  0  0  2  0  0  0  0  0  0
  189.6750  171.6240  138.5540 C   0  0  0  0  0  0  0  0  0  0  0  0
  190.0770  172.9640  142.3620 C   0  0  2  0  0  3  0  0  0  0  0  0
  192.1240  174.1280  144.8210 C   0  0  1  0  0  0  0  0  0  0  0  0
  190.1130  170.4340  137.8330 C   0  0  0  0  0  2  0  0  0  0  0  0
  193.7710  172.4490  144.0170 C   0  0  0  0  0  2  0  0  0  0  0  0
  188.8460  176.2060  142.0090 O   0  0  0  0  0  1  0  0  0  0  0  0
  191.4020  170.1290  138.3320 O   0  0  0  0  0  0  0  0  0  0  0  0
  190.8000  173.3390  140.0160 C   0  0  0  0  0  2  0  0  0  0  0  0
  191.8610  170.2320  140.7030 C   0  0  0  0  0  2  0  0  0  0  0  0
  191.2510  174.8360  145.8390 C   0  0  1  0  0  0  0  0  0  0  0  0
  190.8750  173.6530  145.2210 O   0  0  0  0  0  0  0  0  0  0  0  0
  193.4640  171.7350  141.9470 C   0  0  0  0  0  2  0  0  0  0  0  0
  193.2580  170.3650  141.3260 C   0  0  2  0  0  3  0  0  0  0  0  0
  190.6100  171.9790  139.5310 N   0  0  0  0  0  0  0  0  0  0  0  0
  188.8980  172.7980  143.0920 O   0  0  0  0  0  1  0  0  0  0  0  0
  190.4620  174.4390  142.1860 C   0  0  1  0  0  3  0  0  0  0  0  0
  188.9320  175.7060  145.7870 N   0  0  0  0  0  2  0  0  0  0  0  0
  188.5350  176.8470  146.6020 C   0  0  1  0  0  3  0  0  0  0  0  0
  189.7760  177.5410  147.1310 C   0  0  0  0  0  1  0  0  0  0  0  0
  187.7920  177.7450  145.8310 O   0  0  0  0  0  0  0  0  0  0  0  0
  186.6520  177.0310  145.4510 C   0  0  0  0  0  2  0  0  0  0  0  0
  185.6140  177.9800  144.8660 C   0  0  1  0  0  3  0  0  0  0  0  0
  185.3640  178.7300  147.2330 O   0  0  0  0  0  1  0  0  0  0  0  0
  183.6310  178.9900  145.7580 O   0  0  0  0  0  0  0  0  0  0  0  0
  184.8080  178.5940  145.9680 C   0  0  0  0  0  0  0  0  0  0  0  0
  186.2440  178.9800  144.1190 O   0  0  0  0  0  0  0  0  0  0  0  0
  183.6330  177.9940  141.9380 O   0  0  0  0  0  1  0  0  0  0  0  0
  184.7430  177.7500  142.7480 C   0  0  2  0  0  3  0  0  0  0  0  0
  185.8330  178.3210  140.6600 O   0  0  0  0  0  1  0  0  0  0  0  0
  185.5430  179.0280  142.9120 C   0  0  2  0  0  3  0  0  0  0  0  0
  186.0540  177.9410  141.9850 C   0  0  1  0  0  3  0  0  0  0  0  0
  194.3900  170.0650  140.3480 C   0  0  0  0  0  2  0  0  0  0  0  0
  196.0740  170.0630  142.4330 O   0  0  0  0  0  0  0  0  0  0  0  0
  197.0840  169.9160  140.1980 O   0  0  0  0  0  0  0  0  0  0  0  0
  195.9790  170.5400  141.0100 S   0  0  0  0  0  0  0  0  0  0  0  0
  196.1140  172.2670  140.9570 N   0  0  0  0  0  2  0  0  0  0  0  0
  197.5330  172.6200  140.9460 C   0  0  1  0  0  3  0  0  0  0  0  0
  196.9610  173.9180  143.0170 C   0  0  0  0  0  2  0  0  0  0  0  0
  197.9410  173.1980  139.5760 C   0  0  0  0  0  2  0  0  0  0  0  0
  197.9410  173.5570  142.1010 C   0  0  2  0  0  3  0  0  0  0  0  0
  197.4010  175.7100  139.5610 C   0  0  0  0  0  2  0  0  0  0  0  0
  196.9360  175.8910  140.9670 C   0  0  0  0  0  0  0  0  0  0  0  0
  197.0210  174.3160  139.0430 C   0  0  0  0  0  2  0  0  0  0  0  0
  197.2260  174.8410  141.8730 N   0  0  0  0  0  0  0  0  0  0  0  0
  196.0060  176.7440  141.2420 N   0  0  0  0  0  2  0  0  0  0  0  0
  1 10  2  0  0  0  0
  2 17  1  6  0  0  0
  2 25  1  0  0  0  0
  2 11  1  0  0  0  0
  3 19  1  0  0  0  0
  4 23  1  0  0  0  0
  4 18  1  1  0  0  0
  5 26  1  6  0  0  0
  5 19  1  0  0  0  0
  6 14  1  0  0  0  0
  7 15  1  6  0  0  0
  7  8  1  0  0  0  0
  8  5  1  0  0  0  0
 10 23  1  0  0  0  0
 11 24  1  1  0  0  0
 12 20  1  0  0  0  0
 12  9  1  1  0  0  0
 12  3  1  0  0  0  0
 12 19  1  0  0  0  0
 13 16  1  0  0  0  0
 13 10  1  0  0  0  0
 14  9  1  0  0  0  0
 16  4  1  0  0  0  0
 18 22  1  0  0  0  0
 19 20  1  1  0  0  0
 21  6  1  0  0  0  0
 22 41  1  6  0  0  0
 22 21  1  0  0  0  0
 23 17  1  0  0  0  0
 25 11  1  0  0  0  0
 25  7  1  0  0  0  0
 26 27  1  0  0  0  0
 27 28  1  0  0  0  0
 29 27  1  0  0  0  0
 30 29  1  0  0  0  0
 31 30  1  0  0  0  0
 31 34  1  0  0  0  0
 33 34  2  0  0  0  0
 34 32  1  0  0  0  0
 35 31  1  0  0  0  0
 36 37  1  0  0  0  0
 37 39  1  0  0  0  0
 38 40  1  0  0  0  0
 39 35  1  0  0  0  0
 40 37  1  0  0  0  0
 40 39  1  0  0  0  0
 41 44  1  0  0  0  0
 43 44  2  0  0  0  0
 44 42  2  0  0  0  0
 45 44  1  0  0  0  0
 46 45  1  0  0  0  0
 46 49  1  0  0  0  0
 48 46  1  0  0  0  0
 49 47  1  0  0  0  0
 50 51  1  0  0  0  0
 51 54  2  0  0  0  0
 51 53  1  0  0  0  0
 52 50  1  0  0  0  0
 52 48  1  0  0  0  0
 53 49  1  0  0  0  0
 53 47  1  0  0  0  0
M  END
>  <MODEL>
9

>  <REMARK>
 VINA RESULT:      -6.4      2.311      5.354
  Name = 
  12 active torsions:
  status: ('A' for Active; 'I' for Inactive)
    1  A    between atoms: C_4  and  N_10
    2  A    between atoms: C_8  and  N_23
    3  A    between atoms: O_9  and  C_28
    4  A    between atoms: O_9  and  C_40
    5  A    between atoms: N_10  and  S_43
    6  A    between atoms: O_17  and  C_41
    7  A    between atoms: O_17  and  C_45
    8  A    between atoms: N_23  and  C_28
    9  A    between atoms: C_29  and  S_43
   10  A    between atoms: C_29  and  C_49
   11  A    between atoms: C_40  and  C_41
   12  A    between atoms: C_41  and  C_52
                            x       y       z     vdW  Elec       q    Type
                         _______ _______ _______ _____ _____    ______ ____

>  <TORSDO>
F 12

$$$$
