=
 OpenBabel11062418233D

 64 70  0  0  1  0  0  0  0  0999 V2000
  190.4500  172.1020  142.5410 C   0  0  2  0  0  3  0  0  0  0  0  0
  189.7970  173.0780  140.6390 C   0  0  0  0  0  0  0  0  0  0  0  0
  189.3080  173.2320  139.3120 N   0  0  0  0  0  1  0  0  0  0  0  0
  189.9220  171.9260  141.1940 N   0  0  0  0  0  0  0  0  0  0  0  0
  190.3910  173.6360  142.7820 C   0  0  2  0  0  3  0  0  0  0  0  0
  190.1090  174.1830  141.4670 N   0  0  0  0  0  2  0  0  0  0  0  0
  191.1610  173.5310  145.6320 O   0  0  0  0  0  0  0  0  0  0  0  0
  193.4300  176.1780  143.8450 C   0  0  0  0  0  2  0  0  0  0  0  0
  191.4330  174.4840  144.9180 C   0  0  0  0  0  0  0  0  0  0  0  0
  191.6390  174.2620  143.4350 C   0  0  2  0  0  3  0  0  0  0  0  0
  191.6030  175.8450  145.5590 C   0  0  2  0  0  0  0  0  0  0  0  0
  192.6770  176.7860  145.0180 C   0  0  1  0  0  3  0  0  0  0  0  0
  192.9210  175.9910  146.2940 C   0  0  0  0  0  2  0  0  0  0  0  0
  192.2250  175.7590  142.5520 S   0  0  0  0  0  0  0  0  0  0  0  0
  189.1620  176.4860  145.5370 C   0  0  0  0  0  3  0  0  0  0  0  0
  189.4400  177.9820  147.8820 C   0  0  0  0  0  3  0  0  0  0  0  0
  190.4090  176.5370  146.1780 C   0  0  0  0  0  0  0  0  0  0  0  0
  188.2070  177.9280  147.2310 C   0  0  0  0  0  3  0  0  0  0  0  0
  190.5360  177.2940  147.3580 C   0  0  0  0  0  3  0  0  0  0  0  0
  188.0630  177.1800  146.0580 C   0  0  0  0  0  0  0  0  0  0  0  0
  186.7560  177.1180  145.3820 C   0  0  0  0  0  0  0  0  0  0  0  0
  186.6310  177.6240  144.1860 C   0  0  0  0  0  0  0  0  0  0  0  0
  186.5080  178.0940  142.9700 C   0  0  0  0  0  0  0  0  0  0  0  0
  187.7350  178.6290  142.2820 C   0  0  1  0  0  3  0  0  0  0  0  0
  188.9460  177.7400  142.5040 C   0  0  0  0  0  2  0  0  0  0  0  0
  187.5740  176.4100  140.9400 C   0  0  0  0  0  1  0  0  0  0  0  0
  188.2810  177.7480  141.1420 C   0  0  1  0  0  3  0  0  0  0  0  0
  184.0850  178.2200  142.5650 C   0  0  0  0  0  3  0  0  0  0  0  0
  185.2920  177.8160  142.1810 C   0  0  0  0  0  3  0  0  0  0  0  0
  182.1730  178.8470  141.3030 N   0  0  0  0  0  0  0  0  0  0  0  0
  182.9010  177.8950  141.7790 C   0  0  0  0  0  3  0  0  0  0  0  0
  180.9730  178.5390  140.5410 C   0  0  0  0  0  2  0  0  0  0  0  0
  179.7690  179.0230  141.2760 C   0  0  0  0  0  3  0  0  0  0  0  0
  179.4410  178.4950  142.3250 O   0  0  0  0  0  0  0  0  0  0  0  0
  185.6490  176.4930  145.9670 O   0  0  0  0  0  0  0  0  0  0  0  0
  184.6000  177.2140  146.5980 C   0  0  0  0  0  1  0  0  0  0  0  0
  191.8530  171.4670  142.6430 C   0  0  0  0  0  2  0  0  0  0  0  0
  192.3420  170.8620  141.3230 C   0  0  2  0  0  3  0  0  0  0  0  0
  191.9840  169.3860  141.2770 C   0  0  0  0  0  1  0  0  0  0  0  0
  193.8520  171.0400  141.1420 C   0  0  1  0  0  3  0  0  0  0  0  0
  194.4640  169.7820  141.1210 O   0  0  0  0  0  0  0  0  0  0  0  0
  195.2980  169.7660  142.2370 C   0  0  0  0  0  1  0  0  0  0  0  0
  194.1190  171.6890  139.9320 O   0  0  0  0  0  0  0  0  0  0  0  0
  196.7950  172.3620  140.3140 O   0  0  0  0  0  0  0  0  0  0  0  0
  194.8700  173.5040  141.6590 O   0  0  0  0  0  1  0  0  0  0  0  0
  195.2050  172.9460  140.2940 P   0  0  2  0  0  0  0  0  0  0  0  0
  195.0810  174.2010  139.1240 O   0  0  0  0  0  0  0  0  0  0  0  0
  196.1690  174.9930  138.7450 C   0  0  0  0  0  0  0  0  0  0  0  0
  196.8660  175.5800  139.6160 O   0  0  0  0  0  0  0  0  0  0  0  0
  197.5500  175.7820  137.0030 O   0  0  0  0  0  0  0  0  0  0  0  0
  196.4860  175.1860  137.3220 C   0  0  0  0  0  0  0  0  0  0  0  0
  195.5940  174.6890  136.2140 C   0  0  2  0  0  3  0  0  0  0  0  0
  196.9400  171.2220  136.3340 C   0  0  0  0  0  2  0  0  0  0  0  0
  197.1880  172.6870  136.1440 C   0  0  0  0  0  2  0  0  0  0  0  0
  195.5110  171.1660  136.8280 C   0  0  1  0  0  3  0  0  0  0  0  0
  195.8220  173.2320  135.7760 C   0  0  1  0  0  3  0  0  0  0  0  0
  194.7990  172.3280  136.3010 N   0  0  0  0  0  2  0  0  0  0  0  0
  193.4190  169.8770  136.9750 C   0  0  0  0  0  2  0  0  0  0  0  0
  194.4990  169.0310  137.6090 C   0  0  0  0  0  2  0  0  0  0  0  0
  194.8170  169.8860  136.3970 C   0  0  0  0  0  3  0  0  0  0  0  0
  195.5900  175.5680  135.1250 O   0  0  0  0  0  0  0  0  0  0  0  0
  194.5190  176.4320  135.3590 C   0  0  0  0  0  2  0  0  0  0  0  0
  192.1180  176.1270  135.6850 C   0  0  0  0  0  2  0  0  0  0  0  0
  193.2360  175.7190  135.0940 C   0  0  0  0  0  3  0  0  0  0  0  0
  1 37  1  6  0  0  0
  1  5  1  0  0  0  0
  2  4  2  0  0  0  0
  2  6  1  0  0  0  0
  3  2  1  0  0  0  0
  4  1  1  0  0  0  0
  5  6  1  6  0  0  0
  5 10  1  0  0  0  0
  9 11  1  0  0  0  0
  9  7  2  0  0  0  0
 10 14  1  6  0  0  0
 10  9  1  0  0  0  0
 11 17  1  1  0  0  0
 11 13  1  0  0  0  0
 12  8  1  6  0  0  0
 12 11  1  0  0  0  0
 12 13  1  0  0  0  0
 14  8  1  0  0  0  0
 15 20  2  0  0  0  0
 15 17  1  0  0  0  0
 17 19  2  0  0  0  0
 18 16  2  0  0  0  0
 19 16  1  0  0  0  0
 20 18  1  0  0  0  0
 21 35  1  0  0  0  0
 21 20  1  0  0  0  0
 22 21  2  0  0  0  0
 23 22  2  0  0  0  0
 24 25  1  0  0  0  0
 24 23  1  1  0  0  0
 27 26  1  1  0  0  0
 27 24  1  0  0  0  0
 27 25  1  0  0  0  0
 29 28  2  0  0  0  0
 29 23  1  0  0  0  0
 30 31  2  0  0  0  0
 31 28  1  0  0  0  0
 32 33  1  0  0  0  0
 32 30  1  0  0  0  0
 33 34  2  0  0  0  0
 35 36  1  0  0  0  0
 38 39  1  1  0  0  0
 38 37  1  0  0  0  0
 40 43  1  6  0  0  0
 40 38  1  0  0  0  0
 41 40  1  0  0  0  0
 41 42  1  0  0  0  0
 43 46  1  0  0  0  0
 46 44  2  1  0  0  0
 46 45  1  0  0  0  0
 47 46  1  0  0  0  0
 48 47  1  0  0  0  0
 48 49  2  0  0  0  0
 50 51  2  0  0  0  0
 51 48  1  0  0  0  0
 52 61  1  6  0  0  0
 52 51  1  0  0  0  0
 53 55  1  0  0  0  0
 54 53  1  0  0  0  0
 55 60  1  6  0  0  0
 56 54  1  0  0  0  0
 56 52  1  1  0  0  0
 56 57  1  0  0  0  0
 57 55  1  0  0  0  0
 58 59  1  0  0  0  0
 60 58  1  0  0  0  0
 60 59  1  0  0  0  0
 61 62  1  0  0  0  0
 64 62  1  0  0  0  0
 64 63  2  0  0  0  0
M  END
>  <MODEL>
1

>  <REMARK>
 VINA RESULT:      -5.3      0.000      0.000
  Name = 
  24 active torsions:
  status: ('A' for Active; 'I' for Inactive)
    1  A    between atoms: C_1  and  C_61
    2  A    between atoms: C_2  and  C_6
    3  A    between atoms: C_2  and  C_8
    4  A    between atoms: C_5  and  C_63
    5  A    between atoms: C_7  and  O_33
    6  A    between atoms: C_7  and  C_47
    7  A    between atoms: C_7  and  C_56
    8  A    between atoms: C_8  and  C_34
    9  A    between atoms: O_10  and  C_16
   10  A    between atoms: C_11  and  C_50
   11  A    between atoms: C_16  and  C_58
   12  A    between atoms: O_18  and  C_26
   13  A    between atoms: O_18  and  P_51
   14  A    between atoms: C_26  and  C_56
   15  A    between atoms: C_31  and  C_52
   16  A    between atoms: N_32  and  C_61
   17  A    between atoms: O_33  and  C_36
   18  A    between atoms: C_34  and  O_35
   19  A    between atoms: C_34  and  O_54
   20  A    between atoms: C_36  and  C_44
   21  A    between atoms: C_38  and  C_45
   22  A    between atoms: C_40  and  C_53
   23  A    between atoms: P_51  and  O_54
   24  A    between atoms: C_55  and  C_63
                            x       y       z     vdW  Elec       q    Type
                         _______ _______ _______ _____ _____    ______ ____

>  <TORSDO>
F 24

$$$$
=
 OpenBabel11062418233D

 64 70  0  0  1  0  0  0  0  0999 V2000
  194.8880  175.1440  143.1340 C   0  0  2  0  0  3  0  0  0  0  0  0
  194.5320  176.5650  144.8230 C   0  0  0  0  0  0  0  0  0  0  0  0
  194.7910  177.4930  145.8690 N   0  0  0  0  0  1  0  0  0  0  0  0
  195.4720  176.0560  144.1100 N   0  0  0  0  0  0  0  0  0  0  0  0
  193.3580  175.3900  143.2420 C   0  0  2  0  0  3  0  0  0  0  0  0
  193.2190  176.1940  144.4440 N   0  0  0  0  0  2  0  0  0  0  0  0
  190.6310  175.1000  142.1450 O   0  0  0  0  0  0  0  0  0  0  0  0
  191.4010  171.9640  144.3630 C   0  0  0  0  0  2  0  0  0  0  0  0
  191.0080  174.4790  143.1260 C   0  0  0  0  0  0  0  0  0  0  0  0
  192.4740  174.1280  143.2610 C   0  0  2  0  0  3  0  0  0  0  0  0
  189.9790  174.0410  144.1460 C   0  0  2  0  0  0  0  0  0  0  0  0
  190.1460  172.6850  144.8280 C   0  0  1  0  0  3  0  0  0  0  0  0
  189.1570  172.8540  143.6840 C   0  0  0  0  0  2  0  0  0  0  0  0
  192.8300  173.0360  144.6930 S   0  0  0  0  0  0  0  0  0  0  0  0
  188.0720  175.6590  144.4860 C   0  0  0  0  0  3  0  0  0  0  0  0
  189.1280  176.5360  146.9210 C   0  0  0  0  0  3  0  0  0  0  0  0
  189.2530  175.0790  144.9730 C   0  0  0  0  0  0  0  0  0  0  0  0
  187.9570  177.1080  146.4210 C   0  0  0  0  0  3  0  0  0  0  0  0
  189.7740  175.5290  146.2000 C   0  0  0  0  0  3  0  0  0  0  0  0
  187.4250  176.6720  145.2030 C   0  0  0  0  0  0  0  0  0  0  0  0
  186.1830  177.2730  144.6880 C   0  0  0  0  0  0  0  0  0  0  0  0
  185.9910  177.3330  143.3980 C   0  0  0  0  0  0  0  0  0  0  0  0
  185.7740  177.3620  142.1070 C   0  0  0  0  0  0  0  0  0  0  0  0
  186.7850  176.7180  141.1960 C   0  0  1  0  0  3  0  0  0  0  0  0
  187.1960  177.6400  140.0600 C   0  0  0  0  0  2  0  0  0  0  0  0
  188.3040  178.6600  142.0170 C   0  0  0  0  0  1  0  0  0  0  0  0
  188.1740  177.3840  141.1900 C   0  0  1  0  0  3  0  0  0  0  0  0
  183.4850  178.2300  142.3520 C   0  0  0  0  0  3  0  0  0  0  0  0
  184.4410  177.7190  141.5820 C   0  0  0  0  0  3  0  0  0  0  0  0
  181.3110  179.1680  142.5340 N   0  0  0  0  0  0  0  0  0  0  0  0
  182.1680  178.5360  141.8060 C   0  0  0  0  0  3  0  0  0  0  0  0
  179.9830  179.4570  142.0150 C   0  0  0  0  0  2  0  0  0  0  0  0
  179.6400  178.4850  140.9370 C   0  0  0  0  0  3  0  0  0  0  0  0
  178.5070  178.4430  140.4900 O   0  0  0  0  0  0  0  0  0  0  0  0
  185.1790  177.7440  145.5400 O   0  0  0  0  0  0  0  0  0  0  0  0
  184.9670  179.1260  145.7930 C   0  0  0  0  0  1  0  0  0  0  0  0
  195.3500  173.7000  143.4230 C   0  0  0  0  0  2  0  0  0  0  0  0
  196.8610  173.5040  143.2630 C   0  0  2  0  0  3  0  0  0  0  0  0
  197.2910  173.9620  141.8800 C   0  0  0  0  0  1  0  0  0  0  0  0
  197.2700  172.0440  143.4800 C   0  0  1  0  0  3  0  0  0  0  0  0
  197.9410  171.9320  144.7020 O   0  0  0  0  0  0  0  0  0  0  0  0
  196.9480  171.6500  145.6370 C   0  0  0  0  0  1  0  0  0  0  0  0
  196.1350  171.2260  143.5140 O   0  0  0  0  0  0  0  0  0  0  0  0
  197.0090  168.6190  143.0670 O   0  0  0  0  0  1  0  0  0  0  0  0
  197.3710  170.5240  141.3180 O   0  0  0  0  0  0  0  0  0  0  0  0
  196.3820  170.0170  142.3450 P   0  0  2  0  0  0  0  0  0  0  0  0
  194.9020  169.6300  141.5600 O   0  0  0  0  0  0  0  0  0  0  0  0
  194.7990  169.4640  140.1750 C   0  0  0  0  0  0  0  0  0  0  0  0
  195.6020  168.7130  139.5610 O   0  0  0  0  0  0  0  0  0  0  0  0
  193.6370  169.9650  138.1850 O   0  0  0  0  0  0  0  0  0  0  0  0
  193.7770  170.2020  139.4150 C   0  0  0  0  0  0  0  0  0  0  0  0
  192.8750  171.2280  140.0470 C   0  0  2  0  0  3  0  0  0  0  0  0
  189.3830  172.4390  139.6160 C   0  0  0  0  0  2  0  0  0  0  0  0
  190.4460  171.8850  140.5160 C   0  0  0  0  0  2  0  0  0  0  0  0
  190.1320  172.7670  138.3430 C   0  0  1  0  0  3  0  0  0  0  0  0
  191.4180  171.2320  139.5530 C   0  0  1  0  0  3  0  0  0  0  0  0
  191.2780  171.8680  138.2430 N   0  0  0  0  0  2  0  0  0  0  0  0
  189.9990  171.8450  136.0650 C   0  0  0  0  0  2  0  0  0  0  0  0
  189.8720  173.3460  135.9370 C   0  0  0  0  0  2  0  0  0  0  0  0
  189.2460  172.6280  137.1180 C   0  0  0  0  0  3  0  0  0  0  0  0
  193.4440  172.5070  140.0050 O   0  0  0  0  0  0  0  0  0  0  0  0
  194.6370  172.3500  139.3000 C   0  0  0  0  0  2  0  0  0  0  0  0
  194.1560  173.4330  137.1640 C   0  0  0  0  0  2  0  0  0  0  0  0
  194.7940  173.4720  138.3290 C   0  0  0  0  0  3  0  0  0  0  0  0
  1  5  1  0  0  0  0
  1 37  1  1  0  0  0
  1  4  1  0  0  0  0
  2  3  1  0  0  0  0
  4  2  2  0  0  0  0
  5 10  1  0  0  0  0
  5  6  1  1  0  0  0
  6  2  1  0  0  0  0
  7  9  2  0  0  0  0
  8 14  1  0  0  0  0
  8 12  1  0  0  0  0
  9 11  1  0  0  0  0
 10  9  1  1  0  0  0
 10 14  1  0  0  0  0
 11 12  1  0  0  0  0
 11 17  1  1  0  0  0
 12 13  1  6  0  0  0
 13 11  1  0  0  0  0
 15 17  2  0  0  0  0
 15 20  1  0  0  0  0
 17 19  1  0  0  0  0
 18 16  1  0  0  0  0
 19 16  2  0  0  0  0
 20 18  2  0  0  0  0
 21 20  1  0  0  0  0
 21 35  1  0  0  0  0
 22 21  2  0  0  0  0
 23 22  2  0  0  0  0
 24 23  1  1  0  0  0
 25 27  1  0  0  0  0
 25 24  1  0  0  0  0
 27 24  1  0  0  0  0
 27 26  1  1  0  0  0
 29 23  1  0  0  0  0
 29 28  2  0  0  0  0
 31 28  1  0  0  0  0
 31 30  2  0  0  0  0
 32 30  1  0  0  0  0
 33 32  1  0  0  0  0
 34 33  2  0  0  0  0
 35 36  1  0  0  0  0
 38 39  1  6  0  0  0
 38 37  1  0  0  0  0
 38 40  1  0  0  0  0
 40 43  1  1  0  0  0
 40 41  1  0  0  0  0
 41 42  1  0  0  0  0
 46 45  2  6  0  0  0
 46 44  1  0  0  0  0
 46 43  1  0  0  0  0
 47 46  1  0  0  0  0
 48 47  1  0  0  0  0
 49 48  2  0  0  0  0
 50 51  2  0  0  0  0
 51 48  1  0  0  0  0
 52 51  1  6  0  0  0
 53 54  1  0  0  0  0
 55 60  1  6  0  0  0
 55 53  1  0  0  0  0
 56 52  1  1  0  0  0
 56 54  1  0  0  0  0
 57 55  1  0  0  0  0
 57 56  1  0  0  0  0
 58 60  1  0  0  0  0
 59 58  1  0  0  0  0
 59 60  1  0  0  0  0
 61 52  1  0  0  0  0
 62 61  1  0  0  0  0
 63 64  2  0  0  0  0
 64 62  1  0  0  0  0
M  END
>  <MODEL>
2

>  <REMARK>
 VINA RESULT:      -4.9      2.574      4.557
  Name = 
  24 active torsions:
  status: ('A' for Active; 'I' for Inactive)
    1  A    between atoms: C_1  and  C_61
    2  A    between atoms: C_2  and  C_6
    3  A    between atoms: C_2  and  C_8
    4  A    between atoms: C_5  and  C_63
    5  A    between atoms: C_7  and  O_33
    6  A    between atoms: C_7  and  C_47
    7  A    between atoms: C_7  and  C_56
    8  A    between atoms: C_8  and  C_34
    9  A    between atoms: O_10  and  C_16
   10  A    between atoms: C_11  and  C_50
   11  A    between atoms: C_16  and  C_58
   12  A    between atoms: O_18  and  C_26
   13  A    between atoms: O_18  and  P_51
   14  A    between atoms: C_26  and  C_56
   15  A    between atoms: C_31  and  C_52
   16  A    between atoms: N_32  and  C_61
   17  A    between atoms: O_33  and  C_36
   18  A    between atoms: C_34  and  O_35
   19  A    between atoms: C_34  and  O_54
   20  A    between atoms: C_36  and  C_44
   21  A    between atoms: C_38  and  C_45
   22  A    between atoms: C_40  and  C_53
   23  A    between atoms: P_51  and  O_54
   24  A    between atoms: C_55  and  C_63
                            x       y       z     vdW  Elec       q    Type
                         _______ _______ _______ _____ _____    ______ ____

>  <TORSDO>
F 24

$$$$
=
 OpenBabel11062418233D

 64 70  0  0  1  0  0  0  0  0999 V2000
  196.0680  174.3140  144.4560 C   0  0  2  0  0  3  0  0  0  0  0  0
  195.0770  176.2720  144.8830 C   0  0  0  0  0  0  0  0  0  0  0  0
  194.2210  177.2370  145.4820 N   0  0  0  0  0  1  0  0  0  0  0  0
  195.0990  175.0460  145.2640 N   0  0  0  0  0  0  0  0  0  0  0  0
  196.8150  175.4170  143.6570 C   0  0  2  0  0  3  0  0  0  0  0  0
  196.0160  176.6090  143.8780 N   0  0  0  0  0  2  0  0  0  0  0  0
  195.6340  176.8320  141.3490 O   0  0  0  0  0  0  0  0  0  0  0  0
  197.3320  173.5530  140.0400 C   0  0  0  0  0  2  0  0  0  0  0  0
  195.9100  175.6430  141.3120 C   0  0  0  0  0  0  0  0  0  0  0  0
  197.0490  175.1220  142.1630 C   0  0  2  0  0  3  0  0  0  0  0  0
  195.1300  174.7450  140.3760 C   0  0  2  0  0  0  0  0  0  0  0  0
  195.8610  173.6130  139.6590 C   0  0  1  0  0  3  0  0  0  0  0  0
  195.5390  174.9080  138.9250 C   0  0  0  0  0  2  0  0  0  0  0  0
  197.4460  173.3590  141.8420 S   0  0  0  0  0  0  0  0  0  0  0  0
  193.0730  174.9290  141.8280 C   0  0  0  0  0  3  0  0  0  0  0  0
  191.5440  173.4590  140.0080 C   0  0  0  0  0  3  0  0  0  0  0  0
  193.6620  174.4870  140.6340 C   0  0  0  0  0  0  0  0  0  0  0  0
  190.9740  173.9000  141.2030 C   0  0  0  0  0  3  0  0  0  0  0  0
  192.8810  173.7470  139.7250 C   0  0  0  0  0  3  0  0  0  0  0  0
  191.7350  174.6370  142.1170 C   0  0  0  0  0  0  0  0  0  0  0  0
  191.1230  175.1090  143.3700 C   0  0  0  0  0  0  0  0  0  0  0  0
  190.1270  175.9510  143.3160 C   0  0  0  0  0  0  0  0  0  0  0  0
  189.1030  176.7660  143.2700 C   0  0  0  0  0  0  0  0  0  0  0  0
  188.5480  177.1420  141.9220 C   0  0  1  0  0  3  0  0  0  0  0  0
  188.1840  175.9210  141.0950 C   0  0  0  0  0  2  0  0  0  0  0  0
  186.4120  175.9620  142.8140 C   0  0  0  0  0  1  0  0  0  0  0  0
  187.0730  176.7600  141.6950 C   0  0  1  0  0  3  0  0  0  0  0  0
  188.8860  177.2780  145.6660 C   0  0  0  0  0  3  0  0  0  0  0  0
  188.3170  177.0460  144.4870 C   0  0  0  0  0  3  0  0  0  0  0  0
  186.9030  178.0350  146.7310 N   0  0  0  0  0  0  0  0  0  0  0  0
  188.0770  177.5150  146.8560 C   0  0  0  0  0  3  0  0  0  0  0  0
  186.0940  178.3040  147.9100 C   0  0  0  0  0  2  0  0  0  0  0  0
  184.6610  178.4350  147.5190 C   0  0  0  0  0  3  0  0  0  0  0  0
  184.3640  178.7070  146.3680 O   0  0  0  0  0  0  0  0  0  0  0  0
  191.5480  174.6480  144.6200 O   0  0  0  0  0  0  0  0  0  0  0  0
  191.2570  175.3280  145.8330 C   0  0  0  0  0  1  0  0  0  0  0  0
  195.3440  173.2510  143.6040 C   0  0  0  0  0  2  0  0  0  0  0  0
  194.7340  172.1180  144.4360 C   0  0  2  0  0  3  0  0  0  0  0  0
  195.7440  171.6420  145.4650 C   0  0  0  0  0  1  0  0  0  0  0  0
  194.2900  170.9450  143.5580 C   0  0  1  0  0  3  0  0  0  0  0  0
  193.1110  170.4020  144.0790 O   0  0  0  0  0  0  0  0  0  0  0  0
  192.1610  171.4140  143.9570 C   0  0  0  0  0  1  0  0  0  0  0  0
  194.0440  171.3850  142.2530 O   0  0  0  0  0  0  0  0  0  0  0  0
  193.8740  168.6880  141.5790 O   0  0  0  0  0  1  0  0  0  0  0  0
  196.1140  170.0220  141.4190 O   0  0  0  0  0  0  0  0  0  0  0  0
  194.6210  170.1660  141.2200 P   0  0  2  0  0  0  0  0  0  0  0  0
  194.3060  170.5710  139.5780 O   0  0  0  0  0  0  0  0  0  0  0  0
  194.8030  169.8250  138.5050 C   0  0  0  0  0  0  0  0  0  0  0  0
  194.7410  168.5660  138.5200 O   0  0  0  0  0  0  0  0  0  0  0  0
  196.6430  170.2330  137.0880 O   0  0  0  0  0  0  0  0  0  0  0  0
  195.4430  170.5000  137.3660 C   0  0  0  0  0  0  0  0  0  0  0  0
  194.7200  171.4980  136.5000 C   0  0  2  0  0  3  0  0  0  0  0  0
  191.9130  169.1840  135.7180 C   0  0  0  0  0  2  0  0  0  0  0  0
  193.3270  169.6150  135.4680 C   0  0  0  0  0  2  0  0  0  0  0  0
  191.5090  169.9850  136.9370 C   0  0  1  0  0  3  0  0  0  0  0  0
  193.3510  171.0480  135.9620 C   0  0  1  0  0  3  0  0  0  0  0  0
  192.2840  171.2230  136.9480 N   0  0  0  0  0  2  0  0  0  0  0  0
  189.8360  171.7610  137.2660 C   0  0  0  0  0  2  0  0  0  0  0  0
  189.5770  170.7140  138.3260 C   0  0  0  0  0  2  0  0  0  0  0  0
  190.0230  170.2960  136.9370 C   0  0  0  0  0  3  0  0  0  0  0  0
  195.5470  171.9860  135.4800 O   0  0  0  0  0  0  0  0  0  0  0  0
  195.7360  173.3360  135.7820 C   0  0  0  0  0  2  0  0  0  0  0  0
  193.9720  174.9830  135.4080 C   0  0  0  0  0  2  0  0  0  0  0  0
  194.8860  174.1710  134.8850 C   0  0  0  0  0  3  0  0  0  0  0  0
  1 37  1  6  0  0  0
  1  4  1  0  0  0  0
  2  4  2  0  0  0  0
  2  3  1  0  0  0  0
  5  6  1  6  0  0  0
  5  1  1  0  0  0  0
  6  2  1  0  0  0  0
  8 14  1  0  0  0  0
  9  7  2  0  0  0  0
 10  9  1  6  0  0  0
 10  5  1  0  0  0  0
 11 17  1  1  0  0  0
 11  9  1  0  0  0  0
 12 13  1  6  0  0  0
 12  8  1  0  0  0  0
 12 11  1  0  0  0  0
 13 11  1  0  0  0  0
 14 10  1  0  0  0  0
 15 20  1  0  0  0  0
 16 18  1  0  0  0  0
 17 15  2  0  0  0  0
 18 20  2  0  0  0  0
 19 16  2  0  0  0  0
 19 17  1  0  0  0  0
 20 21  1  0  0  0  0
 21 35  1  0  0  0  0
 22 21  2  0  0  0  0
 23 22  2  0  0  0  0
 23 29  1  0  0  0  0
 24 23  1  1  0  0  0
 25 27  1  0  0  0  0
 25 24  1  0  0  0  0
 27 24  1  0  0  0  0
 27 26  1  1  0  0  0
 28 31  1  0  0  0  0
 29 28  2  0  0  0  0
 30 31  2  0  0  0  0
 30 32  1  0  0  0  0
 33 32  1  0  0  0  0
 34 33  2  0  0  0  0
 35 36  1  0  0  0  0
 37 38  1  0  0  0  0
 38 39  1  1  0  0  0
 40 43  1  6  0  0  0
 40 41  1  0  0  0  0
 40 38  1  0  0  0  0
 42 41  1  0  0  0  0
 46 45  2  1  0  0  0
 46 44  1  0  0  0  0
 46 43  1  0  0  0  0
 47 46  1  0  0  0  0
 48 49  2  0  0  0  0
 48 47  1  0  0  0  0
 50 51  2  0  0  0  0
 51 48  1  0  0  0  0
 52 61  1  6  0  0  0
 52 51  1  0  0  0  0
 53 55  1  0  0  0  0
 54 53  1  0  0  0  0
 54 56  1  0  0  0  0
 55 60  1  6  0  0  0
 55 57  1  0  0  0  0
 56 52  1  1  0  0  0
 56 57  1  0  0  0  0
 58 59  1  0  0  0  0
 60 58  1  0  0  0  0
 60 59  1  0  0  0  0
 61 62  1  0  0  0  0
 64 63  2  0  0  0  0
 64 62  1  0  0  0  0
M  END
>  <MODEL>
3

>  <REMARK>
 VINA RESULT:      -4.6      2.907      5.587
  Name = 
  24 active torsions:
  status: ('A' for Active; 'I' for Inactive)
    1  A    between atoms: C_1  and  C_61
    2  A    between atoms: C_2  and  C_6
    3  A    between atoms: C_2  and  C_8
    4  A    between atoms: C_5  and  C_63
    5  A    between atoms: C_7  and  O_33
    6  A    between atoms: C_7  and  C_47
    7  A    between atoms: C_7  and  C_56
    8  A    between atoms: C_8  and  C_34
    9  A    between atoms: O_10  and  C_16
   10  A    between atoms: C_11  and  C_50
   11  A    between atoms: C_16  and  C_58
   12  A    between atoms: O_18  and  C_26
   13  A    between atoms: O_18  and  P_51
   14  A    between atoms: C_26  and  C_56
   15  A    between atoms: C_31  and  C_52
   16  A    between atoms: N_32  and  C_61
   17  A    between atoms: O_33  and  C_36
   18  A    between atoms: C_34  and  O_35
   19  A    between atoms: C_34  and  O_54
   20  A    between atoms: C_36  and  C_44
   21  A    between atoms: C_38  and  C_45
   22  A    between atoms: C_40  and  C_53
   23  A    between atoms: P_51  and  O_54
   24  A    between atoms: C_55  and  C_63
                            x       y       z     vdW  Elec       q    Type
                         _______ _______ _______ _____ _____    ______ ____

>  <TORSDO>
F 24

$$$$
=
 OpenBabel11062418233D

 64 70  0  0  1  0  0  0  0  0999 V2000
  193.4640  171.2160  142.3500 C   0  0  2  0  0  3  0  0  0  0  0  0
  191.8490  169.7350  141.9060 C   0  0  0  0  0  0  0  0  0  0  0  0
  190.9300  168.6640  142.0810 N   0  0  0  0  0  1  0  0  0  0  0  0
  192.6530  170.1070  142.8370 N   0  0  0  0  0  0  0  0  0  0  0  0
  192.8130  171.6060  140.9950 C   0  0  2  0  0  3  0  0  0  0  0  0
  191.8930  170.5150  140.7250 N   0  0  0  0  0  2  0  0  0  0  0  0
  193.0080  174.0440  139.3400 O   0  0  0  0  0  0  0  0  0  0  0  0
  195.1280  171.2290  137.6310 C   0  0  0  0  0  2  0  0  0  0  0  0
  193.2590  172.9350  138.8970 C   0  0  0  0  0  0  0  0  0  0  0  0
  193.7880  171.8680  139.8310 C   0  0  2  0  0  3  0  0  0  0  0  0
  193.0760  172.6870  137.4150 C   0  0  2  0  0  0  0  0  0  0  0  0
  194.0700  171.7830  136.6900 C   0  0  1  0  0  3  0  0  0  0  0  0
  194.1810  173.2960  136.5740 C   0  0  0  0  0  2  0  0  0  0  0  0
  194.2880  170.3290  138.9660 S   0  0  0  0  0  0  0  0  0  0  0  0
  190.7020  173.5420  137.3660 C   0  0  0  0  0  3  0  0  0  0  0  0
  190.0350  171.8380  135.2520 C   0  0  0  0  0  3  0  0  0  0  0  0
  191.6870  172.7090  136.8160 C   0  0  0  0  0  0  0  0  0  0  0  0
  189.0640  172.6680  135.8140 C   0  0  0  0  0  3  0  0  0  0  0  0
  191.3390  171.8550  135.7520 C   0  0  0  0  0  3  0  0  0  0  0  0
  189.3920  173.5230  136.8710 C   0  0  0  0  0  0  0  0  0  0  0  0
  188.3650  174.4040  137.4500 C   0  0  0  0  0  0  0  0  0  0  0  0
  188.3000  174.5430  138.7460 C   0  0  0  0  0  0  0  0  0  0  0  0
  188.2540  174.7180  140.0440 C   0  0  0  0  0  0  0  0  0  0  0  0
  189.3030  174.0520  140.8930 C   0  0  1  0  0  3  0  0  0  0  0  0
  189.0290  174.2260  142.3770 C   0  0  0  0  0  2  0  0  0  0  0  0
  187.2980  172.6050  141.6910 C   0  0  0  0  0  1  0  0  0  0  0  0
  188.8000  172.8690  141.7420 C   0  0  1  0  0  3  0  0  0  0  0  0
  186.9510  176.7990  139.9020 C   0  0  0  0  0  3  0  0  0  0  0  0
  187.4120  175.7820  140.6240 C   0  0  0  0  0  3  0  0  0  0  0  0
  185.6940  177.6870  141.7110 N   0  0  0  0  0  0  0  0  0  0  0  0
  186.1520  177.8530  140.5180 C   0  0  0  0  0  3  0  0  0  0  0  0
  184.8730  178.7160  142.3290 C   0  0  0  0  0  2  0  0  0  0  0  0
  184.7240  178.4370  143.7860 C   0  0  0  0  0  3  0  0  0  0  0  0
  183.6780  178.6980  144.3560 O   0  0  0  0  0  0  0  0  0  0  0  0
  187.4800  175.1350  136.6500 O   0  0  0  0  0  0  0  0  0  0  0  0
  187.8920  175.8390  135.4870 C   0  0  0  0  0  1  0  0  0  0  0  0
  194.9460  170.7900  142.2770 C   0  0  0  0  0  2  0  0  0  0  0  0
  195.8580  171.6070  143.1970 C   0  0  2  0  0  3  0  0  0  0  0  0
  195.1790  171.8070  144.5410 C   0  0  0  0  0  1  0  0  0  0  0  0
  196.2140  172.9640  142.5840 C   0  0  1  0  0  3  0  0  0  0  0  0
  196.8830  172.7600  141.3720 O   0  0  0  0  0  0  0  0  0  0  0  0
  197.9410  171.9080  141.6810 C   0  0  0  0  0  1  0  0  0  0  0  0
  195.0510  173.7010  142.3370 O   0  0  0  0  0  0  0  0  0  0  0  0
  195.9630  176.1020  141.2590 O   0  0  0  0  0  0  0  0  0  0  0  0
  196.5420  175.3660  143.6970 O   0  0  0  0  0  1  0  0  0  0  0  0
  195.4340  175.3240  142.6670 P   0  0  2  0  0  0  0  0  0  0  0  0
  194.0580  176.1520  143.2840 O   0  0  0  0  0  0  0  0  0  0  0  0
  192.7740  175.5980  143.2760 C   0  0  0  0  0  0  0  0  0  0  0  0
  192.0850  175.5990  142.2210 O   0  0  0  0  0  0  0  0  0  0  0  0
  192.3500  173.8240  144.7710 O   0  0  0  0  0  0  0  0  0  0  0  0
  192.1970  175.0480  144.5130 C   0  0  0  0  0  0  0  0  0  0  0  0
  191.4330  175.8910  145.5000 C   0  0  2  0  0  3  0  0  0  0  0  0
  188.4420  174.9240  147.4900 C   0  0  0  0  0  2  0  0  0  0  0  0
  189.8280  174.6020  147.0210 C   0  0  0  0  0  2  0  0  0  0  0  0
  188.2400  176.3560  147.0440 C   0  0  1  0  0  3  0  0  0  0  0  0
  189.9850  175.4510  145.7750 C   0  0  1  0  0  3  0  0  0  0  0  0
  189.0680  176.5870  145.8620 N   0  0  0  0  0  2  0  0  0  0  0  0
  186.5940  178.1470  146.6740 C   0  0  0  0  0  2  0  0  0  0  0  0
  186.1360  177.3780  147.8920 C   0  0  0  0  0  2  0  0  0  0  0  0
  186.7840  176.6480  146.7310 C   0  0  0  0  0  3  0  0  0  0  0  0
  191.5150  177.2520  145.1840 O   0  0  0  0  0  0  0  0  0  0  0  0
  190.2640  177.5780  144.6580 C   0  0  0  0  0  2  0  0  0  0  0  0
  189.6110  178.0320  142.3490 C   0  0  0  0  0  2  0  0  0  0  0  0
  190.4380  178.2870  143.3570 C   0  0  0  0  0  3  0  0  0  0  0  0
  1 37  1  6  0  0  0
  1  4  1  0  0  0  0
  2  3  1  0  0  0  0
  2  4  2  0  0  0  0
  5  6  1  6  0  0  0
  5  1  1  0  0  0  0
  6  2  1  0  0  0  0
  8 14  1  0  0  0  0
  9  7  2  0  0  0  0
 10  9  1  6  0  0  0
 10  5  1  0  0  0  0
 11 17  1  6  0  0  0
 11  9  1  0  0  0  0
 12 13  1  6  0  0  0
 12 11  1  0  0  0  0
 12  8  1  0  0  0  0
 13 11  1  0  0  0  0
 14 10  1  0  0  0  0
 16 19  2  0  0  0  0
 16 18  1  0  0  0  0
 17 15  2  0  0  0  0
 18 20  2  0  0  0  0
 19 17  1  0  0  0  0
 20 15  1  0  0  0  0
 20 21  1  0  0  0  0
 21 22  2  0  0  0  0
 22 23  2  0  0  0  0
 23 29  1  0  0  0  0
 24 23  1  6  0  0  0
 24 27  1  0  0  0  0
 24 25  1  0  0  0  0
 27 26  1  6  0  0  0
 27 25  1  0  0  0  0
 28 31  1  0  0  0  0
 28 29  2  0  0  0  0
 30 32  1  0  0  0  0
 31 30  2  0  0  0  0
 32 33  1  0  0  0  0
 33 34  2  0  0  0  0
 35 21  1  0  0  0  0
 36 35  1  0  0  0  0
 37 38  1  0  0  0  0
 38 39  1  1  0  0  0
 40 41  1  6  0  0  0
 40 38  1  0  0  0  0
 41 42  1  0  0  0  0
 43 40  1  0  0  0  0
 43 46  1  0  0  0  0
 46 44  2  6  0  0  0
 46 47  1  0  0  0  0
 46 45  1  0  0  0  0
 48 47  1  0  0  0  0
 48 51  1  0  0  0  0
 49 48  2  0  0  0  0
 51 50  2  0  0  0  0
 52 51  1  6  0  0  0
 54 53  1  0  0  0  0
 55 60  1  6  0  0  0
 55 53  1  0  0  0  0
 56 52  1  1  0  0  0
 56 57  1  0  0  0  0
 56 54  1  0  0  0  0
 57 55  1  0  0  0  0
 58 60  1  0  0  0  0
 58 59  1  0  0  0  0
 60 59  1  0  0  0  0
 61 52  1  0  0  0  0
 62 61  1  0  0  0  0
 63 64  2  0  0  0  0
 64 62  1  0  0  0  0
M  END
>  <MODEL>
4

>  <REMARK>
 VINA RESULT:      -4.4      2.847      8.244
  Name = 
  24 active torsions:
  status: ('A' for Active; 'I' for Inactive)
    1  A    between atoms: C_1  and  C_61
    2  A    between atoms: C_2  and  C_6
    3  A    between atoms: C_2  and  C_8
    4  A    between atoms: C_5  and  C_63
    5  A    between atoms: C_7  and  O_33
    6  A    between atoms: C_7  and  C_47
    7  A    between atoms: C_7  and  C_56
    8  A    between atoms: C_8  and  C_34
    9  A    between atoms: O_10  and  C_16
   10  A    between atoms: C_11  and  C_50
   11  A    between atoms: C_16  and  C_58
   12  A    between atoms: O_18  and  C_26
   13  A    between atoms: O_18  and  P_51
   14  A    between atoms: C_26  and  C_56
   15  A    between atoms: C_31  and  C_52
   16  A    between atoms: N_32  and  C_61
   17  A    between atoms: O_33  and  C_36
   18  A    between atoms: C_34  and  O_35
   19  A    between atoms: C_34  and  O_54
   20  A    between atoms: C_36  and  C_44
   21  A    between atoms: C_38  and  C_45
   22  A    between atoms: C_40  and  C_53
   23  A    between atoms: P_51  and  O_54
   24  A    between atoms: C_55  and  C_63
                            x       y       z     vdW  Elec       q    Type
                         _______ _______ _______ _____ _____    ______ ____

>  <TORSDO>
F 24

$$$$
=
 OpenBabel11062418233D

 64 70  0  0  1  0  0  0  0  0999 V2000
  193.2260  174.8750  140.8820 C   0  0  2  0  0  3  0  0  0  0  0  0
  193.8710  175.6990  142.8580 C   0  0  0  0  0  0  0  0  0  0  0  0
  194.7050  176.2360  143.8770 N   0  0  0  0  0  1  0  0  0  0  0  0
  194.3170  175.4080  141.6900 N   0  0  0  0  0  0  0  0  0  0  0  0
  191.9540  175.1320  141.7360 C   0  0  2  0  0  3  0  0  0  0  0  0
  192.4780  175.5170  143.0340 N   0  0  0  0  0  2  0  0  0  0  0  0
  189.3820  174.8760  140.3050 O   0  0  0  0  0  0  0  0  0  0  0  0
  189.5300  172.1020  143.0670 C   0  0  0  0  0  2  0  0  0  0  0  0
  189.5600  174.4000  141.4150 C   0  0  0  0  0  0  0  0  0  0  0  0
  190.9530  173.9640  141.8180 C   0  0  2  0  0  3  0  0  0  0  0  0
  188.3660  174.2190  142.3270 C   0  0  2  0  0  0  0  0  0  0  0  0
  188.3030  172.9860  143.2260 C   0  0  1  0  0  3  0  0  0  0  0  0
  187.4970  173.0390  141.9350 C   0  0  0  0  0  2  0  0  0  0  0  0
  191.0020  173.1000  143.4360 S   0  0  0  0  0  0  0  0  0  0  0  0
  187.9040  175.8780  144.1720 C   0  0  0  0  0  3  0  0  0  0  0  0
  185.9530  177.1730  142.6450 C   0  0  0  0  0  3  0  0  0  0  0  0
  187.6440  175.4330  142.8670 C   0  0  0  0  0  0  0  0  0  0  0  0
  186.2180  177.6000  143.9470 C   0  0  0  0  0  3  0  0  0  0  0  0
  186.6590  176.0940  142.1080 C   0  0  0  0  0  3  0  0  0  0  0  0
  187.1940  176.9560  144.7150 C   0  0  0  0  0  0  0  0  0  0  0  0
  187.4760  177.4200  146.0830 C   0  0  0  0  0  0  0  0  0  0  0  0
  188.6750  177.2640  146.5750 C   0  0  0  0  0  0  0  0  0  0  0  0
  189.8850  177.1470  147.0620 C   0  0  0  0  0  0  0  0  0  0  0  0
  190.9640  176.5930  146.1710 C   0  0  1  0  0  3  0  0  0  0  0  0
  191.9560  175.7370  146.9410 C   0  0  0  0  0  2  0  0  0  0  0  0
  189.9430  174.3090  146.8720 C   0  0  0  0  0  1  0  0  0  0  0  0
  190.9620  175.0600  146.0190 C   0  0  1  0  0  3  0  0  0  0  0  0
  191.2460  177.4050  149.0950 C   0  0  0  0  0  3  0  0  0  0  0  0
  190.2540  177.8290  148.3180 C   0  0  0  0  0  3  0  0  0  0  0  0
  191.6230  177.4000  151.4400 N   0  0  0  0  0  0  0  0  0  0  0  0
  191.5580  178.0830  150.3480 C   0  0  0  0  0  3  0  0  0  0  0  0
  191.9070  178.0650  152.7020 C   0  0  0  0  0  2  0  0  0  0  0  0
  191.6680  177.1230  153.8330 C   0  0  0  0  0  3  0  0  0  0  0  0
  190.7140  176.3650  153.8070 O   0  0  0  0  0  0  0  0  0  0  0  0
  186.5080  178.0640  146.8610 O   0  0  0  0  0  0  0  0  0  0  0  0
  185.1150  177.8170  146.7190 C   0  0  0  0  0  1  0  0  0  0  0  0
  193.5040  173.3990  140.5320 C   0  0  0  0  0  2  0  0  0  0  0  0
  193.4530  173.1110  139.0280 C   0  0  2  0  0  3  0  0  0  0  0  0
  192.5220  174.1030  138.3520 C   0  0  0  0  0  1  0  0  0  0  0  0
  192.9920  171.6800  138.7390 C   0  0  1  0  0  3  0  0  0  0  0  0
  192.6120  171.5820  137.3960 O   0  0  0  0  0  0  0  0  0  0  0  0
  193.5660  170.7540  136.8090 C   0  0  0  0  0  1  0  0  0  0  0  0
  194.0360  170.7800  138.9780 O   0  0  0  0  0  0  0  0  0  0  0  0
  193.4050  168.1660  139.7040 O   0  0  0  0  0  0  0  0  0  0  0  0
  192.1500  170.2260  140.7040 O   0  0  0  0  0  1  0  0  0  0  0  0
  193.5150  169.7690  140.2410 P   0  0  2  0  0  0  0  0  0  0  0  0
  194.6140  169.8440  141.5620 O   0  0  0  0  0  0  0  0  0  0  0  0
  194.3070  170.4820  142.7680 C   0  0  0  0  0  0  0  0  0  0  0  0
  193.2260  170.2320  143.3650 O   0  0  0  0  0  0  0  0  0  0  0  0
  194.7670  172.6090  143.6760 O   0  0  0  0  0  0  0  0  0  0  0  0
  195.2230  171.4870  143.3290 C   0  0  0  0  0  0  0  0  0  0  0  0
  196.6950  171.2300  143.5200 C   0  0  2  0  0  3  0  0  0  0  0  0
  197.9410  171.0900  140.0170 C   0  0  0  0  0  2  0  0  0  0  0  0
  197.7330  170.4020  141.3320 C   0  0  0  0  0  2  0  0  0  0  0  0
  197.1680  172.3820  140.1670 C   0  0  1  0  0  3  0  0  0  0  0  0
  197.5920  171.5500  142.3130 C   0  0  1  0  0  3  0  0  0  0  0  0
  197.1400  172.7360  141.5840 N   0  0  0  0  0  2  0  0  0  0  0  0
  197.0320  174.7840  139.6450 C   0  0  0  0  0  2  0  0  0  0  0  0
  196.7890  174.0410  138.3510 C   0  0  0  0  0  2  0  0  0  0  0  0
  197.7900  173.5060  139.3580 C   0  0  0  0  0  3  0  0  0  0  0  0
  196.9310  169.9440  144.0200 O   0  0  0  0  0  0  0  0  0  0  0  0
  197.0940  170.1120  145.3950 C   0  0  0  0  0  2  0  0  0  0  0  0
  194.9530  169.6100  146.4590 C   0  0  0  0  0  2  0  0  0  0  0  0
  196.1700  169.1950  146.1230 C   0  0  0  0  0  3  0  0  0  0  0  0
  1 37  1  1  0  0  0
  1  4  1  0  0  0  0
  1  5  1  0  0  0  0
  2  6  1  0  0  0  0
  2  3  1  0  0  0  0
  4  2  2  0  0  0  0
  5 10  1  0  0  0  0
  5  6  1  1  0  0  0
  7  9  2  0  0  0  0
  8 12  1  0  0  0  0
  8 14  1  0  0  0  0
  9 11  1  0  0  0  0
 10  9  1  1  0  0  0
 10 14  1  0  0  0  0
 11 17  1  1  0  0  0
 11 12  1  0  0  0  0
 12 13  1  6  0  0  0
 13 11  1  0  0  0  0
 15 20  1  0  0  0  0
 16 18  1  0  0  0  0
 17 15  2  0  0  0  0
 18 20  2  0  0  0  0
 19 16  2  0  0  0  0
 19 17  1  0  0  0  0
 20 21  1  0  0  0  0
 21 22  2  0  0  0  0
 21 35  1  0  0  0  0
 22 23  2  0  0  0  0
 23 29  1  0  0  0  0
 24 25  1  0  0  0  0
 24 23  1  1  0  0  0
 27 24  1  0  0  0  0
 27 26  1  1  0  0  0
 27 25  1  0  0  0  0
 28 31  1  0  0  0  0
 29 28  2  0  0  0  0
 30 32  1  0  0  0  0
 31 30  2  0  0  0  0
 32 33  1  0  0  0  0
 34 33  2  0  0  0  0
 36 35  1  0  0  0  0
 38 39  1  6  0  0  0
 38 37  1  0  0  0  0
 40 41  1  6  0  0  0
 40 43  1  0  0  0  0
 40 38  1  0  0  0  0
 42 41  1  0  0  0  0
 43 46  1  0  0  0  0
 46 44  2  6  0  0  0
 46 45  1  0  0  0  0
 46 47  1  0  0  0  0
 47 48  1  0  0  0  0
 48 51  1  0  0  0  0
 48 49  2  0  0  0  0
 51 50  2  0  0  0  0
 52 51  1  6  0  0  0
 52 61  1  0  0  0  0
 53 55  1  0  0  0  0
 53 54  1  0  0  0  0
 54 56  1  0  0  0  0
 55 60  1  6  0  0  0
 55 57  1  0  0  0  0
 56 52  1  1  0  0  0
 57 56  1  0  0  0  0
 59 60  1  0  0  0  0
 59 58  1  0  0  0  0
 60 58  1  0  0  0  0
 61 62  1  0  0  0  0
 62 64  1  0  0  0  0
 64 63  2  0  0  0  0
M  END
>  <MODEL>
5

>  <REMARK>
 VINA RESULT:      -4.3      3.352      7.227
  Name = 
  24 active torsions:
  status: ('A' for Active; 'I' for Inactive)
    1  A    between atoms: C_1  and  C_61
    2  A    between atoms: C_2  and  C_6
    3  A    between atoms: C_2  and  C_8
    4  A    between atoms: C_5  and  C_63
    5  A    between atoms: C_7  and  O_33
    6  A    between atoms: C_7  and  C_47
    7  A    between atoms: C_7  and  C_56
    8  A    between atoms: C_8  and  C_34
    9  A    between atoms: O_10  and  C_16
   10  A    between atoms: C_11  and  C_50
   11  A    between atoms: C_16  and  C_58
   12  A    between atoms: O_18  and  C_26
   13  A    between atoms: O_18  and  P_51
   14  A    between atoms: C_26  and  C_56
   15  A    between atoms: C_31  and  C_52
   16  A    between atoms: N_32  and  C_61
   17  A    between atoms: O_33  and  C_36
   18  A    between atoms: C_34  and  O_35
   19  A    between atoms: C_34  and  O_54
   20  A    between atoms: C_36  and  C_44
   21  A    between atoms: C_38  and  C_45
   22  A    between atoms: C_40  and  C_53
   23  A    between atoms: P_51  and  O_54
   24  A    between atoms: C_55  and  C_63
                            x       y       z     vdW  Elec       q    Type
                         _______ _______ _______ _____ _____    ______ ____

>  <TORSDO>
F 24

$$$$
=
 OpenBabel11062418233D

 64 70  0  0  1  0  0  0  0  0999 V2000
  193.2650  171.4010  143.2990 C   0  0  2  0  0  3  0  0  0  0  0  0
  192.2710  169.5970  142.4290 C   0  0  0  0  0  0  0  0  0  0  0  0
  191.6930  168.3010  142.3360 N   0  0  0  0  0  1  0  0  0  0  0  0
  192.7410  170.0600  143.5310 N   0  0  0  0  0  0  0  0  0  0  0  0
  192.7900  171.7580  141.8630 C   0  0  2  0  0  3  0  0  0  0  0  0
  192.3010  170.4960  141.3360 N   0  0  0  0  0  2  0  0  0  0  0  0
  192.5620  174.3390  140.4470 O   0  0  0  0  0  0  0  0  0  0  0  0
  195.6950  172.4480  139.0510 C   0  0  0  0  0  2  0  0  0  0  0  0
  193.2050  173.4050  139.9970 C   0  0  0  0  0  0  0  0  0  0  0  0
  193.8430  172.4180  140.9520 C   0  0  2  0  0  3  0  0  0  0  0  0
  193.3810  173.3000  138.4980 C   0  0  2  0  0  0  0  0  0  0  0  0
  194.7130  172.8000  137.9440 C   0  0  1  0  0  3  0  0  0  0  0  0
  194.3930  174.2880  137.9510 C   0  0  0  0  0  2  0  0  0  0  0  0
  194.9240  171.1940  140.1160 S   0  0  0  0  0  0  0  0  0  0  0  0
  191.0290  173.8010  137.7310 C   0  0  0  0  0  3  0  0  0  0  0  0
  191.0380  171.6250  135.9770 C   0  0  0  0  0  3  0  0  0  0  0  0
  192.1830  173.0120  137.6200 C   0  0  0  0  0  0  0  0  0  0  0  0
  189.8950  172.4150  136.1030 C   0  0  0  0  0  3  0  0  0  0  0  0
  192.1760  171.9190  136.7330 C   0  0  0  0  0  3  0  0  0  0  0  0
  189.8860  173.5060  136.9790 C   0  0  0  0  0  0  0  0  0  0  0  0
  188.6800  174.3420  137.0980 C   0  0  0  0  0  0  0  0  0  0  0  0
  188.2550  174.6830  138.2840 C   0  0  0  0  0  0  0  0  0  0  0  0
  187.8440  175.0630  139.4690 C   0  0  0  0  0  0  0  0  0  0  0  0
  188.6670  174.6760  140.6690 C   0  0  1  0  0  3  0  0  0  0  0  0
  187.8340  173.9720  141.7270 C   0  0  0  0  0  2  0  0  0  0  0  0
  188.0150  172.2650  139.9530 C   0  0  0  0  0  1  0  0  0  0  0  0
  188.8090  173.1590  140.8990 C   0  0  1  0  0  3  0  0  0  0  0  0
  186.9720  177.1890  140.3450 C   0  0  0  0  0  3  0  0  0  0  0  0
  186.8030  176.1000  139.6010 C   0  0  0  0  0  3  0  0  0  0  0  0
  184.7250  177.7900  140.8250 N   0  0  0  0  0  0  0  0  0  0  0  0
  185.9070  178.1760  140.4820 C   0  0  0  0  0  3  0  0  0  0  0  0
  183.6450  178.7580  140.9390 C   0  0  0  0  0  2  0  0  0  0  0  0
  182.3460  178.1050  140.6080 C   0  0  0  0  0  3  0  0  0  0  0  0
  181.5150  177.9190  141.4810 O   0  0  0  0  0  0  0  0  0  0  0  0
  187.9960  174.8200  135.9750 O   0  0  0  0  0  0  0  0  0  0  0  0
  187.4860  176.1430  135.8880 C   0  0  0  0  0  1  0  0  0  0  0  0
  194.7920  171.4130  143.5150 C   0  0  0  0  0  2  0  0  0  0  0  0
  195.2150  172.1000  144.8180 C   0  0  2  0  0  3  0  0  0  0  0  0
  194.2700  171.6970  145.9360 C   0  0  0  0  0  1  0  0  0  0  0  0
  195.2360  173.6240  144.6740 C   0  0  1  0  0  3  0  0  0  0  0  0
  196.3750  174.0020  143.9550 O   0  0  0  0  0  0  0  0  0  0  0  0
  197.0610  172.8150  143.7120 C   0  0  0  0  0  1  0  0  0  0  0  0
  194.1010  174.0590  143.9810 O   0  0  0  0  0  0  0  0  0  0  0  0
  194.6380  176.5770  142.9200 O   0  0  0  0  0  0  0  0  0  0  0  0
  194.7860  176.0890  145.4810 O   0  0  0  0  0  1  0  0  0  0  0  0
  193.9950  175.7350  144.2410 P   0  0  2  0  0  0  0  0  0  0  0  0
  192.3560  176.2050  144.4640 O   0  0  0  0  0  0  0  0  0  0  0  0
  191.2800  175.3520  144.2010 C   0  0  0  0  0  0  0  0  0  0  0  0
  191.0790  174.9190  143.0350 O   0  0  0  0  0  0  0  0  0  0  0  0
  190.1880  173.7670  145.5650 O   0  0  0  0  0  0  0  0  0  0  0  0
  190.3460  174.9840  145.2760 C   0  0  0  0  0  0  0  0  0  0  0  0
  189.5690  176.0050  146.0650 C   0  0  2  0  0  3  0  0  0  0  0  0
  186.0780  177.2850  146.2020 C   0  0  0  0  0  2  0  0  0  0  0  0
  187.1370  176.3850  146.7640 C   0  0  0  0  0  2  0  0  0  0  0  0
  186.8340  178.1480  145.2160 C   0  0  1  0  0  3  0  0  0  0  0  0
  188.1160  176.2320  145.6160 C   0  0  1  0  0  3  0  0  0  0  0  0
  187.9830  177.3880  144.7290 N   0  0  0  0  0  2  0  0  0  0  0  0
  185.5410  180.0140  144.2640 C   0  0  0  0  0  2  0  0  0  0  0  0
  184.5590  178.9000  144.5460 C   0  0  0  0  0  2  0  0  0  0  0  0
  185.9560  178.5750  144.0530 C   0  0  0  0  0  3  0  0  0  0  0  0
  190.2740  177.2100  146.1800 O   0  0  0  0  0  0  0  0  0  0  0  0
  190.1830  177.5570  147.5290 C   0  0  0  0  0  2  0  0  0  0  0  0
  192.4790  176.7860  147.8390 C   0  0  0  0  0  2  0  0  0  0  0  0
  191.2350  176.8350  148.3020 C   0  0  0  0  0  3  0  0  0  0  0  0
  1 37  1  6  0  0  0
  1  4  1  0  0  0  0
  2  4  2  0  0  0  0
  3  2  1  0  0  0  0
  5  6  1  6  0  0  0
  5  1  1  0  0  0  0
  6  2  1  0  0  0  0
  8 14  1  0  0  0  0
  9  7  2  0  0  0  0
 10  9  1  6  0  0  0
 10  5  1  0  0  0  0
 11 17  1  6  0  0  0
 11  9  1  0  0  0  0
 12 13  1  6  0  0  0
 12 11  1  0  0  0  0
 12  8  1  0  0  0  0
 13 11  1  0  0  0  0
 14 10  1  0  0  0  0
 16 18  2  0  0  0  0
 16 19  1  0  0  0  0
 17 15  1  0  0  0  0
 18 20  1  0  0  0  0
 19 17  2  0  0  0  0
 20 21  1  0  0  0  0
 20 15  2  0  0  0  0
 21 22  2  0  0  0  0
 22 23  2  0  0  0  0
 23 29  1  0  0  0  0
 24 23  1  6  0  0  0
 24 27  1  0  0  0  0
 24 25  1  0  0  0  0
 27 26  1  6  0  0  0
 27 25  1  0  0  0  0
 28 31  1  0  0  0  0
 29 28  2  0  0  0  0
 30 32  1  0  0  0  0
 31 30  2  0  0  0  0
 33 32  1  0  0  0  0
 33 34  2  0  0  0  0
 35 21  1  0  0  0  0
 36 35  1  0  0  0  0
 37 38  1  0  0  0  0
 38 39  1  1  0  0  0
 40 41  1  6  0  0  0
 40 38  1  0  0  0  0
 42 41  1  0  0  0  0
 43 46  1  0  0  0  0
 43 40  1  0  0  0  0
 46 44  2  6  0  0  0
 46 47  1  0  0  0  0
 46 45  1  0  0  0  0
 48 47  1  0  0  0  0
 48 51  1  0  0  0  0
 49 48  2  0  0  0  0
 51 50  2  0  0  0  0
 52 51  1  6  0  0  0
 52 61  1  0  0  0  0
 53 54  1  0  0  0  0
 55 60  1  6  0  0  0
 55 53  1  0  0  0  0
 56 52  1  1  0  0  0
 56 54  1  0  0  0  0
 57 55  1  0  0  0  0
 57 56  1  0  0  0  0
 58 59  1  0  0  0  0
 60 58  1  0  0  0  0
 60 59  1  0  0  0  0
 61 62  1  0  0  0  0
 62 64  1  0  0  0  0
 63 64  2  0  0  0  0
M  END
>  <MODEL>
6

>  <REMARK>
 VINA RESULT:      -4.2      2.953      8.638
  Name = 
  24 active torsions:
  status: ('A' for Active; 'I' for Inactive)
    1  A    between atoms: C_1  and  C_61
    2  A    between atoms: C_2  and  C_6
    3  A    between atoms: C_2  and  C_8
    4  A    between atoms: C_5  and  C_63
    5  A    between atoms: C_7  and  O_33
    6  A    between atoms: C_7  and  C_47
    7  A    between atoms: C_7  and  C_56
    8  A    between atoms: C_8  and  C_34
    9  A    between atoms: O_10  and  C_16
   10  A    between atoms: C_11  and  C_50
   11  A    between atoms: C_16  and  C_58
   12  A    between atoms: O_18  and  C_26
   13  A    between atoms: O_18  and  P_51
   14  A    between atoms: C_26  and  C_56
   15  A    between atoms: C_31  and  C_52
   16  A    between atoms: N_32  and  C_61
   17  A    between atoms: O_33  and  C_36
   18  A    between atoms: C_34  and  O_35
   19  A    between atoms: C_34  and  O_54
   20  A    between atoms: C_36  and  C_44
   21  A    between atoms: C_38  and  C_45
   22  A    between atoms: C_40  and  C_53
   23  A    between atoms: P_51  and  O_54
   24  A    between atoms: C_55  and  C_63
                            x       y       z     vdW  Elec       q    Type
                         _______ _______ _______ _____ _____    ______ ____

>  <TORSDO>
F 24

$$$$
=
 OpenBabel11062418233D

 64 70  0  0  1  0  0  0  0  0999 V2000
  193.6060  175.5160  143.5760 C   0  0  2  0  0  3  0  0  0  0  0  0
  192.3560  177.3570  143.3680 C   0  0  0  0  0  0  0  0  0  0  0  0
  191.8750  178.6800  143.5740 N   0  0  0  0  0  1  0  0  0  0  0  0
  193.3690  176.8900  144.0030 N   0  0  0  0  0  0  0  0  0  0  0  0
  192.6630  175.3220  142.3570 C   0  0  2  0  0  3  0  0  0  0  0  0
  191.8010  176.4900  142.3960 N   0  0  0  0  0  2  0  0  0  0  0  0
  189.7800  174.9710  141.8200 O   0  0  0  0  0  0  0  0  0  0  0  0
  191.1960  171.5830  143.1870 C   0  0  0  0  0  2  0  0  0  0  0  0
  190.4000  174.2270  142.5640 C   0  0  0  0  0  0  0  0  0  0  0  0
  191.8760  173.9990  142.3200 C   0  0  2  0  0  3  0  0  0  0  0  0
  189.6500  173.5220  143.6740 C   0  0  2  0  0  0  0  0  0  0  0  0
  190.0390  172.0900  144.0340 C   0  0  1  0  0  3  0  0  0  0  0  0
  188.8110  172.3620  143.1760 C   0  0  0  0  0  2  0  0  0  0  0  0
  192.6010  172.7120  143.4090 S   0  0  0  0  0  0  0  0  0  0  0  0
  188.0820  175.2870  144.5650 C   0  0  0  0  0  3  0  0  0  0  0  0
  189.0580  174.9750  147.1650 C   0  0  0  0  0  3  0  0  0  0  0  0
  189.0720  174.3260  144.8170 C   0  0  0  0  0  0  0  0  0  0  0  0
  188.0780  175.9310  146.8980 C   0  0  0  0  0  3  0  0  0  0  0  0
  189.5550  174.1780  146.1310 C   0  0  0  0  0  3  0  0  0  0  0  0
  187.5850  176.0910  145.5980 C   0  0  0  0  0  0  0  0  0  0  0  0
  186.5430  177.0940  145.3260 C   0  0  0  0  0  0  0  0  0  0  0  0
  186.2320  177.3720  144.0890 C   0  0  0  0  0  0  0  0  0  0  0  0
  185.8870  177.6280  142.8520 C   0  0  0  0  0  0  0  0  0  0  0  0
  186.5350  176.8340  141.7500 C   0  0  1  0  0  3  0  0  0  0  0  0
  186.7430  177.6650  140.4950 C   0  0  0  0  0  2  0  0  0  0  0  0
  188.4450  178.5710  142.0370 C   0  0  0  0  0  1  0  0  0  0  0  0
  187.9440  177.3060  141.3470 C   0  0  1  0  0  3  0  0  0  0  0  0
  183.6330  177.9320  141.9150 C   0  0  0  0  0  3  0  0  0  0  0  0
  184.6820  178.4290  142.5640 C   0  0  0  0  0  3  0  0  0  0  0  0
  181.2880  178.2870  141.7910 N   0  0  0  0  0  0  0  0  0  0  0  0
  182.4740  178.7630  141.6150 C   0  0  0  0  0  3  0  0  0  0  0  0
  180.1210  179.0940  141.4720 C   0  0  0  0  0  2  0  0  0  0  0  0
  179.4030  178.5030  140.3060 C   0  0  0  0  0  3  0  0  0  0  0  0
  178.2650  178.0860  140.4360 O   0  0  0  0  0  0  0  0  0  0  0  0
  185.8410  177.7310  146.3560 O   0  0  0  0  0  0  0  0  0  0  0  0
  185.7400  179.1440  146.4620 C   0  0  0  0  0  1  0  0  0  0  0  0
  193.3710  174.5510  144.7580 C   0  0  0  0  0  2  0  0  0  0  0  0
  194.5490  174.4880  145.7340 C   0  0  2  0  0  3  0  0  0  0  0  0
  194.8520  175.8820  146.2570 C   0  0  0  0  0  1  0  0  0  0  0  0
  195.7980  173.8930  145.0780 C   0  0  1  0  0  3  0  0  0  0  0  0
  196.4470  173.0600  145.9970 O   0  0  0  0  0  0  0  0  0  0  0  0
  197.5800  173.7670  146.3900 C   0  0  0  0  0  1  0  0  0  0  0  0
  195.4400  173.1350  143.9590 O   0  0  0  0  0  0  0  0  0  0  0  0
  197.7220  172.3170  142.5870 O   0  0  0  0  0  0  0  0  0  0  0  0
  197.2360  174.8310  143.1010 O   0  0  0  0  0  1  0  0  0  0  0  0
  196.5520  173.5320  142.7360 P   0  0  2  0  0  0  0  0  0  0  0  0
  195.7440  173.7230  141.2290 O   0  0  0  0  0  0  0  0  0  0  0  0
  196.2270  173.1760  140.0370 C   0  0  0  0  0  0  0  0  0  0  0  0
  197.4210  173.3710  139.6830 O   0  0  0  0  0  0  0  0  0  0  0  0
  195.5950  172.3290  137.9290 O   0  0  0  0  0  0  0  0  0  0  0  0
  195.3330  172.4050  139.1590 C   0  0  0  0  0  0  0  0  0  0  0  0
  194.1130  171.6840  139.6700 C   0  0  2  0  0  3  0  0  0  0  0  0
  196.0450  168.7190  140.8200 C   0  0  0  0  0  2  0  0  0  0  0  0
  195.4830  169.5220  139.6860 C   0  0  0  0  0  2  0  0  0  0  0  0
  195.8240  169.6060  142.0260 C   0  0  1  0  0  3  0  0  0  0  0  0
  194.3720  170.3220  140.3370 C   0  0  1  0  0  3  0  0  0  0  0  0
  194.6610  170.4500  141.7660 N   0  0  0  0  0  2  0  0  0  0  0  0
  195.2630  169.7390  144.4180 C   0  0  0  0  0  2  0  0  0  0  0  0
  196.6550  169.1580  144.3280 C   0  0  0  0  0  2  0  0  0  0  0  0
  195.6110  168.7930  143.2900 C   0  0  0  0  0  3  0  0  0  0  0  0
  193.1160  171.6050  138.6910 O   0  0  0  0  0  0  0  0  0  0  0  0
  192.0510  172.3520  139.1970 C   0  0  0  0  0  2  0  0  0  0  0  0
  189.6870  171.9770  139.6840 C   0  0  0  0  0  2  0  0  0  0  0  0
  190.7850  171.5750  139.0530 C   0  0  0  0  0  3  0  0  0  0  0  0
  1  4  1  0  0  0  0
  1 37  1  1  0  0  0
  2  3  1  0  0  0  0
  2  4  2  0  0  0  0
  5  6  1  1  0  0  0
  5  1  1  0  0  0  0
  6  2  1  0  0  0  0
  7  9  2  0  0  0  0
  8 14  1  0  0  0  0
  8 12  1  0  0  0  0
  9 11  1  0  0  0  0
 10  5  1  0  0  0  0
 10  9  1  1  0  0  0
 10 14  1  0  0  0  0
 11 12  1  0  0  0  0
 11 17  1  1  0  0  0
 12 13  1  6  0  0  0
 13 11  1  0  0  0  0
 15 17  2  0  0  0  0
 15 20  1  0  0  0  0
 17 19  1  0  0  0  0
 18 16  1  0  0  0  0
 19 16  2  0  0  0  0
 20 18  2  0  0  0  0
 21 20  1  0  0  0  0
 21 35  1  0  0  0  0
 22 21  2  0  0  0  0
 23 22  2  0  0  0  0
 24 23  1  1  0  0  0
 25 27  1  0  0  0  0
 25 24  1  0  0  0  0
 27 24  1  0  0  0  0
 27 26  1  1  0  0  0
 28 29  2  0  0  0  0
 29 23  1  0  0  0  0
 31 30  2  0  0  0  0
 31 28  1  0  0  0  0
 32 30  1  0  0  0  0
 33 34  2  0  0  0  0
 33 32  1  0  0  0  0
 35 36  1  0  0  0  0
 37 38  1  0  0  0  0
 38 39  1  6  0  0  0
 40 43  1  6  0  0  0
 40 38  1  0  0  0  0
 40 41  1  0  0  0  0
 41 42  1  0  0  0  0
 46 44  2  6  0  0  0
 46 45  1  0  0  0  0
 46 43  1  0  0  0  0
 47 46  1  0  0  0  0
 48 47  1  0  0  0  0
 49 48  2  0  0  0  0
 50 51  2  0  0  0  0
 51 52  1  0  0  0  0
 51 48  1  0  0  0  0
 52 61  1  6  0  0  0
 53 55  1  0  0  0  0
 54 56  1  0  0  0  0
 54 53  1  0  0  0  0
 55 60  1  1  0  0  0
 56 52  1  6  0  0  0
 56 57  1  0  0  0  0
 57 55  1  0  0  0  0
 59 58  1  0  0  0  0
 60 59  1  0  0  0  0
 60 58  1  0  0  0  0
 61 62  1  0  0  0  0
 64 62  1  0  0  0  0
 64 63  2  0  0  0  0
M  END
>  <MODEL>
7

>  <REMARK>
 VINA RESULT:      -4.1      2.695      4.324
  Name = 
  24 active torsions:
  status: ('A' for Active; 'I' for Inactive)
    1  A    between atoms: C_1  and  C_61
    2  A    between atoms: C_2  and  C_6
    3  A    between atoms: C_2  and  C_8
    4  A    between atoms: C_5  and  C_63
    5  A    between atoms: C_7  and  O_33
    6  A    between atoms: C_7  and  C_47
    7  A    between atoms: C_7  and  C_56
    8  A    between atoms: C_8  and  C_34
    9  A    between atoms: O_10  and  C_16
   10  A    between atoms: C_11  and  C_50
   11  A    between atoms: C_16  and  C_58
   12  A    between atoms: O_18  and  C_26
   13  A    between atoms: O_18  and  P_51
   14  A    between atoms: C_26  and  C_56
   15  A    between atoms: C_31  and  C_52
   16  A    between atoms: N_32  and  C_61
   17  A    between atoms: O_33  and  C_36
   18  A    between atoms: C_34  and  O_35
   19  A    between atoms: C_34  and  O_54
   20  A    between atoms: C_36  and  C_44
   21  A    between atoms: C_38  and  C_45
   22  A    between atoms: C_40  and  C_53
   23  A    between atoms: P_51  and  O_54
   24  A    between atoms: C_55  and  C_63
                            x       y       z     vdW  Elec       q    Type
                         _______ _______ _______ _____ _____    ______ ____

>  <TORSDO>
F 24

$$$$
=
 OpenBabel11062418233D

 64 70  0  0  1  0  0  0  0  0999 V2000
  195.5450  173.6740  145.1480 C   0  0  2  0  0  3  0  0  0  0  0  0
  194.6280  175.6210  145.7540 C   0  0  0  0  0  0  0  0  0  0  0  0
  193.7330  176.5510  146.3510 N   0  0  0  0  0  1  0  0  0  0  0  0
  194.4760  174.3510  145.8740 N   0  0  0  0  0  0  0  0  0  0  0  0
  196.5290  174.8110  144.7600 C   0  0  2  0  0  3  0  0  0  0  0  0
  195.7890  176.0260  145.0510 N   0  0  0  0  0  2  0  0  0  0  0  0
  195.8290  176.6280  142.5390 O   0  0  0  0  0  0  0  0  0  0  0  0
  197.7960  173.5810  141.0580 C   0  0  0  0  0  2  0  0  0  0  0  0
  196.1200  175.4570  142.3550 C   0  0  0  0  0  0  0  0  0  0  0  0
  197.0670  174.7700  143.3170 C   0  0  2  0  0  3  0  0  0  0  0  0
  195.5580  174.7520  141.1400 C   0  0  2  0  0  0  0  0  0  0  0  0
  196.4330  173.7410  140.4020 C   0  0  1  0  0  3  0  0  0  0  0  0
  196.2540  175.1500  139.8520 C   0  0  0  0  0  2  0  0  0  0  0  0
  197.5410  173.0790  142.7840 S   0  0  0  0  0  0  0  0  0  0  0  0
  193.2900  174.4660  142.2100 C   0  0  0  0  0  3  0  0  0  0  0  0
  192.0980  173.8930  139.7470 C   0  0  0  0  0  3  0  0  0  0  0  0
  194.0720  174.4890  141.0450 C   0  0  0  0  0  0  0  0  0  0  0  0
  191.3350  173.8670  140.9150 C   0  0  0  0  0  3  0  0  0  0  0  0
  193.4600  174.1990  139.8110 C   0  0  0  0  0  3  0  0  0  0  0  0
  191.9270  174.1530  142.1500 C   0  0  0  0  0  0  0  0  0  0  0  0
  191.1130  174.1350  143.3760 C   0  0  0  0  0  0  0  0  0  0  0  0
  190.9490  175.2410  144.0500 C   0  0  0  0  0  0  0  0  0  0  0  0
  190.7470  176.3540  144.7100 C   0  0  0  0  0  0  0  0  0  0  0  0
  191.3120  177.6310  144.1480 C   0  0  1  0  0  3  0  0  0  0  0  0
  191.8550  177.4440  142.7420 C   0  0  0  0  0  2  0  0  0  0  0  0
  189.4130  177.3410  142.3990 C   0  0  0  0  0  1  0  0  0  0  0  0
  190.5560  178.1990  142.9320 C   0  0  1  0  0  3  0  0  0  0  0  0
  188.7170  177.2660  145.7570 C   0  0  0  0  0  3  0  0  0  0  0  0
  189.7370  176.4130  145.7830 C   0  0  0  0  0  3  0  0  0  0  0  0
  186.5350  176.9670  146.6460 N   0  0  0  0  0  0  0  0  0  0  0  0
  187.7570  177.3210  146.8530 C   0  0  0  0  0  3  0  0  0  0  0  0
  185.5590  177.0420  147.7220 C   0  0  0  0  0  2  0  0  0  0  0  0
  184.7930  178.3180  147.6210 C   0  0  0  0  0  3  0  0  0  0  0  0
  184.8840  179.0080  146.6200 O   0  0  0  0  0  0  0  0  0  0  0  0
  190.4700  172.9750  143.8210 O   0  0  0  0  0  0  0  0  0  0  0  0
  189.0940  172.7140  143.5790 C   0  0  0  0  0  1  0  0  0  0  0  0
  194.9540  172.8750  143.9680 C   0  0  0  0  0  2  0  0  0  0  0  0
  194.1160  171.6700  144.4090 C   0  0  2  0  0  3  0  0  0  0  0  0
  194.6050  171.1780  145.7610 C   0  0  0  0  0  1  0  0  0  0  0  0
  194.1750  170.5330  143.3860 C   0  0  1  0  0  3  0  0  0  0  0  0
  194.3100  169.3140  144.0610 O   0  0  0  0  0  0  0  0  0  0  0  0
  195.6000  168.8780  143.7680 C   0  0  0  0  0  1  0  0  0  0  0  0
  192.9980  170.5010  142.6320 O   0  0  0  0  0  0  0  0  0  0  0  0
  193.5860  168.2770  141.0610 O   0  0  0  0  0  1  0  0  0  0  0  0
  194.7700  170.5780  140.7100 O   0  0  0  0  0  0  0  0  0  0  0  0
  193.4380  169.9650  141.0800 P   0  0  2  0  0  0  0  0  0  0  0  0
  192.2560  170.4380  139.9240 O   0  0  0  0  0  0  0  0  0  0  0  0
  191.8200  169.5950  138.8970 C   0  0  0  0  0  0  0  0  0  0  0  0
  190.9950  168.6740  139.1350 O   0  0  0  0  0  0  0  0  0  0  0  0
  192.6270  168.7170  136.8630 O   0  0  0  0  0  0  0  0  0  0  0  0
  192.3560  169.7470  137.5360 C   0  0  0  0  0  0  0  0  0  0  0  0
  192.5870  171.0920  136.8970 C   0  0  2  0  0  3  0  0  0  0  0  0
  189.2900  171.7910  135.3200 C   0  0  0  0  0  2  0  0  0  0  0  0
  190.2440  170.7970  135.9090 C   0  0  0  0  0  2  0  0  0  0  0  0
  189.9250  173.1260  135.6450 C   0  0  1  0  0  3  0  0  0  0  0  0
  191.5890  171.4890  135.7960 C   0  0  1  0  0  3  0  0  0  0  0  0
  191.3700  172.9340  135.7410 N   0  0  0  0  0  2  0  0  0  0  0  0
  190.7570  175.1470  134.5130 C   0  0  0  0  0  2  0  0  0  0  0  0
  189.4900  175.5420  135.2350 C   0  0  0  0  0  2  0  0  0  0  0  0
  189.6030  174.1720  134.5930 C   0  0  0  0  0  3  0  0  0  0  0  0
  193.9140  171.2390  136.4760 O   0  0  0  0  0  0  0  0  0  0  0  0
  194.5850  171.7770  137.5750 C   0  0  0  0  0  2  0  0  0  0  0  0
  196.1080  172.5200  135.8160 C   0  0  0  0  0  2  0  0  0  0  0  0
  195.8230  172.4700  137.1130 C   0  0  0  0  0  3  0  0  0  0  0  0
  1 37  1  6  0  0  0
  1  4  1  0  0  0  0
  2  4  2  0  0  0  0
  2  3  1  0  0  0  0
  5  6  1  6  0  0  0
  5  1  1  0  0  0  0
  6  2  1  0  0  0  0
  8 14  1  0  0  0  0
  9  7  2  0  0  0  0
 10  9  1  6  0  0  0
 10  5  1  0  0  0  0
 11 17  1  6  0  0  0
 11  9  1  0  0  0  0
 12 13  1  6  0  0  0
 12  8  1  0  0  0  0
 12 11  1  0  0  0  0
 13 11  1  0  0  0  0
 14 10  1  0  0  0  0
 16 19  2  0  0  0  0
 16 18  1  0  0  0  0
 17 15  2  0  0  0  0
 18 20  2  0  0  0  0
 19 17  1  0  0  0  0
 20 15  1  0  0  0  0
 20 21  1  0  0  0  0
 21 35  1  0  0  0  0
 21 22  2  0  0  0  0
 22 23  2  0  0  0  0
 23 29  1  0  0  0  0
 24 23  1  6  0  0  0
 25 27  1  0  0  0  0
 25 24  1  0  0  0  0
 27 26  1  6  0  0  0
 27 24  1  0  0  0  0
 28 29  2  0  0  0  0
 28 31  1  0  0  0  0
 30 31  2  0  0  0  0
 30 32  1  0  0  0  0
 33 32  1  0  0  0  0
 34 33  2  0  0  0  0
 36 35  1  0  0  0  0
 37 38  1  0  0  0  0
 38 39  1  1  0  0  0
 40 43  1  1  0  0  0
 40 41  1  0  0  0  0
 40 38  1  0  0  0  0
 42 41  1  0  0  0  0
 44 46  1  0  0  0  0
 46 45  2  6  0  0  0
 46 43  1  0  0  0  0
 47 46  1  0  0  0  0
 48 49  2  0  0  0  0
 48 47  1  0  0  0  0
 50 51  2  0  0  0  0
 51 48  1  0  0  0  0
 52 61  1  6  0  0  0
 52 51  1  0  0  0  0
 53 55  1  0  0  0  0
 53 54  1  0  0  0  0
 55 60  1  6  0  0  0
 55 57  1  0  0  0  0
 56 54  1  0  0  0  0
 56 52  1  1  0  0  0
 57 56  1  0  0  0  0
 58 60  1  0  0  0  0
 58 59  1  0  0  0  0
 60 59  1  0  0  0  0
 61 62  1  0  0  0  0
 63 64  2  0  0  0  0
 64 62  1  0  0  0  0
M  END
>  <MODEL>
8

>  <REMARK>
 VINA RESULT:      -4.0      3.377      6.130
  Name = 
  24 active torsions:
  status: ('A' for Active; 'I' for Inactive)
    1  A    between atoms: C_1  and  C_61
    2  A    between atoms: C_2  and  C_6
    3  A    between atoms: C_2  and  C_8
    4  A    between atoms: C_5  and  C_63
    5  A    between atoms: C_7  and  O_33
    6  A    between atoms: C_7  and  C_47
    7  A    between atoms: C_7  and  C_56
    8  A    between atoms: C_8  and  C_34
    9  A    between atoms: O_10  and  C_16
   10  A    between atoms: C_11  and  C_50
   11  A    between atoms: C_16  and  C_58
   12  A    between atoms: O_18  and  C_26
   13  A    between atoms: O_18  and  P_51
   14  A    between atoms: C_26  and  C_56
   15  A    between atoms: C_31  and  C_52
   16  A    between atoms: N_32  and  C_61
   17  A    between atoms: O_33  and  C_36
   18  A    between atoms: C_34  and  O_35
   19  A    between atoms: C_34  and  O_54
   20  A    between atoms: C_36  and  C_44
   21  A    between atoms: C_38  and  C_45
   22  A    between atoms: C_40  and  C_53
   23  A    between atoms: P_51  and  O_54
   24  A    between atoms: C_55  and  C_63
                            x       y       z     vdW  Elec       q    Type
                         _______ _______ _______ _____ _____    ______ ____

>  <TORSDO>
F 24

$$$$
=
 OpenBabel11062418233D

 64 70  0  0  1  0  0  0  0  0999 V2000
  193.6400  171.7870  145.0980 C   0  0  2  0  0  3  0  0  0  0  0  0
  195.7760  171.9410  145.7400 C   0  0  0  0  0  0  0  0  0  0  0  0
  197.0030  172.5060  146.1840 N   0  0  0  0  0  1  0  0  0  0  0  0
  194.7220  172.6510  145.5560 N   0  0  0  0  0  0  0  0  0  0  0  0
  194.1930  170.3470  145.2770 C   0  0  2  0  0  3  0  0  0  0  0  0
  195.6070  170.5490  145.5430 N   0  0  0  0  0  2  0  0  0  0  0  0
  196.1980  169.1970  143.4390 O   0  0  0  0  0  0  0  0  0  0  0  0
  192.6360  168.4770  141.9760 C   0  0  0  0  0  2  0  0  0  0  0  0
  195.0550  169.4390  143.0860 C   0  0  0  0  0  0  0  0  0  0  0  0
  193.9380  169.3790  144.1060 C   0  0  2  0  0  3  0  0  0  0  0  0
  194.7950  169.7430  141.6270 C   0  0  2  0  0  0  0  0  0  0  0  0
  193.5070  169.2320  140.9840 C   0  0  1  0  0  3  0  0  0  0  0  0
  194.8250  168.5060  140.7510 C   0  0  0  0  0  2  0  0  0  0  0  0
  192.2700  169.5830  143.3690 S   0  0  0  0  0  0  0  0  0  0  0  0
  194.7510  171.5480  139.8630 C   0  0  0  0  0  3  0  0  0  0  0  0
  197.0320  172.7680  140.9230 C   0  0  0  0  0  3  0  0  0  0  0  0
  195.3460  171.0110  141.0140 C   0  0  0  0  0  0  0  0  0  0  0  0
  196.4320  173.2870  139.7750 C   0  0  0  0  0  3  0  0  0  0  0  0
  196.4940  171.6350  141.5390 C   0  0  0  0  0  3  0  0  0  0  0  0
  195.2900  172.6800  139.2410 C   0  0  0  0  0  0  0  0  0  0  0  0
  194.6570  173.2400  138.0350 C   0  0  0  0  0  0  0  0  0  0  0  0
  193.3990  172.9870  137.7990 C   0  0  0  0  0  0  0  0  0  0  0  0
  192.1260  172.7710  137.5760 C   0  0  0  0  0  0  0  0  0  0  0  0
  191.3410  172.0010  138.6040 C   0  0  1  0  0  3  0  0  0  0  0  0
  189.9160  171.7350  138.1490 C   0  0  0  0  0  2  0  0  0  0  0  0
  191.2340  170.2060  136.7290 C   0  0  0  0  0  1  0  0  0  0  0  0
  190.9060  170.5890  138.1690 C   0  0  1  0  0  3  0  0  0  0  0  0
  190.3580  174.2890  136.7890 C   0  0  0  0  0  3  0  0  0  0  0  0
  191.4140  173.5240  136.5260 C   0  0  0  0  0  3  0  0  0  0  0  0
  188.3810  174.8470  135.5980 N   0  0  0  0  0  0  0  0  0  0  0  0
  189.6570  174.9900  135.7200 C   0  0  0  0  0  3  0  0  0  0  0  0
  187.6700  175.5170  134.5210 C   0  0  0  0  0  2  0  0  0  0  0  0
  187.6470  176.9870  134.7700 C   0  0  0  0  0  3  0  0  0  0  0  0
  188.6690  177.6430  134.6560 O   0  0  0  0  0  0  0  0  0  0  0  0
  195.3530  174.0740  137.1530 O   0  0  0  0  0  0  0  0  0  0  0  0
  195.4180  173.8340  135.7540 C   0  0  0  0  0  1  0  0  0  0  0  0
  193.2360  172.1700  143.6590 C   0  0  0  0  0  2  0  0  0  0  0  0
  192.3940  173.4480  143.5840 C   0  0  2  0  0  3  0  0  0  0  0  0
  191.1790  173.2060  142.7050 C   0  0  0  0  0  1  0  0  0  0  0  0
  193.2040  174.6290  143.0440 C   0  0  1  0  0  3  0  0  0  0  0  0
  193.7310  174.2910  141.7930 O   0  0  0  0  0  0  0  0  0  0  0  0
  194.1650  175.4960  141.2440 C   0  0  0  0  0  1  0  0  0  0  0  0
  192.3800  175.7510  142.8960 O   0  0  0  0  0  0  0  0  0  0  0  0
  191.8510  178.2010  144.1100 O   0  0  0  0  0  0  0  0  0  0  0  0
  194.0820  176.9050  144.5130 O   0  0  0  0  0  1  0  0  0  0  0  0
  192.6000  176.6930  144.2930 P   0  0  2  0  0  0  0  0  0  0  0  0
  191.9340  175.8970  145.6650 O   0  0  0  0  0  0  0  0  0  0  0  0
  190.7290  176.2880  146.2570 C   0  0  0  0  0  0  0  0  0  0  0  0
  190.6940  177.2710  147.0440 O   0  0  0  0  0  0  0  0  0  0  0  0
  189.4520  174.3060  146.3070 O   0  0  0  0  0  0  0  0  0  0  0  0
  189.4960  175.5280  145.9990 C   0  0  0  0  0  0  0  0  0  0  0  0
  188.2680  176.1500  145.3890 C   0  0  2  0  0  3  0  0  0  0  0  0
  187.9320  175.7890  141.7010 C   0  0  0  0  0  2  0  0  0  0  0  0
  188.5780  175.3470  142.9790 C   0  0  0  0  0  2  0  0  0  0  0  0
  186.8240  176.7110  142.1650 C   0  0  1  0  0  3  0  0  0  0  0  0
  188.3800  176.5320  143.9040 C   0  0  1  0  0  3  0  0  0  0  0  0
  187.2250  177.3010  143.4400 N   0  0  0  0  0  2  0  0  0  0  0  0
  185.2620  178.5090  141.5480 C   0  0  0  0  0  2  0  0  0  0  0  0
  185.2420  177.5060  140.4170 C   0  0  0  0  0  2  0  0  0  0  0  0
  186.5380  177.8020  141.1490 C   0  0  0  0  0  3  0  0  0  0  0  0
  187.7900  177.2110  146.1670 O   0  0  0  0  0  0  0  0  0  0  0  0
  186.5000  176.8340  146.5430 C   0  0  0  0  0  2  0  0  0  0  0  0
  185.8320  179.1670  146.2680 C   0  0  0  0  0  2  0  0  0  0  0  0
  185.5290  177.8820  146.1150 C   0  0  0  0  0  3  0  0  0  0  0  0
  1 37  1  6  0  0  0
  1  5  1  0  0  0  0
  1  4  1  0  0  0  0
  2  3  1  0  0  0  0
  4  2  2  0  0  0  0
  5  6  1  6  0  0  0
  6  2  1  0  0  0  0
  8 14  1  0  0  0  0
  9  7  2  0  0  0  0
 10  9  1  6  0  0  0
 10  5  1  0  0  0  0
 11 17  1  6  0  0  0
 11  9  1  0  0  0  0
 12 13  1  6  0  0  0
 12 11  1  0  0  0  0
 12  8  1  0  0  0  0
 13 11  1  0  0  0  0
 14 10  1  0  0  0  0
 15 17  1  0  0  0  0
 16 19  1  0  0  0  0
 17 19  2  0  0  0  0
 18 16  2  0  0  0  0
 20 18  1  0  0  0  0
 20 15  2  0  0  0  0
 21 20  1  0  0  0  0
 22 21  2  0  0  0  0
 23 22  2  0  0  0  0
 24 23  1  6  0  0  0
 25 27  1  0  0  0  0
 25 24  1  0  0  0  0
 27 26  1  6  0  0  0
 27 24  1  0  0  0  0
 29 28  2  0  0  0  0
 29 23  1  0  0  0  0
 30 31  2  0  0  0  0
 31 28  1  0  0  0  0
 32 33  1  0  0  0  0
 32 30  1  0  0  0  0
 34 33  2  0  0  0  0
 35 21  1  0  0  0  0
 36 35  1  0  0  0  0
 38 39  1  6  0  0  0
 38 37  1  0  0  0  0
 40 41  1  6  0  0  0
 40 38  1  0  0  0  0
 42 41  1  0  0  0  0
 43 40  1  0  0  0  0
 43 46  1  0  0  0  0
 46 44  2  6  0  0  0
 46 45  1  0  0  0  0
 46 47  1  0  0  0  0
 47 48  1  0  0  0  0
 48 49  2  0  0  0  0
 51 48  1  0  0  0  0
 51 50  2  0  0  0  0
 52 51  1  1  0  0  0
 52 61  1  0  0  0  0
 53 55  1  0  0  0  0
 53 54  1  0  0  0  0
 54 56  1  0  0  0  0
 55 60  1  6  0  0  0
 55 57  1  0  0  0  0
 56 52  1  1  0  0  0
 57 56  1  0  0  0  0
 59 60  1  0  0  0  0
 59 58  1  0  0  0  0
 60 58  1  0  0  0  0
 61 62  1  0  0  0  0
 64 63  2  0  0  0  0
 64 62  1  0  0  0  0
M  END
>  <MODEL>
9

>  <REMARK>
 VINA RESULT:      -3.9      3.278      9.630
  Name = 
  24 active torsions:
  status: ('A' for Active; 'I' for Inactive)
    1  A    between atoms: C_1  and  C_61
    2  A    between atoms: C_2  and  C_6
    3  A    between atoms: C_2  and  C_8
    4  A    between atoms: C_5  and  C_63
    5  A    between atoms: C_7  and  O_33
    6  A    between atoms: C_7  and  C_47
    7  A    between atoms: C_7  and  C_56
    8  A    between atoms: C_8  and  C_34
    9  A    between atoms: O_10  and  C_16
   10  A    between atoms: C_11  and  C_50
   11  A    between atoms: C_16  and  C_58
   12  A    between atoms: O_18  and  C_26
   13  A    between atoms: O_18  and  P_51
   14  A    between atoms: C_26  and  C_56
   15  A    between atoms: C_31  and  C_52
   16  A    between atoms: N_32  and  C_61
   17  A    between atoms: O_33  and  C_36
   18  A    between atoms: C_34  and  O_35
   19  A    between atoms: C_34  and  O_54
   20  A    between atoms: C_36  and  C_44
   21  A    between atoms: C_38  and  C_45
   22  A    between atoms: C_40  and  C_53
   23  A    between atoms: P_51  and  O_54
   24  A    between atoms: C_55  and  C_63
                            x       y       z     vdW  Elec       q    Type
                         _______ _______ _______ _____ _____    ______ ____

>  <TORSDO>
F 24

$$$$
