=
 OpenBabel11062420043D

 42 46  0  0  1  0  0  0  0  0999 V2000
  190.3230  171.9450  140.9250 O   0  0  0  0  0  0  0  0  0  0  0  0
  189.2010  172.1470  143.1380 C   0  0  0  0  0  2  0  0  0  0  0  0
  188.3100  173.5220  138.5720 C   0  0  0  0  0  1  0  0  0  0  0  0
  194.2130  173.2360  140.5190 C   0  0  0  0  0  2  0  0  0  0  0  0
  191.6620  173.9750  138.0510 O   0  0  0  0  0  0  0  0  0  0  0  0
  188.6120  173.5720  141.0100 C   0  0  2  0  0  3  0  0  0  0  0  0
  192.3790  174.0650  143.2480 C   0  0  0  0  0  0  0  0  0  0  0  0
  191.1980  173.5780  143.0170 N   0  0  0  0  0  0  0  0  0  0  0  0
  194.4340  173.9960  141.8260 C   0  0  0  0  0  2  0  0  0  0  0  0
  192.9720  173.9720  144.5460 N   0  0  0  0  0  2  0  0  0  0  0  0
  189.6500  173.8970  144.8630 C   0  0  0  0  0  1  0  0  0  0  0  0
  192.3950  171.6630  138.4000 O   0  0  0  0  0  0  0  0  0  0  0  0
  189.1330  172.2780  141.5920 C   0  0  1  0  0  3  0  0  0  0  0  0
  192.3960  174.6060  140.9630 O   0  0  0  0  0  0  0  0  0  0  0  0
  193.1120  174.5530  142.1100 N   0  0  0  0  0  0  0  0  0  0  0  0
  189.3260  173.5940  139.6890 C   0  0  1  0  0  3  0  0  0  0  0  0
  192.7150  173.3610  140.4420 C   0  0  1  0  0  3  0  0  0  0  0  0
  190.1730  172.4060  139.6440 N   0  0  1  0  0  0  0  0  0  0  0  0
  190.2960  172.8990  143.9220 C   0  0  1  0  0  3  0  0  0  0  0  0
  191.7530  172.8560  139.0480 S   0  0  0  0  0  0  0  0  0  0  0  0
  195.1700  173.5240  144.9800 C   0  0  0  0  0  1  0  0  0  0  0  0
  194.1960  174.5900  144.8440 N   0  0  0  0  0  0  0  0  0  0  0  0
  194.0630  175.1900  146.1660 C   0  0  0  0  0  2  0  0  0  0  0  0
  192.0510  176.6460  145.4920 C   0  0  0  0  0  3  0  0  0  0  0  0
  190.5270  175.5790  147.6300 C   0  0  0  0  0  2  0  0  0  0  0  0
  190.3270  177.0390  147.2140 C   0  0  0  0  0  2  0  0  0  0  0  0
  192.6570  175.6400  146.3900 C   0  0  0  0  0  0  0  0  0  0  0  0
  190.9320  177.2860  145.8560 C   0  0  0  0  0  3  0  0  0  0  0  0
  191.9610  175.1630  147.4300 C   0  0  0  0  0  3  0  0  0  0  0  0
  189.0100  174.6820  141.7630 O   0  0  0  0  0  0  0  0  0  0  0  0
  186.8730  175.1750  142.3960 O   0  0  0  0  0  1  0  0  0  0  0  0
  187.9660  175.6070  141.6410 C   0  0  1  0  0  3  0  0  0  0  0  0
  188.4380  176.9810  142.1320 C   0  0  2  0  0  3  0  0  0  0  0  0
  189.8110  176.9130  142.6100 N   0  0  0  0  0  1  0  0  0  0  0  0
  186.1220  178.5750  141.6260 O   0  0  0  0  0  0  0  0  0  0  0  0
  187.6560  177.0590  144.4670 C   0  0  0  0  0  3  0  0  0  0  0  0
  187.5400  177.5240  143.2090 C   0  0  0  0  0  0  0  0  0  0  0  0
  185.3880  177.8900  145.1350 C   0  0  2  0  0  3  0  0  0  0  0  0
  186.7860  177.5060  145.6090 C   0  0  0  0  0  2  0  0  0  0  0  0
  185.5420  179.3600  144.0830 S   0  0  0  0  0  0  0  0  0  0  0  0
  184.3790  178.2730  146.5440 Cl  0  0  0  0  0  0  0  0  0  0  0  0
  186.4490  178.4480  142.8330 C   0  0  0  0  0  0  0  0  0  0  0  0
  1 13  1  0  0  0  0
  2 19  1  0  0  0  0
  4  9  1  0  0  0  0
  5 20  2  0  0  0  0
  6 13  1  0  0  0  0
  6 30  1  1  0  0  0
  7 10  1  0  0  0  0
  8  7  2  0  0  0  0
  8 19  1  0  0  0  0
  9 15  1  0  0  0  0
 10 22  1  0  0  0  0
 12 20  2  0  0  0  0
 13  2  1  1  0  0  0
 14 15  1  0  0  0  0
 15  7  1  0  0  0  0
 16  3  1  6  0  0  0
 16  6  1  0  0  0  0
 17  4  1  6  0  0  0
 17 14  1  0  0  0  0
 18 16  1  0  0  0  0
 18  1  1  1  0  0  0
 19 11  1  1  0  0  0
 20 18  1  0  0  0  0
 20 17  1  0  0  0  0
 22 21  1  0  0  0  0
 22 23  1  0  0  0  0
 23 27  1  0  0  0  0
 24 28  2  0  0  0  0
 24 27  1  0  0  0  0
 26 25  1  0  0  0  0
 27 29  2  0  0  0  0
 28 26  1  0  0  0  0
 29 25  1  0  0  0  0
 32 30  1  0  0  0  0
 32 33  1  0  0  0  0
 32 31  1  1  0  0  0
 33 34  1  1  0  0  0
 33 37  1  0  0  0  0
 35 42  2  0  0  0  0
 36 39  1  0  0  0  0
 37 36  2  0  0  0  0
 38 39  1  0  0  0  0
 38 41  1  1  0  0  0
 40 38  1  0  0  0  0
 42 37  1  0  0  0  0
 42 40  1  0  0  0  0
M  END
>  <MODEL>
1

>  <REMARK>
 VINA RESULT:      -8.2      0.000      0.000
  Name = 
  7 active torsions:
  status: ('A' for Active; 'I' for Inactive)
    1  A    between atoms: C_8  and  C_24
    2  A    between atoms: C_8  and  O_38
    3  A    between atoms: C_11  and  O_38
    4  A    between atoms: C_16  and  C_34
    5  A    between atoms: N_18  and  N_25
    6  A    between atoms: C_22  and  C_24
    7  A    between atoms: N_25  and  C_34
                            x       y       z     vdW  Elec       q    Type
                         _______ _______ _______ _____ _____    ______ ____

>  <TORSDO>
F 7

$$$$
=
 OpenBabel11062420043D

 42 46  0  0  1  0  0  0  0  0999 V2000
  190.1380  172.6600  144.2410 O   0  0  0  0  0  0  0  0  0  0  0  0
  190.4070  174.3910  146.0090 C   0  0  0  0  0  2  0  0  0  0  0  0
  187.9620  173.9260  141.8450 C   0  0  0  0  0  1  0  0  0  0  0  0
  193.4910  171.1250  142.4050 C   0  0  0  0  0  2  0  0  0  0  0  0
  190.5280  172.0720  140.5420 O   0  0  0  0  0  0  0  0  0  0  0  0
  189.4150  174.8190  143.6140 C   0  0  2  0  0  3  0  0  0  0  0  0
  193.6750  173.9250  144.3100 C   0  0  0  0  0  0  0  0  0  0  0  0
  192.4490  174.1750  144.6560 N   0  0  0  0  0  0  0  0  0  0  0  0
  194.5820  172.0800  142.8870 C   0  0  0  0  0  2  0  0  0  0  0  0
  194.7480  174.0680  145.2450 N   0  0  0  0  0  2  0  0  0  0  0  0
  192.2430  176.0790  146.1520 C   0  0  0  0  0  1  0  0  0  0  0  0
  190.4410  170.1890  142.1080 O   0  0  0  0  0  0  0  0  0  0  0  0
  189.6430  173.8650  144.7630 C   0  0  1  0  0  3  0  0  0  0  0  0
  192.7660  173.3210  142.2300 O   0  0  0  0  0  0  0  0  0  0  0  0
  193.8760  173.3550  143.0040 N   0  0  0  0  0  0  0  0  0  0  0  0
  189.3410  173.8600  142.4610 C   0  0  1  0  0  3  0  0  0  0  0  0
  192.3110  172.0500  142.5480 C   0  0  1  0  0  3  0  0  0  0  0  0
  189.5590  172.5240  143.0070 N   0  0  1  0  0  0  0  0  0  0  0  0
  191.9320  174.6110  145.9350 C   0  0  1  0  0  3  0  0  0  0  0  0
  190.6830  171.6650  141.9800 S   0  0  0  0  0  0  0  0  0  0  0  0
  196.7990  173.4400  146.0330 C   0  0  0  0  0  1  0  0  0  0  0  0
  196.0880  173.9120  144.8600 N   0  0  0  0  0  0  0  0  0  0  0  0
  196.6100  175.2430  144.5770 C   0  0  0  0  0  2  0  0  0  0  0  0
  196.3100  176.5720  142.3940 C   0  0  0  0  0  3  0  0  0  0  0  0
  197.8290  174.6420  140.9790 C   0  0  0  0  0  2  0  0  0  0  0  0
  196.6610  175.3460  140.2810 C   0  0  0  0  0  2  0  0  0  0  0  0
  196.8570  175.4020  143.1130 C   0  0  0  0  0  0  0  0  0  0  0  0
  196.2460  176.5700  141.0560 C   0  0  0  0  0  3  0  0  0  0  0  0
  197.5370  174.4610  142.4450 C   0  0  0  0  0  3  0  0  0  0  0  0
  190.5020  175.6790  143.4230 O   0  0  0  0  0  0  0  0  0  0  0  0
  191.0050  177.9060  143.4110 O   0  0  0  0  0  1  0  0  0  0  0  0
  190.0090  176.9640  143.6790 C   0  0  1  0  0  3  0  0  0  0  0  0
  188.7810  177.2280  142.7980 C   0  0  2  0  0  3  0  0  0  0  0  0
  189.0670  178.2600  141.8130 N   0  0  0  0  0  1  0  0  0  0  0  0
  186.0810  176.9190  141.9190 O   0  0  0  0  0  0  0  0  0  0  0  0
  187.7330  177.8910  144.9270 C   0  0  0  0  0  3  0  0  0  0  0  0
  187.5810  177.6130  143.6190 C   0  0  0  0  0  0  0  0  0  0  0  0
  185.2970  177.5710  145.4240 C   0  0  2  0  0  3  0  0  0  0  0  0
  186.5970  178.2480  145.8450 C   0  0  0  0  0  2  0  0  0  0  0  0
  184.8100  178.2530  143.8150 S   0  0  0  0  0  0  0  0  0  0  0  0
  184.0390  177.9260  146.6240 Cl  0  0  0  0  0  0  0  0  0  0  0  0
  186.2380  177.5310  143.0050 C   0  0  0  0  0  0  0  0  0  0  0  0
  1 13  1  0  0  0  0
  4  9  1  0  0  0  0
  5 20  2  0  0  0  0
  6 30  1  6  0  0  0
  6 13  1  0  0  0  0
  7  8  2  0  0  0  0
  7 10  1  0  0  0  0
  8 19  1  0  0  0  0
  9 15  1  0  0  0  0
 13  2  1  1  0  0  0
 14 17  1  0  0  0  0
 14 15  1  0  0  0  0
 15  7  1  0  0  0  0
 16  3  1  1  0  0  0
 16 18  1  0  0  0  0
 16  6  1  0  0  0  0
 17  4  1  6  0  0  0
 18  1  1  1  0  0  0
 19  2  1  0  0  0  0
 19 11  1  6  0  0  0
 20 12  2  0  0  0  0
 20 17  1  0  0  0  0
 20 18  1  0  0  0  0
 22 10  1  0  0  0  0
 22 21  1  0  0  0  0
 23 22  1  0  0  0  0
 24 27  1  0  0  0  0
 25 29  1  0  0  0  0
 26 25  1  0  0  0  0
 26 28  1  0  0  0  0
 27 23  1  0  0  0  0
 28 24  2  0  0  0  0
 29 27  2  0  0  0  0
 30 32  1  0  0  0  0
 32 31  1  6  0  0  0
 33 34  1  6  0  0  0
 33 37  1  0  0  0  0
 33 32  1  0  0  0  0
 35 42  2  0  0  0  0
 36 39  1  0  0  0  0
 37 36  2  0  0  0  0
 38 39  1  0  0  0  0
 38 41  1  1  0  0  0
 40 38  1  0  0  0  0
 42 37  1  0  0  0  0
 42 40  1  0  0  0  0
M  END
>  <MODEL>
2

>  <REMARK>
 VINA RESULT:      -8.1      2.098      3.793
  Name = 
  7 active torsions:
  status: ('A' for Active; 'I' for Inactive)
    1  A    between atoms: C_8  and  C_24
    2  A    between atoms: C_8  and  O_38
    3  A    between atoms: C_11  and  O_38
    4  A    between atoms: C_16  and  C_34
    5  A    between atoms: N_18  and  N_25
    6  A    between atoms: C_22  and  C_24
    7  A    between atoms: N_25  and  C_34
                            x       y       z     vdW  Elec       q    Type
                         _______ _______ _______ _____ _____    ______ ____

>  <TORSDO>
F 7

$$$$
=
 OpenBabel11062420043D

 42 46  0  0  1  0  0  0  0  0999 V2000
  189.5790  172.0970  142.2200 O   0  0  0  0  0  0  0  0  0  0  0  0
  190.6830  172.0490  144.4510 C   0  0  0  0  0  2  0  0  0  0  0  0
  187.3540  174.7660  142.2010 C   0  0  0  0  0  1  0  0  0  0  0  0
  191.9110  172.2040  138.8270 C   0  0  0  0  0  2  0  0  0  0  0  0
  188.9780  174.2990  139.2250 O   0  0  0  0  0  0  0  0  0  0  0  0
  189.3430  174.0860  143.4720 C   0  0  2  0  0  3  0  0  0  0  0  0
  193.2520  172.8120  141.8810 C   0  0  0  0  0  0  0  0  0  0  0  0
  192.2450  172.7850  142.7000 N   0  0  0  0  0  0  0  0  0  0  0  0
  193.2970  172.4950  139.4020 C   0  0  0  0  0  2  0  0  0  0  0  0
  194.5010  172.2100  142.2320 N   0  0  0  0  0  2  0  0  0  0  0  0
  192.8900  173.0680  145.0260 C   0  0  0  0  0  1  0  0  0  0  0  0
  188.7340  171.8650  139.0610 O   0  0  0  0  0  0  0  0  0  0  0  0
  189.5530  172.5910  143.5340 C   0  0  1  0  0  3  0  0  0  0  0  0
  191.7820  173.8970  140.4060 O   0  0  0  0  0  0  0  0  0  0  0  0
  193.0020  173.3320  140.5630 N   0  0  0  0  0  0  0  0  0  0  0  0
  188.7650  174.2330  142.0950 C   0  0  1  0  0  3  0  0  0  0  0  0
  191.0840  172.7940  139.9380 C   0  0  1  0  0  3  0  0  0  0  0  0
  188.7290  172.8990  141.5040 N   0  0  1  0  0  0  0  0  0  0  0  0
  192.1560  172.2020  144.0210 C   0  0  1  0  0  3  0  0  0  0  0  0
  189.3290  172.9860  139.8650 S   0  0  0  0  0  0  0  0  0  0  0  0
  195.9100  170.9960  140.9030 C   0  0  0  0  0  1  0  0  0  0  0  0
  195.6330  172.3270  141.4100 N   0  0  0  0  0  0  0  0  0  0  0  0
  196.7550  172.6750  142.2730 C   0  0  0  0  0  2  0  0  0  0  0  0
  196.4400  174.1240  144.3760 C   0  0  0  0  0  3  0  0  0  0  0  0
  196.1780  176.4450  142.7710 C   0  0  0  0  0  2  0  0  0  0  0  0
  195.3710  176.3260  144.0680 C   0  0  0  0  0  2  0  0  0  0  0  0
  196.5270  174.0080  142.9050 C   0  0  0  0  0  0  0  0  0  0  0  0
  195.9280  175.2280  144.9360 C   0  0  0  0  0  3  0  0  0  0  0  0
  196.3600  175.0920  142.1360 C   0  0  0  0  0  3  0  0  0  0  0  0
  190.5520  174.7880  143.5370 O   0  0  0  0  0  0  0  0  0  0  0  0
  191.5920  176.0700  145.1140 O   0  0  0  0  0  1  0  0  0  0  0  0
  190.3630  175.7640  144.5230 C   0  0  1  0  0  3  0  0  0  0  0  0
  189.7530  177.0210  143.8910 C   0  0  2  0  0  3  0  0  0  0  0  0
  190.6960  178.1280  143.9340 N   0  0  0  0  0  1  0  0  0  0  0  0
  187.5510  178.2360  142.5360 O   0  0  0  0  0  0  0  0  0  0  0  0
  188.2000  176.9600  145.8020 C   0  0  0  0  0  3  0  0  0  0  0  0
  188.4640  177.4100  144.5620 C   0  0  0  0  0  0  0  0  0  0  0  0
  185.7450  177.4210  145.6020 C   0  0  2  0  0  3  0  0  0  0  0  0
  186.9290  177.2570  146.5480 C   0  0  0  0  0  2  0  0  0  0  0  0
  186.0370  178.9040  144.5980 S   0  0  0  0  0  0  0  0  0  0  0  0
  184.2610  177.6320  146.5530 Cl  0  0  0  0  0  0  0  0  0  0  0  0
  187.4490  178.1540  143.7860 C   0  0  0  0  0  0  0  0  0  0  0  0
  1 13  1  0  0  0  0
  4  9  1  0  0  0  0
  5 20  2  0  0  0  0
  6 13  1  0  0  0  0
  6 30  1  6  0  0  0
  7 10  1  0  0  0  0
  7  8  2  0  0  0  0
  8 19  1  0  0  0  0
  9 15  1  0  0  0  0
 12 20  2  0  0  0  0
 13  2  1  6  0  0  0
 14 15  1  0  0  0  0
 15  7  1  0  0  0  0
 16  3  1  1  0  0  0
 16  6  1  0  0  0  0
 17  4  1  6  0  0  0
 17 14  1  0  0  0  0
 18 16  1  0  0  0  0
 18  1  1  1  0  0  0
 19  2  1  0  0  0  0
 19 11  1  1  0  0  0
 20 17  1  0  0  0  0
 20 18  1  0  0  0  0
 21 22  1  0  0  0  0
 22 10  1  0  0  0  0
 22 23  1  0  0  0  0
 23 27  1  0  0  0  0
 24 28  2  0  0  0  0
 25 26  1  0  0  0  0
 26 28  1  0  0  0  0
 27 24  1  0  0  0  0
 29 25  1  0  0  0  0
 29 27  2  0  0  0  0
 30 32  1  0  0  0  0
 32 31  1  6  0  0  0
 33 34  1  1  0  0  0
 33 32  1  0  0  0  0
 33 37  1  0  0  0  0
 35 42  2  0  0  0  0
 36 39  1  0  0  0  0
 37 36  2  0  0  0  0
 38 39  1  0  0  0  0
 38 41  1  1  0  0  0
 40 38  1  0  0  0  0
 42 37  1  0  0  0  0
 42 40  1  0  0  0  0
M  END
>  <MODEL>
3

>  <REMARK>
 VINA RESULT:      -7.6      2.057      3.457
  Name = 
  7 active torsions:
  status: ('A' for Active; 'I' for Inactive)
    1  A    between atoms: C_8  and  C_24
    2  A    between atoms: C_8  and  O_38
    3  A    between atoms: C_11  and  O_38
    4  A    between atoms: C_16  and  C_34
    5  A    between atoms: N_18  and  N_25
    6  A    between atoms: C_22  and  C_24
    7  A    between atoms: N_25  and  C_34
                            x       y       z     vdW  Elec       q    Type
                         _______ _______ _______ _____ _____    ______ ____

>  <TORSDO>
F 7

$$$$
=
 OpenBabel11062420043D

 42 46  0  0  1  0  0  0  0  0999 V2000
  189.8260  172.1620  141.9830 O   0  0  0  0  0  0  0  0  0  0  0  0
  189.9210  172.6330  144.4260 C   0  0  0  0  0  2  0  0  0  0  0  0
  187.9940  174.7080  140.4870 C   0  0  0  0  0  1  0  0  0  0  0  0
  193.3370  171.5700  139.9120 C   0  0  0  0  0  2  0  0  0  0  0  0
  190.6510  173.6320  138.6160 O   0  0  0  0  0  0  0  0  0  0  0  0
  189.2420  174.3720  142.5770 C   0  0  2  0  0  3  0  0  0  0  0  0
  193.3600  172.8690  143.0450 C   0  0  0  0  0  0  0  0  0  0  0  0
  192.1080  173.0000  143.3610 N   0  0  0  0  0  0  0  0  0  0  0  0
  194.3860  172.0120  140.9320 C   0  0  0  0  0  2  0  0  0  0  0  0
  194.3130  172.3880  143.9960 N   0  0  0  0  0  2  0  0  0  0  0  0
  191.7700  173.8050  145.6290 C   0  0  0  0  0  1  0  0  0  0  0  0
  190.3230  171.2170  138.8830 O   0  0  0  0  0  0  0  0  0  0  0  0
  189.3030  172.9330  143.0330 C   0  0  1  0  0  3  0  0  0  0  0  0
  192.6970  173.5660  140.9020 O   0  0  0  0  0  0  0  0  0  0  0  0
  193.7040  173.0790  141.6630 N   0  0  0  0  0  0  0  0  0  0  0  0
  189.2850  174.1970  141.0860 C   0  0  1  0  0  3  0  0  0  0  0  0
  192.1740  172.3710  140.4330 C   0  0  1  0  0  3  0  0  0  0  0  0
  189.3990  172.7650  140.8300 N   0  0  1  0  0  0  0  0  0  0  0  0
  191.4490  172.7210  144.6180 C   0  0  1  0  0  3  0  0  0  0  0  0
  190.6170  172.5010  139.6050 S   0  0  0  0  0  0  0  0  0  0  0  0
  196.0730  170.9490  143.7620 C   0  0  0  0  0  1  0  0  0  0  0  0
  195.6860  172.3460  143.7100 N   0  0  0  0  0  0  0  0  0  0  0  0
  196.3750  173.0010  144.8150 C   0  0  0  0  0  2  0  0  0  0  0  0
  195.2710  174.9120  146.1390 C   0  0  0  0  0  3  0  0  0  0  0  0
  195.7590  176.7100  144.0030 C   0  0  0  0  0  2  0  0  0  0  0  0
  194.4890  176.8630  144.8460 C   0  0  0  0  0  2  0  0  0  0  0  0
  195.9490  174.4280  144.9170 C   0  0  0  0  0  0  0  0  0  0  0  0
  194.6100  176.0770  146.1260 C   0  0  0  0  0  3  0  0  0  0  0  0
  196.1430  175.2580  143.8850 C   0  0  0  0  0  3  0  0  0  0  0  0
  190.3660  175.0980  142.9840 O   0  0  0  0  0  0  0  0  0  0  0  0
  190.9390  176.8710  144.3040 O   0  0  0  0  0  1  0  0  0  0  0  0
  189.8720  176.1230  143.7990 C   0  0  1  0  0  3  0  0  0  0  0  0
  188.9360  177.0230  142.9820 C   0  0  2  0  0  3  0  0  0  0  0  0
  189.6770  178.1140  142.3680 N   0  0  0  0  0  1  0  0  0  0  0  0
  186.5820  178.2380  141.9110 O   0  0  0  0  0  0  0  0  0  0  0  0
  187.7620  177.2670  145.1340 C   0  0  0  0  0  3  0  0  0  0  0  0
  187.8140  177.5660  143.8230 C   0  0  0  0  0  0  0  0  0  0  0  0
  185.3370  177.8710  145.3230 C   0  0  2  0  0  3  0  0  0  0  0  0
  186.6660  177.7260  146.0560 C   0  0  0  0  0  2  0  0  0  0  0  0
  185.5090  179.2180  144.1200 S   0  0  0  0  0  0  0  0  0  0  0  0
  184.0670  178.2800  146.4930 Cl  0  0  0  0  0  0  0  0  0  0  0  0
  186.7090  178.2930  143.1600 C   0  0  0  0  0  0  0  0  0  0  0  0
  1 13  1  0  0  0  0
  2 19  1  0  0  0  0
  4  9  1  0  0  0  0
  5 20  2  0  0  0  0
  6 30  1  1  0  0  0
  6 13  1  0  0  0  0
  7  8  2  0  0  0  0
  7 10  1  0  0  0  0
  8 19  1  0  0  0  0
  9 15  1  0  0  0  0
 12 20  2  0  0  0  0
 13  2  1  1  0  0  0
 14 15  1  0  0  0  0
 15  7  1  0  0  0  0
 16  3  1  6  0  0  0
 16  6  1  0  0  0  0
 17  4  1  6  0  0  0
 17 14  1  0  0  0  0
 18 16  1  0  0  0  0
 18  1  1  1  0  0  0
 19 11  1  1  0  0  0
 20 17  1  0  0  0  0
 20 18  1  0  0  0  0
 22 21  1  0  0  0  0
 22 10  1  0  0  0  0
 22 23  1  0  0  0  0
 23 27  1  0  0  0  0
 25 26  1  0  0  0  0
 26 28  1  0  0  0  0
 27 24  1  0  0  0  0
 28 24  2  0  0  0  0
 29 25  1  0  0  0  0
 29 27  2  0  0  0  0
 30 32  1  0  0  0  0
 32 31  1  6  0  0  0
 33 34  1  1  0  0  0
 33 32  1  0  0  0  0
 33 37  1  0  0  0  0
 35 42  2  0  0  0  0
 36 39  1  0  0  0  0
 37 36  2  0  0  0  0
 38 39  1  0  0  0  0
 38 41  1  1  0  0  0
 40 38  1  0  0  0  0
 42 37  1  0  0  0  0
 42 40  1  0  0  0  0
M  END
>  <MODEL>
4

>  <REMARK>
 VINA RESULT:      -7.5      1.662      2.505
  Name = 
  7 active torsions:
  status: ('A' for Active; 'I' for Inactive)
    1  A    between atoms: C_8  and  C_24
    2  A    between atoms: C_8  and  O_38
    3  A    between atoms: C_11  and  O_38
    4  A    between atoms: C_16  and  C_34
    5  A    between atoms: N_18  and  N_25
    6  A    between atoms: C_22  and  C_24
    7  A    between atoms: N_25  and  C_34
                            x       y       z     vdW  Elec       q    Type
                         _______ _______ _______ _____ _____    ______ ____

>  <TORSDO>
F 7

$$$$
=
 OpenBabel11062420043D

 42 46  0  0  1  0  0  0  0  0999 V2000
  190.7870  171.4070  141.3370 O   0  0  0  0  0  0  0  0  0  0  0  0
  191.7560  170.8400  143.5590 C   0  0  0  0  0  2  0  0  0  0  0  0
  187.5870  172.6550  141.8680 C   0  0  0  0  0  1  0  0  0  0  0  0
  192.8630  173.9220  138.8220 C   0  0  0  0  0  2  0  0  0  0  0  0
  189.2910  174.2400  139.3580 O   0  0  0  0  0  0  0  0  0  0  0  0
  189.6470  172.3600  143.1740 C   0  0  2  0  0  3  0  0  0  0  0  0
  193.7300  173.6190  142.0860 C   0  0  0  0  0  0  0  0  0  0  0  0
  192.8340  172.8310  142.5980 N   0  0  0  0  0  0  0  0  0  0  0  0
  193.9530  174.4660  139.7440 C   0  0  0  0  0  2  0  0  0  0  0  0
  195.1110  173.4890  142.4360 N   0  0  0  0  0  2  0  0  0  0  0  0
  193.2430  172.3020  144.9340 C   0  0  0  0  0  1  0  0  0  0  0  0
  190.1890  172.2590  138.2280 O   0  0  0  0  0  0  0  0  0  0  0  0
  190.5170  171.2180  142.7020 C   0  0  1  0  0  3  0  0  0  0  0  0
  191.9500  174.5380  140.8620 O   0  0  0  0  0  0  0  0  0  0  0  0
  193.2900  174.5110  141.0460 N   0  0  0  0  0  0  0  0  0  0  0  0
  189.0870  172.8460  141.8680 C   0  0  1  0  0  3  0  0  0  0  0  0
  191.8410  173.5750  139.8710 C   0  0  1  0  0  3  0  0  0  0  0  0
  189.6750  172.0190  140.8200 N   0  0  1  0  0  0  0  0  0  0  0  0
  193.0020  171.7480  143.5430 C   0  0  1  0  0  3  0  0  0  0  0  0
  190.1940  173.0480  139.5060 S   0  0  0  0  0  0  0  0  0  0  0  0
  196.8940  173.6860  141.0200 C   0  0  0  0  0  1  0  0  0  0  0  0
  196.0760  174.4000  141.9820 N   0  0  0  0  0  0  0  0  0  0  0  0
  196.9470  174.7010  143.1120 C   0  0  0  0  0  2  0  0  0  0  0  0
  196.0560  174.6400  145.5250 C   0  0  0  0  0  3  0  0  0  0  0  0
  194.7640  177.1330  145.1410 C   0  0  0  0  0  2  0  0  0  0  0  0
  194.1150  176.0750  146.0390 C   0  0  0  0  0  2  0  0  0  0  0  0
  196.1610  175.3230  144.2190 C   0  0  0  0  0  0  0  0  0  0  0  0
  195.1170  175.0110  146.4060 C   0  0  0  0  0  3  0  0  0  0  0  0
  195.5170  176.4790  144.0120 C   0  0  0  0  0  3  0  0  0  0  0  0
  190.4000  173.3850  143.7570 O   0  0  0  0  0  0  0  0  0  0  0  0
  189.8090  173.4380  145.9620 O   0  0  0  0  0  1  0  0  0  0  0  0
  189.5520  173.9790  144.6990 C   0  0  1  0  0  3  0  0  0  0  0  0
  189.7870  175.4950  144.7160 C   0  0  2  0  0  3  0  0  0  0  0  0
  189.5370  176.0390  146.0430 N   0  0  0  0  0  1  0  0  0  0  0  0
  190.8230  177.2100  142.6790 O   0  0  0  0  0  0  0  0  0  0  0  0
  187.6450  175.8430  143.5490 C   0  0  0  0  0  3  0  0  0  0  0  0
  188.9340  176.2000  143.6980 C   0  0  0  0  0  0  0  0  0  0  0  0
  187.4640  176.9010  141.2850 C   0  0  2  0  0  3  0  0  0  0  0  0
  186.7170  176.4550  142.5370 C   0  0  0  0  0  2  0  0  0  0  0  0
  188.5780  178.2550  141.7530 S   0  0  0  0  0  0  0  0  0  0  0  0
  186.2940  177.4860  140.0840 Cl  0  0  0  0  0  0  0  0  0  0  0  0
  189.5710  177.1670  142.7770 C   0  0  0  0  0  0  0  0  0  0  0  0
  1 13  1  0  0  0  0
  4  9  1  0  0  0  0
  5 20  2  0  0  0  0
  6 30  1  6  0  0  0
  7 10  1  0  0  0  0
  7  8  2  0  0  0  0
  8 19  1  0  0  0  0
  9 15  1  0  0  0  0
 12 20  2  0  0  0  0
 13  6  1  0  0  0  0
 13  2  1  1  0  0  0
 14 15  1  0  0  0  0
 15  7  1  0  0  0  0
 16  3  1  1  0  0  0
 16  6  1  0  0  0  0
 17  4  1  6  0  0  0
 17 14  1  0  0  0  0
 18  1  1  1  0  0  0
 18 16  1  0  0  0  0
 19  2  1  0  0  0  0
 19 11  1  1  0  0  0
 20 17  1  0  0  0  0
 20 18  1  0  0  0  0
 21 22  1  0  0  0  0
 22 10  1  0  0  0  0
 22 23  1  0  0  0  0
 23 27  1  0  0  0  0
 24 28  2  0  0  0  0
 25 26  1  0  0  0  0
 26 28  1  0  0  0  0
 27 24  1  0  0  0  0
 29 27  2  0  0  0  0
 29 25  1  0  0  0  0
 30 32  1  0  0  0  0
 32 33  1  0  0  0  0
 32 31  1  1  0  0  0
 33 34  1  1  0  0  0
 35 42  2  0  0  0  0
 36 37  2  0  0  0  0
 37 33  1  0  0  0  0
 38 41  1  6  0  0  0
 38 40  1  0  0  0  0
 38 39  1  0  0  0  0
 39 36  1  0  0  0  0
 40 42  1  0  0  0  0
 42 37  1  0  0  0  0
M  END
>  <MODEL>
5

>  <REMARK>
 VINA RESULT:      -7.4      2.466      3.418
  Name = 
  7 active torsions:
  status: ('A' for Active; 'I' for Inactive)
    1  A    between atoms: C_8  and  C_24
    2  A    between atoms: C_8  and  O_38
    3  A    between atoms: C_11  and  O_38
    4  A    between atoms: C_16  and  C_34
    5  A    between atoms: N_18  and  N_25
    6  A    between atoms: C_22  and  C_24
    7  A    between atoms: N_25  and  C_34
                            x       y       z     vdW  Elec       q    Type
                         _______ _______ _______ _____ _____    ______ ____

>  <TORSDO>
F 7

$$$$
=
 OpenBabel11062420043D

 42 46  0  0  1  0  0  0  0  0999 V2000
  195.5940  173.4370  143.4540 O   0  0  0  0  0  0  0  0  0  0  0  0
  194.1040  171.5010  143.9290 C   0  0  0  0  0  2  0  0  0  0  0  0
  196.0570  173.5960  140.0130 C   0  0  0  0  0  1  0  0  0  0  0  0
  194.5730  177.1590  144.8940 C   0  0  0  0  0  2  0  0  0  0  0  0
  195.7890  176.6600  141.5150 O   0  0  0  0  0  0  0  0  0  0  0  0
  194.4300  172.6140  141.5710 C   0  0  2  0  0  3  0  0  0  0  0  0
  192.3280  174.6170  144.8880 C   0  0  0  0  0  0  0  0  0  0  0  0
  192.9380  173.6340  144.2990 N   0  0  0  0  0  0  0  0  0  0  0  0
  193.1360  176.9340  145.3650 C   0  0  0  0  0  2  0  0  0  0  0  0
  191.5190  174.3930  146.0470 N   0  0  0  0  0  2  0  0  0  0  0  0
  191.6280  171.5880  144.2400 C   0  0  0  0  0  1  0  0  0  0  0  0
  197.2720  176.2540  143.4240 O   0  0  0  0  0  0  0  0  0  0  0  0
  195.0030  172.2780  142.9280 C   0  0  1  0  0  3  0  0  0  0  0  0
  193.3820  175.9790  143.2920 O   0  0  0  0  0  0  0  0  0  0  0  0
  192.6310  175.9430  144.4170 N   0  0  0  0  0  0  0  0  0  0  0  0
  195.2070  173.8540  141.2360 C   0  0  1  0  0  3  0  0  0  0  0  0
  194.6410  176.0610  143.8660 C   0  0  1  0  0  3  0  0  0  0  0  0
  196.0770  174.1310  142.3750 N   0  0  1  0  0  0  0  0  0  0  0  0
  192.9440  172.2270  144.6380 C   0  0  1  0  0  3  0  0  0  0  0  0
  195.9960  175.8350  142.7540 S   0  0  0  0  0  0  0  0  0  0  0  0
  191.1900  175.5100  148.0130 C   0  0  0  0  0  1  0  0  0  0  0  0
  190.7630  175.4210  146.6290 N   0  0  0  0  0  0  0  0  0  0  0  0
  189.3770  174.9700  146.6590 C   0  0  0  0  0  2  0  0  0  0  0  0
  187.2610  176.4160  146.8880 C   0  0  0  0  0  3  0  0  0  0  0  0
  187.8630  177.7340  144.4520 C   0  0  0  0  0  2  0  0  0  0  0  0
  186.4020  177.4770  144.8330 C   0  0  0  0  0  2  0  0  0  0  0  0
  188.4750  176.0380  146.1340 C   0  0  0  0  0  0  0  0  0  0  0  0
  186.2930  177.1250  146.2940 C   0  0  0  0  0  3  0  0  0  0  0  0
  188.7450  176.6230  144.9600 C   0  0  0  0  0  3  0  0  0  0  0  0
  193.0700  172.9320  141.6410 O   0  0  0  0  0  0  0  0  0  0  0  0
  192.9100  170.9410  140.5330 O   0  0  0  0  0  1  0  0  0  0  0  0
  192.4770  172.2700  140.5590 C   0  0  1  0  0  3  0  0  0  0  0  0
  190.9500  172.3250  140.6970 C   0  0  2  0  0  3  0  0  0  0  0  0
  190.4230  171.0330  141.1110 N   0  0  0  0  0  1  0  0  0  0  0  0
  189.0230  174.4280  140.5400 O   0  0  0  0  0  0  0  0  0  0  0  0
  190.7860  172.3500  138.2400 C   0  0  0  0  0  3  0  0  0  0  0  0
  190.2930  172.7690  139.4200 C   0  0  0  0  0  0  0  0  0  0  0  0
  189.6350  174.1660  136.9510 C   0  0  2  0  0  3  0  0  0  0  0  0
  190.2290  172.7620  136.9050 C   0  0  0  0  0  2  0  0  0  0  0  0
  188.1910  174.1230  138.0490 S   0  0  0  0  0  0  0  0  0  0  0  0
  189.1240  174.6380  135.3180 Cl  0  0  0  0  0  0  0  0  0  0  0  0
  189.2120  173.7770  139.4820 C   0  0  0  0  0  0  0  0  0  0  0  0
  2 19  1  0  0  0  0
  4  9  1  0  0  0  0
  5 20  2  0  0  0  0
  6 30  1  1  0  0  0
  6 13  1  0  0  0  0
  7 10  1  0  0  0  0
  8 19  1  0  0  0  0
  8  7  2  0  0  0  0
 10 22  1  0  0  0  0
 13  1  1  0  0  0  0
 13  2  1  1  0  0  0
 14 17  1  0  0  0  0
 14 15  1  0  0  0  0
 15  7  1  0  0  0  0
 15  9  1  0  0  0  0
 16  3  1  6  0  0  0
 16  6  1  0  0  0  0
 16 18  1  0  0  0  0
 17  4  1  6  0  0  0
 18 20  1  0  0  0  0
 18  1  1  1  0  0  0
 19 11  1  6  0  0  0
 20 12  2  0  0  0  0
 20 17  1  0  0  0  0
 22 23  1  0  0  0  0
 22 21  1  0  0  0  0
 25 26  1  0  0  0  0
 25 29  1  0  0  0  0
 26 28  1  0  0  0  0
 27 23  1  0  0  0  0
 27 24  1  0  0  0  0
 28 24  2  0  0  0  0
 29 27  2  0  0  0  0
 32 31  1  1  0  0  0
 32 33  1  0  0  0  0
 32 30  1  0  0  0  0
 33 34  1  6  0  0  0
 36 37  2  0  0  0  0
 37 42  1  0  0  0  0
 37 33  1  0  0  0  0
 38 41  1  6  0  0  0
 38 40  1  0  0  0  0
 39 38  1  0  0  0  0
 39 36  1  0  0  0  0
 40 42  1  0  0  0  0
 42 35  2  0  0  0  0
M  END
>  <MODEL>
6

>  <REMARK>
 VINA RESULT:      -7.4      3.184      6.064
  Name = 
  7 active torsions:
  status: ('A' for Active; 'I' for Inactive)
    1  A    between atoms: C_8  and  C_24
    2  A    between atoms: C_8  and  O_38
    3  A    between atoms: C_11  and  O_38
    4  A    between atoms: C_16  and  C_34
    5  A    between atoms: N_18  and  N_25
    6  A    between atoms: C_22  and  C_24
    7  A    between atoms: N_25  and  C_34
                            x       y       z     vdW  Elec       q    Type
                         _______ _______ _______ _____ _____    ______ ____

>  <TORSDO>
F 7

$$$$
=
 OpenBabel11062420043D

 42 46  0  0  1  0  0  0  0  0999 V2000
  193.6210  172.7160  142.6620 O   0  0  0  0  0  0  0  0  0  0  0  0
  191.7320  171.2370  143.3240 C   0  0  0  0  0  2  0  0  0  0  0  0
  193.5500  173.0350  139.2020 C   0  0  0  0  0  1  0  0  0  0  0  0
  193.9640  176.4370  144.3970 C   0  0  0  0  0  2  0  0  0  0  0  0
  194.4250  175.9120  140.8390 O   0  0  0  0  0  0  0  0  0  0  0  0
  191.9820  172.4150  140.9890 C   0  0  2  0  0  3  0  0  0  0  0  0
  191.1100  174.6300  144.6990 C   0  0  0  0  0  0  0  0  0  0  0  0
  191.3070  173.5710  143.9750 N   0  0  0  0  0  0  0  0  0  0  0  0
  192.6190  176.5810  145.1080 C   0  0  0  0  0  2  0  0  0  0  0  0
  190.4680  174.5410  145.9740 N   0  0  0  0  0  2  0  0  0  0  0  0
  189.4700  171.9830  144.0760 C   0  0  0  0  0  1  0  0  0  0  0  0
  196.0140  174.9460  142.4360 O   0  0  0  0  0  0  0  0  0  0  0  0
  192.6430  171.8170  142.2090 C   0  0  1  0  0  3  0  0  0  0  0  0
  192.2410  175.7780  142.9910 O   0  0  0  0  0  0  0  0  0  0  0  0
  191.7030  175.8550  144.2310 N   0  0  0  0  0  0  0  0  0  0  0  0
  193.0200  173.4140  140.5660 C   0  0  1  0  0  3  0  0  0  0  0  0
  193.5460  175.4560  143.3340 C   0  0  1  0  0  3  0  0  0  0  0  0
  194.1040  173.3380  141.5410 N   0  0  1  0  0  0  0  0  0  0  0  0
  190.9600  172.1940  144.2560 C   0  0  1  0  0  3  0  0  0  0  0  0
  194.5800  174.9590  141.9900 S   0  0  0  0  0  0  0  0  0  0  0  0
  190.9640  175.6390  147.9160 C   0  0  0  0  0  1  0  0  0  0  0  0
  190.1460  175.6850  146.7200 N   0  0  0  0  0  0  0  0  0  0  0  0
  188.7660  175.5310  147.1650 C   0  0  0  0  0  2  0  0  0  0  0  0
  186.5250  176.7720  146.9220 C   0  0  0  0  0  3  0  0  0  0  0  0
  187.3920  177.9170  144.4780 C   0  0  0  0  0  2  0  0  0  0  0  0
  185.9160  177.5510  144.6610 C   0  0  0  0  0  2  0  0  0  0  0  0
  187.8710  176.4510  146.4020 C   0  0  0  0  0  0  0  0  0  0  0  0
  185.6070  177.3240  146.1180 C   0  0  0  0  0  3  0  0  0  0  0  0
  188.2730  176.9510  145.2260 C   0  0  0  0  0  3  0  0  0  0  0  0
  190.8010  173.0910  141.3120 O   0  0  0  0  0  0  0  0  0  0  0  0
  188.5810  172.6270  141.0510 O   0  0  0  0  0  1  0  0  0  0  0  0
  189.8330  172.5920  140.4320 C   0  0  1  0  0  3  0  0  0  0  0  0
  189.8150  173.4400  139.1540 C   0  0  2  0  0  3  0  0  0  0  0  0
  188.5600  174.1670  139.0360 N   0  0  0  0  0  1  0  0  0  0  0  0
  191.1910  174.3610  136.8260 O   0  0  0  0  0  0  0  0  0  0  0  0
  189.8270  171.2740  137.9810 C   0  0  0  0  0  3  0  0  0  0  0  0
  190.0460  172.6010  137.9280 C   0  0  0  0  0  0  0  0  0  0  0  0
  191.1990  170.8220  135.9330 C   0  0  2  0  0  3  0  0  0  0  0  0
  190.0620  170.3390  136.8270 C   0  0  0  0  0  2  0  0  0  0  0  0
  190.6770  172.3750  135.1570 S   0  0  0  0  0  0  0  0  0  0  0  0
  191.5100  169.6070  134.6770 Cl  0  0  0  0  0  0  0  0  0  0  0  0
  190.6520  173.2290  136.7340 C   0  0  0  0  0  0  0  0  0  0  0  0
  2 19  1  0  0  0  0
  4  9  1  0  0  0  0
  5 20  2  0  0  0  0
  6 30  1  1  0  0  0
  6 13  1  0  0  0  0
  7 10  1  0  0  0  0
  8 19  1  0  0  0  0
  8  7  2  0  0  0  0
 10 22  1  0  0  0  0
 13  1  1  0  0  0  0
 13  2  1  1  0  0  0
 14 17  1  0  0  0  0
 14 15  1  0  0  0  0
 15  7  1  0  0  0  0
 15  9  1  0  0  0  0
 16  3  1  6  0  0  0
 16  6  1  0  0  0  0
 16 18  1  0  0  0  0
 17  4  1  6  0  0  0
 18 20  1  0  0  0  0
 18  1  1  1  0  0  0
 19 11  1  6  0  0  0
 20 12  2  0  0  0  0
 20 17  1  0  0  0  0
 22 23  1  0  0  0  0
 22 21  1  0  0  0  0
 25 26  1  0  0  0  0
 25 29  1  0  0  0  0
 26 28  1  0  0  0  0
 27 24  1  0  0  0  0
 27 23  1  0  0  0  0
 28 24  2  0  0  0  0
 29 27  2  0  0  0  0
 32 31  1  1  0  0  0
 32 30  1  0  0  0  0
 33 34  1  6  0  0  0
 33 32  1  0  0  0  0
 37 36  2  0  0  0  0
 37 33  1  0  0  0  0
 38 41  1  6  0  0  0
 38 39  1  0  0  0  0
 39 36  1  0  0  0  0
 40 38  1  0  0  0  0
 40 42  1  0  0  0  0
 42 35  2  0  0  0  0
 42 37  1  0  0  0  0
M  END
>  <MODEL>
7

>  <REMARK>
 VINA RESULT:      -7.4      3.689      6.199
  Name = 
  7 active torsions:
  status: ('A' for Active; 'I' for Inactive)
    1  A    between atoms: C_8  and  C_24
    2  A    between atoms: C_8  and  O_38
    3  A    between atoms: C_11  and  O_38
    4  A    between atoms: C_16  and  C_34
    5  A    between atoms: N_18  and  N_25
    6  A    between atoms: C_22  and  C_24
    7  A    between atoms: N_25  and  C_34
                            x       y       z     vdW  Elec       q    Type
                         _______ _______ _______ _____ _____    ______ ____

>  <TORSDO>
F 7

$$$$
=
 OpenBabel11062420043D

 42 46  0  0  1  0  0  0  0  0999 V2000
  194.2640  172.3490  142.5050 O   0  0  0  0  0  0  0  0  0  0  0  0
  194.3590  174.8050  142.1130 C   0  0  0  0  0  2  0  0  0  0  0  0
  195.5170  171.7390  145.6890 C   0  0  0  0  0  1  0  0  0  0  0  0
  190.6840  170.3720  142.0150 C   0  0  0  0  0  2  0  0  0  0  0  0
  192.8710  169.7410  144.8370 O   0  0  0  0  0  0  0  0  0  0  0  0
  194.5650  173.6410  144.4590 C   0  0  2  0  0  3  0  0  0  0  0  0
  190.7970  173.7570  142.1730 C   0  0  0  0  0  0  0  0  0  0  0  0
  192.0410  174.0390  142.4140 N   0  0  0  0  0  0  0  0  0  0  0  0
  189.6950  171.5300  141.8970 C   0  0  0  0  0  2  0  0  0  0  0  0
  190.0350  174.5290  141.2400 N   0  0  0  0  0  2  0  0  0  0  0  0
  192.4920  176.4270  142.4660 C   0  0  0  0  0  1  0  0  0  0  0  0
  193.5900  169.1410  142.5720 O   0  0  0  0  0  0  0  0  0  0  0  0
  194.7730  173.5740  142.9640 C   0  0  1  0  0  3  0  0  0  0  0  0
  191.1140  171.9590  143.6500 O   0  0  0  0  0  0  0  0  0  0  0  0
  190.2800  172.5520  142.7640 N   0  0  0  0  0  0  0  0  0  0  0  0
  194.3900  172.1860  144.7850 C   0  0  1  0  0  3  0  0  0  0  0  0
  191.7610  171.0810  142.7930 C   0  0  1  0  0  3  0  0  0  0  0  0
  194.4690  171.4560  143.5240 N   0  0  1  0  0  0  0  0  0  0  0  0
  192.8650  175.0890  141.8560 C   0  0  1  0  0  3  0  0  0  0  0  0
  193.1820  170.2750  143.4680 S   0  0  0  0  0  0  0  0  0  0  0  0
  188.5450  173.3420  139.9780 C   0  0  0  0  0  1  0  0  0  0  0  0
  188.6620  174.3110  141.0500 N   0  0  0  0  0  0  0  0  0  0  0  0
  188.0980  175.5540  140.5380 C   0  0  0  0  0  2  0  0  0  0  0  0
  186.7550  175.6800  142.7290 C   0  0  0  0  0  3  0  0  0  0  0  0
  187.0900  178.4930  142.8060 C   0  0  0  0  0  2  0  0  0  0  0  0
  185.7910  177.8720  143.3270 C   0  0  0  0  0  2  0  0  0  0  0  0
  187.5120  176.3550  141.6540 C   0  0  0  0  0  0  0  0  0  0  0  0
  185.9670  176.3910  143.5460 C   0  0  0  0  0  3  0  0  0  0  0  0
  187.6380  177.6880  141.6570 C   0  0  0  0  0  3  0  0  0  0  0  0
  193.3930  174.3280  144.7940 O   0  0  0  0  0  0  0  0  0  0  0  0
  195.0590  175.1720  146.1080 O   0  0  0  0  0  1  0  0  0  0  0  0
  193.6780  174.9860  145.9960 C   0  0  1  0  0  3  0  0  0  0  0  0
  192.9590  176.3400  146.0230 C   0  0  2  0  0  3  0  0  0  0  0  0
  193.4570  177.1660  147.1140 N   0  0  0  0  0  1  0  0  0  0  0  0
  191.6640  174.9580  148.1620 O   0  0  0  0  0  0  0  0  0  0  0  0
  190.6580  176.9050  145.3480 C   0  0  0  0  0  3  0  0  0  0  0  0
  191.4680  176.1750  146.1370 C   0  0  0  0  0  0  0  0  0  0  0  0
  188.6580  176.5290  146.8120 C   0  0  2  0  0  3  0  0  0  0  0  0
  189.1560  176.8460  145.4060 C   0  0  0  0  0  2  0  0  0  0  0  0
  189.1930  174.8460  147.2270 S   0  0  0  0  0  0  0  0  0  0  0  0
  186.8850  176.6100  146.8360 Cl  0  0  0  0  0  0  0  0  0  0  0  0
  190.9220  175.3250  147.2170 C   0  0  0  0  0  0  0  0  0  0  0  0
  1 13  1  0  0  0  0
  6 16  1  0  0  0  0
  6 30  1  6  0  0  0
  7  8  2  0  0  0  0
  7 15  1  0  0  0  0
  9  4  1  0  0  0  0
  9 15  1  0  0  0  0
 10  7  1  0  0  0  0
 12 20  2  0  0  0  0
 13  2  1  6  0  0  0
 13  6  1  0  0  0  0
 15 14  1  0  0  0  0
 16  3  1  1  0  0  0
 17  4  1  1  0  0  0
 17 20  1  0  0  0  0
 17 14  1  0  0  0  0
 18  1  1  6  0  0  0
 18 16  1  0  0  0  0
 19  2  1  0  0  0  0
 19  8  1  0  0  0  0
 19 11  1  1  0  0  0
 20 18  1  0  0  0  0
 20  5  2  0  0  0  0
 21 22  1  0  0  0  0
 22 10  1  0  0  0  0
 23 22  1  0  0  0  0
 23 27  1  0  0  0  0
 24 28  2  0  0  0  0
 25 26  1  0  0  0  0
 26 28  1  0  0  0  0
 27 29  2  0  0  0  0
 27 24  1  0  0  0  0
 29 25  1  0  0  0  0
 30 32  1  0  0  0  0
 32 33  1  0  0  0  0
 32 31  1  6  0  0  0
 33 37  1  0  0  0  0
 33 34  1  1  0  0  0
 36 39  1  0  0  0  0
 36 37  2  0  0  0  0
 37 42  1  0  0  0  0
 38 41  1  6  0  0  0
 38 40  1  0  0  0  0
 39 38  1  0  0  0  0
 42 40  1  0  0  0  0
 42 35  2  0  0  0  0
M  END
>  <MODEL>
8

>  <REMARK>
 VINA RESULT:      -7.3      2.927      6.002
  Name = 
  7 active torsions:
  status: ('A' for Active; 'I' for Inactive)
    1  A    between atoms: C_8  and  C_24
    2  A    between atoms: C_8  and  O_38
    3  A    between atoms: C_11  and  O_38
    4  A    between atoms: C_16  and  C_34
    5  A    between atoms: N_18  and  N_25
    6  A    between atoms: C_22  and  C_24
    7  A    between atoms: N_25  and  C_34
                            x       y       z     vdW  Elec       q    Type
                         _______ _______ _______ _____ _____    ______ ____

>  <TORSDO>
F 7

$$$$
=
 OpenBabel11062420043D

 42 46  0  0  1  0  0  0  0  0999 V2000
  192.4360  172.9700  140.7510 O   0  0  0  0  0  0  0  0  0  0  0  0
  193.5880  175.0510  141.4870 C   0  0  0  0  0  2  0  0  0  0  0  0
  193.8190  170.3170  142.5190 C   0  0  0  0  0  1  0  0  0  0  0  0
  188.3260  172.7750  140.9360 C   0  0  0  0  0  2  0  0  0  0  0  0
  190.4430  170.0410  142.0260 O   0  0  0  0  0  0  0  0  0  0  0  0
  193.6530  172.7560  142.7640 C   0  0  2  0  0  3  0  0  0  0  0  0
  190.0260  175.2480  142.5160 C   0  0  0  0  0  0  0  0  0  0  0  0
  191.2780  174.9650  142.3290 N   0  0  0  0  0  0  0  0  0  0  0  0
  187.9860  174.0190  141.7570 C   0  0  0  0  0  2  0  0  0  0  0  0
  189.5540  176.5950  142.4210 N   0  0  0  0  0  2  0  0  0  0  0  0
  192.7880  176.6350  143.2450 C   0  0  0  0  0  1  0  0  0  0  0  0
  190.3740  170.6680  139.6580 O   0  0  0  0  0  0  0  0  0  0  0  0
  193.5300  173.4990  141.4550 C   0  0  1  0  0  3  0  0  0  0  0  0
  189.7340  172.9320  142.7720 O   0  0  0  0  0  0  0  0  0  0  0  0
  189.1250  174.1360  142.6650 N   0  0  0  0  0  0  0  0  0  0  0  0
  192.8850  171.5040  142.4510 C   0  0  1  0  0  3  0  0  0  0  0  0
  189.7300  172.5610  141.4360 C   0  0  1  0  0  3  0  0  0  0  0  0
  192.3850  171.6430  141.0870 N   0  0  1  0  0  0  0  0  0  0  0  0
  192.3790  175.8500  142.0130 C   0  0  1  0  0  3  0  0  0  0  0  0
  190.7100  171.1440  141.0420 S   0  0  0  0  0  0  0  0  0  0  0  0
  187.7450  177.7440  141.6260 C   0  0  0  0  0  1  0  0  0  0  0  0
  188.2280  176.9370  142.7300 N   0  0  0  0  0  0  0  0  0  0  0  0
  188.2720  177.8190  143.8900 C   0  0  0  0  0  2  0  0  0  0  0  0
  186.0860  179.0420  144.4790 C   0  0  0  0  0  3  0  0  0  0  0  0
  185.1910  176.7920  145.9510 C   0  0  0  0  0  2  0  0  0  0  0  0
  184.8220  178.2010  146.4250 C   0  0  0  0  0  2  0  0  0  0  0  0
  186.9440  177.8420  144.5720 C   0  0  0  0  0  0  0  0  0  0  0  0
  185.0610  179.2040  145.3260 C   0  0  0  0  0  3  0  0  0  0  0  0
  186.5500  176.7910  145.3020 C   0  0  0  0  0  3  0  0  0  0  0  0
  193.0180  173.4310  143.8120 O   0  0  0  0  0  0  0  0  0  0  0  0
  195.0240  172.6110  144.5300 O   0  0  0  0  0  1  0  0  0  0  0  0
  193.8530  173.2650  144.9230 C   0  0  1  0  0  3  0  0  0  0  0  0
  194.1890  174.6370  145.5220 C   0  0  2  0  0  3  0  0  0  0  0  0
  195.3190  174.5360  146.4340 N   0  0  0  0  0  1  0  0  0  0  0  0
  194.2020  177.2240  146.7330 O   0  0  0  0  0  0  0  0  0  0  0  0
  191.7930  174.6740  146.0890 C   0  0  0  0  0  3  0  0  0  0  0  0
  193.0060  175.2410  146.2250 C   0  0  0  0  0  0  0  0  0  0  0  0
  190.5870  176.7350  146.8490 C   0  0  2  0  0  3  0  0  0  0  0  0
  190.5390  175.2170  146.7170 C   0  0  0  0  0  2  0  0  0  0  0  0
  191.8990  177.1500  148.0300 S   0  0  0  0  0  0  0  0  0  0  0  0
  189.0280  177.3170  147.4680 Cl  0  0  0  0  0  0  0  0  0  0  0  0
  193.1730  176.5300  146.9300 C   0  0  0  0  0  0  0  0  0  0  0  0
  1 13  1  0  0  0  0
  2 19  1  0  0  0  0
  4  9  1  0  0  0  0
  6 30  1  1  0  0  0
  7 15  1  0  0  0  0
  8  7  2  0  0  0  0
  9 15  1  0  0  0  0
 10  7  1  0  0  0  0
 10 22  1  0  0  0  0
 12 20  2  0  0  0  0
 13  2  1  1  0  0  0
 13  6  1  0  0  0  0
 15 14  1  0  0  0  0
 16  3  1  6  0  0  0
 16  6  1  0  0  0  0
 17  4  1  1  0  0  0
 17 14  1  0  0  0  0
 18  1  1  1  0  0  0
 18 16  1  0  0  0  0
 19  8  1  0  0  0  0
 19 11  1  1  0  0  0
 20 18  1  0  0  0  0
 20 17  1  0  0  0  0
 20  5  2  0  0  0  0
 21 22  1  0  0  0  0
 22 23  1  0  0  0  0
 23 27  1  0  0  0  0
 24 27  1  0  0  0  0
 24 28  2  0  0  0  0
 25 26  1  0  0  0  0
 27 29  2  0  0  0  0
 28 26  1  0  0  0  0
 29 25  1  0  0  0  0
 30 32  1  0  0  0  0
 32 31  1  6  0  0  0
 32 33  1  0  0  0  0
 33 37  1  0  0  0  0
 33 34  1  1  0  0  0
 35 42  2  0  0  0  0
 36 37  2  0  0  0  0
 36 39  1  0  0  0  0
 37 42  1  0  0  0  0
 38 41  1  1  0  0  0
 38 40  1  0  0  0  0
 39 38  1  0  0  0  0
 42 40  1  0  0  0  0
M  END
>  <MODEL>
9

>  <REMARK>
 VINA RESULT:      -7.2      2.533      5.819
  Name = 
  7 active torsions:
  status: ('A' for Active; 'I' for Inactive)
    1  A    between atoms: C_8  and  C_24
    2  A    between atoms: C_8  and  O_38
    3  A    between atoms: C_11  and  O_38
    4  A    between atoms: C_16  and  C_34
    5  A    between atoms: N_18  and  N_25
    6  A    between atoms: C_22  and  C_24
    7  A    between atoms: N_25  and  C_34
                            x       y       z     vdW  Elec       q    Type
                         _______ _______ _______ _____ _____    ______ ____

>  <TORSDO>
F 7

$$$$
