=
 OpenBabel11062420173D

 25 27  0  0  1  0  0  0  0  0999 V2000
  188.6310  174.9140  144.6010 F   0  0  0  0  0  0  0  0  0  0  0  0
  191.1070  175.9420  147.7450 C   0  0  0  0  0  2  0  0  0  0  0  0
  191.7030  175.2090  146.6140 N   0  0  1  0  0  0  0  0  0  0  0  0
  190.6330  174.5770  145.8260 C   0  0  0  0  0  2  0  0  0  0  0  0
  189.0170  176.4000  146.4440 C   0  0  2  0  0  3  0  0  0  0  0  0
  190.1260  177.0210  147.2850 C   0  0  0  0  0  2  0  0  0  0  0  0
  189.6200  175.5920  145.2880 C   0  0  2  0  0  3  0  0  0  0  0  0
  187.0560  178.5750  147.8670 O   0  0  0  0  0  1  0  0  0  0  0  0
  184.4550  177.4340  146.4630 N   0  0  0  0  0  1  0  0  0  0  0  0
  185.6950  178.0250  145.9930 C   0  0  1  0  0  3  0  0  0  0  0  0
  187.5390  177.2990  144.5630 C   0  0  0  0  0  2  0  0  0  0  0  0
  188.0500  177.4980  145.9850 C   0  0  1  0  0  3  0  0  0  0  0  0
  186.8370  177.6060  146.8880 C   0  0  1  0  0  3  0  0  0  0  0  0
  186.0320  177.4930  144.6120 C   0  0  2  0  0  3  0  0  0  0  0  0
  185.5680  178.4280  143.5380 C   0  0  0  0  0  0  0  0  0  0  0  0
  185.7270  179.6290  143.6840 O   0  0  0  0  0  0  0  0  0  0  0  0
  184.9160  177.9070  142.2920 C   0  0  0  0  0  3  0  0  0  0  0  0
  185.5410  178.4440  141.1670 O   0  0  0  0  0  1  0  0  0  0  0  0
  183.5630  178.2470  142.2840 O   0  0  0  0  0  1  0  0  0  0  0  0
  192.5320  176.0930  145.7760 C   0  0  1  0  0  3  0  0  0  0  0  0
  194.6950  176.2400  144.5480 C   0  0  1  0  0  3  0  0  0  0  0  0
  195.6170  176.4370  143.4840 N   0  0  0  0  0  1  0  0  0  0  0  0
  193.7000  176.6770  146.5730 C   0  0  0  0  0  2  0  0  0  0  0  0
  194.7730  176.9280  145.6320 N   0  0  0  0  0  2  0  0  0  0  0  0
  193.2800  175.1770  144.3790 S   0  0  0  0  0  0  0  0  0  0  0  0
  3  4  1  6  0  0  0
  3  2  1  0  0  0  0
  5  6  1  6  0  0  0
  6  2  1  0  0  0  0
  7  1  1  1  0  0  0
  7  4  1  0  0  0  0
  7  5  1  0  0  0  0
 10  9  1  1  0  0  0
 10 13  1  0  0  0  0
 11 14  1  0  0  0  0
 12 11  1  6  0  0  0
 12  5  1  0  0  0  0
 12 13  1  0  0  0  0
 13  8  1  1  0  0  0
 14 15  1  6  0  0  0
 14 10  1  0  0  0  0
 15 16  2  0  0  0  0
 17 15  1  0  0  0  0
 18 17  1  0  0  0  0
 19 17  1  0  0  0  0
 20 23  1  1  0  0  0
 20  3  1  0  0  0  0
 21 22  1  6  0  0  0
 21 24  1  0  0  0  0
 24 23  1  0  0  0  0
 25 21  1  0  0  0  0
 25 20  1  0  0  0  0
M  END
>  <MODEL>
1

>  <REMARK>
 VINA RESULT:      -7.3      0.000      0.000
  Name = 
  4 active torsions:
  status: ('A' for Active; 'I' for Inactive)
    1  A    between atoms: C_1  and  C_3
    2  A    between atoms: C_1  and  C_23
    3  A    between atoms: N_6  and  C_9
    4  A    between atoms: C_12  and  C_19
                            x       y       z     vdW  Elec       q    Type
                         _______ _______ _______ _____ _____    ______ ____

>  <TORSDO>
F 4

$$$$
=
 OpenBabel11062420173D

 25 27  0  0  1  0  0  0  0  0999 V2000
  187.6280  175.4440  147.5530 F   0  0  0  0  0  0  0  0  0  0  0  0
  191.3580  176.0950  145.8990 C   0  0  0  0  0  2  0  0  0  0  0  0
  190.8450  174.7140  145.9100 N   0  0  1  0  0  0  0  0  0  0  0  0
  189.7450  174.6120  146.8830 C   0  0  0  0  0  2  0  0  0  0  0  0
  189.1110  177.0160  146.5110 C   0  0  2  0  0  3  0  0  0  0  0  0
  190.2770  177.1140  145.5340 C   0  0  0  0  0  2  0  0  0  0  0  0
  188.5930  175.5720  146.5720 C   0  0  2  0  0  3  0  0  0  0  0  0
  186.8800  178.8080  148.0620 O   0  0  0  0  0  1  0  0  0  0  0  0
  184.4610  177.5210  146.4710 N   0  0  0  0  0  1  0  0  0  0  0  0
  185.6350  178.2910  146.1000 C   0  0  1  0  0  3  0  0  0  0  0  0
  187.5830  177.9200  144.6720 C   0  0  0  0  0  2  0  0  0  0  0  0
  188.0350  178.0360  146.1230 C   0  0  1  0  0  3  0  0  0  0  0  0
  186.7970  177.9190  146.9910 C   0  0  1  0  0  3  0  0  0  0  0  0
  186.0630  177.9360  144.6880 C   0  0  2  0  0  3  0  0  0  0  0  0
  185.5180  178.9120  143.6910 C   0  0  0  0  0  0  0  0  0  0  0  0
  185.5680  180.1070  143.9380 O   0  0  0  0  0  0  0  0  0  0  0  0
  184.9210  178.4400  142.3990 C   0  0  0  0  0  3  0  0  0  0  0  0
  183.5600  178.1870  142.5690 O   0  0  0  0  0  1  0  0  0  0  0  0
  185.5650  177.2770  141.9740 O   0  0  0  0  0  1  0  0  0  0  0  0
  190.4110  174.2900  144.5680 C   0  0  1  0  0  3  0  0  0  0  0  0
  190.5240  172.4210  142.9230 C   0  0  1  0  0  3  0  0  0  0  0  0
  190.1000  171.4120  142.0160 N   0  0  0  0  0  1  0  0  0  0  0  0
  191.5620  174.3700  143.5630 C   0  0  0  0  0  2  0  0  0  0  0  0
  191.3070  173.3690  142.5460 N   0  0  0  0  0  2  0  0  0  0  0  0
  189.8580  172.5450  144.5670 S   0  0  0  0  0  0  0  0  0  0  0  0
  3  2  1  6  0  0  0
  3  4  1  0  0  0  0
  5  6  1  6  0  0  0
  5  7  1  0  0  0  0
  6  2  1  0  0  0  0
  7  4  1  0  0  0  0
  7  1  1  1  0  0  0
 10  9  1  1  0  0  0
 10 13  1  0  0  0  0
 11 14  1  0  0  0  0
 12 11  1  6  0  0  0
 12  5  1  0  0  0  0
 12 13  1  0  0  0  0
 13  8  1  1  0  0  0
 14 15  1  6  0  0  0
 14 10  1  0  0  0  0
 15 16  2  0  0  0  0
 17 18  1  0  0  0  0
 17 15  1  0  0  0  0
 19 17  1  0  0  0  0
 20 23  1  6  0  0  0
 20  3  1  0  0  0  0
 21 22  1  6  0  0  0
 21 25  1  0  0  0  0
 24 21  1  0  0  0  0
 24 23  1  0  0  0  0
 25 20  1  0  0  0  0
M  END
>  <MODEL>
2

>  <REMARK>
 VINA RESULT:      -7.1      2.198      2.896
  Name = 
  4 active torsions:
  status: ('A' for Active; 'I' for Inactive)
    1  A    between atoms: C_1  and  C_3
    2  A    between atoms: C_1  and  C_23
    3  A    between atoms: N_6  and  C_9
    4  A    between atoms: C_12  and  C_19
                            x       y       z     vdW  Elec       q    Type
                         _______ _______ _______ _____ _____    ______ ____

>  <TORSDO>
F 4

$$$$
=
 OpenBabel11062420173D

 25 27  0  0  1  0  0  0  0  0999 V2000
  189.2120  173.6810  146.4850 F   0  0  0  0  0  0  0  0  0  0  0  0
  190.7800  177.3170  147.6650 C   0  0  0  0  0  2  0  0  0  0  0  0
  191.6970  176.1650  147.5950 N   0  0  1  0  0  0  0  0  0  0  0  0
  190.9130  174.9200  147.5780 C   0  0  0  0  0  2  0  0  0  0  0  0
  188.9970  176.0690  146.4250 C   0  0  2  0  0  3  0  0  0  0  0  0
  189.8090  177.3580  146.4840 C   0  0  0  0  0  2  0  0  0  0  0  0
  189.9360  174.8550  146.4000 C   0  0  2  0  0  3  0  0  0  0  0  0
  189.0610  175.1880  143.2920 O   0  0  0  0  0  1  0  0  0  0  0  0
  188.5380  178.1360  142.2540 N   0  0  0  0  0  1  0  0  0  0  0  0
  187.8020  177.1970  143.0820 C   0  0  1  0  0  3  0  0  0  0  0  0
  186.9540  177.1890  145.3740 C   0  0  0  0  0  2  0  0  0  0  0  0
  188.0370  176.1250  145.2320 C   0  0  1  0  0  3  0  0  0  0  0  0
  188.7620  176.3930  143.9270 C   0  0  1  0  0  3  0  0  0  0  0  0
  186.9190  177.9510  144.0590 C   0  0  2  0  0  3  0  0  0  0  0  0
  185.5190  178.0800  143.5420 C   0  0  0  0  0  0  0  0  0  0  0  0
  185.0740  177.2140  142.8060 O   0  0  0  0  0  0  0  0  0  0  0  0
  184.6640  179.2520  143.9200 C   0  0  0  0  0  3  0  0  0  0  0  0
  185.4670  180.3630  144.1800 O   0  0  0  0  0  1  0  0  0  0  0  0
  183.9080  178.9450  145.0530 O   0  0  0  0  0  1  0  0  0  0  0  0
  192.5830  176.2530  146.4220 C   0  0  1  0  0  3  0  0  0  0  0  0
  194.7490  175.4540  145.4830 C   0  0  1  0  0  3  0  0  0  0  0  0
  195.6810  174.8670  144.5830 N   0  0  0  0  0  1  0  0  0  0  0  0
  193.7910  177.1480  146.7060 C   0  0  0  0  0  2  0  0  0  0  0  0
  194.8770  176.6740  145.8710 N   0  0  0  0  0  2  0  0  0  0  0  0
  193.2630  174.6130  145.9760 S   0  0  0  0  0  0  0  0  0  0  0  0
  3  4  1  6  0  0  0
  3  2  1  0  0  0  0
  5  6  1  6  0  0  0
  6  2  1  0  0  0  0
  7  5  1  0  0  0  0
  7  1  1  1  0  0  0
  7  4  1  0  0  0  0
 10  9  1  6  0  0  0
 10 13  1  0  0  0  0
 10 14  1  0  0  0  0
 12 11  1  1  0  0  0
 12  5  1  0  0  0  0
 13  8  1  6  0  0  0
 13 12  1  0  0  0  0
 14 15  1  6  0  0  0
 14 11  1  0  0  0  0
 15 17  1  0  0  0  0
 16 15  2  0  0  0  0
 17 18  1  0  0  0  0
 17 19  1  0  0  0  0
 20 23  1  1  0  0  0
 20  3  1  0  0  0  0
 21 22  1  6  0  0  0
 21 24  1  0  0  0  0
 21 25  1  0  0  0  0
 24 23  1  0  0  0  0
 25 20  1  0  0  0  0
M  END
>  <MODEL>
3

>  <REMARK>
 VINA RESULT:      -7.1      2.032      2.534
  Name = 
  4 active torsions:
  status: ('A' for Active; 'I' for Inactive)
    1  A    between atoms: C_1  and  C_3
    2  A    between atoms: C_1  and  C_23
    3  A    between atoms: N_6  and  C_9
    4  A    between atoms: C_12  and  C_19
                            x       y       z     vdW  Elec       q    Type
                         _______ _______ _______ _____ _____    ______ ____

>  <TORSDO>
F 4

$$$$
=
 OpenBabel11062420173D

 25 27  0  0  1  0  0  0  0  0999 V2000
  189.1080  176.4480  142.1440 F   0  0  0  0  0  0  0  0  0  0  0  0
  190.6200  173.8880  145.0140 C   0  0  0  0  0  2  0  0  0  0  0  0
  191.5120  174.2840  143.9100 N   0  0  1  0  0  0  0  0  0  0  0  0
  190.7060  174.8250  142.8030 C   0  0  0  0  0  2  0  0  0  0  0  0
  188.9560  175.6580  144.4040 C   0  0  2  0  0  3  0  0  0  0  0  0
  189.7850  175.0600  145.5340 C   0  0  0  0  0  2  0  0  0  0  0  0
  189.8630  176.0330  143.2240 C   0  0  2  0  0  3  0  0  0  0  0  0
  189.0750  177.6460  146.9790 O   0  0  0  0  0  1  0  0  0  0  0  0
  186.2040  176.7910  148.0130 N   0  0  0  0  0  1  0  0  0  0  0  0
  186.7120  177.4140  146.8040 C   0  0  1  0  0  3  0  0  0  0  0  0
  186.7020  176.8630  144.4230 C   0  0  0  0  0  2  0  0  0  0  0  0
  188.1350  176.8350  144.9420 C   0  0  1  0  0  3  0  0  0  0  0  0
  188.0650  176.8390  146.4570 C   0  0  1  0  0  3  0  0  0  0  0  0
  185.8060  177.0840  145.6320 C   0  0  2  0  0  3  0  0  0  0  0  0
  184.8160  178.1800  145.3810 C   0  0  0  0  0  0  0  0  0  0  0  0
  184.0270  178.4830  146.2620 O   0  0  0  0  0  0  0  0  0  0  0  0
  184.7860  178.9050  144.0690 C   0  0  0  0  0  3  0  0  0  0  0  0
  185.3650  180.1660  144.2080 O   0  0  0  0  0  1  0  0  0  0  0  0
  183.4680  179.0410  143.6300 O   0  0  0  0  0  1  0  0  0  0  0  0
  192.5240  175.2560  144.3570 C   0  0  1  0  0  3  0  0  0  0  0  0
  194.9210  175.8990  144.1330 C   0  0  1  0  0  3  0  0  0  0  0  0
  196.0750  176.6930  143.8870 N   0  0  0  0  0  1  0  0  0  0  0  0
  193.4680  174.6370  145.3900 C   0  0  0  0  0  2  0  0  0  0  0  0
  194.7380  175.3240  145.2690 N   0  0  0  0  0  2  0  0  0  0  0  0
  193.5820  175.8030  142.9670 S   0  0  0  0  0  0  0  0  0  0  0  0
  2  6  1  0  0  0  0
  3  4  1  6  0  0  0
  3 20  1  0  0  0  0
  3  2  1  0  0  0  0
  4  7  1  0  0  0  0
  5 12  1  0  0  0  0
  5  6  1  1  0  0  0
  7  1  1  6  0  0  0
  7  5  1  0  0  0  0
 10  9  1  1  0  0  0
 11 14  1  0  0  0  0
 12 11  1  6  0  0  0
 12 13  1  0  0  0  0
 13 10  1  0  0  0  0
 13  8  1  1  0  0  0
 14 15  1  6  0  0  0
 14 10  1  0  0  0  0
 15 16  2  0  0  0  0
 17 18  1  0  0  0  0
 17 15  1  0  0  0  0
 19 17  1  0  0  0  0
 20 23  1  1  0  0  0
 21 22  1  1  0  0  0
 21 24  1  0  0  0  0
 24 23  1  0  0  0  0
 25 21  1  0  0  0  0
 25 20  1  0  0  0  0
M  END
>  <MODEL>
4

>  <REMARK>
 VINA RESULT:      -6.9      1.790      2.208
  Name = 
  4 active torsions:
  status: ('A' for Active; 'I' for Inactive)
    1  A    between atoms: C_1  and  C_3
    2  A    between atoms: C_1  and  C_23
    3  A    between atoms: N_6  and  C_9
    4  A    between atoms: C_12  and  C_19
                            x       y       z     vdW  Elec       q    Type
                         _______ _______ _______ _____ _____    ______ ____

>  <TORSDO>
F 4

$$$$
=
 OpenBabel11062420173D

 25 27  0  0  1  0  0  0  0  0999 V2000
  191.5670  178.8480  143.4350 F   0  0  0  0  0  0  0  0  0  0  0  0
  191.0170  174.7670  143.0880 C   0  0  0  0  0  2  0  0  0  0  0  0
  192.4000  175.2760  143.0780 N   0  0  1  0  0  0  0  0  0  0  0  0
  192.3860  176.7180  142.7880 C   0  0  0  0  0  2  0  0  0  0  0  0
  190.1290  176.9760  143.8660 C   0  0  2  0  0  3  0  0  0  0  0  0
  190.1450  175.4740  144.1270 C   0  0  0  0  0  2  0  0  0  0  0  0
  191.5650  177.5160  143.8050 C   0  0  2  0  0  3  0  0  0  0  0  0
  190.1450  177.2980  147.1060 O   0  0  0  0  0  1  0  0  0  0  0  0
  187.2960  175.9530  147.4440 N   0  0  0  0  0  1  0  0  0  0  0  0
  187.7940  177.1350  146.7650 C   0  0  1  0  0  3  0  0  0  0  0  0
  187.8320  177.9300  144.4540 C   0  0  0  0  0  2  0  0  0  0  0  0
  189.2590  177.6670  144.9220 C   0  0  1  0  0  3  0  0  0  0  0  0
  189.1720  176.8650  146.2050 C   0  0  1  0  0  3  0  0  0  0  0  0
  186.9150  177.4540  145.5700 C   0  0  2  0  0  3  0  0  0  0  0  0
  185.8880  178.4910  145.9090 C   0  0  0  0  0  0  0  0  0  0  0  0
  185.9320  179.0380  146.9990 O   0  0  0  0  0  0  0  0  0  0  0  0
  184.8160  178.8620  144.9280 C   0  0  0  0  0  3  0  0  0  0  0  0
  185.1640  180.0380  144.2640 O   0  0  0  0  0  1  0  0  0  0  0  0
  183.6030  179.0400  145.5930 O   0  0  0  0  0  1  0  0  0  0  0  0
  193.0850  174.9960  144.3520 C   0  0  1  0  0  3  0  0  0  0  0  0
  195.2270  174.1900  145.3400 C   0  0  1  0  0  3  0  0  0  0  0  0
  196.4040  174.1620  146.1370 N   0  0  0  0  0  1  0  0  0  0  0  0
  193.1580  173.4920  144.6230 C   0  0  0  0  0  2  0  0  0  0  0  0
  194.3410  173.2610  145.4270 N   0  0  0  0  0  2  0  0  0  0  0  0
  194.8160  175.5890  144.3210 S   0  0  0  0  0  0  0  0  0  0  0  0
  2  6  1  0  0  0  0
  3  4  1  1  0  0  0
  3  2  1  0  0  0  0
  3 20  1  0  0  0  0
  4  7  1  0  0  0  0
  5  6  1  1  0  0  0
  5 12  1  0  0  0  0
  7  1  1  6  0  0  0
  7  5  1  0  0  0  0
 10  9  1  6  0  0  0
 11 14  1  0  0  0  0
 12 11  1  6  0  0  0
 12 13  1  0  0  0  0
 13 10  1  0  0  0  0
 13  8  1  1  0  0  0
 14 15  1  1  0  0  0
 14 10  1  0  0  0  0
 15 16  2  0  0  0  0
 17 19  1  0  0  0  0
 17 15  1  0  0  0  0
 18 17  1  0  0  0  0
 20 23  1  6  0  0  0
 21 24  1  0  0  0  0
 21 22  1  1  0  0  0
 23 24  1  0  0  0  0
 25 20  1  0  0  0  0
 25 21  1  0  0  0  0
M  END
>  <MODEL>
5

>  <REMARK>
 VINA RESULT:      -6.9      2.462      3.159
  Name = 
  4 active torsions:
  status: ('A' for Active; 'I' for Inactive)
    1  A    between atoms: C_1  and  C_3
    2  A    between atoms: C_1  and  C_23
    3  A    between atoms: N_6  and  C_9
    4  A    between atoms: C_12  and  C_19
                            x       y       z     vdW  Elec       q    Type
                         _______ _______ _______ _____ _____    ______ ____

>  <TORSDO>
F 4

$$$$
=
 OpenBabel11062420173D

 25 27  0  0  1  0  0  0  0  0999 V2000
  190.1260  174.8360  147.6800 F   0  0  0  0  0  0  0  0  0  0  0  0
  192.5810  176.9290  145.0980 C   0  0  0  0  0  2  0  0  0  0  0  0
  193.1010  175.6760  145.6740 N   0  0  1  0  0  0  0  0  0  0  0  0
  192.2960  175.3110  146.8510 C   0  0  0  0  0  2  0  0  0  0  0  0
  190.2570  176.4100  145.8740 C   0  0  2  0  0  3  0  0  0  0  0  0
  191.1140  176.8100  144.6790 C   0  0  0  0  0  2  0  0  0  0  0  0
  190.8120  175.1310  146.5180 C   0  0  2  0  0  3  0  0  0  0  0  0
  188.6330  175.0240  143.4170 O   0  0  0  0  0  1  0  0  0  0  0  0
  187.3960  177.7710  142.4340 N   0  0  0  0  0  1  0  0  0  0  0  0
  187.3200  176.9960  143.6590 C   0  0  1  0  0  3  0  0  0  0  0  0
  187.8960  177.3800  146.0020 C   0  0  0  0  0  2  0  0  0  0  0  0
  188.7940  176.2870  145.4340 C   0  0  1  0  0  3  0  0  0  0  0  0
  188.6470  176.3230  143.9250 C   0  0  1  0  0  3  0  0  0  0  0  0
  187.0760  177.9160  144.8400 C   0  0  2  0  0  3  0  0  0  0  0  0
  185.6200  177.9850  145.1870 C   0  0  0  0  0  0  0  0  0  0  0  0
  185.1440  177.1390  145.9280 O   0  0  0  0  0  0  0  0  0  0  0  0
  184.7490  179.0750  144.6390 C   0  0  0  0  0  3  0  0  0  0  0  0
  184.0370  178.6070  143.5350 O   0  0  0  0  0  1  0  0  0  0  0  0
  185.5330  180.1670  144.2630 O   0  0  0  0  0  1  0  0  0  0  0  0
  193.1130  174.5900  144.6790 C   0  0  1  0  0  3  0  0  0  0  0  0
  194.4810  172.7110  143.7800 C   0  0  1  0  0  3  0  0  0  0  0  0
  194.8480  171.3970  143.3800 N   0  0  0  0  0  1  0  0  0  0  0  0
  194.0050  174.9410  143.4870 C   0  0  0  0  0  2  0  0  0  0  0  0
  194.5030  173.6910  142.9470 N   0  0  0  0  0  2  0  0  0  0  0  0
  193.7970  173.0460  145.3860 S   0  0  0  0  0  0  0  0  0  0  0  0
  3  2  1  6  0  0  0
  3  4  1  0  0  0  0
  5  6  1  6  0  0  0
  5  7  1  0  0  0  0
  6  2  1  0  0  0  0
  7  4  1  0  0  0  0
  7  1  1  1  0  0  0
 10  9  1  6  0  0  0
 10 13  1  0  0  0  0
 10 14  1  0  0  0  0
 12  5  1  0  0  0  0
 12 11  1  1  0  0  0
 13  8  1  1  0  0  0
 13 12  1  0  0  0  0
 14 15  1  1  0  0  0
 14 11  1  0  0  0  0
 15 16  2  0  0  0  0
 17 15  1  0  0  0  0
 18 17  1  0  0  0  0
 19 17  1  0  0  0  0
 20 23  1  6  0  0  0
 20 25  1  0  0  0  0
 20  3  1  0  0  0  0
 21 22  1  6  0  0  0
 21 25  1  0  0  0  0
 24 23  1  0  0  0  0
 24 21  1  0  0  0  0
M  END
>  <MODEL>
6

>  <REMARK>
 VINA RESULT:      -6.8      2.502      3.166
  Name = 
  4 active torsions:
  status: ('A' for Active; 'I' for Inactive)
    1  A    between atoms: C_1  and  C_3
    2  A    between atoms: C_1  and  C_23
    3  A    between atoms: N_6  and  C_9
    4  A    between atoms: C_12  and  C_19
                            x       y       z     vdW  Elec       q    Type
                         _______ _______ _______ _____ _____    ______ ____

>  <TORSDO>
F 4

$$$$
=
 OpenBabel11062420173D

 25 27  0  0  1  0  0  0  0  0999 V2000
  188.8040  174.3680  143.4330 F   0  0  0  0  0  0  0  0  0  0  0  0
  187.6840  177.9140  141.6320 C   0  0  0  0  0  2  0  0  0  0  0  0
  186.6970  177.2420  142.4950 N   0  0  1  0  0  0  0  0  0  0  0  0
  187.0980  175.8400  142.6940 C   0  0  0  0  0  2  0  0  0  0  0  0
  189.5290  176.4390  142.4650 C   0  0  2  0  0  3  0  0  0  0  0  0
  189.0930  177.8800  142.2260 C   0  0  0  0  0  2  0  0  0  0  0  0
  188.4880  175.7090  143.3240 C   0  0  2  0  0  3  0  0  0  0  0  0
  192.4360  175.2100  141.6670 O   0  0  0  0  0  1  0  0  0  0  0  0
  192.6410  173.4750  144.3100 N   0  0  0  0  0  1  0  0  0  0  0  0
  192.5390  174.8940  144.0250 C   0  0  1  0  0  3  0  0  0  0  0  0
  190.9560  176.6730  144.5730 C   0  0  0  0  0  2  0  0  0  0  0  0
  190.9380  176.4270  143.0690 C   0  0  1  0  0  3  0  0  0  0  0  0
  191.6550  175.1150  142.8190 C   0  0  1  0  0  3  0  0  0  0  0  0
  191.8560  175.6070  145.1770 C   0  0  2  0  0  3  0  0  0  0  0  0
  192.8560  176.2080  146.1170 C   0  0  0  0  0  0  0  0  0  0  0  0
  192.4880  176.5760  147.2210 O   0  0  0  0  0  0  0  0  0  0  0  0
  194.2930  176.3580  145.7180 C   0  0  0  0  0  3  0  0  0  0  0  0
  195.0760  175.4280  146.4010 O   0  0  0  0  0  1  0  0  0  0  0  0
  194.7360  177.6490  146.0110 O   0  0  0  0  0  1  0  0  0  0  0  0
  186.5450  177.9400  143.7830 C   0  0  1  0  0  3  0  0  0  0  0  0
  184.9200  178.4620  145.6000 C   0  0  1  0  0  3  0  0  0  0  0  0
  184.3560  178.5580  146.9010 N   0  0  0  0  0  1  0  0  0  0  0  0
  185.7720  179.2500  143.6160 C   0  0  0  0  0  2  0  0  0  0  0  0
  185.0950  179.5070  144.8710 N   0  0  0  0  0  2  0  0  0  0  0  0
  185.5860  176.9360  144.9760 S   0  0  0  0  0  0  0  0  0  0  0  0
  2  6  1  0  0  0  0
  3  2  1  6  0  0  0
  3  4  1  0  0  0  0
  3 20  1  0  0  0  0
  4  7  1  0  0  0  0
  5  6  1  1  0  0  0
  5 12  1  0  0  0  0
  5  7  1  0  0  0  0
  7  1  1  6  0  0  0
 10  9  1  1  0  0  0
 10 14  1  0  0  0  0
 11 14  1  0  0  0  0
 12 11  1  1  0  0  0
 13  8  1  6  0  0  0
 13 12  1  0  0  0  0
 13 10  1  0  0  0  0
 14 15  1  1  0  0  0
 15 16  2  0  0  0  0
 17 19  1  0  0  0  0
 17 15  1  0  0  0  0
 17 18  1  0  0  0  0
 20 23  1  6  0  0  0
 20 25  1  0  0  0  0
 21 22  1  1  0  0  0
 23 24  1  0  0  0  0
 24 21  1  0  0  0  0
 25 21  1  0  0  0  0
M  END
>  <MODEL>
7

>  <REMARK>
 VINA RESULT:      -6.8      4.063      7.859
  Name = 
  4 active torsions:
  status: ('A' for Active; 'I' for Inactive)
    1  A    between atoms: C_1  and  C_3
    2  A    between atoms: C_1  and  C_23
    3  A    between atoms: N_6  and  C_9
    4  A    between atoms: C_12  and  C_19
                            x       y       z     vdW  Elec       q    Type
                         _______ _______ _______ _____ _____    ______ ____

>  <TORSDO>
F 4

$$$$
=
 OpenBabel11062420173D

 25 27  0  0  1  0  0  0  0  0999 V2000
  190.3680  173.1040  144.9410 F   0  0  0  0  0  0  0  0  0  0  0  0
  191.8590  176.5270  146.7100 C   0  0  0  0  0  2  0  0  0  0  0  0
  192.8250  175.4990  146.2840 N   0  0  1  0  0  0  0  0  0  0  0  0
  192.1200  174.2230  146.0810 C   0  0  0  0  0  2  0  0  0  0  0  0
  190.0080  175.4230  145.4350 C   0  0  2  0  0  3  0  0  0  0  0  0
  190.7430  176.7350  145.6840 C   0  0  0  0  0  2  0  0  0  0  0  0
  191.0050  174.3260  145.0360 C   0  0  2  0  0  3  0  0  0  0  0  0
  189.7350  175.2900  142.1930 O   0  0  0  0  0  1  0  0  0  0  0  0
  188.8600  178.3260  141.9500 N   0  0  0  0  0  1  0  0  0  0  0  0
  188.3100  177.1520  142.6050 C   0  0  1  0  0  3  0  0  0  0  0  0
  187.7670  176.5340  144.9050 C   0  0  0  0  0  2  0  0  0  0  0  0
  188.9000  175.6500  144.3990 C   0  0  1  0  0  3  0  0  0  0  0  0
  189.4290  176.2810  143.1260 C   0  0  1  0  0  3  0  0  0  0  0  0
  187.5050  177.5680  143.8220 C   0  0  2  0  0  3  0  0  0  0  0  0
  186.0440  177.6640  143.5040 C   0  0  0  0  0  0  0  0  0  0  0  0
  185.5840  176.9810  142.6030 O   0  0  0  0  0  0  0  0  0  0  0  0
  185.1470  178.5820  144.2780 C   0  0  0  0  0  3  0  0  0  0  0  0
  185.8840  179.6520  144.7850 O   0  0  0  0  0  1  0  0  0  0  0  0
  184.5460  177.8870  145.3290 O   0  0  0  0  0  1  0  0  0  0  0  0
  193.5470  175.9080  145.0670 C   0  0  1  0  0  3  0  0  0  0  0  0
  195.7440  175.7720  143.8990 C   0  0  1  0  0  3  0  0  0  0  0  0
  196.7030  175.5210  142.8800 N   0  0  0  0  0  1  0  0  0  0  0  0
  194.5160  177.0560  145.3570 C   0  0  0  0  0  2  0  0  0  0  0  0
  195.6010  176.9470  144.4030 N   0  0  0  0  0  2  0  0  0  0  0  0
  194.5670  174.5400  144.4050 S   0  0  0  0  0  0  0  0  0  0  0  0
  3  4  1  6  0  0  0
  3  2  1  0  0  0  0
  5  6  1  6  0  0  0
  6  2  1  0  0  0  0
  7  1  1  1  0  0  0
  7  5  1  0  0  0  0
  7  4  1  0  0  0  0
 10  9  1  1  0  0  0
 10 13  1  0  0  0  0
 10 14  1  0  0  0  0
 12 11  1  1  0  0  0
 12  5  1  0  0  0  0
 13  8  1  6  0  0  0
 13 12  1  0  0  0  0
 14 15  1  6  0  0  0
 14 11  1  0  0  0  0
 15 17  1  0  0  0  0
 16 15  2  0  0  0  0
 17 18  1  0  0  0  0
 17 19  1  0  0  0  0
 20 23  1  1  0  0  0
 20  3  1  0  0  0  0
 21 22  1  6  0  0  0
 21 24  1  0  0  0  0
 21 25  1  0  0  0  0
 24 23  1  0  0  0  0
 25 20  1  0  0  0  0
M  END
>  <MODEL>
8

>  <REMARK>
 VINA RESULT:      -6.6      2.194      2.934
  Name = 
  4 active torsions:
  status: ('A' for Active; 'I' for Inactive)
    1  A    between atoms: C_1  and  C_3
    2  A    between atoms: C_1  and  C_23
    3  A    between atoms: N_6  and  C_9
    4  A    between atoms: C_12  and  C_19
                            x       y       z     vdW  Elec       q    Type
                         _______ _______ _______ _____ _____    ______ ____

>  <TORSDO>
F 4

$$$$
=
 OpenBabel11062420173D

 25 27  0  0  1  0  0  0  0  0999 V2000
  189.2410  174.2580  146.1110 F   0  0  0  0  0  0  0  0  0  0  0  0
  192.5480  175.6740  144.0780 C   0  0  0  0  0  2  0  0  0  0  0  0
  192.0950  174.3040  143.7800 N   0  0  1  0  0  0  0  0  0  0  0  0
  191.2120  173.8380  144.8610 C   0  0  0  0  0  2  0  0  0  0  0  0
  190.4350  176.1840  145.3210 C   0  0  2  0  0  3  0  0  0  0  0  0
  191.3810  176.6530  144.2220 C   0  0  0  0  0  2  0  0  0  0  0  0
  189.9890  174.7390  145.0530 C   0  0  2  0  0  3  0  0  0  0  0  0
  189.2430  178.1660  147.6120 O   0  0  0  0  0  1  0  0  0  0  0  0
  186.4100  176.7480  147.6370 N   0  0  0  0  0  1  0  0  0  0  0  0
  187.1900  177.4560  146.6380 C   0  0  1  0  0  3  0  0  0  0  0  0
  188.1400  176.9030  144.4560 C   0  0  0  0  0  2  0  0  0  0  0  0
  189.2680  177.1710  145.4440 C   0  0  1  0  0  3  0  0  0  0  0  0
  188.6600  177.1670  146.8330 C   0  0  1  0  0  3  0  0  0  0  0  0
  186.8460  176.9420  145.2520 C   0  0  2  0  0  3  0  0  0  0  0  0
  185.8230  177.8120  144.5860 C   0  0  0  0  0  0  0  0  0  0  0  0
  185.3110  177.4370  143.5440 O   0  0  0  0  0  0  0  0  0  0  0  0
  185.4240  179.1270  145.1850 C   0  0  0  0  0  3  0  0  0  0  0  0
  184.1370  179.0390  145.7140 O   0  0  0  0  0  1  0  0  0  0  0  0
  185.4630  180.1260  144.2110 O   0  0  0  0  0  1  0  0  0  0  0  0
  191.4200  174.2320  142.4730 C   0  0  1  0  0  3  0  0  0  0  0  0
  191.1220  172.8100  140.4470 C   0  0  1  0  0  3  0  0  0  0  0  0
  190.4810  172.0660  139.4200 N   0  0  0  0  0  1  0  0  0  0  0  0
  192.3980  174.5070  141.3290 C   0  0  0  0  0  2  0  0  0  0  0  0
  191.9080  173.7910  140.1690 N   0  0  0  0  0  2  0  0  0  0  0  0
  190.7400  172.5610  142.1660 S   0  0  0  0  0  0  0  0  0  0  0  0
  2  6  1  0  0  0  0
  3  2  1  1  0  0  0
  3  4  1  0  0  0  0
  4  7  1  0  0  0  0
  5  6  1  6  0  0  0
  5 12  1  0  0  0  0
  7  5  1  0  0  0  0
  7  1  1  1  0  0  0
 10 13  1  0  0  0  0
 10  9  1  1  0  0  0
 11 14  1  0  0  0  0
 12 11  1  6  0  0  0
 12 13  1  0  0  0  0
 13  8  1  1  0  0  0
 14 15  1  6  0  0  0
 14 10  1  0  0  0  0
 15 17  1  0  0  0  0
 16 15  2  0  0  0  0
 17 18  1  0  0  0  0
 19 17  1  0  0  0  0
 20 23  1  6  0  0  0
 20  3  1  0  0  0  0
 21 22  1  6  0  0  0
 21 25  1  0  0  0  0
 24 21  1  0  0  0  0
 24 23  1  0  0  0  0
 25 20  1  0  0  0  0
M  END
>  <MODEL>
9

>  <REMARK>
 VINA RESULT:      -6.6      3.017      3.662
  Name = 
  4 active torsions:
  status: ('A' for Active; 'I' for Inactive)
    1  A    between atoms: C_1  and  C_3
    2  A    between atoms: C_1  and  C_23
    3  A    between atoms: N_6  and  C_9
    4  A    between atoms: C_12  and  C_19
                            x       y       z     vdW  Elec       q    Type
                         _______ _______ _______ _____ _____    ______ ____

>  <TORSDO>
F 4

$$$$
