=
 OpenBabel11062421533D

 37 42  0  0  1  0  0  0  0  0999 V2000
  194.6770  175.4010  146.2850 O   0  0  0  0  0  1  0  0  0  0  0  0
  196.2710  175.9160  144.2770 O   0  0  0  0  0  0  0  0  0  0  0  0
  189.7270  174.2550  142.5750 C   0  0  0  0  0  0  0  0  0  0  0  0
  192.1190  174.8620  143.3860 C   0  0  0  0  0  0  0  0  0  0  0  0
  189.5180  172.9480  141.9570 C   0  0  0  0  0  3  0  0  0  0  0  0
  192.7410  173.0450  142.1640 N   0  0  0  0  0  0  0  0  0  0  0  0
  188.8200  176.3930  143.2140 N   0  0  0  0  0  2  0  0  0  0  0  0
  191.6290  173.4550  141.6550 C   0  0  0  0  0  0  0  0  0  0  0  0
  192.3240  175.9850  144.3850 C   0  0  2  0  0  3  0  0  0  0  0  0
  191.2610  177.0640  144.3480 C   0  0  0  0  0  2  0  0  0  0  0  0
  188.7880  176.9930  144.5420 C   0  0  2  0  0  3  0  0  0  0  0  0
  188.7040  174.9880  143.0010 C   0  0  0  0  0  3  0  0  0  0  0  0
  193.5840  176.5790  144.2070 O   0  0  0  0  0  0  0  0  0  0  0  0
  193.0730  173.9530  143.1990 C   0  0  0  0  0  0  0  0  0  0  0  0
  190.0990  176.6990  145.2640 C   0  0  2  0  0  3  0  0  0  0  0  0
  191.1190  174.7250  142.2620 C   0  0  1  0  0  3  0  0  0  0  0  0
  194.7240  175.4510  144.7740 P   0  0  2  0  0  0  0  0  0  0  0  0
  190.5980  172.5120  141.4020 N   0  0  0  0  0  0  0  0  0  0  0  0
  194.3170  173.8190  144.0400 C   0  0  1  0  0  3  0  0  0  0  0  0
  195.4090  172.2360  145.4880 O   0  0  0  0  0  0  0  0  0  0  0  0
  195.1790  170.9390  145.8410 N   0  0  0  0  0  2  0  0  0  0  0  0
  193.3900  171.5620  144.6110 C   0  0  0  0  0  2  0  0  0  0  0  0
  194.2000  170.4260  144.9730 N   0  0  0  0  0  2  0  0  0  0  0  0
  194.1590  172.7430  145.1210 C   0  0  2  0  0  3  0  0  0  0  0  0
  190.1740  177.5100  146.5530 C   0  0  0  0  0  2  0  0  0  0  0  0
  190.8200  176.7150  147.6750 C   0  0  0  0  0  2  0  0  0  0  0  0
  190.3910  175.3890  147.6290 O   0  0  0  0  0  1  0  0  0  0  0  0
  187.5830  176.4960  145.3460 C   0  0  0  0  0  2  0  0  0  0  0  0
  185.6520  177.5340  144.3300 O   0  0  0  0  0  0  0  0  0  0  0  0
  186.4810  177.5460  145.4650 C   0  0  1  0  0  3  0  0  0  0  0  0
  184.8270  178.6740  144.4080 C   0  0  2  0  0  3  0  0  0  0  0  0
  184.0670  178.7370  145.7510 C   0  0  0  0  0  2  0  0  0  0  0  0
  184.2560  177.5590  146.5100 O   0  0  0  0  0  0  0  0  0  0  0  0
  186.1500  178.2310  147.8740 C   0  0  0  0  0  1  0  0  0  0  0  0
  185.6400  177.3560  146.7400 C   0  0  2  0  0  3  0  0  0  0  0  0
  183.8590  178.6600  143.2730 C   0  0  0  0  0  3  0  0  0  0  0  0
  184.0390  177.9250  142.3160 O   0  0  0  0  0  0  0  0  0  0  0  0
  3 12  2  0  0  0  0
  4  9  1  0  0  0  0
  5  3  1  0  0  0  0
  6 14  1  0  0  0  0
  7 11  1  0  0  0  0
  8  6  2  0  0  0  0
  9 10  1  6  0  0  0
 10 15  1  0  0  0  0
 11 15  1  0  0  0  0
 11 28  1  1  0  0  0
 12  7  1  0  0  0  0
 13  9  1  0  0  0  0
 13 17  1  0  0  0  0
 14  4  2  0  0  0  0
 15 25  1  1  0  0  0
 16  8  1  6  0  0  0
 16  3  1  0  0  0  0
 16  4  1  0  0  0  0
 17  2  2  6  0  0  0
 17  1  1  0  0  0  0
 18  8  1  0  0  0  0
 18  5  2  0  0  0  0
 19 14  1  1  0  0  0
 19 17  1  0  0  0  0
 19 24  1  0  0  0  0
 20 21  1  0  0  0  0
 22 23  1  0  0  0  0
 23 21  1  0  0  0  0
 24 22  1  6  0  0  0
 24 20  1  0  0  0  0
 25 26  1  0  0  0  0
 27 26  1  0  0  0  0
 29 31  1  0  0  0  0
 29 30  1  0  0  0  0
 30 28  1  6  0  0  0
 30 35  1  0  0  0  0
 31 36  1  6  0  0  0
 31 32  1  0  0  0  0
 32 33  1  0  0  0  0
 33 35  1  0  0  0  0
 35 34  1  1  0  0  0
 37 36  2  0  0  0  0
M  END
>  <MODEL>
1

>  <REMARK>
 VINA RESULT:      -8.0      0.000      0.000
  Name = 
  6 active torsions:
  status: ('A' for Active; 'I' for Inactive)
    1  A    between atoms: C_8  and  C_13
    2  A    between atoms: C_12  and  C_34
    3  A    between atoms: C_17  and  C_26
    4  A    between atoms: C_18  and  C_34
    5  A    between atoms: C_24  and  C_26
    6  A    between atoms: C_33  and  C_37
                            x       y       z     vdW  Elec       q    Type
                         _______ _______ _______ _____ _____    ______ ____

>  <TORSDO>
F 6

$$$$
=
 OpenBabel11062421533D

 37 42  0  0  1  0  0  0  0  0999 V2000
  193.5400  175.7090  146.0630 O   0  0  0  0  0  1  0  0  0  0  0  0
  195.5260  176.3170  144.4730 O   0  0  0  0  0  0  0  0  0  0  0  0
  189.7900  173.9170  141.3400 C   0  0  0  0  0  0  0  0  0  0  0  0
  191.8390  174.8010  142.6680 C   0  0  0  0  0  0  0  0  0  0  0  0
  189.8630  172.5740  140.7690 C   0  0  0  0  0  3  0  0  0  0  0  0
  192.9110  173.0170  141.7450 N   0  0  0  0  0  0  0  0  0  0  0  0
  188.5570  175.9690  141.6100 N   0  0  0  0  0  2  0  0  0  0  0  0
  191.9270  173.2890  140.9580 C   0  0  0  0  0  0  0  0  0  0  0  0
  191.6850  175.9740  143.6170 C   0  0  2  0  0  3  0  0  0  0  0  0
  190.5690  176.9330  143.2590 C   0  0  0  0  0  2  0  0  0  0  0  0
  188.1430  176.6090  142.8520 C   0  0  2  0  0  3  0  0  0  0  0  0
  188.6290  174.5530  141.4600 C   0  0  0  0  0  3  0  0  0  0  0  0
  192.8890  176.6910  143.7150 O   0  0  0  0  0  0  0  0  0  0  0  0
  192.8900  173.9910  142.7730 C   0  0  0  0  0  0  0  0  0  0  0  0
  189.2560  176.4800  143.8860 C   0  0  2  0  0  3  0  0  0  0  0  0
  191.1660  174.5190  141.3460 C   0  0  1  0  0  3  0  0  0  0  0  0
  193.9540  175.7090  144.6080 P   0  0  2  0  0  0  0  0  0  0  0  0
  191.0820  172.2340  140.5200 N   0  0  0  0  0  0  0  0  0  0  0  0
  193.8950  174.0190  143.8970 C   0  0  1  0  0  3  0  0  0  0  0  0
  194.7520  172.5320  145.5860 O   0  0  0  0  0  0  0  0  0  0  0  0
  194.5090  171.2380  145.9390 N   0  0  0  0  0  2  0  0  0  0  0  0
  192.9630  171.7410  144.3720 C   0  0  0  0  0  2  0  0  0  0  0  0
  193.7320  170.6550  144.9230 N   0  0  0  0  0  2  0  0  0  0  0  0
  193.5760  172.9710  144.9700 C   0  0  2  0  0  3  0  0  0  0  0  0
  188.9340  177.3400  145.1040 C   0  0  0  0  0  2  0  0  0  0  0  0
  189.1550  176.5770  146.3990 C   0  0  0  0  0  2  0  0  0  0  0  0
  187.9940  175.8900  146.7520 O   0  0  0  0  0  1  0  0  0  0  0  0
  186.8280  176.0170  143.3690 C   0  0  0  0  0  2  0  0  0  0  0  0
  185.6520  177.3860  144.9760 O   0  0  0  0  0  0  0  0  0  0  0  0
  185.7580  177.0790  143.6080 C   0  0  1  0  0  3  0  0  0  0  0  0
  184.4970  178.1780  145.1340 C   0  0  2  0  0  3  0  0  0  0  0  0
  184.5200  179.4110  144.2060 C   0  0  0  0  0  2  0  0  0  0  0  0
  185.7620  179.5360  143.5400 O   0  0  0  0  0  0  0  0  0  0  0  0
  185.2620  178.3480  141.4810 C   0  0  0  0  0  1  0  0  0  0  0  0
  186.0250  178.3590  142.7960 C   0  0  2  0  0  3  0  0  0  0  0  0
  184.3890  178.6120  146.5580 C   0  0  0  0  0  3  0  0  0  0  0  0
  185.3750  179.0020  147.1620 O   0  0  0  0  0  0  0  0  0  0  0  0
  3 16  1  0  0  0  0
  3 12  2  0  0  0  0
  4 14  2  0  0  0  0
  4  9  1  0  0  0  0
  5  3  1  0  0  0  0
  6 14  1  0  0  0  0
  7 11  1  0  0  0  0
  8  6  2  0  0  0  0
  9 10  1  6  0  0  0
  9 13  1  0  0  0  0
 10 15  1  0  0  0  0
 11 28  1  1  0  0  0
 11 15  1  0  0  0  0
 12  7  1  0  0  0  0
 13 17  1  0  0  0  0
 15 25  1  1  0  0  0
 16  8  1  6  0  0  0
 16  4  1  0  0  0  0
 17  2  2  6  0  0  0
 17  1  1  0  0  0  0
 18  5  2  0  0  0  0
 18  8  1  0  0  0  0
 19 14  1  6  0  0  0
 19 17  1  0  0  0  0
 19 24  1  0  0  0  0
 20 21  1  0  0  0  0
 22 23  1  0  0  0  0
 23 21  1  0  0  0  0
 24 22  1  6  0  0  0
 24 20  1  0  0  0  0
 25 26  1  0  0  0  0
 26 27  1  0  0  0  0
 29 31  1  0  0  0  0
 30 28  1  1  0  0  0
 30 29  1  0  0  0  0
 31 36  1  1  0  0  0
 32 31  1  0  0  0  0
 33 32  1  0  0  0  0
 35 34  1  6  0  0  0
 35 33  1  0  0  0  0
 35 30  1  0  0  0  0
 36 37  2  0  0  0  0
M  END
>  <MODEL>
2

>  <REMARK>
 VINA RESULT:      -7.6      1.328      2.118
  Name = 
  6 active torsions:
  status: ('A' for Active; 'I' for Inactive)
    1  A    between atoms: C_8  and  C_13
    2  A    between atoms: C_12  and  C_34
    3  A    between atoms: C_17  and  C_26
    4  A    between atoms: C_18  and  C_34
    5  A    between atoms: C_24  and  C_26
    6  A    between atoms: C_33  and  C_37
                            x       y       z     vdW  Elec       q    Type
                         _______ _______ _______ _____ _____    ______ ____

>  <TORSDO>
F 6

$$$$
=
 OpenBabel11062421533D

 37 42  0  0  1  0  0  0  0  0999 V2000
  191.6580  171.9260  141.4450 O   0  0  0  0  0  0  0  0  0  0  0  0
  192.4530  169.9240  142.9290 O   0  0  0  0  0  1  0  0  0  0  0  0
  192.2110  176.1140  146.1060 C   0  0  0  0  0  0  0  0  0  0  0  0
  192.2350  173.8870  144.7710 C   0  0  0  0  0  0  0  0  0  0  0  0
  193.4910  176.7420  146.4260 C   0  0  0  0  0  3  0  0  0  0  0  0
  194.4560  173.8840  145.2680 N   0  0  0  0  0  0  0  0  0  0  0  0
  189.8110  176.1260  146.3110 N   0  0  0  0  0  2  0  0  0  0  0  0
  193.8870  174.6000  146.1780 C   0  0  0  0  0  0  0  0  0  0  0  0
  190.9830  173.4110  144.0580 C   0  0  2  0  0  3  0  0  0  0  0  0
  189.6850  173.8860  144.6770 C   0  0  0  0  0  2  0  0  0  0  0  0
  188.8200  176.1430  145.2420 C   0  0  2  0  0  3  0  0  0  0  0  0
  191.0700  176.7870  146.2050 C   0  0  0  0  0  3  0  0  0  0  0  0
  190.9640  172.0090  143.9780 O   0  0  0  0  0  0  0  0  0  0  0  0
  193.4240  173.3950  144.4320 C   0  0  0  0  0  0  0  0  0  0  0  0
  189.2850  175.2400  144.1040 C   0  0  2  0  0  3  0  0  0  0  0  0
  192.3930  174.6240  146.0800 C   0  0  1  0  0  3  0  0  0  0  0  0
  192.1500  171.5840  142.8340 P   0  0  2  0  0  0  0  0  0  0  0  0
  194.4380  175.8690  146.5010 N   0  0  0  0  0  0  0  0  0  0  0  0
  193.6840  172.5040  143.2430 C   0  0  1  0  0  3  0  0  0  0  0  0
  195.5910  173.3920  142.0730 O   0  0  0  0  0  0  0  0  0  0  0  0
  195.8870  174.5860  141.4840 N   0  0  0  0  0  2  0  0  0  0  0  0
  193.7100  174.7190  142.0700 C   0  0  0  0  0  2  0  0  0  0  0  0
  194.8980  175.5090  141.8660 N   0  0  0  0  0  2  0  0  0  0  0  0
  194.1970  173.3020  142.0380 C   0  0  2  0  0  3  0  0  0  0  0  0
  188.1600  175.0660  143.0880 C   0  0  0  0  0  2  0  0  0  0  0  0
  188.5950  175.4940  141.6960 C   0  0  0  0  0  2  0  0  0  0  0  0
  187.7490  176.4960  141.2200 O   0  0  0  0  0  1  0  0  0  0  0  0
  188.5590  177.5710  144.7510 C   0  0  0  0  0  2  0  0  0  0  0  0
  186.3080  177.8840  143.9290 O   0  0  0  0  0  0  0  0  0  0  0  0
  187.1390  178.0450  145.0520 C   0  0  1  0  0  3  0  0  0  0  0  0
  185.1020  178.5590  144.2060 C   0  0  2  0  0  3  0  0  0  0  0  0
  184.4760  178.0840  145.5350 C   0  0  0  0  0  2  0  0  0  0  0  0
  185.1730  176.9770  146.0710 O   0  0  0  0  0  0  0  0  0  0  0  0
  186.7270  178.1260  147.5430 C   0  0  0  0  0  1  0  0  0  0  0  0
  186.5340  177.3200  146.2680 C   0  0  2  0  0  3  0  0  0  0  0  0
  184.1450  178.3390  143.0830 C   0  0  0  0  0  3  0  0  0  0  0  0
  184.5490  177.9830  141.9880 O   0  0  0  0  0  0  0  0  0  0  0  0
  3 12  2  0  0  0  0
  3  5  1  0  0  0  0
  5 18  2  0  0  0  0
  6  8  2  0  0  0  0
  8 18  1  0  0  0  0
  9 10  1  1  0  0  0
  9  4  1  0  0  0  0
 11 28  1  6  0  0  0
 11  7  1  0  0  0  0
 12  7  1  0  0  0  0
 13  9  1  0  0  0  0
 14  4  2  0  0  0  0
 14  6  1  0  0  0  0
 15 25  1  6  0  0  0
 15 10  1  0  0  0  0
 15 11  1  0  0  0  0
 16  4  1  6  0  0  0
 16  3  1  0  0  0  0
 16  8  1  0  0  0  0
 17  1  2  6  0  0  0
 17  2  1  0  0  0  0
 17 19  1  0  0  0  0
 17 13  1  0  0  0  0
 19 14  1  1  0  0  0
 21 23  1  0  0  0  0
 21 20  1  0  0  0  0
 23 22  1  0  0  0  0
 24 22  1  1  0  0  0
 24 20  1  0  0  0  0
 24 19  1  0  0  0  0
 26 25  1  0  0  0  0
 27 26  1  0  0  0  0
 29 31  1  0  0  0  0
 29 30  1  0  0  0  0
 30 28  1  6  0  0  0
 30 35  1  0  0  0  0
 31 36  1  6  0  0  0
 31 32  1  0  0  0  0
 32 33  1  0  0  0  0
 33 35  1  0  0  0  0
 35 34  1  1  0  0  0
 37 36  2  0  0  0  0
M  END
>  <MODEL>
3

>  <REMARK>
 VINA RESULT:      -7.5      2.576      4.108
  Name = 
  6 active torsions:
  status: ('A' for Active; 'I' for Inactive)
    1  A    between atoms: C_8  and  C_13
    2  A    between atoms: C_12  and  C_34
    3  A    between atoms: C_17  and  C_26
    4  A    between atoms: C_18  and  C_34
    5  A    between atoms: C_24  and  C_26
    6  A    between atoms: C_33  and  C_37
                            x       y       z     vdW  Elec       q    Type
                         _______ _______ _______ _____ _____    ______ ____

>  <TORSDO>
F 6

$$$$
=
 OpenBabel11062421533D

 37 42  0  0  1  0  0  0  0  0999 V2000
  187.6210  178.2050  144.8050 O   0  0  0  0  0  0  0  0  0  0  0  0
  185.7480  176.6380  145.7410 O   0  0  0  0  0  1  0  0  0  0  0  0
  190.6480  173.5150  141.9040 C   0  0  0  0  0  0  0  0  0  0  0  0
  188.9130  174.8370  143.3140 C   0  0  0  0  0  0  0  0  0  0  0  0
  190.2500  173.0490  140.5780 C   0  0  0  0  0  3  0  0  0  0  0  0
  187.4270  174.0840  141.7620 N   0  0  0  0  0  0  0  0  0  0  0  0
  192.3190  173.5910  143.6370 N   0  0  0  0  0  2  0  0  0  0  0  0
  188.4090  173.2470  141.7520 C   0  0  0  0  0  0  0  0  0  0  0  0
  189.3700  175.6900  144.4820 C   0  0  2  0  0  3  0  0  0  0  0  0
  190.6540  175.2270  145.1380 C   0  0  0  0  0  2  0  0  0  0  0  0
  192.9240  174.7690  144.2480 C   0  0  2  0  0  3  0  0  0  0  0  0
  191.9250  173.5500  142.2670 C   0  0  0  0  0  3  0  0  0  0  0  0
  188.3620  175.7710  145.4580 O   0  0  0  0  0  0  0  0  0  0  0  0
  187.7130  175.0350  142.7720 C   0  0  0  0  0  0  0  0  0  0  0  0
  191.8610  175.8440  144.4420 C   0  0  2  0  0  3  0  0  0  0  0  0
  189.4430  173.5180  142.8010 C   0  0  1  0  0  3  0  0  0  0  0  0
  187.1490  176.7680  144.8030 P   0  0  2  0  0  0  0  0  0  0  0  0
  188.9750  172.8640  140.5070 N   0  0  0  0  0  0  0  0  0  0  0  0
  186.7950  176.1840  143.1000 C   0  0  1  0  0  3  0  0  0  0  0  0
  185.6650  177.8640  141.7980 O   0  0  0  0  0  0  0  0  0  0  0  0
  185.7420  178.2900  140.5050 N   0  0  0  0  0  2  0  0  0  0  0  0
  187.4410  176.8250  140.7650 C   0  0  0  0  0  2  0  0  0  0  0  0
  186.5220  177.3620  139.7940 N   0  0  0  0  0  2  0  0  0  0  0  0
  186.9220  177.3220  142.0810 C   0  0  2  0  0  3  0  0  0  0  0  0
  192.4240  176.9840  145.2850 C   0  0  0  0  0  2  0  0  0  0  0  0
  192.9130  176.4900  146.6360 C   0  0  0  0  0  2  0  0  0  0  0  0
  194.1970  176.9740  146.8850 O   0  0  0  0  0  1  0  0  0  0  0  0
  194.0960  175.2870  143.4080 C   0  0  0  0  0  2  0  0  0  0  0  0
  195.5020  173.8220  144.7200 O   0  0  0  0  0  0  0  0  0  0  0  0
  195.4460  175.0790  144.0910 C   0  0  1  0  0  3  0  0  0  0  0  0
  196.6640  173.8100  145.5170 C   0  0  2  0  0  3  0  0  0  0  0  0
  197.9220  174.1670  144.6960 C   0  0  0  0  0  2  0  0  0  0  0  0
  197.6310  174.2610  143.3150 O   0  0  0  0  0  0  0  0  0  0  0  0
  197.1860  176.6430  143.1370 C   0  0  0  0  0  1  0  0  0  0  0  0
  196.6200  175.2320  143.1060 C   0  0  2  0  0  3  0  0  0  0  0  0
  196.8220  172.4610  146.1350 C   0  0  0  0  0  3  0  0  0  0  0  0
  197.2390  171.5240  145.4750 O   0  0  0  0  0  0  0  0  0  0  0  0
  3 12  2  0  0  0  0
  3 16  1  0  0  0  0
  4  9  1  0  0  0  0
  5  3  1  0  0  0  0
  6 14  1  0  0  0  0
  7 11  1  0  0  0  0
  8  6  2  0  0  0  0
  9 10  1  1  0  0  0
  9 13  1  0  0  0  0
 11 28  1  6  0  0  0
 11 15  1  0  0  0  0
 12  7  1  0  0  0  0
 14  4  2  0  0  0  0
 15 10  1  0  0  0  0
 15 25  1  1  0  0  0
 16  8  1  6  0  0  0
 16  4  1  0  0  0  0
 17  1  2  6  0  0  0
 17 13  1  0  0  0  0
 17  2  1  0  0  0  0
 18  5  2  0  0  0  0
 18  8  1  0  0  0  0
 19 14  1  6  0  0  0
 19 17  1  0  0  0  0
 20 24  1  0  0  0  0
 21 20  1  0  0  0  0
 23 21  1  0  0  0  0
 23 22  1  0  0  0  0
 24 22  1  6  0  0  0
 24 19  1  0  0  0  0
 25 26  1  0  0  0  0
 26 27  1  0  0  0  0
 29 31  1  0  0  0  0
 30 28  1  6  0  0  0
 30 29  1  0  0  0  0
 31 36  1  6  0  0  0
 32 31  1  0  0  0  0
 33 32  1  0  0  0  0
 35 34  1  1  0  0  0
 35 33  1  0  0  0  0
 35 30  1  0  0  0  0
 37 36  2  0  0  0  0
M  END
>  <MODEL>
4

>  <REMARK>
 VINA RESULT:      -7.3      2.819      8.507
  Name = 
  6 active torsions:
  status: ('A' for Active; 'I' for Inactive)
    1  A    between atoms: C_8  and  C_13
    2  A    between atoms: C_12  and  C_34
    3  A    between atoms: C_17  and  C_26
    4  A    between atoms: C_18  and  C_34
    5  A    between atoms: C_24  and  C_26
    6  A    between atoms: C_33  and  C_37
                            x       y       z     vdW  Elec       q    Type
                         _______ _______ _______ _____ _____    ______ ____

>  <TORSDO>
F 6

$$$$
=
 OpenBabel11062421533D

 37 42  0  0  1  0  0  0  0  0999 V2000
  192.5100  172.8150  140.3630 O   0  0  0  0  0  0  0  0  0  0  0  0
  193.2340  170.6140  141.5740 O   0  0  0  0  0  1  0  0  0  0  0  0
  191.7640  175.9950  145.7400 C   0  0  0  0  0  0  0  0  0  0  0  0
  192.2660  174.0940  144.0430 C   0  0  0  0  0  0  0  0  0  0  0  0
  192.8910  176.6320  146.4180 C   0  0  0  0  0  3  0  0  0  0  0  0
  194.3490  174.1430  144.9610 N   0  0  0  0  0  0  0  0  0  0  0  0
  189.3790  175.7990  145.4640 N   0  0  0  0  0  2  0  0  0  0  0  0
  193.5520  174.6180  145.8570 C   0  0  0  0  0  0  0  0  0  0  0  0
  191.2210  173.6880  143.0210 C   0  0  2  0  0  3  0  0  0  0  0  0
  189.7890  173.9360  143.4490 C   0  0  0  0  0  2  0  0  0  0  0  0
  188.6010  175.9650  144.2430 C   0  0  2  0  0  3  0  0  0  0  0  0
  190.5590  176.5540  145.7350 C   0  0  0  0  0  3  0  0  0  0  0  0
  191.3660  172.3330  142.6780 O   0  0  0  0  0  0  0  0  0  0  0  0
  193.5420  173.7640  143.8600 C   0  0  0  0  0  0  0  0  0  0  0  0
  189.3570  175.3470  143.0710 C   0  0  2  0  0  3  0  0  0  0  0  0
  192.1060  174.5580  145.4720 C   0  0  1  0  0  3  0  0  0  0  0  0
  192.7780  172.2330  141.7340 P   0  0  2  0  0  0  0  0  0  0  0  0
  193.8970  175.8300  146.5130 N   0  0  0  0  0  0  0  0  0  0  0  0
  194.1060  173.1540  142.6020 C   0  0  1  0  0  3  0  0  0  0  0  0
  196.1090  174.3210  141.9500 O   0  0  0  0  0  0  0  0  0  0  0  0
  196.4210  175.6220  141.6910 N   0  0  0  0  0  2  0  0  0  0  0  0
  194.1800  175.5770  141.9660 C   0  0  0  0  0  2  0  0  0  0  0  0
  195.3430  176.4150  142.1190 N   0  0  0  0  0  2  0  0  0  0  0  0
  194.7390  174.2140  141.6920 C   0  0  2  0  0  3  0  0  0  0  0  0
  188.4590  175.3060  141.8380 C   0  0  0  0  0  2  0  0  0  0  0  0
  187.8380  173.9340  141.6470 C   0  0  0  0  0  2  0  0  0  0  0  0
  188.2080  173.4110  140.4070 O   0  0  0  0  0  1  0  0  0  0  0  0
  188.2810  177.4410  143.9860 C   0  0  0  0  0  2  0  0  0  0  0  0
  186.5400  178.1380  145.5090 O   0  0  0  0  0  0  0  0  0  0  0  0
  186.8020  177.7650  144.1790 C   0  0  1  0  0  3  0  0  0  0  0  0
  185.1390  178.1820  145.6590 C   0  0  2  0  0  3  0  0  0  0  0  0
  184.4810  179.0940  144.6010 C   0  0  0  0  0  2  0  0  0  0  0  0
  185.4500  179.7900  143.8420 O   0  0  0  0  0  0  0  0  0  0  0  0
  185.6950  178.2680  141.9650 C   0  0  0  0  0  1  0  0  0  0  0  0
  186.3220  178.8650  143.2150 C   0  0  2  0  0  3  0  0  0  0  0  0
  184.8050  178.6660  147.0300 C   0  0  0  0  0  3  0  0  0  0  0  0
  185.5750  179.3950  147.6330 O   0  0  0  0  0  0  0  0  0  0  0  0
  2 17  1  0  0  0  0
  3  5  1  0  0  0  0
  5 18  2  0  0  0  0
  6  8  2  0  0  0  0
  7 12  1  0  0  0  0
  8 18  1  0  0  0  0
  9 10  1  1  0  0  0
  9  4  1  0  0  0  0
 11 28  1  6  0  0  0
 11  7  1  0  0  0  0
 12  3  2  0  0  0  0
 13  9  1  0  0  0  0
 14  4  2  0  0  0  0
 14  6  1  0  0  0  0
 15 25  1  6  0  0  0
 15 10  1  0  0  0  0
 15 11  1  0  0  0  0
 16  4  1  6  0  0  0
 16  3  1  0  0  0  0
 16  8  1  0  0  0  0
 17  1  2  6  0  0  0
 17 19  1  0  0  0  0
 17 13  1  0  0  0  0
 19 14  1  1  0  0  0
 21 20  1  0  0  0  0
 21 23  1  0  0  0  0
 22 23  1  0  0  0  0
 24 20  1  0  0  0  0
 24 22  1  1  0  0  0
 24 19  1  0  0  0  0
 26 25  1  0  0  0  0
 27 26  1  0  0  0  0
 29 31  1  0  0  0  0
 30 28  1  1  0  0  0
 30 29  1  0  0  0  0
 31 36  1  1  0  0  0
 32 31  1  0  0  0  0
 33 32  1  0  0  0  0
 35 34  1  6  0  0  0
 35 33  1  0  0  0  0
 35 30  1  0  0  0  0
 36 37  2  0  0  0  0
M  END
>  <MODEL>
5

>  <REMARK>
 VINA RESULT:      -7.3      2.837      4.521
  Name = 
  6 active torsions:
  status: ('A' for Active; 'I' for Inactive)
    1  A    between atoms: C_8  and  C_13
    2  A    between atoms: C_12  and  C_34
    3  A    between atoms: C_17  and  C_26
    4  A    between atoms: C_18  and  C_34
    5  A    between atoms: C_24  and  C_26
    6  A    between atoms: C_33  and  C_37
                            x       y       z     vdW  Elec       q    Type
                         _______ _______ _______ _____ _____    ______ ____

>  <TORSDO>
F 6

$$$$
=
 OpenBabel11062421533D

 37 42  0  0  1  0  0  0  0  0999 V2000
  185.4610  176.9540  142.8470 O   0  0  0  0  0  1  0  0  0  0  0  0
  186.3860  179.3570  142.3870 O   0  0  0  0  0  0  0  0  0  0  0  0
  190.9190  174.8710  145.1820 C   0  0  0  0  0  0  0  0  0  0  0  0
  189.1050  176.4080  144.1350 C   0  0  0  0  0  0  0  0  0  0  0  0
  191.2900  175.0920  146.5770 C   0  0  0  0  0  3  0  0  0  0  0  0
  189.4420  177.6780  145.9940 N   0  0  0  0  0  0  0  0  0  0  0  0
  191.2760  173.6640  143.1280 N   0  0  0  0  0  2  0  0  0  0  0  0
  190.5280  177.0030  145.8200 C   0  0  0  0  0  0  0  0  0  0  0  0
  188.3850  175.9850  142.8680 C   0  0  2  0  0  3  0  0  0  0  0  0
  189.1810  175.0640  141.9670 C   0  0  0  0  0  2  0  0  0  0  0  0
  190.3070  172.8880  142.3640 C   0  0  2  0  0  3  0  0  0  0  0  0
  191.2440  173.7480  144.5510 C   0  0  0  0  0  3  0  0  0  0  0  0
  187.9840  177.1110  142.1300 O   0  0  0  0  0  0  0  0  0  0  0  0
  188.5840  177.3520  144.9160 C   0  0  0  0  0  0  0  0  0  0  0  0
  188.9630  173.6090  142.3670 C   0  0  2  0  0  3  0  0  0  0  0  0
  190.5360  176.1860  144.5650 C   0  0  1  0  0  3  0  0  0  0  0  0
  186.6980  177.8110  142.9970 P   0  0  2  0  0  0  0  0  0  0  0  0
  191.0990  176.3200  146.9270 N   0  0  0  0  0  0  0  0  0  0  0  0
  187.2080  177.9450  144.7540 C   0  0  1  0  0  3  0  0  0  0  0  0
  184.9760  177.9710  145.6580 O   0  0  0  0  0  0  0  0  0  0  0  0
  184.4410  177.8040  146.9010 N   0  0  0  0  0  2  0  0  0  0  0  0
  186.6370  177.3220  147.1140 C   0  0  0  0  0  2  0  0  0  0  0  0
  185.4950  177.8350  147.8290 N   0  0  0  0  0  2  0  0  0  0  0  0
  186.1890  177.2760  145.6850 C   0  0  2  0  0  3  0  0  0  0  0  0
  188.0100  172.9340  141.3850 C   0  0  0  0  0  2  0  0  0  0  0  0
  188.1950  173.4660  139.9740 C   0  0  0  0  0  2  0  0  0  0  0  0
  188.1910  172.4100  139.0630 O   0  0  0  0  0  1  0  0  0  0  0  0
  190.1790  171.4650  142.9140 C   0  0  0  0  0  2  0  0  0  0  0  0
  190.5460  170.6950  140.6520 O   0  0  0  0  0  0  0  0  0  0  0  0
  190.8240  170.4220  142.0030 C   0  0  1  0  0  3  0  0  0  0  0  0
  190.9610  169.5720  139.9090 C   0  0  2  0  0  3  0  0  0  0  0  0
  192.4350  169.2140  140.1950 C   0  0  0  0  0  2  0  0  0  0  0  0
  193.0590  170.1900  141.0070 O   0  0  0  0  0  0  0  0  0  0  0  0
  192.6910  169.2150  143.2010 C   0  0  0  0  0  1  0  0  0  0  0  0
  192.3440  170.3260  142.2230 C   0  0  2  0  0  3  0  0  0  0  0  0
  190.7750  169.8480  138.4540 C   0  0  0  0  0  3  0  0  0  0  0  0
  189.6920  169.6650  137.9240 O   0  0  0  0  0  0  0  0  0  0  0  0
  1 17  1  0  0  0  0
  3  5  1  0  0  0  0
  4 14  2  0  0  0  0
  5 18  2  0  0  0  0
  7 12  1  0  0  0  0
  8  6  2  0  0  0  0
  8 18  1  0  0  0  0
  9 10  1  6  0  0  0
  9  4  1  0  0  0  0
 10 15  1  0  0  0  0
 11 15  1  0  0  0  0
 11 28  1  1  0  0  0
 11  7  1  0  0  0  0
 12  3  2  0  0  0  0
 13  9  1  0  0  0  0
 13 17  1  0  0  0  0
 14  6  1  0  0  0  0
 15 25  1  6  0  0  0
 16  4  1  1  0  0  0
 16  3  1  0  0  0  0
 16  8  1  0  0  0  0
 17  2  2  6  0  0  0
 17 19  1  0  0  0  0
 19 14  1  6  0  0  0
 19 24  1  0  0  0  0
 20 24  1  0  0  0  0
 20 21  1  0  0  0  0
 21 23  1  0  0  0  0
 22 23  1  0  0  0  0
 24 22  1  1  0  0  0
 26 25  1  0  0  0  0
 27 26  1  0  0  0  0
 29 30  1  0  0  0  0
 30 35  1  0  0  0  0
 30 28  1  1  0  0  0
 31 36  1  6  0  0  0
 31 32  1  0  0  0  0
 31 29  1  0  0  0  0
 32 33  1  0  0  0  0
 33 35  1  0  0  0  0
 35 34  1  1  0  0  0
 37 36  2  0  0  0  0
M  END
>  <MODEL>
6

>  <REMARK>
 VINA RESULT:      -7.1      3.853      8.638
  Name = 
  6 active torsions:
  status: ('A' for Active; 'I' for Inactive)
    1  A    between atoms: C_8  and  C_13
    2  A    between atoms: C_12  and  C_34
    3  A    between atoms: C_17  and  C_26
    4  A    between atoms: C_18  and  C_34
    5  A    between atoms: C_24  and  C_26
    6  A    between atoms: C_33  and  C_37
                            x       y       z     vdW  Elec       q    Type
                         _______ _______ _______ _____ _____    ______ ____

>  <TORSDO>
F 6

$$$$
=
 OpenBabel11062421533D

 37 42  0  0  1  0  0  0  0  0999 V2000
  186.3800  176.1830  142.5470 O   0  0  0  0  0  1  0  0  0  0  0  0
  187.1130  178.6360  142.0180 O   0  0  0  0  0  0  0  0  0  0  0  0
  191.5800  174.9240  145.8560 C   0  0  0  0  0  0  0  0  0  0  0  0
  189.8080  176.1590  144.4140 C   0  0  0  0  0  0  0  0  0  0  0  0
  191.6990  175.2880  147.2660 C   0  0  0  0  0  3  0  0  0  0  0  0
  189.7110  177.5920  146.1800 N   0  0  0  0  0  0  0  0  0  0  0  0
  192.3840  173.6190  143.9970 N   0  0  0  0  0  2  0  0  0  0  0  0
  190.8740  177.0370  146.2330 C   0  0  0  0  0  0  0  0  0  0  0  0
  189.3470  175.5640  143.0960 C   0  0  2  0  0  3  0  0  0  0  0  0
  190.3680  174.6780  142.4120 C   0  0  0  0  0  2  0  0  0  0  0  0
  191.6350  172.6830  143.1680 C   0  0  2  0  0  3  0  0  0  0  0  0
  192.1170  173.8030  145.3860 C   0  0  0  0  0  3  0  0  0  0  0  0
  188.9550  176.5780  142.2080 O   0  0  0  0  0  0  0  0  0  0  0  0
  189.0750  177.0900  145.0190 C   0  0  0  0  0  0  0  0  0  0  0  0
  190.2410  173.2410  142.9040 C   0  0  2  0  0  3  0  0  0  0  0  0
  191.1670  176.1370  145.0730 C   0  0  1  0  0  3  0  0  0  0  0  0
  187.4820  177.1870  142.8040 P   0  0  2  0  0  0  0  0  0  0  0  0
  191.3290  176.5070  147.4700 N   0  0  0  0  0  0  0  0  0  0  0  0
  187.6880  177.5060  144.5990 C   0  0  1  0  0  3  0  0  0  0  0  0
  185.3920  177.4780  145.3270 O   0  0  0  0  0  0  0  0  0  0  0  0
  184.7650  177.2590  146.5170 N   0  0  0  0  0  2  0  0  0  0  0  0
  186.9430  176.7890  146.8820 C   0  0  0  0  0  2  0  0  0  0  0  0
  185.7440  177.2640  147.5250 N   0  0  0  0  0  2  0  0  0  0  0  0
  186.6080  176.7930  145.4220 C   0  0  2  0  0  3  0  0  0  0  0  0
  189.5310  172.3900  141.8550 C   0  0  0  0  0  2  0  0  0  0  0  0
  189.4770  173.0940  140.5100 C   0  0  0  0  0  2  0  0  0  0  0  0
  188.1870  173.0230  139.9860 O   0  0  0  0  0  1  0  0  0  0  0  0
  191.5680  171.2980  143.8190 C   0  0  0  0  0  2  0  0  0  0  0  0
  193.5340  170.5580  145.0150 O   0  0  0  0  0  0  0  0  0  0  0  0
  192.9010  170.5550  143.7590 C   0  0  1  0  0  3  0  0  0  0  0  0
  194.8430  170.0760  144.8200 C   0  0  2  0  0  3  0  0  0  0  0  0
  194.8460  168.7050  144.1100 C   0  0  0  0  0  2  0  0  0  0  0  0
  193.5360  168.1900  143.9730 O   0  0  0  0  0  0  0  0  0  0  0  0
  192.9840  169.0180  141.7570 C   0  0  0  0  0  1  0  0  0  0  0  0
  192.7340  169.1100  143.2530 C   0  0  2  0  0  3  0  0  0  0  0  0
  195.5310  169.9690  146.1400 C   0  0  0  0  0  3  0  0  0  0  0  0
  195.1370  169.1770  146.9800 O   0  0  0  0  0  0  0  0  0  0  0  0
  1 17  1  0  0  0  0
  3  5  1  0  0  0  0
  4 14  2  0  0  0  0
  5 18  2  0  0  0  0
  6  8  2  0  0  0  0
  7 12  1  0  0  0  0
  8 18  1  0  0  0  0
  9 10  1  6  0  0  0
  9  4  1  0  0  0  0
 10 15  1  0  0  0  0
 11 28  1  1  0  0  0
 11  7  1  0  0  0  0
 12  3  2  0  0  0  0
 13 17  1  0  0  0  0
 13  9  1  0  0  0  0
 14  6  1  0  0  0  0
 15 25  1  6  0  0  0
 15 11  1  0  0  0  0
 16  4  1  1  0  0  0
 16  3  1  0  0  0  0
 16  8  1  0  0  0  0
 17  2  2  6  0  0  0
 17 19  1  0  0  0  0
 19 14  1  1  0  0  0
 19 24  1  0  0  0  0
 20 24  1  0  0  0  0
 20 21  1  0  0  0  0
 21 23  1  0  0  0  0
 22 23  1  0  0  0  0
 24 22  1  1  0  0  0
 26 25  1  0  0  0  0
 27 26  1  0  0  0  0
 30 28  1  1  0  0  0
 30 29  1  0  0  0  0
 31 29  1  0  0  0  0
 31 36  1  1  0  0  0
 32 31  1  0  0  0  0
 33 32  1  0  0  0  0
 35 34  1  6  0  0  0
 35 30  1  0  0  0  0
 35 33  1  0  0  0  0
 36 37  2  0  0  0  0
M  END
>  <MODEL>
7

>  <REMARK>
 VINA RESULT:      -6.9      3.095      8.945
  Name = 
  6 active torsions:
  status: ('A' for Active; 'I' for Inactive)
    1  A    between atoms: C_8  and  C_13
    2  A    between atoms: C_12  and  C_34
    3  A    between atoms: C_17  and  C_26
    4  A    between atoms: C_18  and  C_34
    5  A    between atoms: C_24  and  C_26
    6  A    between atoms: C_33  and  C_37
                            x       y       z     vdW  Elec       q    Type
                         _______ _______ _______ _____ _____    ______ ____

>  <TORSDO>
F 6

$$$$
=
 OpenBabel11062421533D

 37 42  0  0  1  0  0  0  0  0999 V2000
  187.9250  178.2810  145.4050 O   0  0  0  0  0  0  0  0  0  0  0  0
  186.3490  176.5140  146.5160 O   0  0  0  0  0  1  0  0  0  0  0  0
  190.4440  174.1130  141.4230 C   0  0  0  0  0  0  0  0  0  0  0  0
  188.9970  175.1720  143.3010 C   0  0  0  0  0  0  0  0  0  0  0  0
  189.7940  173.7670  140.1610 C   0  0  0  0  0  3  0  0  0  0  0  0
  187.2470  174.5010  142.0090 N   0  0  0  0  0  0  0  0  0  0  0  0
  192.4380  174.1050  142.7740 N   0  0  0  0  0  2  0  0  0  0  0  0
  188.2350  173.7300  141.7020 C   0  0  0  0  0  0  0  0  0  0  0  0
  189.6580  175.9230  144.4420 C   0  0  2  0  0  3  0  0  0  0  0  0
  191.0670  175.4700  144.7630 C   0  0  0  0  0  2  0  0  0  0  0  0
  193.1150  175.2450  143.3800 C   0  0  2  0  0  3  0  0  0  0  0  0
  191.7670  174.1860  141.5180 C   0  0  0  0  0  3  0  0  0  0  0  0
  188.8750  175.8400  145.6050 O   0  0  0  0  0  0  0  0  0  0  0  0
  187.7040  175.3550  143.0420 C   0  0  0  0  0  0  0  0  0  0  0  0
  192.0770  176.2290  143.9110 C   0  0  2  0  0  3  0  0  0  0  0  0
  189.4550  173.9500  142.5410 C   0  0  1  0  0  3  0  0  0  0  0  0
  187.5160  176.8260  145.3340 P   0  0  2  0  0  0  0  0  0  0  0  0
  188.5400  173.5150  140.3310 N   0  0  0  0  0  0  0  0  0  0  0  0
  186.8340  176.4060  143.6830 C   0  0  1  0  0  3  0  0  0  0  0  0
  185.4660  177.6570  142.1460 O   0  0  0  0  0  0  0  0  0  0  0  0
  185.6890  178.2940  140.9610 N   0  0  0  0  0  2  0  0  0  0  0  0
  187.7240  177.6550  141.7010 C   0  0  0  0  0  2  0  0  0  0  0  0
  186.9640  177.9180  140.5060 N   0  0  0  0  0  2  0  0  0  0  0  0
  186.7030  177.6510  142.7980 C   0  0  2  0  0  3  0  0  0  0  0  0
  192.7630  177.3040  144.7480 C   0  0  0  0  0  2  0  0  0  0  0  0
  193.5910  176.6970  145.8670 C   0  0  0  0  0  2  0  0  0  0  0  0
  194.8150  177.3590  145.9680 O   0  0  0  0  0  1  0  0  0  0  0  0
  194.0650  175.9190  142.3850 C   0  0  0  0  0  2  0  0  0  0  0  0
  195.7270  175.1350  140.8150 O   0  0  0  0  0  0  0  0  0  0  0  0
  195.3520  175.1250  142.1700 C   0  0  1  0  0  3  0  0  0  0  0  0
  196.7670  174.1950  140.6670 C   0  0  2  0  0  3  0  0  0  0  0  0
  197.9250  174.4680  141.6500 C   0  0  0  0  0  2  0  0  0  0  0  0
  197.7390  175.6840  142.3470 O   0  0  0  0  0  0  0  0  0  0  0  0
  196.6180  174.8630  144.3400 C   0  0  0  0  0  1  0  0  0  0  0  0
  196.5050  175.6500  143.0440 C   0  0  2  0  0  3  0  0  0  0  0  0
  197.2680  174.2330  139.2620 C   0  0  0  0  0  3  0  0  0  0  0  0
  196.8950  175.1060  138.4960 O   0  0  0  0  0  0  0  0  0  0  0  0
  3 12  2  0  0  0  0
  4  9  1  0  0  0  0
  5 18  2  0  0  0  0
  5  3  1  0  0  0  0
  6 14  1  0  0  0  0
  7 11  1  0  0  0  0
  8  6  2  0  0  0  0
  8 16  1  0  0  0  0
  9 10  1  1  0  0  0
  9 13  1  0  0  0  0
 11 28  1  6  0  0  0
 11 15  1  0  0  0  0
 12  7  1  0  0  0  0
 14  4  2  0  0  0  0
 15 25  1  1  0  0  0
 15 10  1  0  0  0  0
 16  3  1  6  0  0  0
 16  4  1  0  0  0  0
 17  1  2  1  0  0  0
 17 13  1  0  0  0  0
 17  2  1  0  0  0  0
 18  8  1  0  0  0  0
 19 14  1  6  0  0  0
 19 17  1  0  0  0  0
 20 24  1  0  0  0  0
 21 20  1  0  0  0  0
 23 21  1  0  0  0  0
 23 22  1  0  0  0  0
 24 22  1  6  0  0  0
 24 19  1  0  0  0  0
 25 26  1  0  0  0  0
 26 27  1  0  0  0  0
 29 30  1  0  0  0  0
 30 28  1  6  0  0  0
 30 35  1  0  0  0  0
 31 36  1  6  0  0  0
 31 29  1  0  0  0  0
 31 32  1  0  0  0  0
 32 33  1  0  0  0  0
 33 35  1  0  0  0  0
 35 34  1  1  0  0  0
 37 36  2  0  0  0  0
M  END
>  <MODEL>
8

>  <REMARK>
 VINA RESULT:      -6.7      2.926      8.478
  Name = 
  6 active torsions:
  status: ('A' for Active; 'I' for Inactive)
    1  A    between atoms: C_8  and  C_13
    2  A    between atoms: C_12  and  C_34
    3  A    between atoms: C_17  and  C_26
    4  A    between atoms: C_18  and  C_34
    5  A    between atoms: C_24  and  C_26
    6  A    between atoms: C_33  and  C_37
                            x       y       z     vdW  Elec       q    Type
                         _______ _______ _______ _____ _____    ______ ____

>  <TORSDO>
F 6

$$$$
=
 OpenBabel11062421533D

 37 42  0  0  1  0  0  0  0  0999 V2000
  188.6010  177.9230  146.2100 O   0  0  0  0  0  0  0  0  0  0  0  0
  186.9980  176.1120  147.2040 O   0  0  0  0  0  1  0  0  0  0  0  0
  190.5970  174.1780  141.5660 C   0  0  0  0  0  0  0  0  0  0  0  0
  189.3430  175.0600  143.6630 C   0  0  0  0  0  0  0  0  0  0  0  0
  189.8450  174.0310  140.3220 C   0  0  0  0  0  3  0  0  0  0  0  0
  187.4740  174.6510  142.4280 N   0  0  0  0  0  0  0  0  0  0  0  0
  192.6710  173.8940  142.7570 N   0  0  0  0  0  2  0  0  0  0  0  0
  188.3920  173.8770  141.9560 C   0  0  0  0  0  0  0  0  0  0  0  0
  190.1210  175.6230  144.8370 C   0  0  2  0  0  3  0  0  0  0  0  0
  191.5180  175.0600  144.9960 C   0  0  0  0  0  2  0  0  0  0  0  0
  193.4540  174.9100  143.4500 C   0  0  2  0  0  3  0  0  0  0  0  0
  191.9250  174.1700  141.5740 C   0  0  0  0  0  3  0  0  0  0  0  0
  189.4130  175.4310  146.0350 O   0  0  0  0  0  0  0  0  0  0  0  0
  188.0490  175.3400  143.5230 C   0  0  0  0  0  0  0  0  0  0  0  0
  192.5150  175.8690  144.1740 C   0  0  2  0  0  3  0  0  0  0  0  0
  189.6760  173.9230  142.7240 C   0  0  1  0  0  3  0  0  0  0  0  0
  188.1010  176.5130  145.9880 P   0  0  2  0  0  0  0  0  0  0  0  0
  188.5920  173.8240  140.5500 N   0  0  0  0  0  0  0  0  0  0  0  0
  187.2880  176.3440  144.3520 C   0  0  1  0  0  3  0  0  0  0  0  0
  185.9830  177.7660  142.9110 O   0  0  0  0  0  0  0  0  0  0  0  0
  186.2620  178.5680  141.8450 N   0  0  0  0  0  2  0  0  0  0  0  0
  188.2650  177.8800  142.6290 C   0  0  0  0  0  2  0  0  0  0  0  0
  187.5760  178.2900  141.4310 N   0  0  0  0  0  2  0  0  0  0  0  0
  187.1740  177.6980  143.6400 C   0  0  2  0  0  3  0  0  0  0  0  0
  193.3180  176.7910  145.0860 C   0  0  0  0  0  2  0  0  0  0  0  0
  193.5910  176.1440  146.4320 C   0  0  0  0  0  2  0  0  0  0  0  0
  194.9180  175.7180  146.4960 O   0  0  0  0  0  1  0  0  0  0  0  0
  194.3750  175.6560  142.4800 C   0  0  0  0  0  2  0  0  0  0  0  0
  196.0460  174.3530  143.6430 O   0  0  0  0  0  0  0  0  0  0  0  0
  195.8000  175.1070  142.4810 C   0  0  1  0  0  3  0  0  0  0  0  0
  197.4300  174.0930  143.6830 C   0  0  2  0  0  3  0  0  0  0  0  0
  197.9230  173.4300  142.3780 C   0  0  0  0  0  2  0  0  0  0  0  0
  196.8440  173.0970  141.5260 O   0  0  0  0  0  0  0  0  0  0  0  0
  196.7610  175.0930  140.1460 C   0  0  0  0  0  1  0  0  0  0  0  0
  196.0940  174.2610  141.2290 C   0  0  2  0  0  3  0  0  0  0  0  0
  197.7330  173.2140  144.8490 C   0  0  0  0  0  3  0  0  0  0  0  0
  197.0260  173.2400  145.8430 O   0  0  0  0  0  0  0  0  0  0  0  0
  3 12  2  0  0  0  0
  4  9  1  0  0  0  0
  5 18  2  0  0  0  0
  5  3  1  0  0  0  0
  6 14  1  0  0  0  0
  7 11  1  0  0  0  0
  8  6  2  0  0  0  0
  8 16  1  0  0  0  0
  9 10  1  1  0  0  0
  9 13  1  0  0  0  0
 11 28  1  6  0  0  0
 11 15  1  0  0  0  0
 12  7  1  0  0  0  0
 14  4  2  0  0  0  0
 15 10  1  0  0  0  0
 15 25  1  1  0  0  0
 16  3  1  6  0  0  0
 16  4  1  0  0  0  0
 17 13  1  0  0  0  0
 17  1  2  1  0  0  0
 17  2  1  0  0  0  0
 18  8  1  0  0  0  0
 19 14  1  6  0  0  0
 19 17  1  0  0  0  0
 20 24  1  0  0  0  0
 21 20  1  0  0  0  0
 23 21  1  0  0  0  0
 23 22  1  0  0  0  0
 24 22  1  6  0  0  0
 24 19  1  0  0  0  0
 25 26  1  0  0  0  0
 26 27  1  0  0  0  0
 29 31  1  0  0  0  0
 30 28  1  6  0  0  0
 30 29  1  0  0  0  0
 31 36  1  1  0  0  0
 32 31  1  0  0  0  0
 33 32  1  0  0  0  0
 35 34  1  6  0  0  0
 35 33  1  0  0  0  0
 35 30  1  0  0  0  0
 36 37  2  0  0  0  0
M  END
>  <MODEL>
9

>  <REMARK>
 VINA RESULT:      -6.6      2.633      8.495
  Name = 
  6 active torsions:
  status: ('A' for Active; 'I' for Inactive)
    1  A    between atoms: C_8  and  C_13
    2  A    between atoms: C_12  and  C_34
    3  A    between atoms: C_17  and  C_26
    4  A    between atoms: C_18  and  C_34
    5  A    between atoms: C_24  and  C_26
    6  A    between atoms: C_33  and  C_37
                            x       y       z     vdW  Elec       q    Type
                         _______ _______ _______ _____ _____    ______ ____

>  <TORSDO>
F 6

$$$$
