=
 OpenBabel11062418343D

 54 59  0  0  1  0  0  0  0  0999 V2000
  193.4830  176.8020  145.0410 C   0  0  0  0  0  0  0  0  0  0  0  0
  196.4610  173.8090  142.3920 C   0  0  0  0  0  2  0  0  0  0  0  0
  190.4890  177.4040  142.8760 C   0  0  2  0  0  3  0  0  0  0  0  0
  193.0370  175.2250  142.7890 O   0  0  0  0  0  0  0  0  0  0  0  0
  194.9730  173.9990  142.1130 C   0  0  0  0  0  2  0  0  0  0  0  0
  190.3130  176.0350  142.4740 O   0  0  0  0  0  0  0  0  0  0  0  0
  192.1960  177.0070  145.7840 O   0  0  0  0  0  0  0  0  0  0  0  0
  194.7850  176.6660  144.8870 C   0  0  0  0  0  3  0  0  0  0  0  0
  195.2090  176.0720  143.5820 C   0  0  2  0  0  3  0  0  0  0  0  0
  192.2510  176.6940  144.4550 C   0  0  2  0  0  0  0  0  0  0  0  0
  192.1590  175.2850  143.9070 C   0  0  1  0  0  3  0  0  0  0  0  0
  194.3250  174.8310  143.2250 C   0  0  1  0  0  3  0  0  0  0  0  0
  196.6710  175.6340  143.7000 C   0  0  0  0  0  2  0  0  0  0  0  0
  190.6900  175.0550  143.4490 C   0  0  2  0  0  0  0  0  0  0  0  0
  191.8360  177.7860  143.5090 C   0  0  0  0  0  2  0  0  0  0  0  0
  197.0970  175.0600  142.4900 O   0  0  0  0  0  0  0  0  0  0  0  0
  189.9730  173.6620  141.3800 C   0  0  2  0  0  3  0  0  0  0  0  0
  188.8130  171.8130  142.7640 C   0  0  0  0  0  1  0  0  0  0  0  0
  190.4520  173.6450  142.8160 C   0  0  2  0  0  3  0  0  0  0  0  0
  189.0030  173.3060  142.5230 C   0  0  1  0  0  3  0  0  0  0  0  0
  190.5430  172.4700  140.6190 C   0  0  0  0  0  2  0  0  0  0  0  0
  191.4000  172.9580  139.5480 N   0  0  0  0  0  2  0  0  0  0  0  0
  192.5360  170.5820  139.3210 O   0  0  0  0  0  0  0  0  0  0  0  0
  191.8230  171.6300  138.5090 S   0  0  0  0  0  0  0  0  0  0  0  0
  190.5890  171.0180  137.9000 O   0  0  0  0  0  0  0  0  0  0  0  0
  192.8900  172.2060  137.1870 C   0  0  1  0  0  3  0  0  0  0  0  0
  192.5650  174.6660  136.7360 N   0  0  0  0  0  1  0  0  0  0  0  0
  191.3850  173.0740  135.5330 O   0  0  0  0  0  0  0  0  0  0  0  0
  192.2410  173.3160  136.4240 C   0  0  0  0  0  0  0  0  0  0  0  0
  195.3060  172.2610  136.8000 N   0  0  0  0  0  1  0  0  0  0  0  0
  194.2470  172.6450  137.7230 C   0  0  0  0  0  2  0  0  0  0  0  0
  189.7780  175.1420  144.7060 C   0  0  0  0  0  2  0  0  0  0  0  0
  190.1170  174.2060  145.8780 C   0  0  0  0  0  2  0  0  0  0  0  0
  189.9090  174.8640  147.2290 C   0  0  0  0  0  2  0  0  0  0  0  0
  188.7600  174.3610  147.8370 O   0  0  0  0  0  1  0  0  0  0  0  0
  189.2960  177.9910  143.6170 C   0  0  0  0  0  2  0  0  0  0  0  0
  188.2330  178.4570  142.6320 C   0  0  0  0  0  2  0  0  0  0  0  0
  186.7960  178.1660  143.0790 C   0  0  2  0  0  3  0  0  0  0  0  0
  186.0290  177.2510  142.1230 C   0  0  0  0  0  2  0  0  0  0  0  0
  186.1000  177.7030  140.6620 C   0  0  2  0  0  3  0  0  0  0  0  0
  184.7020  178.1760  140.2750 C   0  0  0  0  0  1  0  0  0  0  0  0
  187.7130  175.9640  140.2180 O   0  0  0  0  0  1  0  0  0  0  0  0
  186.5470  176.5620  139.7300 C   0  0  2  0  0  3  0  0  0  0  0  0
  186.8070  177.0920  138.3240 C   0  0  0  0  0  2  0  0  0  0  0  0
  186.6680  175.9910  137.2870 C   0  0  0  0  0  2  0  0  0  0  0  0
  186.6810  176.5380  136.0040 O   0  0  0  0  0  1  0  0  0  0  0  0
  185.9900  179.4080  143.5050 C   0  0  0  0  0  2  0  0  0  0  0  0
  183.6000  179.0640  144.0470 C   0  0  0  0  0  1  0  0  0  0  0  0
  185.0030  179.1250  144.6330 C   0  0  1  0  0  3  0  0  0  0  0  0
  185.3730  177.8150  145.3250 C   0  0  0  0  0  2  0  0  0  0  0  0
  187.4830  177.5130  146.7390 C   0  0  0  0  0  2  0  0  0  0  0  0
  186.3640  176.7530  147.4370 C   0  0  0  0  0  2  0  0  0  0  0  0
  186.0600  178.0250  146.6780 C   0  0  0  0  0  0  0  0  0  0  0  0
  185.8440  179.2880  147.4950 C   0  0  0  0  0  1  0  0  0  0  0  0
  1  7  1  0  0  0  0
  2 16  1  0  0  0  0
  3 15  1  0  0  0  0
  3 36  1  1  0  0  0
  4 12  1  0  0  0  0
  5  2  1  0  0  0  0
  6  3  1  0  0  0  0
  6 14  1  0  0  0  0
  8  1  2  0  0  0  0
  9 13  1  1  0  0  0
  9  8  1  0  0  0  0
 10 15  1  6  0  0  0
 10  1  1  0  0  0  0
 10  7  1  0  0  0  0
 11  4  1  6  0  0  0
 11 10  1  0  0  0  0
 12  5  1  6  0  0  0
 12  9  1  0  0  0  0
 14 11  1  0  0  0  0
 14 32  1  1  0  0  0
 16 13  1  0  0  0  0
 17 21  1  6  0  0  0
 17 20  1  0  0  0  0
 17 19  1  0  0  0  0
 19 14  1  1  0  0  0
 20 18  1  6  0  0  0
 20 19  1  0  0  0  0
 22 21  1  0  0  0  0
 24 23  2  0  0  0  0
 24 22  1  0  0  0  0
 25 24  2  0  0  0  0
 26 31  1  1  0  0  0
 26 24  1  0  0  0  0
 28 29  2  0  0  0  0
 29 27  1  0  0  0  0
 29 26  1  0  0  0  0
 30 31  1  0  0  0  0
 32 33  1  0  0  0  0
 33 34  1  0  0  0  0
 34 35  1  0  0  0  0
 37 38  1  0  0  0  0
 37 36  1  0  0  0  0
 38 39  1  6  0  0  0
 38 47  1  0  0  0  0
 40 41  1  6  0  0  0
 40 39  1  0  0  0  0
 43 42  1  1  0  0  0
 43 40  1  0  0  0  0
 44 43  1  0  0  0  0
 45 44  1  0  0  0  0
 46 45  1  0  0  0  0
 47 49  1  0  0  0  0
 49 48  1  6  0  0  0
 49 50  1  0  0  0  0
 50 53  1  0  0  0  0
 51 52  1  0  0  0  0
 53 51  1  0  0  0  0
 53 52  1  0  0  0  0
 53 54  1  0  0  0  0
M  END
>  <MODEL>
1

>  <REMARK>
 VINA RESULT:      -6.2      0.000      0.000
  Name = 
  22 active torsions:
  status: ('A' for Active; 'I' for Inactive)
    1  A    between atoms: C_2  and  S_14
    2  A    between atoms: C_2  and  C_35
    3  A    between atoms: C_2  and  C_51
    4  A    between atoms: C_4  and  C_13
    5  A    between atoms: C_4  and  C_28
    6  A    between atoms: C_5  and  C_50
    7  A    between atoms: C_5  and  C_54
    8  A    between atoms: C_6  and  C_44
    9  A    between atoms: C_6  and  C_49
   10  A    between atoms: C_9  and  C_42
   11  A    between atoms: C_11  and  C_43
   12  A    between atoms: S_14  and  N_38
   13  A    between atoms: C_19  and  C_25
   14  A    between atoms: C_19  and  C_44
   15  A    between atoms: C_21  and  C_36
   16  A    between atoms: C_25  and  C_54
   17  A    between atoms: C_28  and  C_36
   18  A    between atoms: C_31  and  C_48
   19  A    between atoms: C_31  and  C_49
   20  A    between atoms: N_38  and  C_43
   21  A    between atoms: C_42  and  C_46
   22  A    between atoms: C_44  and  C_46
                            x       y       z     vdW  Elec       q    Type
                         _______ _______ _______ _____ _____    ______ ____

>  <TORSDO>
F 22

$$$$
=
 OpenBabel11062418343D

 54 59  0  0  1  0  0  0  0  0999 V2000
  193.4280  176.1310  145.9940 C   0  0  0  0  0  0  0  0  0  0  0  0
  196.2950  172.3490  144.4750 C   0  0  0  0  0  2  0  0  0  0  0  0
  191.4600  177.1680  142.9810 C   0  0  2  0  0  3  0  0  0  0  0  0
  193.3380  174.4940  143.7420 O   0  0  0  0  0  0  0  0  0  0  0  0
  195.0500  172.8270  143.7340 C   0  0  0  0  0  2  0  0  0  0  0  0
  191.1040  175.8380  142.5660 O   0  0  0  0  0  0  0  0  0  0  0  0
  192.0590  176.6720  146.2870 O   0  0  0  0  0  0  0  0  0  0  0  0
  194.6460  175.7070  146.2620 C   0  0  0  0  0  3  0  0  0  0  0  0
  195.2990  174.9230  145.1690 C   0  0  2  0  0  3  0  0  0  0  0  0
  192.4430  176.2390  145.0490 C   0  0  2  0  0  0  0  0  0  0  0  0
  192.2000  174.8400  144.5230 C   0  0  1  0  0  3  0  0  0  0  0  0
  194.3030  173.8740  144.5700 C   0  0  1  0  0  3  0  0  0  0  0  0
  196.5120  174.1940  145.7510 C   0  0  0  0  0  2  0  0  0  0  0  0
  190.9280  174.8900  143.6270 C   0  0  2  0  0  0  0  0  0  0  0  0
  192.6010  177.3060  144.0020 C   0  0  0  0  0  2  0  0  0  0  0  0
  197.1420  173.4380  144.7490 O   0  0  0  0  0  0  0  0  0  0  0  0
  190.5280  173.5180  141.4600 C   0  0  2  0  0  3  0  0  0  0  0  0
  188.6600  172.0540  142.4820 C   0  0  0  0  0  1  0  0  0  0  0  0
  190.5770  173.5140  142.9730 C   0  0  2  0  0  3  0  0  0  0  0  0
  189.2280  173.4540  142.2820 C   0  0  1  0  0  3  0  0  0  0  0  0
  191.0150  172.1800  140.9130 C   0  0  0  0  0  2  0  0  0  0  0  0
  191.6870  172.4050  139.6410 N   0  0  0  0  0  2  0  0  0  0  0  0
  192.4950  169.9300  139.1860 O   0  0  0  0  0  0  0  0  0  0  0  0
  191.5460  170.9750  138.6630 S   0  0  0  0  0  0  0  0  0  0  0  0
  190.1430  170.4300  138.7180 O   0  0  0  0  0  0  0  0  0  0  0  0
  191.9440  171.3610  136.9570 C   0  0  1  0  0  3  0  0  0  0  0  0
  191.4480  169.0810  136.0000 N   0  0  0  0  0  1  0  0  0  0  0  0
  193.5670  170.0060  135.8240 O   0  0  0  0  0  0  0  0  0  0  0  0
  192.3790  170.1350  136.2210 C   0  0  0  0  0  0  0  0  0  0  0  0
  191.1720  172.5130  134.9400 N   0  0  0  0  0  1  0  0  0  0  0  0
  190.7680  172.0230  136.2500 C   0  0  0  0  0  2  0  0  0  0  0  0
  189.7230  175.2800  144.5270 C   0  0  0  0  0  2  0  0  0  0  0  0
  189.4490  174.3880  145.7490 C   0  0  0  0  0  2  0  0  0  0  0  0
  188.7920  175.1440  146.8890 C   0  0  0  0  0  2  0  0  0  0  0  0
  188.7240  174.3370  148.0230 O   0  0  0  0  0  1  0  0  0  0  0  0
  190.2680  178.0590  143.2970 C   0  0  0  0  0  2  0  0  0  0  0  0
  189.3170  178.1170  142.1090 C   0  0  0  0  0  2  0  0  0  0  0  0
  187.8740  177.7230  142.4450 C   0  0  2  0  0  3  0  0  0  0  0  0
  187.2720  176.7090  141.4700 C   0  0  0  0  0  2  0  0  0  0  0  0
  187.0410  177.2780  140.0680 C   0  0  2  0  0  3  0  0  0  0  0  0
  185.5530  177.5960  139.9560 C   0  0  0  0  0  1  0  0  0  0  0  0
  186.4160  176.1290  138.0400 O   0  0  0  0  0  1  0  0  0  0  0  0
  187.4490  176.2780  138.9700 C   0  0  2  0  0  3  0  0  0  0  0  0
  187.7740  174.9180  139.5800 C   0  0  0  0  0  2  0  0  0  0  0  0
  188.1700  173.9160  138.5100 C   0  0  0  0  0  2  0  0  0  0  0  0
  189.3040  174.3640  137.8310 O   0  0  0  0  0  1  0  0  0  0  0  0
  186.9360  178.9090  142.7410 C   0  0  0  0  0  2  0  0  0  0  0  0
  184.7070  178.0930  143.4440 C   0  0  0  0  0  1  0  0  0  0  0  0
  186.0250  178.6670  143.9420 C   0  0  1  0  0  3  0  0  0  0  0  0
  186.7090  177.7190  144.9240 C   0  0  0  0  0  2  0  0  0  0  0  0
  185.6810  179.0450  146.8550 C   0  0  0  0  0  2  0  0  0  0  0  0
  186.8490  178.2550  147.4270 C   0  0  0  0  0  2  0  0  0  0  0  0
  186.0260  177.6820  146.2950 C   0  0  0  0  0  0  0  0  0  0  0  0
  185.0040  176.6150  146.6490 C   0  0  0  0  0  1  0  0  0  0  0  0
  1  8  2  0  0  0  0
  1  7  1  0  0  0  0
  2 16  1  0  0  0  0
  3 36  1  1  0  0  0
  3 15  1  0  0  0  0
  4 12  1  0  0  0  0
  5  2  1  0  0  0  0
  6  3  1  0  0  0  0
  6 14  1  0  0  0  0
  9 13  1  1  0  0  0
  9  8  1  0  0  0  0
 10 15  1  6  0  0  0
 10  1  1  0  0  0  0
 10  7  1  0  0  0  0
 11  4  1  6  0  0  0
 11 10  1  0  0  0  0
 12  5  1  6  0  0  0
 12  9  1  0  0  0  0
 14 11  1  0  0  0  0
 14 32  1  1  0  0  0
 16 13  1  0  0  0  0
 17 21  1  6  0  0  0
 17 20  1  0  0  0  0
 17 19  1  0  0  0  0
 19 14  1  1  0  0  0
 20 18  1  6  0  0  0
 20 19  1  0  0  0  0
 22 21  1  0  0  0  0
 24 25  2  0  0  0  0
 24 23  2  0  0  0  0
 24 22  1  0  0  0  0
 26 31  1  6  0  0  0
 26 24  1  0  0  0  0
 27 29  1  0  0  0  0
 28 29  2  0  0  0  0
 29 26  1  0  0  0  0
 30 31  1  0  0  0  0
 32 33  1  0  0  0  0
 33 34  1  0  0  0  0
 34 35  1  0  0  0  0
 37 38  1  0  0  0  0
 37 36  1  0  0  0  0
 38 39  1  6  0  0  0
 38 47  1  0  0  0  0
 40 41  1  6  0  0  0
 40 39  1  0  0  0  0
 43 42  1  6  0  0  0
 43 44  1  0  0  0  0
 43 40  1  0  0  0  0
 45 44  1  0  0  0  0
 46 45  1  0  0  0  0
 47 49  1  0  0  0  0
 49 48  1  6  0  0  0
 49 50  1  0  0  0  0
 50 53  1  0  0  0  0
 51 52  1  0  0  0  0
 53 54  1  0  0  0  0
 53 51  1  0  0  0  0
 53 52  1  0  0  0  0
M  END
>  <MODEL>
2

>  <REMARK>
 VINA RESULT:      -6.0      1.679      1.989
  Name = 
  22 active torsions:
  status: ('A' for Active; 'I' for Inactive)
    1  A    between atoms: C_2  and  S_14
    2  A    between atoms: C_2  and  C_35
    3  A    between atoms: C_2  and  C_51
    4  A    between atoms: C_4  and  C_13
    5  A    between atoms: C_4  and  C_28
    6  A    between atoms: C_5  and  C_50
    7  A    between atoms: C_5  and  C_54
    8  A    between atoms: C_6  and  C_44
    9  A    between atoms: C_6  and  C_49
   10  A    between atoms: C_9  and  C_42
   11  A    between atoms: C_11  and  C_43
   12  A    between atoms: S_14  and  N_38
   13  A    between atoms: C_19  and  C_25
   14  A    between atoms: C_19  and  C_44
   15  A    between atoms: C_21  and  C_36
   16  A    between atoms: C_25  and  C_54
   17  A    between atoms: C_28  and  C_36
   18  A    between atoms: C_31  and  C_48
   19  A    between atoms: C_31  and  C_49
   20  A    between atoms: N_38  and  C_43
   21  A    between atoms: C_42  and  C_46
   22  A    between atoms: C_44  and  C_46
                            x       y       z     vdW  Elec       q    Type
                         _______ _______ _______ _____ _____    ______ ____

>  <TORSDO>
F 22

$$$$
=
 OpenBabel11062418343D

 54 59  0  0  1  0  0  0  0  0999 V2000
  190.2170  173.0500  141.0430 C   0  0  0  0  0  0  0  0  0  0  0  0
  192.5000  169.2320  138.7950 C   0  0  0  0  0  2  0  0  0  0  0  0
  191.1870  172.8110  144.6510 C   0  0  2  0  0  3  0  0  0  0  0  0
  192.3090  171.3870  141.8290 O   0  0  0  0  0  0  0  0  0  0  0  0
  192.9050  169.7880  140.1570 C   0  0  0  0  0  2  0  0  0  0  0  0
  192.5850  172.5690  144.4180 O   0  0  0  0  0  0  0  0  0  0  0  0
  190.3120  174.3640  141.7620 O   0  0  0  0  0  0  0  0  0  0  0  0
  189.9240  172.2260  140.0570 C   0  0  0  0  0  3  0  0  0  0  0  0
  190.6080  170.8980  140.1170 C   0  0  2  0  0  3  0  0  0  0  0  0
  190.8730  173.2100  142.2340 C   0  0  2  0  0  0  0  0  0  0  0  0
  192.3100  172.8010  141.9900 C   0  0  1  0  0  3  0  0  0  0  0  0
  192.1250  171.0710  140.4620 C   0  0  1  0  0  3  0  0  0  0  0  0
  190.4750  170.2200  138.7510 C   0  0  0  0  0  2  0  0  0  0  0  0
  193.1310  173.1970  143.2510 C   0  0  2  0  0  0  0  0  0  0  0  0
  190.2320  172.6270  143.4620 C   0  0  0  0  0  2  0  0  0  0  0  0
  191.1180  168.9720  138.7710 O   0  0  0  0  0  0  0  0  0  0  0  0
  194.9080  171.4820  142.4530 C   0  0  2  0  0  3  0  0  0  0  0  0
  196.4470  171.8060  144.5040 C   0  0  0  0  0  1  0  0  0  0  0  0
  194.6390  172.7920  143.1610 C   0  0  2  0  0  3  0  0  0  0  0  0
  195.0310  171.5810  143.9850 C   0  0  1  0  0  3  0  0  0  0  0  0
  196.2260  171.5550  141.6910 C   0  0  0  0  0  2  0  0  0  0  0  0
  196.4370  172.9220  141.2390 N   0  0  0  0  0  2  0  0  0  0  0  0
  197.8560  172.4290  139.0640 O   0  0  0  0  0  0  0  0  0  0  0  0
  196.5110  172.9420  139.5020 S   0  0  0  0  0  0  0  0  0  0  0  0
  195.4390  172.0610  138.9150 O   0  0  0  0  0  0  0  0  0  0  0  0
  196.2710  174.6150  138.9010 C   0  0  1  0  0  3  0  0  0  0  0  0
  194.5210  175.7030  140.3540 N   0  0  0  0  0  1  0  0  0  0  0  0
  196.7700  176.1860  140.6430 O   0  0  0  0  0  0  0  0  0  0  0  0
  195.8940  175.5340  140.0180 C   0  0  0  0  0  0  0  0  0  0  0  0
  197.1660  175.6150  136.8540 N   0  0  0  0  0  1  0  0  0  0  0  0
  197.5130  175.1280  138.1810 C   0  0  0  0  0  2  0  0  0  0  0  0
  193.0890  174.7460  143.3830 C   0  0  0  0  0  2  0  0  0  0  0  0
  194.2890  175.4190  144.0690 C   0  0  0  0  0  2  0  0  0  0  0  0
  193.8820  176.2610  145.2630 C   0  0  0  0  0  2  0  0  0  0  0  0
  194.6670  177.4110  145.3290 O   0  0  0  0  0  1  0  0  0  0  0  0
  190.9010  174.0710  145.4550 C   0  0  0  0  0  2  0  0  0  0  0  0
  189.4190  174.4120  145.4040 C   0  0  0  0  0  2  0  0  0  0  0  0
  189.1250  175.8770  145.0620 C   0  0  2  0  0  3  0  0  0  0  0  0
  187.6750  176.2890  145.3230 C   0  0  0  0  0  2  0  0  0  0  0  0
  187.5460  177.5150  146.2300 C   0  0  2  0  0  3  0  0  0  0  0  0
  188.8030  177.5650  147.0930 C   0  0  0  0  0  1  0  0  0  0  0  0
  186.3170  176.2640  147.8880 O   0  0  0  0  0  1  0  0  0  0  0  0
  186.2950  177.4360  147.1250 C   0  0  2  0  0  3  0  0  0  0  0  0
  185.0280  177.4560  146.2760 C   0  0  0  0  0  2  0  0  0  0  0  0
  184.5810  178.8790  145.9890 C   0  0  0  0  0  2  0  0  0  0  0  0
  183.7480  178.9020  144.8710 O   0  0  0  0  0  1  0  0  0  0  0  0
  189.6470  176.3340  143.6870 C   0  0  0  0  0  2  0  0  0  0  0  0
  190.8150  178.5170  143.7160 C   0  0  0  0  0  1  0  0  0  0  0  0
  189.4820  177.8330  143.4510 C   0  0  1  0  0  3  0  0  0  0  0  0
  189.0060  178.0790  142.0200 C   0  0  0  0  0  2  0  0  0  0  0  0
  186.9640  176.5950  141.6090 C   0  0  0  0  0  2  0  0  0  0  0  0
  187.0040  177.6220  140.4870 C   0  0  0  0  0  2  0  0  0  0  0  0
  187.4840  177.9920  141.8730 C   0  0  0  0  0  0  0  0  0  0  0  0
  186.5490  178.8240  142.7330 C   0  0  0  0  0  1  0  0  0  0  0  0
  1  7  1  0  0  0  0
  1 10  1  0  0  0  0
  2  5  1  0  0  0  0
  3 36  1  6  0  0  0
  6  3  1  0  0  0  0
  7 10  1  0  0  0  0
  8  9  1  0  0  0  0
  8  1  2  0  0  0  0
  9 13  1  6  0  0  0
  9 12  1  0  0  0  0
 10 15  1  1  0  0  0
 11  4  1  1  0  0  0
 11 10  1  0  0  0  0
 11 14  1  0  0  0  0
 12  5  1  1  0  0  0
 12  4  1  0  0  0  0
 13 16  1  0  0  0  0
 14 32  1  1  0  0  0
 14  6  1  0  0  0  0
 15  3  1  0  0  0  0
 16  2  1  0  0  0  0
 17 21  1  6  0  0  0
 17 19  1  0  0  0  0
 17 20  1  0  0  0  0
 19 14  1  1  0  0  0
 19 20  1  0  0  0  0
 20 18  1  6  0  0  0
 22 21  1  0  0  0  0
 23 24  2  0  0  0  0
 24 22  1  0  0  0  0
 25 24  2  0  0  0  0
 26 31  1  1  0  0  0
 26 24  1  0  0  0  0
 26 29  1  0  0  0  0
 29 27  1  0  0  0  0
 29 28  2  0  0  0  0
 30 31  1  0  0  0  0
 32 33  1  0  0  0  0
 33 34  1  0  0  0  0
 34 35  1  0  0  0  0
 37 36  1  0  0  0  0
 38 47  1  6  0  0  0
 38 39  1  0  0  0  0
 38 37  1  0  0  0  0
 39 40  1  0  0  0  0
 40 41  1  1  0  0  0
 40 43  1  0  0  0  0
 43 42  1  6  0  0  0
 44 43  1  0  0  0  0
 45 44  1  0  0  0  0
 46 45  1  0  0  0  0
 49 47  1  0  0  0  0
 49 48  1  6  0  0  0
 50 49  1  0  0  0  0
 51 53  1  0  0  0  0
 52 51  1  0  0  0  0
 52 53  1  0  0  0  0
 53 50  1  0  0  0  0
 53 54  1  0  0  0  0
M  END
>  <MODEL>
3

>  <REMARK>
 VINA RESULT:      -5.4      2.544      6.021
  Name = 
  22 active torsions:
  status: ('A' for Active; 'I' for Inactive)
    1  A    between atoms: C_2  and  S_14
    2  A    between atoms: C_2  and  C_35
    3  A    between atoms: C_2  and  C_51
    4  A    between atoms: C_4  and  C_13
    5  A    between atoms: C_4  and  C_28
    6  A    between atoms: C_5  and  C_50
    7  A    between atoms: C_5  and  C_54
    8  A    between atoms: C_6  and  C_44
    9  A    between atoms: C_6  and  C_49
   10  A    between atoms: C_9  and  C_42
   11  A    between atoms: C_11  and  C_43
   12  A    between atoms: S_14  and  N_38
   13  A    between atoms: C_19  and  C_25
   14  A    between atoms: C_19  and  C_44
   15  A    between atoms: C_21  and  C_36
   16  A    between atoms: C_25  and  C_54
   17  A    between atoms: C_28  and  C_36
   18  A    between atoms: C_31  and  C_48
   19  A    between atoms: C_31  and  C_49
   20  A    between atoms: N_38  and  C_43
   21  A    between atoms: C_42  and  C_46
   22  A    between atoms: C_44  and  C_46
                            x       y       z     vdW  Elec       q    Type
                         _______ _______ _______ _____ _____    ______ ____

>  <TORSDO>
F 22

$$$$
=
 OpenBabel11062418343D

 54 59  0  0  1  0  0  0  0  0999 V2000
  190.0090  172.5110  139.6270 C   0  0  0  0  0  0  0  0  0  0  0  0
  192.0610  168.2000  138.1990 C   0  0  0  0  0  2  0  0  0  0  0  0
  189.8470  172.3530  143.3640 C   0  0  2  0  0  3  0  0  0  0  0  0
  191.4320  170.5590  141.0130 O   0  0  0  0  0  0  0  0  0  0  0  0
  192.1600  168.7670  139.6120 C   0  0  0  0  0  2  0  0  0  0  0  0
  191.1800  171.8480  143.5540 O   0  0  0  0  0  0  0  0  0  0  0  0
  190.1450  173.8340  140.3230 O   0  0  0  0  0  0  0  0  0  0  0  0
  189.8560  171.6880  138.6100 C   0  0  0  0  0  3  0  0  0  0  0  0
  190.2270  170.2650  138.8860 C   0  0  2  0  0  3  0  0  0  0  0  0
  190.3160  172.6340  140.9550 C   0  0  2  0  0  0  0  0  0  0  0  0
  191.6570  171.9570  141.1480 C   0  0  1  0  0  3  0  0  0  0  0  0
  191.5870  170.1870  139.6570 C   0  0  1  0  0  3  0  0  0  0  0  0
  190.3600  169.5300  137.5500 C   0  0  0  0  0  2  0  0  0  0  0  0
  192.1450  172.2860  142.5890 C   0  0  2  0  0  0  0  0  0  0  0  0
  189.2530  172.2610  141.9500 C   0  0  0  0  0  2  0  0  0  0  0  0
  190.7200  168.1910  137.7750 O   0  0  0  0  0  0  0  0  0  0  0  0
  193.5070  170.1000  142.9020 C   0  0  2  0  0  3  0  0  0  0  0  0
  194.9000  171.0030  144.8840 C   0  0  0  0  0  1  0  0  0  0  0  0
  193.5100  171.6130  142.9490 C   0  0  2  0  0  3  0  0  0  0  0  0
  193.5210  170.8390  144.2540 C   0  0  1  0  0  3  0  0  0  0  0  0
  194.8640  169.5850  142.4320 C   0  0  0  0  0  2  0  0  0  0  0  0
  195.0370  169.9220  141.0270 N   0  0  0  0  0  2  0  0  0  0  0  0
  197.1170  171.0640  142.1900 O   0  0  0  0  0  0  0  0  0  0  0  0
  196.4330  170.9440  140.8550 S   0  0  0  0  0  0  0  0  0  0  0  0
  197.4020  170.3570  139.8620 O   0  0  0  0  0  0  0  0  0  0  0  0
  195.9330  172.5670  140.2780 C   0  0  1  0  0  3  0  0  0  0  0  0
  197.3950  173.4080  138.4030 N   0  0  0  0  0  1  0  0  0  0  0  0
  197.8820  173.9250  140.6110 O   0  0  0  0  0  0  0  0  0  0  0  0
  197.1130  173.3480  139.7970 C   0  0  0  0  0  0  0  0  0  0  0  0
  194.0080  173.6350  139.2080 N   0  0  0  0  0  1  0  0  0  0  0  0
  194.8750  172.4650  139.1870 C   0  0  0  0  0  2  0  0  0  0  0  0
  192.3650  173.8230  142.6800 C   0  0  0  0  0  2  0  0  0  0  0  0
  193.7830  174.3030  143.0340 C   0  0  0  0  0  2  0  0  0  0  0  0
  194.0560  175.7170  142.5570 C   0  0  0  0  0  2  0  0  0  0  0  0
  195.0970  175.7180  141.6300 O   0  0  0  0  0  1  0  0  0  0  0  0
  189.5910  173.6970  144.0310 C   0  0  0  0  0  2  0  0  0  0  0  0
  188.5550  174.4910  143.2500 C   0  0  0  0  0  2  0  0  0  0  0  0
  188.4790  175.9720  143.6390 C   0  0  2  0  0  3  0  0  0  0  0  0
  187.0900  176.5860  143.4520 C   0  0  0  0  0  2  0  0  0  0  0  0
  186.9700  178.0020  144.0190 C   0  0  2  0  0  3  0  0  0  0  0  0
  186.2660  177.8830  145.3670 C   0  0  0  0  0  1  0  0  0  0  0  0
  185.5380  179.9350  143.8240 O   0  0  0  0  0  1  0  0  0  0  0  0
  186.1670  178.9270  143.0860 C   0  0  2  0  0  3  0  0  0  0  0  0
  185.1120  178.1320  142.3240 C   0  0  0  0  0  2  0  0  0  0  0  0
  185.2650  178.3100  140.8240 C   0  0  0  0  0  2  0  0  0  0  0  0
  184.0800  177.9610  140.1770 O   0  0  0  0  0  1  0  0  0  0  0  0
  189.6100  176.8460  143.0640 C   0  0  0  0  0  2  0  0  0  0  0  0
  191.2490  178.5460  143.8070 C   0  0  0  0  0  1  0  0  0  0  0  0
  190.7080  177.1510  144.0800 C   0  0  1  0  0  3  0  0  0  0  0  0
  190.1440  177.0400  145.4950 C   0  0  0  0  0  2  0  0  0  0  0  0
  192.5420  176.2700  145.9420 C   0  0  0  0  0  2  0  0  0  0  0  0
  191.6400  175.0590  146.1360 C   0  0  0  0  0  2  0  0  0  0  0  0
  191.1430  176.4420  146.4920 C   0  0  0  0  0  0  0  0  0  0  0  0
  191.1220  176.8160  147.9640 C   0  0  0  0  0  1  0  0  0  0  0  0
  1  7  1  0  0  0  0
  1 10  1  0  0  0  0
  2  5  1  0  0  0  0
  3  6  1  0  0  0  0
  3 36  1  6  0  0  0
  7 10  1  0  0  0  0
  8  9  1  0  0  0  0
  8  1  2  0  0  0  0
  9 13  1  6  0  0  0
  9 12  1  0  0  0  0
 10 11  1  0  0  0  0
 10 15  1  1  0  0  0
 11  4  1  1  0  0  0
 11 14  1  0  0  0  0
 12  5  1  1  0  0  0
 12  4  1  0  0  0  0
 13 16  1  0  0  0  0
 14 32  1  1  0  0  0
 14  6  1  0  0  0  0
 15  3  1  0  0  0  0
 16  2  1  0  0  0  0
 17 21  1  6  0  0  0
 17 19  1  0  0  0  0
 17 20  1  0  0  0  0
 19 14  1  1  0  0  0
 19 20  1  0  0  0  0
 20 18  1  6  0  0  0
 22 21  1  0  0  0  0
 24 22  1  0  0  0  0
 24 23  2  0  0  0  0
 25 24  2  0  0  0  0
 26 31  1  6  0  0  0
 26 24  1  0  0  0  0
 27 29  1  0  0  0  0
 29 26  1  0  0  0  0
 29 28  2  0  0  0  0
 31 30  1  0  0  0  0
 32 33  1  0  0  0  0
 34 33  1  0  0  0  0
 35 34  1  0  0  0  0
 37 38  1  0  0  0  0
 37 36  1  0  0  0  0
 38 47  1  6  0  0  0
 39 38  1  0  0  0  0
 39 40  1  0  0  0  0
 40 41  1  1  0  0  0
 43 42  1  1  0  0  0
 43 40  1  0  0  0  0
 44 43  1  0  0  0  0
 45 44  1  0  0  0  0
 46 45  1  0  0  0  0
 47 49  1  0  0  0  0
 49 48  1  6  0  0  0
 49 50  1  0  0  0  0
 50 53  1  0  0  0  0
 51 52  1  0  0  0  0
 51 53  1  0  0  0  0
 52 53  1  0  0  0  0
 53 54  1  0  0  0  0
M  END
>  <MODEL>
4

>  <REMARK>
 VINA RESULT:      -5.3      2.803      5.902
  Name = 
  22 active torsions:
  status: ('A' for Active; 'I' for Inactive)
    1  A    between atoms: C_2  and  S_14
    2  A    between atoms: C_2  and  C_35
    3  A    between atoms: C_2  and  C_51
    4  A    between atoms: C_4  and  C_13
    5  A    between atoms: C_4  and  C_28
    6  A    between atoms: C_5  and  C_50
    7  A    between atoms: C_5  and  C_54
    8  A    between atoms: C_6  and  C_44
    9  A    between atoms: C_6  and  C_49
   10  A    between atoms: C_9  and  C_42
   11  A    between atoms: C_11  and  C_43
   12  A    between atoms: S_14  and  N_38
   13  A    between atoms: C_19  and  C_25
   14  A    between atoms: C_19  and  C_44
   15  A    between atoms: C_21  and  C_36
   16  A    between atoms: C_25  and  C_54
   17  A    between atoms: C_28  and  C_36
   18  A    between atoms: C_31  and  C_48
   19  A    between atoms: C_31  and  C_49
   20  A    between atoms: N_38  and  C_43
   21  A    between atoms: C_42  and  C_46
   22  A    between atoms: C_44  and  C_46
                            x       y       z     vdW  Elec       q    Type
                         _______ _______ _______ _____ _____    ______ ____

>  <TORSDO>
F 22

$$$$
=
 OpenBabel11062418343D

 54 59  0  0  1  0  0  0  0  0999 V2000
  193.0200  169.0800  143.5530 C   0  0  0  0  0  0  0  0  0  0  0  0
  197.3010  170.6920  145.5310 C   0  0  0  0  0  2  0  0  0  0  0  0
  190.9080  172.1390  143.1110 C   0  0  2  0  0  3  0  0  0  0  0  0
  194.1580  171.6140  143.7560 O   0  0  0  0  0  0  0  0  0  0  0  0
  196.3040  171.5900  144.8050 C   0  0  0  0  0  2  0  0  0  0  0  0
  191.9440  172.9600  142.5450 O   0  0  0  0  0  0  0  0  0  0  0  0
  192.0770  169.0350  142.3860 O   0  0  0  0  0  0  0  0  0  0  0  0
  193.8860  168.6130  144.4290 C   0  0  0  0  0  3  0  0  0  0  0  0
  194.6780  169.6550  145.1540 C   0  0  2  0  0  3  0  0  0  0  0  0
  192.4270  170.1940  143.0220 C   0  0  2  0  0  0  0  0  0  0  0  0
  193.5510  171.1050  142.5740 C   0  0  1  0  0  3  0  0  0  0  0  0
  195.1990  170.7460  144.1600 C   0  0  1  0  0  3  0  0  0  0  0  0
  195.8710  168.9760  145.8310 C   0  0  0  0  0  2  0  0  0  0  0  0
  192.9150  172.2640  141.7530 C   0  0  2  0  0  0  0  0  0  0  0  0
  191.3410  170.8510  143.8270 C   0  0  0  0  0  2  0  0  0  0  0  0
  196.6410  169.9320  146.5130 O   0  0  0  0  0  0  0  0  0  0  0  0
  193.6450  174.7520  141.6260 C   0  0  2  0  0  3  0  0  0  0  0  0
  194.6300  174.5580  139.2440 C   0  0  0  0  0  1  0  0  0  0  0  0
  193.9600  173.3170  141.2580 C   0  0  2  0  0  3  0  0  0  0  0  0
  193.4630  174.2590  140.1780 C   0  0  1  0  0  3  0  0  0  0  0  0
  194.9340  175.5230  141.8910 C   0  0  0  0  0  2  0  0  0  0  0  0
  195.6470  174.8920  142.9920 N   0  0  0  0  0  2  0  0  0  0  0  0
  195.9250  175.0050  145.6180 O   0  0  0  0  0  0  0  0  0  0  0  0
  195.2190  175.6870  144.4770 S   0  0  0  0  0  0  0  0  0  0  0  0
  195.6350  177.1350  144.4430 O   0  0  0  0  0  0  0  0  0  0  0  0
  193.4440  175.6060  144.7230 C   0  0  1  0  0  3  0  0  0  0  0  0
  193.2110  173.3960  145.9140 N   0  0  0  0  0  1  0  0  0  0  0  0
  192.7110  175.3850  146.9960 O   0  0  0  0  0  0  0  0  0  0  0  0
  193.1120  174.8150  145.9470 C   0  0  0  0  0  0  0  0  0  0  0  0
  192.2000  177.3490  143.5370 N   0  0  0  0  0  1  0  0  0  0  0  0
  192.8320  177.0000  144.8010 C   0  0  0  0  0  2  0  0  0  0  0  0
  192.2610  171.6500  140.4840 C   0  0  0  0  0  2  0  0  0  0  0  0
  193.1760  170.8390  139.5520 C   0  0  0  0  0  2  0  0  0  0  0  0
  192.4510  169.6900  138.8770 C   0  0  0  0  0  2  0  0  0  0  0  0
  193.0480  168.4780  139.2190 O   0  0  0  0  0  1  0  0  0  0  0  0
  189.7080  171.9380  142.1970 C   0  0  0  0  0  2  0  0  0  0  0  0
  188.7030  173.0670  142.3790 C   0  0  0  0  0  2  0  0  0  0  0  0
  188.9240  174.2570  141.4380 C   0  0  2  0  0  3  0  0  0  0  0  0
  189.6830  173.8970  140.1600 C   0  0  0  0  0  2  0  0  0  0  0  0
  188.7920  173.8530  138.9160 C   0  0  2  0  0  3  0  0  0  0  0  0
  188.1090  172.4880  138.9060 C   0  0  0  0  0  1  0  0  0  0  0  0
  188.7470  174.2670  136.5390 O   0  0  0  0  0  1  0  0  0  0  0  0
  189.6040  174.0450  137.6220 C   0  0  2  0  0  3  0  0  0  0  0  0
  190.4590  172.8140  137.3400 C   0  0  0  0  0  2  0  0  0  0  0  0
  191.7900  173.1990  136.7200 C   0  0  0  0  0  2  0  0  0  0  0  0
  192.0530  174.5480  136.9540 O   0  0  0  0  0  1  0  0  0  0  0  0
  189.4610  175.5270  142.1240 C   0  0  0  0  0  2  0  0  0  0  0  0
  187.3830  176.6030  141.3190 C   0  0  0  0  0  1  0  0  0  0  0  0
  188.3640  176.5270  142.4790 C   0  0  1  0  0  3  0  0  0  0  0  0
  187.6690  176.0930  143.7670 C   0  0  0  0  0  2  0  0  0  0  0  0
  187.9710  177.0290  146.1290 C   0  0  0  0  0  2  0  0  0  0  0  0
  189.0890  177.6060  145.2720 C   0  0  0  0  0  2  0  0  0  0  0  0
  188.5680  176.2120  145.0030 C   0  0  0  0  0  0  0  0  0  0  0  0
  189.4120  175.0480  145.4920 C   0  0  0  0  0  1  0  0  0  0  0  0
  1  8  2  0  0  0  0
  2 16  1  0  0  0  0
  3 36  1  6  0  0  0
  3 15  1  0  0  0  0
  4 12  1  0  0  0  0
  5  2  1  0  0  0  0
  6  3  1  0  0  0  0
  7 10  1  0  0  0  0
  7  1  1  0  0  0  0
  9  8  1  6  0  0  0
  9 13  1  0  0  0  0
 10  1  1  0  0  0  0
 10 15  1  1  0  0  0
 11 10  1  0  0  0  0
 11  4  1  1  0  0  0
 12  5  1  1  0  0  0
 12  9  1  0  0  0  0
 13 16  1  0  0  0  0
 14 32  1  6  0  0  0
 14  6  1  0  0  0  0
 14 11  1  0  0  0  0
 17 21  1  6  0  0  0
 19 17  1  0  0  0  0
 19 14  1  1  0  0  0
 20 18  1  6  0  0  0
 20 19  1  0  0  0  0
 20 17  1  0  0  0  0
 21 22  1  0  0  0  0
 22 24  1  0  0  0  0
 24 26  1  0  0  0  0
 24 23  2  0  0  0  0
 25 24  2  0  0  0  0
 26 31  1  1  0  0  0
 26 29  1  0  0  0  0
 27 29  1  0  0  0  0
 29 28  2  0  0  0  0
 30 31  1  0  0  0  0
 33 32  1  0  0  0  0
 34 35  1  0  0  0  0
 34 33  1  0  0  0  0
 36 37  1  0  0  0  0
 38 39  1  6  0  0  0
 38 47  1  0  0  0  0
 38 37  1  0  0  0  0
 40 41  1  6  0  0  0
 40 39  1  0  0  0  0
 43 42  1  6  0  0  0
 43 40  1  0  0  0  0
 44 43  1  0  0  0  0
 45 46  1  0  0  0  0
 45 44  1  0  0  0  0
 47 49  1  0  0  0  0
 49 48  1  6  0  0  0
 49 50  1  0  0  0  0
 50 53  1  0  0  0  0
 52 51  1  0  0  0  0
 53 52  1  0  0  0  0
 53 54  1  0  0  0  0
 53 51  1  0  0  0  0
M  END
>  <MODEL>
5

>  <REMARK>
 VINA RESULT:      -5.3      3.375      6.578
  Name = 
  22 active torsions:
  status: ('A' for Active; 'I' for Inactive)
    1  A    between atoms: C_2  and  S_14
    2  A    between atoms: C_2  and  C_35
    3  A    between atoms: C_2  and  C_51
    4  A    between atoms: C_4  and  C_13
    5  A    between atoms: C_4  and  C_28
    6  A    between atoms: C_5  and  C_50
    7  A    between atoms: C_5  and  C_54
    8  A    between atoms: C_6  and  C_44
    9  A    between atoms: C_6  and  C_49
   10  A    between atoms: C_9  and  C_42
   11  A    between atoms: C_11  and  C_43
   12  A    between atoms: S_14  and  N_38
   13  A    between atoms: C_19  and  C_25
   14  A    between atoms: C_19  and  C_44
   15  A    between atoms: C_21  and  C_36
   16  A    between atoms: C_25  and  C_54
   17  A    between atoms: C_28  and  C_36
   18  A    between atoms: C_31  and  C_48
   19  A    between atoms: C_31  and  C_49
   20  A    between atoms: N_38  and  C_43
   21  A    between atoms: C_42  and  C_46
   22  A    between atoms: C_44  and  C_46
                            x       y       z     vdW  Elec       q    Type
                         _______ _______ _______ _____ _____    ______ ____

>  <TORSDO>
F 22

$$$$
=
 OpenBabel11062418343D

 54 59  0  0  1  0  0  0  0  0999 V2000
  189.6110  177.1760  146.5350 C   0  0  0  0  0  0  0  0  0  0  0  0
  184.8200  178.5380  146.3610 C   0  0  0  0  0  2  0  0  0  0  0  0
  189.7190  173.7120  145.1190 C   0  0  2  0  0  3  0  0  0  0  0  0
  187.4170  176.1520  145.1580 O   0  0  0  0  0  0  0  0  0  0  0  0
  185.4150  177.3980  145.5390 C   0  0  0  0  0  2  0  0  0  0  0  0
  188.8680  173.9810  143.9920 O   0  0  0  0  0  0  0  0  0  0  0  0
  190.8780  176.8270  145.8090 O   0  0  0  0  0  0  0  0  0  0  0  0
  188.8090  177.8930  147.2950 C   0  0  0  0  0  3  0  0  0  0  0  0
  187.3570  177.5470  147.1860 C   0  0  2  0  0  3  0  0  0  0  0  0
  189.7170  176.1200  145.6710 C   0  0  2  0  0  0  0  0  0  0  0  0
  188.6990  176.3590  144.5750 C   0  0  1  0  0  3  0  0  0  0  0  0
  186.9400  177.3740  145.6880 C   0  0  1  0  0  3  0  0  0  0  0  0
  186.5390  178.6790  147.8120 C   0  0  0  0  0  2  0  0  0  0  0  0
  188.9570  175.3080  143.4570 C   0  0  2  0  0  0  0  0  0  0  0  0
  189.7190  174.7380  146.2630 C   0  0  0  0  0  2  0  0  0  0  0  0
  185.1680  178.3880  147.7160 O   0  0  0  0  0  0  0  0  0  0  0  0
  188.5690  175.6830  140.9190 C   0  0  2  0  0  3  0  0  0  0  0  0
  186.3420  176.9570  141.2340 C   0  0  0  0  0  1  0  0  0  0  0  0
  187.9450  175.4060  142.2700 C   0  0  2  0  0  3  0  0  0  0  0  0
  187.7950  176.7880  141.6620 C   0  0  1  0  0  3  0  0  0  0  0  0
  187.7870  174.9710  139.8200 C   0  0  0  0  0  2  0  0  0  0  0  0
  188.7010  174.6050  138.7480 N   0  0  0  0  0  2  0  0  0  0  0  0
  187.8200  172.2020  139.4070 O   0  0  0  0  0  0  0  0  0  0  0  0
  189.0250  172.8990  138.8350 S   0  0  0  0  0  0  0  0  0  0  0  0
  189.3060  172.3420  137.4640 O   0  0  0  0  0  0  0  0  0  0  0  0
  190.4530  172.6020  139.8790 C   0  0  1  0  0  3  0  0  0  0  0  0
  190.5640  170.0870  139.7380 N   0  0  0  0  0  1  0  0  0  0  0  0
  190.0960  171.1430  141.7480 O   0  0  0  0  0  0  0  0  0  0  0  0
  190.3700  171.2570  140.5250 C   0  0  0  0  0  0  0  0  0  0  0  0
  192.5190  173.8800  139.5770 N   0  0  0  0  0  1  0  0  0  0  0  0
  191.7510  172.7420  139.0930 C   0  0  0  0  0  2  0  0  0  0  0  0
  190.3700  175.5750  142.8660 C   0  0  0  0  0  2  0  0  0  0  0  0
  190.9010  177.0150  142.9560 C   0  0  0  0  0  2  0  0  0  0  0  0
  192.4090  177.0920  142.8040 C   0  0  0  0  0  2  0  0  0  0  0  0
  192.9640  175.8160  142.8760 O   0  0  0  0  0  1  0  0  0  0  0  0
  191.1160  173.2390  144.7420 C   0  0  0  0  0  2  0  0  0  0  0  0
  192.1320  173.7010  145.7770 C   0  0  0  0  0  2  0  0  0  0  0  0
  193.5740  173.2850  145.4660 C   0  0  2  0  0  3  0  0  0  0  0  0
  194.5660  174.4490  145.4820 C   0  0  0  0  0  2  0  0  0  0  0  0
  195.9510  174.0750  144.9490 C   0  0  2  0  0  3  0  0  0  0  0  0
  196.7680  173.5820  146.1400 C   0  0  0  0  0  1  0  0  0  0  0  0
  195.8180  176.3960  144.3040 O   0  0  0  0  0  1  0  0  0  0  0  0
  196.6540  175.2750  144.2880 C   0  0  2  0  0  3  0  0  0  0  0  0
  197.0260  174.9490  142.8460 C   0  0  0  0  0  2  0  0  0  0  0  0
  197.3360  173.4710  142.6790 C   0  0  0  0  0  2  0  0  0  0  0  0
  196.4380  172.8930  141.7820 O   0  0  0  0  0  1  0  0  0  0  0  0
  193.7290  172.3740  144.2330 C   0  0  0  0  0  2  0  0  0  0  0  0
  192.9590  170.0290  144.0480 C   0  0  0  0  0  1  0  0  0  0  0  0
  194.0580  170.9280  144.5930 C   0  0  1  0  0  3  0  0  0  0  0  0
  195.4220  170.5530  144.0160 C   0  0  0  0  0  2  0  0  0  0  0  0
  196.0000  168.7260  145.7110 C   0  0  0  0  0  2  0  0  0  0  0  0
  195.8530  170.0260  146.4880 C   0  0  0  0  0  2  0  0  0  0  0  0
  196.4010  170.0410  145.0780 C   0  0  0  0  0  0  0  0  0  0  0  0
  197.9040  170.1910  144.9170 C   0  0  0  0  0  1  0  0  0  0  0  0
  1  8  2  0  0  0  0
  2 16  1  0  0  0  0
  3 36  1  6  0  0  0
  3 15  1  0  0  0  0
  4 12  1  0  0  0  0
  5  2  1  0  0  0  0
  6  3  1  0  0  0  0
  7  1  1  0  0  0  0
  9  8  1  6  0  0  0
  9 13  1  0  0  0  0
 10  7  1  0  0  0  0
 10 15  1  1  0  0  0
 10  1  1  0  0  0  0
 11  4  1  1  0  0  0
 11 10  1  0  0  0  0
 12  5  1  1  0  0  0
 12  9  1  0  0  0  0
 14 32  1  6  0  0  0
 14  6  1  0  0  0  0
 14 11  1  0  0  0  0
 16 13  1  0  0  0  0
 17 21  1  6  0  0  0
 17 20  1  0  0  0  0
 17 19  1  0  0  0  0
 19 14  1  1  0  0  0
 20 18  1  6  0  0  0
 20 19  1  0  0  0  0
 22 24  1  0  0  0  0
 22 21  1  0  0  0  0
 24 23  2  0  0  0  0
 24 26  1  0  0  0  0
 25 24  2  0  0  0  0
 26 31  1  6  0  0  0
 26 29  1  0  0  0  0
 27 29  1  0  0  0  0
 29 28  2  0  0  0  0
 31 30  1  0  0  0  0
 32 33  1  0  0  0  0
 34 35  1  0  0  0  0
 34 33  1  0  0  0  0
 36 37  1  0  0  0  0
 38 47  1  6  0  0  0
 38 39  1  0  0  0  0
 38 37  1  0  0  0  0
 40 39  1  0  0  0  0
 40 41  1  1  0  0  0
 43 42  1  6  0  0  0
 43 40  1  0  0  0  0
 44 43  1  0  0  0  0
 45 44  1  0  0  0  0
 46 45  1  0  0  0  0
 47 49  1  0  0  0  0
 49 48  1  6  0  0  0
 50 49  1  0  0  0  0
 50 53  1  0  0  0  0
 51 52  1  0  0  0  0
 53 51  1  0  0  0  0
 53 52  1  0  0  0  0
 54 53  1  0  0  0  0
M  END
>  <MODEL>
6

>  <REMARK>
 VINA RESULT:      -5.2      2.654      8.346
  Name = 
  22 active torsions:
  status: ('A' for Active; 'I' for Inactive)
    1  A    between atoms: C_2  and  S_14
    2  A    between atoms: C_2  and  C_35
    3  A    between atoms: C_2  and  C_51
    4  A    between atoms: C_4  and  C_13
    5  A    between atoms: C_4  and  C_28
    6  A    between atoms: C_5  and  C_50
    7  A    between atoms: C_5  and  C_54
    8  A    between atoms: C_6  and  C_44
    9  A    between atoms: C_6  and  C_49
   10  A    between atoms: C_9  and  C_42
   11  A    between atoms: C_11  and  C_43
   12  A    between atoms: S_14  and  N_38
   13  A    between atoms: C_19  and  C_25
   14  A    between atoms: C_19  and  C_44
   15  A    between atoms: C_21  and  C_36
   16  A    between atoms: C_25  and  C_54
   17  A    between atoms: C_28  and  C_36
   18  A    between atoms: C_31  and  C_48
   19  A    between atoms: C_31  and  C_49
   20  A    between atoms: N_38  and  C_43
   21  A    between atoms: C_42  and  C_46
   22  A    between atoms: C_44  and  C_46
                            x       y       z     vdW  Elec       q    Type
                         _______ _______ _______ _____ _____    ______ ____

>  <TORSDO>
F 22

$$$$
=
 OpenBabel11062418343D

 54 59  0  0  1  0  0  0  0  0999 V2000
  189.8410  173.8190  140.1770 C   0  0  1  0  0  3  0  0  0  0  0  0
  190.7910  171.0870  136.1190 C   0  0  0  0  0  2  0  0  0  0  0  0
  190.8250  171.6720  143.0820 C   0  0  2  0  0  3  0  0  0  0  0  0
  191.3660  171.5230  139.7740 O   0  0  0  0  0  0  0  0  0  0  0  0
  191.3930  170.8130  137.4940 C   0  0  0  0  0  2  0  0  0  0  0  0
  192.0770  171.2310  142.5290 O   0  0  0  0  0  0  0  0  0  0  0  0
  190.3510  174.5680  141.3740 O   0  0  0  0  0  0  0  0  0  0  0  0
  189.2780  173.6620  138.9960 C   0  0  0  0  0  2  0  0  0  0  0  0
  189.5350  172.3400  138.3440 C   0  0  2  0  0  3  0  0  0  0  0  0
  190.5570  173.2300  141.1830 C   0  0  2  0  0  0  0  0  0  0  0  0
  191.7960  172.6430  140.5400 C   0  0  1  0  0  3  0  0  0  0  0  0
  191.0450  171.9480  138.4630 C   0  0  1  0  0  3  0  0  0  0  0  0
  189.1540  172.4460  136.8650 C   0  0  0  0  0  2  0  0  0  0  0  0
  192.7430  172.1790  141.6840 C   0  0  2  0  0  0  0  0  0  0  0  0
  189.8160  172.3150  142.1180 C   0  0  0  0  0  2  0  0  0  0  0  0
  189.3950  171.2200  136.2210 O   0  0  0  0  0  0  0  0  0  0  0  0
  194.2530  171.5590  139.6660 C   0  0  2  0  0  3  0  0  0  0  0  0
  195.0130  169.2970  140.6610 C   0  0  0  0  0  1  0  0  0  0  0  0
  194.0560  171.5050  141.1660 C   0  0  2  0  0  3  0  0  0  0  0  0
  193.8550  170.2400  140.3550 C   0  0  1  0  0  3  0  0  0  0  0  0
  195.7350  171.6940  139.3330 C   0  0  0  0  0  2  0  0  0  0  0  0
  195.8830  171.8750  137.8970 N   0  0  0  0  0  2  0  0  0  0  0  0
  196.5230  174.2480  138.8690 O   0  0  0  0  0  0  0  0  0  0  0  0
  196.5260  173.4600  137.5870 S   0  0  0  0  0  0  0  0  0  0  0  0
  197.9400  173.3690  137.0750 O   0  0  0  0  0  0  0  0  0  0  0  0
  195.5240  174.2940  136.3560 C   0  0  1  0  0  3  0  0  0  0  0  0
  193.5450  174.6290  137.8840 N   0  0  0  0  0  1  0  0  0  0  0  0
  193.3050  173.5350  135.8540 O   0  0  0  0  0  0  0  0  0  0  0  0
  194.0680  174.1340  136.6560 C   0  0  0  0  0  0  0  0  0  0  0  0
  194.9380  176.4710  135.4020 N   0  0  0  0  0  1  0  0  0  0  0  0
  195.8900  175.7700  136.2510 C   0  0  0  0  0  2  0  0  0  0  0  0
  193.1720  173.4370  142.4910 C   0  0  0  0  0  2  0  0  0  0  0  0
  194.6730  173.7710  142.5130 C   0  0  0  0  0  2  0  0  0  0  0  0
  195.2690  173.6880  143.9050 C   0  0  0  0  0  2  0  0  0  0  0  0
  196.4120  174.4820  143.9860 O   0  0  0  0  0  1  0  0  0  0  0  0
  190.9600  172.4300  144.3950 C   0  0  0  0  0  2  0  0  0  0  0  0
  189.6500  173.1180  144.7500 C   0  0  0  0  0  2  0  0  0  0  0  0
  189.8070  174.5890  145.1530 C   0  0  2  0  0  3  0  0  0  0  0  0
  189.7020  174.8270  146.6610 C   0  0  0  0  0  2  0  0  0  0  0  0
  191.0380  175.1880  147.3130 C   0  0  2  0  0  3  0  0  0  0  0  0
  190.8670  176.5650  147.9470 C   0  0  0  0  0  1  0  0  0  0  0  0
  193.0530  174.1420  146.4930 O   0  0  0  0  0  1  0  0  0  0  0  0
  192.1860  175.2200  146.2870 C   0  0  2  0  0  3  0  0  0  0  0  0
  192.9720  176.5220  146.4040 C   0  0  0  0  0  2  0  0  0  0  0  0
  193.6900  176.8490  145.1070 C   0  0  0  0  0  2  0  0  0  0  0  0
  194.9540  177.3730  145.3800 O   0  0  0  0  0  1  0  0  0  0  0  0
  188.9640  175.5760  144.3240 C   0  0  0  0  0  2  0  0  0  0  0  0
  190.0330  177.8090  144.3200 C   0  0  0  0  0  1  0  0  0  0  0  0
  188.9130  176.9770  144.9280 C   0  0  1  0  0  3  0  0  0  0  0  0
  187.5470  177.6040  144.6610 C   0  0  0  0  0  2  0  0  0  0  0  0
  185.3430  177.0650  145.8440 C   0  0  0  0  0  2  0  0  0  0  0  0
  185.4470  178.5820  145.7600 C   0  0  0  0  0  2  0  0  0  0  0  0
  186.6940  177.7430  145.9270 C   0  0  0  0  0  0  0  0  0  0  0  0
  187.3090  177.6800  147.3150 C   0  0  0  0  0  1  0  0  0  0  0  0
  1  8  1  6  0  0  0
  1 10  1  0  0  0  0
  1  7  1  0  0  0  0
  2 16  1  0  0  0  0
  2  5  1  0  0  0  0
  3 36  1  1  0  0  0
  6  3  1  0  0  0  0
  9 13  1  6  0  0  0
  9 12  1  0  0  0  0
  9  8  1  0  0  0  0
 10  7  1  0  0  0  0
 10 15  1  1  0  0  0
 11  4  1  6  0  0  0
 11 10  1  0  0  0  0
 11 14  1  0  0  0  0
 12  5  1  6  0  0  0
 12  4  1  0  0  0  0
 14 32  1  1  0  0  0
 14  6  1  0  0  0  0
 15  3  1  0  0  0  0
 16 13  1  0  0  0  0
 17 21  1  1  0  0  0
 17 20  1  0  0  0  0
 17 19  1  0  0  0  0
 19 14  1  6  0  0  0
 20 18  1  1  0  0  0
 20 19  1  0  0  0  0
 22 21  1  0  0  0  0
 24 22  1  0  0  0  0
 24 23  2  0  0  0  0
 25 24  2  0  0  0  0
 26 31  1  1  0  0  0
 26 29  1  0  0  0  0
 26 24  1  0  0  0  0
 28 29  2  0  0  0  0
 29 27  1  0  0  0  0
 30 31  1  0  0  0  0
 32 33  1  0  0  0  0
 33 34  1  0  0  0  0
 34 35  1  0  0  0  0
 36 37  1  0  0  0  0
 37 38  1  0  0  0  0
 38 47  1  6  0  0  0
 38 39  1  0  0  0  0
 39 40  1  0  0  0  0
 40 41  1  6  0  0  0
 43 44  1  0  0  0  0
 43 42  1  1  0  0  0
 43 40  1  0  0  0  0
 45 46  1  0  0  0  0
 45 44  1  0  0  0  0
 47 49  1  0  0  0  0
 49 48  1  6  0  0  0
 50 49  1  0  0  0  0
 50 53  1  0  0  0  0
 51 53  1  0  0  0  0
 52 51  1  0  0  0  0
 52 53  1  0  0  0  0
 53 54  1  0  0  0  0
M  END
>  <MODEL>
7

>  <REMARK>
 VINA RESULT:      -5.2      2.490      6.469
  Name = 
  22 active torsions:
  status: ('A' for Active; 'I' for Inactive)
    1  A    between atoms: C_2  and  S_14
    2  A    between atoms: C_2  and  C_35
    3  A    between atoms: C_2  and  C_51
    4  A    between atoms: C_4  and  C_13
    5  A    between atoms: C_4  and  C_28
    6  A    between atoms: C_5  and  C_50
    7  A    between atoms: C_5  and  C_54
    8  A    between atoms: C_6  and  C_44
    9  A    between atoms: C_6  and  C_49
   10  A    between atoms: C_9  and  C_42
   11  A    between atoms: C_11  and  C_43
   12  A    between atoms: S_14  and  N_38
   13  A    between atoms: C_19  and  C_25
   14  A    between atoms: C_19  and  C_44
   15  A    between atoms: C_21  and  C_36
   16  A    between atoms: C_25  and  C_54
   17  A    between atoms: C_28  and  C_36
   18  A    between atoms: C_31  and  C_48
   19  A    between atoms: C_31  and  C_49
   20  A    between atoms: N_38  and  C_43
   21  A    between atoms: C_42  and  C_46
   22  A    between atoms: C_44  and  C_46
                            x       y       z     vdW  Elec       q    Type
                         _______ _______ _______ _____ _____    ______ ____

>  <TORSDO>
F 22

$$$$
=
 OpenBabel11062418343D

 54 59  0  0  1  0  0  0  0  0999 V2000
  193.3070  174.3830  143.4750 C   0  0  0  0  0  0  0  0  0  0  0  0
  196.1520  174.9230  139.4190 C   0  0  0  0  0  2  0  0  0  0  0  0
  189.8410  175.3020  142.3960 C   0  0  2  0  0  3  0  0  0  0  0  0
  192.6930  174.6130  140.7680 O   0  0  0  0  0  0  0  0  0  0  0  0
  194.6330  174.7860  139.3850 C   0  0  0  0  0  2  0  0  0  0  0  0
  189.8610  174.5560  141.1670 O   0  0  0  0  0  0  0  0  0  0  0  0
  192.2070  173.6530  144.1880 O   0  0  0  0  0  0  0  0  0  0  0  0
  194.5390  174.7840  143.2370 C   0  0  0  0  0  3  0  0  0  0  0  0
  194.7690  175.3470  141.8700 C   0  0  2  0  0  3  0  0  0  0  0  0
  192.0220  174.3160  143.0070 C   0  0  2  0  0  0  0  0  0  0  0  0
  192.0970  173.6620  141.6430 C   0  0  1  0  0  3  0  0  0  0  0  0
  194.0980  174.4460  140.7800 C   0  0  1  0  0  3  0  0  0  0  0  0
  196.2770  175.4080  141.6170 C   0  0  0  0  0  2  0  0  0  0  0  0
  190.6410  173.3530  141.1910 C   0  0  2  0  0  0  0  0  0  0  0  0
  191.1910  175.5650  143.0830 C   0  0  0  0  0  2  0  0  0  0  0  0
  196.5260  175.9240  140.3340 O   0  0  0  0  0  0  0  0  0  0  0  0
  190.0840  173.6420  138.6720 C   0  0  2  0  0  3  0  0  0  0  0  0
  189.1250  171.2580  138.3950 C   0  0  0  0  0  1  0  0  0  0  0  0
  190.5580  172.7110  139.7670 C   0  0  2  0  0  3  0  0  0  0  0  0
  189.1550  172.5420  139.2170 C   0  0  1  0  0  3  0  0  0  0  0  0
  190.7820  173.3090  137.3580 C   0  0  0  0  0  2  0  0  0  0  0  0
  192.1800  173.0080  137.6260 N   0  0  0  0  0  2  0  0  0  0  0  0
  191.6710  171.3460  135.6350 O   0  0  0  0  0  0  0  0  0  0  0  0
  192.6210  171.5520  136.7850 S   0  0  0  0  0  0  0  0  0  0  0  0
  194.0240  171.6540  136.2450 O   0  0  0  0  0  0  0  0  0  0  0  0
  192.5370  170.1520  137.9030 C   0  0  1  0  0  3  0  0  0  0  0  0
  193.2250  168.1770  136.4940 N   0  0  0  0  0  1  0  0  0  0  0  0
  191.0080  168.4920  137.0940 O   0  0  0  0  0  0  0  0  0  0  0  0
  192.1970  168.8990  137.1630 C   0  0  0  0  0  0  0  0  0  0  0  0
  193.8510  170.8490  139.8470 N   0  0  0  0  0  1  0  0  0  0  0  0
  193.8390  169.9830  138.6770 C   0  0  0  0  0  2  0  0  0  0  0  0
  190.0390  172.3200  142.1850 C   0  0  0  0  0  2  0  0  0  0  0  0
  190.4640  170.8530  142.0060 C   0  0  0  0  0  2  0  0  0  0  0  0
  191.7090  170.5060  142.7990 C   0  0  0  0  0  2  0  0  0  0  0  0
  191.9400  169.1320  142.7520 O   0  0  0  0  0  1  0  0  0  0  0  0
  188.7540  174.8670  143.3680 C   0  0  0  0  0  2  0  0  0  0  0  0
  189.0000  175.4630  144.7460 C   0  0  0  0  0  2  0  0  0  0  0  0
  189.0900  176.9940  144.7580 C   0  0  2  0  0  3  0  0  0  0  0  0
  190.2530  177.5340  145.5910 C   0  0  0  0  0  2  0  0  0  0  0  0
  190.4950  176.7460  146.8800 C   0  0  2  0  0  3  0  0  0  0  0  0
  190.4850  177.7530  148.0260 C   0  0  0  0  0  1  0  0  0  0  0  0
  191.8010  174.8930  147.7090 O   0  0  0  0  0  1  0  0  0  0  0  0
  191.8400  175.9960  146.8490 C   0  0  2  0  0  3  0  0  0  0  0  0
  192.9770  176.9200  147.2720 C   0  0  0  0  0  2  0  0  0  0  0  0
  194.1350  176.8510  146.2930 C   0  0  0  0  0  2  0  0  0  0  0  0
  194.8730  175.6870  146.5070 O   0  0  0  0  0  1  0  0  0  0  0  0
  187.7570  177.7130  145.0400 C   0  0  0  0  0  2  0  0  0  0  0  0
  186.8320  176.7840  147.1390 C   0  0  0  0  0  1  0  0  0  0  0  0
  186.6900  176.7920  145.6250 C   0  0  1  0  0  3  0  0  0  0  0  0
  185.3050  177.2730  145.1980 C   0  0  0  0  0  2  0  0  0  0  0  0
  185.4530  179.2870  143.6280 C   0  0  0  0  0  2  0  0  0  0  0  0
  184.0780  178.6650  143.4290 C   0  0  0  0  0  2  0  0  0  0  0  0
  185.2680  177.7900  143.7570 C   0  0  0  0  0  0  0  0  0  0  0  0
  185.8930  177.0110  142.6120 C   0  0  0  0  0  1  0  0  0  0  0  0
  1  7  1  0  0  0  0
  2 16  1  0  0  0  0
  3 15  1  0  0  0  0
  3 36  1  1  0  0  0
  4 12  1  0  0  0  0
  5  2  1  0  0  0  0
  6 14  1  0  0  0  0
  6  3  1  0  0  0  0
  8  1  2  0  0  0  0
  9 13  1  6  0  0  0
  9  8  1  0  0  0  0
 10 15  1  1  0  0  0
 10  1  1  0  0  0  0
 10  7  1  0  0  0  0
 11  4  1  6  0  0  0
 11 10  1  0  0  0  0
 12  5  1  6  0  0  0
 12  9  1  0  0  0  0
 14 11  1  0  0  0  0
 14 32  1  1  0  0  0
 16 13  1  0  0  0  0
 17 21  1  6  0  0  0
 17 20  1  0  0  0  0
 17 19  1  0  0  0  0
 19 14  1  1  0  0  0
 20 18  1  6  0  0  0
 20 19  1  0  0  0  0
 21 22  1  0  0  0  0
 23 24  2  0  0  0  0
 24 22  1  0  0  0  0
 24 26  1  0  0  0  0
 25 24  2  0  0  0  0
 26 31  1  6  0  0  0
 27 29  1  0  0  0  0
 28 29  2  0  0  0  0
 29 26  1  0  0  0  0
 31 30  1  0  0  0  0
 33 32  1  0  0  0  0
 33 34  1  0  0  0  0
 35 34  1  0  0  0  0
 36 37  1  0  0  0  0
 38 37  1  1  0  0  0
 38 47  1  0  0  0  0
 38 39  1  0  0  0  0
 39 40  1  0  0  0  0
 40 41  1  1  0  0  0
 43 40  1  0  0  0  0
 43 44  1  0  0  0  0
 43 42  1  1  0  0  0
 45 46  1  0  0  0  0
 45 44  1  0  0  0  0
 47 49  1  0  0  0  0
 49 48  1  1  0  0  0
 50 49  1  0  0  0  0
 51 53  1  0  0  0  0
 52 51  1  0  0  0  0
 52 53  1  0  0  0  0
 53 50  1  0  0  0  0
 54 53  1  0  0  0  0
M  END
>  <MODEL>
8

>  <REMARK>
 VINA RESULT:      -5.2      2.253      5.078
  Name = 
  22 active torsions:
  status: ('A' for Active; 'I' for Inactive)
    1  A    between atoms: C_2  and  S_14
    2  A    between atoms: C_2  and  C_35
    3  A    between atoms: C_2  and  C_51
    4  A    between atoms: C_4  and  C_13
    5  A    between atoms: C_4  and  C_28
    6  A    between atoms: C_5  and  C_50
    7  A    between atoms: C_5  and  C_54
    8  A    between atoms: C_6  and  C_44
    9  A    between atoms: C_6  and  C_49
   10  A    between atoms: C_9  and  C_42
   11  A    between atoms: C_11  and  C_43
   12  A    between atoms: S_14  and  N_38
   13  A    between atoms: C_19  and  C_25
   14  A    between atoms: C_19  and  C_44
   15  A    between atoms: C_21  and  C_36
   16  A    between atoms: C_25  and  C_54
   17  A    between atoms: C_28  and  C_36
   18  A    between atoms: C_31  and  C_48
   19  A    between atoms: C_31  and  C_49
   20  A    between atoms: N_38  and  C_43
   21  A    between atoms: C_42  and  C_46
   22  A    between atoms: C_44  and  C_46
                            x       y       z     vdW  Elec       q    Type
                         _______ _______ _______ _____ _____    ______ ____

>  <TORSDO>
F 22

$$$$
=
 OpenBabel11062418343D

 54 59  0  0  1  0  0  0  0  0999 V2000
  193.7250  175.9820  146.2190 C   0  0  0  0  0  0  0  0  0  0  0  0
  196.5660  172.0250  145.1660 C   0  0  0  0  0  2  0  0  0  0  0  0
  191.6580  176.5750  143.1540 C   0  0  2  0  0  3  0  0  0  0  0  0
  193.5740  174.0400  144.2290 O   0  0  0  0  0  0  0  0  0  0  0  0
  195.2950  172.3920  144.4050 C   0  0  0  0  0  2  0  0  0  0  0  0
  191.2970  175.1990  142.9440 O   0  0  0  0  0  0  0  0  0  0  0  0
  192.3620  176.5580  146.4750 O   0  0  0  0  0  0  0  0  0  0  0  0
  194.9530  175.6030  146.5070 C   0  0  0  0  0  3  0  0  0  0  0  0
  195.5760  174.6710  145.5160 C   0  0  2  0  0  3  0  0  0  0  0  0
  192.7110  175.9520  145.3000 C   0  0  2  0  0  0  0  0  0  0  0  0
  192.4590  174.4920  144.9880 C   0  0  1  0  0  3  0  0  0  0  0  0
  194.5690  173.5450  145.1050 C   0  0  1  0  0  3  0  0  0  0  0  0
  196.8110  174.0340  146.1580 C   0  0  0  0  0  2  0  0  0  0  0  0
  191.1600  174.4120  144.1350 C   0  0  2  0  0  0  0  0  0  0  0  0
  192.8290  176.8590  144.1080 C   0  0  0  0  0  2  0  0  0  0  0  0
  197.4140  173.1440  145.2540 O   0  0  0  0  0  0  0  0  0  0  0  0
  191.0140  172.6570  142.2280 C   0  0  2  0  0  3  0  0  0  0  0  0
  188.8620  171.5460  143.1320 C   0  0  0  0  0  1  0  0  0  0  0  0
  190.7960  172.9560  143.6960 C   0  0  2  0  0  3  0  0  0  0  0  0
  189.5890  172.8400  142.7850 C   0  0  1  0  0  3  0  0  0  0  0  0
  191.4570  171.2090  142.0440 C   0  0  0  0  0  2  0  0  0  0  0  0
  191.3210  170.8470  140.6410 N   0  0  0  0  0  2  0  0  0  0  0  0
  193.4180  172.3110  139.9740 O   0  0  0  0  0  0  0  0  0  0  0  0
  192.8850  170.9060  139.8850 S   0  0  0  0  0  0  0  0  0  0  0  0
  193.8460  169.9760  140.5780 O   0  0  0  0  0  0  0  0  0  0  0  0
  192.7500  170.4140  138.1650 C   0  0  1  0  0  3  0  0  0  0  0  0
  191.3440  172.1540  137.0000 N   0  0  0  0  0  1  0  0  0  0  0  0
  190.4290  170.1210  137.6360 O   0  0  0  0  0  0  0  0  0  0  0  0
  191.4470  170.8600  137.5840 C   0  0  0  0  0  0  0  0  0  0  0  0
  195.1610  170.3210  137.7580 N   0  0  0  0  0  1  0  0  0  0  0  0
  193.9150  170.9490  137.3430 C   0  0  0  0  0  2  0  0  0  0  0  0
  189.9810  174.9250  145.0080 C   0  0  0  0  0  2  0  0  0  0  0  0
  189.5990  174.0750  146.2310 C   0  0  0  0  0  2  0  0  0  0  0  0
  189.4740  174.8990  147.4990 C   0  0  0  0  0  2  0  0  0  0  0  0
  188.3190  174.5400  148.1930 O   0  0  0  0  0  1  0  0  0  0  0  0
  190.4700  177.5010  143.3760 C   0  0  0  0  0  2  0  0  0  0  0  0
  189.8340  177.8800  142.0470 C   0  0  0  0  0  2  0  0  0  0  0  0
  188.3150  178.0800  142.1150 C   0  0  2  0  0  3  0  0  0  0  0  0
  187.7630  178.1010  143.5410 C   0  0  0  0  0  2  0  0  0  0  0  0
  186.2370  178.0050  143.6030 C   0  0  2  0  0  3  0  0  0  0  0  0
  185.6940  179.4170  143.4070 C   0  0  0  0  0  1  0  0  0  0  0  0
  184.9870  178.3870  145.6310 O   0  0  0  0  0  1  0  0  0  0  0  0
  185.7520  177.4360  144.9490 C   0  0  2  0  0  3  0  0  0  0  0  0
  186.9400  177.0340  145.8180 C   0  0  0  0  0  2  0  0  0  0  0  0
  186.8090  177.5960  147.2230 C   0  0  0  0  0  2  0  0  0  0  0  0
  185.6850  177.0580  147.8490 O   0  0  0  0  0  1  0  0  0  0  0  0
  187.5050  177.1780  141.1640 C   0  0  0  0  0  2  0  0  0  0  0  0
  187.3920  175.0220  142.3750 C   0  0  0  0  0  1  0  0  0  0  0  0
  187.9810  175.7280  141.1630 C   0  0  1  0  0  3  0  0  0  0  0  0
  187.5560  175.0480  139.8630 C   0  0  0  0  0  2  0  0  0  0  0  0
  188.3190  173.5320  137.9490 C   0  0  0  0  0  2  0  0  0  0  0  0
  188.0610  172.6370  139.1530 C   0  0  0  0  0  2  0  0  0  0  0  0
  188.5900  174.0410  139.3480 C   0  0  0  0  0  0  0  0  0  0  0  0
  190.0700  174.1890  139.6530 C   0  0  0  0  0  1  0  0  0  0  0  0
  1  7  1  0  0  0  0
  1  8  2  0  0  0  0
  2 16  1  0  0  0  0
  3 36  1  1  0  0  0
  3 15  1  0  0  0  0
  4 12  1  0  0  0  0
  5  2  1  0  0  0  0
  6  3  1  0  0  0  0
  6 14  1  0  0  0  0
  9 13  1  1  0  0  0
  9  8  1  0  0  0  0
 10 15  1  6  0  0  0
 10  1  1  0  0  0  0
 10  7  1  0  0  0  0
 11  4  1  6  0  0  0
 11 10  1  0  0  0  0
 12  5  1  6  0  0  0
 12  9  1  0  0  0  0
 14 11  1  0  0  0  0
 14 32  1  1  0  0  0
 16 13  1  0  0  0  0
 17 21  1  1  0  0  0
 17 20  1  0  0  0  0
 17 19  1  0  0  0  0
 19 14  1  6  0  0  0
 20 18  1  1  0  0  0
 20 19  1  0  0  0  0
 22 21  1  0  0  0  0
 24 23  2  0  0  0  0
 24 25  2  0  0  0  0
 24 22  1  0  0  0  0
 26 31  1  6  0  0  0
 26 24  1  0  0  0  0
 27 29  1  0  0  0  0
 29 28  2  0  0  0  0
 29 26  1  0  0  0  0
 31 30  1  0  0  0  0
 32 33  1  0  0  0  0
 33 34  1  0  0  0  0
 34 35  1  0  0  0  0
 37 38  1  0  0  0  0
 37 36  1  0  0  0  0
 38 47  1  6  0  0  0
 38 39  1  0  0  0  0
 39 40  1  0  0  0  0
 40 41  1  1  0  0  0
 40 43  1  0  0  0  0
 43 42  1  1  0  0  0
 43 44  1  0  0  0  0
 44 45  1  0  0  0  0
 45 46  1  0  0  0  0
 49 47  1  0  0  0  0
 49 48  1  1  0  0  0
 50 49  1  0  0  0  0
 51 52  1  0  0  0  0
 51 53  1  0  0  0  0
 52 53  1  0  0  0  0
 53 54  1  0  0  0  0
 53 50  1  0  0  0  0
M  END
>  <MODEL>
9

>  <REMARK>
 VINA RESULT:      -5.2      2.158      4.401
  Name = 
  22 active torsions:
  status: ('A' for Active; 'I' for Inactive)
    1  A    between atoms: C_2  and  S_14
    2  A    between atoms: C_2  and  C_35
    3  A    between atoms: C_2  and  C_51
    4  A    between atoms: C_4  and  C_13
    5  A    between atoms: C_4  and  C_28
    6  A    between atoms: C_5  and  C_50
    7  A    between atoms: C_5  and  C_54
    8  A    between atoms: C_6  and  C_44
    9  A    between atoms: C_6  and  C_49
   10  A    between atoms: C_9  and  C_42
   11  A    between atoms: C_11  and  C_43
   12  A    between atoms: S_14  and  N_38
   13  A    between atoms: C_19  and  C_25
   14  A    between atoms: C_19  and  C_44
   15  A    between atoms: C_21  and  C_36
   16  A    between atoms: C_25  and  C_54
   17  A    between atoms: C_28  and  C_36
   18  A    between atoms: C_31  and  C_48
   19  A    between atoms: C_31  and  C_49
   20  A    between atoms: N_38  and  C_43
   21  A    between atoms: C_42  and  C_46
   22  A    between atoms: C_44  and  C_46
                            x       y       z     vdW  Elec       q    Type
                         _______ _______ _______ _____ _____    ______ ____

>  <TORSDO>
F 22

$$$$
