=
 OpenBabel11062418223D

 66 71  0  0  1  0  0  0  0  0999 V2000
  192.3900  171.7610  143.0690 C   0  0  0  0  0  0  0  0  0  0  0  0
  192.8440  171.1710  144.0400 O   0  0  0  0  0  0  0  0  0  0  0  0
  194.3330  171.1340  141.8490 O   0  0  0  0  0  1  0  0  0  0  0  0
  192.9990  171.5230  141.7220 C   0  0  1  0  0  3  0  0  0  0  0  0
  192.2160  170.4930  140.9670 C   0  0  0  0  0  0  0  0  0  0  0  0
  190.9970  170.4640  141.0490 O   0  0  0  0  0  0  0  0  0  0  0  0
  192.9280  169.5510  140.0380 C   0  0  0  0  0  2  0  0  0  0  0  0
  193.1780  170.1320  138.6390 C   0  0  2  0  0  3  0  0  0  0  0  0
  190.2660  169.6520  136.6590 C   0  0  0  0  0  3  0  0  0  0  0  0
  193.4580  170.4630  135.5530 O   0  0  0  0  0  0  0  0  0  0  0  0
  192.5370  169.3040  137.5030 C   0  0  1  0  0  3  0  0  0  0  0  0
  191.0780  170.2490  135.8060 C   0  0  0  0  0  0  0  0  0  0  0  0
  191.0690  169.0890  137.7420 C   0  0  0  0  0  0  0  0  0  0  0  0
  192.4630  170.0730  136.2210 C   0  0  0  0  0  0  0  0  0  0  0  0
  190.5830  168.1720  138.5660 C   0  0  0  0  0  2  0  0  0  0  0  0
  190.6280  170.8500  134.5200 C   0  0  0  0  0  2  0  0  0  0  0  0
  189.9110  172.1610  134.7890 C   0  0  0  0  0  2  0  0  0  0  0  0
  190.9010  173.2650  135.1270 C   0  0  0  0  0  2  0  0  0  0  0  0
  190.8710  172.6550  138.5190 O   0  0  0  0  0  0  0  0  0  0  0  0
  190.6340  173.8660  136.5040 C   0  0  2  0  0  3  0  0  0  0  0  0
  188.5230  174.6380  137.3120 O   0  0  0  0  0  1  0  0  0  0  0  0
  191.6420  173.2910  137.5120 C   0  0  1  0  0  3  0  0  0  0  0  0
  188.6490  172.1700  138.9430 O   0  0  0  0  0  0  0  0  0  0  0  0
  189.5280  172.7260  138.2340 C   0  0  0  0  0  0  0  0  0  0  0  0
  189.2370  173.4810  136.9990 C   0  0  2  0  0  3  0  0  0  0  0  0
  192.6310  174.1800  139.4980 O   0  0  0  0  0  1  0  0  0  0  0  0
  192.4720  174.4050  138.1290 C   0  0  0  0  0  2  0  0  0  0  0  0
  195.1500  171.7340  138.5320 N   0  0  0  0  0  2  0  0  0  0  0  0
  194.6360  170.4020  138.4280 C   0  0  0  0  0  0  0  0  0  0  0  0
  195.4000  169.4440  138.1390 O   0  0  0  0  0  0  0  0  0  0  0  0
  196.5720  172.0300  138.4390 C   0  0  0  0  0  2  0  0  0  0  0  0
  196.9270  172.4170  137.0140 C   0  0  0  0  0  2  0  0  0  0  0  0
  197.9410  174.0230  138.1220 C   0  0  0  0  0  1  0  0  0  0  0  0
  197.2190  173.7780  136.9550 O   0  0  0  0  0  0  0  0  0  0  0  0
  191.2810  172.7670  143.2390 C   0  0  2  0  0  3  0  0  0  0  0  0
  191.7420  174.0490  142.9120 O   0  0  0  0  0  1  0  0  0  0  0  0
  190.6920  172.7390  144.6500 C   0  0  0  0  0  2  0  0  0  0  0  0
  190.0830  174.0850  145.0200 C   0  0  1  0  0  3  0  0  0  0  0  0
  189.4390  173.9960  146.3860 C   0  0  0  0  0  2  0  0  0  0  0  0
  190.7960  174.6760  146.2270 C   0  0  2  0  0  3  0  0  0  0  0  0
  190.7320  176.1350  146.0840 N   0  0  0  0  0  0  0  0  0  0  0  0
  192.0110  176.7040  146.1970 N   0  0  0  0  0  2  0  0  0  0  0  0
  195.0260  175.4080  144.1290 C   0  0  0  0  0  0  0  0  0  0  0  0
  193.1250  176.0710  145.5690 C   0  0  0  0  0  0  0  0  0  0  0  0
  193.7860  176.5450  144.0980 S   0  0  0  0  0  0  0  0  0  0  0  0
  193.8560  175.0270  146.1170 C   0  0  0  0  0  3  0  0  0  0  0  0
  194.9360  174.6470  145.2990 C   0  0  0  0  0  0  0  0  0  0  0  0
  196.9050  173.8410  146.3480 O   0  0  0  0  0  1  0  0  0  0  0  0
  195.8740  173.5750  145.6760 C   0  0  0  0  0  0  0  0  0  0  0  0
  195.6430  172.2690  145.2830 O   0  0  0  0  0  0  0  0  0  0  0  0
  195.9380  174.1650  142.1490 C   0  0  0  0  0  1  0  0  0  0  0  0
  196.0140  175.2510  143.1060 N   0  0  0  0  0  2  0  0  0  0  0  0
  190.2600  176.4220  144.7410 C   0  0  0  0  0  2  0  0  0  0  0  0
  187.6070  178.8120  148.1910 F   0  0  0  0  0  0  0  0  0  0  0  0
  186.7410  176.9720  143.7450 C   0  0  0  0  0  2  0  0  0  0  0  0
  186.7030  178.0820  147.4390 C   0  0  1  0  0  3  0  0  0  0  0  0
  185.3590  178.8080  147.4160 C   0  0  0  0  0  2  0  0  0  0  0  0
  188.1920  177.1600  143.6290 N   0  0  0  0  0  0  0  0  0  0  0  0
  187.2280  177.9090  146.0120 C   0  0  2  0  0  3  0  0  0  0  0  0
  186.2180  177.1340  145.1710 C   0  0  1  0  0  3  0  0  0  0  0  0
  184.8770  177.8550  145.1480 C   0  0  0  0  0  2  0  0  0  0  0  0
  189.0730  177.3740  144.8010 C   0  0  1  0  0  3  0  0  0  0  0  0
  188.4090  177.1630  146.0300 O   0  0  0  0  0  0  0  0  0  0  0  0
  184.3510  178.0280  146.5710 C   0  0  0  0  0  2  0  0  0  0  0  0
  187.9130  177.8900  141.3290 C   0  0  0  0  0  2  0  0  0  0  0  0
  188.6670  177.3640  142.2900 C   0  0  0  0  0  3  0  0  0  0  0  0
  1 35  1  0  0  0  0
  1  2  2  0  0  0  0
  4  3  1  1  0  0  0
  4  1  1  0  0  0  0
  5  6  2  0  0  0  0
  5  4  1  0  0  0  0
  7  5  1  0  0  0  0
  8  7  1  1  0  0  0
  9 13  1  0  0  0  0
 10 14  2  0  0  0  0
 11 13  1  0  0  0  0
 11  8  1  1  0  0  0
 12 14  1  0  0  0  0
 12  9  2  0  0  0  0
 13 15  2  0  0  0  0
 14 11  1  0  0  0  0
 16 17  1  0  0  0  0
 16 12  1  0  0  0  0
 17 18  1  0  0  0  0
 20 18  1  6  0  0  0
 20 25  1  0  0  0  0
 20 22  1  0  0  0  0
 22 27  1  1  0  0  0
 22 19  1  0  0  0  0
 24 19  1  0  0  0  0
 24 23  2  0  0  0  0
 25 21  1  1  0  0  0
 25 24  1  0  0  0  0
 27 26  1  0  0  0  0
 29 28  1  0  0  0  0
 29  8  1  0  0  0  0
 30 29  2  0  0  0  0
 31 28  1  0  0  0  0
 32 31  1  0  0  0  0
 34 32  1  0  0  0  0
 34 33  1  0  0  0  0
 35 36  1  1  0  0  0
 35 37  1  0  0  0  0
 38 37  1  1  0  0  0
 38 40  1  0  0  0  0
 38 39  1  0  0  0  0
 40 41  1  6  0  0  0
 40 39  1  0  0  0  0
 41 42  1  0  0  0  0
 43 47  2  0  0  0  0
 44 46  2  0  0  0  0
 44 42  1  0  0  0  0
 45 43  1  0  0  0  0
 45 44  1  0  0  0  0
 47 49  1  0  0  0  0
 47 46  1  0  0  0  0
 49 48  1  0  0  0  0
 50 49  2  0  0  0  0
 51 52  1  0  0  0  0
 52 43  1  0  0  0  0
 53 41  1  0  0  0  0
 56 54  1  1  0  0  0
 57 56  1  0  0  0  0
 58 55  1  0  0  0  0
 58 62  1  0  0  0  0
 59 63  1  1  0  0  0
 59 56  1  0  0  0  0
 60 55  1  6  0  0  0
 60 59  1  0  0  0  0
 61 60  1  0  0  0  0
 61 64  1  0  0  0  0
 62 53  1  6  0  0  0
 62 63  1  0  0  0  0
 64 57  1  0  0  0  0
 65 66  2  0  0  0  0
 66 58  1  0  0  0  0
M  END
>  <MODEL>
1

>  <REMARK>
 VINA RESULT:      -5.9      0.000      0.000
  Name = 
  25 active torsions:
  status: ('A' for Active; 'I' for Inactive)
    1  A    between atoms: C_2  and  N_20
    2  A    between atoms: C_2  and  C_27
    3  A    between atoms: C_3  and  N_56
    4  A    between atoms: C_4  and  C_23
    5  A    between atoms: C_4  and  C_44
    6  A    between atoms: C_5  and  N_61
    7  A    between atoms: C_6  and  C_34
    8  A    between atoms: C_6  and  C_53
    9  A    between atoms: C_9  and  C_16
   10  A    between atoms: C_11  and  C_53
   11  A    between atoms: C_12  and  C_16
   12  A    between atoms: C_12  and  C_32
   13  A    between atoms: C_14  and  C_44
   14  A    between atoms: C_18  and  C_23
   15  A    between atoms: C_27  and  O_45
   16  A    between atoms: C_29  and  C_62
   17  A    between atoms: C_32  and  C_54
   18  A    between atoms: N_33  and  C_42
   19  A    between atoms: C_34  and  C_54
   20  A    between atoms: C_36  and  C_40
   21  A    between atoms: C_37  and  N_47
   22  A    between atoms: C_37  and  C_52
   23  A    between atoms: C_41  and  C_53
   24  A    between atoms: N_47  and  C_60
   25  A    between atoms: N_47  and  N_61
                            x       y       z     vdW  Elec       q    Type
                         _______ _______ _______ _____ _____    ______ ____

>  <TORSDO>
F 25

$$$$
=
 OpenBabel11062418223D

 66 71  0  0  1  0  0  0  0  0999 V2000
  191.7430  176.5170  143.3430 C   0  0  0  0  0  0  0  0  0  0  0  0
  192.2360  177.3590  142.6050 O   0  0  0  0  0  0  0  0  0  0  0  0
  189.9740  175.0100  143.8480 O   0  0  0  0  0  1  0  0  0  0  0  0
  190.2770  176.2300  143.2440 C   0  0  1  0  0  3  0  0  0  0  0  0
  189.4830  177.3390  143.8630 C   0  0  0  0  0  0  0  0  0  0  0  0
  189.5930  177.5850  145.0540 O   0  0  0  0  0  0  0  0  0  0  0  0
  188.6160  178.2080  142.9950 C   0  0  0  0  0  2  0  0  0  0  0  0
  187.3950  177.4810  142.4150 C   0  0  2  0  0  3  0  0  0  0  0  0
  184.3430  177.6760  140.6040 C   0  0  0  0  0  3  0  0  0  0  0  0
  185.2260  179.4660  143.4460 O   0  0  0  0  0  0  0  0  0  0  0  0
  186.4510  178.4050  141.6120 C   0  0  1  0  0  3  0  0  0  0  0  0
  184.0280  178.2840  141.7320 C   0  0  0  0  0  0  0  0  0  0  0  0
  185.7980  177.6680  140.4760 C   0  0  0  0  0  0  0  0  0  0  0  0
  185.2290  178.7730  142.3940 C   0  0  0  0  0  0  0  0  0  0  0  0
  186.3950  177.4200  139.3190 C   0  0  0  0  0  2  0  0  0  0  0  0
  182.6280  178.5740  142.1520 C   0  0  0  0  0  2  0  0  0  0  0  0
  181.6880  178.3750  140.9760 C   0  0  0  0  0  2  0  0  0  0  0  0
  180.7940  179.5910  140.7820 C   0  0  0  0  0  2  0  0  0  0  0  0
  178.5460  177.1230  141.6400 O   0  0  0  0  0  0  0  0  0  0  0  0
  179.3160  179.2380  140.9180 C   0  0  2  0  0  3  0  0  0  0  0  0
  177.7340  179.1140  139.1330 O   0  0  0  0  0  1  0  0  0  0  0  0
  179.1250  178.3200  142.1360 C   0  0  1  0  0  3  0  0  0  0  0  0
  177.9810  176.1990  139.5950 O   0  0  0  0  0  0  0  0  0  0  0  0
  178.4030  177.1720  140.2730 C   0  0  0  0  0  0  0  0  0  0  0  0
  178.8330  178.4590  139.6900 C   0  0  2  0  0  3  0  0  0  0  0  0
  178.4250  178.4430  144.4180 O   0  0  0  0  0  1  0  0  0  0  0  0
  178.1860  178.9630  143.1440 C   0  0  0  0  0  2  0  0  0  0  0  0
  186.5520  177.2190  144.8000 N   0  0  0  0  0  2  0  0  0  0  0  0
  186.6930  176.6920  143.4760 C   0  0  0  0  0  0  0  0  0  0  0  0
  186.2440  175.5490  143.1930 O   0  0  0  0  0  0  0  0  0  0  0  0
  185.7900  176.5360  145.8330 C   0  0  0  0  0  2  0  0  0  0  0  0
  185.3970  177.5200  146.9210 C   0  0  0  0  0  2  0  0  0  0  0  0
  185.9270  179.4150  147.9010 C   0  0  0  0  0  1  0  0  0  0  0  0
  186.4890  178.3200  147.2480 O   0  0  0  0  0  0  0  0  0  0  0  0
  192.5860  175.8320  144.3870 C   0  0  2  0  0  3  0  0  0  0  0  0
  193.5560  176.7160  144.8780 O   0  0  0  0  0  1  0  0  0  0  0  0
  193.2300  174.5510  143.8550 C   0  0  0  0  0  2  0  0  0  0  0  0
  193.7700  174.7510  142.4440 C   0  0  1  0  0  3  0  0  0  0  0  0
  195.2740  174.5950  142.4460 C   0  0  0  0  0  2  0  0  0  0  0  0
  194.3920  173.4630  141.9270 C   0  0  2  0  0  3  0  0  0  0  0  0
  194.2040  173.4570  140.4710 N   0  0  0  0  0  0  0  0  0  0  0  0
  195.3740  173.8750  139.8160 N   0  0  0  0  0  2  0  0  0  0  0  0
  195.6090  175.0160  136.1160 C   0  0  0  0  0  0  0  0  0  0  0  0
  195.2940  174.4070  138.4950 C   0  0  0  0  0  0  0  0  0  0  0  0
  196.4690  174.2000  137.3100 S   0  0  0  0  0  0  0  0  0  0  0  0
  194.2090  175.1070  137.9870 C   0  0  0  0  0  3  0  0  0  0  0  0
  194.3870  175.4560  136.6350 C   0  0  0  0  0  0  0  0  0  0  0  0
  193.3360  177.4420  135.8760 O   0  0  0  0  0  1  0  0  0  0  0  0
  193.3630  176.1830  135.8660 C   0  0  0  0  0  0  0  0  0  0  0  0
  192.4090  175.4940  135.1380 O   0  0  0  0  0  0  0  0  0  0  0  0
  197.3380  175.8710  134.5130 C   0  0  0  0  0  1  0  0  0  0  0  0
  196.0690  175.2240  134.7780 N   0  0  0  0  0  2  0  0  0  0  0  0
  193.9630  172.0830  140.0680 C   0  0  0  0  0  2  0  0  0  0  0  0
  190.9480  173.1280  136.2640 F   0  0  0  0  0  0  0  0  0  0  0  0
  190.4640  172.6780  141.1070 C   0  0  0  0  0  2  0  0  0  0  0  0
  190.3690  173.6930  137.3870 C   0  0  1  0  0  3  0  0  0  0  0  0
  188.8510  173.7070  137.2220 C   0  0  0  0  0  2  0  0  0  0  0  0
  191.6670  171.8580  140.9280 N   0  0  0  0  0  0  0  0  0  0  0  0
  190.7520  172.8890  138.6320 C   0  0  2  0  0  3  0  0  0  0  0  0
  190.0880  173.4880  139.8680 C   0  0  1  0  0  3  0  0  0  0  0  0
  188.5740  173.5060  139.7060 C   0  0  0  0  0  2  0  0  0  0  0  0
  192.4970  171.9020  139.6990 C   0  0  1  0  0  3  0  0  0  0  0  0
  192.1330  172.9560  138.8320 O   0  0  0  0  0  0  0  0  0  0  0  0
  188.1900  174.3080  138.4640 C   0  0  0  0  0  2  0  0  0  0  0  0
  191.8160  171.0810  143.2240 C   0  0  0  0  0  2  0  0  0  0  0  0
  191.8530  170.8350  141.9180 C   0  0  0  0  0  3  0  0  0  0  0  0
  1 35  1  0  0  0  0
  2  1  2  0  0  0  0
  4  1  1  0  0  0  0
  4  3  1  1  0  0  0
  4  5  1  0  0  0  0
  5  6  2  0  0  0  0
  7  5  1  0  0  0  0
  8  7  1  1  0  0  0
  8 29  1  0  0  0  0
  9 12  2  0  0  0  0
 11 14  1  0  0  0  0
 11  8  1  1  0  0  0
 12 16  1  0  0  0  0
 12 14  1  0  0  0  0
 13  9  1  0  0  0  0
 13 11  1  0  0  0  0
 14 10  2  0  0  0  0
 15 13  2  0  0  0  0
 17 16  1  0  0  0  0
 18 17  1  0  0  0  0
 19 22  1  0  0  0  0
 20 18  1  6  0  0  0
 20 22  1  0  0  0  0
 22 27  1  1  0  0  0
 23 24  2  0  0  0  0
 24 19  1  0  0  0  0
 25 21  1  1  0  0  0
 25 24  1  0  0  0  0
 25 20  1  0  0  0  0
 27 26  1  0  0  0  0
 28 31  1  0  0  0  0
 29 28  1  0  0  0  0
 30 29  2  0  0  0  0
 31 32  1  0  0  0  0
 32 34  1  0  0  0  0
 34 33  1  0  0  0  0
 35 36  1  6  0  0  0
 37 35  1  0  0  0  0
 38 39  1  0  0  0  0
 38 37  1  1  0  0  0
 40 41  1  6  0  0  0
 40 38  1  0  0  0  0
 40 39  1  0  0  0  0
 42 41  1  0  0  0  0
 43 47  2  0  0  0  0
 43 45  1  0  0  0  0
 44 42  1  0  0  0  0
 45 44  1  0  0  0  0
 46 44  2  0  0  0  0
 47 46  1  0  0  0  0
 49 48  1  0  0  0  0
 49 47  1  0  0  0  0
 50 49  2  0  0  0  0
 51 52  1  0  0  0  0
 52 43  1  0  0  0  0
 53 41  1  0  0  0  0
 56 54  1  6  0  0  0
 56 59  1  0  0  0  0
 57 56  1  0  0  0  0
 57 64  1  0  0  0  0
 58 55  1  0  0  0  0
 58 66  1  0  0  0  0
 59 63  1  1  0  0  0
 59 60  1  0  0  0  0
 60 61  1  6  0  0  0
 60 55  1  0  0  0  0
 62 53  1  1  0  0  0
 62 58  1  0  0  0  0
 63 62  1  0  0  0  0
 64 61  1  0  0  0  0
 66 65  2  0  0  0  0
M  END
>  <MODEL>
2

>  <REMARK>
 VINA RESULT:      -5.6      4.646     10.448
  Name = 
  25 active torsions:
  status: ('A' for Active; 'I' for Inactive)
    1  A    between atoms: C_2  and  N_20
    2  A    between atoms: C_2  and  C_27
    3  A    between atoms: C_3  and  N_56
    4  A    between atoms: C_4  and  C_23
    5  A    between atoms: C_4  and  C_44
    6  A    between atoms: C_5  and  N_61
    7  A    between atoms: C_6  and  C_34
    8  A    between atoms: C_6  and  C_53
    9  A    between atoms: C_9  and  C_16
   10  A    between atoms: C_11  and  C_53
   11  A    between atoms: C_12  and  C_16
   12  A    between atoms: C_12  and  C_32
   13  A    between atoms: C_14  and  C_44
   14  A    between atoms: C_18  and  C_23
   15  A    between atoms: C_27  and  O_45
   16  A    between atoms: C_29  and  C_62
   17  A    between atoms: C_32  and  C_54
   18  A    between atoms: N_33  and  C_42
   19  A    between atoms: C_34  and  C_54
   20  A    between atoms: C_36  and  C_40
   21  A    between atoms: C_37  and  N_47
   22  A    between atoms: C_37  and  C_52
   23  A    between atoms: C_41  and  C_53
   24  A    between atoms: N_47  and  C_60
   25  A    between atoms: N_47  and  N_61
                            x       y       z     vdW  Elec       q    Type
                         _______ _______ _______ _____ _____    ______ ____

>  <TORSDO>
F 25

$$$$
=
 OpenBabel11062418223D

 66 71  0  0  1  0  0  0  0  0999 V2000
  191.5600  177.1700  143.8760 C   0  0  0  0  0  0  0  0  0  0  0  0
  191.4640  178.3890  143.8210 O   0  0  0  0  0  0  0  0  0  0  0  0
  191.7720  176.6330  146.1830 O   0  0  0  0  0  1  0  0  0  0  0  0
  190.9780  176.4470  145.0510 C   0  0  1  0  0  3  0  0  0  0  0  0
  189.5750  176.9060  145.3060 C   0  0  0  0  0  0  0  0  0  0  0  0
  189.3670  177.9890  145.8300 O   0  0  0  0  0  0  0  0  0  0  0  0
  188.4200  176.0670  144.8340 C   0  0  0  0  0  2  0  0  0  0  0  0
  187.6370  176.6910  143.6700 C   0  0  2  0  0  3  0  0  0  0  0  0
  184.5680  178.1730  144.6760 C   0  0  0  0  0  3  0  0  0  0  0  0
  185.4370  177.0730  141.4970 O   0  0  0  0  0  0  0  0  0  0  0  0
  186.1090  176.4960  143.7790 C   0  0  1  0  0  3  0  0  0  0  0  0
  184.4930  178.2600  143.3610 C   0  0  0  0  0  0  0  0  0  0  0  0
  185.5590  177.1540  145.0140 C   0  0  0  0  0  0  0  0  0  0  0  0
  185.3680  177.2760  142.7390 C   0  0  0  0  0  0  0  0  0  0  0  0
  185.6250  176.6200  146.2250 C   0  0  0  0  0  2  0  0  0  0  0  0
  183.5120  179.1230  142.6450 C   0  0  0  0  0  2  0  0  0  0  0  0
  182.3150  178.2940  142.2160 C   0  0  0  0  0  2  0  0  0  0  0  0
  181.9590  178.5620  140.7620 C   0  0  0  0  0  2  0  0  0  0  0  0
  179.1530  180.2810  141.7860 O   0  0  0  0  0  0  0  0  0  0  0  0
  180.4560  178.7330  140.5650 C   0  0  2  0  0  3  0  0  0  0  0  0
  178.7860  177.0890  141.0260 O   0  0  0  0  0  1  0  0  0  0  0  0
  180.0900  180.2180  140.7220 C   0  0  1  0  0  3  0  0  0  0  0  0
  178.2010  178.8490  143.3340 O   0  0  0  0  0  0  0  0  0  0  0  0
  178.9350  179.0370  142.3300 C   0  0  0  0  0  0  0  0  0  0  0  0
  179.6820  177.9650  141.6410 C   0  0  2  0  0  3  0  0  0  0  0  0
  178.2270  180.1140  139.2290 O   0  0  0  0  0  1  0  0  0  0  0  0
  179.4530  180.7450  139.4470 C   0  0  0  0  0  2  0  0  0  0  0  0
  187.9500  174.9290  141.8630 N   0  0  0  0  0  2  0  0  0  0  0  0
  188.2000  176.2510  142.3540 C   0  0  0  0  0  0  0  0  0  0  0  0
  188.9140  177.0510  141.6940 O   0  0  0  0  0  0  0  0  0  0  0  0
  188.3870  174.4920  140.5460 C   0  0  0  0  0  2  0  0  0  0  0  0
  188.8840  173.0580  140.6170 C   0  0  0  0  0  2  0  0  0  0  0  0
  190.9110  173.6320  139.9890 C   0  0  0  0  0  1  0  0  0  0  0  0
  190.2110  173.0410  141.0390 O   0  0  0  0  0  0  0  0  0  0  0  0
  192.3180  176.4170  142.8150 C   0  0  2  0  0  3  0  0  0  0  0  0
  191.9640  175.0610  142.8420 O   0  0  0  0  0  1  0  0  0  0  0  0
  193.8310  176.5920  142.9550 C   0  0  0  0  0  2  0  0  0  0  0  0
  194.5800  175.7720  141.9130 C   0  0  1  0  0  3  0  0  0  0  0  0
  195.6760  176.6110  141.2940 C   0  0  0  0  0  2  0  0  0  0  0  0
  196.0230  175.5570  142.3430 C   0  0  2  0  0  3  0  0  0  0  0  0
  196.4420  174.2640  141.7900 N   0  0  0  0  0  0  0  0  0  0  0  0
  197.5100  174.4280  140.8930 N   0  0  0  0  0  2  0  0  0  0  0  0
  197.2850  173.8050  137.0710 C   0  0  0  0  0  0  0  0  0  0  0  0
  197.3660  174.0100  139.5370 C   0  0  0  0  0  0  0  0  0  0  0  0
  197.4770  175.0320  138.2060 S   0  0  0  0  0  0  0  0  0  0  0  0
  197.1850  172.6970  139.1270 C   0  0  0  0  0  3  0  0  0  0  0  0
  197.1370  172.5790  137.7260 C   0  0  0  0  0  0  0  0  0  0  0  0
  197.2980  171.1520  135.8380 O   0  0  0  0  0  0  0  0  0  0  0  0
  196.9750  171.2810  137.0480 C   0  0  0  0  0  0  0  0  0  0  0  0
  196.4500  170.1940  137.7260 O   0  0  0  0  0  1  0  0  0  0  0  0
  196.0350  174.2240  134.9370 C   0  0  0  0  0  1  0  0  0  0  0  0
  197.2740  174.0010  135.6540 N   0  0  0  0  0  2  0  0  0  0  0  0
  196.9370  173.4580  142.8920 C   0  0  0  0  0  2  0  0  0  0  0  0
  194.3000  170.4270  139.9740 F   0  0  0  0  0  0  0  0  0  0  0  0
  194.0790  171.8860  144.6350 C   0  0  0  0  0  2  0  0  0  0  0  0
  193.4420  170.8510  140.9740 C   0  0  1  0  0  3  0  0  0  0  0  0
  192.4090  169.7610  141.2510 C   0  0  0  0  0  2  0  0  0  0  0  0
  195.5050  172.1330  144.3930 N   0  0  0  0  0  0  0  0  0  0  0  0
  194.2330  171.1570  142.2470 C   0  0  2  0  0  3  0  0  0  0  0  0
  193.2860  171.5920  143.3620 C   0  0  1  0  0  3  0  0  0  0  0  0
  192.2530  170.5070  143.6390 C   0  0  0  0  0  2  0  0  0  0  0  0
  196.0910  172.2000  143.0330 C   0  0  1  0  0  3  0  0  0  0  0  0
  195.1120  172.2180  142.0150 O   0  0  0  0  0  0  0  0  0  0  0  0
  191.4630  170.2010  142.3690 C   0  0  0  0  0  2  0  0  0  0  0  0
  196.8280  170.9230  146.0310 C   0  0  0  0  0  2  0  0  0  0  0  0
  196.3340  172.0650  145.5620 C   0  0  0  0  0  3  0  0  0  0  0  0
  1  4  1  0  0  0  0
  2  1  2  0  0  0  0
  4  5  1  0  0  0  0
  4  3  1  1  0  0  0
  5  6  2  0  0  0  0
  7  5  1  0  0  0  0
  8  7  1  1  0  0  0
  9 13  1  0  0  0  0
 10 14  2  0  0  0  0
 11  8  1  6  0  0  0
 11 13  1  0  0  0  0
 12  9  2  0  0  0  0
 13 15  2  0  0  0  0
 14 12  1  0  0  0  0
 14 11  1  0  0  0  0
 16 12  1  0  0  0  0
 17 16  1  0  0  0  0
 18 17  1  0  0  0  0
 19 24  1  0  0  0  0
 20 22  1  0  0  0  0
 20 18  1  1  0  0  0
 20 25  1  0  0  0  0
 22 27  1  6  0  0  0
 22 19  1  0  0  0  0
 24 23  2  0  0  0  0
 25 21  1  6  0  0  0
 25 24  1  0  0  0  0
 26 27  1  0  0  0  0
 28 29  1  0  0  0  0
 29  8  1  0  0  0  0
 30 29  2  0  0  0  0
 31 32  1  0  0  0  0
 31 28  1  0  0  0  0
 32 34  1  0  0  0  0
 33 34  1  0  0  0  0
 35 36  1  1  0  0  0
 35 37  1  0  0  0  0
 35  1  1  0  0  0  0
 38 40  1  0  0  0  0
 38 37  1  1  0  0  0
 39 38  1  0  0  0  0
 39 40  1  0  0  0  0
 40 41  1  6  0  0  0
 41 53  1  0  0  0  0
 42 41  1  0  0  0  0
 43 47  2  0  0  0  0
 43 45  1  0  0  0  0
 44 42  1  0  0  0  0
 45 44  1  0  0  0  0
 46 44  2  0  0  0  0
 47 46  1  0  0  0  0
 48 49  2  0  0  0  0
 49 50  1  0  0  0  0
 49 47  1  0  0  0  0
 51 52  1  0  0  0  0
 52 43  1  0  0  0  0
 56 54  1  6  0  0  0
 56 57  1  0  0  0  0
 56 59  1  0  0  0  0
 57 64  1  0  0  0  0
 58 55  1  0  0  0  0
 58 66  1  0  0  0  0
 59 63  1  6  0  0  0
 59 60  1  0  0  0  0
 60 61  1  1  0  0  0
 60 55  1  0  0  0  0
 62 53  1  1  0  0  0
 62 58  1  0  0  0  0
 63 62  1  0  0  0  0
 64 61  1  0  0  0  0
 66 65  2  0  0  0  0
M  END
>  <MODEL>
3

>  <REMARK>
 VINA RESULT:      -5.0      4.387     10.087
  Name = 
  25 active torsions:
  status: ('A' for Active; 'I' for Inactive)
    1  A    between atoms: C_2  and  N_20
    2  A    between atoms: C_2  and  C_27
    3  A    between atoms: C_3  and  N_56
    4  A    between atoms: C_4  and  C_23
    5  A    between atoms: C_4  and  C_44
    6  A    between atoms: C_5  and  N_61
    7  A    between atoms: C_6  and  C_34
    8  A    between atoms: C_6  and  C_53
    9  A    between atoms: C_9  and  C_16
   10  A    between atoms: C_11  and  C_53
   11  A    between atoms: C_12  and  C_16
   12  A    between atoms: C_12  and  C_32
   13  A    between atoms: C_14  and  C_44
   14  A    between atoms: C_18  and  C_23
   15  A    between atoms: C_27  and  O_45
   16  A    between atoms: C_29  and  C_62
   17  A    between atoms: C_32  and  C_54
   18  A    between atoms: N_33  and  C_42
   19  A    between atoms: C_34  and  C_54
   20  A    between atoms: C_36  and  C_40
   21  A    between atoms: C_37  and  N_47
   22  A    between atoms: C_37  and  C_52
   23  A    between atoms: C_41  and  C_53
   24  A    between atoms: N_47  and  C_60
   25  A    between atoms: N_47  and  N_61
                            x       y       z     vdW  Elec       q    Type
                         _______ _______ _______ _____ _____    ______ ____

>  <TORSDO>
F 25

$$$$
=
 OpenBabel11062418223D

 66 71  0  0  1  0  0  0  0  0999 V2000
  191.2530  172.5110  139.8360 C   0  0  0  0  0  0  0  0  0  0  0  0
  191.6530  173.5720  140.2980 O   0  0  0  0  0  0  0  0  0  0  0  0
  192.1090  171.6160  137.8060 O   0  0  0  0  0  1  0  0  0  0  0  0
  192.2350  171.5800  139.1950 C   0  0  1  0  0  3  0  0  0  0  0  0
  193.6320  171.9250  139.6100 C   0  0  0  0  0  0  0  0  0  0  0  0
  194.1350  171.3890  140.5850 O   0  0  0  0  0  0  0  0  0  0  0  0
  194.4460  172.8680  138.7690 C   0  0  0  0  0  2  0  0  0  0  0  0
  195.3250  172.1650  137.7240 C   0  0  2  0  0  3  0  0  0  0  0  0
  197.6380  172.5530  140.3940 C   0  0  0  0  0  3  0  0  0  0  0  0
  196.8700  169.6330  138.6770 O   0  0  0  0  0  0  0  0  0  0  0  0
  196.8020  172.0230  138.1550 C   0  0  1  0  0  3  0  0  0  0  0  0
  197.4940  171.2410  140.3480 C   0  0  0  0  0  0  0  0  0  0  0  0
  197.1990  173.1090  139.1160 C   0  0  0  0  0  0  0  0  0  0  0  0
  197.0170  170.8320  139.0350 C   0  0  0  0  0  0  0  0  0  0  0  0
  197.5170  174.3400  138.7460 C   0  0  0  0  0  2  0  0  0  0  0  0
  197.9360  170.3240  141.4350 C   0  0  0  0  0  2  0  0  0  0  0  0
  196.7280  169.6460  142.0580 C   0  0  0  0  0  2  0  0  0  0  0  0
  197.0870  169.0160  143.3960 C   0  0  0  0  0  2  0  0  0  0  0  0
  195.4090  171.7600  144.6350 O   0  0  0  0  0  0  0  0  0  0  0  0
  196.2030  169.5370  144.5250 C   0  0  2  0  0  3  0  0  0  0  0  0
  196.8330  169.7360  146.8210 O   0  0  0  0  0  1  0  0  0  0  0  0
  195.1850  170.5370  143.9520 C   0  0  1  0  0  3  0  0  0  0  0  0
  196.8960  172.6260  146.1810 O   0  0  0  0  0  0  0  0  0  0  0  0
  196.4600  171.6520  145.5150 C   0  0  0  0  0  0  0  0  0  0  0  0
  197.0410  170.2950  145.5590 C   0  0  2  0  0  3  0  0  0  0  0  0
  193.7710  169.0570  145.1860 O   0  0  0  0  0  1  0  0  0  0  0  0
  193.7660  170.0580  144.2120 C   0  0  0  0  0  2  0  0  0  0  0  0
  193.9280  173.4410  136.0250 N   0  0  0  0  0  2  0  0  0  0  0  0
  195.1570  172.7960  136.3770 C   0  0  0  0  0  0  0  0  0  0  0  0
  196.1050  172.7350  135.5500 O   0  0  0  0  0  0  0  0  0  0  0  0
  193.7550  174.1570  134.7700 C   0  0  0  0  0  2  0  0  0  0  0  0
  192.8870  175.3830  134.9900 C   0  0  0  0  0  2  0  0  0  0  0  0
  190.9030  176.2010  134.5130 C   0  0  0  0  0  1  0  0  0  0  0  0
  191.5430  175.0290  134.9090 O   0  0  0  0  0  0  0  0  0  0  0  0
  189.7830  172.1820  139.8460 C   0  0  2  0  0  3  0  0  0  0  0  0
  189.1700  172.6860  138.6910 O   0  0  0  0  0  1  0  0  0  0  0  0
  189.0880  172.6990  141.1060 C   0  0  0  0  0  2  0  0  0  0  0  0
  189.5890  174.0880  141.4820 C   0  0  1  0  0  3  0  0  0  0  0  0
  188.4530  175.0830  141.3910 C   0  0  0  0  0  2  0  0  0  0  0  0
  188.9100  174.5710  142.7540 C   0  0  2  0  0  3  0  0  0  0  0  0
  189.8690  175.4440  143.4410 N   0  0  0  0  0  0  0  0  0  0  0  0
  189.3860  175.8170  144.7060 N   0  0  0  0  0  2  0  0  0  0  0  0
  186.2680  178.1110  144.4450 C   0  0  0  0  0  0  0  0  0  0  0  0
  188.2070  176.6140  144.8070 C   0  0  0  0  0  0  0  0  0  0  0  0
  187.6680  177.6750  143.6190 S   0  0  0  0  0  0  0  0  0  0  0  0
  187.3090  176.5700  145.8630 C   0  0  0  0  0  3  0  0  0  0  0  0
  186.2070  177.4220  145.6600 C   0  0  0  0  0  0  0  0  0  0  0  0
  184.3880  176.5330  146.8960 O   0  0  0  0  0  0  0  0  0  0  0  0
  185.1050  177.5330  146.6320 C   0  0  0  0  0  0  0  0  0  0  0  0
  184.8350  178.7410  147.2530 O   0  0  0  0  0  1  0  0  0  0  0  0
  185.4240  180.4640  144.2400 C   0  0  0  0  0  1  0  0  0  0  0  0
  185.2980  179.0460  143.9670 N   0  0  0  0  0  2  0  0  0  0  0  0
  191.0800  174.6730  143.6630 C   0  0  0  0  0  2  0  0  0  0  0  0
  194.3530  176.4410  140.3730 F   0  0  0  0  0  0  0  0  0  0  0  0
  194.3970  175.3690  145.1430 C   0  0  0  0  0  2  0  0  0  0  0  0
  195.0930  175.8440  141.3790 C   0  0  1  0  0  3  0  0  0  0  0  0
  196.4360  176.5580  141.5120 C   0  0  0  0  0  2  0  0  0  0  0  0
  192.9540  175.5790  144.9760 N   0  0  0  0  0  0  0  0  0  0  0  0
  194.3290  175.9140  142.7030 C   0  0  2  0  0  3  0  0  0  0  0  0
  195.1580  175.2870  143.8210 C   0  0  1  0  0  3  0  0  0  0  0  0
  196.4990  175.9970  143.9550 C   0  0  0  0  0  2  0  0  0  0  0  0
  192.2900  175.5970  143.6510 C   0  0  1  0  0  3  0  0  0  0  0  0
  193.1450  175.1800  142.6060 O   0  0  0  0  0  0  0  0  0  0  0  0
  197.2620  175.9270  142.6340 C   0  0  0  0  0  2  0  0  0  0  0  0
  192.2340  175.2830  147.2770 C   0  0  0  0  0  2  0  0  0  0  0  0
  192.2670  176.0060  146.1620 C   0  0  0  0  0  3  0  0  0  0  0  0
  1 35  1  0  0  0  0
  1  2  2  0  0  0  0
  4  3  1  6  0  0  0
  4  5  1  0  0  0  0
  4  1  1  0  0  0  0
  5  6  2  0  0  0  0
  7  5  1  0  0  0  0
  8  7  1  1  0  0  0
 10 14  2  0  0  0  0
 11  8  1  1  0  0  0
 11 14  1  0  0  0  0
 11 13  1  0  0  0  0
 12  9  2  0  0  0  0
 12 16  1  0  0  0  0
 13  9  1  0  0  0  0
 14 12  1  0  0  0  0
 15 13  2  0  0  0  0
 16 17  1  0  0  0  0
 17 18  1  0  0  0  0
 19 24  1  0  0  0  0
 20 18  1  6  0  0  0
 20 25  1  0  0  0  0
 22 27  1  1  0  0  0
 22 20  1  0  0  0  0
 22 19  1  0  0  0  0
 24 25  1  0  0  0  0
 24 23  2  0  0  0  0
 25 21  1  1  0  0  0
 27 26  1  0  0  0  0
 28 29  1  0  0  0  0
 29  8  1  0  0  0  0
 30 29  2  0  0  0  0
 31 32  1  0  0  0  0
 31 28  1  0  0  0  0
 33 34  1  0  0  0  0
 34 32  1  0  0  0  0
 35 36  1  6  0  0  0
 35 37  1  0  0  0  0
 38 37  1  6  0  0  0
 38 40  1  0  0  0  0
 39 38  1  0  0  0  0
 39 40  1  0  0  0  0
 40 41  1  1  0  0  0
 41 53  1  0  0  0  0
 41 42  1  0  0  0  0
 42 44  1  0  0  0  0
 43 47  2  0  0  0  0
 44 46  2  0  0  0  0
 45 43  1  0  0  0  0
 45 44  1  0  0  0  0
 47 46  1  0  0  0  0
 47 49  1  0  0  0  0
 49 48  2  0  0  0  0
 49 50  1  0  0  0  0
 52 51  1  0  0  0  0
 52 43  1  0  0  0  0
 56 54  1  6  0  0  0
 56 57  1  0  0  0  0
 56 59  1  0  0  0  0
 57 64  1  0  0  0  0
 58 55  1  0  0  0  0
 58 66  1  0  0  0  0
 59 63  1  6  0  0  0
 59 60  1  0  0  0  0
 60 61  1  1  0  0  0
 60 55  1  0  0  0  0
 62 53  1  1  0  0  0
 62 58  1  0  0  0  0
 63 62  1  0  0  0  0
 64 61  1  0  0  0  0
 66 65  2  0  0  0  0
M  END
>  <MODEL>
4

>  <REMARK>
 VINA RESULT:      -5.0      2.823      7.928
  Name = 
  25 active torsions:
  status: ('A' for Active; 'I' for Inactive)
    1  A    between atoms: C_2  and  N_20
    2  A    between atoms: C_2  and  C_27
    3  A    between atoms: C_3  and  N_56
    4  A    between atoms: C_4  and  C_23
    5  A    between atoms: C_4  and  C_44
    6  A    between atoms: C_5  and  N_61
    7  A    between atoms: C_6  and  C_34
    8  A    between atoms: C_6  and  C_53
    9  A    between atoms: C_9  and  C_16
   10  A    between atoms: C_11  and  C_53
   11  A    between atoms: C_12  and  C_16
   12  A    between atoms: C_12  and  C_32
   13  A    between atoms: C_14  and  C_44
   14  A    between atoms: C_18  and  C_23
   15  A    between atoms: C_27  and  O_45
   16  A    between atoms: C_29  and  C_62
   17  A    between atoms: C_32  and  C_54
   18  A    between atoms: N_33  and  C_42
   19  A    between atoms: C_34  and  C_54
   20  A    between atoms: C_36  and  C_40
   21  A    between atoms: C_37  and  N_47
   22  A    between atoms: C_37  and  C_52
   23  A    between atoms: C_41  and  C_53
   24  A    between atoms: N_47  and  C_60
   25  A    between atoms: N_47  and  N_61
                            x       y       z     vdW  Elec       q    Type
                         _______ _______ _______ _____ _____    ______ ____

>  <TORSDO>
F 25

$$$$
=
 OpenBabel11062418223D

 66 71  0  0  1  0  0  0  0  0999 V2000
  188.5220  172.6660  141.0840 C   0  0  0  0  0  0  0  0  0  0  0  0
  187.3870  172.3260  141.3880 O   0  0  0  0  0  0  0  0  0  0  0  0
  189.2830  174.2170  139.4500 O   0  0  0  0  0  1  0  0  0  0  0  0
  188.8500  172.9050  139.6430 C   0  0  1  0  0  3  0  0  0  0  0  0
  189.8860  171.9310  139.1720 C   0  0  0  0  0  0  0  0  0  0  0  0
  189.8410  170.7630  139.5300 O   0  0  0  0  0  0  0  0  0  0  0  0
  190.9300  172.3730  138.1860 C   0  0  0  0  0  2  0  0  0  0  0  0
  192.3370  171.8410  138.4940 C   0  0  2  0  0  3  0  0  0  0  0  0
  193.0740  170.2200  135.4180 C   0  0  0  0  0  3  0  0  0  0  0  0
  195.0440  170.3130  138.2770 O   0  0  0  0  0  0  0  0  0  0  0  0
  192.6470  170.4890  137.8130 C   0  0  1  0  0  3  0  0  0  0  0  0
  194.2540  170.2270  136.0110 C   0  0  0  0  0  0  0  0  0  0  0  0
  192.0460  170.4170  136.4380 C   0  0  0  0  0  0  0  0  0  0  0  0
  194.0940  170.3620  137.4510 C   0  0  0  0  0  0  0  0  0  0  0  0
  190.7710  170.1410  136.2040 C   0  0  0  0  0  2  0  0  0  0  0  0
  195.5350  169.9510  135.3030 C   0  0  0  0  0  2  0  0  0  0  0  0
  196.3740  171.2150  135.2490 C   0  0  0  0  0  2  0  0  0  0  0  0
  195.5100  172.4310  134.9510 C   0  0  0  0  0  2  0  0  0  0  0  0
  194.7050  175.1430  136.9190 O   0  0  0  0  0  0  0  0  0  0  0  0
  196.0460  173.6900  135.6260 C   0  0  2  0  0  3  0  0  0  0  0  0
  196.9160  175.6160  134.5130 O   0  0  0  0  0  1  0  0  0  0  0  0
  195.3430  173.8770  136.9800 C   0  0  1  0  0  3  0  0  0  0  0  0
  194.3530  176.8250  135.3710 O   0  0  0  0  0  0  0  0  0  0  0  0
  194.8870  175.7320  135.6900 C   0  0  0  0  0  0  0  0  0  0  0  0
  195.7320  174.9290  134.7830 C   0  0  2  0  0  3  0  0  0  0  0  0
  196.1960  175.0060  138.9050 O   0  0  0  0  0  1  0  0  0  0  0  0
  196.3570  173.8690  138.1110 C   0  0  0  0  0  2  0  0  0  0  0  0
  192.6110  170.6040  140.6990 N   0  0  0  0  0  2  0  0  0  0  0  0
  192.5930  171.8360  139.9690 C   0  0  0  0  0  0  0  0  0  0  0  0
  192.7720  172.9320  140.5630 O   0  0  0  0  0  0  0  0  0  0  0  0
  192.9570  170.5400  142.1110 C   0  0  0  0  0  2  0  0  0  0  0  0
  194.3180  169.8870  142.2800 C   0  0  0  0  0  2  0  0  0  0  0  0
  195.5740  171.6160  142.7960 C   0  0  0  0  0  1  0  0  0  0  0  0
  195.3070  170.7190  141.7630 O   0  0  0  0  0  0  0  0  0  0  0  0
  189.5940  172.7700  142.1380 C   0  0  2  0  0  3  0  0  0  0  0  0
  189.7340  171.5450  142.8040 O   0  0  0  0  0  1  0  0  0  0  0  0
  189.3170  173.9030  143.1270 C   0  0  0  0  0  2  0  0  0  0  0  0
  190.5440  174.7880  143.3100 C   0  0  1  0  0  3  0  0  0  0  0  0
  191.1080  175.1640  141.9570 C   0  0  0  0  0  2  0  0  0  0  0  0
  190.2850  176.1770  142.7500 C   0  0  2  0  0  3  0  0  0  0  0  0
  191.0820  177.1130  143.5520 N   0  0  0  0  0  0  0  0  0  0  0  0
  190.2600  178.0840  144.1470 N   0  0  0  0  0  2  0  0  0  0  0  0
  186.6020  177.3020  145.1790 C   0  0  0  0  0  0  0  0  0  0  0  0
  188.8690  177.8200  144.3280 C   0  0  0  0  0  0  0  0  0  0  0  0
  188.1810  177.2700  145.7600 S   0  0  0  0  0  0  0  0  0  0  0  0
  187.8890  178.0460  143.3730 C   0  0  0  0  0  3  0  0  0  0  0  0
  186.6000  177.7500  143.8540 C   0  0  0  0  0  0  0  0  0  0  0  0
  185.3390  177.4650  141.8650 O   0  0  0  0  0  0  0  0  0  0  0  0
  185.3900  177.9310  143.0330 C   0  0  0  0  0  0  0  0  0  0  0  0
  184.3020  178.6290  143.5290 O   0  0  0  0  0  1  0  0  0  0  0  0
  184.8710  177.8140  146.9200 C   0  0  0  0  0  1  0  0  0  0  0  0
  185.4480  176.9240  145.9330 N   0  0  0  0  0  2  0  0  0  0  0  0
  191.6880  176.3550  144.6320 C   0  0  0  0  0  2  0  0  0  0  0  0
  195.3750  177.0630  141.3820 F   0  0  0  0  0  0  0  0  0  0  0  0
  194.9570  175.1320  145.8540 C   0  0  0  0  0  2  0  0  0  0  0  0
  195.7580  176.0000  142.1810 C   0  0  1  0  0  3  0  0  0  0  0  0
  197.2800  175.9750  142.2970 C   0  0  0  0  0  2  0  0  0  0  0  0
  193.7820  176.0090  145.8800 N   0  0  0  0  0  0  0  0  0  0  0  0
  195.1300  176.1380  143.5700 C   0  0  2  0  0  3  0  0  0  0  0  0
  195.5780  174.9860  144.4650 C   0  0  1  0  0  3  0  0  0  0  0  0
  197.0960  174.9570  144.5800 C   0  0  0  0  0  2  0  0  0  0  0  0
  193.1910  176.6020  144.6560 C   0  0  1  0  0  3  0  0  0  0  0  0
  193.7380  176.0660  143.4700 O   0  0  0  0  0  0  0  0  0  0  0  0
  197.7230  174.8200  143.1950 C   0  0  0  0  0  2  0  0  0  0  0  0
  192.1220  176.4570  147.5960 C   0  0  0  0  0  2  0  0  0  0  0  0
  193.3880  176.4480  147.1880 C   0  0  0  0  0  3  0  0  0  0  0  0
  1  2  2  0  0  0  0
  1 35  1  0  0  0  0
  4  3  1  1  0  0  0
  4  1  1  0  0  0  0
  5  6  2  0  0  0  0
  5  4  1  0  0  0  0
  7  5  1  0  0  0  0
  8  7  1  1  0  0  0
  8 29  1  0  0  0  0
  9 12  2  0  0  0  0
  9 13  1  0  0  0  0
 11  8  1  6  0  0  0
 12 14  1  0  0  0  0
 13 11  1  0  0  0  0
 14 11  1  0  0  0  0
 14 10  2  0  0  0  0
 15 13  2  0  0  0  0
 16 12  1  0  0  0  0
 17 16  1  0  0  0  0
 18 17  1  0  0  0  0
 19 22  1  0  0  0  0
 20 18  1  6  0  0  0
 20 22  1  0  0  0  0
 22 27  1  1  0  0  0
 23 24  2  0  0  0  0
 24 19  1  0  0  0  0
 25 21  1  1  0  0  0
 25 20  1  0  0  0  0
 25 24  1  0  0  0  0
 27 26  1  0  0  0  0
 28 31  1  0  0  0  0
 29 30  2  0  0  0  0
 29 28  1  0  0  0  0
 31 32  1  0  0  0  0
 34 32  1  0  0  0  0
 34 33  1  0  0  0  0
 35 36  1  1  0  0  0
 35 37  1  0  0  0  0
 38 37  1  6  0  0  0
 39 40  1  0  0  0  0
 39 38  1  0  0  0  0
 40 38  1  0  0  0  0
 40 41  1  1  0  0  0
 41 42  1  0  0  0  0
 41 53  1  0  0  0  0
 42 44  1  0  0  0  0
 43 45  1  0  0  0  0
 43 52  1  0  0  0  0
 44 45  1  0  0  0  0
 46 47  1  0  0  0  0
 46 44  2  0  0  0  0
 47 43  2  0  0  0  0
 48 49  2  0  0  0  0
 49 50  1  0  0  0  0
 49 47  1  0  0  0  0
 52 51  1  0  0  0  0
 55 58  1  0  0  0  0
 56 54  1  6  0  0  0
 56 57  1  0  0  0  0
 56 59  1  0  0  0  0
 57 64  1  0  0  0  0
 58 66  1  0  0  0  0
 59 63  1  6  0  0  0
 59 60  1  0  0  0  0
 60 61  1  1  0  0  0
 60 55  1  0  0  0  0
 62 53  1  6  0  0  0
 62 58  1  0  0  0  0
 63 62  1  0  0  0  0
 64 61  1  0  0  0  0
 66 65  2  0  0  0  0
M  END
>  <MODEL>
5

>  <REMARK>
 VINA RESULT:      -4.5      2.697      6.871
  Name = 
  25 active torsions:
  status: ('A' for Active; 'I' for Inactive)
    1  A    between atoms: C_2  and  N_20
    2  A    between atoms: C_2  and  C_27
    3  A    between atoms: C_3  and  N_56
    4  A    between atoms: C_4  and  C_23
    5  A    between atoms: C_4  and  C_44
    6  A    between atoms: C_5  and  N_61
    7  A    between atoms: C_6  and  C_34
    8  A    between atoms: C_6  and  C_53
    9  A    between atoms: C_9  and  C_16
   10  A    between atoms: C_11  and  C_53
   11  A    between atoms: C_12  and  C_16
   12  A    between atoms: C_12  and  C_32
   13  A    between atoms: C_14  and  C_44
   14  A    between atoms: C_18  and  C_23
   15  A    between atoms: C_27  and  O_45
   16  A    between atoms: C_29  and  C_62
   17  A    between atoms: C_32  and  C_54
   18  A    between atoms: N_33  and  C_42
   19  A    between atoms: C_34  and  C_54
   20  A    between atoms: C_36  and  C_40
   21  A    between atoms: C_37  and  N_47
   22  A    between atoms: C_37  and  C_52
   23  A    between atoms: C_41  and  C_53
   24  A    between atoms: N_47  and  C_60
   25  A    between atoms: N_47  and  N_61
                            x       y       z     vdW  Elec       q    Type
                         _______ _______ _______ _____ _____    ______ ____

>  <TORSDO>
F 25

$$$$
=
 OpenBabel11062418223D

 66 71  0  0  1  0  0  0  0  0999 V2000
  190.3590  171.5870  139.3820 C   0  0  0  0  0  0  0  0  0  0  0  0
  190.4910  170.5770  140.0600 O   0  0  0  0  0  0  0  0  0  0  0  0
  190.9930  173.0090  137.5850 O   0  0  0  0  0  1  0  0  0  0  0  0
  191.3880  171.9070  138.3440 C   0  0  1  0  0  3  0  0  0  0  0  0
  192.7190  172.1550  138.9840 C   0  0  0  0  0  0  0  0  0  0  0  0
  192.8360  172.1090  140.1990 O   0  0  0  0  0  0  0  0  0  0  0  0
  193.9310  172.3720  138.1220 C   0  0  0  0  0  2  0  0  0  0  0  0
  193.9670  171.4840  136.8700 C   0  0  2  0  0  3  0  0  0  0  0  0
  196.8340  170.3240  138.6190 C   0  0  0  0  0  3  0  0  0  0  0  0
  193.9990  168.5030  137.7740 O   0  0  0  0  0  0  0  0  0  0  0  0
  195.1340  170.4720  136.8640 C   0  0  1  0  0  3  0  0  0  0  0  0
  195.9620  169.3630  138.8610 C   0  0  0  0  0  0  0  0  0  0  0  0
  196.3830  171.0720  137.4480 C   0  0  0  0  0  0  0  0  0  0  0  0
  194.9180  169.3620  137.8460 C   0  0  0  0  0  0  0  0  0  0  0  0
  197.1950  171.8770  136.7790 C   0  0  0  0  0  2  0  0  0  0  0  0
  196.1430  168.3300  139.9180 C   0  0  0  0  0  2  0  0  0  0  0  0
  195.5020  168.8020  141.2120 C   0  0  0  0  0  2  0  0  0  0  0  0
  196.5000  168.7650  142.3590 C   0  0  0  0  0  2  0  0  0  0  0  0
  197.0450  169.7440  145.6180 O   0  0  0  0  0  0  0  0  0  0  0  0
  196.1910  169.8200  143.4170 C   0  0  2  0  0  3  0  0  0  0  0  0
  194.0420  170.2780  144.3540 O   0  0  0  0  0  1  0  0  0  0  0  0
  197.4370  170.0440  144.2880 C   0  0  1  0  0  3  0  0  0  0  0  0
  195.1870  168.9260  146.7270 O   0  0  0  0  0  0  0  0  0  0  0  0
  195.7380  169.3200  145.6670 C   0  0  0  0  0  0  0  0  0  0  0  0
  195.0740  169.3380  144.3480 C   0  0  2  0  0  3  0  0  0  0  0  0
  196.8820  172.3370  144.6700 O   0  0  0  0  0  1  0  0  0  0  0  0
  197.8910  171.4920  144.2030 C   0  0  0  0  0  2  0  0  0  0  0  0
  193.9510  173.7440  135.7040 N   0  0  0  0  0  2  0  0  0  0  0  0
  193.8960  172.3160  135.6270 C   0  0  0  0  0  0  0  0  0  0  0  0
  193.7670  171.7420  134.5130 O   0  0  0  0  0  0  0  0  0  0  0  0
  193.9900  174.5880  134.5200 C   0  0  0  0  0  2  0  0  0  0  0  0
  195.0390  175.6730  134.6920 C   0  0  0  0  0  2  0  0  0  0  0  0
  193.4790  176.8710  135.6760 C   0  0  0  0  0  1  0  0  0  0  0  0
  194.7780  176.3980  135.8520 O   0  0  0  0  0  0  0  0  0  0  0  0
  189.2140  172.5330  139.6400 C   0  0  2  0  0  3  0  0  0  0  0  0
  188.3970  172.6180  138.5050 O   0  0  0  0  0  1  0  0  0  0  0  0
  189.7000  173.9170  140.0730 C   0  0  0  0  0  2  0  0  0  0  0  0
  188.8650  174.4580  141.2260 C   0  0  1  0  0  3  0  0  0  0  0  0
  187.9540  173.3710  141.7520 C   0  0  0  0  0  2  0  0  0  0  0  0
  189.2200  173.7430  142.5200 C   0  0  2  0  0  3  0  0  0  0  0  0
  189.0100  174.7050  143.6080 N   0  0  0  0  0  0  0  0  0  0  0  0
  189.9540  174.5140  144.6300 N   0  0  0  0  0  2  0  0  0  0  0  0
  193.5420  175.9880  144.7080 C   0  0  0  0  0  0  0  0  0  0  0  0
  191.2860  174.9980  144.4630 C   0  0  0  0  0  0  0  0  0  0  0  0
  192.1140  175.9260  145.5940 S   0  0  0  0  0  0  0  0  0  0  0  0
  192.1030  174.7110  143.3780 C   0  0  0  0  0  3  0  0  0  0  0  0
  193.3850  175.2750  143.5150 C   0  0  0  0  0  0  0  0  0  0  0  0
  194.5140  174.0180  141.8500 O   0  0  0  0  0  0  0  0  0  0  0  0
  194.4410  175.0910  142.5040 C   0  0  0  0  0  0  0  0  0  0  0  0
  195.3730  176.0880  142.2720 O   0  0  0  0  0  1  0  0  0  0  0  0
  194.7150  177.5910  146.2400 C   0  0  0  0  0  1  0  0  0  0  0  0
  194.7290  176.6710  145.1210 N   0  0  0  0  0  2  0  0  0  0  0  0
  189.2380  176.0330  143.0660 C   0  0  0  0  0  2  0  0  0  0  0  0
  188.6870  178.1570  147.5210 F   0  0  0  0  0  0  0  0  0  0  0  0
  185.7240  176.8740  143.8500 C   0  0  0  0  0  2  0  0  0  0  0  0
  187.4740  177.5630  147.2180 C   0  0  1  0  0  3  0  0  0  0  0  0
  186.3450  178.3570  147.8720 C   0  0  0  0  0  2  0  0  0  0  0  0
  186.9740  176.9980  143.0930 N   0  0  0  0  0  0  0  0  0  0  0  0
  187.2750  177.5240  145.7010 C   0  0  2  0  0  3  0  0  0  0  0  0
  185.9230  176.9020  145.3650 C   0  0  1  0  0  3  0  0  0  0  0  0
  184.7950  177.6900  146.0180 C   0  0  0  0  0  2  0  0  0  0  0  0
  188.3080  177.0320  143.7390 C   0  0  1  0  0  3  0  0  0  0  0  0
  188.2560  176.7200  145.1160 O   0  0  0  0  0  0  0  0  0  0  0  0
  184.9920  177.7290  147.5310 C   0  0  0  0  0  2  0  0  0  0  0  0
  185.8970  178.1930  141.2730 C   0  0  0  0  0  2  0  0  0  0  0  0
  186.8070  177.3250  141.7060 C   0  0  0  0  0  3  0  0  0  0  0  0
  1 35  1  0  0  0  0
  1  2  2  0  0  0  0
  4  3  1  1  0  0  0
  4  5  1  0  0  0  0
  4  1  1  0  0  0  0
  5  6  2  0  0  0  0
  7  5  1  0  0  0  0
  8  7  1  1  0  0  0
  9 12  2  0  0  0  0
 10 14  2  0  0  0  0
 11  8  1  1  0  0  0
 11 13  1  0  0  0  0
 11 14  1  0  0  0  0
 12 16  1  0  0  0  0
 13  9  1  0  0  0  0
 14 12  1  0  0  0  0
 15 13  2  0  0  0  0
 16 17  1  0  0  0  0
 17 18  1  0  0  0  0
 19 24  1  0  0  0  0
 20 18  1  6  0  0  0
 20 22  1  0  0  0  0
 20 25  1  0  0  0  0
 22 27  1  1  0  0  0
 22 19  1  0  0  0  0
 24 23  2  0  0  0  0
 25 21  1  1  0  0  0
 25 24  1  0  0  0  0
 27 26  1  0  0  0  0
 29 28  1  0  0  0  0
 29  8  1  0  0  0  0
 30 29  2  0  0  0  0
 31 32  1  0  0  0  0
 31 28  1  0  0  0  0
 32 34  1  0  0  0  0
 33 34  1  0  0  0  0
 35 36  1  6  0  0  0
 35 37  1  0  0  0  0
 38 37  1  6  0  0  0
 38 39  1  0  0  0  0
 38 40  1  0  0  0  0
 39 40  1  0  0  0  0
 40 41  1  1  0  0  0
 41 42  1  0  0  0  0
 43 52  1  0  0  0  0
 43 45  1  0  0  0  0
 44 42  1  0  0  0  0
 44 45  1  0  0  0  0
 46 47  1  0  0  0  0
 46 44  2  0  0  0  0
 47 43  2  0  0  0  0
 48 49  2  0  0  0  0
 49 47  1  0  0  0  0
 50 49  1  0  0  0  0
 52 51  1  0  0  0  0
 53 41  1  0  0  0  0
 56 54  1  6  0  0  0
 56 57  1  0  0  0  0
 58 62  1  0  0  0  0
 58 55  1  0  0  0  0
 59 63  1  6  0  0  0
 59 56  1  0  0  0  0
 60 55  1  6  0  0  0
 60 59  1  0  0  0  0
 60 61  1  0  0  0  0
 61 64  1  0  0  0  0
 62 53  1  6  0  0  0
 62 63  1  0  0  0  0
 64 57  1  0  0  0  0
 65 66  2  0  0  0  0
 66 58  1  0  0  0  0
M  END
>  <MODEL>
6

>  <REMARK>
 VINA RESULT:      -4.2      2.429      5.301
  Name = 
  25 active torsions:
  status: ('A' for Active; 'I' for Inactive)
    1  A    between atoms: C_2  and  N_20
    2  A    between atoms: C_2  and  C_27
    3  A    between atoms: C_3  and  N_56
    4  A    between atoms: C_4  and  C_23
    5  A    between atoms: C_4  and  C_44
    6  A    between atoms: C_5  and  N_61
    7  A    between atoms: C_6  and  C_34
    8  A    between atoms: C_6  and  C_53
    9  A    between atoms: C_9  and  C_16
   10  A    between atoms: C_11  and  C_53
   11  A    between atoms: C_12  and  C_16
   12  A    between atoms: C_12  and  C_32
   13  A    between atoms: C_14  and  C_44
   14  A    between atoms: C_18  and  C_23
   15  A    between atoms: C_27  and  O_45
   16  A    between atoms: C_29  and  C_62
   17  A    between atoms: C_32  and  C_54
   18  A    between atoms: N_33  and  C_42
   19  A    between atoms: C_34  and  C_54
   20  A    between atoms: C_36  and  C_40
   21  A    between atoms: C_37  and  N_47
   22  A    between atoms: C_37  and  C_52
   23  A    between atoms: C_41  and  C_53
   24  A    between atoms: N_47  and  C_60
   25  A    between atoms: N_47  and  N_61
                            x       y       z     vdW  Elec       q    Type
                         _______ _______ _______ _____ _____    ______ ____

>  <TORSDO>
F 25

$$$$
=
 OpenBabel11062418223D

 66 71  0  0  1  0  0  0  0  0999 V2000
  192.2080  176.3880  143.7570 C   0  0  0  0  0  0  0  0  0  0  0  0
  192.6180  176.9770  142.7660 O   0  0  0  0  0  0  0  0  0  0  0  0
  190.5190  174.9930  144.6820 O   0  0  0  0  0  1  0  0  0  0  0  0
  190.7410  176.1200  143.8900 C   0  0  1  0  0  3  0  0  0  0  0  0
  190.0400  177.3150  144.4600 C   0  0  0  0  0  0  0  0  0  0  0  0
  190.2080  177.6290  145.6280 O   0  0  0  0  0  0  0  0  0  0  0  0
  189.1980  178.1800  143.5640 C   0  0  0  0  0  2  0  0  0  0  0  0
  187.9540  177.4710  143.0090 C   0  0  2  0  0  3  0  0  0  0  0  0
  184.9300  177.6920  141.1550 C   0  0  0  0  0  3  0  0  0  0  0  0
  185.9140  179.6780  143.8290 O   0  0  0  0  0  0  0  0  0  0  0  0
  187.0760  178.3740  142.1140 C   0  0  1  0  0  3  0  0  0  0  0  0
  184.6500  178.4220  142.2190 C   0  0  0  0  0  0  0  0  0  0  0  0
  186.3830  177.5790  141.0440 C   0  0  0  0  0  0  0  0  0  0  0  0
  185.8780  178.8920  142.8450 C   0  0  0  0  0  0  0  0  0  0  0  0
  186.9680  177.1870  139.9220 C   0  0  0  0  0  2  0  0  0  0  0  0
  183.2700  178.8380  142.5950 C   0  0  0  0  0  2  0  0  0  0  0  0
  182.2570  177.9920  141.8450 C   0  0  0  0  0  2  0  0  0  0  0  0
  181.6290  178.7770  140.7030 C   0  0  0  0  0  2  0  0  0  0  0  0
  178.6050  177.2270  141.2720 O   0  0  0  0  0  0  0  0  0  0  0  0
  180.1340  178.9920  140.9140 C   0  0  2  0  0  3  0  0  0  0  0  0
  178.6050  179.8810  139.3090 O   0  0  0  0  0  1  0  0  0  0  0  0
  179.6140  177.9690  141.9370 C   0  0  1  0  0  3  0  0  0  0  0  0
  177.6920  177.0690  139.1520 O   0  0  0  0  0  0  0  0  0  0  0  0
  178.4720  177.6300  139.9640 C   0  0  0  0  0  0  0  0  0  0  0  0
  179.3660  178.7510  139.6110 C   0  0  2  0  0  3  0  0  0  0  0  0
  180.0220  179.3500  143.8450 O   0  0  0  0  0  1  0  0  0  0  0  0
  179.0190  178.6790  143.1420 C   0  0  0  0  0  2  0  0  0  0  0  0
  186.9620  177.4740  145.3500 N   0  0  0  0  0  2  0  0  0  0  0  0
  187.1900  176.8000  144.1080 C   0  0  0  0  0  0  0  0  0  0  0  0
  186.7670  175.6270  143.9320 O   0  0  0  0  0  0  0  0  0  0  0  0
  186.1380  176.9050  146.4060 C   0  0  0  0  0  2  0  0  0  0  0  0
  185.3630  178.0070  147.1070 C   0  0  0  0  0  2  0  0  0  0  0  0
  186.3110  179.6490  148.2200 C   0  0  0  0  0  1  0  0  0  0  0  0
  185.9660  178.3030  148.3270 O   0  0  0  0  0  0  0  0  0  0  0  0
  193.1580  176.0040  144.8620 C   0  0  2  0  0  3  0  0  0  0  0  0
  194.1440  176.9880  145.0120 O   0  0  0  0  0  1  0  0  0  0  0  0
  193.7850  174.6290  144.6280 C   0  0  0  0  0  2  0  0  0  0  0  0
  194.5480  174.5890  143.3100 C   0  0  1  0  0  3  0  0  0  0  0  0
  195.9340  175.1640  143.5040 C   0  0  0  0  0  2  0  0  0  0  0  0
  195.7410  173.6530  143.4160 C   0  0  2  0  0  3  0  0  0  0  0  0
  195.9580  173.0890  142.0780 N   0  0  0  0  0  0  0  0  0  0  0  0
  197.0570  173.7000  141.4520 N   0  0  0  0  0  2  0  0  0  0  0  0
  197.5460  174.3120  137.6530 C   0  0  0  0  0  0  0  0  0  0  0  0
  197.1160  173.7620  140.0280 C   0  0  0  0  0  0  0  0  0  0  0  0
  197.8050  175.0230  139.1550 S   0  0  0  0  0  0  0  0  0  0  0  0
  196.6780  172.7610  139.1720 C   0  0  0  0  0  3  0  0  0  0  0  0
  196.9200  173.0730  137.8220 C   0  0  0  0  0  0  0  0  0  0  0  0
  195.5940  172.4190  135.9670 O   0  0  0  0  0  0  0  0  0  0  0  0
  196.5650  172.1570  136.7240 C   0  0  0  0  0  0  0  0  0  0  0  0
  197.2820  170.9900  136.5220 O   0  0  0  0  0  1  0  0  0  0  0  0
  197.0510  175.8580  135.7400 C   0  0  0  0  0  1  0  0  0  0  0  0
  197.9120  174.8970  136.4000 N   0  0  0  0  0  2  0  0  0  0  0  0
  196.2950  171.6860  142.2450 C   0  0  0  0  0  2  0  0  0  0  0  0
  193.4970  170.8210  138.2340 F   0  0  0  0  0  0  0  0  0  0  0  0
  192.8180  170.7380  143.0750 C   0  0  0  0  0  2  0  0  0  0  0  0
  192.6260  171.1810  139.2480 C   0  0  1  0  0  3  0  0  0  0  0  0
  191.2830  170.4860  139.0330 C   0  0  0  0  0  2  0  0  0  0  0  0
  194.2710  170.5390  143.0520 N   0  0  0  0  0  0  0  0  0  0  0  0
  193.2100  170.7820  140.6050 C   0  0  2  0  0  3  0  0  0  0  0  0
  192.2370  171.1470  141.7220 C   0  0  1  0  0  3  0  0  0  0  0  0
  190.8960  170.4570  141.5090 C   0  0  0  0  0  2  0  0  0  0  0  0
  195.1040  170.8200  141.8570 C   0  0  1  0  0  3  0  0  0  0  0  0
  194.3910  171.4910  140.8390 O   0  0  0  0  0  0  0  0  0  0  0  0
  190.3120  170.8540  140.1560 C   0  0  0  0  0  2  0  0  0  0  0  0
  195.2180  170.4400  145.2860 C   0  0  0  0  0  2  0  0  0  0  0  0
  194.8000  169.8290  144.1810 C   0  0  0  0  0  3  0  0  0  0  0  0
  1  4  1  0  0  0  0
  1 35  1  0  0  0  0
  2  1  2  0  0  0  0
  4  5  1  0  0  0  0
  4  3  1  1  0  0  0
  5  6  2  0  0  0  0
  7  5  1  0  0  0  0
  8  7  1  1  0  0  0
  8 29  1  0  0  0  0
  9 12  2  0  0  0  0
 11 14  1  0  0  0  0
 11  8  1  1  0  0  0
 12 16  1  0  0  0  0
 12 14  1  0  0  0  0
 13  9  1  0  0  0  0
 13 11  1  0  0  0  0
 14 10  2  0  0  0  0
 15 13  2  0  0  0  0
 17 16  1  0  0  0  0
 18 17  1  0  0  0  0
 19 22  1  0  0  0  0
 20 18  1  6  0  0  0
 20 22  1  0  0  0  0
 22 27  1  1  0  0  0
 23 24  2  0  0  0  0
 24 19  1  0  0  0  0
 25 21  1  1  0  0  0
 25 24  1  0  0  0  0
 25 20  1  0  0  0  0
 27 26  1  0  0  0  0
 28 31  1  0  0  0  0
 29 28  1  0  0  0  0
 30 29  2  0  0  0  0
 31 32  1  0  0  0  0
 32 34  1  0  0  0  0
 33 34  1  0  0  0  0
 35 36  1  6  0  0  0
 37 35  1  0  0  0  0
 38 40  1  0  0  0  0
 38 39  1  0  0  0  0
 38 37  1  1  0  0  0
 40 41  1  6  0  0  0
 40 39  1  0  0  0  0
 41 53  1  0  0  0  0
 42 41  1  0  0  0  0
 43 47  2  0  0  0  0
 43 45  1  0  0  0  0
 44 42  1  0  0  0  0
 45 44  1  0  0  0  0
 46 44  2  0  0  0  0
 47 46  1  0  0  0  0
 48 49  2  0  0  0  0
 49 47  1  0  0  0  0
 50 49  1  0  0  0  0
 51 52  1  0  0  0  0
 52 43  1  0  0  0  0
 56 54  1  6  0  0  0
 56 59  1  0  0  0  0
 57 56  1  0  0  0  0
 57 64  1  0  0  0  0
 58 55  1  0  0  0  0
 58 66  1  0  0  0  0
 59 63  1  1  0  0  0
 59 60  1  0  0  0  0
 60 61  1  6  0  0  0
 60 55  1  0  0  0  0
 62 53  1  1  0  0  0
 62 58  1  0  0  0  0
 63 62  1  0  0  0  0
 64 61  1  0  0  0  0
 66 65  2  0  0  0  0
M  END
>  <MODEL>
7

>  <REMARK>
 VINA RESULT:      -4.2      4.391     10.538
  Name = 
  25 active torsions:
  status: ('A' for Active; 'I' for Inactive)
    1  A    between atoms: C_2  and  N_20
    2  A    between atoms: C_2  and  C_27
    3  A    between atoms: C_3  and  N_56
    4  A    between atoms: C_4  and  C_23
    5  A    between atoms: C_4  and  C_44
    6  A    between atoms: C_5  and  N_61
    7  A    between atoms: C_6  and  C_34
    8  A    between atoms: C_6  and  C_53
    9  A    between atoms: C_9  and  C_16
   10  A    between atoms: C_11  and  C_53
   11  A    between atoms: C_12  and  C_16
   12  A    between atoms: C_12  and  C_32
   13  A    between atoms: C_14  and  C_44
   14  A    between atoms: C_18  and  C_23
   15  A    between atoms: C_27  and  O_45
   16  A    between atoms: C_29  and  C_62
   17  A    between atoms: C_32  and  C_54
   18  A    between atoms: N_33  and  C_42
   19  A    between atoms: C_34  and  C_54
   20  A    between atoms: C_36  and  C_40
   21  A    between atoms: C_37  and  N_47
   22  A    between atoms: C_37  and  C_52
   23  A    between atoms: C_41  and  C_53
   24  A    between atoms: N_47  and  C_60
   25  A    between atoms: N_47  and  N_61
                            x       y       z     vdW  Elec       q    Type
                         _______ _______ _______ _____ _____    ______ ____

>  <TORSDO>
F 25

$$$$
=
 OpenBabel11062418223D

 66 71  0  0  1  0  0  0  0  0999 V2000
  194.2050  174.5410  140.2690 C   0  0  0  0  0  0  0  0  0  0  0  0
  193.4650  175.0950  141.0710 O   0  0  0  0  0  0  0  0  0  0  0  0
  192.9100  172.5460  140.2610 O   0  0  0  0  0  1  0  0  0  0  0  0
  193.6780  173.3950  139.4620 C   0  0  1  0  0  3  0  0  0  0  0  0
  192.8770  173.8970  138.3000 C   0  0  0  0  0  0  0  0  0  0  0  0
  193.1580  174.9620  137.7730 O   0  0  0  0  0  0  0  0  0  0  0  0
  191.7820  173.0420  137.7260 C   0  0  0  0  0  2  0  0  0  0  0  0
  190.4260  173.7560  137.6280 C   0  0  2  0  0  3  0  0  0  0  0  0
  189.4260  171.8780  140.4740 C   0  0  0  0  0  3  0  0  0  0  0  0
  188.0270  174.8320  139.2990 O   0  0  0  0  0  0  0  0  0  0  0  0
  189.2690  172.9780  138.2930 C   0  0  1  0  0  3  0  0  0  0  0  0
  188.8100  173.0280  140.6780 C   0  0  0  0  0  0  0  0  0  0  0  0
  189.7770  171.7880  139.0590 C   0  0  0  0  0  0  0  0  0  0  0  0
  188.6530  173.7450  139.4210 C   0  0  0  0  0  0  0  0  0  0  0  0
  190.1100  170.6370  138.4940 C   0  0  0  0  0  2  0  0  0  0  0  0
  188.2130  173.4240  141.9830 C   0  0  0  0  0  2  0  0  0  0  0  0
  188.4520  174.9030  142.2300 C   0  0  0  0  0  2  0  0  0  0  0  0
  187.6190  175.4020  143.4000 C   0  0  0  0  0  2  0  0  0  0  0  0
  185.0920  177.4740  142.3050 O   0  0  0  0  0  0  0  0  0  0  0  0
  187.1830  176.8520  143.2120 C   0  0  2  0  0  3  0  0  0  0  0  0
  188.2000  178.4420  141.7480 O   0  0  0  0  0  1  0  0  0  0  0  0
  185.6770  176.9700  143.4950 C   0  0  1  0  0  3  0  0  0  0  0  0
  185.7470  178.0000  140.1490 O   0  0  0  0  0  0  0  0  0  0  0  0
  186.0360  177.6360  141.3180 C   0  0  0  0  0  0  0  0  0  0  0  0
  187.4030  177.2970  141.7630 C   0  0  2  0  0  3  0  0  0  0  0  0
  186.6250  178.5390  145.0280 O   0  0  0  0  0  1  0  0  0  0  0  0
  185.4250  177.9380  144.6390 C   0  0  0  0  0  2  0  0  0  0  0  0
  188.8450  174.6490  135.8480 N   0  0  0  0  0  2  0  0  0  0  0  0
  190.1380  174.1560  136.2140 C   0  0  0  0  0  0  0  0  0  0  0  0
  191.0430  174.0350  135.3470 O   0  0  0  0  0  0  0  0  0  0  0  0
  188.5490  175.1470  134.5130 C   0  0  0  0  0  2  0  0  0  0  0  0
  187.2240  175.8870  134.5190 C   0  0  0  0  0  2  0  0  0  0  0  0
  185.7840  176.0400  136.1740 C   0  0  0  0  0  1  0  0  0  0  0  0
  187.0320  176.4990  135.7550 O   0  0  0  0  0  0  0  0  0  0  0  0
  195.6480  174.9590  140.1490 C   0  0  2  0  0  3  0  0  0  0  0  0
  196.0860  174.7980  138.8270 O   0  0  0  0  0  1  0  0  0  0  0  0
  196.5490  174.1990  141.1220 C   0  0  0  0  0  2  0  0  0  0  0  0
  196.5580  172.7070  140.8150 C   0  0  1  0  0  3  0  0  0  0  0  0
  197.6320  172.0240  141.6320 C   0  0  0  0  0  2  0  0  0  0  0  0
  196.1680  171.9090  142.0490 C   0  0  2  0  0  3  0  0  0  0  0  0
  195.4940  170.6950  141.5740 N   0  0  0  0  0  0  0  0  0  0  0  0
  196.2370  170.0810  140.5520 N   0  0  0  0  0  2  0  0  0  0  0  0
  195.3120  169.9940  136.7850 C   0  0  0  0  0  0  0  0  0  0  0  0
  195.7040  170.0190  139.2290 C   0  0  0  0  0  0  0  0  0  0  0  0
  196.5710  170.3760  137.8340 S   0  0  0  0  0  0  0  0  0  0  0  0
  194.4240  169.5900  138.9100 C   0  0  0  0  0  3  0  0  0  0  0  0
  194.1990  169.5770  137.5210 C   0  0  0  0  0  0  0  0  0  0  0  0
  192.5070  169.6510  135.8590 O   0  0  0  0  0  0  0  0  0  0  0  0
  192.9220  169.1380  136.9320 C   0  0  0  0  0  0  0  0  0  0  0  0
  192.1560  168.1690  137.5570 O   0  0  0  0  0  1  0  0  0  0  0  0
  195.8280  171.3050  134.7090 C   0  0  0  0  0  1  0  0  0  0  0  0
  195.3820  170.0890  135.3600 N   0  0  0  0  0  2  0  0  0  0  0  0
  195.4480  169.7580  142.6820 C   0  0  0  0  0  2  0  0  0  0  0  0
  190.7680  171.3450  143.1650 F   0  0  0  0  0  0  0  0  0  0  0  0
  195.0480  172.3230  145.3160 C   0  0  0  0  0  2  0  0  0  0  0  0
  191.5770  172.3660  143.6330 C   0  0  1  0  0  3  0  0  0  0  0  0
  190.8360  173.1410  144.7210 C   0  0  0  0  0  2  0  0  0  0  0  0
  195.3520  170.9770  144.8190 N   0  0  0  0  0  0  0  0  0  0  0  0
  192.8770  171.7870  144.1960 C   0  0  2  0  0  3  0  0  0  0  0  0
  193.7560  172.9060  144.7450 C   0  0  1  0  0  3  0  0  0  0  0  0
  193.0190  173.6820  145.8290 C   0  0  0  0  0  2  0  0  0  0  0  0
  194.5410  170.2990  143.7790 C   0  0  1  0  0  3  0  0  0  0  0  0
  193.5960  171.1590  143.1770 O   0  0  0  0  0  0  0  0  0  0  0  0
  191.7220  174.2610  145.2690 C   0  0  0  0  0  2  0  0  0  0  0  0
  196.4170  170.3270  146.9030 C   0  0  0  0  0  2  0  0  0  0  0  0
  196.3410  170.2650  145.5770 C   0  0  0  0  0  3  0  0  0  0  0  0
  1  2  2  0  0  0  0
  4  3  1  1  0  0  0
  4  1  1  0  0  0  0
  5  4  1  0  0  0  0
  6  5  2  0  0  0  0
  7  5  1  0  0  0  0
  8  7  1  6  0  0  0
  9 12  2  0  0  0  0
 10 14  2  0  0  0  0
 11  8  1  1  0  0  0
 11 13  1  0  0  0  0
 11 14  1  0  0  0  0
 12 16  1  0  0  0  0
 13  9  1  0  0  0  0
 14 12  1  0  0  0  0
 15 13  2  0  0  0  0
 16 17  1  0  0  0  0
 17 18  1  0  0  0  0
 19 22  1  0  0  0  0
 20 18  1  6  0  0  0
 20 22  1  0  0  0  0
 22 27  1  1  0  0  0
 23 24  2  0  0  0  0
 24 25  1  0  0  0  0
 24 19  1  0  0  0  0
 25 21  1  1  0  0  0
 25 20  1  0  0  0  0
 27 26  1  0  0  0  0
 28 29  1  0  0  0  0
 29  8  1  0  0  0  0
 30 29  2  0  0  0  0
 31 32  1  0  0  0  0
 31 28  1  0  0  0  0
 32 34  1  0  0  0  0
 34 33  1  0  0  0  0
 35 36  1  6  0  0  0
 35  1  1  0  0  0  0
 35 37  1  0  0  0  0
 38 37  1  1  0  0  0
 38 39  1  0  0  0  0
 38 40  1  0  0  0  0
 39 40  1  0  0  0  0
 40 41  1  6  0  0  0
 41 53  1  0  0  0  0
 42 41  1  0  0  0  0
 43 47  2  0  0  0  0
 43 45  1  0  0  0  0
 44 42  1  0  0  0  0
 45 44  1  0  0  0  0
 46 44  2  0  0  0  0
 47 46  1  0  0  0  0
 48 49  2  0  0  0  0
 49 47  1  0  0  0  0
 49 50  1  0  0  0  0
 51 52  1  0  0  0  0
 52 43  1  0  0  0  0
 56 54  1  1  0  0  0
 56 59  1  0  0  0  0
 56 57  1  0  0  0  0
 57 64  1  0  0  0  0
 58 55  1  0  0  0  0
 58 66  1  0  0  0  0
 59 63  1  6  0  0  0
 59 60  1  0  0  0  0
 60 55  1  1  0  0  0
 60 61  1  0  0  0  0
 62 53  1  6  0  0  0
 62 58  1  0  0  0  0
 63 62  1  0  0  0  0
 64 61  1  0  0  0  0
 66 65  2  0  0  0  0
M  END
>  <MODEL>
8

>  <REMARK>
 VINA RESULT:      -4.1      3.141      8.156
  Name = 
  25 active torsions:
  status: ('A' for Active; 'I' for Inactive)
    1  A    between atoms: C_2  and  N_20
    2  A    between atoms: C_2  and  C_27
    3  A    between atoms: C_3  and  N_56
    4  A    between atoms: C_4  and  C_23
    5  A    between atoms: C_4  and  C_44
    6  A    between atoms: C_5  and  N_61
    7  A    between atoms: C_6  and  C_34
    8  A    between atoms: C_6  and  C_53
    9  A    between atoms: C_9  and  C_16
   10  A    between atoms: C_11  and  C_53
   11  A    between atoms: C_12  and  C_16
   12  A    between atoms: C_12  and  C_32
   13  A    between atoms: C_14  and  C_44
   14  A    between atoms: C_18  and  C_23
   15  A    between atoms: C_27  and  O_45
   16  A    between atoms: C_29  and  C_62
   17  A    between atoms: C_32  and  C_54
   18  A    between atoms: N_33  and  C_42
   19  A    between atoms: C_34  and  C_54
   20  A    between atoms: C_36  and  C_40
   21  A    between atoms: C_37  and  N_47
   22  A    between atoms: C_37  and  C_52
   23  A    between atoms: C_41  and  C_53
   24  A    between atoms: N_47  and  C_60
   25  A    between atoms: N_47  and  N_61
                            x       y       z     vdW  Elec       q    Type
                         _______ _______ _______ _____ _____    ______ ____

>  <TORSDO>
F 25

$$$$
=
 OpenBabel11062418223D

 66 71  0  0  1  0  0  0  0  0999 V2000
  187.9350  177.3790  145.9720 C   0  0  0  0  0  0  0  0  0  0  0  0
  187.7170  178.4830  145.4900 O   0  0  0  0  0  0  0  0  0  0  0  0
  186.3990  176.3910  147.4950 O   0  0  0  0  0  1  0  0  0  0  0  0
  186.7930  176.4280  146.1570 C   0  0  1  0  0  3  0  0  0  0  0  0
  185.6440  176.8110  145.2760 C   0  0  0  0  0  0  0  0  0  0  0  0
  184.7310  177.4930  145.7170 O   0  0  0  0  0  0  0  0  0  0  0  0
  185.6610  176.4290  143.8230 C   0  0  0  0  0  2  0  0  0  0  0  0
  186.9200  176.8910  143.0760 C   0  0  2  0  0  3  0  0  0  0  0  0
  184.8970  177.5960  140.2410 C   0  0  0  0  0  3  0  0  0  0  0  0
  185.2020  179.4890  143.1370 O   0  0  0  0  0  0  0  0  0  0  0  0
  186.6300  177.9000  141.9420 C   0  0  1  0  0  3  0  0  0  0  0  0
  184.3960  178.4200  141.1430 C   0  0  0  0  0  0  0  0  0  0  0  0
  186.2350  177.1990  140.6720 C   0  0  0  0  0  0  0  0  0  0  0  0
  185.3750  178.6750  142.1910 C   0  0  0  0  0  0  0  0  0  0  0  0
  187.1010  176.6450  139.8370 C   0  0  0  0  0  2  0  0  0  0  0  0
  183.0860  179.1130  140.9920 C   0  0  0  0  0  2  0  0  0  0  0  0
  181.9770  178.2440  141.5580 C   0  0  0  0  0  2  0  0  0  0  0  0
  180.9930  177.8400  140.4710 C   0  0  0  0  0  2  0  0  0  0  0  0
  179.0080  179.5250  142.7300 O   0  0  0  0  0  0  0  0  0  0  0  0
  179.5750  178.3110  140.7830 C   0  0  2  0  0  3  0  0  0  0  0  0
  177.6920  176.9050  141.2090 O   0  0  0  0  0  1  0  0  0  0  0  0
  179.6380  179.6860  141.4690 C   0  0  1  0  0  3  0  0  0  0  0  0
  178.0960  177.8170  143.9970 O   0  0  0  0  0  0  0  0  0  0  0  0
  178.6120  178.2220  142.9230 C   0  0  0  0  0  0  0  0  0  0  0  0
  178.8930  177.3520  141.7630 C   0  0  2  0  0  3  0  0  0  0  0  0
  179.4720  180.8500  139.3880 O   0  0  0  0  0  1  0  0  0  0  0  0
  178.8870  180.7230  140.6500 C   0  0  0  0  0  2  0  0  0  0  0  0
  187.0990  174.4830  142.2780 N   0  0  0  0  0  2  0  0  0  0  0  0
  187.7350  175.7160  142.6320 C   0  0  0  0  0  0  0  0  0  0  0  0
  188.9890  175.8210  142.5910 O   0  0  0  0  0  0  0  0  0  0  0  0
  187.8390  173.3500  141.7430 C   0  0  0  0  0  2  0  0  0  0  0  0
  188.7290  173.8070  140.6010 C   0  0  0  0  0  2  0  0  0  0  0  0
  188.9010  173.4410  138.4400 C   0  0  0  0  0  1  0  0  0  0  0  0
  188.8600  172.7820  139.6670 O   0  0  0  0  0  0  0  0  0  0  0  0
  189.3190  177.0110  146.4390 C   0  0  2  0  0  3  0  0  0  0  0  0
  190.2570  177.9140  145.9210 O   0  0  0  0  0  1  0  0  0  0  0  0
  189.6840  175.5720  146.0760 C   0  0  0  0  0  2  0  0  0  0  0  0
  191.0470  175.5020  145.4000 C   0  0  1  0  0  3  0  0  0  0  0  0
  192.1180  175.9690  146.3610 C   0  0  0  0  0  2  0  0  0  0  0  0
  191.9320  174.4780  146.0930 C   0  0  2  0  0  3  0  0  0  0  0  0
  192.8270  173.9280  145.0680 N   0  0  0  0  0  0  0  0  0  0  0  0
  192.5720  172.5620  144.8660 N   0  0  0  0  0  2  0  0  0  0  0  0
  195.4300  170.1910  143.7430 C   0  0  0  0  0  0  0  0  0  0  0  0
  193.6590  171.6630  144.6530 C   0  0  0  0  0  0  0  0  0  0  0  0
  194.0890  171.0230  143.1590 S   0  0  0  0  0  0  0  0  0  0  0  0
  194.5500  171.2500  145.6330 C   0  0  0  0  0  3  0  0  0  0  0  0
  195.5560  170.4120  145.1180 C   0  0  0  0  0  0  0  0  0  0  0  0
  197.8270  169.8840  145.5580 O   0  0  0  0  0  0  0  0  0  0  0  0
  196.6340  169.8630  145.9600 C   0  0  0  0  0  0  0  0  0  0  0  0
  196.3470  169.3030  147.1920 O   0  0  0  0  0  1  0  0  0  0  0  0
  196.6610  169.7720  141.5980 C   0  0  0  0  0  1  0  0  0  0  0  0
  196.2990  169.3820  142.9450 N   0  0  0  0  0  2  0  0  0  0  0  0
  192.5260  174.6030  143.8180 C   0  0  0  0  0  2  0  0  0  0  0  0
  194.1950  175.8280  139.3050 F   0  0  0  0  0  0  0  0  0  0  0  0
  196.1570  174.0350  143.4080 C   0  0  0  0  0  2  0  0  0  0  0  0
  195.0750  174.8840  139.8040 C   0  0  1  0  0  3  0  0  0  0  0  0
  196.4680  175.1360  139.2310 C   0  0  0  0  0  2  0  0  0  0  0  0
  194.9800  174.6880  143.9920 N   0  0  0  0  0  0  0  0  0  0  0  0
  195.1160  174.9620  141.3320 C   0  0  2  0  0  3  0  0  0  0  0  0
  196.1110  173.9460  141.8840 C   0  0  1  0  0  3  0  0  0  0  0  0
  197.5010  174.1950  141.3130 C   0  0  0  0  0  2  0  0  0  0  0  0
  193.8120  175.1150  143.1850 C   0  0  1  0  0  3  0  0  0  0  0  0
  193.8620  174.6390  141.8560 O   0  0  0  0  0  0  0  0  0  0  0  0
  197.4620  174.1160  139.7880 C   0  0  0  0  0  2  0  0  0  0  0  0
  196.0450  174.5740  146.1720 C   0  0  0  0  0  2  0  0  0  0  0  0
  195.1360  175.1010  145.3570 C   0  0  0  0  0  3  0  0  0  0  0  0
  1  4  1  0  0  0  0
  1 35  1  0  0  0  0
  2  1  2  0  0  0  0
  4  3  1  1  0  0  0
  5  6  2  0  0  0  0
  5  4  1  0  0  0  0
  7  5  1  0  0  0  0
  8  7  1  6  0  0  0
  9 13  1  0  0  0  0
  9 12  2  0  0  0  0
 11 14  1  0  0  0  0
 11  8  1  1  0  0  0
 12 14  1  0  0  0  0
 13 11  1  0  0  0  0
 14 10  2  0  0  0  0
 15 13  2  0  0  0  0
 16 12  1  0  0  0  0
 16 17  1  0  0  0  0
 18 17  1  0  0  0  0
 19 24  1  0  0  0  0
 20 18  1  1  0  0  0
 20 22  1  0  0  0  0
 20 25  1  0  0  0  0
 22 27  1  6  0  0  0
 22 19  1  0  0  0  0
 24 23  2  0  0  0  0
 25 21  1  6  0  0  0
 25 24  1  0  0  0  0
 26 27  1  0  0  0  0
 28 29  1  0  0  0  0
 29  8  1  0  0  0  0
 30 29  2  0  0  0  0
 31 28  1  0  0  0  0
 32 31  1  0  0  0  0
 33 34  1  0  0  0  0
 34 32  1  0  0  0  0
 35 36  1  6  0  0  0
 37 35  1  0  0  0  0
 38 37  1  1  0  0  0
 38 40  1  0  0  0  0
 38 39  1  0  0  0  0
 40 41  1  6  0  0  0
 40 39  1  0  0  0  0
 42 41  1  0  0  0  0
 43 47  2  0  0  0  0
 44 42  1  0  0  0  0
 44 46  2  0  0  0  0
 45 43  1  0  0  0  0
 45 44  1  0  0  0  0
 47 46  1  0  0  0  0
 47 49  1  0  0  0  0
 48 49  2  0  0  0  0
 49 50  1  0  0  0  0
 51 52  1  0  0  0  0
 52 43  1  0  0  0  0
 53 41  1  0  0  0  0
 55 58  1  0  0  0  0
 56 54  1  6  0  0  0
 56 59  1  0  0  0  0
 57 64  1  0  0  0  0
 57 56  1  0  0  0  0
 58 66  1  0  0  0  0
 59 63  1  1  0  0  0
 59 60  1  0  0  0  0
 60 61  1  6  0  0  0
 60 55  1  0  0  0  0
 62 53  1  1  0  0  0
 62 58  1  0  0  0  0
 63 62  1  0  0  0  0
 64 61  1  0  0  0  0
 66 65  2  0  0  0  0
M  END
>  <MODEL>
9

>  <REMARK>
 VINA RESULT:      -4.0      4.441      9.727
  Name = 
  25 active torsions:
  status: ('A' for Active; 'I' for Inactive)
    1  A    between atoms: C_2  and  N_20
    2  A    between atoms: C_2  and  C_27
    3  A    between atoms: C_3  and  N_56
    4  A    between atoms: C_4  and  C_23
    5  A    between atoms: C_4  and  C_44
    6  A    between atoms: C_5  and  N_61
    7  A    between atoms: C_6  and  C_34
    8  A    between atoms: C_6  and  C_53
    9  A    between atoms: C_9  and  C_16
   10  A    between atoms: C_11  and  C_53
   11  A    between atoms: C_12  and  C_16
   12  A    between atoms: C_12  and  C_32
   13  A    between atoms: C_14  and  C_44
   14  A    between atoms: C_18  and  C_23
   15  A    between atoms: C_27  and  O_45
   16  A    between atoms: C_29  and  C_62
   17  A    between atoms: C_32  and  C_54
   18  A    between atoms: N_33  and  C_42
   19  A    between atoms: C_34  and  C_54
   20  A    between atoms: C_36  and  C_40
   21  A    between atoms: C_37  and  N_47
   22  A    between atoms: C_37  and  C_52
   23  A    between atoms: C_41  and  C_53
   24  A    between atoms: N_47  and  C_60
   25  A    between atoms: N_47  and  N_61
                            x       y       z     vdW  Elec       q    Type
                         _______ _______ _______ _____ _____    ______ ____

>  <TORSDO>
F 25

$$$$
