=
 OpenBabel11062420383D

 32 34  0  0  1  0  0  0  0  0999 V2000
  188.4850  174.4670  139.7020 N   0  0  0  0  0  2  0  0  0  0  0  0
  188.9750  174.1240  140.8460 C   0  0  0  0  0  0  0  0  0  0  0  0
  190.3570  173.7640  140.9330 N   0  0  0  0  0  2  0  0  0  0  0  0
  188.0570  173.9960  142.0170 C   0  0  0  0  0  2  0  0  0  0  0  0
  187.7810  175.3460  142.5770 C   0  0  0  0  0  3  0  0  0  0  0  0
  186.5380  175.7640  142.7690 C   0  0  0  0  0  3  0  0  0  0  0  0
  184.3560  178.2890  147.3240 O   0  0  0  0  0  1  0  0  0  0  0  0
  185.8270  178.8100  144.6580 C   0  0  0  0  0  0  0  0  0  0  0  0
  186.2300  177.1020  143.3110 C   0  0  0  0  0  0  0  0  0  0  0  0
  186.3850  176.6590  145.8780 C   0  0  0  0  0  2  0  0  0  0  0  0
  185.7030  179.2330  143.3500 C   0  0  0  0  0  3  0  0  0  0  0  0
  185.6620  178.7530  147.1520 C   0  0  2  0  0  3  0  0  0  0  0  0
  185.7530  179.6400  145.8990 C   0  0  0  0  0  2  0  0  0  0  0  0
  186.6460  177.5700  147.0890 C   0  0  0  0  0  2  0  0  0  0  0  0
  185.9460  178.1780  142.5440 N   0  0  0  0  0  0  0  0  0  0  0  0
  186.1860  177.4810  144.6420 C   0  0  0  0  0  0  0  0  0  0  0  0
  185.9010  178.2140  141.0880 C   0  0  0  0  0  2  0  0  0  0  0  0
  184.4620  178.2990  140.6100 C   0  0  0  0  0  2  0  0  0  0  0  0
  183.6040  178.0110  141.6690 O   0  0  0  0  0  1  0  0  0  0  0  0
  191.0550  173.4270  142.1680 C   0  0  0  0  0  2  0  0  0  0  0  0
  192.0860  174.4850  142.5380 C   0  0  1  0  0  3  0  0  0  0  0  0
  192.7410  174.9570  141.3980 O   0  0  0  0  0  1  0  0  0  0  0  0
  191.9830  176.8560  142.9260 O   0  0  0  0  0  1  0  0  0  0  0  0
  191.4070  175.6310  143.2810 C   0  0  2  0  0  3  0  0  0  0  0  0
  191.4750  175.4100  144.7930 C   0  0  2  0  0  3  0  0  0  0  0  0
  190.1200  175.6520  145.3990 C   0  0  2  0  0  3  0  0  0  0  0  0
  191.7660  176.7560  146.7120 O   0  0  0  0  0  0  0  0  0  0  0  0
  190.3820  176.6450  146.5170 C   0  0  1  0  0  3  0  0  0  0  0  0
  192.3390  176.4550  145.4710 C   0  0  0  0  0  2  0  0  0  0  0  0
  189.8680  177.8780  146.1700 F   0  0  0  0  0  0  0  0  0  0  0  0
  189.0400  174.5850  147.3610 C   0  0  0  0  0  1  0  0  0  0  0  0
  189.5680  174.3570  145.9610 C   0  0  0  0  0  2  0  0  0  0  0  0
  1  2  2  0  0  0  0
  2  3  1  0  0  0  0
  2  4  1  0  0  0  0
  3 20  1  0  0  0  0
  4  5  1  0  0  0  0
  5  6  2  0  0  0  0
  6  9  1  0  0  0  0
  8 13  1  0  0  0  0
  9 16  2  0  0  0  0
 10 14  1  0  0  0  0
 11  8  2  0  0  0  0
 12  7  1  6  0  0  0
 13 12  1  0  0  0  0
 14 12  1  0  0  0  0
 15  9  1  0  0  0  0
 15 11  1  0  0  0  0
 16  8  1  0  0  0  0
 16 10  1  0  0  0  0
 17 15  1  0  0  0  0
 18 17  1  0  0  0  0
 18 19  1  0  0  0  0
 20 21  1  0  0  0  0
 21 22  1  6  0  0  0
 21 24  1  0  0  0  0
 24 23  1  1  0  0  0
 25 24  1  6  0  0  0
 25 26  1  0  0  0  0
 25 29  1  0  0  0  0
 26 32  1  1  0  0  0
 26 28  1  0  0  0  0
 28 30  1  6  0  0  0
 28 27  1  0  0  0  0
 29 27  1  0  0  0  0
 32 31  1  0  0  0  0
M  END
>  <MODEL>
1

>  <REMARK>
 VINA RESULT:      -7.2      0.000      0.000
  Name = 
  10 active torsions:
  status: ('A' for Active; 'I' for Inactive)
    1  A    between atoms: C_1  and  C_15
    2  A    between atoms: C_3  and  C_20
    3  A    between atoms: C_6  and  C_9
    4  A    between atoms: C_8  and  C_9
    5  A    between atoms: C_12  and  C_14
    6  A    between atoms: N_13  and  C_23
    7  A    between atoms: C_15  and  C_27
    8  A    between atoms: C_22  and  N_26
    9  A    between atoms: C_22  and  C_28
   10  A    between atoms: C_23  and  C_27
                            x       y       z     vdW  Elec       q    Type
                         _______ _______ _______ _____ _____    ______ ____

>  <TORSDO>
F 10

$$$$
=
 OpenBabel11062420383D

 32 34  0  0  1  0  0  0  0  0999 V2000
  188.7610  174.0070  139.7910 N   0  0  0  0  0  2  0  0  0  0  0  0
  189.0800  173.8090  141.0260 C   0  0  0  0  0  0  0  0  0  0  0  0
  190.4630  173.7900  141.3930 N   0  0  0  0  0  2  0  0  0  0  0  0
  188.0030  173.4860  142.0090 C   0  0  0  0  0  2  0  0  0  0  0  0
  187.2570  174.7270  142.3490 C   0  0  0  0  0  3  0  0  0  0  0  0
  187.8840  175.7840  142.8460 C   0  0  0  0  0  3  0  0  0  0  0  0
  184.0880  177.7990  146.5080 O   0  0  0  0  0  1  0  0  0  0  0  0
  186.0780  178.6130  144.2910 C   0  0  0  0  0  0  0  0  0  0  0  0
  187.1710  177.0270  143.2040 C   0  0  0  0  0  0  0  0  0  0  0  0
  186.7220  176.6400  145.7460 C   0  0  0  0  0  2  0  0  0  0  0  0
  186.2240  178.9940  142.9710 C   0  0  0  0  0  3  0  0  0  0  0  0
  185.2660  178.5340  146.6540 C   0  0  2  0  0  3  0  0  0  0  0  0
  185.5040  179.4140  145.4150 C   0  0  0  0  0  2  0  0  0  0  0  0
  186.4540  177.5920  146.9230 C   0  0  0  0  0  2  0  0  0  0  0  0
  186.8870  178.0120  142.3250 N   0  0  0  0  0  0  0  0  0  0  0  0
  186.6950  177.3940  144.4520 C   0  0  0  0  0  0  0  0  0  0  0  0
  187.2270  178.0300  140.9080 C   0  0  0  0  0  2  0  0  0  0  0  0
  186.0510  177.5450  140.0790 C   0  0  0  0  0  2  0  0  0  0  0  0
  186.5230  176.9110  138.9320 O   0  0  0  0  0  1  0  0  0  0  0  0
  190.9620  173.6500  142.7560 C   0  0  0  0  0  2  0  0  0  0  0  0
  192.1220  174.5970  143.0310 C   0  0  1  0  0  3  0  0  0  0  0  0
  192.0000  175.7630  142.2700 O   0  0  0  0  0  1  0  0  0  0  0  0
  192.5990  173.8180  145.2550 O   0  0  0  0  0  1  0  0  0  0  0  0
  192.1780  174.9300  144.5180 C   0  0  2  0  0  3  0  0  0  0  0  0
  190.8180  175.4300  145.0100 C   0  0  2  0  0  3  0  0  0  0  0  0
  190.9740  176.7990  145.6140 C   0  0  2  0  0  3  0  0  0  0  0  0
  189.6390  175.4620  147.0560 O   0  0  0  0  0  0  0  0  0  0  0  0
  190.3300  176.6800  146.9840 C   0  0  1  0  0  3  0  0  0  0  0  0
  190.3080  174.6040  146.1740 C   0  0  0  0  0  2  0  0  0  0  0  0
  191.3070  176.7120  147.9580 F   0  0  0  0  0  0  0  0  0  0  0  0
  191.2010  178.4950  143.8160 C   0  0  0  0  0  1  0  0  0  0  0  0
  190.2380  177.8210  144.7710 C   0  0  0  0  0  2  0  0  0  0  0  0
  1  2  2  0  0  0  0
  2  3  1  0  0  0  0
  2  4  1  0  0  0  0
  3 20  1  0  0  0  0
  4  5  1  0  0  0  0
  5  6  2  0  0  0  0
  6  9  1  0  0  0  0
  8 16  1  0  0  0  0
  8 13  1  0  0  0  0
  9 16  2  0  0  0  0
 10 14  1  0  0  0  0
 11  8  2  0  0  0  0
 12  7  1  6  0  0  0
 12 14  1  0  0  0  0
 13 12  1  0  0  0  0
 15 11  1  0  0  0  0
 15  9  1  0  0  0  0
 16 10  1  0  0  0  0
 17 15  1  0  0  0  0
 18 17  1  0  0  0  0
 19 18  1  0  0  0  0
 20 21  1  0  0  0  0
 21 22  1  6  0  0  0
 21 24  1  0  0  0  0
 24 23  1  1  0  0  0
 25 24  1  1  0  0  0
 25 26  1  0  0  0  0
 25 29  1  0  0  0  0
 26 32  1  6  0  0  0
 26 28  1  0  0  0  0
 28 27  1  0  0  0  0
 28 30  1  1  0  0  0
 29 27  1  0  0  0  0
 31 32  1  0  0  0  0
M  END
>  <MODEL>
2

>  <REMARK>
 VINA RESULT:      -6.9      1.479      1.946
  Name = 
  10 active torsions:
  status: ('A' for Active; 'I' for Inactive)
    1  A    between atoms: C_1  and  C_15
    2  A    between atoms: C_3  and  C_20
    3  A    between atoms: C_6  and  C_9
    4  A    between atoms: C_8  and  C_9
    5  A    between atoms: C_12  and  C_14
    6  A    between atoms: N_13  and  C_23
    7  A    between atoms: C_15  and  C_27
    8  A    between atoms: C_22  and  N_26
    9  A    between atoms: C_22  and  C_28
   10  A    between atoms: C_23  and  C_27
                            x       y       z     vdW  Elec       q    Type
                         _______ _______ _______ _____ _____    ______ ____

>  <TORSDO>
F 10

$$$$
=
 OpenBabel11062420383D

 32 34  0  0  1  0  0  0  0  0999 V2000
  188.2810  174.7960  140.4980 N   0  0  0  0  0  2  0  0  0  0  0  0
  188.1020  175.6470  141.4510 C   0  0  0  0  0  0  0  0  0  0  0  0
  187.9780  177.0360  141.1300 N   0  0  0  0  0  2  0  0  0  0  0  0
  188.1530  175.1720  142.8660 C   0  0  0  0  0  2  0  0  0  0  0  0
  189.5710  174.9640  143.2640 C   0  0  0  0  0  3  0  0  0  0  0  0
  189.8920  174.0950  144.2130 C   0  0  0  0  0  3  0  0  0  0  0  0
  194.6990  176.8800  145.2210 O   0  0  0  0  0  1  0  0  0  0  0  0
  193.3250  174.1240  145.4630 C   0  0  0  0  0  0  0  0  0  0  0  0
  191.2870  173.8730  144.6400 C   0  0  0  0  0  0  0  0  0  0  0  0
  191.8550  176.1700  145.7410 C   0  0  0  0  0  2  0  0  0  0  0  0
  193.2120  172.8550  144.9310 C   0  0  0  0  0  3  0  0  0  0  0  0
  194.3250  176.2180  146.3930 C   0  0  2  0  0  3  0  0  0  0  0  0
  194.4800  174.6980  146.2200 C   0  0  0  0  0  2  0  0  0  0  0  0
  192.8890  176.6060  146.7910 C   0  0  0  0  0  2  0  0  0  0  0  0
  191.9650  172.7230  144.4300 N   0  0  0  0  0  0  0  0  0  0  0  0
  192.1130  174.7590  145.3110 C   0  0  0  0  0  0  0  0  0  0  0  0
  191.4560  171.5280  143.7690 C   0  0  0  0  0  2  0  0  0  0  0  0
  192.5290  170.4550  143.7240 C   0  0  0  0  0  2  0  0  0  0  0  0
  192.1410  169.4480  142.8430 O   0  0  0  0  0  1  0  0  0  0  0  0
  187.7030  178.0950  142.0950 C   0  0  0  0  0  2  0  0  0  0  0  0
  186.2460  178.5350  142.0460 C   0  0  1  0  0  3  0  0  0  0  0  0
  185.6930  178.2800  140.7890 O   0  0  0  0  0  1  0  0  0  0  0  0
  184.0790  177.9470  142.9060 O   0  0  0  0  0  1  0  0  0  0  0  0
  185.4530  177.8220  143.1360 C   0  0  2  0  0  3  0  0  0  0  0  0
  185.8290  178.3610  144.5180 C   0  0  2  0  0  3  0  0  0  0  0  0
  186.2880  177.2270  145.3930 C   0  0  2  0  0  3  0  0  0  0  0  0
  184.7710  178.5880  146.6170 O   0  0  0  0  0  0  0  0  0  0  0  0
  185.4450  177.3590  146.6490 C   0  0  1  0  0  3  0  0  0  0  0  0
  184.6160  178.8890  145.2590 C   0  0  0  0  0  2  0  0  0  0  0  0
  184.5240  176.3310  146.6970 F   0  0  0  0  0  0  0  0  0  0  0  0
  188.1930  176.3210  146.7000 C   0  0  0  0  0  1  0  0  0  0  0  0
  187.7580  177.3930  145.7230 C   0  0  0  0  0  2  0  0  0  0  0  0
  1  2  2  0  0  0  0
  2  4  1  0  0  0  0
  3  2  1  0  0  0  0
  3 20  1  0  0  0  0
  4  5  1  0  0  0  0
  5  6  2  0  0  0  0
  6  9  1  0  0  0  0
  8 13  1  0  0  0  0
  9 16  2  0  0  0  0
 10 14  1  0  0  0  0
 11  8  2  0  0  0  0
 12  7  1  6  0  0  0
 12 14  1  0  0  0  0
 13 12  1  0  0  0  0
 15  9  1  0  0  0  0
 15 11  1  0  0  0  0
 16  8  1  0  0  0  0
 16 10  1  0  0  0  0
 17 15  1  0  0  0  0
 18 17  1  0  0  0  0
 19 18  1  0  0  0  0
 21 22  1  6  0  0  0
 21 20  1  0  0  0  0
 21 24  1  0  0  0  0
 24 23  1  6  0  0  0
 25 24  1  6  0  0  0
 25 29  1  0  0  0  0
 25 26  1  0  0  0  0
 26 32  1  1  0  0  0
 26 28  1  0  0  0  0
 27 28  1  0  0  0  0
 28 30  1  6  0  0  0
 29 27  1  0  0  0  0
 32 31  1  0  0  0  0
M  END
>  <MODEL>
3

>  <REMARK>
 VINA RESULT:      -6.8      2.416      7.075
  Name = 
  10 active torsions:
  status: ('A' for Active; 'I' for Inactive)
    1  A    between atoms: C_1  and  C_15
    2  A    between atoms: C_3  and  C_20
    3  A    between atoms: C_6  and  C_9
    4  A    between atoms: C_8  and  C_9
    5  A    between atoms: C_12  and  C_14
    6  A    between atoms: N_13  and  C_23
    7  A    between atoms: C_15  and  C_27
    8  A    between atoms: C_22  and  N_26
    9  A    between atoms: C_22  and  C_28
   10  A    between atoms: C_23  and  C_27
                            x       y       z     vdW  Elec       q    Type
                         _______ _______ _______ _____ _____    ______ ____

>  <TORSDO>
F 10

$$$$
=
 OpenBabel11062420383D

 32 34  0  0  1  0  0  0  0  0999 V2000
  189.3670  177.6950  147.0450 N   0  0  0  0  0  2  0  0  0  0  0  0
  188.2680  177.0440  146.8570 C   0  0  0  0  0  0  0  0  0  0  0  0
  187.0750  177.7690  146.5390 N   0  0  0  0  0  2  0  0  0  0  0  0
  188.2490  175.5700  147.0970 C   0  0  0  0  0  2  0  0  0  0  0  0
  189.5970  175.0080  146.8150 C   0  0  0  0  0  3  0  0  0  0  0  0
  189.9730  174.7270  145.5750 C   0  0  0  0  0  3  0  0  0  0  0  0
  195.2660  176.2680  144.3570 O   0  0  0  0  0  1  0  0  0  0  0  0
  193.4740  173.8420  145.0230 C   0  0  0  0  0  0  0  0  0  0  0  0
  191.2980  174.1580  145.2630 C   0  0  0  0  0  0  0  0  0  0  0  0
  192.8800  176.0460  146.1230 C   0  0  0  0  0  2  0  0  0  0  0  0
  192.8060  172.7450  144.5180 C   0  0  0  0  0  3  0  0  0  0  0  0
  195.2960  175.4830  145.5120 C   0  0  2  0  0  3  0  0  0  0  0  0
  194.9510  174.0230  145.1730 C   0  0  0  0  0  2  0  0  0  0  0  0
  194.3480  176.0640  146.5780 C   0  0  0  0  0  2  0  0  0  0  0  0
  191.4810  172.9580  144.6680 N   0  0  0  0  0  0  0  0  0  0  0  0
  192.5370  174.7200  145.5180 C   0  0  0  0  0  0  0  0  0  0  0  0
  190.4360  172.0340  144.2460 C   0  0  0  0  0  2  0  0  0  0  0  0
  190.8270  171.3580  142.9440 C   0  0  0  0  0  2  0  0  0  0  0  0
  189.8110  171.5340  142.0080 O   0  0  0  0  0  1  0  0  0  0  0  0
  185.7860  177.1590  146.2320 C   0  0  0  0  0  2  0  0  0  0  0  0
  185.0020  177.9830  145.2190 C   0  0  1  0  0  3  0  0  0  0  0  0
  184.2580  178.9770  145.8580 O   0  0  0  0  0  1  0  0  0  0  0  0
  185.5160  179.8690  143.8190 O   0  0  0  0  0  1  0  0  0  0  0  0
  185.9580  178.5980  144.2010 C   0  0  2  0  0  3  0  0  0  0  0  0
  186.1140  177.6820  142.9860 C   0  0  2  0  0  3  0  0  0  0  0  0
  187.5300  177.1800  142.9140 C   0  0  2  0  0  3  0  0  0  0  0  0
  186.8520  177.9050  140.7530 O   0  0  0  0  0  0  0  0  0  0  0  0
  187.9710  177.5070  141.4980 C   0  0  1  0  0  3  0  0  0  0  0  0
  185.9610  178.4480  141.6870 C   0  0  0  0  0  2  0  0  0  0  0  0
  188.8920  178.5360  141.5270 F   0  0  0  0  0  0  0  0  0  0  0  0
  188.5250  175.0290  142.1770 C   0  0  0  0  0  1  0  0  0  0  0  0
  187.5580  175.6820  143.1420 C   0  0  0  0  0  2  0  0  0  0  0  0
  2  1  2  0  0  0  0
  2  4  1  0  0  0  0
  3  2  1  0  0  0  0
  5  4  1  0  0  0  0
  6  5  2  0  0  0  0
  8 13  1  0  0  0  0
  8 16  1  0  0  0  0
  9 16  2  0  0  0  0
  9  6  1  0  0  0  0
 10 14  1  0  0  0  0
 11 15  1  0  0  0  0
 11  8  2  0  0  0  0
 12  7  1  6  0  0  0
 12 14  1  0  0  0  0
 13 12  1  0  0  0  0
 15  9  1  0  0  0  0
 16 10  1  0  0  0  0
 17 15  1  0  0  0  0
 18 17  1  0  0  0  0
 19 18  1  0  0  0  0
 20  3  1  0  0  0  0
 21 22  1  1  0  0  0
 21 20  1  0  0  0  0
 24 23  1  6  0  0  0
 24 21  1  0  0  0  0
 25 24  1  1  0  0  0
 26 25  1  0  0  0  0
 26 32  1  6  0  0  0
 27 28  1  0  0  0  0
 27 29  1  0  0  0  0
 28 30  1  1  0  0  0
 28 26  1  0  0  0  0
 29 25  1  0  0  0  0
 31 32  1  0  0  0  0
M  END
>  <MODEL>
4

>  <REMARK>
 VINA RESULT:      -6.7      2.645      7.630
  Name = 
  10 active torsions:
  status: ('A' for Active; 'I' for Inactive)
    1  A    between atoms: C_1  and  C_15
    2  A    between atoms: C_3  and  C_20
    3  A    between atoms: C_6  and  C_9
    4  A    between atoms: C_8  and  C_9
    5  A    between atoms: C_12  and  C_14
    6  A    between atoms: N_13  and  C_23
    7  A    between atoms: C_15  and  C_27
    8  A    between atoms: C_22  and  N_26
    9  A    between atoms: C_22  and  C_28
   10  A    between atoms: C_23  and  C_27
                            x       y       z     vdW  Elec       q    Type
                         _______ _______ _______ _____ _____    ______ ____

>  <TORSDO>
F 10

$$$$
=
 OpenBabel11062420383D

 32 34  0  0  1  0  0  0  0  0999 V2000
  188.5820  174.0310  141.3240 N   0  0  0  0  0  2  0  0  0  0  0  0
  188.3900  175.1150  141.9980 C   0  0  0  0  0  0  0  0  0  0  0  0
  188.2350  176.3530  141.2970 N   0  0  0  0  0  2  0  0  0  0  0  0
  188.4570  175.0620  143.4890 C   0  0  0  0  0  2  0  0  0  0  0  0
  189.8800  175.0990  143.9200 C   0  0  0  0  0  3  0  0  0  0  0  0
  190.4490  176.2370  144.2950 C   0  0  0  0  0  3  0  0  0  0  0  0
  195.5930  174.4190  142.8390 O   0  0  0  0  0  1  0  0  0  0  0  0
  194.0740  176.3120  144.7500 C   0  0  0  0  0  0  0  0  0  0  0  0
  191.8620  176.3110  144.7160 C   0  0  0  0  0  0  0  0  0  0  0  0
  193.0900  175.9810  142.4380 C   0  0  0  0  0  2  0  0  0  0  0  0
  193.6070  176.5010  146.0360 C   0  0  0  0  0  3  0  0  0  0  0  0
  195.6090  175.8150  142.8400 C   0  0  2  0  0  3  0  0  0  0  0  0
  195.4920  176.3500  144.2770 C   0  0  0  0  0  2  0  0  0  0  0  0
  194.4910  176.3630  141.9320 C   0  0  0  0  0  2  0  0  0  0  0  0
  192.2570  176.4930  145.9950 N   0  0  0  0  0  0  0  0  0  0  0  0
  192.9860  176.2200  143.9120 C   0  0  0  0  0  0  0  0  0  0  0  0
  191.3890  176.6500  147.1550 C   0  0  0  0  0  2  0  0  0  0  0  0
  191.1290  175.3020  147.8030 C   0  0  0  0  0  2  0  0  0  0  0  0
  189.8060  174.9270  147.5770 O   0  0  0  0  0  1  0  0  0  0  0  0
  187.9420  177.6360  141.9250 C   0  0  0  0  0  2  0  0  0  0  0  0
  186.4850  178.0360  141.7350 C   0  0  1  0  0  3  0  0  0  0  0  0
  185.9860  177.5300  140.5320 O   0  0  0  0  0  1  0  0  0  0  0  0
  184.2940  177.7810  142.6910 O   0  0  0  0  0  1  0  0  0  0  0  0
  185.6540  177.5390  142.9130 C   0  0  2  0  0  3  0  0  0  0  0  0
  186.1220  178.1890  144.2160 C   0  0  2  0  0  3  0  0  0  0  0  0
  185.4230  177.5420  145.3800 C   0  0  2  0  0  3  0  0  0  0  0  0
  185.3560  179.9030  145.6500 O   0  0  0  0  0  0  0  0  0  0  0  0
  184.8310  178.7060  146.1550 C   0  0  1  0  0  3  0  0  0  0  0  0
  185.6700  179.6330  144.3120 C   0  0  0  0  0  2  0  0  0  0  0  0
  183.4580  178.7080  146.0070 F   0  0  0  0  0  0  0  0  0  0  0  0
  187.7520  177.5310  146.2370 C   0  0  0  0  0  1  0  0  0  0  0  0
  186.4280  176.7960  146.2340 C   0  0  0  0  0  2  0  0  0  0  0  0
  1  2  2  0  0  0  0
  2  4  1  0  0  0  0
  3 20  1  0  0  0  0
  3  2  1  0  0  0  0
  4  5  1  0  0  0  0
  5  6  2  0  0  0  0
  6  9  1  0  0  0  0
  8 11  2  0  0  0  0
  9 15  1  0  0  0  0
 10 16  1  0  0  0  0
 12  7  1  1  0  0  0
 12 13  1  0  0  0  0
 13  8  1  0  0  0  0
 14 10  1  0  0  0  0
 14 12  1  0  0  0  0
 15 11  1  0  0  0  0
 15 17  1  0  0  0  0
 16  9  2  0  0  0  0
 16  8  1  0  0  0  0
 17 18  1  0  0  0  0
 19 18  1  0  0  0  0
 21 22  1  6  0  0  0
 21 20  1  0  0  0  0
 21 24  1  0  0  0  0
 24 23  1  6  0  0  0
 25 24  1  6  0  0  0
 25 29  1  0  0  0  0
 25 26  1  0  0  0  0
 26 28  1  0  0  0  0
 26 32  1  1  0  0  0
 27 28  1  0  0  0  0
 28 30  1  6  0  0  0
 29 27  1  0  0  0  0
 32 31  1  0  0  0  0
M  END
>  <MODEL>
5

>  <REMARK>
 VINA RESULT:      -6.6      2.460      7.137
  Name = 
  10 active torsions:
  status: ('A' for Active; 'I' for Inactive)
    1  A    between atoms: C_1  and  C_15
    2  A    between atoms: C_3  and  C_20
    3  A    between atoms: C_6  and  C_9
    4  A    between atoms: C_8  and  C_9
    5  A    between atoms: C_12  and  C_14
    6  A    between atoms: N_13  and  C_23
    7  A    between atoms: C_15  and  C_27
    8  A    between atoms: C_22  and  N_26
    9  A    between atoms: C_22  and  C_28
   10  A    between atoms: C_23  and  C_27
                            x       y       z     vdW  Elec       q    Type
                         _______ _______ _______ _____ _____    ______ ____

>  <TORSDO>
F 10

$$$$
=
 OpenBabel11062420383D

 32 34  0  0  1  0  0  0  0  0999 V2000
  192.2780  176.9610  142.3910 N   0  0  0  0  0  2  0  0  0  0  0  0
  192.0370  175.7870  142.8720 C   0  0  0  0  0  0  0  0  0  0  0  0
  193.1280  174.9890  143.3410 N   0  0  0  0  0  2  0  0  0  0  0  0
  190.6440  175.2520  142.8100 C   0  0  0  0  0  2  0  0  0  0  0  0
  189.6790  176.3680  142.9970 C   0  0  0  0  0  3  0  0  0  0  0  0
  188.3960  176.1280  143.2320 C   0  0  0  0  0  3  0  0  0  0  0  0
  184.0680  177.6690  146.5140 O   0  0  0  0  0  1  0  0  0  0  0  0
  185.9410  178.6330  144.2550 C   0  0  0  0  0  0  0  0  0  0  0  0
  187.4110  177.2130  143.4090 C   0  0  0  0  0  0  0  0  0  0  0  0
  186.9280  177.0480  145.9680 C   0  0  0  0  0  2  0  0  0  0  0  0
  186.0660  178.8730  142.9000 C   0  0  0  0  0  3  0  0  0  0  0  0
  185.0460  178.6620  146.5890 C   0  0  2  0  0  3  0  0  0  0  0  0
  185.1470  179.4150  145.2520 C   0  0  0  0  0  2  0  0  0  0  0  0
  186.3970  178.0510  147.0060 C   0  0  0  0  0  2  0  0  0  0  0  0
  186.9620  177.9940  142.4020 N   0  0  0  0  0  0  0  0  0  0  0  0
  186.8020  177.6120  144.5870 C   0  0  0  0  0  0  0  0  0  0  0  0
  187.3610  177.9160  141.0030 C   0  0  0  0  0  2  0  0  0  0  0  0
  186.1390  177.7520  140.1170 C   0  0  0  0  0  2  0  0  0  0  0  0
  186.4480  176.9040  139.0550 O   0  0  0  0  0  1  0  0  0  0  0  0
  192.9940  173.6810  143.9720 C   0  0  0  0  0  2  0  0  0  0  0  0
  193.3220  173.7360  145.4580 C   0  0  1  0  0  3  0  0  0  0  0  0
  194.6030  173.2330  145.7010 O   0  0  0  0  0  1  0  0  0  0  0  0
  194.4170  175.5980  146.5130 O   0  0  0  0  0  1  0  0  0  0  0  0
  193.2050  175.1720  145.9600 C   0  0  2  0  0  3  0  0  0  0  0  0
  192.0660  175.2980  146.9730 C   0  0  2  0  0  3  0  0  0  0  0  0
  190.7640  175.4830  146.2440 C   0  0  2  0  0  3  0  0  0  0  0  0
  190.8890  177.0570  148.0210 O   0  0  0  0  0  0  0  0  0  0  0  0
  190.1540  176.7230  146.8750 C   0  0  1  0  0  3  0  0  0  0  0  0
  192.1810  176.5720  147.7860 C   0  0  0  0  0  2  0  0  0  0  0  0
  190.2030  177.7700  145.9770 F   0  0  0  0  0  0  0  0  0  0  0  0
  188.9390  174.5410  147.6380 C   0  0  0  0  0  1  0  0  0  0  0  0
  189.8690  174.2810  146.4720 C   0  0  0  0  0  2  0  0  0  0  0  0
  1  2  2  0  0  0  0
  2  3  1  0  0  0  0
  3 20  1  0  0  0  0
  4  2  1  0  0  0  0
  4  5  1  0  0  0  0
  5  6  2  0  0  0  0
  6  9  1  0  0  0  0
  8 16  1  0  0  0  0
  8 13  1  0  0  0  0
  9 16  2  0  0  0  0
 10 14  1  0  0  0  0
 11  8  2  0  0  0  0
 12  7  1  6  0  0  0
 12 14  1  0  0  0  0
 13 12  1  0  0  0  0
 15 11  1  0  0  0  0
 15  9  1  0  0  0  0
 16 10  1  0  0  0  0
 17 15  1  0  0  0  0
 18 17  1  0  0  0  0
 19 18  1  0  0  0  0
 20 21  1  0  0  0  0
 21 22  1  6  0  0  0
 21 24  1  0  0  0  0
 24 23  1  1  0  0  0
 25 24  1  6  0  0  0
 25 29  1  0  0  0  0
 26 32  1  1  0  0  0
 26 28  1  0  0  0  0
 26 25  1  0  0  0  0
 28 30  1  6  0  0  0
 28 27  1  0  0  0  0
 29 27  1  0  0  0  0
 32 31  1  0  0  0  0
M  END
>  <MODEL>
6

>  <REMARK>
 VINA RESULT:      -6.6      2.128      2.462
  Name = 
  10 active torsions:
  status: ('A' for Active; 'I' for Inactive)
    1  A    between atoms: C_1  and  C_15
    2  A    between atoms: C_3  and  C_20
    3  A    between atoms: C_6  and  C_9
    4  A    between atoms: C_8  and  C_9
    5  A    between atoms: C_12  and  C_14
    6  A    between atoms: N_13  and  C_23
    7  A    between atoms: C_15  and  C_27
    8  A    between atoms: C_22  and  N_26
    9  A    between atoms: C_22  and  C_28
   10  A    between atoms: C_23  and  C_27
                            x       y       z     vdW  Elec       q    Type
                         _______ _______ _______ _____ _____    ______ ____

>  <TORSDO>
F 10

$$$$
=
 OpenBabel11062420383D

 32 34  0  0  1  0  0  0  0  0999 V2000
  189.0290  174.1740  140.4700 N   0  0  0  0  0  2  0  0  0  0  0  0
  189.7570  173.9140  141.5030 C   0  0  0  0  0  0  0  0  0  0  0  0
  191.1570  173.6760  141.3270 N   0  0  0  0  0  2  0  0  0  0  0  0
  189.0950  173.7480  142.8320 C   0  0  0  0  0  2  0  0  0  0  0  0
  188.1320  174.8620  143.0450 C   0  0  0  0  0  3  0  0  0  0  0  0
  188.5510  176.0620  143.4200 C   0  0  0  0  0  3  0  0  0  0  0  0
  184.1860  177.5860  146.6610 O   0  0  0  0  0  1  0  0  0  0  0  0
  186.1990  178.6170  144.5580 C   0  0  0  0  0  0  0  0  0  0  0  0
  187.6210  177.1850  143.6510 C   0  0  0  0  0  0  0  0  0  0  0  0
  187.0260  176.8440  146.1690 C   0  0  0  0  0  2  0  0  0  0  0  0
  186.3920  178.9570  143.2330 C   0  0  0  0  0  3  0  0  0  0  0  0
  185.2140  178.5110  146.8530 C   0  0  2  0  0  3  0  0  0  0  0  0
  185.4110  179.3610  145.5870 C   0  0  0  0  0  2  0  0  0  0  0  0
  186.5110  177.7900  147.2660 C   0  0  0  0  0  2  0  0  0  0  0  0
  187.2570  178.0700  142.6960 N   0  0  0  0  0  0  0  0  0  0  0  0
  186.9880  177.5240  144.8350 C   0  0  0  0  0  0  0  0  0  0  0  0
  187.7080  178.0810  141.3110 C   0  0  0  0  0  2  0  0  0  0  0  0
  186.8330  177.1700  140.4670 C   0  0  0  0  0  2  0  0  0  0  0  0
  185.7310  177.8860  140.0040 O   0  0  0  0  0  1  0  0  0  0  0  0
  192.1060  173.4420  142.4090 C   0  0  0  0  0  2  0  0  0  0  0  0
  192.8970  174.6990  142.7450 C   0  0  1  0  0  3  0  0  0  0  0  0
  193.0460  175.5070  141.6150 O   0  0  0  0  0  1  0  0  0  0  0  0
  192.1360  176.8290  143.5600 O   0  0  0  0  0  1  0  0  0  0  0  0
  192.2000  175.4650  143.8640 C   0  0  2  0  0  3  0  0  0  0  0  0
  192.9090  175.2340  145.2000 C   0  0  2  0  0  3  0  0  0  0  0  0
  192.7620  176.4540  146.0650 C   0  0  2  0  0  3  0  0  0  0  0  0
  195.0250  175.7270  146.1270 O   0  0  0  0  0  0  0  0  0  0  0  0
  194.1830  176.7890  146.4850 C   0  0  1  0  0  3  0  0  0  0  0  0
  194.4110  175.1250  145.0220 C   0  0  0  0  0  2  0  0  0  0  0  0
  194.5960  177.9390  145.8410 F   0  0  0  0  0  0  0  0  0  0  0  0
  190.5690  176.8090  147.1720 C   0  0  0  0  0  1  0  0  0  0  0  0
  191.9170  176.1270  147.2800 C   0  0  0  0  0  2  0  0  0  0  0  0
  1  2  2  0  0  0  0
  2  4  1  0  0  0  0
  3  2  1  0  0  0  0
  3 20  1  0  0  0  0
  4  5  1  0  0  0  0
  5  6  2  0  0  0  0
  6  9  1  0  0  0  0
  8 16  1  0  0  0  0
  8 13  1  0  0  0  0
  9 16  2  0  0  0  0
 10 14  1  0  0  0  0
 11  8  2  0  0  0  0
 12  7  1  6  0  0  0
 12 14  1  0  0  0  0
 13 12  1  0  0  0  0
 15 11  1  0  0  0  0
 15  9  1  0  0  0  0
 16 10  1  0  0  0  0
 17 15  1  0  0  0  0
 18 17  1  0  0  0  0
 19 18  1  0  0  0  0
 20 21  1  0  0  0  0
 21 22  1  6  0  0  0
 21 24  1  0  0  0  0
 24 23  1  6  0  0  0
 25 24  1  6  0  0  0
 25 26  1  0  0  0  0
 26 28  1  0  0  0  0
 26 32  1  1  0  0  0
 27 28  1  0  0  0  0
 28 30  1  6  0  0  0
 29 25  1  0  0  0  0
 29 27  1  0  0  0  0
 31 32  1  0  0  0  0
M  END
>  <MODEL>
7

>  <REMARK>
 VINA RESULT:      -6.6      1.695      1.952
  Name = 
  10 active torsions:
  status: ('A' for Active; 'I' for Inactive)
    1  A    between atoms: C_1  and  C_15
    2  A    between atoms: C_3  and  C_20
    3  A    between atoms: C_6  and  C_9
    4  A    between atoms: C_8  and  C_9
    5  A    between atoms: C_12  and  C_14
    6  A    between atoms: N_13  and  C_23
    7  A    between atoms: C_15  and  C_27
    8  A    between atoms: C_22  and  N_26
    9  A    between atoms: C_22  and  C_28
   10  A    between atoms: C_23  and  C_27
                            x       y       z     vdW  Elec       q    Type
                         _______ _______ _______ _____ _____    ______ ____

>  <TORSDO>
F 10

$$$$
=
 OpenBabel11062420383D

 32 34  0  0  1  0  0  0  0  0999 V2000
  189.2370  174.0110  140.4260 N   0  0  0  0  0  2  0  0  0  0  0  0
  188.5860  174.5770  141.3870 C   0  0  0  0  0  0  0  0  0  0  0  0
  187.8590  175.7810  141.1210 N   0  0  0  0  0  2  0  0  0  0  0  0
  188.7130  174.0270  142.7700 C   0  0  0  0  0  2  0  0  0  0  0  0
  190.1440  174.0320  143.1730 C   0  0  0  0  0  3  0  0  0  0  0  0
  190.5290  173.5040  144.3260 C   0  0  0  0  0  3  0  0  0  0  0  0
  194.9210  176.9730  145.0790 O   0  0  0  0  0  1  0  0  0  0  0  0
  193.9230  174.0870  145.5490 C   0  0  0  0  0  0  0  0  0  0  0  0
  191.9400  173.5030  144.7610 C   0  0  0  0  0  0  0  0  0  0  0  0
  192.1940  175.9360  145.6710 C   0  0  0  0  0  2  0  0  0  0  0  0
  193.9810  172.7760  145.1210 C   0  0  0  0  0  3  0  0  0  0  0  0
  194.6330  176.3630  146.3020 C   0  0  2  0  0  3  0  0  0  0  0  0
  194.9880  174.8680  146.2510 C   0  0  0  0  0  2  0  0  0  0  0  0
  193.1560  176.5890  146.6770 C   0  0  0  0  0  2  0  0  0  0  0  0
  192.7650  172.4400  144.6390 N   0  0  0  0  0  0  0  0  0  0  0  0
  192.6390  174.5420  145.3540 C   0  0  0  0  0  0  0  0  0  0  0  0
  192.4220  171.1390  144.0800 C   0  0  0  0  0  2  0  0  0  0  0  0
  192.7060  171.1170  142.5880 C   0  0  0  0  0  2  0  0  0  0  0  0
  191.5090  170.9730  141.8910 O   0  0  0  0  0  1  0  0  0  0  0  0
  187.0260  176.4830  142.0910 C   0  0  0  0  0  2  0  0  0  0  0  0
  187.5870  177.8600  142.4220 C   0  0  1  0  0  3  0  0  0  0  0  0
  186.5910  178.8350  142.3270 O   0  0  0  0  0  1  0  0  0  0  0  0
  189.5250  177.4160  143.7730 O   0  0  0  0  0  1  0  0  0  0  0  0
  188.1950  177.8480  143.8200 C   0  0  2  0  0  3  0  0  0  0  0  0
  187.3660  176.9710  144.7620 C   0  0  2  0  0  3  0  0  0  0  0  0
  186.5510  177.8450  145.6750 C   0  0  2  0  0  3  0  0  0  0  0  0
  187.5830  176.1300  146.9580 O   0  0  0  0  0  0  0  0  0  0  0  0
  186.8750  177.3350  147.0680 C   0  0  1  0  0  3  0  0  0  0  0  0
  188.2470  176.2030  145.7270 C   0  0  0  0  0  2  0  0  0  0  0  0
  187.6510  178.2650  147.7310 F   0  0  0  0  0  0  0  0  0  0  0  0
  184.2490  178.1310  146.5580 C   0  0  0  0  0  1  0  0  0  0  0  0
  185.0760  177.6660  145.3770 C   0  0  0  0  0  2  0  0  0  0  0  0
  1  2  2  0  0  0  0
  2  4  1  0  0  0  0
  3  2  1  0  0  0  0
  3 20  1  0  0  0  0
  4  5  1  0  0  0  0
  5  6  2  0  0  0  0
  6  9  1  0  0  0  0
  8 13  1  0  0  0  0
  9 16  2  0  0  0  0
 10 14  1  0  0  0  0
 11  8  2  0  0  0  0
 12  7  1  6  0  0  0
 12 14  1  0  0  0  0
 13 12  1  0  0  0  0
 15  9  1  0  0  0  0
 15 11  1  0  0  0  0
 16  8  1  0  0  0  0
 16 10  1  0  0  0  0
 17 15  1  0  0  0  0
 18 17  1  0  0  0  0
 19 18  1  0  0  0  0
 20 21  1  0  0  0  0
 21 22  1  1  0  0  0
 21 24  1  0  0  0  0
 24 23  1  6  0  0  0
 25 24  1  6  0  0  0
 25 26  1  0  0  0  0
 25 29  1  0  0  0  0
 26 32  1  6  0  0  0
 26 28  1  0  0  0  0
 27 28  1  0  0  0  0
 28 30  1  6  0  0  0
 29 27  1  0  0  0  0
 32 31  1  0  0  0  0
M  END
>  <MODEL>
8

>  <REMARK>
 VINA RESULT:      -6.4      2.441      6.733
  Name = 
  10 active torsions:
  status: ('A' for Active; 'I' for Inactive)
    1  A    between atoms: C_1  and  C_15
    2  A    between atoms: C_3  and  C_20
    3  A    between atoms: C_6  and  C_9
    4  A    between atoms: C_8  and  C_9
    5  A    between atoms: C_12  and  C_14
    6  A    between atoms: N_13  and  C_23
    7  A    between atoms: C_15  and  C_27
    8  A    between atoms: C_22  and  N_26
    9  A    between atoms: C_22  and  C_28
   10  A    between atoms: C_23  and  C_27
                            x       y       z     vdW  Elec       q    Type
                         _______ _______ _______ _____ _____    ______ ____

>  <TORSDO>
F 10

$$$$
=
 OpenBabel11062420383D

 32 34  0  0  1  0  0  0  0  0999 V2000
  191.2830  177.5510  148.7700 N   0  0  0  0  0  2  0  0  0  0  0  0
  191.6240  176.6240  147.9390 C   0  0  0  0  0  0  0  0  0  0  0  0
  192.9310  176.6550  147.3570 N   0  0  0  0  0  2  0  0  0  0  0  0
  190.6030  175.6180  147.5180 C   0  0  0  0  0  2  0  0  0  0  0  0
  189.6360  176.2580  146.5860 C   0  0  0  0  0  3  0  0  0  0  0  0
  188.3920  175.8120  146.4830 C   0  0  0  0  0  3  0  0  0  0  0  0
  187.9610  177.9380  141.2700 O   0  0  0  0  0  1  0  0  0  0  0  0
  186.3300  177.1000  143.7550 C   0  0  0  0  0  0  0  0  0  0  0  0
  187.4110  176.4170  145.5600 C   0  0  0  0  0  0  0  0  0  0  0  0
  188.4180  175.7580  143.2440 C   0  0  0  0  0  2  0  0  0  0  0  0
  185.6510  177.5370  144.8750 C   0  0  0  0  0  3  0  0  0  0  0  0
  187.0700  176.8680  141.3780 C   0  0  2  0  0  3  0  0  0  0  0  0
  185.9140  177.2310  142.3250 C   0  0  0  0  0  2  0  0  0  0  0  0
  187.8120  175.6000  141.8400 C   0  0  0  0  0  2  0  0  0  0  0  0
  186.3280  177.1160  145.9650 N   0  0  0  0  0  0  0  0  0  0  0  0
  187.4190  176.3720  144.1760 C   0  0  0  0  0  0  0  0  0  0  0  0
  185.9390  177.3860  147.3430 C   0  0  0  0  0  2  0  0  0  0  0  0
  185.1060  178.6540  147.4140 C   0  0  0  0  0  2  0  0  0  0  0  0
  185.9430  179.7440  147.6470 O   0  0  0  0  0  1  0  0  0  0  0  0
  193.4710  175.6370  146.4630 C   0  0  0  0  0  2  0  0  0  0  0  0
  193.5970  176.1520  145.0350 C   0  0  1  0  0  3  0  0  0  0  0  0
  194.7960  176.8490  144.8650 O   0  0  0  0  0  1  0  0  0  0  0  0
  194.4000  175.1710  142.9930 O   0  0  0  0  0  1  0  0  0  0  0  0
  193.5090  174.9870  144.0560 C   0  0  2  0  0  3  0  0  0  0  0  0
  192.0760  174.8160  143.5470 C   0  0  2  0  0  3  0  0  0  0  0  0
  191.6690  173.3740  143.6660 C   0  0  2  0  0  3  0  0  0  0  0  0
  191.0380  174.1830  141.5220 O   0  0  0  0  0  0  0  0  0  0  0  0
  191.1640  173.0110  142.2810 C   0  0  1  0  0  3  0  0  0  0  0  0
  191.9800  175.0720  142.0560 C   0  0  0  0  0  2  0  0  0  0  0  0
  192.0640  172.1620  141.6680 F   0  0  0  0  0  0  0  0  0  0  0  0
  189.5960  172.1450  144.2600 C   0  0  0  0  0  1  0  0  0  0  0  0
  190.5570  173.2350  144.6870 C   0  0  0  0  0  2  0  0  0  0  0  0
  2  1  2  0  0  0  0
  3  2  1  0  0  0  0
  4  2  1  0  0  0  0
  5  4  1  0  0  0  0
  6  5  2  0  0  0  0
  8 16  1  0  0  0  0
  8 11  2  0  0  0  0
  9 15  1  0  0  0  0
  9  6  1  0  0  0  0
 10 16  1  0  0  0  0
 11 15  1  0  0  0  0
 12  7  1  1  0  0  0
 12 14  1  0  0  0  0
 12 13  1  0  0  0  0
 13  8  1  0  0  0  0
 14 10  1  0  0  0  0
 15 17  1  0  0  0  0
 16  9  2  0  0  0  0
 17 18  1  0  0  0  0
 18 19  1  0  0  0  0
 20  3  1  0  0  0  0
 21 22  1  1  0  0  0
 21 20  1  0  0  0  0
 24 23  1  6  0  0  0
 24 21  1  0  0  0  0
 25 26  1  0  0  0  0
 25 24  1  6  0  0  0
 26 32  1  1  0  0  0
 27 29  1  0  0  0  0
 27 28  1  0  0  0  0
 28 30  1  6  0  0  0
 28 26  1  0  0  0  0
 29 25  1  0  0  0  0
 31 32  1  0  0  0  0
M  END
>  <MODEL>
9

>  <REMARK>
 VINA RESULT:      -6.3      2.985      5.171
  Name = 
  10 active torsions:
  status: ('A' for Active; 'I' for Inactive)
    1  A    between atoms: C_1  and  C_15
    2  A    between atoms: C_3  and  C_20
    3  A    between atoms: C_6  and  C_9
    4  A    between atoms: C_8  and  C_9
    5  A    between atoms: C_12  and  C_14
    6  A    between atoms: N_13  and  C_23
    7  A    between atoms: C_15  and  C_27
    8  A    between atoms: C_22  and  N_26
    9  A    between atoms: C_22  and  C_28
   10  A    between atoms: C_23  and  C_27
                            x       y       z     vdW  Elec       q    Type
                         _______ _______ _______ _____ _____    ______ ____

>  <TORSDO>
F 10

$$$$
