=
 OpenBabel11062420093D

 35 39  0  0  1  0  0  0  0  0999 V2000
  191.4290  174.3570  141.7640 C   0  0  0  0  0  0  0  0  0  0  0  0
  192.7480  176.0630  142.5380 O   0  0  0  0  0  0  0  0  0  0  0  0
  194.5380  174.7200  141.9750 C   0  0  0  0  0  2  0  0  0  0  0  0
  191.6010  175.9890  146.3440 N   0  0  0  0  0  2  0  0  0  0  0  0
  186.0320  177.2310  147.0950 C   0  0  0  0  0  3  0  0  0  0  0  0
  189.2560  175.5190  146.7870 C   0  0  0  0  0  2  0  0  0  0  0  0
  188.1950  177.5070  143.8480 N   0  0  0  0  0  0  0  0  0  0  0  0
  190.4210  175.3350  145.7890 C   0  0  1  0  0  3  0  0  0  0  0  0
  192.7810  175.2860  145.8610 C   0  0  2  0  0  3  0  0  0  0  0  0
  196.1060  176.5430  141.2660 C   0  0  0  0  0  1  0  0  0  0  0  0
  190.4730  176.0570  143.2620 C   0  0  0  0  0  0  0  0  0  0  0  0
  188.8140  176.7770  144.8090 C   0  0  0  0  0  0  0  0  0  0  0  0
  195.7240  175.6030  142.3940 C   0  0  0  0  0  0  0  0  0  0  0  0
  195.4150  176.4260  143.6460 C   0  0  0  0  0  2  0  0  0  0  0  0
  194.5060  176.7120  146.7140 F   0  0  0  0  0  0  0  0  0  0  0  0
  188.7290  177.5360  142.5960 C   0  0  0  0  0  3  0  0  0  0  0  0
  187.2010  176.8880  146.6280 C   0  0  0  0  0  0  0  0  0  0  0  0
  193.2120  174.2310  146.8700 C   0  0  0  0  0  1  0  0  0  0  0  0
  194.9110  175.5770  144.7250 N   0  0  0  0  0  2  0  0  0  0  0  0
  196.9120  174.7030  142.6740 C   0  0  0  0  0  1  0  0  0  0  0  0
  189.8530  176.8140  142.3090 N   0  0  0  0  0  0  0  0  0  0  0  0
  190.5170  173.5540  141.6560 O   0  0  0  0  0  0  0  0  0  0  0  0
  192.5000  174.5450  140.8050 C   0  0  0  0  0  2  0  0  0  0  0  0
  189.9520  176.0650  144.5610 C   0  0  0  0  0  0  0  0  0  0  0  0
  193.3730  177.3720  144.8860 F   0  0  0  0  0  0  0  0  0  0  0  0
  188.3710  176.5480  146.1610 C   0  0  0  0  0  0  0  0  0  0  0  0
  193.9110  176.2710  145.5440 C   0  0  0  0  0  0  0  0  0  0  0  0
  191.6710  175.2280  142.9110 C   0  0  1  0  0  3  0  0  0  0  0  0
  193.3970  175.4890  141.4670 N   0  0  1  0  0  0  0  0  0  0  0  0
  185.6910  178.6680  147.3260 C   0  0  0  0  0  2  0  0  0  0  0  0
  184.4310  178.3780  144.0150 N   0  0  0  0  0  2  0  0  0  0  0  0
  185.3400  179.5120  143.9430 C   0  0  0  0  0  2  0  0  0  0  0  0
  184.1420  178.2420  145.4240 C   0  0  0  0  0  2  0  0  0  0  0  0
  185.9370  179.7190  145.1950 O   0  0  0  0  0  0  0  0  0  0  0  0
  184.9890  179.2760  146.1190 C   0  0  2  0  0  3  0  0  0  0  0  0
  2 28  1  0  0  0  0
  3 13  1  0  0  0  0
  5 30  1  0  0  0  0
  7 12  1  0  0  0  0
  8  4  1  0  0  0  0
  8  6  1  1  0  0  0
  9  4  1  0  0  0  0
  9 18  1  1  0  0  0
 10 13  1  0  0  0  0
 11 24  1  0  0  0  0
 12 26  1  0  0  0  0
 13 20  1  0  0  0  0
 13 14  1  0  0  0  0
 14 19  1  0  0  0  0
 16  7  2  0  0  0  0
 17  5  2  0  0  0  0
 19 27  1  0  0  0  0
 21 16  1  0  0  0  0
 21 11  2  0  0  0  0
 22  1  2  0  0  0  0
 23  1  1  0  0  0  0
 24 12  2  0  0  0  0
 24  8  1  0  0  0  0
 25 27  1  0  0  0  0
 26 17  2  0  0  0  0
 26  6  1  0  0  0  0
 27  9  1  0  0  0  0
 27 15  1  0  0  0  0
 28  1  1  6  0  0  0
 28 11  1  0  0  0  0
 29 23  1  1  0  0  0
 29  3  1  0  0  0  0
 29  2  1  0  0  0  0
 31 33  1  0  0  0  0
 32 31  1  0  0  0  0
 32 34  1  0  0  0  0
 33 35  1  0  0  0  0
 34 35  1  0  0  0  0
 35 30  1  1  0  0  0
M  END
>  <MODEL>
1

>  <REMARK>
 VINA RESULT:      -8.9      0.000      0.000
  Name = 
  2 active torsions:
  status: ('A' for Active; 'I' for Inactive)
    1  A    between atoms: C_6  and  C_26
    2  A    between atoms: C_26  and  C_35
                            x       y       z     vdW  Elec       q    Type
                         _______ _______ _______ _____ _____    ______ ____

>  <TORSDO>
F 2

$$$$
=
 OpenBabel11062420093D

 35 39  0  0  1  0  0  0  0  0999 V2000
  188.0650  176.1090  146.5750 C   0  0  0  0  0  0  0  0  0  0  0  0
  188.1920  177.4010  144.6870 O   0  0  0  0  0  0  0  0  0  0  0  0
  185.8940  177.5490  144.8300 C   0  0  0  0  0  2  0  0  0  0  0  0
  189.6420  174.6510  142.2100 N   0  0  0  0  0  2  0  0  0  0  0  0
  194.8580  172.7290  143.7020 C   0  0  0  0  0  3  0  0  0  0  0  0
  191.2570  173.0780  143.1220 C   0  0  0  0  0  2  0  0  0  0  0  0
  192.8250  175.7220  145.1870 N   0  0  0  0  0  0  0  0  0  0  0  0
  190.0800  174.0210  143.4510 C   0  0  1  0  0  3  0  0  0  0  0  0
  188.2200  174.9410  142.3220 C   0  0  2  0  0  3  0  0  0  0  0  0
  185.6620  179.8910  143.9640 C   0  0  0  0  0  1  0  0  0  0  0  0
  190.0770  176.0160  145.1640 C   0  0  0  0  0  0  0  0  0  0  0  0
  192.0520  174.9160  144.4170 C   0  0  0  0  0  0  0  0  0  0  0  0
  185.5690  178.4200  143.6050 C   0  0  0  0  0  0  0  0  0  0  0  0
  186.5060  178.1330  142.4300 C   0  0  0  0  0  2  0  0  0  0  0  0
  187.8730  176.1640  140.2920 F   0  0  0  0  0  0  0  0  0  0  0  0
  192.2280  176.6960  145.9280 C   0  0  0  0  0  3  0  0  0  0  0  0
  193.6640  173.2550  143.6690 C   0  0  0  0  0  0  0  0  0  0  0  0
  187.4050  173.8020  141.7260 C   0  0  0  0  0  1  0  0  0  0  0  0
  186.5550  176.7030  142.1320 N   0  0  0  0  0  2  0  0  0  0  0  0
  184.1410  178.1320  143.1810 C   0  0  0  0  0  1  0  0  0  0  0  0
  190.8690  176.8350  145.9160 N   0  0  0  0  0  0  0  0  0  0  0  0
  188.2740  175.2280  147.3940 O   0  0  0  0  0  0  0  0  0  0  0  0
  187.1920  177.2490  146.7720 C   0  0  0  0  0  2  0  0  0  0  0  0
  190.6940  175.0460  144.3640 C   0  0  0  0  0  0  0  0  0  0  0  0
  188.8670  177.2080  142.0180 F   0  0  0  0  0  0  0  0  0  0  0  0
  192.4720  173.7840  143.6320 C   0  0  0  0  0  0  0  0  0  0  0  0
  187.8850  176.2870  141.6720 C   0  0  0  0  0  0  0  0  0  0  0  0
  188.5850  176.1490  145.2110 C   0  0  1  0  0  3  0  0  0  0  0  0
  187.1680  177.8990  145.4640 N   0  0  1  0  0  0  0  0  0  0  0  0
  196.0300  173.4500  143.1200 C   0  0  0  0  0  2  0  0  0  0  0  0
  196.4670  176.7290  141.8190 N   0  0  0  0  0  2  0  0  0  0  0  0
  197.1570  176.7680  143.1000 C   0  0  0  0  0  2  0  0  0  0  0  0
  195.5870  175.5870  141.9230 C   0  0  0  0  0  2  0  0  0  0  0  0
  197.0860  175.5090  143.7140 O   0  0  0  0  0  0  0  0  0  0  0  0
  195.8840  174.9590  143.2600 C   0  0  2  0  0  3  0  0  0  0  0  0
  1 23  1  0  0  0  0
  1 22  2  0  0  0  0
  2 29  1  0  0  0  0
  4  9  1  0  0  0  0
  4  8  1  0  0  0  0
  6 26  1  0  0  0  0
  7 16  1  0  0  0  0
  8  6  1  6  0  0  0
  8 24  1  0  0  0  0
  9 18  1  6  0  0  0
 11 28  1  0  0  0  0
 11 21  1  0  0  0  0
 12  7  2  0  0  0  0
 13 10  1  0  0  0  0
 13  3  1  0  0  0  0
 14 13  1  0  0  0  0
 15 27  1  0  0  0  0
 17  5  2  0  0  0  0
 19 14  1  0  0  0  0
 20 13  1  0  0  0  0
 21 16  2  0  0  0  0
 24 12  1  0  0  0  0
 24 11  2  0  0  0  0
 26 17  2  0  0  0  0
 26 12  1  0  0  0  0
 27 25  1  0  0  0  0
 27 19  1  0  0  0  0
 27  9  1  0  0  0  0
 28  2  1  1  0  0  0
 28  1  1  0  0  0  0
 29  3  1  6  0  0  0
 29 23  1  0  0  0  0
 30  5  1  0  0  0  0
 31 33  1  0  0  0  0
 31 32  1  0  0  0  0
 32 34  1  0  0  0  0
 33 35  1  0  0  0  0
 35 30  1  6  0  0  0
 35 34  1  0  0  0  0
M  END
>  <MODEL>
2

>  <REMARK>
 VINA RESULT:      -8.9      2.694      8.304
  Name = 
  2 active torsions:
  status: ('A' for Active; 'I' for Inactive)
    1  A    between atoms: C_6  and  C_26
    2  A    between atoms: C_26  and  C_35
                            x       y       z     vdW  Elec       q    Type
                         _______ _______ _______ _____ _____    ______ ____

>  <TORSDO>
F 2

$$$$
=
 OpenBabel11062420093D

 35 39  0  0  1  0  0  0  0  0999 V2000
  190.9210  172.9500  143.5150 C   0  0  0  0  0  0  0  0  0  0  0  0
  192.2590  174.7890  143.7940 O   0  0  0  0  0  0  0  0  0  0  0  0
  193.9370  173.2910  144.3070 C   0  0  0  0  0  2  0  0  0  0  0  0
  190.3430  176.4290  146.8670 N   0  0  0  0  0  2  0  0  0  0  0  0
  184.9500  178.0160  145.6360 C   0  0  0  0  0  3  0  0  0  0  0  0
  187.9170  176.2620  146.8780 C   0  0  0  0  0  2  0  0  0  0  0  0
  187.7600  176.7770  143.2140 N   0  0  0  0  0  0  0  0  0  0  0  0
  189.2300  175.6270  146.3700 C   0  0  1  0  0  3  0  0  0  0  0  0
  191.4970  175.5550  147.0310 C   0  0  2  0  0  3  0  0  0  0  0  0
  195.8410  174.5740  143.3030 C   0  0  0  0  0  1  0  0  0  0  0  0
  189.9020  175.1600  143.8720 C   0  0  0  0  0  0  0  0  0  0  0  0
  188.0640  176.5300  144.5130 C   0  0  0  0  0  0  0  0  0  0  0  0
  195.1140  174.2370  144.5900 C   0  0  0  0  0  0  0  0  0  0  0  0
  194.6600  175.5360  145.2610 C   0  0  0  0  0  2  0  0  0  0  0  0
  193.1750  177.1670  147.5960 F   0  0  0  0  0  0  0  0  0  0  0  0
  188.5430  176.2380  142.2400 C   0  0  0  0  0  3  0  0  0  0  0  0
  186.1360  177.4720  145.6590 C   0  0  0  0  0  0  0  0  0  0  0  0
  191.5660  175.0430  148.4620 C   0  0  0  0  0  1  0  0  0  0  0  0
  193.8360  175.2610  146.4370 N   0  0  0  0  0  2  0  0  0  0  0  0
  196.0900  173.5230  145.5050 C   0  0  0  0  0  1  0  0  0  0  0  0
  189.5990  175.4360  142.5690 N   0  0  0  0  0  0  0  0  0  0  0  0
  189.9550  172.2050  143.5370 O   0  0  0  0  0  0  0  0  0  0  0  0
  192.1840  172.6690  142.8610 C   0  0  0  0  0  2  0  0  0  0  0  0
  189.1270  175.7530  144.8750 C   0  0  0  0  0  0  0  0  0  0  0  0
  192.5440  176.9830  145.4440 F   0  0  0  0  0  0  0  0  0  0  0  0
  187.3240  176.9320  145.6810 C   0  0  0  0  0  0  0  0  0  0  0  0
  192.7850  176.2710  146.6150 C   0  0  0  0  0  0  0  0  0  0  0  0
  191.0290  174.2310  144.2080 C   0  0  1  0  0  3  0  0  0  0  0  0
  193.0380  173.7850  143.2600 N   0  0  1  0  0  0  0  0  0  0  0  0
  184.7570  179.4150  145.1480 C   0  0  0  0  0  2  0  0  0  0  0  0
  184.5150  177.7550  142.0150 N   0  0  0  0  0  2  0  0  0  0  0  0
  185.6370  178.6650  141.8390 C   0  0  0  0  0  2  0  0  0  0  0  0
  183.7940  178.2910  143.1460 C   0  0  0  0  0  2  0  0  0  0  0  0
  185.8630  179.3700  143.0300 O   0  0  0  0  0  0  0  0  0  0  0  0
  184.6060  179.4630  143.6330 C   0  0  2  0  0  3  0  0  0  0  0  0
  1 22  2  0  0  0  0
  2 28  1  0  0  0  0
  3 13  1  0  0  0  0
  4  9  1  0  0  0  0
  5 17  2  0  0  0  0
  7 12  1  0  0  0  0
  8  4  1  0  0  0  0
  8  6  1  1  0  0  0
  9 18  1  1  0  0  0
 10 13  1  0  0  0  0
 11 28  1  0  0  0  0
 11 24  1  0  0  0  0
 12 24  2  0  0  0  0
 12 26  1  0  0  0  0
 13 14  1  0  0  0  0
 13 20  1  0  0  0  0
 14 19  1  0  0  0  0
 16 21  1  0  0  0  0
 16  7  2  0  0  0  0
 17 26  2  0  0  0  0
 19 27  1  0  0  0  0
 21 11  2  0  0  0  0
 23  1  1  0  0  0  0
 24  8  1  0  0  0  0
 25 27  1  0  0  0  0
 26  6  1  0  0  0  0
 27  9  1  0  0  0  0
 27 15  1  0  0  0  0
 28  1  1  6  0  0  0
 29 23  1  1  0  0  0
 29  2  1  0  0  0  0
 29  3  1  0  0  0  0
 30  5  1  0  0  0  0
 31 33  1  0  0  0  0
 32 31  1  0  0  0  0
 32 34  1  0  0  0  0
 33 35  1  0  0  0  0
 34 35  1  0  0  0  0
 35 30  1  1  0  0  0
M  END
>  <MODEL>
3

>  <REMARK>
 VINA RESULT:      -8.8      1.759      2.018
  Name = 
  2 active torsions:
  status: ('A' for Active; 'I' for Inactive)
    1  A    between atoms: C_6  and  C_26
    2  A    between atoms: C_26  and  C_35
                            x       y       z     vdW  Elec       q    Type
                         _______ _______ _______ _____ _____    ______ ____

>  <TORSDO>
F 2

$$$$
=
 OpenBabel11062420093D

 35 39  0  0  1  0  0  0  0  0999 V2000
  187.7370  176.1000  146.8210 C   0  0  0  0  0  0  0  0  0  0  0  0
  188.2180  177.2130  144.8770 O   0  0  0  0  0  0  0  0  0  0  0  0
  185.9350  177.4360  144.6300 C   0  0  0  0  0  2  0  0  0  0  0  0
  189.9320  174.2140  142.9100 N   0  0  0  0  0  2  0  0  0  0  0  0
  194.7570  172.2930  145.3900 C   0  0  0  0  0  3  0  0  0  0  0  0
  191.3130  172.6850  144.2020 C   0  0  0  0  0  2  0  0  0  0  0  0
  192.6380  175.4620  146.2650 N   0  0  0  0  0  0  0  0  0  0  0  0
  190.1380  173.6860  144.2540 C   0  0  1  0  0  3  0  0  0  0  0  0
  188.5230  174.5510  142.7630 C   0  0  2  0  0  3  0  0  0  0  0  0
  185.9410  179.6960  143.5440 C   0  0  0  0  0  1  0  0  0  0  0  0
  189.9440  175.8260  145.7700 C   0  0  0  0  0  0  0  0  0  0  0  0
  191.9650  174.6110  145.4500 C   0  0  0  0  0  0  0  0  0  0  0  0
  185.8460  178.2010  143.3000 C   0  0  0  0  0  0  0  0  0  0  0  0
  186.9470  177.7850  142.3220 C   0  0  0  0  0  2  0  0  0  0  0  0
  188.5560  175.5960  140.6090 F   0  0  0  0  0  0  0  0  0  0  0  0
  191.9700  176.5140  146.8150 C   0  0  0  0  0  3  0  0  0  0  0  0
  193.6070  172.8460  145.1180 C   0  0  0  0  0  0  0  0  0  0  0  0
  187.7670  173.3860  142.1410 C   0  0  0  0  0  1  0  0  0  0  0  0
  186.9840  176.3330  142.1570 N   0  0  0  0  0  2  0  0  0  0  0  0
  184.4940  177.9160  142.6740 C   0  0  0  0  0  1  0  0  0  0  0  0
  190.6370  176.6880  146.5700 N   0  0  0  0  0  0  0  0  0  0  0  0
  187.7760  175.2910  147.7340 O   0  0  0  0  0  0  0  0  0  0  0  0
  186.8920  177.2760  146.7760 C   0  0  0  0  0  2  0  0  0  0  0  0
  190.6400  174.7720  145.1660 C   0  0  0  0  0  0  0  0  0  0  0  0
  189.3040  176.7630  142.3800 F   0  0  0  0  0  0  0  0  0  0  0  0
  192.4590  173.4020  144.8420 C   0  0  0  0  0  0  0  0  0  0  0  0
  188.3520  175.8410  141.9570 C   0  0  0  0  0  0  0  0  0  0  0  0
  188.4700  176.0030  145.5620 C   0  0  1  0  0  3  0  0  0  0  0  0
  187.1050  177.8070  145.4320 N   0  0  1  0  0  0  0  0  0  0  0  0
  196.0360  172.9270  144.9480 C   0  0  0  0  0  2  0  0  0  0  0  0
  197.6920  169.8930  144.1190 N   0  0  0  0  0  2  0  0  0  0  0  0
  197.5670  169.8350  145.5680 C   0  0  0  0  0  2  0  0  0  0  0  0
  197.5240  171.2920  143.8010 C   0  0  0  0  0  2  0  0  0  0  0  0
  196.8930  170.9760  146.0290 O   0  0  0  0  0  0  0  0  0  0  0  0
  197.2150  171.9760  145.1080 C   0  0  2  0  0  3  0  0  0  0  0  0
  1 22  2  0  0  0  0
  2 29  1  0  0  0  0
  4  8  1  0  0  0  0
  6 26  1  0  0  0  0
  7 16  1  0  0  0  0
  8  6  1  6  0  0  0
  8 24  1  0  0  0  0
  9 18  1  6  0  0  0
  9  4  1  0  0  0  0
 11 21  1  0  0  0  0
 12  7  2  0  0  0  0
 13 10  1  0  0  0  0
 13  3  1  0  0  0  0
 14 13  1  0  0  0  0
 15 27  1  0  0  0  0
 17  5  2  0  0  0  0
 19 14  1  0  0  0  0
 20 13  1  0  0  0  0
 21 16  2  0  0  0  0
 23  1  1  0  0  0  0
 24 12  1  0  0  0  0
 24 11  2  0  0  0  0
 26 17  2  0  0  0  0
 26 12  1  0  0  0  0
 27 19  1  0  0  0  0
 27 25  1  0  0  0  0
 27  9  1  0  0  0  0
 28  2  1  6  0  0  0
 28 11  1  0  0  0  0
 28  1  1  0  0  0  0
 29  3  1  6  0  0  0
 29 23  1  0  0  0  0
 30  5  1  0  0  0  0
 31 32  1  0  0  0  0
 32 34  1  0  0  0  0
 33 31  1  0  0  0  0
 33 35  1  0  0  0  0
 35 30  1  6  0  0  0
 35 34  1  0  0  0  0
M  END
>  <MODEL>
4

>  <REMARK>
 VINA RESULT:      -8.4      3.257      8.815
  Name = 
  2 active torsions:
  status: ('A' for Active; 'I' for Inactive)
    1  A    between atoms: C_6  and  C_26
    2  A    between atoms: C_26  and  C_35
                            x       y       z     vdW  Elec       q    Type
                         _______ _______ _______ _____ _____    ______ ____

>  <TORSDO>
F 2

$$$$
=
 OpenBabel11062420093D

 35 39  0  0  1  0  0  0  0  0999 V2000
  187.9800  177.9150  142.3510 C   0  0  0  0  0  0  0  0  0  0  0  0
  187.4070  176.4360  144.0040 O   0  0  0  0  0  0  0  0  0  0  0  0
  186.7780  178.2910  145.2240 C   0  0  0  0  0  2  0  0  0  0  0  0
  191.0280  174.9710  144.7400 N   0  0  0  0  0  2  0  0  0  0  0  0
  193.3460  172.2030  140.2580 C   0  0  0  0  0  3  0  0  0  0  0  0
  192.5100  174.6690  142.8350 C   0  0  0  0  0  2  0  0  0  0  0  0
  189.7020  173.5550  140.6940 N   0  0  0  0  0  0  0  0  0  0  0  0
  191.3020  175.4540  143.3910 C   0  0  1  0  0  3  0  0  0  0  0  0
  190.4480  176.0640  145.5070 C   0  0  2  0  0  3  0  0  0  0  0  0
  184.8370  177.2530  146.4220 C   0  0  0  0  0  1  0  0  0  0  0  0
  188.9050  175.6370  142.3260 C   0  0  0  0  0  0  0  0  0  0  0  0
  190.5460  174.0600  141.6280 C   0  0  0  0  0  0  0  0  0  0  0  0
  186.2980  177.6450  146.5330 C   0  0  0  0  0  0  0  0  0  0  0  0
  187.1190  176.4080  146.9010 C   0  0  0  0  0  2  0  0  0  0  0  0
  189.8930  174.9150  147.5340 F   0  0  0  0  0  0  0  0  0  0  0  0
  188.4470  174.0720  140.5900 C   0  0  0  0  0  3  0  0  0  0  0  0
  192.6380  172.9600  141.0490 C   0  0  0  0  0  0  0  0  0  0  0  0
  191.5370  176.8020  146.2730 C   0  0  0  0  0  1  0  0  0  0  0  0
  188.5510  176.7030  146.8880 N   0  0  0  0  0  2  0  0  0  0  0  0
  186.4230  178.6700  147.6440 C   0  0  0  0  0  1  0  0  0  0  0  0
  188.0580  175.1040  141.3970 N   0  0  0  0  0  0  0  0  0  0  0  0
  188.5760  178.4550  141.4330 O   0  0  0  0  0  0  0  0  0  0  0  0
  186.6900  178.3250  142.8700 C   0  0  0  0  0  2  0  0  0  0  0  0
  190.1790  175.0740  142.4660 C   0  0  0  0  0  0  0  0  0  0  0  0
  188.5660  174.6300  145.7390 F   0  0  0  0  0  0  0  0  0  0  0  0
  191.9280  173.7150  141.8430 C   0  0  0  0  0  0  0  0  0  0  0  0
  189.3420  175.5520  146.4340 C   0  0  0  0  0  0  0  0  0  0  0  0
  188.4780  176.8060  143.1600 C   0  0  1  0  0  3  0  0  0  0  0  0
  186.4990  177.4720  144.0400 N   0  0  1  0  0  0  0  0  0  0  0  0
  193.0900  170.7330  140.1720 C   0  0  0  0  0  2  0  0  0  0  0  0
  190.4410  168.5450  139.2600 N   0  0  0  0  0  2  0  0  0  0  0  0
  190.1530  169.7660  138.5220 C   0  0  0  0  0  2  0  0  0  0  0  0
  191.3410  168.9670  140.3090 C   0  0  0  0  0  2  0  0  0  0  0  0
  191.1540  170.7160  138.7730 O   0  0  0  0  0  0  0  0  0  0  0  0
  191.6010  170.4300  140.0650 C   0  0  2  0  0  3  0  0  0  0  0  0
  1 23  1  0  0  0  0
  1 28  1  0  0  0  0
  2 29  1  0  0  0  0
  3 13  1  0  0  0  0
  4  9  1  0  0  0  0
  5 17  2  0  0  0  0
  7 12  1  0  0  0  0
  8  6  1  6  0  0  0
  8  4  1  0  0  0  0
  9 18  1  1  0  0  0
  9 27  1  0  0  0  0
 10 13  1  0  0  0  0
 11 24  1  0  0  0  0
 12 26  1  0  0  0  0
 12 24  2  0  0  0  0
 13 14  1  0  0  0  0
 13 20  1  0  0  0  0
 16  7  2  0  0  0  0
 16 21  1  0  0  0  0
 17 26  2  0  0  0  0
 19 14  1  0  0  0  0
 21 11  2  0  0  0  0
 22  1  2  0  0  0  0
 24  8  1  0  0  0  0
 25 27  1  0  0  0  0
 26  6  1  0  0  0  0
 27 19  1  0  0  0  0
 27 15  1  0  0  0  0
 28 11  1  6  0  0  0
 28  2  1  0  0  0  0
 29 23  1  6  0  0  0
 29  3  1  0  0  0  0
 30  5  1  0  0  0  0
 31 33  1  0  0  0  0
 32 34  1  0  0  0  0
 32 31  1  0  0  0  0
 34 35  1  0  0  0  0
 35 30  1  6  0  0  0
 35 33  1  0  0  0  0
M  END
>  <MODEL>
5

>  <REMARK>
 VINA RESULT:      -8.2      3.175      7.979
  Name = 
  2 active torsions:
  status: ('A' for Active; 'I' for Inactive)
    1  A    between atoms: C_6  and  C_26
    2  A    between atoms: C_26  and  C_35
                            x       y       z     vdW  Elec       q    Type
                         _______ _______ _______ _____ _____    ______ ____

>  <TORSDO>
F 2

$$$$
=
 OpenBabel11062420093D

 35 39  0  0  1  0  0  0  0  0999 V2000
  195.0010  176.0890  142.4770 C   0  0  0  0  0  0  0  0  0  0  0  0
  194.5200  174.8340  144.3330 O   0  0  0  0  0  0  0  0  0  0  0  0
  196.5470  173.7980  143.9600 C   0  0  0  0  0  2  0  0  0  0  0  0
  191.2930  172.9730  142.9440 N   0  0  0  0  0  2  0  0  0  0  0  0
  186.9360  176.5270  141.7160 C   0  0  0  0  0  3  0  0  0  0  0  0
  189.8030  174.2560  141.5120 C   0  0  0  0  0  2  0  0  0  0  0  0
  190.3000  177.3070  143.5510 N   0  0  0  0  0  0  0  0  0  0  0  0
  191.2510  174.1100  142.0300 C   0  0  1  0  0  3  0  0  0  0  0  0
  192.6260  172.3910  142.8870 C   0  0  2  0  0  3  0  0  0  0  0  0
  197.1680  173.4190  146.3590 C   0  0  0  0  0  1  0  0  0  0  0  0
  192.6800  175.9300  143.2770 C   0  0  0  0  0  0  0  0  0  0  0  0
  190.3340  176.1080  142.9180 C   0  0  0  0  0  0  0  0  0  0  0  0
  196.5850  172.7810  145.1120 C   0  0  0  0  0  0  0  0  0  0  0  0
  195.1970  172.2270  145.4370 C   0  0  0  0  0  2  0  0  0  0  0  0
  192.4550  170.7600  144.6320 F   0  0  0  0  0  0  0  0  0  0  0  0
  191.4540  177.8100  144.0730 C   0  0  0  0  0  3  0  0  0  0  0  0
  188.0960  175.9880  141.9720 C   0  0  0  0  0  0  0  0  0  0  0  0
  192.6560  171.2500  141.8800 C   0  0  0  0  0  1  0  0  0  0  0  0
  194.5360  171.7220  144.2350 N   0  0  0  0  0  2  0  0  0  0  0  0
  197.4920  171.6350  144.7060 C   0  0  0  0  0  1  0  0  0  0  0  0
  192.6290  177.1270  143.9320 N   0  0  0  0  0  0  0  0  0  0  0  0
  194.8800  176.7060  141.4310 O   0  0  0  0  0  0  0  0  0  0  0  0
  196.2050  176.0280  143.2820 C   0  0  0  0  0  2  0  0  0  0  0  0
  191.4870  175.3900  142.7830 C   0  0  0  0  0  0  0  0  0  0  0  0
  192.7330  172.9190  145.2020 F   0  0  0  0  0  0  0  0  0  0  0  0
  189.2550  175.4460  142.2310 C   0  0  0  0  0  0  0  0  0  0  0  0
  193.0850  171.9410  144.2770 C   0  0  0  0  0  0  0  0  0  0  0  0
  193.9890  175.2270  143.0830 C   0  0  1  0  0  3  0  0  0  0  0  0
  195.8800  175.0530  144.3200 N   0  0  1  0  0  0  0  0  0  0  0  0
  185.9540  176.7870  142.8120 C   0  0  0  0  0  2  0  0  0  0  0  0
  185.2740  179.1100  145.4150 N   0  0  0  0  0  2  0  0  0  0  0  0
  185.5600  179.9530  144.2630 C   0  0  0  0  0  2  0  0  0  0  0  0
  185.8470  177.8300  145.0700 C   0  0  0  0  0  2  0  0  0  0  0  0
  185.8180  179.1500  143.1430 O   0  0  0  0  0  0  0  0  0  0  0  0
  186.3710  177.9780  143.6660 C   0  0  2  0  0  3  0  0  0  0  0  0
  1 23  1  0  0  0  0
  3 29  1  0  0  0  0
  3 13  1  0  0  0  0
  5 17  2  0  0  0  0
  5 30  1  0  0  0  0
  6 26  1  0  0  0  0
  7 16  1  0  0  0  0
  8  6  1  1  0  0  0
  8 24  1  0  0  0  0
  8  4  1  0  0  0  0
  9 18  1  6  0  0  0
  9  4  1  0  0  0  0
  9 27  1  0  0  0  0
 11 21  1  0  0  0  0
 12  7  2  0  0  0  0
 13 14  1  0  0  0  0
 13 10  1  0  0  0  0
 17 26  2  0  0  0  0
 19 27  1  0  0  0  0
 19 14  1  0  0  0  0
 20 13  1  0  0  0  0
 21 16  2  0  0  0  0
 22  1  2  0  0  0  0
 24 12  1  0  0  0  0
 24 11  2  0  0  0  0
 26 12  1  0  0  0  0
 27 15  1  0  0  0  0
 27 25  1  0  0  0  0
 28  1  1  1  0  0  0
 28 11  1  0  0  0  0
 28  2  1  0  0  0  0
 29 23  1  6  0  0  0
 29  2  1  0  0  0  0
 32 31  1  0  0  0  0
 33 31  1  0  0  0  0
 34 35  1  0  0  0  0
 34 32  1  0  0  0  0
 35 30  1  6  0  0  0
 35 33  1  0  0  0  0
M  END
>  <MODEL>
6

>  <REMARK>
 VINA RESULT:      -8.2      2.651      4.029
  Name = 
  2 active torsions:
  status: ('A' for Active; 'I' for Inactive)
    1  A    between atoms: C_6  and  C_26
    2  A    between atoms: C_26  and  C_35
                            x       y       z     vdW  Elec       q    Type
                         _______ _______ _______ _____ _____    ______ ____

>  <TORSDO>
F 2

$$$$
=
 OpenBabel11062420093D

 35 39  0  0  1  0  0  0  0  0999 V2000
  193.1460  174.5540  145.0410 C   0  0  0  0  0  0  0  0  0  0  0  0
  191.9000  172.6750  144.6350 O   0  0  0  0  0  0  0  0  0  0  0  0
  193.8540  171.7490  143.8300 C   0  0  0  0  0  2  0  0  0  0  0  0
  189.4180  174.2070  141.9350 N   0  0  0  0  0  2  0  0  0  0  0  0
  186.0980  178.4330  143.9960 C   0  0  0  0  0  3  0  0  0  0  0  0
  188.6930  176.5040  142.2720 C   0  0  0  0  0  2  0  0  0  0  0  0
  188.4760  176.0080  145.9360 N   0  0  0  0  0  0  0  0  0  0  0  0
  189.8010  175.4690  142.5600 C   0  0  1  0  0  3  0  0  0  0  0  0
  190.6320  173.4900  141.5730 C   0  0  2  0  0  3  0  0  0  0  0  0
  193.4400  169.3960  144.5900 C   0  0  0  0  0  1  0  0  0  0  0  0
  190.6950  174.7160  144.9160 C   0  0  0  0  0  0  0  0  0  0  0  0
  188.7030  175.9790  144.5990 C   0  0  0  0  0  0  0  0  0  0  0  0
  193.3770  170.3490  143.4110 C   0  0  0  0  0  0  0  0  0  0  0  0
  191.9500  170.3680  142.8610 C   0  0  0  0  0  2  0  0  0  0  0  0
  189.6950  171.4160  140.8270 F   0  0  0  0  0  0  0  0  0  0  0  0
  189.3450  175.3680  146.7660 C   0  0  0  0  0  3  0  0  0  0  0  0
  187.0300  177.5460  143.7810 C   0  0  0  0  0  0  0  0  0  0  0  0
  191.0090  173.7910  140.1300 C   0  0  0  0  0  1  0  0  0  0  0  0
  191.8040  171.3720  141.8080 N   0  0  0  0  0  2  0  0  0  0  0  0
  194.3140  169.8270  142.3390 C   0  0  0  0  0  1  0  0  0  0  0  0
  190.4430  174.7340  146.2580 N   0  0  0  0  0  0  0  0  0  0  0  0
  193.4860  175.7230  145.1350 O   0  0  0  0  0  0  0  0  0  0  0  0
  193.9210  173.4160  145.4930 C   0  0  0  0  0  2  0  0  0  0  0  0
  189.7770  175.3330  144.0580 C   0  0  0  0  0  0  0  0  0  0  0  0
  189.8250  171.8010  143.0400 F   0  0  0  0  0  0  0  0  0  0  0  0
  187.9600  176.6550  143.5660 C   0  0  0  0  0  0  0  0  0  0  0  0
  190.4710  171.9870  141.8220 C   0  0  0  0  0  0  0  0  0  0  0  0
  191.9360  174.0650  144.3860 C   0  0  1  0  0  3  0  0  0  0  0  0
  193.1600  172.2650  145.0140 N   0  0  1  0  0  0  0  0  0  0  0  0
  184.7720  178.0310  144.5560 C   0  0  0  0  0  2  0  0  0  0  0  0
  186.4910  178.5080  147.6310 N   0  0  0  0  0  2  0  0  0  0  0  0
  185.9390  177.1660  147.7460 C   0  0  0  0  0  2  0  0  0  0  0  0
  185.7080  179.1270  146.5860 C   0  0  0  0  0  2  0  0  0  0  0  0
  185.2520  176.8360  146.5690 O   0  0  0  0  0  0  0  0  0  0  0  0
  184.7780  178.0560  146.0790 C   0  0  2  0  0  3  0  0  0  0  0  0
  1 22  2  0  0  0  0
  1 23  1  0  0  0  0
  2 29  1  0  0  0  0
  4  8  1  0  0  0  0
  5 30  1  0  0  0  0
  6 26  1  0  0  0  0
  7 16  1  0  0  0  0
  8  6  1  1  0  0  0
  8 24  1  0  0  0  0
  9 18  1  6  0  0  0
  9 27  1  0  0  0  0
  9  4  1  0  0  0  0
 11 21  1  0  0  0  0
 12  7  2  0  0  0  0
 13  3  1  0  0  0  0
 13 10  1  0  0  0  0
 14 13  1  0  0  0  0
 15 27  1  0  0  0  0
 17  5  2  0  0  0  0
 19 27  1  0  0  0  0
 19 14  1  0  0  0  0
 20 13  1  0  0  0  0
 21 16  2  0  0  0  0
 24 12  1  0  0  0  0
 24 11  2  0  0  0  0
 26 17  2  0  0  0  0
 26 12  1  0  0  0  0
 27 25  1  0  0  0  0
 28  2  1  1  0  0  0
 28 11  1  0  0  0  0
 28  1  1  0  0  0  0
 29  3  1  6  0  0  0
 29 23  1  0  0  0  0
 31 32  1  0  0  0  0
 33 31  1  0  0  0  0
 34 32  1  0  0  0  0
 35 30  1  6  0  0  0
 35 34  1  0  0  0  0
 35 33  1  0  0  0  0
M  END
>  <MODEL>
7

>  <REMARK>
 VINA RESULT:      -8.1      3.168      4.777
  Name = 
  2 active torsions:
  status: ('A' for Active; 'I' for Inactive)
    1  A    between atoms: C_6  and  C_26
    2  A    between atoms: C_26  and  C_35
                            x       y       z     vdW  Elec       q    Type
                         _______ _______ _______ _____ _____    ______ ____

>  <TORSDO>
F 2

$$$$
=
 OpenBabel11062420093D

 35 39  0  0  1  0  0  0  0  0999 V2000
  195.7630  175.3120  144.0580 C   0  0  0  0  0  0  0  0  0  0  0  0
  195.1300  173.3190  144.9940 O   0  0  0  0  0  0  0  0  0  0  0  0
  196.8240  172.3770  143.7430 C   0  0  0  0  0  2  0  0  0  0  0  0
  191.4660  173.1080  143.4660 N   0  0  0  0  0  2  0  0  0  0  0  0
  187.9980  177.3580  145.2070 C   0  0  0  0  0  3  0  0  0  0  0  0
  190.2260  175.1910  143.2680 C   0  0  0  0  0  2  0  0  0  0  0  0
  191.5710  176.4210  146.4920 N   0  0  0  0  0  0  0  0  0  0  0  0
  191.6300  174.5530  143.3380 C   0  0  1  0  0  3  0  0  0  0  0  0
  192.6160  172.4620  142.8510 C   0  0  2  0  0  3  0  0  0  0  0  0
  197.5030  170.6110  145.3870 C   0  0  0  0  0  1  0  0  0  0  0  0
  193.5330  175.0910  145.0700 C   0  0  0  0  0  0  0  0  0  0  0  0
  191.2760  175.8060  145.3190 C   0  0  0  0  0  0  0  0  0  0  0  0
  196.7010  170.8950  144.1320 C   0  0  0  0  0  0  0  0  0  0  0  0
  195.2470  170.4800  144.3650 C   0  0  0  0  0  2  0  0  0  0  0  0
  192.1870  170.1800  143.4350 F   0  0  0  0  0  0  0  0  0  0  0  0
  192.8440  176.3500  146.9710 C   0  0  0  0  0  3  0  0  0  0  0  0
  189.0120  176.5960  144.9050 C   0  0  0  0  0  0  0  0  0  0  0  0
  192.3060  172.1070  141.4040 C   0  0  0  0  0  1  0  0  0  0  0  0
  194.4030  170.8570  143.2320 N   0  0  0  0  0  2  0  0  0  0  0  0
  197.2810  170.0580  143.0080 C   0  0  0  0  0  1  0  0  0  0  0  0
  193.8110  175.6950  146.2630 N   0  0  0  0  0  0  0  0  0  0  0  0
  195.7190  176.4230  143.5560 O   0  0  0  0  0  0  0  0  0  0  0  0
  196.9720  174.6180  144.4560 C   0  0  0  0  0  2  0  0  0  0  0  0
  192.2140  175.1220  144.6010 C   0  0  0  0  0  0  0  0  0  0  0  0
  193.0060  171.5570  145.0140 F   0  0  0  0  0  0  0  0  0  0  0  0
  190.0260  175.8300  144.6040 C   0  0  0  0  0  0  0  0  0  0  0  0
  193.0520  171.2370  143.6610 C   0  0  0  0  0  0  0  0  0  0  0  0
  194.6220  174.4290  144.2830 C   0  0  1  0  0  3  0  0  0  0  0  0
  196.4990  173.2910  144.8430 N   0  0  1  0  0  0  0  0  0  0  0  0
  187.1840  177.0990  146.4340 C   0  0  0  0  0  2  0  0  0  0  0  0
  184.4340  178.5320  144.6950 N   0  0  0  0  0  2  0  0  0  0  0  0
  184.0660  178.6660  146.0970 C   0  0  0  0  0  2  0  0  0  0  0  0
  185.4540  177.5080  144.6900 C   0  0  0  0  0  2  0  0  0  0  0  0
  185.0950  178.1590  146.9050 O   0  0  0  0  0  0  0  0  0  0  0  0
  185.6910  177.1570  146.1360 C   0  0  2  0  0  3  0  0  0  0  0  0
  1 23  1  0  0  0  0
  3 13  1  0  0  0  0
  5 30  1  0  0  0  0
  6 26  1  0  0  0  0
  7 16  1  0  0  0  0
  8  6  1  1  0  0  0
  8  4  1  0  0  0  0
  8 24  1  0  0  0  0
  9 18  1  6  0  0  0
  9  4  1  0  0  0  0
  9 27  1  0  0  0  0
 11 21  1  0  0  0  0
 12  7  2  0  0  0  0
 13 14  1  0  0  0  0
 13 10  1  0  0  0  0
 15 27  1  0  0  0  0
 17  5  2  0  0  0  0
 19 27  1  0  0  0  0
 19 14  1  0  0  0  0
 20 13  1  0  0  0  0
 21 16  2  0  0  0  0
 22  1  2  0  0  0  0
 23 29  1  0  0  0  0
 24 11  2  0  0  0  0
 24 12  1  0  0  0  0
 26 17  2  0  0  0  0
 26 12  1  0  0  0  0
 27 25  1  0  0  0  0
 28  1  1  1  0  0  0
 28  2  1  0  0  0  0
 28 11  1  0  0  0  0
 29  3  1  6  0  0  0
 29  2  1  0  0  0  0
 31 32  1  0  0  0  0
 32 34  1  0  0  0  0
 33 31  1  0  0  0  0
 33 35  1  0  0  0  0
 35 30  1  6  0  0  0
 35 34  1  0  0  0  0
M  END
>  <MODEL>
8

>  <REMARK>
 VINA RESULT:      -7.8      3.011      4.490
  Name = 
  2 active torsions:
  status: ('A' for Active; 'I' for Inactive)
    1  A    between atoms: C_6  and  C_26
    2  A    between atoms: C_26  and  C_35
                            x       y       z     vdW  Elec       q    Type
                         _______ _______ _______ _____ _____    ______ ____

>  <TORSDO>
F 2

$$$$
=
 OpenBabel11062420093D

 35 39  0  0  1  0  0  0  0  0999 V2000
  188.2680  177.7850  142.5250 C   0  0  0  0  0  0  0  0  0  0  0  0
  187.5580  176.3580  144.1710 O   0  0  0  0  0  0  0  0  0  0  0  0
  186.8530  178.2510  145.2850 C   0  0  0  0  0  2  0  0  0  0  0  0
  191.1010  174.8940  145.2250 N   0  0  0  0  0  2  0  0  0  0  0  0
  193.7340  171.9840  141.0160 C   0  0  0  0  0  3  0  0  0  0  0  0
  192.7230  174.5290  143.4500 C   0  0  0  0  0  2  0  0  0  0  0  0
  190.0780  173.3680  141.1310 N   0  0  0  0  0  0  0  0  0  0  0  0
  191.4820  175.3360  143.8880 C   0  0  1  0  0  3  0  0  0  0  0  0
  190.4720  176.0130  145.9140 C   0  0  2  0  0  3  0  0  0  0  0  0
  184.8170  177.2590  146.3600 C   0  0  0  0  0  1  0  0  0  0  0  0
  189.1750  175.5010  142.6370 C   0  0  0  0  0  0  0  0  0  0  0  0
  190.8510  173.8960  142.1130 C   0  0  0  0  0  0  0  0  0  0  0  0
  186.2680  177.6460  146.5720 C   0  0  0  0  0  0  0  0  0  0  0  0
  187.0490  176.4160  147.0360 C   0  0  0  0  0  2  0  0  0  0  0  0
  189.7540  174.9270  147.9240 F   0  0  0  0  0  0  0  0  0  0  0  0
  188.8390  173.8890  140.9170 C   0  0  0  0  0  3  0  0  0  0  0  0
  192.9730  172.7680  141.7280 C   0  0  0  0  0  0  0  0  0  0  0  0
  191.5050  176.7670  146.7390 C   0  0  0  0  0  1  0  0  0  0  0  0
  188.4800  176.7020  147.1250 N   0  0  0  0  0  2  0  0  0  0  0  0
  186.3160  178.7020  147.6590 C   0  0  0  0  0  1  0  0  0  0  0  0
  188.3970  174.9460  141.6610 N   0  0  0  0  0  0  0  0  0  0  0  0
  188.9370  178.2940  141.6410 O   0  0  0  0  0  0  0  0  0  0  0  0
  186.9450  178.2170  142.9320 C   0  0  0  0  0  2  0  0  0  0  0  0
  190.4300  174.9350  142.8900 C   0  0  0  0  0  0  0  0  0  0  0  0
  188.5670  174.5970  146.0410 F   0  0  0  0  0  0  0  0  0  0  0  0
  192.2100  173.5500  142.4430 C   0  0  0  0  0  0  0  0  0  0  0  0
  189.2940  175.5350  146.7670 C   0  0  0  0  0  0  0  0  0  0  0  0
  188.6940  176.6970  143.4020 C   0  0  1  0  0  3  0  0  0  0  0  0
  186.6580  177.3990  144.1080 N   0  0  1  0  0  0  0  0  0  0  0  0
  193.4740  170.5130  140.9530 C   0  0  0  0  0  2  0  0  0  0  0  0
  193.8720  170.0860  144.4590 N   0  0  0  0  0  2  0  0  0  0  0  0
  195.2310  170.2790  143.9770 C   0  0  0  0  0  2  0  0  0  0  0  0
  193.1260  169.7040  143.2820 C   0  0  0  0  0  2  0  0  0  0  0  0
  195.2140  170.4930  142.5900 O   0  0  0  0  0  0  0  0  0  0  0  0
  194.1000  169.7840  142.1350 C   0  0  2  0  0  3  0  0  0  0  0  0
  1 23  1  0  0  0  0
  3 13  1  0  0  0  0
  4  9  1  0  0  0  0
  5 17  2  0  0  0  0
  7 12  1  0  0  0  0
  8  6  1  6  0  0  0
  8  4  1  0  0  0  0
  9 18  1  1  0  0  0
  9 27  1  0  0  0  0
 10 13  1  0  0  0  0
 11 24  1  0  0  0  0
 11 28  1  0  0  0  0
 12 26  1  0  0  0  0
 12 24  2  0  0  0  0
 13 14  1  0  0  0  0
 13 20  1  0  0  0  0
 14 19  1  0  0  0  0
 16  7  2  0  0  0  0
 16 21  1  0  0  0  0
 17 26  2  0  0  0  0
 21 11  2  0  0  0  0
 22  1  2  0  0  0  0
 24  8  1  0  0  0  0
 25 27  1  0  0  0  0
 26  6  1  0  0  0  0
 27 19  1  0  0  0  0
 27 15  1  0  0  0  0
 28  1  1  6  0  0  0
 28  2  1  0  0  0  0
 29 23  1  6  0  0  0
 29  2  1  0  0  0  0
 29  3  1  0  0  0  0
 30  5  1  0  0  0  0
 32 31  1  0  0  0  0
 33 31  1  0  0  0  0
 34 32  1  0  0  0  0
 35 30  1  6  0  0  0
 35 34  1  0  0  0  0
 35 33  1  0  0  0  0
M  END
>  <MODEL>
9

>  <REMARK>
 VINA RESULT:      -7.8      3.083      8.105
  Name = 
  2 active torsions:
  status: ('A' for Active; 'I' for Inactive)
    1  A    between atoms: C_6  and  C_26
    2  A    between atoms: C_26  and  C_35
                            x       y       z     vdW  Elec       q    Type
                         _______ _______ _______ _____ _____    ______ ____

>  <TORSDO>
F 2

$$$$
