=
 OpenBabel11072409413D

 25 29  0  0  1  0  0  0  0  0999 V2000
  186.5570  177.6000  141.9910 C   0  0  0  0  0  3  0  0  0  0  0  0
  184.5620  178.1660  143.2720 C   0  0  0  0  0  0  0  0  0  0  0  0
  189.3110  176.9380  142.8150 N   0  0  0  0  0  0  0  0  0  0  0  0
  183.9730  178.4000  144.4490 O   0  0  0  0  0  0  0  0  0  0  0  0
  183.8240  178.2370  142.0850 C   0  0  0  0  0  0  0  0  0  0  0  0
  184.0280  178.5730  146.6890 O   0  0  0  0  0  0  0  0  0  0  0  0
  189.6810  177.1550  146.5220 S   0  0  0  0  0  0  0  0  0  0  0  0
  190.7360  176.5430  142.8500 C   0  0  0  0  0  3  0  0  0  0  0  0
  185.9400  177.8450  143.2220 C   0  0  0  0  0  0  0  0  0  0  0  0
  188.0870  177.5650  146.0670 C   0  0  0  0  0  0  0  0  0  0  0  0
  183.7260  178.0590  139.7080 F   0  0  0  0  0  0  0  0  0  0  0  0
  186.6110  177.7930  144.4050 N   0  0  0  0  0  0  0  0  0  0  0  0
  191.1320  176.5570  144.2740 N   0  0  0  0  0  0  0  0  0  0  0  0
  187.8880  177.5100  144.7250 C   0  0  0  0  0  0  0  0  0  0  0  0
  182.5030  178.5430  142.1220 F   0  0  0  0  0  0  0  0  0  0  0  0
  190.0600  176.9220  144.8750 C   0  0  0  0  0  0  0  0  0  0  0  0
  184.6340  178.3450  145.6080 C   0  0  0  0  0  0  0  0  0  0  0  0
  186.6100  177.3600  139.2790 Cl  0  0  0  0  0  0  0  0  0  0  0  0
  185.8140  177.6720  140.8100 C   0  0  0  0  0  0  0  0  0  0  0  0
  189.0320  177.1370  144.0480 C   0  0  1  0  0  3  0  0  0  0  0  0
  185.9970  178.0330  145.5920 C   0  0  0  0  0  0  0  0  0  0  0  0
  184.4480  177.9890  140.8550 C   0  0  0  0  0  0  0  0  0  0  0  0
  186.8940  177.9070  146.6680 C   0  0  0  0  0  0  0  0  0  0  0  0
  186.6160  178.0090  148.1300 C   0  0  0  0  0  2  0  0  0  0  0  0
  186.9940  179.3890  148.6320 C   0  0  0  0  0  1  0  0  0  0  0  0
  1  9  1  0  0  0  0
  2  4  1  0  0  0  0
  3  8  2  0  0  0  0
  4 17  1  0  0  0  0
  5 15  1  0  0  0  0
  5  2  1  0  0  0  0
  8 13  1  0  0  0  0
  9  2  2  0  0  0  0
  9 12  1  0  0  0  0
 10  7  1  0  0  0  0
 10 23  1  0  0  0  0
 11 22  1  0  0  0  0
 12 14  1  0  0  0  0
 12 21  1  0  0  0  0
 13 16  2  0  0  0  0
 14 10  2  0  0  0  0
 16  7  1  0  0  0  0
 17  6  2  0  0  0  0
 18 19  1  0  0  0  0
 19 22  1  0  0  0  0
 19  1  2  0  0  0  0
 20  3  1  1  0  0  0
 20 14  1  0  0  0  0
 20 16  1  0  0  0  0
 21 17  1  0  0  0  0
 21 23  2  0  0  0  0
 22  5  2  0  0  0  0
 23 24  1  0  0  0  0
 24 25  1  0  0  0  0
M  END
>  <MODEL>
1

>  <REMARK>
 VINA RESULT:      -8.1      0.000      0.000
  Name = 
  1 active torsions:
  status: ('A' for Active; 'I' for Inactive)
    1  A    between atoms: C_6  and  C_25
                            x       y       z     vdW  Elec       q    Type
                         _______ _______ _______ _____ _____    ______ ____

>  <TORSDO>
F 1

$$$$
=
 OpenBabel11072409413D

 25 29  0  0  1  0  0  0  0  0999 V2000
  189.2270  175.7150  143.1990 C   0  0  0  0  0  3  0  0  0  0  0  0
  189.0730  175.5950  145.6280 C   0  0  0  0  0  0  0  0  0  0  0  0
  187.4180  176.8390  141.1570 N   0  0  0  0  0  0  0  0  0  0  0  0
  188.3920  175.8270  146.7550 O   0  0  0  0  0  0  0  0  0  0  0  0
  190.3360  174.9930  145.6750 C   0  0  0  0  0  0  0  0  0  0  0  0
  186.5890  176.5950  147.8540 O   0  0  0  0  0  0  0  0  0  0  0  0
  184.3140  178.1910  142.7280 S   0  0  0  0  0  0  0  0  0  0  0  0
  186.8010  177.3070  139.8980 C   0  0  0  0  0  3  0  0  0  0  0  0
  188.5160  175.9570  144.3780 C   0  0  0  0  0  0  0  0  0  0  0  0
  185.3360  177.5250  143.9250 C   0  0  0  0  0  0  0  0  0  0  0  0
  192.2670  174.1710  144.5430 F   0  0  0  0  0  0  0  0  0  0  0  0
  187.2840  176.5360  144.3880 N   0  0  0  0  0  0  0  0  0  0  0  0
  185.5020  177.9060  140.2740 N   0  0  0  0  0  0  0  0  0  0  0  0
  186.4840  177.0090  143.4150 C   0  0  0  0  0  0  0  0  0  0  0  0
  190.8780  174.6420  146.8680 F   0  0  0  0  0  0  0  0  0  0  0  0
  185.4620  177.7510  141.5450 C   0  0  0  0  0  0  0  0  0  0  0  0
  187.1850  176.3980  146.7620 C   0  0  0  0  0  0  0  0  0  0  0  0
  191.3600  174.8210  141.7610 Cl  0  0  0  0  0  0  0  0  0  0  0  0
  190.4880  175.1140  143.2530 C   0  0  0  0  0  0  0  0  0  0  0  0
  186.5470  177.1470  142.0430 C   0  0  1  0  0  3  0  0  0  0  0  0
  186.6070  176.7650  145.5430 C   0  0  0  0  0  0  0  0  0  0  0  0
  191.0430  174.7540  144.4900 C   0  0  0  0  0  0  0  0  0  0  0  0
  185.3670  177.3820  145.2950 C   0  0  0  0  0  0  0  0  0  0  0  0
  184.3580  177.8720  146.2780 C   0  0  0  0  0  2  0  0  0  0  0  0
  184.8410  179.1580  146.9180 C   0  0  0  0  0  1  0  0  0  0  0  0
  1 19  2  0  0  0  0
  1  9  1  0  0  0  0
  2  5  1  0  0  0  0
  2  4  1  0  0  0  0
  4 17  1  0  0  0  0
  5 15  1  0  0  0  0
  7 10  1  0  0  0  0
  8 13  1  0  0  0  0
  8  3  2  0  0  0  0
  9 12  1  0  0  0  0
  9  2  2  0  0  0  0
 10 23  1  0  0  0  0
 12 21  1  0  0  0  0
 13 16  2  0  0  0  0
 14 10  2  0  0  0  0
 14 12  1  0  0  0  0
 16 20  1  0  0  0  0
 16  7  1  0  0  0  0
 17  6  2  0  0  0  0
 18 19  1  0  0  0  0
 19 22  1  0  0  0  0
 20  3  1  1  0  0  0
 20 14  1  0  0  0  0
 21 17  1  0  0  0  0
 22 11  1  0  0  0  0
 22  5  2  0  0  0  0
 23 21  2  0  0  0  0
 23 24  1  0  0  0  0
 24 25  1  0  0  0  0
M  END
>  <MODEL>
2

>  <REMARK>
 VINA RESULT:      -7.7      3.987      5.447
  Name = 
  1 active torsions:
  status: ('A' for Active; 'I' for Inactive)
    1  A    between atoms: C_6  and  C_25
                            x       y       z     vdW  Elec       q    Type
                         _______ _______ _______ _____ _____    ______ ____

>  <TORSDO>
F 1

$$$$
=
 OpenBabel11072409413D

 25 29  0  0  0  0  0  0  0  0999 V2000
  188.3000  175.7520  144.3510 C   0  0  0  0  0  3  0  0  0  0  0  0
  188.5020  175.6060  141.9270 C   0  0  0  0  0  0  0  0  0  0  0  0
  186.3380  177.1010  146.0930 N   0  0  0  0  0  0  0  0  0  0  0  0
  188.0620  175.9390  140.7090 O   0  0  0  0  0  0  0  0  0  0  0  0
  189.6160  174.7700  142.0730 C   0  0  0  0  0  0  0  0  0  0  0  0
  186.6330  177.0120  139.3470 O   0  0  0  0  0  0  0  0  0  0  0  0
  183.8280  178.9780  144.0660 S   0  0  0  0  0  0  0  0  0  0  0  0
  185.5540  177.6000  147.2430 C   0  0  0  0  0  2  0  0  0  0  0  0
  187.8410  176.1000  143.0770 C   0  0  0  0  0  0  0  0  0  0  0  0
  184.9670  178.2250  143.0390 C   0  0  0  0  0  0  0  0  0  0  0  0
  191.1500  173.6150  143.4870 F   0  0  0  0  0  0  0  0  0  0  0  0
  186.7660  176.9100  142.8780 N   0  0  0  0  0  0  0  0  0  0  0  0
  184.4560  178.4090  146.6730 N   0  0  0  0  0  0  0  0  0  0  0  0
  185.9140  177.5280  143.7180 C   0  0  0  0  0  0  0  0  0  0  0  0
  190.2560  174.2920  140.9770 F   0  0  0  0  0  0  0  0  0  0  0  0
  184.6620  178.3390  145.4100 C   0  0  0  0  0  0  0  0  0  0  0  0
  187.0060  176.7320  140.5170 C   0  0  0  0  0  0  0  0  0  0  0  0
  189.9690  174.4950  146.0980 Cl  0  0  0  0  0  0  0  0  0  0  0  0
  189.4120  174.9170  144.4900 C   0  0  0  0  0  0  0  0  0  0  0  0
  185.7270  177.6000  145.0840 C   0  0  0  0  0  0  0  0  0  0  0  0
  186.3320  177.2380  141.6340 C   0  0  0  0  0  0  0  0  0  0  0  0
  190.0700  174.4260  143.3530 C   0  0  0  0  0  0  0  0  0  0  0  0
  185.2020  178.0730  141.6890 C   0  0  0  0  0  0  0  0  0  0  0  0
  184.3730  178.5960  140.5640 C   0  0  0  0  0  2  0  0  0  0  0  0
  182.9840  177.9910  140.6210 C   0  0  0  0  0  1  0  0  0  0  0  0
  1 19  1  0  0  0  0
  2  5  2  0  0  0  0
  2  9  1  0  0  0  0
  3  8  1  0  0  0  0
  4  2  1  0  0  0  0
  5 22  1  0  0  0  0
  6 17  2  0  0  0  0
  7 16  1  0  0  0  0
  9  1  2  0  0  0  0
 10 14  2  0  0  0  0
 10  7  1  0  0  0  0
 12  9  1  0  0  0  0
 12 14  1  0  0  0  0
 13  8  1  0  0  0  0
 14 20  1  0  0  0  0
 15  5  1  0  0  0  0
 16 13  2  0  0  0  0
 17  4  1  0  0  0  0
 17 21  1  0  0  0  0
 19 18  1  0  0  0  0
 20 16  1  0  0  0  0
 20  3  2  0  0  0  0
 21 23  2  0  0  0  0
 21 12  1  0  0  0  0
 22 11  1  0  0  0  0
 22 19  2  0  0  0  0
 23 10  1  0  0  0  0
 24 25  1  0  0  0  0
 24 23  1  0  0  0  0
M  END
>  <MODEL>
3

>  <REMARK>
 VINA RESULT:      -7.6      4.053      6.215
  Name = 
  1 active torsions:
  status: ('A' for Active; 'I' for Inactive)
    1  A    between atoms: C_6  and  C_25
                            x       y       z     vdW  Elec       q    Type
                         _______ _______ _______ _____ _____    ______ ____

>  <TORSDO>
F 1

$$$$
=
 OpenBabel11072409413D

 25 29  0  0  1  0  0  0  0  0999 V2000
  185.4810  177.3540  142.5780 C   0  0  0  0  0  3  0  0  0  0  0  0
  185.3310  178.0580  144.9060 C   0  0  0  0  0  0  0  0  0  0  0  0
  187.4530  175.6990  141.1380 N   0  0  0  0  0  0  0  0  0  0  0  0
  185.8440  178.0840  146.1410 O   0  0  0  0  0  0  0  0  0  0  0  0
  184.1180  178.6990  144.6310 C   0  0  0  0  0  0  0  0  0  0  0  0
  187.4340  177.5420  147.6340 O   0  0  0  0  0  0  0  0  0  0  0  0
  190.2280  174.6570  143.4060 S   0  0  0  0  0  0  0  0  0  0  0  0
  188.1920  174.9140  140.1260 C   0  0  0  0  0  3  0  0  0  0  0  0
  186.0170  177.3810  143.8700 C   0  0  0  0  0  0  0  0  0  0  0  0
  189.1110  175.6330  144.2550 C   0  0  0  0  0  0  0  0  0  0  0  0
  182.4090  179.2910  143.0760 F   0  0  0  0  0  0  0  0  0  0  0  0
  187.1930  176.7770  144.1910 N   0  0  0  0  0  0  0  0  0  0  0  0
  189.3870  174.3780  140.8120 N   0  0  0  0  0  0  0  0  0  0  0  0
  188.0770  176.0510  143.4810 C   0  0  0  0  0  0  0  0  0  0  0  0
  183.4530  179.3510  145.6180 F   0  0  0  0  0  0  0  0  0  0  0  0
  189.2740  174.8370  142.0030 C   0  0  0  0  0  0  0  0  0  0  0  0
  186.9980  177.4880  146.4530 C   0  0  0  0  0  0  0  0  0  0  0  0
  183.6170  177.9470  140.6840 Cl  0  0  0  0  0  0  0  0  0  0  0  0
  184.2690  177.9960  142.3100 C   0  0  0  0  0  0  0  0  0  0  0  0
  188.1800  175.5850  142.1850 C   0  0  1  0  0  3  0  0  0  0  0  0
  187.7000  176.8120  145.4500 C   0  0  0  0  0  0  0  0  0  0  0  0
  183.5870  178.6680  143.3350 C   0  0  0  0  0  0  0  0  0  0  0  0
  188.9150  176.1080  145.5340 C   0  0  0  0  0  0  0  0  0  0  0  0
  189.7540  175.8360  146.7370 C   0  0  0  0  0  2  0  0  0  0  0  0
  189.3150  174.5410  147.3900 C   0  0  0  0  0  1  0  0  0  0  0  0
  1  9  1  0  0  0  0
  2  4  1  0  0  0  0
  4 17  1  0  0  0  0
  5  2  1  0  0  0  0
  5 15  1  0  0  0  0
  7 10  1  0  0  0  0
  8 13  1  0  0  0  0
  8  3  2  0  0  0  0
  9 12  1  0  0  0  0
  9  2  2  0  0  0  0
 10 23  1  0  0  0  0
 11 22  1  0  0  0  0
 12 21  1  0  0  0  0
 13 16  2  0  0  0  0
 14 12  1  0  0  0  0
 14 10  2  0  0  0  0
 16 20  1  0  0  0  0
 16  7  1  0  0  0  0
 17  6  2  0  0  0  0
 18 19  1  0  0  0  0
 19  1  2  0  0  0  0
 19 22  1  0  0  0  0
 20  3  1  1  0  0  0
 20 14  1  0  0  0  0
 21 23  2  0  0  0  0
 21 17  1  0  0  0  0
 22  5  2  0  0  0  0
 23 24  1  0  0  0  0
 24 25  1  0  0  0  0
M  END
>  <MODEL>
4

>  <REMARK>
 VINA RESULT:      -7.6      2.337      3.127
  Name = 
  1 active torsions:
  status: ('A' for Active; 'I' for Inactive)
    1  A    between atoms: C_6  and  C_25
                            x       y       z     vdW  Elec       q    Type
                         _______ _______ _______ _____ _____    ______ ____

>  <TORSDO>
F 1

$$$$
=
 OpenBabel11072409413D

 25 29  0  0  1  0  0  0  0  0999 V2000
  187.5270  176.3730  141.6070 C   0  0  0  0  0  3  0  0  0  0  0  0
  186.9020  177.6580  143.5810 C   0  0  0  0  0  0  0  0  0  0  0  0
  189.2160  173.9790  141.2620 N   0  0  0  0  0  0  0  0  0  0  0  0
  186.9910  177.8690  144.8980 O   0  0  0  0  0  0  0  0  0  0  0  0
  186.0990  178.4840  142.7850 C   0  0  0  0  0  0  0  0  0  0  0  0
  187.7900  177.3520  146.9340 O   0  0  0  0  0  0  0  0  0  0  0  0
  190.6830  172.9020  144.5210 S   0  0  0  0  0  0  0  0  0  0  0  0
  189.9420  172.8080  140.7240 C   0  0  0  0  0  3  0  0  0  0  0  0
  187.6210  176.5940  142.9850 C   0  0  0  0  0  0  0  0  0  0  0  0
  189.7280  174.3020  144.7400 C   0  0  0  0  0  0  0  0  0  0  0  0
  185.2300  179.0600  140.6410 F   0  0  0  0  0  0  0  0  0  0  0  0
  188.3870  175.8240  143.8030 N   0  0  0  0  0  0  0  0  0  0  0  0
  190.6350  172.1890  141.8740 N   0  0  0  0  0  0  0  0  0  0  0  0
  189.1690  174.7490  143.5870 C   0  0  0  0  0  0  0  0  0  0  0  0
  185.4060  179.5050  143.3480 F   0  0  0  0  0  0  0  0  0  0  0  0
  190.3140  172.9480  142.8550 C   0  0  0  0  0  0  0  0  0  0  0  0
  187.7430  177.1100  145.6990 C   0  0  0  0  0  0  0  0  0  0  0  0
  186.6220  176.9030  139.0940 Cl  0  0  0  0  0  0  0  0  0  0  0  0
  186.7240  177.2010  140.8190 C   0  0  0  0  0  0  0  0  0  0  0  0
  189.5120  173.9600  142.5070 C   0  0  1  0  0  3  0  0  0  0  0  0
  188.4670  176.0520  145.1400 C   0  0  0  0  0  0  0  0  0  0  0  0
  186.0100  178.2550  141.4060 C   0  0  0  0  0  0  0  0  0  0  0  0
  189.3100  175.1180  145.7700 C   0  0  0  0  0  0  0  0  0  0  0  0
  189.6080  174.9640  147.2230 C   0  0  0  0  0  2  0  0  0  0  0  0
  190.9830  175.5220  147.5300 C   0  0  0  0  0  1  0  0  0  0  0  0
  1  9  1  0  0  0  0
  2  4  1  0  0  0  0
  4 17  1  0  0  0  0
  5 15  1  0  0  0  0
  5  2  1  0  0  0  0
  7 10  1  0  0  0  0
  8  3  2  0  0  0  0
  8 13  1  0  0  0  0
  9  2  2  0  0  0  0
  9 12  1  0  0  0  0
 10 23  1  0  0  0  0
 11 22  1  0  0  0  0
 12 21  1  0  0  0  0
 13 16  2  0  0  0  0
 14 12  1  0  0  0  0
 14 10  2  0  0  0  0
 16  7  1  0  0  0  0
 17  6  2  0  0  0  0
 18 19  1  0  0  0  0
 19 22  1  0  0  0  0
 19  1  2  0  0  0  0
 20  3  1  1  0  0  0
 20 16  1  0  0  0  0
 20 14  1  0  0  0  0
 21 17  1  0  0  0  0
 21 23  2  0  0  0  0
 22  5  2  0  0  0  0
 23 24  1  0  0  0  0
 24 25  1  0  0  0  0
M  END
>  <MODEL>
5

>  <REMARK>
 VINA RESULT:      -7.5      2.776      3.430
  Name = 
  1 active torsions:
  status: ('A' for Active; 'I' for Inactive)
    1  A    between atoms: C_6  and  C_25
                            x       y       z     vdW  Elec       q    Type
                         _______ _______ _______ _____ _____    ______ ____

>  <TORSDO>
F 1

$$$$
=
 OpenBabel11072409413D

 25 29  0  0  0  0  0  0  0  0999 V2000
  187.1780  177.5240  145.4740 C   0  0  0  0  0  3  0  0  0  0  0  0
  186.4500  176.9010  143.2330 C   0  0  0  0  0  0  0  0  0  0  0  0
  189.7150  177.0980  146.9170 N   0  0  0  0  0  0  0  0  0  0  0  0
  186.6930  176.2950  142.0660 O   0  0  0  0  0  0  0  0  0  0  0  0
  185.2290  177.5490  143.4520 C   0  0  0  0  0  0  0  0  0  0  0  0
  188.0180  175.1100  140.6910 O   0  0  0  0  0  0  0  0  0  0  0  0
  192.1150  175.1340  144.8390 S   0  0  0  0  0  0  0  0  0  0  0  0
  190.8130  177.1010  147.9070 C   0  0  0  0  0  2  0  0  0  0  0  0
  187.4310  176.8900  144.2540 C   0  0  0  0  0  0  0  0  0  0  0  0
  190.6460  175.3480  143.9940 C   0  0  0  0  0  0  0  0  0  0  0  0
  183.7960  178.8100  144.8840 F   0  0  0  0  0  0  0  0  0  0  0  0
  188.5990  176.2440  143.9890 N   0  0  0  0  0  0  0  0  0  0  0  0
  191.9260  176.3480  147.2900 N   0  0  0  0  0  0  0  0  0  0  0  0
  189.7250  176.0530  144.7010 C   0  0  0  0  0  0  0  0  0  0  0  0
  184.2830  177.5660  142.4800 F   0  0  0  0  0  0  0  0  0  0  0  0
  191.4530  176.0020  146.1510 C   0  0  0  0  0  0  0  0  0  0  0  0
  187.8410  175.6640  141.8090 C   0  0  0  0  0  0  0  0  0  0  0  0
  185.6630  178.9580  147.2240 Cl  0  0  0  0  0  0  0  0  0  0  0  0
  185.9560  178.1690  145.6860 C   0  0  0  0  0  0  0  0  0  0  0  0
  190.2020  176.4260  145.9420 C   0  0  0  0  0  0  0  0  0  0  0  0
  188.8290  175.6330  142.7980 C   0  0  0  0  0  0  0  0  0  0  0  0
  184.9820  178.1830  144.6770 C   0  0  0  0  0  0  0  0  0  0  0  0
  190.1080  175.0480  142.7610 C   0  0  0  0  0  0  0  0  0  0  0  0
  190.7830  174.3540  141.6260 C   0  0  0  0  0  2  0  0  0  0  0  0
  190.6040  172.8550  141.7560 C   0  0  0  0  0  1  0  0  0  0  0  0
  1 19  1  0  0  0  0
  2  5  2  0  0  0  0
  2  9  1  0  0  0  0
  3  8  1  0  0  0  0
  4  2  1  0  0  0  0
  5 22  1  0  0  0  0
  6 17  2  0  0  0  0
  7 16  1  0  0  0  0
  9  1  2  0  0  0  0
 10 14  2  0  0  0  0
 10  7  1  0  0  0  0
 12  9  1  0  0  0  0
 12 14  1  0  0  0  0
 13  8  1  0  0  0  0
 14 20  1  0  0  0  0
 15  5  1  0  0  0  0
 16 13  2  0  0  0  0
 17  4  1  0  0  0  0
 17 21  1  0  0  0  0
 19 18  1  0  0  0  0
 20 16  1  0  0  0  0
 20  3  2  0  0  0  0
 21 12  1  0  0  0  0
 22 11  1  0  0  0  0
 22 19  2  0  0  0  0
 23 21  2  0  0  0  0
 23 10  1  0  0  0  0
 24 25  1  0  0  0  0
 24 23  1  0  0  0  0
M  END
>  <MODEL>
6

>  <REMARK>
 VINA RESULT:      -7.5      3.035      4.944
  Name = 
  1 active torsions:
  status: ('A' for Active; 'I' for Inactive)
    1  A    between atoms: C_6  and  C_25
                            x       y       z     vdW  Elec       q    Type
                         _______ _______ _______ _____ _____    ______ ____

>  <TORSDO>
F 1

$$$$
=
 OpenBabel11072409413D

 25 29  0  0  0  0  0  0  0  0999 V2000
  189.4080  177.2630  145.6530 C   0  0  0  0  0  3  0  0  0  0  0  0
  189.8160  177.1710  143.2530 C   0  0  0  0  0  0  0  0  0  0  0  0
  187.0010  177.9300  147.2240 N   0  0  0  0  0  0  0  0  0  0  0  0
  189.3810  177.3370  141.9990 O   0  0  0  0  0  0  0  0  0  0  0  0
  191.1240  176.7350  143.4950 C   0  0  0  0  0  0  0  0  0  0  0  0
  187.7840  177.8890  140.5170 O   0  0  0  0  0  0  0  0  0  0  0  0
  184.1750  178.8940  144.9850 S   0  0  0  0  0  0  0  0  0  0  0  0
  186.0210  178.1630  148.3060 C   0  0  0  0  0  2  0  0  0  0  0  0
  188.9530  177.4370  144.3430 C   0  0  0  0  0  0  0  0  0  0  0  0
  185.5630  178.5350  144.0560 C   0  0  0  0  0  0  0  0  0  0  0  0
  192.8420  176.1400  145.0390 F   0  0  0  0  0  0  0  0  0  0  0  0
  187.6930  177.8610  144.0510 N   0  0  0  0  0  0  0  0  0  0  0  0
  184.7650  178.5750  147.6430 N   0  0  0  0  0  0  0  0  0  0  0  0
  186.6320  178.1820  144.8150 C   0  0  0  0  0  0  0  0  0  0  0  0
  191.9590  176.4780  142.4570 F   0  0  0  0  0  0  0  0  0  0  0  0
  185.0720  178.5650  146.3980 C   0  0  0  0  0  0  0  0  0  0  0  0
  188.1430  177.7510  141.7170 C   0  0  0  0  0  0  0  0  0  0  0  0
  191.2620  176.6170  147.5400 Cl  0  0  0  0  0  0  0  0  0  0  0  0
  190.7150  176.8280  145.8880 C   0  0  0  0  0  0  0  0  0  0  0  0
  186.3360  178.2000  146.1640 C   0  0  0  0  0  0  0  0  0  0  0  0
  187.2670  178.0240  142.7720 C   0  0  0  0  0  0  0  0  0  0  0  0
  191.5730  176.5630  144.8110 C   0  0  0  0  0  0  0  0  0  0  0  0
  185.9290  178.4560  142.7290 C   0  0  0  0  0  0  0  0  0  0  0  0
  185.0590  178.6790  141.5380 C   0  0  0  0  0  2  0  0  0  0  0  0
  183.7120  178.0170  141.7520 C   0  0  0  0  0  1  0  0  0  0  0  0
  1 19  1  0  0  0  0
  2  5  2  0  0  0  0
  2  9  1  0  0  0  0
  3  8  1  0  0  0  0
  4  2  1  0  0  0  0
  5 22  1  0  0  0  0
  6 17  2  0  0  0  0
  7 16  1  0  0  0  0
  9  1  2  0  0  0  0
 10 14  2  0  0  0  0
 10  7  1  0  0  0  0
 12  9  1  0  0  0  0
 12 14  1  0  0  0  0
 13  8  1  0  0  0  0
 14 20  1  0  0  0  0
 15  5  1  0  0  0  0
 16 13  2  0  0  0  0
 17  4  1  0  0  0  0
 17 21  1  0  0  0  0
 19 18  1  0  0  0  0
 20 16  1  0  0  0  0
 20  3  2  0  0  0  0
 21 12  1  0  0  0  0
 22 11  1  0  0  0  0
 22 19  2  0  0  0  0
 23 21  2  0  0  0  0
 23 10  1  0  0  0  0
 24 25  1  0  0  0  0
 24 23  1  0  0  0  0
M  END
>  <MODEL>
7

>  <REMARK>
 VINA RESULT:      -7.5      4.132      6.374
  Name = 
  1 active torsions:
  status: ('A' for Active; 'I' for Inactive)
    1  A    between atoms: C_6  and  C_25
                            x       y       z     vdW  Elec       q    Type
                         _______ _______ _______ _____ _____    ______ ____

>  <TORSDO>
F 1

$$$$
=
 OpenBabel11072409413D

 25 29  0  0  1  0  0  0  0  0999 V2000
  185.9720  177.5260  144.5430 C   0  0  0  0  0  3  0  0  0  0  0  0
  186.9220  176.7960  146.6650 C   0  0  0  0  0  0  0  0  0  0  0  0
  186.6530  176.8790  141.7460 N   0  0  0  0  0  0  0  0  0  0  0  0
  187.8360  176.0910  147.3400 O   0  0  0  0  0  0  0  0  0  0  0  0
  185.9560  177.5420  147.3500 C   0  0  0  0  0  0  0  0  0  0  0  0
  189.6130  174.7190  147.4170 O   0  0  0  0  0  0  0  0  0  0  0  0
  189.6010  174.5950  141.5880 S   0  0  0  0  0  0  0  0  0  0  0  0
  186.6820  176.7680  140.2720 C   0  0  0  0  0  3  0  0  0  0  0  0
  186.9280  176.7900  145.2490 C   0  0  0  0  0  0  0  0  0  0  0  0
  189.2390  174.9750  143.2140 C   0  0  0  0  0  0  0  0  0  0  0  0
  184.0660  178.9970  147.3070 F   0  0  0  0  0  0  0  0  0  0  0  0
  187.8900  176.0510  144.6330 N   0  0  0  0  0  0  0  0  0  0  0  0
  187.8160  175.8770  139.9480 N   0  0  0  0  0  0  0  0  0  0  0  0
  188.1760  175.8100  143.3400 C   0  0  0  0  0  0  0  0  0  0  0  0
  185.9410  177.5530  148.7070 F   0  0  0  0  0  0  0  0  0  0  0  0
  188.3010  175.5870  141.0980 C   0  0  0  0  0  0  0  0  0  0  0  0
  188.7770  175.3650  146.7320 C   0  0  0  0  0  0  0  0  0  0  0  0
  183.8220  179.1830  144.3250 Cl  0  0  0  0  0  0  0  0  0  0  0  0
  185.0100  178.2690  145.2330 C   0  0  0  0  0  0  0  0  0  0  0  0
  187.6420  176.1550  142.1140 C   0  0  1  0  0  3  0  0  0  0  0  0
  188.8110  175.3410  145.3340 C   0  0  0  0  0  0  0  0  0  0  0  0
  185.0010  178.2760  146.6360 C   0  0  0  0  0  0  0  0  0  0  0  0
  189.6880  174.6520  144.4770 C   0  0  0  0  0  0  0  0  0  0  0  0
  190.7840  173.7040  144.8300 C   0  0  0  0  0  2  0  0  0  0  0  0
  190.3140  172.2760  144.6380 C   0  0  0  0  0  1  0  0  0  0  0  0
  1 19  2  0  0  0  0
  1  9  1  0  0  0  0
  2  4  1  0  0  0  0
  2  5  1  0  0  0  0
  3 20  1  0  0  0  0
  5 15  1  0  0  0  0
  7 10  1  0  0  0  0
  8  3  2  0  0  0  0
  9  2  2  0  0  0  0
 10 14  2  0  0  0  0
 10 23  1  0  0  0  0
 12  9  1  0  0  0  0
 12 21  1  0  0  0  0
 13  8  1  0  0  0  0
 13 16  2  0  0  0  0
 14 12  1  0  0  0  0
 16  7  1  0  0  0  0
 17  4  1  0  0  0  0
 17  6  2  0  0  0  0
 18 19  1  0  0  0  0
 19 22  1  0  0  0  0
 20 16  1  1  0  0  0
 20 14  1  0  0  0  0
 21 17  1  0  0  0  0
 22 11  1  0  0  0  0
 22  5  2  0  0  0  0
 23 24  1  0  0  0  0
 23 21  2  0  0  0  0
 25 24  1  0  0  0  0
M  END
>  <MODEL>
8

>  <REMARK>
 VINA RESULT:      -7.4      3.583      5.215
  Name = 
  1 active torsions:
  status: ('A' for Active; 'I' for Inactive)
    1  A    between atoms: C_6  and  C_25
                            x       y       z     vdW  Elec       q    Type
                         _______ _______ _______ _____ _____    ______ ____

>  <TORSDO>
F 1

$$$$
=
 OpenBabel11072409413D

 25 29  0  0  1  0  0  0  0  0999 V2000
  186.5120  177.2360  143.7180 C   0  0  0  0  0  3  0  0  0  0  0  0
  187.1540  177.9110  145.9700 C   0  0  0  0  0  0  0  0  0  0  0  0
  187.8490  175.5410  141.7070 N   0  0  0  0  0  0  0  0  0  0  0  0
  188.0410  177.9020  146.9700 O   0  0  0  0  0  0  0  0  0  0  0  0
  185.9400  178.5940  146.1080 C   0  0  0  0  0  0  0  0  0  0  0  0
  190.0110  177.2880  147.8610 O   0  0  0  0  0  0  0  0  0  0  0  0
  191.1740  174.3800  142.9430 S   0  0  0  0  0  0  0  0  0  0  0  0
  188.1910  174.7490  140.5060 C   0  0  0  0  0  3  0  0  0  0  0  0
  187.4400  177.2270  144.7630 C   0  0  0  0  0  0  0  0  0  0  0  0
  190.4290  175.3780  144.1120 C   0  0  0  0  0  0  0  0  0  0  0  0
  183.8390  179.2620  145.1960 F   0  0  0  0  0  0  0  0  0  0  0  0
  188.6360  176.5820  144.6820 N   0  0  0  0  0  0  0  0  0  0  0  0
  189.5250  174.1650  140.7640 N   0  0  0  0  0  0  0  0  0  0  0  0
  189.2140  175.8390  143.7190 C   0  0  0  0  0  0  0  0  0  0  0  0
  185.6560  179.2520  147.2600 F   0  0  0  0  0  0  0  0  0  0  0  0
  189.8220  174.6110  141.9280 C   0  0  0  0  0  0  0  0  0  0  0  0
  189.2120  177.2660  146.8870 C   0  0  0  0  0  0  0  0  0  0  0  0
  184.1550  177.9160  142.5360 Cl  0  0  0  0  0  0  0  0  0  0  0  0
  185.3020  177.9200  143.8620 C   0  0  0  0  0  0  0  0  0  0  0  0
  188.8740  175.3890  142.4590 C   0  0  1  0  0  3  0  0  0  0  0  0
  189.5260  176.5830  145.7070 C   0  0  0  0  0  0  0  0  0  0  0  0
  185.0150  178.5980  145.0550 C   0  0  0  0  0  0  0  0  0  0  0  0
  190.6760  175.8400  145.3880 C   0  0  0  0  0  0  0  0  0  0  0  0
  191.8510  175.5240  146.2500 C   0  0  0  0  0  2  0  0  0  0  0  0
  193.0190  176.4170  145.8800 C   0  0  0  0  0  1  0  0  0  0  0  0
  1 19  2  0  0  0  0
  1  9  1  0  0  0  0
  2  5  1  0  0  0  0
  2  4  1  0  0  0  0
  5 15  1  0  0  0  0
  7 10  1  0  0  0  0
  8 13  1  0  0  0  0
  8  3  2  0  0  0  0
  9  2  2  0  0  0  0
 10 23  1  0  0  0  0
 12  9  1  0  0  0  0
 12 21  1  0  0  0  0
 13 16  2  0  0  0  0
 14 10  2  0  0  0  0
 14 12  1  0  0  0  0
 16 20  1  0  0  0  0
 16  7  1  0  0  0  0
 17  4  1  0  0  0  0
 17  6  2  0  0  0  0
 18 19  1  0  0  0  0
 19 22  1  0  0  0  0
 20  3  1  1  0  0  0
 20 14  1  0  0  0  0
 21 17  1  0  0  0  0
 22 11  1  0  0  0  0
 22  5  2  0  0  0  0
 23 21  2  0  0  0  0
 23 24  1  0  0  0  0
 25 24  1  0  0  0  0
M  END
>  <MODEL>
9

>  <REMARK>
 VINA RESULT:      -7.3      2.960      4.361
  Name = 
  1 active torsions:
  status: ('A' for Active; 'I' for Inactive)
    1  A    between atoms: C_6  and  C_25
                            x       y       z     vdW  Elec       q    Type
                         _______ _______ _______ _____ _____    ______ ____

>  <TORSDO>
F 1

$$$$
