=
 OpenBabel11062420573D

 31 35  0  0  1  0  0  0  0  0999 V2000
  188.9650  175.8830  144.7960 C   0  0  0  0  0  0  0  0  0  0  0  0
  189.8990  174.9220  144.5830 C   0  0  1  0  0  3  0  0  0  0  0  0
  186.7260  177.5550  145.2520 C   0  0  0  0  0  0  0  0  0  0  0  0
  191.6130  175.2920  146.2930 C   0  0  0  0  0  3  0  0  0  0  0  0
  187.9330  176.0100  143.8460 C   0  0  0  0  0  3  0  0  0  0  0  0
  191.2340  176.4160  146.8060 N   0  0  0  0  0  0  0  0  0  0  0  0
  187.7580  177.4860  146.1890 C   0  0  0  0  0  3  0  0  0  0  0  0
  188.8960  176.6990  145.9740 C   0  0  0  0  0  0  0  0  0  0  0  0
  190.6430  174.3260  145.7340 C   0  0  0  0  0  2  0  0  0  0  0  0
  186.8300  176.8310  144.0660 C   0  0  0  0  0  3  0  0  0  0  0  0
  189.8930  176.9290  146.8480 C   0  0  0  0  0  2  0  0  0  0  0  0
  187.7920  173.3150  142.0380 C   0  0  0  0  0  1  0  0  0  0  0  0
  189.0740  172.4720  142.1000 C   0  0  1  0  0  0  0  0  0  0  0  0
  190.5640  175.0000  142.1330 C   0  0  0  0  0  2  0  0  0  0  0  0
  190.0240  174.2780  143.2990 N   0  0  1  0  0  0  0  0  0  0  0  0
  190.2250  174.2900  140.7880 C   0  0  0  0  0  2  0  0  0  0  0  0
  190.0220  172.7450  140.9210 C   0  0  2  0  0  3  0  0  0  0  0  0
  190.1560  172.8370  143.1570 C   0  0  1  0  0  3  0  0  0  0  0  0
  189.1000  171.8730  143.5080 C   0  0  0  0  0  2  0  0  0  0  0  0
  189.4930  172.1410  139.6120 C   0  0  1  0  0  3  0  0  0  0  0  0
  188.1130  173.7150  138.4650 O   0  0  0  0  0  1  0  0  0  0  0  0
  190.2920  173.6330  137.7620 O   0  0  0  0  0  0  0  0  0  0  0  0
  189.2570  173.2050  138.5850 C   0  0  0  0  0  0  0  0  0  0  0  0
  189.7400  170.1180  138.1650 C   0  0  0  0  0  1  0  0  0  0  0  0
  190.4660  171.1020  139.0620 C   0  0  0  0  0  2  0  0  0  0  0  0
  184.4950  177.7780  146.4710 C   0  0  0  0  0  2  0  0  0  0  0  0
  185.5110  178.3850  145.5260 C   0  0  0  0  0  0  0  0  0  0  0  0
  185.3760  178.9290  146.9340 C   0  0  0  0  0  2  0  0  0  0  0  0
  184.9430  179.2420  144.4440 C   0  0  0  0  0  0  0  0  0  0  0  0
  185.5760  180.2540  144.0420 O   0  0  0  0  0  1  0  0  0  0  0  0
  183.7360  178.9020  143.8490 O   0  0  0  0  0  0  0  0  0  0  0  0
  1  8  1  0  0  0  0
  2  1  1  0  0  0  0
  2  9  1  1  0  0  0
  3 27  1  0  0  0  0
  3  7  1  0  0  0  0
  4  6  2  0  0  0  0
  5 10  1  0  0  0  0
  5  1  2  0  0  0  0
  6 11  1  0  0  0  0
  8  7  2  0  0  0  0
  8 11  1  0  0  0  0
  9  4  1  0  0  0  0
 10  3  2  0  0  0  0
 13 12  1  1  0  0  0
 13 18  1  0  0  0  0
 13 19  1  0  0  0  0
 15 14  1  1  0  0  0
 15  2  1  0  0  0  0
 16 17  1  0  0  0  0
 16 14  1  0  0  0  0
 17 20  1  6  0  0  0
 17 13  1  0  0  0  0
 18 15  1  0  0  0  0
 18 19  1  1  0  0  0
 20 25  1  6  0  0  0
 21 23  1  0  0  0  0
 22 23  2  0  0  0  0
 23 20  1  0  0  0  0
 24 25  1  0  0  0  0
 26 28  1  0  0  0  0
 27 26  1  0  0  0  0
 27 28  1  0  0  0  0
 29 27  1  0  0  0  0
 30 29  1  0  0  0  0
 31 29  2  0  0  0  0
M  END
>  <MODEL>
1

>  <REMARK>
 VINA RESULT:      -7.5      0.000      0.000
  Name = 
  6 active torsions:
  status: ('A' for Active; 'I' for Inactive)
    1  A    between atoms: C_4  and  C_10
    2  A    between atoms: C_7  and  C_24
    3  A    between atoms: C_8  and  N_20
    4  A    between atoms: C_10  and  C_11
    5  A    between atoms: C_24  and  C_25
    6  A    between atoms: C_24  and  C_28
                            x       y       z     vdW  Elec       q    Type
                         _______ _______ _______ _____ _____    ______ ____

>  <TORSDO>
F 6

$$$$
=
 OpenBabel11062420573D

 31 35  0  0  1  0  0  0  0  0999 V2000
  191.1860  175.2380  143.1210 C   0  0  0  0  0  0  0  0  0  0  0  0
  189.8470  175.0390  143.2160 C   0  0  1  0  0  3  0  0  0  0  0  0
  194.0010  175.4620  143.3230 C   0  0  0  0  0  0  0  0  0  0  0  0
  189.2230  173.8350  141.1770 C   0  0  0  0  0  3  0  0  0  0  0  0
  191.7940  176.0570  144.0920 C   0  0  0  0  0  3  0  0  0  0  0  0
  190.3200  173.8870  140.4950 N   0  0  0  0  0  0  0  0  0  0  0  0
  193.4250  174.6800  142.3200 C   0  0  0  0  0  3  0  0  0  0  0  0
  192.0370  174.5820  142.1710 C   0  0  0  0  0  0  0  0  0  0  0  0
  189.2270  173.8010  142.6550 C   0  0  0  0  0  2  0  0  0  0  0  0
  193.1780  176.1700  144.1950 C   0  0  0  0  0  3  0  0  0  0  0  0
  191.6510  173.9940  141.0230 C   0  0  0  0  0  2  0  0  0  0  0  0
  186.3890  176.2570  143.4470 C   0  0  0  0  0  1  0  0  0  0  0  0
  187.2690  177.4430  143.8650 C   0  0  1  0  0  0  0  0  0  0  0  0
  188.8140  175.5420  145.4810 C   0  0  0  0  0  2  0  0  0  0  0  0
  189.0290  175.8740  144.0620 N   0  0  1  0  0  0  0  0  0  0  0  0
  187.5950  176.3010  146.0880 C   0  0  0  0  0  2  0  0  0  0  0  0
  187.2840  177.6630  145.3870 C   0  0  2  0  0  3  0  0  0  0  0  0
  188.8150  177.2860  143.7920 C   0  0  1  0  0  3  0  0  0  0  0  0
  188.0860  177.8020  142.6220 C   0  0  0  0  0  2  0  0  0  0  0  0
  185.9610  178.2570  145.8900 C   0  0  1  0  0  3  0  0  0  0  0  0
  185.8990  177.6850  148.2080 O   0  0  0  0  0  1  0  0  0  0  0  0
  186.2770  179.9010  147.7590 O   0  0  0  0  0  0  0  0  0  0  0  0
  186.0440  178.5930  147.3480 C   0  0  0  0  0  0  0  0  0  0  0  0
  184.2660  179.3040  144.3820 C   0  0  0  0  0  1  0  0  0  0  0  0
  185.5890  179.5050  145.0960 C   0  0  0  0  0  2  0  0  0  0  0  0
  196.0340  175.1460  144.8340 C   0  0  0  0  0  2  0  0  0  0  0  0
  195.4890  175.5240  143.4710 C   0  0  0  0  0  0  0  0  0  0  0  0
  196.1990  174.1980  143.6560 C   0  0  0  0  0  2  0  0  0  0  0  0
  196.2600  176.5750  142.7450 C   0  0  0  0  0  0  0  0  0  0  0  0
  197.2490  177.1280  143.2960 O   0  0  0  0  0  1  0  0  0  0  0  0
  195.9160  176.9160  141.4430 O   0  0  0  0  0  0  0  0  0  0  0  0
  1  2  1  0  0  0  0
  1  5  1  0  0  0  0
  2  9  1  1  0  0  0
  2 15  1  0  0  0  0
  3 27  1  0  0  0  0
  3 10  1  0  0  0  0
  4  9  1  0  0  0  0
  5 10  2  0  0  0  0
  6 11  1  0  0  0  0
  6  4  2  0  0  0  0
  7  3  2  0  0  0  0
  8  7  1  0  0  0  0
  8  1  2  0  0  0  0
 11  8  1  0  0  0  0
 13 12  1  6  0  0  0
 13 17  1  0  0  0  0
 14 16  1  0  0  0  0
 15 14  1  1  0  0  0
 17 20  1  1  0  0  0
 17 16  1  0  0  0  0
 18 19  1  6  0  0  0
 18 13  1  0  0  0  0
 18 15  1  0  0  0  0
 19 13  1  0  0  0  0
 20 25  1  6  0  0  0
 20 23  1  0  0  0  0
 23 22  2  0  0  0  0
 23 21  1  0  0  0  0
 24 25  1  0  0  0  0
 27 28  1  0  0  0  0
 27 26  1  0  0  0  0
 28 26  1  0  0  0  0
 29 30  1  0  0  0  0
 29 27  1  0  0  0  0
 31 29  2  0  0  0  0
M  END
>  <MODEL>
2

>  <REMARK>
 VINA RESULT:      -7.3      3.436      8.364
  Name = 
  6 active torsions:
  status: ('A' for Active; 'I' for Inactive)
    1  A    between atoms: C_4  and  C_10
    2  A    between atoms: C_7  and  C_24
    3  A    between atoms: C_8  and  N_20
    4  A    between atoms: C_10  and  C_11
    5  A    between atoms: C_24  and  C_25
    6  A    between atoms: C_24  and  C_28
                            x       y       z     vdW  Elec       q    Type
                         _______ _______ _______ _____ _____    ______ ____

>  <TORSDO>
F 6

$$$$
=
 OpenBabel11062420573D

 31 35  0  0  1  0  0  0  0  0999 V2000
  192.2830  174.4840  145.1490 C   0  0  0  0  0  0  0  0  0  0  0  0
  192.0260  175.7980  145.3680 C   0  0  1  0  0  3  0  0  0  0  0  0
  192.6720  171.8180  144.2790 C   0  0  0  0  0  0  0  0  0  0  0  0
  194.1110  176.7290  146.2550 C   0  0  0  0  0  3  0  0  0  0  0  0
  191.2000  173.6600  144.7860 C   0  0  0  0  0  3  0  0  0  0  0  0
  194.8190  175.6620  146.4360 N   0  0  0  0  0  0  0  0  0  0  0  0
  193.7600  172.5960  144.6790 C   0  0  0  0  0  3  0  0  0  0  0  0
  193.5950  173.9040  145.1510 C   0  0  0  0  0  0  0  0  0  0  0  0
  193.1010  176.8180  145.1780 C   0  0  0  0  0  2  0  0  0  0  0  0
  191.3870  172.3480  144.3580 C   0  0  0  0  0  3  0  0  0  0  0  0
  194.7000  174.4250  145.7170 C   0  0  0  0  0  2  0  0  0  0  0  0
  188.8070  175.8010  143.5970 C   0  0  0  0  0  1  0  0  0  0  0  0
  188.9160  177.1860  144.2500 C   0  0  1  0  0  0  0  0  0  0  0  0
  189.8460  175.8140  146.6710 C   0  0  0  0  0  2  0  0  0  0  0  0
  190.6750  176.2730  145.5430 N   0  0  1  0  0  0  0  0  0  0  0  0
  188.3300  176.0980  146.4460 C   0  0  0  0  0  2  0  0  0  0  0  0
  188.0470  177.3190  145.5110 C   0  0  2  0  0  3  0  0  0  0  0  0
  190.2220  177.5490  145.0150 C   0  0  1  0  0  3  0  0  0  0  0  0
  190.1160  177.8590  143.5800 C   0  0  0  0  0  2  0  0  0  0  0  0
  186.5540  177.4190  145.1670 C   0  0  1  0  0  3  0  0  0  0  0  0
  184.8030  176.7040  146.6240 O   0  0  0  0  0  0  0  0  0  0  0  0
  185.9590  178.5560  147.3220 O   0  0  0  0  0  1  0  0  0  0  0  0
  185.7230  177.5350  146.4080 C   0  0  0  0  0  0  0  0  0  0  0  0
  185.3430  178.2220  143.1340 C   0  0  0  0  0  1  0  0  0  0  0  0
  186.2860  178.6130  144.2560 C   0  0  0  0  0  2  0  0  0  0  0  0
  191.9850  170.0110  142.6130 C   0  0  0  0  0  2  0  0  0  0  0  0
  192.8870  170.4330  143.7540 C   0  0  0  0  0  0  0  0  0  0  0  0
  193.4500  170.3290  142.3510 C   0  0  0  0  0  2  0  0  0  0  0  0
  193.2820  169.3410  144.6920 C   0  0  0  0  0  0  0  0  0  0  0  0
  192.7040  168.2230  144.6400 O   0  0  0  0  0  0  0  0  0  0  0  0
  194.3170  169.5410  145.5970 O   0  0  0  0  0  1  0  0  0  0  0  0
  1  8  1  0  0  0  0
  1  2  1  0  0  0  0
  2  9  1  6  0  0  0
  2 15  1  0  0  0  0
  3 10  2  0  0  0  0
  3  7  1  0  0  0  0
  4  6  2  0  0  0  0
  5  1  2  0  0  0  0
  7  8  2  0  0  0  0
  8 11  1  0  0  0  0
  9  4  1  0  0  0  0
 10  5  1  0  0  0  0
 11  6  1  0  0  0  0
 13 12  1  6  0  0  0
 13 18  1  0  0  0  0
 13 17  1  0  0  0  0
 15 14  1  1  0  0  0
 16 14  1  0  0  0  0
 17 20  1  6  0  0  0
 17 16  1  0  0  0  0
 18 19  1  6  0  0  0
 18 15  1  0  0  0  0
 19 13  1  0  0  0  0
 20 25  1  6  0  0  0
 20 23  1  0  0  0  0
 23 21  2  0  0  0  0
 23 22  1  0  0  0  0
 24 25  1  0  0  0  0
 26 27  1  0  0  0  0
 27  3  1  0  0  0  0
 27 29  1  0  0  0  0
 28 26  1  0  0  0  0
 28 27  1  0  0  0  0
 29 31  1  0  0  0  0
 30 29  2  0  0  0  0
M  END
>  <MODEL>
3

>  <REMARK>
 VINA RESULT:      -7.3      3.511      8.209
  Name = 
  6 active torsions:
  status: ('A' for Active; 'I' for Inactive)
    1  A    between atoms: C_4  and  C_10
    2  A    between atoms: C_7  and  C_24
    3  A    between atoms: C_8  and  N_20
    4  A    between atoms: C_10  and  C_11
    5  A    between atoms: C_24  and  C_25
    6  A    between atoms: C_24  and  C_28
                            x       y       z     vdW  Elec       q    Type
                         _______ _______ _______ _____ _____    ______ ____

>  <TORSDO>
F 6

$$$$
=
 OpenBabel11062420573D

 31 35  0  0  1  0  0  0  0  0999 V2000
  191.0540  175.3430  142.9240 C   0  0  0  0  0  0  0  0  0  0  0  0
  189.7080  175.2000  143.0140 C   0  0  1  0  0  3  0  0  0  0  0  0
  193.8720  175.4860  143.1520 C   0  0  0  0  0  0  0  0  0  0  0  0
  189.0670  173.8470  141.0750 C   0  0  0  0  0  3  0  0  0  0  0  0
  191.6780  176.2210  143.8300 C   0  0  0  0  0  3  0  0  0  0  0  0
  190.1740  173.8010  140.4100 N   0  0  0  0  0  0  0  0  0  0  0  0
  193.2820  174.6410  142.2100 C   0  0  0  0  0  3  0  0  0  0  0  0
  191.8930  174.5780  142.0470 C   0  0  0  0  0  0  0  0  0  0  0  0
  189.0510  173.9400  142.5510 C   0  0  0  0  0  2  0  0  0  0  0  0
  193.0630  176.2950  143.9460 C   0  0  0  0  0  3  0  0  0  0  0  0
  191.5010  173.9070  140.9480 C   0  0  0  0  0  2  0  0  0  0  0  0
  186.2200  176.3230  143.2900 C   0  0  0  0  0  1  0  0  0  0  0  0
  187.0720  177.5890  143.4510 C   0  0  1  0  0  0  0  0  0  0  0  0
  188.8000  176.0290  145.2360 C   0  0  0  0  0  2  0  0  0  0  0  0
  188.9090  176.1330  143.7710 N   0  0  1  0  0  0  0  0  0  0  0  0
  187.5900  176.8340  145.7990 C   0  0  0  0  0  2  0  0  0  0  0  0
  187.1740  178.0540  144.9130 C   0  0  2  0  0  3  0  0  0  0  0  0
  188.6160  177.4750  143.2950 C   0  0  1  0  0  3  0  0  0  0  0  0
  187.7910  177.7700  142.1120 C   0  0  0  0  0  2  0  0  0  0  0  0
  185.8620  178.6770  145.4070 C   0  0  1  0  0  3  0  0  0  0  0  0
  185.6650  180.5300  143.9150 O   0  0  0  0  0  1  0  0  0  0  0  0
  184.0180  178.9470  143.7280 O   0  0  0  0  0  0  0  0  0  0  0  0
  185.1810  179.4380  144.3100 C   0  0  0  0  0  0  0  0  0  0  0  0
  184.2550  178.0800  147.2270 C   0  0  0  0  0  1  0  0  0  0  0  0
  184.9210  177.6050  145.9490 C   0  0  0  0  0  2  0  0  0  0  0  0
  195.8760  175.1350  144.6930 C   0  0  0  0  0  2  0  0  0  0  0  0
  195.3590  175.5080  143.3190 C   0  0  0  0  0  0  0  0  0  0  0  0
  196.0290  174.1650  143.5300 C   0  0  0  0  0  2  0  0  0  0  0  0
  196.1690  176.5280  142.5880 C   0  0  0  0  0  0  0  0  0  0  0  0
  195.8270  176.8960  141.4330 O   0  0  0  0  0  0  0  0  0  0  0  0
  197.2760  177.1030  143.1970 O   0  0  0  0  0  1  0  0  0  0  0  0
  1  2  1  0  0  0  0
  1  5  1  0  0  0  0
  2  9  1  1  0  0  0
  2 15  1  0  0  0  0
  3 27  1  0  0  0  0
  3 10  1  0  0  0  0
  4  9  1  0  0  0  0
  5 10  2  0  0  0  0
  6 11  1  0  0  0  0
  6  4  2  0  0  0  0
  7  3  2  0  0  0  0
  8  7  1  0  0  0  0
  8  1  2  0  0  0  0
 11  8  1  0  0  0  0
 13 12  1  1  0  0  0
 13 17  1  0  0  0  0
 14 16  1  0  0  0  0
 15 14  1  1  0  0  0
 17 20  1  1  0  0  0
 17 16  1  0  0  0  0
 18 19  1  6  0  0  0
 18 13  1  0  0  0  0
 18 15  1  0  0  0  0
 19 13  1  0  0  0  0
 20 25  1  6  0  0  0
 21 23  1  0  0  0  0
 22 23  2  0  0  0  0
 23 20  1  0  0  0  0
 25 24  1  0  0  0  0
 27 28  1  0  0  0  0
 27 26  1  0  0  0  0
 28 26  1  0  0  0  0
 29 31  1  0  0  0  0
 29 27  1  0  0  0  0
 30 29  2  0  0  0  0
M  END
>  <MODEL>
4

>  <REMARK>
 VINA RESULT:      -7.3      3.226      8.175
  Name = 
  6 active torsions:
  status: ('A' for Active; 'I' for Inactive)
    1  A    between atoms: C_4  and  C_10
    2  A    between atoms: C_7  and  C_24
    3  A    between atoms: C_8  and  N_20
    4  A    between atoms: C_10  and  C_11
    5  A    between atoms: C_24  and  C_25
    6  A    between atoms: C_24  and  C_28
                            x       y       z     vdW  Elec       q    Type
                         _______ _______ _______ _____ _____    ______ ____

>  <TORSDO>
F 6

$$$$
=
 OpenBabel11062420573D

 31 35  0  0  1  0  0  0  0  0999 V2000
  186.6060  177.6300  144.8890 C   0  0  0  0  0  0  0  0  0  0  0  0
  187.3610  177.2260  145.9410 C   0  0  1  0  0  3  0  0  0  0  0  0
  185.0540  178.0520  142.5590 C   0  0  0  0  0  0  0  0  0  0  0  0
  186.1350  177.9460  147.9350 C   0  0  0  0  0  3  0  0  0  0  0  0
  187.1550  177.4890  143.6000 C   0  0  0  0  0  3  0  0  0  0  0  0
  185.1970  178.6720  147.4190 N   0  0  0  0  0  0  0  0  0  0  0  0
  184.4960  178.2460  143.8230 C   0  0  0  0  0  3  0  0  0  0  0  0
  185.2490  178.0840  144.9920 C   0  0  0  0  0  0  0  0  0  0  0  0
  186.7090  176.7910  147.2130 C   0  0  0  0  0  2  0  0  0  0  0  0
  186.3960  177.6950  142.4510 C   0  0  0  0  0  3  0  0  0  0  0  0
  184.6390  178.5390  146.1030 C   0  0  0  0  0  2  0  0  0  0  0  0
  189.6090  174.7400  144.4360 C   0  0  0  0  0  1  0  0  0  0  0  0
  190.2660  175.1340  145.7660 C   0  0  1  0  0  0  0  0  0  0  0  0
  189.6480  177.9200  145.0820 C   0  0  0  0  0  2  0  0  0  0  0  0
  188.7720  176.9690  145.7890 N   0  0  1  0  0  0  0  0  0  0  0  0
  191.0050  177.2760  144.6630 C   0  0  0  0  0  2  0  0  0  0  0  0
  191.4540  176.0920  145.5800 C   0  0  2  0  0  3  0  0  0  0  0  0
  189.5140  176.1200  146.7060 C   0  0  1  0  0  3  0  0  0  0  0  0
  189.2930  174.6720  146.8530 C   0  0  0  0  0  2  0  0  0  0  0  0
  192.6800  175.3750  145.0000 C   0  0  1  0  0  3  0  0  0  0  0  0
  194.4680  176.4150  143.8060 O   0  0  0  0  0  0  0  0  0  0  0  0
  194.2570  177.0510  145.9980 O   0  0  0  0  0  1  0  0  0  0  0  0
  193.8490  176.3070  144.8970 C   0  0  0  0  0  0  0  0  0  0  0  0
  193.0660  172.9060  145.0120 C   0  0  0  0  0  1  0  0  0  0  0  0
  193.0590  174.1690  145.8530 C   0  0  0  0  0  2  0  0  0  0  0  0
  184.8150  179.0410  140.2180 C   0  0  0  0  0  2  0  0  0  0  0  0
  184.2130  178.2070  141.3300 C   0  0  0  0  0  0  0  0  0  0  0  0
  184.7270  177.5280  140.0770 C   0  0  0  0  0  2  0  0  0  0  0  0
  182.7280  178.2920  141.4580 C   0  0  0  0  0  0  0  0  0  0  0  0
  182.2100  178.7530  142.5090 O   0  0  0  0  0  1  0  0  0  0  0  0
  181.9150  177.9010  140.4020 O   0  0  0  0  0  0  0  0  0  0  0  0
  1  8  1  0  0  0  0
  1  2  1  0  0  0  0
  2  9  1  6  0  0  0
  3  7  1  0  0  0  0
  5  1  2  0  0  0  0
  6  4  2  0  0  0  0
  7  8  2  0  0  0  0
  8 11  1  0  0  0  0
  9  4  1  0  0  0  0
 10  3  2  0  0  0  0
 10  5  1  0  0  0  0
 11  6  1  0  0  0  0
 13 12  1  6  0  0  0
 13 18  1  0  0  0  0
 13 19  1  0  0  0  0
 15 14  1  1  0  0  0
 15  2  1  0  0  0  0
 15 18  1  0  0  0  0
 16 14  1  0  0  0  0
 16 17  1  0  0  0  0
 17 20  1  6  0  0  0
 17 13  1  0  0  0  0
 18 19  1  1  0  0  0
 20 25  1  1  0  0  0
 21 23  2  0  0  0  0
 23 20  1  0  0  0  0
 23 22  1  0  0  0  0
 24 25  1  0  0  0  0
 26 27  1  0  0  0  0
 27 29  1  0  0  0  0
 27  3  1  0  0  0  0
 28 26  1  0  0  0  0
 28 27  1  0  0  0  0
 29 30  1  0  0  0  0
 31 29  2  0  0  0  0
M  END
>  <MODEL>
5

>  <REMARK>
 VINA RESULT:      -7.1      3.689      5.543
  Name = 
  6 active torsions:
  status: ('A' for Active; 'I' for Inactive)
    1  A    between atoms: C_4  and  C_10
    2  A    between atoms: C_7  and  C_24
    3  A    between atoms: C_8  and  N_20
    4  A    between atoms: C_10  and  C_11
    5  A    between atoms: C_24  and  C_25
    6  A    between atoms: C_24  and  C_28
                            x       y       z     vdW  Elec       q    Type
                         _______ _______ _______ _____ _____    ______ ____

>  <TORSDO>
F 6

$$$$
=
 OpenBabel11062420573D

 31 35  0  0  1  0  0  0  0  0999 V2000
  189.0150  175.8180  144.1330 C   0  0  0  0  0  0  0  0  0  0  0  0
  189.9770  175.2850  143.3370 C   0  0  1  0  0  3  0  0  0  0  0  0
  187.2370  177.3100  145.7530 C   0  0  0  0  0  0  0  0  0  0  0  0
  188.7750  174.2340  141.4800 C   0  0  0  0  0  3  0  0  0  0  0  0
  189.4170  176.3510  145.3720 C   0  0  0  0  0  3  0  0  0  0  0  0
  187.5470  174.3270  141.8750 N   0  0  0  0  0  0  0  0  0  0  0  0
  186.7980  176.7530  144.5510 C   0  0  0  0  0  3  0  0  0  0  0  0
  187.6420  175.9770  143.7480 C   0  0  0  0  0  0  0  0  0  0  0  0
  189.7900  175.2410  141.8550 C   0  0  0  0  0  2  0  0  0  0  0  0
  188.5460  177.0850  146.1730 C   0  0  0  0  0  3  0  0  0  0  0  0
  187.0070  175.3210  142.7600 C   0  0  0  0  0  2  0  0  0  0  0  0
  192.8450  176.9850  144.8800 C   0  0  0  0  0  1  0  0  0  0  0  0
  193.4500  175.9350  143.9380 C   0  0  1  0  0  0  0  0  0  0  0  0
  191.4600  174.0520  144.9900 C   0  0  0  0  0  2  0  0  0  0  0  0
  191.2870  174.9780  143.8580 N   0  0  1  0  0  0  0  0  0  0  0  0
  192.8630  174.1870  145.6560 C   0  0  0  0  0  2  0  0  0  0  0  0
  193.9780  174.6990  144.6860 C   0  0  2  0  0  3  0  0  0  0  0  0
  192.4920  175.0880  143.0520 C   0  0  1  0  0  3  0  0  0  0  0  0
  193.0240  176.3570  142.5300 C   0  0  0  0  0  2  0  0  0  0  0  0
  195.2770  175.0030  145.4450 C   0  0  1  0  0  3  0  0  0  0  0  0
  197.0280  173.7840  146.5160 O   0  0  0  0  0  1  0  0  0  0  0  0
  195.6130  172.5280  145.2230 O   0  0  0  0  0  0  0  0  0  0  0  0
  196.0220  173.7430  145.7600 C   0  0  0  0  0  0  0  0  0  0  0  0
  196.7320  175.2260  143.4250 C   0  0  0  0  0  1  0  0  0  0  0  0
  196.1700  175.9410  144.6390 C   0  0  0  0  0  2  0  0  0  0  0  0
  185.9420  177.6010  147.9330 C   0  0  0  0  0  2  0  0  0  0  0  0
  186.3150  178.1560  146.5740 C   0  0  0  0  0  0  0  0  0  0  0  0
  186.9080  178.7710  147.8260 C   0  0  0  0  0  2  0  0  0  0  0  0
  185.2520  178.9580  145.9000 C   0  0  0  0  0  0  0  0  0  0  0  0
  185.5670  179.8650  145.0840 O   0  0  0  0  0  0  0  0  0  0  0  0
  183.9130  178.6790  146.1380 O   0  0  0  0  0  1  0  0  0  0  0  0
  1  5  1  0  0  0  0
  2  9  1  6  0  0  0
  2 15  1  0  0  0  0
  2  1  1  0  0  0  0
  3 10  1  0  0  0  0
  3 27  1  0  0  0  0
  4  9  1  0  0  0  0
  4  6  2  0  0  0  0
  5 10  2  0  0  0  0
  6 11  1  0  0  0  0
  7  3  2  0  0  0  0
  8  1  2  0  0  0  0
  8  7  1  0  0  0  0
 11  8  1  0  0  0  0
 13 17  1  0  0  0  0
 13 12  1  1  0  0  0
 14 16  1  0  0  0  0
 15 14  1  6  0  0  0
 17 20  1  1  0  0  0
 17 16  1  0  0  0  0
 18 19  1  6  0  0  0
 18 15  1  0  0  0  0
 18 13  1  0  0  0  0
 19 13  1  0  0  0  0
 20 25  1  6  0  0  0
 20 23  1  0  0  0  0
 22 23  2  0  0  0  0
 23 21  1  0  0  0  0
 24 25  1  0  0  0  0
 27 28  1  0  0  0  0
 27 26  1  0  0  0  0
 28 26  1  0  0  0  0
 29 31  1  0  0  0  0
 29 27  1  0  0  0  0
 30 29  2  0  0  0  0
M  END
>  <MODEL>
6

>  <REMARK>
 VINA RESULT:      -7.1      3.493      5.566
  Name = 
  6 active torsions:
  status: ('A' for Active; 'I' for Inactive)
    1  A    between atoms: C_4  and  C_10
    2  A    between atoms: C_7  and  C_24
    3  A    between atoms: C_8  and  N_20
    4  A    between atoms: C_10  and  C_11
    5  A    between atoms: C_24  and  C_25
    6  A    between atoms: C_24  and  C_28
                            x       y       z     vdW  Elec       q    Type
                         _______ _______ _______ _____ _____    ______ ____

>  <TORSDO>
F 6

$$$$
=
 OpenBabel11062420573D

 31 35  0  0  1  0  0  0  0  0999 V2000
  188.6520  175.8310  144.3000 C   0  0  0  0  0  0  0  0  0  0  0  0
  189.5640  174.8470  144.5050 C   0  0  1  0  0  3  0  0  0  0  0  0
  186.4760  177.5580  143.7530 C   0  0  0  0  0  0  0  0  0  0  0  0
  190.3680  175.1730  146.7960 C   0  0  0  0  0  3  0  0  0  0  0  0
  188.1410  175.9850  142.9980 C   0  0  0  0  0  3  0  0  0  0  0  0
  189.8280  176.3060  147.1050 N   0  0  0  0  0  0  0  0  0  0  0  0
  186.9940  177.4620  145.0460 C   0  0  0  0  0  3  0  0  0  0  0  0
  188.0940  176.6470  145.3390 C   0  0  0  0  0  0  0  0  0  0  0  0
  189.7180  174.2320  145.8590 C   0  0  0  0  0  2  0  0  0  0  0  0
  187.0710  176.8320  142.7240 C   0  0  0  0  0  3  0  0  0  0  0  0
  188.6140  176.8510  146.5640 C   0  0  0  0  0  2  0  0  0  0  0  0
  188.7780  173.4940  141.1810 C   0  0  0  0  0  1  0  0  0  0  0  0
  189.7920  172.5170  141.7910 C   0  0  1  0  0  0  0  0  0  0  0  0
  191.3150  174.8680  142.6660 C   0  0  0  0  0  2  0  0  0  0  0  0
  190.2230  174.2010  143.3970 N   0  0  1  0  0  0  0  0  0  0  0  0
  191.5900  174.2070  141.2810 C   0  0  0  0  0  2  0  0  0  0  0  0
  191.2060  172.6930  141.2140 C   0  0  2  0  0  3  0  0  0  0  0  0
  190.2710  172.7560  143.2520 C   0  0  1  0  0  3  0  0  0  0  0  0
  189.0910  171.9100  143.0090 C   0  0  0  0  0  2  0  0  0  0  0  0
  191.3080  172.1580  139.7790 C   0  0  1  0  0  3  0  0  0  0  0  0
  192.8490  173.0990  138.2170 O   0  0  0  0  0  0  0  0  0  0  0  0
  193.7820  171.7460  139.8150 O   0  0  0  0  0  1  0  0  0  0  0  0
  192.6850  172.3640  139.2260 C   0  0  0  0  0  0  0  0  0  0  0  0
  189.9700  170.4080  138.5990 C   0  0  0  0  0  1  0  0  0  0  0  0
  190.9490  170.6760  139.7250 C   0  0  0  0  0  2  0  0  0  0  0  0
  184.4050  178.7300  144.6750 C   0  0  0  0  0  2  0  0  0  0  0  0
  185.2820  178.4170  143.4800 C   0  0  0  0  0  0  0  0  0  0  0  0
  185.3050  179.8060  144.0860 C   0  0  0  0  0  2  0  0  0  0  0  0
  184.5640  178.2910  142.1780 C   0  0  0  0  0  0  0  0  0  0  0  0
  183.3610  177.9190  142.1530 O   0  0  0  0  0  1  0  0  0  0  0  0
  185.2080  178.6240  140.9930 O   0  0  0  0  0  0  0  0  0  0  0  0
  1  2  1  0  0  0  0
  1  8  1  0  0  0  0
  2  9  1  6  0  0  0
  3  7  1  0  0  0  0
  4  6  2  0  0  0  0
  5  1  2  0  0  0  0
  7  8  2  0  0  0  0
  8 11  1  0  0  0  0
  9  4  1  0  0  0  0
 10  5  1  0  0  0  0
 10  3  2  0  0  0  0
 11  6  1  0  0  0  0
 13 12  1  6  0  0  0
 13 19  1  0  0  0  0
 13 18  1  0  0  0  0
 15 14  1  1  0  0  0
 15  2  1  0  0  0  0
 16 14  1  0  0  0  0
 17 20  1  6  0  0  0
 17 16  1  0  0  0  0
 17 13  1  0  0  0  0
 18 19  1  1  0  0  0
 18 15  1  0  0  0  0
 20 25  1  1  0  0  0
 21 23  2  0  0  0  0
 23 20  1  0  0  0  0
 23 22  1  0  0  0  0
 24 25  1  0  0  0  0
 27  3  1  0  0  0  0
 27 28  1  0  0  0  0
 27 26  1  0  0  0  0
 28 26  1  0  0  0  0
 29 27  1  0  0  0  0
 30 29  1  0  0  0  0
 31 29  2  0  0  0  0
M  END
>  <MODEL>
7

>  <REMARK>
 VINA RESULT:      -7.0      1.675      2.048
  Name = 
  6 active torsions:
  status: ('A' for Active; 'I' for Inactive)
    1  A    between atoms: C_4  and  C_10
    2  A    between atoms: C_7  and  C_24
    3  A    between atoms: C_8  and  N_20
    4  A    between atoms: C_10  and  C_11
    5  A    between atoms: C_24  and  C_25
    6  A    between atoms: C_24  and  C_28
                            x       y       z     vdW  Elec       q    Type
                         _______ _______ _______ _____ _____    ______ ____

>  <TORSDO>
F 6

$$$$
=
 OpenBabel11062420573D

 31 35  0  0  1  0  0  0  0  0999 V2000
  191.3160  175.2240  142.3970 C   0  0  0  0  0  0  0  0  0  0  0  0
  190.0030  174.8870  142.3390 C   0  0  1  0  0  3  0  0  0  0  0  0
  194.0350  175.7950  142.9420 C   0  0  0  0  0  0  0  0  0  0  0  0
  189.8070  173.3580  140.4370 C   0  0  0  0  0  3  0  0  0  0  0  0
  191.6910  176.2300  143.3080 C   0  0  0  0  0  3  0  0  0  0  0  0
  190.9850  173.4430  139.9090 N   0  0  0  0  0  0  0  0  0  0  0  0
  193.6930  174.8250  141.9980 C   0  0  0  0  0  3  0  0  0  0  0  0
  192.3580  174.5490  141.6790 C   0  0  0  0  0  0  0  0  0  0  0  0
  189.5940  173.5220  141.8900 C   0  0  0  0  0  2  0  0  0  0  0  0
  193.0270  176.5140  143.5790 C   0  0  0  0  0  3  0  0  0  0  0  0
  192.2060  173.7720  140.5900 C   0  0  0  0  0  2  0  0  0  0  0  0
  189.6870  177.5040  144.8990 C   0  0  0  0  0  1  0  0  0  0  0  0
  188.4320  176.6330  145.0470 C   0  0  1  0  0  0  0  0  0  0  0  0
  188.2240  176.6870  142.1200 C   0  0  0  0  0  2  0  0  0  0  0  0
  188.9930  175.7280  142.9330 N   0  0  1  0  0  0  0  0  0  0  0  0
  187.5140  177.7670  142.9920 C   0  0  0  0  0  2  0  0  0  0  0  0
  187.1790  177.2900  144.4420 C   0  0  2  0  0  3  0  0  0  0  0  0
  188.2940  175.3650  144.1550 C   0  0  1  0  0  3  0  0  0  0  0  0
  188.9400  175.2550  145.4740 C   0  0  0  0  0  2  0  0  0  0  0  0
  186.6720  178.4530  145.3060 C   0  0  1  0  0  3  0  0  0  0  0  0
  184.4060  178.4300  144.5540 O   0  0  0  0  0  1  0  0  0  0  0  0
  185.5110  180.4170  144.2620 O   0  0  0  0  0  0  0  0  0  0  0  0
  185.4670  179.0940  144.6890 C   0  0  0  0  0  0  0  0  0  0  0  0
  185.9700  179.1550  147.5990 C   0  0  0  0  0  1  0  0  0  0  0  0
  186.3360  177.9780  146.7160 C   0  0  0  0  0  2  0  0  0  0  0  0
  195.7290  176.7500  144.5950 C   0  0  0  0  0  2  0  0  0  0  0  0
  195.4720  176.0460  143.2780 C   0  0  0  0  0  0  0  0  0  0  0  0
  196.0310  175.2660  144.4510 C   0  0  0  0  0  2  0  0  0  0  0  0
  196.4420  176.3590  142.1880 C   0  0  0  0  0  0  0  0  0  0  0  0
  196.1190  177.1520  141.2640 O   0  0  0  0  0  0  0  0  0  0  0  0
  197.7170  175.8100  142.2120 O   0  0  0  0  0  1  0  0  0  0  0  0
  1  5  1  0  0  0  0
  2  9  1  1  0  0  0
  2  1  1  0  0  0  0
  2 15  1  0  0  0  0
  3 27  1  0  0  0  0
  3 10  1  0  0  0  0
  4  9  1  0  0  0  0
  5 10  2  0  0  0  0
  6  4  2  0  0  0  0
  6 11  1  0  0  0  0
  7  3  2  0  0  0  0
  8  7  1  0  0  0  0
  8  1  2  0  0  0  0
 11  8  1  0  0  0  0
 13 12  1  6  0  0  0
 13 19  1  0  0  0  0
 14 16  1  0  0  0  0
 15 14  1  6  0  0  0
 15 18  1  0  0  0  0
 16 17  1  0  0  0  0
 17 13  1  0  0  0  0
 17 20  1  1  0  0  0
 18 13  1  0  0  0  0
 18 19  1  1  0  0  0
 20 25  1  1  0  0  0
 21 23  1  0  0  0  0
 22 23  2  0  0  0  0
 23 20  1  0  0  0  0
 25 24  1  0  0  0  0
 27 28  1  0  0  0  0
 27 26  1  0  0  0  0
 28 26  1  0  0  0  0
 29 31  1  0  0  0  0
 29 27  1  0  0  0  0
 30 29  2  0  0  0  0
M  END
>  <MODEL>
8

>  <REMARK>
 VINA RESULT:      -7.0      3.242      8.168
  Name = 
  6 active torsions:
  status: ('A' for Active; 'I' for Inactive)
    1  A    between atoms: C_4  and  C_10
    2  A    between atoms: C_7  and  C_24
    3  A    between atoms: C_8  and  N_20
    4  A    between atoms: C_10  and  C_11
    5  A    between atoms: C_24  and  C_25
    6  A    between atoms: C_24  and  C_28
                            x       y       z     vdW  Elec       q    Type
                         _______ _______ _______ _____ _____    ______ ____

>  <TORSDO>
F 6

$$$$
=
 OpenBabel11062420573D

 31 35  0  0  1  0  0  0  0  0999 V2000
  190.8830  174.7730  142.5470 C   0  0  0  0  0  0  0  0  0  0  0  0
  190.8560  175.9810  143.1640 C   0  0  1  0  0  3  0  0  0  0  0  0
  190.7490  172.4610  140.9190 C   0  0  0  0  0  0  0  0  0  0  0  0
  193.1600  176.3970  143.8820 C   0  0  0  0  0  3  0  0  0  0  0  0
  189.6510  174.2040  142.1730 C   0  0  0  0  0  3  0  0  0  0  0  0
  193.7230  175.2610  143.6300 N   0  0  0  0  0  0  0  0  0  0  0  0
  191.9850  172.9750  141.3140 C   0  0  0  0  0  3  0  0  0  0  0  0
  192.0830  174.0930  142.1510 C   0  0  0  0  0  0  0  0  0  0  0  0
  192.0300  176.9010  143.0730 C   0  0  0  0  0  2  0  0  0  0  0  0
  189.5800  173.0670  141.3720 C   0  0  0  0  0  3  0  0  0  0  0  0
  193.3220  174.3110  142.6300 C   0  0  0  0  0  2  0  0  0  0  0  0
  187.2650  176.0740  142.3930 C   0  0  0  0  0  1  0  0  0  0  0  0
  187.6010  177.4670  142.9430 C   0  0  1  0  0  0  0  0  0  0  0  0
  189.1460  176.1110  145.0370 C   0  0  0  0  0  2  0  0  0  0  0  0
  189.6280  176.5120  143.7050 N   0  0  1  0  0  0  0  0  0  0  0  0
  187.6380  176.4490  145.2480 C   0  0  0  0  0  2  0  0  0  0  0  0
  187.1360  177.6600  144.3960 C   0  0  2  0  0  3  0  0  0  0  0  0
  189.0830  177.7940  143.2890 C   0  0  1  0  0  3  0  0  0  0  0  0
  188.5780  178.0770  141.9360 C   0  0  0  0  0  2  0  0  0  0  0  0
  185.6120  177.8120  144.4920 C   0  0  1  0  0  3  0  0  0  0  0  0
  184.3460  177.4660  146.4870 O   0  0  0  0  0  0  0  0  0  0  0  0
  185.7360  179.2880  146.5160 O   0  0  0  0  0  1  0  0  0  0  0  0
  185.1950  178.1740  145.8840 C   0  0  0  0  0  0  0  0  0  0  0  0
  183.9570  178.3240  142.6910 C   0  0  0  0  0  1  0  0  0  0  0  0
  185.1080  178.8680  143.5140 C   0  0  0  0  0  2  0  0  0  0  0  0
  189.7310  171.4080  138.8290 C   0  0  0  0  0  2  0  0  0  0  0  0
  190.6820  171.2810  140.0010 C   0  0  0  0  0  0  0  0  0  0  0  0
  191.2340  171.4850  138.6050 C   0  0  0  0  0  2  0  0  0  0  0  0
  190.8250  169.9030  140.5590 C   0  0  0  0  0  0  0  0  0  0  0  0
  191.0850  168.9360  139.7950 O   0  0  0  0  0  0  0  0  0  0  0  0
  190.7150  169.6920  141.9270 O   0  0  0  0  0  1  0  0  0  0  0  0
  1  2  1  0  0  0  0
  2  9  1  6  0  0  0
  2 15  1  0  0  0  0
  3  7  2  0  0  0  0
  3 10  1  0  0  0  0
  5  1  1  0  0  0  0
  6  4  2  0  0  0  0
  7  8  1  0  0  0  0
  8  1  2  0  0  0  0
  8 11  1  0  0  0  0
  9  4  1  0  0  0  0
 10  5  2  0  0  0  0
 11  6  1  0  0  0  0
 13 12  1  6  0  0  0
 13 18  1  0  0  0  0
 13 17  1  0  0  0  0
 14 16  1  0  0  0  0
 15 14  1  1  0  0  0
 17 20  1  6  0  0  0
 17 16  1  0  0  0  0
 18 19  1  6  0  0  0
 18 15  1  0  0  0  0
 19 13  1  0  0  0  0
 20 25  1  6  0  0  0
 20 23  1  0  0  0  0
 23 21  2  0  0  0  0
 23 22  1  0  0  0  0
 24 25  1  0  0  0  0
 26 27  1  0  0  0  0
 27 29  1  0  0  0  0
 27  3  1  0  0  0  0
 28 26  1  0  0  0  0
 28 27  1  0  0  0  0
 29 31  1  0  0  0  0
 30 29  2  0  0  0  0
M  END
>  <MODEL>
9

>  <REMARK>
 VINA RESULT:      -6.9      2.328      7.916
  Name = 
  6 active torsions:
  status: ('A' for Active; 'I' for Inactive)
    1  A    between atoms: C_4  and  C_10
    2  A    between atoms: C_7  and  C_24
    3  A    between atoms: C_8  and  N_20
    4  A    between atoms: C_10  and  C_11
    5  A    between atoms: C_24  and  C_25
    6  A    between atoms: C_24  and  C_28
                            x       y       z     vdW  Elec       q    Type
                         _______ _______ _______ _____ _____    ______ ____

>  <TORSDO>
F 6

$$$$
