=
 OpenBabel11062419523D

 30 34  0  0  0  0  0  0  0  0999 V2000
  184.5930  178.2280  143.8090 C   0  0  0  0  0  0  0  0  0  0  0  0
  186.4130  177.8270  145.7810 C   0  0  0  0  0  0  0  0  0  0  0  0
  186.4550  178.3250  147.9580 N   0  0  0  0  0  0  0  0  0  0  0  0
  185.2640  178.4220  146.1120 C   0  0  0  0  0  0  0  0  0  0  0  0
  186.7760  177.4050  144.5370 C   0  0  0  0  0  0  0  0  0  0  0  0
  188.8630  176.7150  145.4870 C   0  0  0  0  0  0  0  0  0  0  0  0
  185.8420  177.6040  143.5040 C   0  0  0  0  0  3  0  0  0  0  0  0
  185.3190  178.7280  147.5100 N   0  0  0  0  0  0  0  0  0  0  0  0
  188.4510  177.1810  146.7780 C   0  0  0  0  0  3  0  0  0  0  0  0
  184.2920  178.6560  145.1360 C   0  0  0  0  0  3  0  0  0  0  0  0
  188.0120  176.8420  144.3990 N   0  0  0  0  0  0  0  0  0  0  0  0
  187.1790  177.7430  146.8680 C   0  0  0  0  0  0  0  0  0  0  0  0
  192.9710  174.8390  145.4670 C   0  0  0  0  0  3  0  0  0  0  0  0
  192.8550  175.2300  144.0400 C   0  0  0  0  0  0  0  0  0  0  0  0
  192.2270  175.3640  146.4440 C   0  0  0  0  0  3  0  0  0  0  0  0
  191.2600  176.4890  146.2110 C   0  0  0  0  0  2  0  0  0  0  0  0
  190.3550  175.1710  144.2090 C   0  0  0  0  0  2  0  0  0  0  0  0
  190.1600  176.1180  145.3100 N   0  0  0  0  0  0  0  0  0  0  0  0
  191.6470  175.4050  143.4800 C   0  0  0  0  0  3  0  0  0  0  0  0
  196.3720  175.5840  144.0820 C   0  0  0  0  0  2  0  0  0  0  0  0
  195.2660  174.6300  143.6110 C   0  0  0  0  0  2  0  0  0  0  0  0
  195.0570  176.5350  141.3300 C   0  0  0  0  0  3  0  0  0  0  0  0
  193.9870  176.0690  141.9840 C   0  0  0  0  0  3  0  0  0  0  0  0
  194.0470  175.3530  143.2350 N   0  0  0  0  0  0  0  0  0  0  0  0
  196.4620  176.3950  141.8280 C   0  0  0  0  0  2  0  0  0  0  0  0
  196.5200  176.7730  143.2360 N   0  0  0  0  0  2  0  0  0  0  0  0
  183.6030  178.4610  142.7170 C   0  0  0  0  0  2  0  0  0  0  0  0
  184.2300  178.2330  141.3480 C   0  0  0  0  0  2  0  0  0  0  0  0
  183.1740  177.9190  140.3000 C   0  0  0  0  0  2  0  0  0  0  0  0
  181.9180  178.3240  140.7530 O   0  0  0  0  0  1  0  0  0  0  0  0
  1 10  1  0  0  0  0
  2  4  1  0  0  0  0
  2 12  1  0  0  0  0
  4  8  1  0  0  0  0
  5  2  2  0  0  0  0
  6  9  1  0  0  0  0
  7  1  2  0  0  0  0
  7  5  1  0  0  0  0
  8  3  2  0  0  0  0
  9 12  2  0  0  0  0
 10  4  2  0  0  0  0
 11  5  1  0  0  0  0
 11  6  2  0  0  0  0
 12  3  1  0  0  0  0
 13 15  2  0  0  0  0
 14 13  1  0  0  0  0
 16 15  1  0  0  0  0
 17 18  1  0  0  0  0
 18  6  1  0  0  0  0
 18 16  1  0  0  0  0
 19 14  2  0  0  0  0
 19 17  1  0  0  0  0
 21 20  1  0  0  0  0
 22 25  1  0  0  0  0
 22 23  2  0  0  0  0
 23 24  1  0  0  0  0
 24 21  1  0  0  0  0
 24 14  1  0  0  0  0
 25 26  1  0  0  0  0
 26 20  1  0  0  0  0
 27  1  1  0  0  0  0
 28 27  1  0  0  0  0
 29 30  1  0  0  0  0
 29 28  1  0  0  0  0
M  END
>  <MODEL>
1

>  <REMARK>
 VINA RESULT:      -8.0      0.000      0.000
  Name = 
  5 active torsions:
  status: ('A' for Active; 'I' for Inactive)
    1  A    between atoms: C_1  and  C_5
    2  A    between atoms: C_5  and  C_11
    3  A    between atoms: C_8  and  N_26
    4  A    between atoms: C_9  and  C_11
    5  A    between atoms: C_14  and  N_20
                            x       y       z     vdW  Elec       q    Type
                         _______ _______ _______ _____ _____    ______ ____

>  <TORSDO>
F 5

$$$$
=
 OpenBabel11062419523D

 30 34  0  0  0  0  0  0  0  0999 V2000
  184.6790  178.1150  142.9790 C   0  0  0  0  0  0  0  0  0  0  0  0
  185.9400  177.9080  145.3720 C   0  0  0  0  0  0  0  0  0  0  0  0
  185.4360  178.5890  147.4390 N   0  0  0  0  0  0  0  0  0  0  0  0
  184.7490  178.5130  145.3510 C   0  0  0  0  0  0  0  0  0  0  0  0
  186.6010  177.3860  144.3010 C   0  0  0  0  0  0  0  0  0  0  0  0
  188.3750  176.8080  145.8010 C   0  0  0  0  0  0  0  0  0  0  0  0
  185.9590  177.4840  143.0530 C   0  0  0  0  0  3  0  0  0  0  0  0
  184.4530  178.9370  146.6860 N   0  0  0  0  0  0  0  0  0  0  0  0
  187.6550  177.3760  146.9020 C   0  0  0  0  0  3  0  0  0  0  0  0
  184.0570  178.6500  144.1460 C   0  0  0  0  0  3  0  0  0  0  0  0
  187.8280  176.8310  144.5270 N   0  0  0  0  0  0  0  0  0  0  0  0
  186.4060  177.9260  146.6200 C   0  0  0  0  0  0  0  0  0  0  0  0
  192.3250  174.9600  146.9760 C   0  0  0  0  0  3  0  0  0  0  0  0
  192.6130  175.3170  145.5640 C   0  0  0  0  0  0  0  0  0  0  0  0
  191.3380  175.5040  147.6920 C   0  0  0  0  0  3  0  0  0  0  0  0
  190.4750  176.6160  147.1720 C   0  0  0  0  0  2  0  0  0  0  0  0
  190.1650  175.2440  145.0290 C   0  0  0  0  0  2  0  0  0  0  0  0
  189.6700  176.2160  146.0090 N   0  0  0  0  0  0  0  0  0  0  0  0
  191.6090  175.4700  144.6840 C   0  0  0  0  0  3  0  0  0  0  0  0
  194.7550  175.5480  142.7610 C   0  0  0  0  0  2  0  0  0  0  0  0
  194.3250  176.3260  144.0130 C   0  0  0  0  0  2  0  0  0  0  0  0
  196.2490  174.5160  145.3900 C   0  0  0  0  0  3  0  0  0  0  0  0
  195.0250  174.7690  145.8680 C   0  0  0  0  0  3  0  0  0  0  0  0
  193.9820  175.4290  145.1210 N   0  0  0  0  0  0  0  0  0  0  0  0
  196.6890  174.8640  144.0020 C   0  0  0  0  0  2  0  0  0  0  0  0
  195.6710  174.4390  143.0470 N   0  0  0  0  0  2  0  0  0  0  0  0
  183.9980  178.2410  141.6570 C   0  0  0  0  0  2  0  0  0  0  0  0
  182.4840  178.2590  141.8170 C   0  0  0  0  0  2  0  0  0  0  0  0
  181.7830  178.2240  140.4690 C   0  0  0  0  0  2  0  0  0  0  0  0
  180.7420  179.1540  140.4480 O   0  0  0  0  0  1  0  0  0  0  0  0
  1  7  2  0  0  0  0
  1 10  1  0  0  0  0
  2 12  1  0  0  0  0
  4  2  1  0  0  0  0
  4  8  1  0  0  0  0
  5 11  1  0  0  0  0
  5  2  2  0  0  0  0
  6 18  1  0  0  0  0
  6  9  1  0  0  0  0
  7  5  1  0  0  0  0
  8  3  2  0  0  0  0
 10  4  2  0  0  0  0
 11  6  2  0  0  0  0
 12  9  2  0  0  0  0
 12  3  1  0  0  0  0
 13 15  2  0  0  0  0
 14 13  1  0  0  0  0
 16 15  1  0  0  0  0
 17 18  1  0  0  0  0
 18 16  1  0  0  0  0
 19 17  1  0  0  0  0
 19 14  2  0  0  0  0
 20 26  1  0  0  0  0
 20 21  1  0  0  0  0
 21 24  1  0  0  0  0
 22 23  2  0  0  0  0
 24 14  1  0  0  0  0
 24 23  1  0  0  0  0
 25 22  1  0  0  0  0
 26 25  1  0  0  0  0
 27 28  1  0  0  0  0
 27  1  1  0  0  0  0
 29 28  1  0  0  0  0
 30 29  1  0  0  0  0
M  END
>  <MODEL>
2

>  <REMARK>
 VINA RESULT:      -7.9      1.148      1.767
  Name = 
  5 active torsions:
  status: ('A' for Active; 'I' for Inactive)
    1  A    between atoms: C_1  and  C_5
    2  A    between atoms: C_5  and  C_11
    3  A    between atoms: C_8  and  N_26
    4  A    between atoms: C_9  and  C_11
    5  A    between atoms: C_14  and  N_20
                            x       y       z     vdW  Elec       q    Type
                         _______ _______ _______ _____ _____    ______ ____

>  <TORSDO>
F 5

$$$$
=
 OpenBabel11062419523D

 30 34  0  0  0  0  0  0  0  0999 V2000
  184.3710  178.3340  143.9210 C   0  0  0  0  0  0  0  0  0  0  0  0
  186.3180  177.7940  145.7320 C   0  0  0  0  0  0  0  0  0  0  0  0
  186.6510  178.3990  147.8560 N   0  0  0  0  0  0  0  0  0  0  0  0
  185.2970  178.5590  146.1310 C   0  0  0  0  0  0  0  0  0  0  0  0
  186.4900  177.2590  144.4910 C   0  0  0  0  0  0  0  0  0  0  0  0
  188.5550  176.3410  145.2810 C   0  0  0  0  0  0  0  0  0  0  0  0
  185.4880  177.5280  143.5410 C   0  0  0  0  0  3  0  0  0  0  0  0
  185.5380  178.9290  147.4930 N   0  0  0  0  0  0  0  0  0  0  0  0
  188.3450  176.9280  146.5710 C   0  0  0  0  0  3  0  0  0  0  0  0
  184.2690  178.8710  145.2390 C   0  0  0  0  0  3  0  0  0  0  0  0
  187.6210  176.5250  144.2730 N   0  0  0  0  0  0  0  0  0  0  0  0
  187.1740  177.6640  146.7440 C   0  0  0  0  0  0  0  0  0  0  0  0
  191.9490  173.4660  144.4970 C   0  0  0  0  0  3  0  0  0  0  0  0
  192.7160  174.7030  144.7860 C   0  0  0  0  0  0  0  0  0  0  0  0
  190.6780  173.2790  144.8590 C   0  0  0  0  0  3  0  0  0  0  0  0
  189.9180  174.2680  145.6940 C   0  0  0  0  0  2  0  0  0  0  0  0
  190.7490  176.1010  144.1080 C   0  0  0  0  0  2  0  0  0  0  0  0
  189.7380  175.5620  145.0210 N   0  0  0  0  0  0  0  0  0  0  0  0
  192.1450  175.9080  144.6280 C   0  0  0  0  0  3  0  0  0  0  0  0
  195.9680  175.9930  144.2840 C   0  0  0  0  0  2  0  0  0  0  0  0
  194.8960  175.8260  145.3690 C   0  0  0  0  0  2  0  0  0  0  0  0
  195.9740  173.0550  145.5370 C   0  0  0  0  0  3  0  0  0  0  0  0
  194.6630  173.3200  145.4990 C   0  0  0  0  0  3  0  0  0  0  0  0
  194.1040  174.6080  145.1700 N   0  0  0  0  0  0  0  0  0  0  0  0
  197.0360  174.0600  145.2160 C   0  0  0  0  0  2  0  0  0  0  0  0
  196.6910  174.7540  143.9800 N   0  0  0  0  0  2  0  0  0  0  0  0
  183.3120  178.6410  142.9160 C   0  0  0  0  0  2  0  0  0  0  0  0
  183.7200  178.1730  141.5250 C   0  0  0  0  0  2  0  0  0  0  0  0
  182.5210  178.0890  140.5940 C   0  0  0  0  0  2  0  0  0  0  0  0
  181.3440  177.9990  141.3390 O   0  0  0  0  0  1  0  0  0  0  0  0
  1 10  1  0  0  0  0
  2  4  1  0  0  0  0
  2 12  1  0  0  0  0
  4  8  1  0  0  0  0
  5  2  2  0  0  0  0
  6  9  1  0  0  0  0
  7  1  2  0  0  0  0
  7  5  1  0  0  0  0
  8  3  2  0  0  0  0
  9 12  2  0  0  0  0
 10  4  2  0  0  0  0
 11  5  1  0  0  0  0
 11  6  2  0  0  0  0
 12  3  1  0  0  0  0
 13 14  1  0  0  0  0
 13 15  2  0  0  0  0
 14 24  1  0  0  0  0
 15 16  1  0  0  0  0
 17 19  1  0  0  0  0
 17 18  1  0  0  0  0
 18  6  1  0  0  0  0
 18 16  1  0  0  0  0
 19 14  2  0  0  0  0
 20 21  1  0  0  0  0
 23 22  2  0  0  0  0
 24 21  1  0  0  0  0
 24 23  1  0  0  0  0
 25 22  1  0  0  0  0
 26 20  1  0  0  0  0
 26 25  1  0  0  0  0
 27  1  1  0  0  0  0
 28 27  1  0  0  0  0
 29 30  1  0  0  0  0
 29 28  1  0  0  0  0
M  END
>  <MODEL>
3

>  <REMARK>
 VINA RESULT:      -7.8      1.321      1.912
  Name = 
  5 active torsions:
  status: ('A' for Active; 'I' for Inactive)
    1  A    between atoms: C_1  and  C_5
    2  A    between atoms: C_5  and  C_11
    3  A    between atoms: C_8  and  N_26
    4  A    between atoms: C_9  and  C_11
    5  A    between atoms: C_14  and  N_20
                            x       y       z     vdW  Elec       q    Type
                         _______ _______ _______ _____ _____    ______ ____

>  <TORSDO>
F 5

$$$$
=
 OpenBabel11062419523D

 30 34  0  0  0  0  0  0  0  0999 V2000
  196.3150  172.3720  145.3400 C   0  0  0  0  0  0  0  0  0  0  0  0
  195.0560  174.7200  144.8240 C   0  0  0  0  0  0  0  0  0  0  0  0
  195.7150  176.6490  143.9110 N   0  0  0  0  0  0  0  0  0  0  0  0
  196.3370  174.6120  144.4610 C   0  0  0  0  0  0  0  0  0  0  0  0
  194.3090  173.7630  145.4440 C   0  0  0  0  0  0  0  0  0  0  0  0
  192.4980  175.3290  145.4620 C   0  0  0  0  0  0  0  0  0  0  0  0
  194.9470  172.5400  145.7170 C   0  0  0  0  0  3  0  0  0  0  0  0
  196.7300  175.8600  143.8790 N   0  0  0  0  0  0  0  0  0  0  0  0
  193.3170  176.3130  144.8190 C   0  0  0  0  0  3  0  0  0  0  0  0
  197.0360  173.4270  144.7050 C   0  0  0  0  0  3  0  0  0  0  0  0
  193.0190  174.0790  145.7600 N   0  0  0  0  0  0  0  0  0  0  0  0
  194.6250  175.9410  144.5130 C   0  0  0  0  0  0  0  0  0  0  0  0
  188.2460  175.8710  146.8860 C   0  0  0  0  0  3  0  0  0  0  0  0
  188.2290  176.7310  145.6770 C   0  0  0  0  0  0  0  0  0  0  0  0
  189.1520  174.9140  147.1030 C   0  0  0  0  0  3  0  0  0  0  0  0
  190.1950  174.5390  146.0900 C   0  0  0  0  0  2  0  0  0  0  0  0
  190.7120  177.0360  145.8370 C   0  0  0  0  0  2  0  0  0  0  0  0
  191.1340  175.6330  145.8070 N   0  0  0  0  0  0  0  0  0  0  0  0
  189.3730  177.2410  145.1890 C   0  0  0  0  0  3  0  0  0  0  0  0
  186.6640  178.3140  142.9300 C   0  0  0  0  0  2  0  0  0  0  0  0
  186.7910  176.9470  143.6170 C   0  0  0  0  0  2  0  0  0  0  0  0
  184.7540  178.0660  145.4790 C   0  0  0  0  0  3  0  0  0  0  0  0
  185.8430  177.4160  145.9050 C   0  0  0  0  0  3  0  0  0  0  0  0
  186.9680  177.0800  145.0660 N   0  0  0  0  0  0  0  0  0  0  0  0
  184.5720  178.5550  144.0760 C   0  0  0  0  0  2  0  0  0  0  0  0
  185.7820  179.2450  143.6400 N   0  0  0  0  0  2  0  0  0  0  0  0
  197.0070  171.0840  145.6400 C   0  0  0  0  0  2  0  0  0  0  0  0
  196.0050  169.9790  145.9430 C   0  0  0  0  0  2  0  0  0  0  0  0
  196.3170  169.2930  147.2630 C   0  0  0  0  0  2  0  0  0  0  0  0
  195.1970  168.5940  147.7140 O   0  0  0  0  0  1  0  0  0  0  0  0
  1 27  1  0  0  0  0
  1  7  1  0  0  0  0
  2  5  1  0  0  0  0
  3 12  1  0  0  0  0
  4 10  1  0  0  0  0
  4  2  2  0  0  0  0
  5  7  2  0  0  0  0
  5 11  1  0  0  0  0
  6 11  2  0  0  0  0
  6 18  1  0  0  0  0
  8  3  2  0  0  0  0
  8  4  1  0  0  0  0
  9  6  1  0  0  0  0
 10  1  2  0  0  0  0
 12  9  2  0  0  0  0
 12  2  1  0  0  0  0
 13 15  2  0  0  0  0
 14 13  1  0  0  0  0
 16 15  1  0  0  0  0
 18 17  1  0  0  0  0
 18 16  1  0  0  0  0
 19 14  2  0  0  0  0
 19 17  1  0  0  0  0
 20 21  1  0  0  0  0
 20 26  1  0  0  0  0
 21 24  1  0  0  0  0
 22 23  2  0  0  0  0
 24 14  1  0  0  0  0
 24 23  1  0  0  0  0
 25 22  1  0  0  0  0
 26 25  1  0  0  0  0
 27 28  1  0  0  0  0
 28 29  1  0  0  0  0
 29 30  1  0  0  0  0
M  END
>  <MODEL>
4

>  <REMARK>
 VINA RESULT:      -7.7      4.030     10.103
  Name = 
  5 active torsions:
  status: ('A' for Active; 'I' for Inactive)
    1  A    between atoms: C_1  and  C_5
    2  A    between atoms: C_5  and  C_11
    3  A    between atoms: C_8  and  N_26
    4  A    between atoms: C_9  and  C_11
    5  A    between atoms: C_14  and  N_20
                            x       y       z     vdW  Elec       q    Type
                         _______ _______ _______ _____ _____    ______ ____

>  <TORSDO>
F 5

$$$$
=
 OpenBabel11062419523D

 30 34  0  0  0  0  0  0  0  0999 V2000
  186.2220  177.0290  145.4390 C   0  0  0  0  0  0  0  0  0  0  0  0
  188.5180  177.3300  144.0250 C   0  0  0  0  0  0  0  0  0  0  0  0
  188.9810  178.1560  142.0020 N   0  0  0  0  0  0  0  0  0  0  0  0
  187.3860  177.7670  143.4660 C   0  0  0  0  0  0  0  0  0  0  0  0
  188.6390  176.7310  145.2430 C   0  0  0  0  0  0  0  0  0  0  0  0
  190.9820  176.5190  144.7960 C   0  0  0  0  0  0  0  0  0  0  0  0
  187.4580  176.5700  145.9890 C   0  0  0  0  0  3  0  0  0  0  0  0
  187.7130  178.2910  142.1740 N   0  0  0  0  0  0  0  0  0  0  0  0
  190.8140  177.1430  143.5170 C   0  0  0  0  0  3  0  0  0  0  0  0
  186.1740  177.6350  144.1480 C   0  0  0  0  0  3  0  0  0  0  0  0
  189.8870  176.3280  145.6250 N   0  0  0  0  0  0  0  0  0  0  0  0
  189.5230  177.5410  143.1760 C   0  0  0  0  0  0  0  0  0  0  0  0
  195.2100  175.6690  146.1380 C   0  0  0  0  0  3  0  0  0  0  0  0
  194.7700  174.2990  145.7780 C   0  0  0  0  0  0  0  0  0  0  0  0
  194.6110  176.7800  145.7010 C   0  0  0  0  0  3  0  0  0  0  0  0
  193.4840  176.7590  144.7110 C   0  0  0  0  0  2  0  0  0  0  0  0
  192.3780  174.9510  146.1520 C   0  0  0  0  0  2  0  0  0  0  0  0
  192.2850  176.0840  145.2260 N   0  0  0  0  0  0  0  0  0  0  0  0
  193.4630  173.9870  145.7620 C   0  0  0  0  0  3  0  0  0  0  0  0
  197.8670  173.5760  144.2350 C   0  0  0  0  0  2  0  0  0  0  0  0
  197.1850  173.5940  145.6100 C   0  0  0  0  0  2  0  0  0  0  0  0
  196.0820  170.9720  144.7240 C   0  0  0  0  0  3  0  0  0  0  0  0
  195.3280  171.9180  145.2980 C   0  0  0  0  0  3  0  0  0  0  0  0
  195.7560  173.2780  145.5130 N   0  0  0  0  0  0  0  0  0  0  0  0
  197.4650  171.2130  144.2040 C   0  0  0  0  0  2  0  0  0  0  0  0
  197.4790  172.4330  143.4040 N   0  0  0  0  0  2  0  0  0  0  0  0
  184.9600  176.8460  146.2140 C   0  0  0  0  0  2  0  0  0  0  0  0
  184.4200  178.1810  146.7090 C   0  0  0  0  0  2  0  0  0  0  0  0
  185.1770  178.6650  147.9360 C   0  0  0  0  0  2  0  0  0  0  0  0
  185.9440  179.7850  147.6120 O   0  0  0  0  0  1  0  0  0  0  0  0
  1  7  1  0  0  0  0
  1 27  1  0  0  0  0
  2  5  1  0  0  0  0
  3  8  2  0  0  0  0
  3 12  1  0  0  0  0
  4  2  2  0  0  0  0
  4 10  1  0  0  0  0
  5 11  1  0  0  0  0
  5  7  2  0  0  0  0
  6 18  1  0  0  0  0
  6 11  2  0  0  0  0
  8  4  1  0  0  0  0
  9  6  1  0  0  0  0
 10  1  2  0  0  0  0
 12  9  2  0  0  0  0
 12  2  1  0  0  0  0
 14 13  1  0  0  0  0
 15 13  2  0  0  0  0
 16 18  1  0  0  0  0
 16 15  1  0  0  0  0
 18 17  1  0  0  0  0
 19 14  2  0  0  0  0
 19 17  1  0  0  0  0
 20 21  1  0  0  0  0
 22 23  2  0  0  0  0
 23 24  1  0  0  0  0
 24 21  1  0  0  0  0
 24 14  1  0  0  0  0
 25 22  1  0  0  0  0
 26 25  1  0  0  0  0
 26 20  1  0  0  0  0
 27 28  1  0  0  0  0
 28 29  1  0  0  0  0
 30 29  1  0  0  0  0
M  END
>  <MODEL>
5

>  <REMARK>
 VINA RESULT:      -7.6      2.983      4.276
  Name = 
  5 active torsions:
  status: ('A' for Active; 'I' for Inactive)
    1  A    between atoms: C_1  and  C_5
    2  A    between atoms: C_5  and  C_11
    3  A    between atoms: C_8  and  N_26
    4  A    between atoms: C_9  and  C_11
    5  A    between atoms: C_14  and  N_20
                            x       y       z     vdW  Elec       q    Type
                         _______ _______ _______ _____ _____    ______ ____

>  <TORSDO>
F 5

$$$$
=
 OpenBabel11062419523D

 30 34  0  0  0  0  0  0  0  0999 V2000
  186.4450  177.5570  142.9500 C   0  0  0  0  0  0  0  0  0  0  0  0
  187.8340  177.4670  145.2790 C   0  0  0  0  0  0  0  0  0  0  0  0
  187.3380  178.0150  147.3870 N   0  0  0  0  0  0  0  0  0  0  0  0
  186.5700  177.8980  145.3290 C   0  0  0  0  0  0  0  0  0  0  0  0
  188.5100  177.0720  144.1640 C   0  0  0  0  0  0  0  0  0  0  0  0
  190.4170  176.7110  145.5660 C   0  0  0  0  0  0  0  0  0  0  0  0
  187.8030  177.1120  142.9490 C   0  0  0  0  0  3  0  0  0  0  0  0
  186.2810  178.2400  146.6890 N   0  0  0  0  0  0  0  0  0  0  0  0
  189.6770  177.1430  146.7150 C   0  0  0  0  0  3  0  0  0  0  0  0
  185.8100  177.9680  144.1600 C   0  0  0  0  0  3  0  0  0  0  0  0
  189.8120  176.6900  144.3190 N   0  0  0  0  0  0  0  0  0  0  0  0
  188.3510  177.5180  146.5060 C   0  0  0  0  0  0  0  0  0  0  0  0
  194.8530  175.9490  145.9360 C   0  0  0  0  0  3  0  0  0  0  0  0
  194.3680  174.5660  145.7020 C   0  0  0  0  0  0  0  0  0  0  0  0
  194.1510  177.0430  145.6300 C   0  0  0  0  0  3  0  0  0  0  0  0
  192.8310  176.9870  144.9180 C   0  0  0  0  0  2  0  0  0  0  0  0
  192.1100  175.1880  146.5940 C   0  0  0  0  0  2  0  0  0  0  0  0
  191.7910  176.3030  145.6980 N   0  0  0  0  0  0  0  0  0  0  0  0
  193.0970  174.2340  145.9840 C   0  0  0  0  0  3  0  0  0  0  0  0
  195.1070  171.1090  145.6350 C   0  0  0  0  0  2  0  0  0  0  0  0
  194.7810  172.2860  144.7060 C   0  0  0  0  0  2  0  0  0  0  0  0
  197.6630  172.9410  145.0720 C   0  0  0  0  0  3  0  0  0  0  0  0
  196.6960  173.8620  145.1570 C   0  0  0  0  0  3  0  0  0  0  0  0
  195.2890  173.5560  145.2360 N   0  0  0  0  0  0  0  0  0  0  0  0
  197.4110  171.4650  145.0730 C   0  0  0  0  0  2  0  0  0  0  0  0
  196.4810  171.1320  146.1470 N   0  0  0  0  0  2  0  0  0  0  0  0
  185.6910  177.6200  141.6640 C   0  0  0  0  0  2  0  0  0  0  0  0
  184.2700  178.1200  141.8820 C   0  0  0  0  0  2  0  0  0  0  0  0
  183.5520  178.3440  140.5610 C   0  0  0  0  0  2  0  0  0  0  0  0
  182.1790  178.1510  140.7260 O   0  0  0  0  0  1  0  0  0  0  0  0
  1 10  1  0  0  0  0
  2  4  1  0  0  0  0
  2 12  1  0  0  0  0
  4  8  1  0  0  0  0
  5 11  1  0  0  0  0
  5  2  2  0  0  0  0
  6 18  1  0  0  0  0
  6  9  1  0  0  0  0
  7  1  2  0  0  0  0
  7  5  1  0  0  0  0
  8  3  2  0  0  0  0
 10  4  2  0  0  0  0
 11  6  2  0  0  0  0
 12  9  2  0  0  0  0
 12  3  1  0  0  0  0
 14 13  1  0  0  0  0
 14 19  2  0  0  0  0
 15 13  2  0  0  0  0
 16 15  1  0  0  0  0
 16 18  1  0  0  0  0
 18 17  1  0  0  0  0
 19 17  1  0  0  0  0
 20 26  1  0  0  0  0
 21 24  1  0  0  0  0
 21 20  1  0  0  0  0
 22 25  1  0  0  0  0
 22 23  2  0  0  0  0
 23 24  1  0  0  0  0
 24 14  1  0  0  0  0
 25 26  1  0  0  0  0
 27 28  1  0  0  0  0
 27  1  1  0  0  0  0
 29 30  1  0  0  0  0
 29 28  1  0  0  0  0
M  END
>  <MODEL>
6

>  <REMARK>
 VINA RESULT:      -7.5      2.123      2.915
  Name = 
  5 active torsions:
  status: ('A' for Active; 'I' for Inactive)
    1  A    between atoms: C_1  and  C_5
    2  A    between atoms: C_5  and  C_11
    3  A    between atoms: C_8  and  N_26
    4  A    between atoms: C_9  and  C_11
    5  A    between atoms: C_14  and  N_20
                            x       y       z     vdW  Elec       q    Type
                         _______ _______ _______ _____ _____    ______ ____

>  <TORSDO>
F 5

$$$$
=
 OpenBabel11062419523D

 30 34  0  0  0  0  0  0  0  0999 V2000
  185.8600  178.6720  144.1790 C   0  0  0  0  0  0  0  0  0  0  0  0
  187.2250  177.1090  142.4300 C   0  0  0  0  0  0  0  0  0  0  0  0
  187.0660  176.7660  140.2290 N   0  0  0  0  0  0  0  0  0  0  0  0
  186.2530  177.8830  141.9400 C   0  0  0  0  0  0  0  0  0  0  0  0
  187.6010  177.0140  143.7370 C   0  0  0  0  0  0  0  0  0  0  0  0
  189.2080  175.3770  143.0540 C   0  0  0  0  0  0  0  0  0  0  0  0
  186.9040  177.8200  144.6560 C   0  0  0  0  0  3  0  0  0  0  0  0
  186.1750  177.6430  140.5300 N   0  0  0  0  0  0  0  0  0  0  0  0
  188.7790  175.4960  141.6920 C   0  0  0  0  0  3  0  0  0  0  0  0
  185.5160  178.7060  142.7950 C   0  0  0  0  0  3  0  0  0  0  0  0
  188.6040  176.1390  144.0410 N   0  0  0  0  0  0  0  0  0  0  0  0
  187.7550  176.4050  141.4320 C   0  0  0  0  0  0  0  0  0  0  0  0
  192.1350  172.1450  144.2330 C   0  0  0  0  0  3  0  0  0  0  0  0
  193.0150  173.3370  144.3110 C   0  0  0  0  0  0  0  0  0  0  0  0
  190.8010  172.2050  144.2630 C   0  0  0  0  0  3  0  0  0  0  0  0
  190.0510  173.4860  144.4820 C   0  0  0  0  0  2  0  0  0  0  0  0
  191.5400  174.5540  142.6910 C   0  0  0  0  0  2  0  0  0  0  0  0
  190.2630  174.4630  143.4050 N   0  0  0  0  0  0  0  0  0  0  0  0
  192.7180  174.4480  143.6170 C   0  0  0  0  0  3  0  0  0  0  0  0
  196.0960  174.9210  145.0160 C   0  0  0  0  0  2  0  0  0  0  0  0
  194.7850  174.4900  145.6880 C   0  0  0  0  0  2  0  0  0  0  0  0
  196.0930  171.8150  145.7630 C   0  0  0  0  0  3  0  0  0  0  0  0
  194.8260  171.9900  145.3680 C   0  0  0  0  0  3  0  0  0  0  0  0
  194.2360  173.2740  145.0800 N   0  0  0  0  0  0  0  0  0  0  0  0
  197.0740  172.9320  145.9320 C   0  0  0  0  0  2  0  0  0  0  0  0
  197.0190  173.8090  144.7660 N   0  0  0  0  0  2  0  0  0  0  0  0
  185.1030  179.5170  145.1480 C   0  0  0  0  0  2  0  0  0  0  0  0
  184.2060  178.6660  146.0370 C   0  0  0  0  0  2  0  0  0  0  0  0
  184.8240  178.4580  147.4110 C   0  0  0  0  0  2  0  0  0  0  0  0
  185.8150  179.4150  147.6380 O   0  0  0  0  0  1  0  0  0  0  0  0
  1  7  1  0  0  0  0
  1 27  1  0  0  0  0
  2  5  1  0  0  0  0
  3  8  2  0  0  0  0
  3 12  1  0  0  0  0
  4  2  2  0  0  0  0
  4 10  1  0  0  0  0
  5 11  1  0  0  0  0
  5  7  2  0  0  0  0
  6 18  1  0  0  0  0
  6 11  2  0  0  0  0
  8  4  1  0  0  0  0
  9  6  1  0  0  0  0
 10  1  2  0  0  0  0
 12  9  2  0  0  0  0
 12  2  1  0  0  0  0
 13 15  2  0  0  0  0
 13 14  1  0  0  0  0
 14 24  1  0  0  0  0
 15 16  1  0  0  0  0
 17 18  1  0  0  0  0
 17 19  1  0  0  0  0
 18 16  1  0  0  0  0
 19 14  2  0  0  0  0
 20 21  1  0  0  0  0
 22 25  1  0  0  0  0
 23 22  2  0  0  0  0
 24 23  1  0  0  0  0
 24 21  1  0  0  0  0
 26 20  1  0  0  0  0
 26 25  1  0  0  0  0
 27 28  1  0  0  0  0
 28 29  1  0  0  0  0
 29 30  1  0  0  0  0
M  END
>  <MODEL>
7

>  <REMARK>
 VINA RESULT:      -7.4      2.910      4.310
  Name = 
  5 active torsions:
  status: ('A' for Active; 'I' for Inactive)
    1  A    between atoms: C_1  and  C_5
    2  A    between atoms: C_5  and  C_11
    3  A    between atoms: C_8  and  N_26
    4  A    between atoms: C_9  and  C_11
    5  A    between atoms: C_14  and  N_20
                            x       y       z     vdW  Elec       q    Type
                         _______ _______ _______ _____ _____    ______ ____

>  <TORSDO>
F 5

$$$$
=
 OpenBabel11062419523D

 30 34  0  0  0  0  0  0  0  0999 V2000
  196.0770  175.7780  141.9400 C   0  0  0  0  0  0  0  0  0  0  0  0
  195.0870  175.1540  144.3880 C   0  0  0  0  0  0  0  0  0  0  0  0
  195.9530  174.1560  146.1880 N   0  0  0  0  0  0  0  0  0  0  0  0
  196.3640  174.8520  144.1420 C   0  0  0  0  0  0  0  0  0  0  0  0
  194.2150  175.7430  143.5210 C   0  0  0  0  0  0  0  0  0  0  0  0
  192.5460  175.5570  145.2290 C   0  0  0  0  0  0  0  0  0  0  0  0
  194.7140  176.0740  142.2490 C   0  0  0  0  0  3  0  0  0  0  0  0
  196.8920  174.2150  145.3110 N   0  0  0  0  0  0  0  0  0  0  0  0
  193.4880  174.9310  146.1080 C   0  0  0  0  0  3  0  0  0  0  0  0
  196.9250  175.1470  142.8980 C   0  0  0  0  0  3  0  0  0  0  0  0
  192.9360  175.9450  143.9560 N   0  0  0  0  0  0  0  0  0  0  0  0
  194.7810  174.7520  145.6200 C   0  0  0  0  0  0  0  0  0  0  0  0
  188.3550  175.8360  146.8900 C   0  0  0  0  0  3  0  0  0  0  0  0
  188.2430  176.7650  145.7390 C   0  0  0  0  0  0  0  0  0  0  0  0
  189.3080  174.9070  147.0030 C   0  0  0  0  0  3  0  0  0  0  0  0
  190.3100  174.6360  145.9200 C   0  0  0  0  0  2  0  0  0  0  0  0
  190.7170  177.1630  145.7950 C   0  0  0  0  0  2  0  0  0  0  0  0
  191.1910  175.7830  145.6580 N   0  0  0  0  0  0  0  0  0  0  0  0
  189.3390  177.3500  145.2270 C   0  0  0  0  0  3  0  0  0  0  0  0
  186.4780  178.3750  143.1320 C   0  0  0  0  0  2  0  0  0  0  0  0
  186.6790  176.9950  143.7740 C   0  0  0  0  0  2  0  0  0  0  0  0
  184.7310  178.0160  145.7820 C   0  0  0  0  0  3  0  0  0  0  0  0
  185.8590  177.3830  146.1260 C   0  0  0  0  0  3  0  0  0  0  0  0
  186.9390  177.0960  145.2130 N   0  0  0  0  0  0  0  0  0  0  0  0
  184.4540  178.5350  144.4060 C   0  0  0  0  0  2  0  0  0  0  0  0
  185.6180  179.2660  143.9170 N   0  0  0  0  0  2  0  0  0  0  0  0
  196.6120  176.1090  140.5870 C   0  0  0  0  0  2  0  0  0  0  0  0
  197.8850  175.3280  140.2920 C   0  0  0  0  0  2  0  0  0  0  0  0
  197.9410  174.8860  138.8390 C   0  0  0  0  0  2  0  0  0  0  0  0
  196.7810  175.2860  138.1740 O   0  0  0  0  0  1  0  0  0  0  0  0
  1  7  2  0  0  0  0
  1 10  1  0  0  0  0
  2 12  1  0  0  0  0
  4  2  1  0  0  0  0
  4  8  1  0  0  0  0
  5 11  1  0  0  0  0
  5  2  2  0  0  0  0
  6 18  1  0  0  0  0
  6  9  1  0  0  0  0
  7  5  1  0  0  0  0
  8  3  2  0  0  0  0
 10  4  2  0  0  0  0
 11  6  2  0  0  0  0
 12  9  2  0  0  0  0
 12  3  1  0  0  0  0
 13 15  2  0  0  0  0
 14 13  1  0  0  0  0
 16 15  1  0  0  0  0
 18 17  1  0  0  0  0
 18 16  1  0  0  0  0
 19 14  2  0  0  0  0
 19 17  1  0  0  0  0
 20 21  1  0  0  0  0
 20 26  1  0  0  0  0
 21 24  1  0  0  0  0
 22 23  2  0  0  0  0
 24 14  1  0  0  0  0
 24 23  1  0  0  0  0
 25 22  1  0  0  0  0
 26 25  1  0  0  0  0
 27  1  1  0  0  0  0
 28 27  1  0  0  0  0
 29 28  1  0  0  0  0
 30 29  1  0  0  0  0
M  END
>  <MODEL>
8

>  <REMARK>
 VINA RESULT:      -7.3      3.305      9.587
  Name = 
  5 active torsions:
  status: ('A' for Active; 'I' for Inactive)
    1  A    between atoms: C_1  and  C_5
    2  A    between atoms: C_5  and  C_11
    3  A    between atoms: C_8  and  N_26
    4  A    between atoms: C_9  and  C_11
    5  A    between atoms: C_14  and  N_20
                            x       y       z     vdW  Elec       q    Type
                         _______ _______ _______ _____ _____    ______ ____

>  <TORSDO>
F 5

$$$$
=
 OpenBabel11062419523D

 30 34  0  0  0  0  0  0  0  0999 V2000
  195.6430  172.0630  145.5540 C   0  0  0  0  0  0  0  0  0  0  0  0
  195.0460  174.5070  144.5370 C   0  0  0  0  0  0  0  0  0  0  0  0
  196.2890  176.2190  143.8190 N   0  0  0  0  0  0  0  0  0  0  0  0
  196.3370  174.1780  144.6380 C   0  0  0  0  0  0  0  0  0  0  0  0
  193.9840  173.7370  144.9060 C   0  0  0  0  0  0  0  0  0  0  0  0
  192.5650  175.5450  144.2360 C   0  0  0  0  0  0  0  0  0  0  0  0
  194.2780  172.4670  145.4330 C   0  0  0  0  0  3  0  0  0  0  0  0
  197.1070  175.2910  144.1710 N   0  0  0  0  0  0  0  0  0  0  0  0
  193.7060  176.3300  143.8690 C   0  0  0  0  0  3  0  0  0  0  0  0
  196.7020  172.9340  145.1570 C   0  0  0  0  0  3  0  0  0  0  0  0
  192.7360  174.2680  144.7480 N   0  0  0  0  0  0  0  0  0  0  0  0
  194.9570  175.7420  144.0450 C   0  0  0  0  0  0  0  0  0  0  0  0
  188.6180  177.5870  143.4310 C   0  0  0  0  0  3  0  0  0  0  0  0
  188.2380  176.7270  144.5790 C   0  0  0  0  0  0  0  0  0  0  0  0
  189.8780  177.9170  143.1360 C   0  0  0  0  0  3  0  0  0  0  0  0
  191.0410  177.5320  144.0030 C   0  0  0  0  0  2  0  0  0  0  0  0
  190.1060  175.1460  144.0350 C   0  0  0  0  0  2  0  0  0  0  0  0
  191.2370  176.0780  144.0810 N   0  0  0  0  0  0  0  0  0  0  0  0
  188.9460  175.6200  144.8620 C   0  0  0  0  0  3  0  0  0  0  0  0
  185.5190  178.9550  144.9550 C   0  0  0  0  0  2  0  0  0  0  0  0
  185.8330  177.4790  144.6720 C   0  0  0  0  0  2  0  0  0  0  0  0
  186.1780  177.3310  147.6270 C   0  0  0  0  0  3  0  0  0  0  0  0
  187.0490  176.7870  146.7690 C   0  0  0  0  0  3  0  0  0  0  0  0
  187.0590  177.0430  145.3490 N   0  0  0  0  0  0  0  0  0  0  0  0
  185.1120  178.3030  147.2260 C   0  0  0  0  0  2  0  0  0  0  0  0
  185.6880  179.3290  146.3630 N   0  0  0  0  0  2  0  0  0  0  0  0
  195.9660  170.7250  146.1290 C   0  0  0  0  0  2  0  0  0  0  0  0
  194.8050  169.7550  145.9510 C   0  0  0  0  0  2  0  0  0  0  0  0
  195.0520  168.4530  146.6950 C   0  0  0  0  0  2  0  0  0  0  0  0
  194.5760  168.5540  148.0040 O   0  0  0  0  0  1  0  0  0  0  0  0
  1 27  1  0  0  0  0
  2  4  2  0  0  0  0
  2  5  1  0  0  0  0
  3 12  1  0  0  0  0
  3  8  2  0  0  0  0
  4 10  1  0  0  0  0
  5  7  2  0  0  0  0
  6 11  2  0  0  0  0
  7  1  1  0  0  0  0
  8  4  1  0  0  0  0
  9 12  2  0  0  0  0
  9  6  1  0  0  0  0
 10  1  2  0  0  0  0
 11  5  1  0  0  0  0
 12  2  1  0  0  0  0
 13 14  1  0  0  0  0
 14 19  2  0  0  0  0
 14 24  1  0  0  0  0
 15 13  2  0  0  0  0
 15 16  1  0  0  0  0
 16 18  1  0  0  0  0
 17 18  1  0  0  0  0
 17 19  1  0  0  0  0
 18  6  1  0  0  0  0
 20 26  1  0  0  0  0
 21 20  1  0  0  0  0
 21 24  1  0  0  0  0
 23 22  2  0  0  0  0
 24 23  1  0  0  0  0
 25 22  1  0  0  0  0
 26 25  1  0  0  0  0
 28 27  1  0  0  0  0
 28 29  1  0  0  0  0
 29 30  1  0  0  0  0
M  END
>  <MODEL>
9

>  <REMARK>
 VINA RESULT:      -7.2      4.016     10.094
  Name = 
  5 active torsions:
  status: ('A' for Active; 'I' for Inactive)
    1  A    between atoms: C_1  and  C_5
    2  A    between atoms: C_5  and  C_11
    3  A    between atoms: C_8  and  N_26
    4  A    between atoms: C_9  and  C_11
    5  A    between atoms: C_14  and  N_20
                            x       y       z     vdW  Elec       q    Type
                         _______ _______ _______ _____ _____    ______ ____

>  <TORSDO>
F 5

$$$$
