=
 OpenBabel11062422133D

 44 46  0  0  1  0  0  0  0  0999 V2000
  189.8460  173.3300  144.0720 C   0  0  2  0  0  3  0  0  0  0  0  0
  189.6980  173.2370  145.4590 O   0  0  0  0  0  1  0  0  0  0  0  0
  191.2920  173.6470  143.7040 C   0  0  0  0  0  2  0  0  0  0  0  0
  192.1080  172.3850  143.4550 C   0  0  0  0  0  2  0  0  0  0  0  0
  193.5840  172.7320  143.3310 C   0  0  0  0  0  2  0  0  0  0  0  0
  193.8270  173.4760  142.1060 N   0  0  0  0  0  0  0  0  0  0  0  0
  193.9940  172.5070  141.0330 C   0  0  0  0  0  1  0  0  0  0  0  0
  195.8810  174.6010  140.9130 O   0  0  0  0  0  0  0  0  0  0  0  0
  196.3130  173.5050  143.0480 O   0  0  0  0  0  0  0  0  0  0  0  0
  195.3220  174.3430  142.2840 S   0  0  0  0  0  0  0  0  0  0  0  0
  195.2810  176.1150  144.5530 C   0  0  2  0  0  0  0  0  0  0  0  0
  194.9970  175.9530  143.0590 C   0  0  1  0  0  3  0  0  0  0  0  0
  196.2540  176.7060  143.5330 C   0  0  2  0  0  3  0  0  0  0  0  0
  197.4200  175.9370  143.4490 O   0  0  0  0  0  1  0  0  0  0  0  0
  195.6670  174.8880  145.3800 C   0  0  0  0  0  1  0  0  0  0  0  0
  194.4130  177.0450  145.1530 O   0  0  0  0  0  0  0  0  0  0  0  0
  189.8370  177.7170  144.5240 F   0  0  0  0  0  0  0  0  0  0  0  0
  191.6080  175.6340  147.1440 C   0  0  0  0  0  2  0  0  0  0  0  0
  192.0680  177.0820  144.7170 C   0  0  0  0  0  3  0  0  0  0  0  0
  190.5110  176.5460  146.5920 C   0  0  0  0  0  2  0  0  0  0  0  0
  192.9750  176.2600  146.9120 C   0  0  0  0  0  2  0  0  0  0  0  0
  190.8220  177.0840  145.2140 C   0  0  0  0  0  0  0  0  0  0  0  0
  193.2070  176.3760  145.4080 C   0  0  2  0  0  3  0  0  0  0  0  0
  188.9430  174.3400  143.5450 N   0  0  0  0  0  2  0  0  0  0  0  0
  189.1230  174.3400  142.1000 C   0  0  1  0  0  3  0  0  0  0  0  0
  187.2190  172.9040  142.1270 F   0  0  0  0  0  0  0  0  0  0  0  0
  188.0980  173.4710  140.1410 F   0  0  0  0  0  0  0  0  0  0  0  0
  188.3980  173.1590  141.4530 C   0  0  0  0  0  0  0  0  0  0  0  0
  189.1910  172.0270  141.4750 F   0  0  0  0  0  0  0  0  0  0  0  0
  188.7420  175.6700  141.5130 C   0  0  0  0  0  3  0  0  0  0  0  0
  188.0970  176.6090  142.2050 C   0  0  0  0  0  3  0  0  0  0  0  0
  187.7520  177.9060  141.5530 C   0  0  0  0  0  2  0  0  0  0  0  0
  186.3690  178.0190  141.4150 O   0  0  0  0  0  0  0  0  0  0  0  0
  185.9630  178.7520  142.5330 C   0  0  0  0  0  2  0  0  0  0  0  0
  184.8200  178.0380  143.2390 C   0  0  2  0  0  3  0  0  0  0  0  0
  183.6320  178.7460  143.0470 O   0  0  0  0  0  1  0  0  0  0  0  0
  186.7740  176.7520  146.1660 C   0  0  0  0  0  3  0  0  0  0  0  0
  185.0960  177.8540  144.7040 C   0  0  0  0  0  0  0  0  0  0  0  0
  185.5940  178.2070  147.7110 N   0  0  0  0  0  0  0  0  0  0  0  0
  185.9860  176.7320  145.0930 C   0  0  0  0  0  0  0  0  0  0  0  0
  184.5290  178.5590  147.0600 C   0  0  0  0  0  3  0  0  0  0  0  0
  186.8760  177.9240  147.0850 C   0  0  0  0  0  2  0  0  0  0  0  0
  184.4380  178.6270  145.5890 C   0  0  0  0  0  3  0  0  0  0  0  0
  186.0480  175.6440  144.2850 F   0  0  0  0  0  0  0  0  0  0  0  0
  1  2  1  1  0  0  0
  3  1  1  0  0  0  0
  4  3  1  0  0  0  0
  5  4  1  0  0  0  0
  6 10  1  0  0  0  0
  6  5  1  0  0  0  0
  7  6  1  0  0  0  0
  8 10  2  0  0  0  0
 10  9  2  0  0  0  0
 11 16  1  0  0  0  0
 11 15  1  1  0  0  0
 12 10  1  6  0  0  0
 12 13  1  0  0  0  0
 12 11  1  0  0  0  0
 13 14  1  6  0  0  0
 13 11  1  0  0  0  0
 17 22  1  0  0  0  0
 19 22  2  0  0  0  0
 19 23  1  0  0  0  0
 20 18  1  0  0  0  0
 21 18  1  0  0  0  0
 22 20  1  0  0  0  0
 23 16  1  1  0  0  0
 23 21  1  0  0  0  0
 24  1  1  0  0  0  0
 25 30  1  6  0  0  0
 25 24  1  0  0  0  0
 27 28  1  0  0  0  0
 28 29  1  0  0  0  0
 28 25  1  0  0  0  0
 28 26  1  0  0  0  0
 30 31  2  0  0  0  0
 32 31  1  0  0  0  0
 33 32  1  0  0  0  0
 33 34  1  0  0  0  0
 34 35  1  0  0  0  0
 35 36  1  1  0  0  0
 35 38  1  0  0  0  0
 37 42  1  0  0  0  0
 38 40  1  0  0  0  0
 38 43  2  0  0  0  0
 40 37  2  0  0  0  0
 41 39  2  0  0  0  0
 42 39  1  0  0  0  0
 43 41  1  0  0  0  0
 44 40  1  0  0  0  0
M  END
>  <MODEL>
1

>  <REMARK>
 VINA RESULT:      -6.7      0.000      0.000
  Name = 
  17 active torsions:
  status: ('A' for Active; 'I' for Inactive)
    1  A    between atoms: C_2  and  C_8
    2  A    between atoms: C_2  and  N_35
    3  A    between atoms: C_3  and  O_11
    4  A    between atoms: C_3  and  C_15
    5  A    between atoms: C_5  and  O_32
    6  A    between atoms: C_7  and  S_29
    7  A    between atoms: C_8  and  C_20
    8  A    between atoms: C_9  and  C_39
    9  A    between atoms: O_11  and  C_28
   10  A    between atoms: C_12  and  C_20
   11  A    between atoms: C_12  and  N_42
   12  A    between atoms: C_15  and  C_16
   13  A    between atoms: C_23  and  C_28
   14  A    between atoms: S_29  and  N_42
   15  A    between atoms: O_32  and  C_41
   16  A    between atoms: N_35  and  C_39
   17  A    between atoms: C_38  and  C_39
                            x       y       z     vdW  Elec       q    Type
                         _______ _______ _______ _____ _____    ______ ____

>  <TORSDO>
F 17

$$$$
=
 OpenBabel11062422133D

 44 46  0  0  1  0  0  0  0  0999 V2000
  192.4500  175.2810  145.2750 C   0  0  2  0  0  3  0  0  0  0  0  0
  191.4150  174.3460  145.3510 O   0  0  0  0  0  1  0  0  0  0  0  0
  193.6210  174.8650  146.1590 C   0  0  0  0  0  2  0  0  0  0  0  0
  194.7730  175.8600  146.0870 C   0  0  0  0  0  2  0  0  0  0  0  0
  195.2320  176.0270  144.6470 C   0  0  0  0  0  2  0  0  0  0  0  0
  195.6700  174.7500  144.1050 N   0  0  0  0  0  0  0  0  0  0  0  0
  196.9700  174.4530  144.6870 C   0  0  0  0  0  1  0  0  0  0  0  0
  197.2970  174.5710  142.0480 O   0  0  0  0  0  0  0  0  0  0  0  0
  195.6460  176.3650  141.9930 O   0  0  0  0  0  0  0  0  0  0  0  0
  195.8790  174.9310  142.3900 S   0  0  0  0  0  0  0  0  0  0  0  0
  193.3400  174.1730  141.2600 C   0  0  2  0  0  0  0  0  0  0  0  0
  194.7900  173.7630  141.5240 C   0  0  1  0  0  3  0  0  0  0  0  0
  194.3540  174.2100  140.1160 C   0  0  2  0  0  3  0  0  0  0  0  0
  194.7260  175.5250  139.8170 O   0  0  0  0  0  1  0  0  0  0  0  0
  192.8060  175.4700  141.8700 C   0  0  0  0  0  1  0  0  0  0  0  0
  192.4750  173.0650  141.2510 O   0  0  0  0  0  0  0  0  0  0  0  0
  188.8360  171.6920  143.8310 F   0  0  0  0  0  0  0  0  0  0  0  0
  188.9010  173.9990  140.8290 C   0  0  0  0  0  2  0  0  0  0  0  0
  190.6170  172.6660  142.6940 C   0  0  0  0  0  3  0  0  0  0  0  0
  188.3190  172.9320  141.7580 C   0  0  0  0  0  2  0  0  0  0  0  0
  190.2990  173.5970  140.3810 C   0  0  0  0  0  2  0  0  0  0  0  0
  189.2970  172.4640  142.8120 C   0  0  0  0  0  0  0  0  0  0  0  0
  191.2030  173.5340  141.6090 C   0  0  2  0  0  3  0  0  0  0  0  0
  191.9560  176.5960  145.6550 N   0  0  0  0  0  2  0  0  0  0  0  0
  190.5030  176.5060  145.6550 C   0  0  1  0  0  3  0  0  0  0  0  0
  189.1440  177.8910  147.0410 F   0  0  0  0  0  0  0  0  0  0  0  0
  189.1550  175.6790  147.4280 F   0  0  0  0  0  0  0  0  0  0  0  0
  189.9340  176.7570  147.0520 C   0  0  0  0  0  0  0  0  0  0  0  0
  190.9520  176.9190  147.9730 F   0  0  0  0  0  0  0  0  0  0  0  0
  189.9120  177.3980  144.5990 C   0  0  0  0  0  3  0  0  0  0  0  0
  189.6850  176.9900  143.3510 C   0  0  0  0  0  3  0  0  0  0  0  0
  189.0940  177.9340  142.3580 C   0  0  0  0  0  2  0  0  0  0  0  0
  188.0240  177.3290  141.6990 O   0  0  0  0  0  0  0  0  0  0  0  0
  186.9790  178.2480  141.8080 C   0  0  0  0  0  2  0  0  0  0  0  0
  185.7570  177.5820  142.4240 C   0  0  2  0  0  3  0  0  0  0  0  0
  184.5960  178.1030  141.8470 O   0  0  0  0  0  1  0  0  0  0  0  0
  184.7130  179.2450  145.6150 C   0  0  0  0  0  3  0  0  0  0  0  0
  185.7260  177.7420  143.9170 C   0  0  0  0  0  0  0  0  0  0  0  0
  185.4670  177.3620  146.9500 N   0  0  0  0  0  0  0  0  0  0  0  0
  185.3350  179.0700  144.4500 C   0  0  0  0  0  0  0  0  0  0  0  0
  186.2630  176.7130  146.1580 C   0  0  0  0  0  3  0  0  0  0  0  0
  184.3070  178.1150  146.5020 C   0  0  0  0  0  2  0  0  0  0  0  0
  186.1640  176.7270  144.6860 C   0  0  0  0  0  3  0  0  0  0  0  0
  185.5710  180.1690  143.6910 F   0  0  0  0  0  0  0  0  0  0  0  0
  1  2  1  1  0  0  0
  1 24  1  0  0  0  0
  1  3  1  0  0  0  0
  4  3  1  0  0  0  0
  5  4  1  0  0  0  0
  6  5  1  0  0  0  0
  6  7  1  0  0  0  0
  8 10  2  0  0  0  0
  9 10  2  0  0  0  0
 10  6  1  0  0  0  0
 11 12  1  0  0  0  0
 11 15  1  1  0  0  0
 12 10  1  1  0  0  0
 13 14  1  1  0  0  0
 13 11  1  0  0  0  0
 13 12  1  0  0  0  0
 16 11  1  0  0  0  0
 18 20  1  0  0  0  0
 19 22  2  0  0  0  0
 20 22  1  0  0  0  0
 21 18  1  0  0  0  0
 21 23  1  0  0  0  0
 22 17  1  0  0  0  0
 23 16  1  6  0  0  0
 23 19  1  0  0  0  0
 24 25  1  0  0  0  0
 25 30  1  6  0  0  0
 25 28  1  0  0  0  0
 26 28  1  0  0  0  0
 28 27  1  0  0  0  0
 28 29  1  0  0  0  0
 31 30  2  0  0  0  0
 32 31  1  0  0  0  0
 33 34  1  0  0  0  0
 33 32  1  0  0  0  0
 34 35  1  0  0  0  0
 35 36  1  6  0  0  0
 35 38  1  0  0  0  0
 37 42  1  0  0  0  0
 38 40  1  0  0  0  0
 38 43  2  0  0  0  0
 40 37  2  0  0  0  0
 41 39  2  0  0  0  0
 42 39  1  0  0  0  0
 43 41  1  0  0  0  0
 44 40  1  0  0  0  0
M  END
>  <MODEL>
2

>  <REMARK>
 VINA RESULT:      -6.7      2.033      4.441
  Name = 
  17 active torsions:
  status: ('A' for Active; 'I' for Inactive)
    1  A    between atoms: C_2  and  C_8
    2  A    between atoms: C_2  and  N_35
    3  A    between atoms: C_3  and  O_11
    4  A    between atoms: C_3  and  C_15
    5  A    between atoms: C_5  and  O_32
    6  A    between atoms: C_7  and  S_29
    7  A    between atoms: C_8  and  C_20
    8  A    between atoms: C_9  and  C_39
    9  A    between atoms: O_11  and  C_28
   10  A    between atoms: C_12  and  C_20
   11  A    between atoms: C_12  and  N_42
   12  A    between atoms: C_15  and  C_16
   13  A    between atoms: C_23  and  C_28
   14  A    between atoms: S_29  and  N_42
   15  A    between atoms: O_32  and  C_41
   16  A    between atoms: N_35  and  C_39
   17  A    between atoms: C_38  and  C_39
                            x       y       z     vdW  Elec       q    Type
                         _______ _______ _______ _____ _____    ______ ____

>  <TORSDO>
F 17

$$$$
=
 OpenBabel11062422133D

 44 46  0  0  1  0  0  0  0  0999 V2000
  189.5790  173.4260  140.1940 C   0  0  2  0  0  3  0  0  0  0  0  0
  188.8500  173.2430  139.0150 O   0  0  0  0  0  1  0  0  0  0  0  0
  190.9640  172.8010  140.0760 C   0  0  0  0  0  2  0  0  0  0  0  0
  192.0340  173.8380  139.7570 C   0  0  0  0  0  2  0  0  0  0  0  0
  193.0340  173.9280  140.9000 C   0  0  0  0  0  2  0  0  0  0  0  0
  194.0370  174.9410  140.6160 N   0  0  0  0  0  0  0  0  0  0  0  0
  194.6100  174.6350  139.3140 C   0  0  0  0  0  1  0  0  0  0  0  0
  196.6140  175.0520  141.1190 O   0  0  0  0  0  0  0  0  0  0  0  0
  195.3170  173.4110  142.3740 O   0  0  0  0  0  0  0  0  0  0  0  0
  195.2990  174.8050  141.8020 S   0  0  0  0  0  0  0  0  0  0  0  0
  194.3610  175.7300  144.3630 C   0  0  2  0  0  0  0  0  0  0  0  0
  195.0810  176.0930  143.0630 C   0  0  1  0  0  3  0  0  0  0  0  0
  195.8830  175.8690  144.3590 C   0  0  2  0  0  3  0  0  0  0  0  0
  196.5010  174.6150  144.4140 O   0  0  0  0  0  1  0  0  0  0  0  0
  193.7030  174.3560  144.4960 C   0  0  0  0  0  1  0  0  0  0  0  0
  193.6660  176.8280  144.9010 O   0  0  0  0  0  0  0  0  0  0  0  0
  189.1800  178.1180  144.8490 F   0  0  0  0  0  0  0  0  0  0  0  0
  191.0030  175.9120  147.3290 C   0  0  0  0  0  2  0  0  0  0  0  0
  191.3090  177.1800  144.7800 C   0  0  0  0  0  3  0  0  0  0  0  0
  189.9730  176.9480  146.8750 C   0  0  0  0  0  2  0  0  0  0  0  0
  192.3960  176.3280  146.8800 C   0  0  0  0  0  2  0  0  0  0  0  0
  190.1580  177.3790  145.4380 C   0  0  0  0  0  0  0  0  0  0  0  0
  192.4280  176.3480  145.3540 C   0  0  2  0  0  3  0  0  0  0  0  0
  188.8490  172.8610  141.3180 N   0  0  0  0  0  2  0  0  0  0  0  0
  188.7040  173.9320  142.2940 C   0  0  1  0  0  3  0  0  0  0  0  0
  190.4060  172.6580  143.3750 F   0  0  0  0  0  0  0  0  0  0  0  0
  190.8330  174.8070  142.8830 F   0  0  0  0  0  0  0  0  0  0  0  0
  189.8560  173.9230  143.3000 C   0  0  0  0  0  0  0  0  0  0  0  0
  189.4130  174.3030  144.5540 F   0  0  0  0  0  0  0  0  0  0  0  0
  188.5170  175.2570  141.6110 C   0  0  0  0  0  3  0  0  0  0  0  0
  188.3150  176.3930  142.2770 C   0  0  0  0  0  3  0  0  0  0  0  0
  188.1380  177.6710  141.5280 C   0  0  0  0  0  2  0  0  0  0  0  0
  186.8330  177.7660  141.0440 O   0  0  0  0  0  0  0  0  0  0  0  0
  186.1760  178.5890  141.9620 C   0  0  0  0  0  2  0  0  0  0  0  0
  184.9530  177.8780  142.5210 C   0  0  2  0  0  3  0  0  0  0  0  0
  183.7930  178.4870  142.0370 O   0  0  0  0  0  1  0  0  0  0  0  0
  186.3300  176.9450  145.8780 C   0  0  0  0  0  3  0  0  0  0  0  0
  184.9550  177.8580  144.0220 C   0  0  0  0  0  0  0  0  0  0  0  0
  184.8950  178.5420  147.0130 N   0  0  0  0  0  0  0  0  0  0  0  0
  185.7510  176.7970  144.6870 C   0  0  0  0  0  0  0  0  0  0  0  0
  183.9690  178.8060  146.1430 C   0  0  0  0  0  3  0  0  0  0  0  0
  186.2680  178.2110  146.6660 C   0  0  0  0  0  2  0  0  0  0  0  0
  184.1500  178.7130  144.6820 C   0  0  0  0  0  3  0  0  0  0  0  0
  185.9540  175.6290  144.0290 F   0  0  0  0  0  0  0  0  0  0  0  0
  1  2  1  6  0  0  0
  1 24  1  0  0  0  0
  3  1  1  0  0  0  0
  4  3  1  0  0  0  0
  4  5  1  0  0  0  0
  6  5  1  0  0  0  0
  6 10  1  0  0  0  0
  7  6  1  0  0  0  0
  8 10  2  0  0  0  0
 10  9  2  0  0  0  0
 11 15  1  1  0  0  0
 11 16  1  0  0  0  0
 12 10  1  6  0  0  0
 12 13  1  0  0  0  0
 12 11  1  0  0  0  0
 13 11  1  0  0  0  0
 13 14  1  6  0  0  0
 17 22  1  0  0  0  0
 19 23  1  0  0  0  0
 19 22  2  0  0  0  0
 20 18  1  0  0  0  0
 21 18  1  0  0  0  0
 22 20  1  0  0  0  0
 23 16  1  1  0  0  0
 23 21  1  0  0  0  0
 24 25  1  0  0  0  0
 25 30  1  6  0  0  0
 25 28  1  0  0  0  0
 27 28  1  0  0  0  0
 28 26  1  0  0  0  0
 28 29  1  0  0  0  0
 30 31  2  0  0  0  0
 32 31  1  0  0  0  0
 33 32  1  0  0  0  0
 33 34  1  0  0  0  0
 34 35  1  0  0  0  0
 35 36  1  1  0  0  0
 35 38  1  0  0  0  0
 37 42  1  0  0  0  0
 38 43  2  0  0  0  0
 38 40  1  0  0  0  0
 40 37  2  0  0  0  0
 41 39  2  0  0  0  0
 42 39  1  0  0  0  0
 43 41  1  0  0  0  0
 44 40  1  0  0  0  0
M  END
>  <MODEL>
3

>  <REMARK>
 VINA RESULT:      -6.6      1.718      2.079
  Name = 
  17 active torsions:
  status: ('A' for Active; 'I' for Inactive)
    1  A    between atoms: C_2  and  C_8
    2  A    between atoms: C_2  and  N_35
    3  A    between atoms: C_3  and  O_11
    4  A    between atoms: C_3  and  C_15
    5  A    between atoms: C_5  and  O_32
    6  A    between atoms: C_7  and  S_29
    7  A    between atoms: C_8  and  C_20
    8  A    between atoms: C_9  and  C_39
    9  A    between atoms: O_11  and  C_28
   10  A    between atoms: C_12  and  C_20
   11  A    between atoms: C_12  and  N_42
   12  A    between atoms: C_15  and  C_16
   13  A    between atoms: C_23  and  C_28
   14  A    between atoms: S_29  and  N_42
   15  A    between atoms: O_32  and  C_41
   16  A    between atoms: N_35  and  C_39
   17  A    between atoms: C_38  and  C_39
                            x       y       z     vdW  Elec       q    Type
                         _______ _______ _______ _____ _____    ______ ____

>  <TORSDO>
F 17

$$$$
=
 OpenBabel11062422133D

 44 46  0  0  1  0  0  0  0  0999 V2000
  191.3750  176.3140  146.2180 C   0  0  2  0  0  3  0  0  0  0  0  0
  192.5610  176.7900  146.7820 O   0  0  0  0  0  1  0  0  0  0  0  0
  191.3620  176.5430  144.7100 C   0  0  0  0  0  2  0  0  0  0  0  0
  192.6920  177.0870  144.2040 C   0  0  0  0  0  2  0  0  0  0  0  0
  193.4760  175.9870  143.5040 C   0  0  0  0  0  2  0  0  0  0  0  0
  194.8970  176.1270  143.7760 N   0  0  0  0  0  0  0  0  0  0  0  0
  195.5990  175.9950  142.5080 C   0  0  0  0  0  1  0  0  0  0  0  0
  195.3310  175.2820  146.2270 O   0  0  0  0  0  0  0  0  0  0  0  0
  196.8080  174.4200  144.4860 O   0  0  0  0  0  0  0  0  0  0  0  0
  195.3870  174.8120  144.8000 S   0  0  0  0  0  0  0  0  0  0  0  0
  194.6310  172.2150  143.8120 C   0  0  2  0  0  0  0  0  0  0  0  0
  194.2100  173.4410  144.6250 C   0  0  1  0  0  3  0  0  0  0  0  0
  194.6240  172.1400  145.3390 C   0  0  2  0  0  3  0  0  0  0  0  0
  195.9260  172.1840  145.8500 O   0  0  0  0  0  1  0  0  0  0  0  0
  195.9510  172.2460  143.0390 C   0  0  0  0  0  1  0  0  0  0  0  0
  193.5340  171.6010  143.1830 O   0  0  0  0  0  0  0  0  0  0  0  0
  188.9770  171.6700  144.1920 F   0  0  0  0  0  0  0  0  0  0  0  0
  190.9410  173.9130  141.8570 C   0  0  0  0  0  2  0  0  0  0  0  0
  191.2710  171.9060  143.8730 C   0  0  0  0  0  3  0  0  0  0  0  0
  189.7230  173.1220  142.3380 C   0  0  0  0  0  2  0  0  0  0  0  0
  192.1630  173.0070  141.7980 C   0  0  0  0  0  2  0  0  0  0  0  0
  190.0190  172.2450  143.5340 C   0  0  0  0  0  0  0  0  0  0  0  0
  192.4770  172.5210  143.2100 C   0  0  2  0  0  3  0  0  0  0  0  0
  190.2340  176.9580  146.8490 N   0  0  0  0  0  2  0  0  0  0  0  0
  189.1050  176.0550  146.6810 C   0  0  1  0  0  3  0  0  0  0  0  0
  188.2950  174.3660  148.1570 F   0  0  0  0  0  0  0  0  0  0  0  0
  189.5280  173.7350  146.3900 F   0  0  0  0  0  0  0  0  0  0  0  0
  189.3680  174.7080  147.3570 C   0  0  0  0  0  0  0  0  0  0  0  0
  190.5130  174.7660  148.1300 F   0  0  0  0  0  0  0  0  0  0  0  0
  187.8260  176.7070  147.1260 C   0  0  0  0  0  3  0  0  0  0  0  0
  186.6550  176.4870  146.5300 C   0  0  0  0  0  3  0  0  0  0  0  0
  185.4280  177.1720  147.0300 C   0  0  0  0  0  2  0  0  0  0  0  0
  185.3740  178.4770  146.5380 O   0  0  0  0  0  0  0  0  0  0  0  0
  185.0970  178.3280  145.1770 C   0  0  0  0  0  2  0  0  0  0  0  0
  186.0440  179.1860  144.3530 C   0  0  2  0  0  3  0  0  0  0  0  0
  185.3840  180.3420  143.9280 O   0  0  0  0  0  1  0  0  0  0  0  0
  188.2750  176.6520  142.7290 C   0  0  0  0  0  3  0  0  0  0  0  0
  186.6050  178.4340  143.1810 C   0  0  0  0  0  0  0  0  0  0  0  0
  187.0440  176.7730  140.6390 N   0  0  0  0  0  0  0  0  0  0  0  0
  187.9160  177.7650  143.3670 C   0  0  0  0  0  0  0  0  0  0  0  0
  186.3820  177.8860  140.7280 C   0  0  0  0  0  3  0  0  0  0  0  0
  187.3800  175.9320  141.7760 C   0  0  0  0  0  2  0  0  0  0  0  0
  185.9620  178.5030  142.0000 C   0  0  0  0  0  3  0  0  0  0  0  0
  188.7830  178.2770  144.2750 F   0  0  0  0  0  0  0  0  0  0  0  0
  1  2  1  1  0  0  0
  1 24  1  0  0  0  0
  3  1  1  0  0  0  0
  4  3  1  0  0  0  0
  5  6  1  0  0  0  0
  5  4  1  0  0  0  0
  6 10  1  0  0  0  0
  7  6  1  0  0  0  0
  9 10  2  0  0  0  0
 10  8  2  0  0  0  0
 11 15  1  6  0  0  0
 11 12  1  0  0  0  0
 11 13  1  0  0  0  0
 12 10  1  1  0  0  0
 12 13  1  0  0  0  0
 13 14  1  1  0  0  0
 16 11  1  0  0  0  0
 18 20  1  0  0  0  0
 20 22  1  0  0  0  0
 21 18  1  0  0  0  0
 21 23  1  0  0  0  0
 22 19  2  0  0  0  0
 22 17  1  0  0  0  0
 23 16  1  6  0  0  0
 23 19  1  0  0  0  0
 25 24  1  0  0  0  0
 25 30  1  1  0  0  0
 25 28  1  0  0  0  0
 27 28  1  0  0  0  0
 28 29  1  0  0  0  0
 28 26  1  0  0  0  0
 31 32  1  0  0  0  0
 31 30  2  0  0  0  0
 33 32  1  0  0  0  0
 34 33  1  0  0  0  0
 35 36  1  6  0  0  0
 35 34  1  0  0  0  0
 37 40  2  0  0  0  0
 38 40  1  0  0  0  0
 38 35  1  0  0  0  0
 39 41  2  0  0  0  0
 39 42  1  0  0  0  0
 40 44  1  0  0  0  0
 41 43  1  0  0  0  0
 42 37  1  0  0  0  0
 43 38  2  0  0  0  0
M  END
>  <MODEL>
4

>  <REMARK>
 VINA RESULT:      -6.6      2.339      4.815
  Name = 
  17 active torsions:
  status: ('A' for Active; 'I' for Inactive)
    1  A    between atoms: C_2  and  C_8
    2  A    between atoms: C_2  and  N_35
    3  A    between atoms: C_3  and  O_11
    4  A    between atoms: C_3  and  C_15
    5  A    between atoms: C_5  and  O_32
    6  A    between atoms: C_7  and  S_29
    7  A    between atoms: C_8  and  C_20
    8  A    between atoms: C_9  and  C_39
    9  A    between atoms: O_11  and  C_28
   10  A    between atoms: C_12  and  C_20
   11  A    between atoms: C_12  and  N_42
   12  A    between atoms: C_15  and  C_16
   13  A    between atoms: C_23  and  C_28
   14  A    between atoms: S_29  and  N_42
   15  A    between atoms: O_32  and  C_41
   16  A    between atoms: N_35  and  C_39
   17  A    between atoms: C_38  and  C_39
                            x       y       z     vdW  Elec       q    Type
                         _______ _______ _______ _____ _____    ______ ____

>  <TORSDO>
F 17

$$$$
=
 OpenBabel11062422133D

 44 46  0  0  1  0  0  0  0  0999 V2000
  192.9810  175.6710  143.3910 C   0  0  2  0  0  3  0  0  0  0  0  0
  194.0980  176.3340  142.8750 O   0  0  0  0  0  1  0  0  0  0  0  0
  191.9300  175.4600  142.3060 C   0  0  0  0  0  2  0  0  0  0  0  0
  190.5530  175.9450  142.7430 C   0  0  0  0  0  2  0  0  0  0  0  0
  189.5160  174.8580  142.5070 C   0  0  0  0  0  2  0  0  0  0  0  0
  189.6280  174.3360  141.1550 N   0  0  0  0  0  0  0  0  0  0  0  0
  188.4010  174.6770  140.4520 C   0  0  0  0  0  1  0  0  0  0  0  0
  189.1880  172.0330  139.9670 O   0  0  0  0  0  0  0  0  0  0  0  0
  188.8830  172.1010  142.3860 O   0  0  0  0  0  0  0  0  0  0  0  0
  189.7300  172.6040  141.2470 S   0  0  0  0  0  0  0  0  0  0  0  0
  192.0180  171.7080  142.7490 C   0  0  2  0  0  0  0  0  0  0  0  0
  191.4720  172.1090  141.3770 C   0  0  1  0  0  3  0  0  0  0  0  0
  191.6970  170.6240  141.7200 C   0  0  2  0  0  3  0  0  0  0  0  0
  190.5160  169.9510  142.0510 O   0  0  0  0  0  1  0  0  0  0  0  0
  191.1390  171.8920  143.9870 C   0  0  0  0  0  1  0  0  0  0  0  0
  193.3830  172.0160  142.8810 O   0  0  0  0  0  0  0  0  0  0  0  0
  196.4870  173.2420  146.1450 F   0  0  0  0  0  0  0  0  0  0  0  0
  194.9010  169.8630  145.5060 C   0  0  0  0  0  2  0  0  0  0  0  0
  194.7210  172.6220  144.7610 C   0  0  0  0  0  3  0  0  0  0  0  0
  196.0150  170.8280  145.9160 C   0  0  0  0  0  2  0  0  0  0  0  0
  194.3890  170.2160  144.1170 C   0  0  0  0  0  2  0  0  0  0  0  0
  195.6860  172.2740  145.6250 C   0  0  0  0  0  0  0  0  0  0  0  0
  193.7730  171.6120  144.1660 C   0  0  2  0  0  3  0  0  0  0  0  0
  192.4310  176.4250  144.5060 N   0  0  0  0  0  2  0  0  0  0  0  0
  192.8610  175.7420  145.7180 C   0  0  1  0  0  3  0  0  0  0  0  0
  193.4580  177.0710  147.6050 F   0  0  0  0  0  0  0  0  0  0  0  0
  194.9980  175.6760  146.7540 F   0  0  0  0  0  0  0  0  0  0  0  0
  193.9580  176.5280  146.4370 C   0  0  0  0  0  0  0  0  0  0  0  0
  194.4380  177.5440  145.6310 F   0  0  0  0  0  0  0  0  0  0  0  0
  191.6850  175.4170  146.5950 C   0  0  0  0  0  3  0  0  0  0  0  0
  190.5690  174.8540  146.1320 C   0  0  0  0  0  3  0  0  0  0  0  0
  189.4430  174.5620  147.0660 C   0  0  0  0  0  2  0  0  0  0  0  0
  188.7140  175.7250  147.3160 O   0  0  0  0  0  0  0  0  0  0  0  0
  188.1120  176.0330  146.0940 C   0  0  0  0  0  2  0  0  0  0  0  0
  187.1310  177.1820  146.2680 C   0  0  2  0  0  3  0  0  0  0  0  0
  186.1300  176.8140  147.1700 O   0  0  0  0  0  1  0  0  0  0  0  0
  187.1740  177.7320  142.5620 C   0  0  0  0  0  3  0  0  0  0  0  0
  186.5340  177.6110  144.9590 C   0  0  0  0  0  0  0  0  0  0  0  0
  184.7670  178.0450  142.4880 N   0  0  0  0  0  0  0  0  0  0  0  0
  187.4720  177.9090  143.8480 C   0  0  0  0  0  0  0  0  0  0  0  0
  184.4440  178.2960  143.7200 C   0  0  0  0  0  3  0  0  0  0  0  0
  185.8680  177.1820  142.0930 C   0  0  0  0  0  2  0  0  0  0  0  0
  185.2050  177.8210  144.8910 C   0  0  0  0  0  3  0  0  0  0  0  0
  188.7240  178.3320  144.1530 F   0  0  0  0  0  0  0  0  0  0  0  0
  1  2  1  6  0  0  0
  1 24  1  0  0  0  0
  3  4  1  0  0  0  0
  3  1  1  0  0  0  0
  5  4  1  0  0  0  0
  6 10  1  0  0  0  0
  6  5  1  0  0  0  0
  7  6  1  0  0  0  0
  8 10  2  0  0  0  0
 10  9  2  0  0  0  0
 11 16  1  0  0  0  0
 11 15  1  1  0  0  0
 12 10  1  1  0  0  0
 12 13  1  0  0  0  0
 12 11  1  0  0  0  0
 13 14  1  1  0  0  0
 13 11  1  0  0  0  0
 18 20  1  0  0  0  0
 19 22  2  0  0  0  0
 21 23  1  0  0  0  0
 21 18  1  0  0  0  0
 22 20  1  0  0  0  0
 22 17  1  0  0  0  0
 23 16  1  6  0  0  0
 23 19  1  0  0  0  0
 24 25  1  0  0  0  0
 25 28  1  0  0  0  0
 25 30  1  1  0  0  0
 28 27  1  0  0  0  0
 28 26  1  0  0  0  0
 29 28  1  0  0  0  0
 31 30  2  0  0  0  0
 31 32  1  0  0  0  0
 32 33  1  0  0  0  0
 34 35  1  0  0  0  0
 34 33  1  0  0  0  0
 35 36  1  1  0  0  0
 37 40  2  0  0  0  0
 38 35  1  0  0  0  0
 39 41  2  0  0  0  0
 40 44  1  0  0  0  0
 40 38  1  0  0  0  0
 41 43  1  0  0  0  0
 42 39  1  0  0  0  0
 42 37  1  0  0  0  0
 43 38  2  0  0  0  0
M  END
>  <MODEL>
5

>  <REMARK>
 VINA RESULT:      -6.5      3.238      5.994
  Name = 
  17 active torsions:
  status: ('A' for Active; 'I' for Inactive)
    1  A    between atoms: C_2  and  C_8
    2  A    between atoms: C_2  and  N_35
    3  A    between atoms: C_3  and  O_11
    4  A    between atoms: C_3  and  C_15
    5  A    between atoms: C_5  and  O_32
    6  A    between atoms: C_7  and  S_29
    7  A    between atoms: C_8  and  C_20
    8  A    between atoms: C_9  and  C_39
    9  A    between atoms: O_11  and  C_28
   10  A    between atoms: C_12  and  C_20
   11  A    between atoms: C_12  and  N_42
   12  A    between atoms: C_15  and  C_16
   13  A    between atoms: C_23  and  C_28
   14  A    between atoms: S_29  and  N_42
   15  A    between atoms: O_32  and  C_41
   16  A    between atoms: N_35  and  C_39
   17  A    between atoms: C_38  and  C_39
                            x       y       z     vdW  Elec       q    Type
                         _______ _______ _______ _____ _____    ______ ____

>  <TORSDO>
F 17

$$$$
=
 OpenBabel11062422133D

 44 46  0  0  1  0  0  0  0  0999 V2000
  190.8710  176.1230  146.1300 C   0  0  2  0  0  3  0  0  0  0  0  0
  190.5170  177.1800  146.9720 O   0  0  0  0  0  1  0  0  0  0  0  0
  189.6540  175.2660  145.7980 C   0  0  0  0  0  2  0  0  0  0  0  0
  189.5470  174.9790  144.3050 C   0  0  0  0  0  2  0  0  0  0  0  0
  188.4540  175.8340  143.6840 C   0  0  0  0  0  2  0  0  0  0  0  0
  188.9500  176.5020  142.4920 N   0  0  0  0  0  0  0  0  0  0  0  0
  189.6280  177.7150  142.9220 C   0  0  0  0  0  1  0  0  0  0  0  0
  187.4750  175.9980  140.3750 O   0  0  0  0  0  0  0  0  0  0  0  0
  187.8030  178.3440  140.9560 O   0  0  0  0  0  0  0  0  0  0  0  0
  187.5860  176.9650  141.5210 S   0  0  0  0  0  0  0  0  0  0  0  0
  185.5040  178.0890  143.1620 C   0  0  2  0  0  0  0  0  0  0  0  0
  186.0680  176.8260  142.5080 C   0  0  1  0  0  3  0  0  0  0  0  0
  184.8390  177.5310  141.9030 C   0  0  2  0  0  3  0  0  0  0  0  0
  185.1480  178.3120  140.7850 O   0  0  0  0  0  1  0  0  0  0  0  0
  186.3120  179.3860  143.1080 C   0  0  0  0  0  1  0  0  0  0  0  0
  184.8330  177.8010  144.3640 O   0  0  0  0  0  0  0  0  0  0  0  0
  187.1170  175.7000  147.8520 F   0  0  0  0  0  0  0  0  0  0  0  0
  185.9180  179.2830  147.5970 C   0  0  0  0  0  2  0  0  0  0  0  0
  186.2620  176.8990  146.0490 C   0  0  0  0  0  3  0  0  0  0  0  0
  186.2460  177.9670  148.3050 C   0  0  0  0  0  2  0  0  0  0  0  0
  184.9810  179.0280  146.4260 C   0  0  0  0  0  2  0  0  0  0  0  0
  186.5900  176.8480  147.3480 C   0  0  0  0  0  0  0  0  0  0  0  0
  185.7010  178.1450  145.4110 C   0  0  2  0  0  3  0  0  0  0  0  0
  191.9140  175.3230  146.7530 N   0  0  0  0  0  2  0  0  0  0  0  0
  193.0100  175.2590  145.7960 C   0  0  1  0  0  3  0  0  0  0  0  0
  193.8180  176.8950  147.3320 F   0  0  0  0  0  0  0  0  0  0  0  0
  195.2390  175.3110  146.6150 F   0  0  0  0  0  0  0  0  0  0  0  0
  194.1870  176.1260  146.2450 C   0  0  0  0  0  0  0  0  0  0  0  0
  194.6010  176.9550  145.2190 F   0  0  0  0  0  0  0  0  0  0  0  0
  193.3910  173.8330  145.5150 C   0  0  0  0  0  3  0  0  0  0  0  0
  192.6310  173.0080  144.7970 C   0  0  0  0  0  3  0  0  0  0  0  0
  193.0770  171.6040  144.5600 C   0  0  0  0  0  2  0  0  0  0  0  0
  192.0020  170.8270  144.1260 O   0  0  0  0  0  0  0  0  0  0  0  0
  192.1370  170.7850  142.7370 C   0  0  0  0  0  2  0  0  0  0  0  0
  190.8210  170.3710  142.0960 C   0  0  2  0  0  3  0  0  0  0  0  0
  190.8500  169.0060  141.8000 O   0  0  0  0  0  1  0  0  0  0  0  0
  189.8870  173.4970  140.2540 C   0  0  0  0  0  3  0  0  0  0  0  0
  190.5210  171.1750  140.8630 C   0  0  0  0  0  0  0  0  0  0  0  0
  190.5540  172.5490  138.1200 N   0  0  0  0  0  0  0  0  0  0  0  0
  189.7520  172.4310  141.0400 C   0  0  0  0  0  0  0  0  0  0  0  0
  190.5930  171.2710  138.3420 C   0  0  0  0  0  3  0  0  0  0  0  0
  190.8560  173.5600  139.1200 C   0  0  0  0  0  2  0  0  0  0  0  0
  190.8530  170.6640  139.6620 C   0  0  0  0  0  3  0  0  0  0  0  0
  188.9020  172.5280  142.0920 F   0  0  0  0  0  0  0  0  0  0  0  0
  1 24  1  0  0  0  0
  1  2  1  1  0  0  0
  3  1  1  0  0  0  0
  4  3  1  0  0  0  0
  5  4  1  0  0  0  0
  6  7  1  0  0  0  0
  6  5  1  0  0  0  0
  8 10  2  0  0  0  0
  9 10  2  0  0  0  0
 10  6  1  0  0  0  0
 11 15  1  6  0  0  0
 11 16  1  0  0  0  0
 12 10  1  6  0  0  0
 12 11  1  0  0  0  0
 13 14  1  6  0  0  0
 13 12  1  0  0  0  0
 13 11  1  0  0  0  0
 18 20  1  0  0  0  0
 19 22  2  0  0  0  0
 21 18  1  0  0  0  0
 22 17  1  0  0  0  0
 22 20  1  0  0  0  0
 23 16  1  6  0  0  0
 23 19  1  0  0  0  0
 23 21  1  0  0  0  0
 25 30  1  1  0  0  0
 25 28  1  0  0  0  0
 25 24  1  0  0  0  0
 28 27  1  0  0  0  0
 28 26  1  0  0  0  0
 29 28  1  0  0  0  0
 31 30  2  0  0  0  0
 32 31  1  0  0  0  0
 33 32  1  0  0  0  0
 34 33  1  0  0  0  0
 35 36  1  6  0  0  0
 35 34  1  0  0  0  0
 37 40  2  0  0  0  0
 38 40  1  0  0  0  0
 38 35  1  0  0  0  0
 39 41  2  0  0  0  0
 39 42  1  0  0  0  0
 40 44  1  0  0  0  0
 41 43  1  0  0  0  0
 42 37  1  0  0  0  0
 43 38  2  0  0  0  0
M  END
>  <MODEL>
6

>  <REMARK>
 VINA RESULT:      -6.3      3.156      8.407
  Name = 
  17 active torsions:
  status: ('A' for Active; 'I' for Inactive)
    1  A    between atoms: C_2  and  C_8
    2  A    between atoms: C_2  and  N_35
    3  A    between atoms: C_3  and  O_11
    4  A    between atoms: C_3  and  C_15
    5  A    between atoms: C_5  and  O_32
    6  A    between atoms: C_7  and  S_29
    7  A    between atoms: C_8  and  C_20
    8  A    between atoms: C_9  and  C_39
    9  A    between atoms: O_11  and  C_28
   10  A    between atoms: C_12  and  C_20
   11  A    between atoms: C_12  and  N_42
   12  A    between atoms: C_15  and  C_16
   13  A    between atoms: C_23  and  C_28
   14  A    between atoms: S_29  and  N_42
   15  A    between atoms: O_32  and  C_41
   16  A    between atoms: N_35  and  C_39
   17  A    between atoms: C_38  and  C_39
                            x       y       z     vdW  Elec       q    Type
                         _______ _______ _______ _____ _____    ______ ____

>  <TORSDO>
F 17

$$$$
=
 OpenBabel11062422133D

 44 46  0  0  1  0  0  0  0  0999 V2000
  193.9140  175.9750  146.1930 C   0  0  2  0  0  3  0  0  0  0  0  0
  194.4330  176.7280  145.1370 O   0  0  0  0  0  1  0  0  0  0  0  0
  193.5010  174.5860  145.7150 C   0  0  0  0  0  2  0  0  0  0  0  0
  194.4630  174.0320  144.6720 C   0  0  0  0  0  2  0  0  0  0  0  0
  195.6760  173.4160  145.3520 C   0  0  0  0  0  2  0  0  0  0  0  0
  196.3590  172.5080  144.4440 N   0  0  0  0  0  0  0  0  0  0  0  0
  195.7420  172.6560  143.1340 C   0  0  0  0  0  1  0  0  0  0  0  0
  196.6000  170.7610  146.3930 O   0  0  0  0  0  0  0  0  0  0  0  0
  196.8360  169.9130  144.1180 O   0  0  0  0  0  0  0  0  0  0  0  0
  196.0790  170.8820  144.9880 S   0  0  0  0  0  0  0  0  0  0  0  0
  193.6920  169.6230  143.9840 C   0  0  2  0  0  0  0  0  0  0  0  0
  194.2930  170.5600  145.0330 C   0  0  1  0  0  3  0  0  0  0  0  0
  193.9070  169.1180  145.4110 C   0  0  2  0  0  3  0  0  0  0  0  0
  195.0050  168.2540  145.4770 O   0  0  0  0  0  1  0  0  0  0  0  0
  194.5720  169.1200  142.8380 C   0  0  0  0  0  1  0  0  0  0  0  0
  192.3660  169.9680  143.6690 O   0  0  0  0  0  0  0  0  0  0  0  0
  189.5220  173.5570  144.5770 F   0  0  0  0  0  0  0  0  0  0  0  0
  192.1270  173.2030  141.8510 C   0  0  0  0  0  2  0  0  0  0  0  0
  191.1790  171.9550  144.2480 C   0  0  0  0  0  3  0  0  0  0  0  0
  190.8070  173.6670  142.4700 C   0  0  0  0  0  2  0  0  0  0  0  0
  192.2730  171.6950  142.0010 C   0  0  0  0  0  2  0  0  0  0  0  0
  190.5400  173.0570  143.8270 C   0  0  0  0  0  0  0  0  0  0  0  0
  192.3360  171.3580  143.4880 C   0  0  2  0  0  3  0  0  0  0  0  0
  192.7860  176.6730  146.7890 N   0  0  0  0  0  2  0  0  0  0  0  0
  191.5850  176.0110  146.3000 C   0  0  1  0  0  3  0  0  0  0  0  0
  190.0290  176.5450  148.0260 F   0  0  0  0  0  0  0  0  0  0  0  0
  189.8200  174.5720  146.9760 F   0  0  0  0  0  0  0  0  0  0  0  0
  190.7260  175.4980  147.4560 C   0  0  0  0  0  0  0  0  0  0  0  0
  191.5140  174.8950  148.4200 F   0  0  0  0  0  0  0  0  0  0  0  0
  190.8350  176.8990  145.3470 C   0  0  0  0  0  3  0  0  0  0  0  0
  191.0280  176.8740  144.0290 C   0  0  0  0  0  3  0  0  0  0  0  0
  190.2450  177.7860  143.1460 C   0  0  0  0  0  2  0  0  0  0  0  0
  189.2460  177.0720  142.4840 O   0  0  0  0  0  0  0  0  0  0  0  0
  188.1230  177.8990  142.5460 C   0  0  0  0  0  2  0  0  0  0  0  0
  186.9340  177.1280  143.0990 C   0  0  2  0  0  3  0  0  0  0  0  0
  185.8370  177.2790  142.2470 O   0  0  0  0  0  1  0  0  0  0  0  0
  184.9570  179.0450  145.6380 C   0  0  0  0  0  3  0  0  0  0  0  0
  186.5860  177.5610  144.4940 C   0  0  0  0  0  0  0  0  0  0  0  0
  185.8540  177.7250  147.4690 N   0  0  0  0  0  0  0  0  0  0  0  0
  185.8110  178.8180  144.6420 C   0  0  0  0  0  0  0  0  0  0  0  0
  186.9110  177.1680  146.9660 C   0  0  0  0  0  3  0  0  0  0  0  0
  184.6580  178.0440  146.7050 C   0  0  0  0  0  2  0  0  0  0  0  0
  187.0900  176.8670  145.5320 C   0  0  0  0  0  3  0  0  0  0  0  0
  185.9300  179.7700  143.6840 F   0  0  0  0  0  0  0  0  0  0  0  0
  1  2  1  6  0  0  0
  1 24  1  0  0  0  0
  3  1  1  0  0  0  0
  4  5  1  0  0  0  0
  4  3  1  0  0  0  0
  6 10  1  0  0  0  0
  6  5  1  0  0  0  0
  7  6  1  0  0  0  0
  9 10  2  0  0  0  0
 10  8  2  0  0  0  0
 11 15  1  6  0  0  0
 11 12  1  0  0  0  0
 11 13  1  0  0  0  0
 12 10  1  6  0  0  0
 12 13  1  0  0  0  0
 13 14  1  6  0  0  0
 16 11  1  0  0  0  0
 18 21  1  0  0  0  0
 18 20  1  0  0  0  0
 20 22  1  0  0  0  0
 21 23  1  0  0  0  0
 22 19  2  0  0  0  0
 22 17  1  0  0  0  0
 23 16  1  6  0  0  0
 23 19  1  0  0  0  0
 25 30  1  1  0  0  0
 25 24  1  0  0  0  0
 25 28  1  0  0  0  0
 27 28  1  0  0  0  0
 28 26  1  0  0  0  0
 28 29  1  0  0  0  0
 31 30  2  0  0  0  0
 32 31  1  0  0  0  0
 33 34  1  0  0  0  0
 33 32  1  0  0  0  0
 34 35  1  0  0  0  0
 35 36  1  6  0  0  0
 35 38  1  0  0  0  0
 37 42  1  0  0  0  0
 38 40  1  0  0  0  0
 38 43  2  0  0  0  0
 40 37  2  0  0  0  0
 41 39  2  0  0  0  0
 42 39  1  0  0  0  0
 43 41  1  0  0  0  0
 44 40  1  0  0  0  0
M  END
>  <MODEL>
7

>  <REMARK>
 VINA RESULT:      -6.3      2.786      4.998
  Name = 
  17 active torsions:
  status: ('A' for Active; 'I' for Inactive)
    1  A    between atoms: C_2  and  C_8
    2  A    between atoms: C_2  and  N_35
    3  A    between atoms: C_3  and  O_11
    4  A    between atoms: C_3  and  C_15
    5  A    between atoms: C_5  and  O_32
    6  A    between atoms: C_7  and  S_29
    7  A    between atoms: C_8  and  C_20
    8  A    between atoms: C_9  and  C_39
    9  A    between atoms: O_11  and  C_28
   10  A    between atoms: C_12  and  C_20
   11  A    between atoms: C_12  and  N_42
   12  A    between atoms: C_15  and  C_16
   13  A    between atoms: C_23  and  C_28
   14  A    between atoms: S_29  and  N_42
   15  A    between atoms: O_32  and  C_41
   16  A    between atoms: N_35  and  C_39
   17  A    between atoms: C_38  and  C_39
                            x       y       z     vdW  Elec       q    Type
                         _______ _______ _______ _____ _____    ______ ____

>  <TORSDO>
F 17

$$$$
=
 OpenBabel11062422133D

 44 46  0  0  1  0  0  0  0  0999 V2000
  190.8100  173.0330  139.5650 C   0  0  2  0  0  3  0  0  0  0  0  0
  190.6220  171.6600  139.3810 O   0  0  0  0  0  1  0  0  0  0  0  0
  192.1740  173.4660  139.0400 C   0  0  0  0  0  2  0  0  0  0  0  0
  192.9930  174.1870  140.1030 C   0  0  0  0  0  2  0  0  0  0  0  0
  194.3870  173.5840  140.1900 C   0  0  0  0  0  2  0  0  0  0  0  0
  195.3880  174.5660  139.8030 N   0  0  0  0  0  0  0  0  0  0  0  0
  196.3080  173.9120  138.8860 C   0  0  0  0  0  1  0  0  0  0  0  0
  197.4830  175.8100  140.7880 O   0  0  0  0  0  0  0  0  0  0  0  0
  196.7540  173.7910  141.9470 O   0  0  0  0  0  0  0  0  0  0  0  0
  196.2780  175.0220  141.2230 S   0  0  0  0  0  0  0  0  0  0  0  0
  194.6370  175.5360  143.5320 C   0  0  2  0  0  0  0  0  0  0  0  0
  195.2520  176.1090  142.2540 C   0  0  1  0  0  3  0  0  0  0  0  0
  195.8570  176.4530  143.6290 C   0  0  2  0  0  3  0  0  0  0  0  0
  197.0130  175.7200  143.9200 O   0  0  0  0  0  1  0  0  0  0  0  0
  194.7620  174.0390  143.8180 C   0  0  0  0  0  1  0  0  0  0  0  0
  193.4090  176.1470  143.8430 O   0  0  0  0  0  0  0  0  0  0  0  0
  189.1470  174.5590  144.8900 F   0  0  0  0  0  0  0  0  0  0  0  0
  192.0820  175.2190  147.1890 C   0  0  0  0  0  2  0  0  0  0  0  0
  191.3740  175.0440  144.4210 C   0  0  0  0  0  3  0  0  0  0  0  0
  190.6060  175.1530  146.7920 C   0  0  0  0  0  2  0  0  0  0  0  0
  192.8580  176.0520  146.1800 C   0  0  0  0  0  2  0  0  0  0  0  0
  190.3980  174.8660  145.3230 C   0  0  0  0  0  0  0  0  0  0  0  0
  192.7930  175.3570  144.8230 C   0  0  2  0  0  3  0  0  0  0  0  0
  190.6670  173.3660  140.9740 N   0  0  0  0  0  2  0  0  0  0  0  0
  189.5530  172.5740  141.4740 C   0  0  1  0  0  3  0  0  0  0  0  0
  189.0120  171.8370  143.6770 F   0  0  0  0  0  0  0  0  0  0  0  0
  190.0800  170.4130  142.3090 F   0  0  0  0  0  0  0  0  0  0  0  0
  189.9690  171.7370  142.6850 C   0  0  0  0  0  0  0  0  0  0  0  0
  191.1860  172.1680  143.1810 F   0  0  0  0  0  0  0  0  0  0  0  0
  188.3520  173.4410  141.7310 C   0  0  0  0  0  3  0  0  0  0  0  0
  188.4200  174.7700  141.7990 C   0  0  0  0  0  3  0  0  0  0  0  0
  187.1830  175.5640  142.0570 C   0  0  0  0  0  2  0  0  0  0  0  0
  187.2240  176.7600  141.3400 O   0  0  0  0  0  0  0  0  0  0  0  0
  186.9270  177.7450  142.2840 C   0  0  0  0  0  2  0  0  0  0  0  0
  185.8220  177.2650  143.2120 C   0  0  2  0  0  3  0  0  0  0  0  0
  184.5950  177.7840  142.7910 O   0  0  0  0  0  1  0  0  0  0  0  0
  185.3680  179.3360  146.3010 C   0  0  0  0  0  3  0  0  0  0  0  0
  186.0920  177.6350  144.6420 C   0  0  0  0  0  0  0  0  0  0  0  0
  186.4910  177.6850  147.6840 N   0  0  0  0  0  0  0  0  0  0  0  0
  185.7440  179.0140  145.0640 C   0  0  0  0  0  0  0  0  0  0  0  0
  187.1410  176.9520  146.8330 C   0  0  0  0  0  3  0  0  0  0  0  0
  185.2220  178.3330  147.3970 C   0  0  0  0  0  2  0  0  0  0  0  0
  186.7370  176.7530  145.4280 C   0  0  0  0  0  3  0  0  0  0  0  0
  185.7540  180.0000  144.1330 F   0  0  0  0  0  0  0  0  0  0  0  0
  1  2  1  1  0  0  0
  1 24  1  0  0  0  0
  3  1  1  0  0  0  0
  3  4  1  0  0  0  0
  4  5  1  0  0  0  0
  6  5  1  0  0  0  0
  6 10  1  0  0  0  0
  7  6  1  0  0  0  0
  8 10  2  0  0  0  0
 10  9  2  0  0  0  0
 11 13  1  0  0  0  0
 11 15  1  1  0  0  0
 11 16  1  0  0  0  0
 12 10  1  6  0  0  0
 12 11  1  0  0  0  0
 12 13  1  0  0  0  0
 13 14  1  6  0  0  0
 17 22  1  0  0  0  0
 19 23  1  0  0  0  0
 19 22  2  0  0  0  0
 20 18  1  0  0  0  0
 21 18  1  0  0  0  0
 22 20  1  0  0  0  0
 23 16  1  6  0  0  0
 23 21  1  0  0  0  0
 24 25  1  0  0  0  0
 25 30  1  1  0  0  0
 25 28  1  0  0  0  0
 27 28  1  0  0  0  0
 28 29  1  0  0  0  0
 28 26  1  0  0  0  0
 30 31  2  0  0  0  0
 31 32  1  0  0  0  0
 33 32  1  0  0  0  0
 33 34  1  0  0  0  0
 34 35  1  0  0  0  0
 35 36  1  6  0  0  0
 35 38  1  0  0  0  0
 37 42  1  0  0  0  0
 38 40  1  0  0  0  0
 38 43  2  0  0  0  0
 40 37  2  0  0  0  0
 41 39  2  0  0  0  0
 42 39  1  0  0  0  0
 43 41  1  0  0  0  0
 44 40  1  0  0  0  0
M  END
>  <MODEL>
8

>  <REMARK>
 VINA RESULT:      -6.3      2.084      2.638
  Name = 
  17 active torsions:
  status: ('A' for Active; 'I' for Inactive)
    1  A    between atoms: C_2  and  C_8
    2  A    between atoms: C_2  and  N_35
    3  A    between atoms: C_3  and  O_11
    4  A    between atoms: C_3  and  C_15
    5  A    between atoms: C_5  and  O_32
    6  A    between atoms: C_7  and  S_29
    7  A    between atoms: C_8  and  C_20
    8  A    between atoms: C_9  and  C_39
    9  A    between atoms: O_11  and  C_28
   10  A    between atoms: C_12  and  C_20
   11  A    between atoms: C_12  and  N_42
   12  A    between atoms: C_15  and  C_16
   13  A    between atoms: C_23  and  C_28
   14  A    between atoms: S_29  and  N_42
   15  A    between atoms: O_32  and  C_41
   16  A    between atoms: N_35  and  C_39
   17  A    between atoms: C_38  and  C_39
                            x       y       z     vdW  Elec       q    Type
                         _______ _______ _______ _____ _____    ______ ____

>  <TORSDO>
F 17

$$$$
=
 OpenBabel11062422133D

 44 46  0  0  1  0  0  0  0  0999 V2000
  193.7180  175.9080  144.9130 C   0  0  2  0  0  3  0  0  0  0  0  0
  193.4750  174.5840  145.2880 O   0  0  0  0  0  1  0  0  0  0  0  0
  195.1640  176.2960  145.2040 C   0  0  0  0  0  2  0  0  0  0  0  0
  195.9790  176.4610  143.9270 C   0  0  0  0  0  2  0  0  0  0  0  0
  196.6990  175.1640  143.5930 C   0  0  0  0  0  2  0  0  0  0  0  0
  197.0050  175.1060  142.1730 N   0  0  0  0  0  0  0  0  0  0  0  0
  196.4510  176.3030  141.5580 C   0  0  0  0  0  1  0  0  0  0  0  0
  196.9620  172.4960  141.8730 O   0  0  0  0  0  0  0  0  0  0  0  0
  196.1700  173.8340  139.9930 O   0  0  0  0  0  0  0  0  0  0  0  0
  196.1910  173.7290  141.4960 S   0  0  0  0  0  0  0  0  0  0  0  0
  193.3210  173.9320  141.3610 C   0  0  2  0  0  0  0  0  0  0  0  0
  194.5340  173.5890  142.2270 C   0  0  1  0  0  3  0  0  0  0  0  0
  193.6610  172.4670  141.6350 C   0  0  2  0  0  3  0  0  0  0  0  0
  194.2290  171.8640  140.5080 O   0  0  0  0  0  1  0  0  0  0  0  0
  193.5390  174.5370  139.9730 C   0  0  0  0  0  1  0  0  0  0  0  0
  192.2600  174.4480  142.1260 O   0  0  0  0  0  0  0  0  0  0  0  0
  188.1460  174.4410  139.9210 F   0  0  0  0  0  0  0  0  0  0  0  0
  189.2050  172.5220  143.0090 C   0  0  0  0  0  2  0  0  0  0  0  0
  190.2410  174.1470  140.8910 C   0  0  0  0  0  3  0  0  0  0  0  0
  188.2370  173.2820  142.1010 C   0  0  0  0  0  2  0  0  0  0  0  0
  190.4470  173.3630  143.2700 C   0  0  0  0  0  2  0  0  0  0  0  0
  188.9180  173.9320  140.9180 C   0  0  0  0  0  0  0  0  0  0  0  0
  191.1660  173.5900  141.9430 C   0  0  2  0  0  3  0  0  0  0  0  0
  192.7950  176.7950  145.6040 N   0  0  0  0  0  2  0  0  0  0  0  0
  191.4550  176.3730  145.2220 C   0  0  1  0  0  3  0  0  0  0  0  0
  189.8980  177.4670  146.6600 F   0  0  0  0  0  0  0  0  0  0  0  0
  189.5890  175.2880  146.2150 F   0  0  0  0  0  0  0  0  0  0  0  0
  190.5400  176.2630  146.4430 C   0  0  0  0  0  0  0  0  0  0  0  0
  191.2680  175.9250  147.5690 F   0  0  0  0  0  0  0  0  0  0  0  0
  190.9030  177.2590  144.1400 C   0  0  0  0  0  3  0  0  0  0  0  0
  189.7840  176.9780  143.4750 C   0  0  0  0  0  3  0  0  0  0  0  0
  189.2990  177.9070  142.4130 C   0  0  0  0  0  2  0  0  0  0  0  0
  188.2170  177.3390  141.7380 O   0  0  0  0  0  0  0  0  0  0  0  0
  187.1440  178.1890  142.0150 C   0  0  0  0  0  2  0  0  0  0  0  0
  186.0430  177.4240  142.7340 C   0  0  2  0  0  3  0  0  0  0  0  0
  184.8050  177.7400  142.1700 O   0  0  0  0  0  1  0  0  0  0  0  0
  184.9510  179.2520  145.8160 C   0  0  0  0  0  3  0  0  0  0  0  0
  186.0400  177.7030  144.2100 C   0  0  0  0  0  0  0  0  0  0  0  0
  185.8990  177.5540  147.2710 N   0  0  0  0  0  0  0  0  0  0  0  0
  185.5530  179.0340  144.6490 C   0  0  0  0  0  0  0  0  0  0  0  0
  186.7250  176.9100  146.5060 C   0  0  0  0  0  3  0  0  0  0  0  0
  184.6670  178.1700  146.8050 C   0  0  0  0  0  2  0  0  0  0  0  0
  186.5830  176.7940  145.0420 C   0  0  0  0  0  3  0  0  0  0  0  0
  185.6750  180.0820  143.7970 F   0  0  0  0  0  0  0  0  0  0  0  0
  1  3  1  0  0  0  0
  1  2  1  1  0  0  0
  1 24  1  0  0  0  0
  4  3  1  0  0  0  0
  5  4  1  0  0  0  0
  6  5  1  0  0  0  0
  7  6  1  0  0  0  0
  9 10  2  0  0  0  0
 10  8  2  0  0  0  0
 10  6  1  0  0  0  0
 11 15  1  6  0  0  0
 11 13  1  0  0  0  0
 11 16  1  0  0  0  0
 11 12  1  0  0  0  0
 12 10  1  6  0  0  0
 13 14  1  6  0  0  0
 13 12  1  0  0  0  0
 17 22  1  0  0  0  0
 18 21  1  0  0  0  0
 19 22  2  0  0  0  0
 19 23  1  0  0  0  0
 20 18  1  0  0  0  0
 22 20  1  0  0  0  0
 23 16  1  1  0  0  0
 23 21  1  0  0  0  0
 25 30  1  6  0  0  0
 25 24  1  0  0  0  0
 25 28  1  0  0  0  0
 27 28  1  0  0  0  0
 28 26  1  0  0  0  0
 28 29  1  0  0  0  0
 31 30  2  0  0  0  0
 32 31  1  0  0  0  0
 33 34  1  0  0  0  0
 33 32  1  0  0  0  0
 34 35  1  0  0  0  0
 35 36  1  6  0  0  0
 35 38  1  0  0  0  0
 37 42  1  0  0  0  0
 38 40  1  0  0  0  0
 38 43  2  0  0  0  0
 40 37  2  0  0  0  0
 41 39  2  0  0  0  0
 42 39  1  0  0  0  0
 43 41  1  0  0  0  0
 44 40  1  0  0  0  0
M  END
>  <MODEL>
9

>  <REMARK>
 VINA RESULT:      -6.2      2.013      4.373
  Name = 
  17 active torsions:
  status: ('A' for Active; 'I' for Inactive)
    1  A    between atoms: C_2  and  C_8
    2  A    between atoms: C_2  and  N_35
    3  A    between atoms: C_3  and  O_11
    4  A    between atoms: C_3  and  C_15
    5  A    between atoms: C_5  and  O_32
    6  A    between atoms: C_7  and  S_29
    7  A    between atoms: C_8  and  C_20
    8  A    between atoms: C_9  and  C_39
    9  A    between atoms: O_11  and  C_28
   10  A    between atoms: C_12  and  C_20
   11  A    between atoms: C_12  and  N_42
   12  A    between atoms: C_15  and  C_16
   13  A    between atoms: C_23  and  C_28
   14  A    between atoms: S_29  and  N_42
   15  A    between atoms: O_32  and  C_41
   16  A    between atoms: N_35  and  C_39
   17  A    between atoms: C_38  and  C_39
                            x       y       z     vdW  Elec       q    Type
                         _______ _______ _______ _____ _____    ______ ____

>  <TORSDO>
F 17

$$$$
