=
 OpenBabel11062422423D

 29 33  0  0  1  0  0  0  0  0999 V2000
  189.3840  177.5370  147.6270 N   0  0  0  0  0  2  0  0  0  0  0  0
  184.4830  178.1610  143.5080 C   0  0  1  0  0  3  0  0  0  0  0  0
  185.5170  177.0360  143.4280 C   0  0  0  0  0  2  0  0  0  0  0  0
  189.9200  174.6760  144.5080 C   0  0  0  0  0  3  0  0  0  0  0  0
  190.6270  176.8400  147.5160 C   0  0  0  0  0  0  0  0  0  0  0  0
  186.0780  177.9950  145.7800 C   0  0  2  0  0  3  0  0  0  0  0  0
  188.3640  176.1450  145.8760 C   0  0  1  0  0  3  0  0  0  0  0  0
  187.4390  176.1910  144.6860 C   0  0  0  0  0  3  0  0  0  0  0  0
  192.0830  175.3310  146.1510 C   0  0  0  0  0  3  0  0  0  0  0  0
  192.2560  174.4390  145.0910 C   0  0  0  0  0  3  0  0  0  0  0  0
  191.5220  177.0100  148.3860 O   0  0  0  0  0  0  0  0  0  0  0  0
  185.9420  179.4130  145.2160 C   0  0  0  0  0  2  0  0  0  0  0  0
  187.0690  177.9670  146.9540 C   0  0  0  0  0  2  0  0  0  0  0  0
  191.1790  174.1070  144.2660 C   0  0  0  0  0  0  0  0  0  0  0  0
  189.7370  175.5940  145.5520 C   0  0  0  0  0  0  0  0  0  0  0  0
  188.4590  177.5410  146.5010 C   0  0  1  0  0  3  0  0  0  0  0  0
  190.8290  175.9070  146.3910 C   0  0  0  0  0  0  0  0  0  0  0  0
  186.3680  176.9990  144.6640 C   0  0  0  0  0  0  0  0  0  0  0  0
  185.1610  179.4830  143.8890 C   0  0  0  0  0  2  0  0  0  0  0  0
  184.7830  178.2910  141.0370 C   0  0  0  0  0  1  0  0  0  0  0  0
  183.7750  178.2910  142.1710 C   0  0  0  0  0  2  0  0  0  0  0  0
  191.3950  173.1400  143.1380 C   0  0  2  0  0  3  0  0  0  0  0  0
  189.9870  173.9910  141.0360 C   0  0  0  0  0  1  0  0  0  0  0  0
  191.3090  173.7950  141.7600 C   0  0  1  0  0  0  0  0  0  0  0  0
  192.1470  174.9160  141.6430 O   0  0  0  0  0  0  0  0  0  0  0  0
  192.5220  173.7600  140.9240 C   0  0  0  0  0  2  0  0  0  0  0  0
  190.5370  171.9120  143.2540 C   0  0  0  0  0  0  0  0  0  0  0  0
  189.6180  171.8640  144.0570 O   0  0  0  0  0  0  0  0  0  0  0  0
  190.8210  170.7350  142.3870 C   0  0  0  0  0  1  0  0  0  0  0  0
  2 21  1  6  0  0  0
  2 19  1  0  0  0  0
  3  2  1  0  0  0  0
  3 18  1  0  0  0  0
  4 15  1  0  0  0  0
  5  1  1  0  0  0  0
  5 11  2  0  0  0  0
  6 12  1  6  0  0  0
  6 13  1  0  0  0  0
  7  8  1  6  0  0  0
  7 16  1  0  0  0  0
  9 17  1  0  0  0  0
 10  9  2  0  0  0  0
 14  4  2  0  0  0  0
 14 10  1  0  0  0  0
 15  7  1  0  0  0  0
 15 17  2  0  0  0  0
 16 13  1  1  0  0  0
 16  1  1  0  0  0  0
 17  5  1  0  0  0  0
 18  8  2  0  0  0  0
 18  6  1  0  0  0  0
 19 12  1  0  0  0  0
 20 21  1  0  0  0  0
 22 27  1  6  0  0  0
 22 14  1  0  0  0  0
 24 23  1  6  0  0  0
 24 22  1  0  0  0  0
 25 24  1  0  0  0  0
 26 25  1  0  0  0  0
 26 24  1  0  0  0  0
 27 28  2  0  0  0  0
 29 27  1  0  0  0  0
M  END
>  <MODEL>
1

>  <REMARK>
 VINA RESULT:      -7.5      0.000      0.000
  Name = 
  4 active torsions:
  status: ('A' for Active; 'I' for Inactive)
    1  A    between atoms: C_2  and  C_16
    2  A    between atoms: C_5  and  C_20
    3  A    between atoms: C_18  and  C_20
    4  A    between atoms: C_20  and  C_24
                            x       y       z     vdW  Elec       q    Type
                         _______ _______ _______ _____ _____    ______ ____

>  <TORSDO>
F 4

$$$$
=
 OpenBabel11062422423D

 29 33  0  0  1  0  0  0  0  0999 V2000
  189.3970  177.0470  147.2490 N   0  0  0  0  0  2  0  0  0  0  0  0
  184.6520  177.8350  142.9780 C   0  0  1  0  0  3  0  0  0  0  0  0
  185.9550  177.0950  142.6680 C   0  0  0  0  0  2  0  0  0  0  0  0
  190.7960  175.6590  143.4650 C   0  0  0  0  0  3  0  0  0  0  0  0
  190.7850  176.7560  147.0750 C   0  0  0  0  0  0  0  0  0  0  0  0
  186.1550  177.2920  145.2530 C   0  0  2  0  0  3  0  0  0  0  0  0
  188.8530  176.1390  145.0300 C   0  0  1  0  0  3  0  0  0  0  0  0
  187.9910  176.3660  143.8140 C   0  0  0  0  0  3  0  0  0  0  0  0
  192.6410  176.2140  145.4870 C   0  0  0  0  0  3  0  0  0  0  0  0
  193.0860  175.8130  144.2260 C   0  0  0  0  0  3  0  0  0  0  0  0
  191.5700  176.8290  148.0570 O   0  0  0  0  0  0  0  0  0  0  0  0
  185.6580  178.7380  145.1660 C   0  0  0  0  0  2  0  0  0  0  0  0
  187.0760  177.1030  146.4690 C   0  0  0  0  0  2  0  0  0  0  0  0
  192.1690  175.5330  143.2110 C   0  0  0  0  0  0  0  0  0  0  0  0
  190.3340  176.0860  144.7190 C   0  0  0  0  0  0  0  0  0  0  0  0
  188.5430  177.2120  146.0790 C   0  0  1  0  0  3  0  0  0  0  0  0
  191.2710  176.3470  145.7430 C   0  0  0  0  0  0  0  0  0  0  0  0
  186.7420  176.8440  143.9210 C   0  0  0  0  0  0  0  0  0  0  0  0
  184.9320  179.0690  143.8460 C   0  0  0  0  0  2  0  0  0  0  0  0
  184.9850  178.2310  140.5390 C   0  0  0  0  0  1  0  0  0  0  0  0
  183.9820  178.2410  141.6780 C   0  0  0  0  0  2  0  0  0  0  0  0
  192.6770  175.0990  141.8670 C   0  0  2  0  0  3  0  0  0  0  0  0
  192.1540  172.5330  142.3820 C   0  0  0  0  0  1  0  0  0  0  0  0
  192.1560  173.7260  141.4420 C   0  0  1  0  0  0  0  0  0  0  0  0
  190.9740  173.8090  140.6900 O   0  0  0  0  0  0  0  0  0  0  0  0
  192.1450  173.4320  139.9980 C   0  0  0  0  0  2  0  0  0  0  0  0
  194.1700  175.2180  141.7460 C   0  0  0  0  0  0  0  0  0  0  0  0
  194.9030  174.3110  142.1090 O   0  0  0  0  0  0  0  0  0  0  0  0
  194.7630  176.4650  141.1880 C   0  0  0  0  0  1  0  0  0  0  0  0
  2 21  1  6  0  0  0
  2 19  1  0  0  0  0
  3  2  1  0  0  0  0
  3 18  1  0  0  0  0
  4 15  1  0  0  0  0
  5  1  1  0  0  0  0
  5 11  2  0  0  0  0
  6 12  1  6  0  0  0
  6 13  1  0  0  0  0
  7  8  1  6  0  0  0
  7 16  1  0  0  0  0
  8 18  2  0  0  0  0
  9 17  1  0  0  0  0
 10  9  2  0  0  0  0
 14  4  2  0  0  0  0
 14 10  1  0  0  0  0
 15  7  1  0  0  0  0
 15 17  2  0  0  0  0
 16 13  1  1  0  0  0
 16  1  1  0  0  0  0
 17  5  1  0  0  0  0
 18  6  1  0  0  0  0
 19 12  1  0  0  0  0
 20 21  1  0  0  0  0
 22 27  1  1  0  0  0
 22 14  1  0  0  0  0
 24 22  1  0  0  0  0
 24 23  1  1  0  0  0
 25 24  1  0  0  0  0
 26 25  1  0  0  0  0
 26 24  1  0  0  0  0
 27 28  2  0  0  0  0
 29 27  1  0  0  0  0
M  END
>  <MODEL>
2

>  <REMARK>
 VINA RESULT:      -7.3      1.404      2.328
  Name = 
  4 active torsions:
  status: ('A' for Active; 'I' for Inactive)
    1  A    between atoms: C_2  and  C_16
    2  A    between atoms: C_5  and  C_20
    3  A    between atoms: C_18  and  C_20
    4  A    between atoms: C_20  and  C_24
                            x       y       z     vdW  Elec       q    Type
                         _______ _______ _______ _____ _____    ______ ____

>  <TORSDO>
F 4

$$$$
=
 OpenBabel11062422423D

 29 33  0  0  1  0  0  0  0  0999 V2000
  189.4290  177.4260  147.6050 N   0  0  0  0  0  2  0  0  0  0  0  0
  184.9000  177.9390  143.0670 C   0  0  1  0  0  3  0  0  0  0  0  0
  186.0670  176.9530  142.9890 C   0  0  0  0  0  2  0  0  0  0  0  0
  190.6060  175.0000  144.2980 C   0  0  0  0  0  3  0  0  0  0  0  0
  190.7530  176.8890  147.5610 C   0  0  0  0  0  0  0  0  0  0  0  0
  186.2820  177.7070  145.4690 C   0  0  2  0  0  3  0  0  0  0  0  0
  188.7580  176.1270  145.6280 C   0  0  1  0  0  3  0  0  0  0  0  0
  187.9510  176.1980  144.3580 C   0  0  0  0  0  3  0  0  0  0  0  0
  192.5060  175.7110  146.2190 C   0  0  0  0  0  3  0  0  0  0  0  0
  192.8870  174.9660  145.1020 C   0  0  0  0  0  3  0  0  0  0  0  0
  191.5340  177.0630  148.5340 O   0  0  0  0  0  0  0  0  0  0  0  0
  186.0250  179.1540  145.0340 C   0  0  0  0  0  2  0  0  0  0  0  0
  187.1530  177.6630  146.7340 C   0  0  0  0  0  2  0  0  0  0  0  0
  191.9420  174.6060  144.1380 C   0  0  0  0  0  0  0  0  0  0  0  0
  190.2130  175.7720  145.4010 C   0  0  0  0  0  0  0  0  0  0  0  0
  188.6210  177.4480  146.3930 C   0  0  1  0  0  3  0  0  0  0  0  0
  191.1740  176.1130  146.3790 C   0  0  0  0  0  0  0  0  0  0  0  0
  186.7960  176.8780  144.3000 C   0  0  0  0  0  0  0  0  0  0  0  0
  185.3710  179.2800  143.6450 C   0  0  0  0  0  2  0  0  0  0  0  0
  185.3990  178.0480  140.6280 C   0  0  0  0  0  1  0  0  0  0  0  0
  184.3110  178.1340  141.6820 C   0  0  0  0  0  2  0  0  0  0  0  0
  192.3810  173.7990  142.9510 C   0  0  2  0  0  3  0  0  0  0  0  0
  194.9020  173.0150  143.3350 C   0  0  0  0  0  1  0  0  0  0  0  0
  193.4110  172.7260  143.3010 C   0  0  1  0  0  0  0  0  0  0  0  0
  193.0030  171.9190  144.3750 O   0  0  0  0  0  0  0  0  0  0  0  0
  193.0130  171.3220  143.0960 C   0  0  0  0  0  2  0  0  0  0  0  0
  192.8030  174.6560  141.7910 C   0  0  0  0  0  0  0  0  0  0  0  0
  193.2520  175.7770  141.9710 O   0  0  0  0  0  0  0  0  0  0  0  0
  192.6590  174.1340  140.4040 C   0  0  0  0  0  1  0  0  0  0  0  0
  2 21  1  6  0  0  0
  2 19  1  0  0  0  0
  3  2  1  0  0  0  0
  3 18  1  0  0  0  0
  4 15  1  0  0  0  0
  5  1  1  0  0  0  0
  5 11  2  0  0  0  0
  6 12  1  6  0  0  0
  6 13  1  0  0  0  0
  7  8  1  6  0  0  0
  7 16  1  0  0  0  0
  9 17  1  0  0  0  0
 10  9  2  0  0  0  0
 14  4  2  0  0  0  0
 14 10  1  0  0  0  0
 15  7  1  0  0  0  0
 15 17  2  0  0  0  0
 16 13  1  1  0  0  0
 16  1  1  0  0  0  0
 17  5  1  0  0  0  0
 18  8  2  0  0  0  0
 18  6  1  0  0  0  0
 19 12  1  0  0  0  0
 20 21  1  0  0  0  0
 22 27  1  6  0  0  0
 22 24  1  0  0  0  0
 22 14  1  0  0  0  0
 24 23  1  6  0  0  0
 24 25  1  0  0  0  0
 26 24  1  0  0  0  0
 26 25  1  0  0  0  0
 27 28  2  0  0  0  0
 29 27  1  0  0  0  0
M  END
>  <MODEL>
3

>  <REMARK>
 VINA RESULT:      -7.3      1.256      2.205
  Name = 
  4 active torsions:
  status: ('A' for Active; 'I' for Inactive)
    1  A    between atoms: C_2  and  C_16
    2  A    between atoms: C_5  and  C_20
    3  A    between atoms: C_18  and  C_20
    4  A    between atoms: C_20  and  C_24
                            x       y       z     vdW  Elec       q    Type
                         _______ _______ _______ _____ _____    ______ ____

>  <TORSDO>
F 4

$$$$
=
 OpenBabel11062422423D

 29 33  0  0  1  0  0  0  0  0999 V2000
  189.6610  177.2870  147.5350 N   0  0  0  0  0  2  0  0  0  0  0  0
  186.1530  177.3480  142.1430 C   0  0  1  0  0  3  0  0  0  0  0  0
  187.4750  176.5900  142.2840 C   0  0  0  0  0  2  0  0  0  0  0  0
  191.9280  175.3650  144.4740 C   0  0  0  0  0  3  0  0  0  0  0  0
  191.0410  176.9950  147.7600 C   0  0  0  0  0  0  0  0  0  0  0  0
  187.0270  177.1780  144.7780 C   0  0  2  0  0  3  0  0  0  0  0  0
  189.6680  176.0460  145.4120 C   0  0  1  0  0  3  0  0  0  0  0  0
  189.1430  176.0730  144.0000 C   0  0  0  0  0  3  0  0  0  0  0  0
  193.2220  176.2480  146.7880 C   0  0  0  0  0  3  0  0  0  0  0  0
  193.9590  175.6680  145.7530 C   0  0  0  0  0  3  0  0  0  0  0  0
  191.5580  177.2270  148.8850 O   0  0  0  0  0  0  0  0  0  0  0  0
  186.6010  178.5860  144.3520 C   0  0  0  0  0  2  0  0  0  0  0  0
  187.6100  177.1890  146.1990 C   0  0  0  0  0  2  0  0  0  0  0  0
  193.3180  175.2240  144.5940 C   0  0  0  0  0  0  0  0  0  0  0  0
  191.1780  175.9700  145.4940 C   0  0  0  0  0  0  0  0  0  0  0  0
  189.1310  177.2610  146.1780 C   0  0  1  0  0  3  0  0  0  0  0  0
  191.8350  176.3970  146.6690 C   0  0  0  0  0  0  0  0  0  0  0  0
  187.9180  176.5430  143.7180 C   0  0  0  0  0  0  0  0  0  0  0  0
  186.2360  178.7030  142.8590 C   0  0  0  0  0  2  0  0  0  0  0  0
  184.5290  178.2900  140.5050 C   0  0  0  0  0  1  0  0  0  0  0  0
  185.8390  177.5430  140.6710 C   0  0  0  0  0  2  0  0  0  0  0  0
  194.1360  174.6000  143.5010 C   0  0  2  0  0  3  0  0  0  0  0  0
  192.6710  174.3650  141.2840 C   0  0  0  0  0  1  0  0  0  0  0  0
  193.7350  175.0730  142.1040 C   0  0  1  0  0  0  0  0  0  0  0  0
  193.6270  176.4700  142.0200 O   0  0  0  0  0  0  0  0  0  0  0  0
  194.7230  175.8730  141.3590 C   0  0  0  0  0  2  0  0  0  0  0  0
  194.2050  173.1020  143.6120 C   0  0  0  0  0  0  0  0  0  0  0  0
  193.3270  172.4760  144.1840 O   0  0  0  0  0  0  0  0  0  0  0  0
  195.3670  172.3770  143.0280 C   0  0  0  0  0  1  0  0  0  0  0  0
  1  5  1  0  0  0  0
  2 21  1  6  0  0  0
  2  3  1  0  0  0  0
  2 19  1  0  0  0  0
  3 18  1  0  0  0  0
  4 14  2  0  0  0  0
  4 15  1  0  0  0  0
  5 11  2  0  0  0  0
  6 12  1  6  0  0  0
  6 13  1  0  0  0  0
  7  8  1  6  0  0  0
  7 15  1  0  0  0  0
  7 16  1  0  0  0  0
 10  9  2  0  0  0  0
 14 10  1  0  0  0  0
 15 17  2  0  0  0  0
 16 13  1  1  0  0  0
 16  1  1  0  0  0  0
 17  9  1  0  0  0  0
 17  5  1  0  0  0  0
 18  8  2  0  0  0  0
 18  6  1  0  0  0  0
 19 12  1  0  0  0  0
 20 21  1  0  0  0  0
 22 27  1  6  0  0  0
 22 14  1  0  0  0  0
 24 23  1  6  0  0  0
 24 22  1  0  0  0  0
 25 24  1  0  0  0  0
 26 25  1  0  0  0  0
 26 24  1  0  0  0  0
 27 28  2  0  0  0  0
 29 27  1  0  0  0  0
M  END
>  <MODEL>
4

>  <REMARK>
 VINA RESULT:      -7.2      1.858      2.277
  Name = 
  4 active torsions:
  status: ('A' for Active; 'I' for Inactive)
    1  A    between atoms: C_2  and  C_16
    2  A    between atoms: C_5  and  C_20
    3  A    between atoms: C_18  and  C_20
    4  A    between atoms: C_20  and  C_24
                            x       y       z     vdW  Elec       q    Type
                         _______ _______ _______ _____ _____    ______ ____

>  <TORSDO>
F 4

$$$$
=
 OpenBabel11062422423D

 29 33  0  0  1  0  0  0  0  0999 V2000
  187.5660  175.5320  139.7100 N   0  0  0  0  0  2  0  0  0  0  0  0
  191.2510  170.8450  142.1240 C   0  0  1  0  0  3  0  0  0  0  0  0
  190.4470  171.8180  142.9880 C   0  0  0  0  0  2  0  0  0  0  0  0
  187.7270  176.0390  143.9440 C   0  0  0  0  0  3  0  0  0  0  0  0
  187.0700  176.7380  140.2950 C   0  0  0  0  0  0  0  0  0  0  0  0
  189.4180  172.3340  140.6560 C   0  0  2  0  0  3  0  0  0  0  0  0
  187.8960  174.5100  141.9230 C   0  0  1  0  0  3  0  0  0  0  0  0
  188.8330  173.6390  142.7190 C   0  0  0  0  0  3  0  0  0  0  0  0
  186.8780  178.1650  142.3420 C   0  0  0  0  0  3  0  0  0  0  0  0
  186.9910  178.3330  143.7230 C   0  0  0  0  0  3  0  0  0  0  0  0
  186.5130  177.6050  139.5700 O   0  0  0  0  0  0  0  0  0  0  0  0
  190.8230  172.2980  140.0460 C   0  0  0  0  0  2  0  0  0  0  0  0
  188.5000  173.2730  139.8580 C   0  0  0  0  0  2  0  0  0  0  0  0
  187.4140  177.2740  144.5300 C   0  0  0  0  0  0  0  0  0  0  0  0
  187.6450  175.8630  142.5550 C   0  0  0  0  0  0  0  0  0  0  0  0
  188.4280  174.6550  140.4920 C   0  0  1  0  0  3  0  0  0  0  0  0
  187.1980  176.9350  141.7520 C   0  0  0  0  0  0  0  0  0  0  0  0
  189.4890  172.6150  142.1510 C   0  0  0  0  0  0  0  0  0  0  0  0
  191.8650  171.5770  140.9240 C   0  0  0  0  0  2  0  0  0  0  0  0
  192.7540  171.1290  144.0920 C   0  0  0  0  0  1  0  0  0  0  0  0
  192.3370  170.2010  142.9670 C   0  0  0  0  0  2  0  0  0  0  0  0
  187.5190  177.4830  146.0120 C   0  0  2  0  0  3  0  0  0  0  0  0
  188.5660  175.2910  147.1150 C   0  0  0  0  0  1  0  0  0  0  0  0
  188.6890  176.7300  146.6450 C   0  0  1  0  0  0  0  0  0  0  0  0
  189.9040  176.9690  145.9840 O   0  0  0  0  0  0  0  0  0  0  0  0
  189.7510  177.5410  147.2650 C   0  0  0  0  0  2  0  0  0  0  0  0
  186.2180  177.2440  146.7250 C   0  0  0  0  0  0  0  0  0  0  0  0
  185.3810  176.4830  146.2640 O   0  0  0  0  0  0  0  0  0  0  0  0
  185.9420  177.9540  148.0040 C   0  0  0  0  0  1  0  0  0  0  0  0
  1  5  1  0  0  0  0
  1 16  1  0  0  0  0
  2 21  1  1  0  0  0
  2  3  1  0  0  0  0
  4 14  1  0  0  0  0
  5 17  1  0  0  0  0
  6 13  1  6  0  0  0
  6 18  1  0  0  0  0
  7 15  1  0  0  0  0
  7  8  1  1  0  0  0
  9 10  1  0  0  0  0
 10 14  2  0  0  0  0
 11  5  2  0  0  0  0
 12  6  1  0  0  0  0
 12 19  1  0  0  0  0
 14 22  1  0  0  0  0
 15  4  2  0  0  0  0
 16 13  1  6  0  0  0
 16  7  1  0  0  0  0
 17  9  2  0  0  0  0
 17 15  1  0  0  0  0
 18  8  2  0  0  0  0
 18  3  1  0  0  0  0
 19  2  1  0  0  0  0
 21 20  1  0  0  0  0
 22 24  1  0  0  0  0
 22 27  1  1  0  0  0
 24 23  1  1  0  0  0
 24 26  1  0  0  0  0
 25 24  1  0  0  0  0
 25 26  1  0  0  0  0
 27 29  1  0  0  0  0
 28 27  2  0  0  0  0
M  END
>  <MODEL>
5

>  <REMARK>
 VINA RESULT:      -7.2      2.889      7.711
  Name = 
  4 active torsions:
  status: ('A' for Active; 'I' for Inactive)
    1  A    between atoms: C_2  and  C_16
    2  A    between atoms: C_5  and  C_20
    3  A    between atoms: C_18  and  C_20
    4  A    between atoms: C_20  and  C_24
                            x       y       z     vdW  Elec       q    Type
                         _______ _______ _______ _____ _____    ______ ____

>  <TORSDO>
F 4

$$$$
=
 OpenBabel11062422423D

 29 33  0  0  1  0  0  0  0  0999 V2000
  191.1990  174.3130  145.4460 N   0  0  0  0  0  2  0  0  0  0  0  0
  190.1240  172.6790  139.3180 C   0  0  1  0  0  3  0  0  0  0  0  0
  189.3390  173.7670  140.0530 C   0  0  0  0  0  2  0  0  0  0  0  0
  187.6980  176.3700  144.1350 C   0  0  0  0  0  3  0  0  0  0  0  0
  190.3740  174.9810  146.4030 C   0  0  0  0  0  0  0  0  0  0  0  0
  191.2790  173.3930  141.7450 C   0  0  2  0  0  3  0  0  0  0  0  0
  189.9050  175.2430  143.5730 C   0  0  1  0  0  3  0  0  0  0  0  0
  189.3340  174.9070  142.2200 C   0  0  0  0  0  3  0  0  0  0  0  0
  188.2100  176.1460  146.8720 C   0  0  0  0  0  3  0  0  0  0  0  0
  187.0410  176.7660  146.4290 C   0  0  0  0  0  3  0  0  0  0  0  0
  190.7280  175.0310  147.6110 O   0  0  0  0  0  0  0  0  0  0  0  0
  191.1450  171.8810  141.5390 C   0  0  0  0  0  2  0  0  0  0  0  0
  191.8090  173.7080  143.1520 C   0  0  0  0  0  2  0  0  0  0  0  0
  186.7790  176.8820  145.0610 C   0  0  0  0  0  0  0  0  0  0  0  0
  188.8640  175.7200  144.5660 C   0  0  0  0  0  0  0  0  0  0  0  0
  190.6750  174.0330  144.1150 C   0  0  1  0  0  3  0  0  0  0  0  0
  189.1270  175.6260  145.9500 C   0  0  0  0  0  0  0  0  0  0  0  0
  189.9860  174.1030  141.3660 C   0  0  0  0  0  0  0  0  0  0  0  0
  190.3930  171.4910  140.2510 C   0  0  0  0  0  2  0  0  0  0  0  0
  188.8910  173.4310  137.2860 C   0  0  0  0  0  1  0  0  0  0  0  0
  189.3410  172.2300  138.0970 C   0  0  0  0  0  2  0  0  0  0  0  0
  185.5160  177.5600  144.6160 C   0  0  2  0  0  3  0  0  0  0  0  0
  186.7270  178.8940  142.6460 C   0  0  0  0  0  1  0  0  0  0  0  0
  185.5760  178.0510  143.1690 C   0  0  1  0  0  0  0  0  0  0  0  0
  185.1800  177.0670  142.2500 O   0  0  0  0  0  0  0  0  0  0  0  0
  184.2980  178.1520  142.4430 C   0  0  0  0  0  2  0  0  0  0  0  0
  185.0600  178.6240  145.5740 C   0  0  0  0  0  0  0  0  0  0  0  0
  185.5650  179.7350  145.5630 O   0  0  0  0  0  0  0  0  0  0  0  0
  183.9850  178.3120  146.5570 C   0  0  0  0  0  1  0  0  0  0  0  0
  1  5  1  0  0  0  0
  2 21  1  6  0  0  0
  2  3  1  0  0  0  0
  2 19  1  0  0  0  0
  3 18  1  0  0  0  0
  4 15  2  0  0  0  0
  4 14  1  0  0  0  0
  5 11  2  0  0  0  0
  6 12  1  1  0  0  0
  6 13  1  0  0  0  0
  7  8  1  6  0  0  0
  7 16  1  0  0  0  0
  7 15  1  0  0  0  0
 10  9  1  0  0  0  0
 14 10  2  0  0  0  0
 15 17  1  0  0  0  0
 16 13  1  6  0  0  0
 16  1  1  0  0  0  0
 17  5  1  0  0  0  0
 17  9  2  0  0  0  0
 18  6  1  0  0  0  0
 18  8  2  0  0  0  0
 19 12  1  0  0  0  0
 20 21  1  0  0  0  0
 22 14  1  0  0  0  0
 22 27  1  1  0  0  0
 24 23  1  6  0  0  0
 24 22  1  0  0  0  0
 25 26  1  0  0  0  0
 25 24  1  0  0  0  0
 26 24  1  0  0  0  0
 27 29  1  0  0  0  0
 28 27  2  0  0  0  0
M  END
>  <MODEL>
6

>  <REMARK>
 VINA RESULT:      -7.1      2.566      6.805
  Name = 
  4 active torsions:
  status: ('A' for Active; 'I' for Inactive)
    1  A    between atoms: C_2  and  C_16
    2  A    between atoms: C_5  and  C_20
    3  A    between atoms: C_18  and  C_20
    4  A    between atoms: C_20  and  C_24
                            x       y       z     vdW  Elec       q    Type
                         _______ _______ _______ _____ _____    ______ ____

>  <TORSDO>
F 4

$$$$
=
 OpenBabel11062422423D

 29 33  0  0  1  0  0  0  0  0999 V2000
  188.3250  174.8900  141.5060 N   0  0  0  0  0  2  0  0  0  0  0  0
  185.8450  178.4820  146.2310 C   0  0  1  0  0  3  0  0  0  0  0  0
  187.3410  178.4120  145.9180 C   0  0  0  0  0  2  0  0  0  0  0  0
  191.5640  176.4790  143.7830 C   0  0  0  0  0  3  0  0  0  0  0  0
  189.6470  174.3880  141.2960 C   0  0  0  0  0  0  0  0  0  0  0  0
  186.3850  177.2380  143.8030 C   0  0  2  0  0  3  0  0  0  0  0  0
  189.1550  176.6600  142.9980 C   0  0  1  0  0  3  0  0  0  0  0  0
  188.8460  177.4050  144.2700 C   0  0  0  0  0  3  0  0  0  0  0  0
  192.0210  174.3100  142.0820 C   0  0  0  0  0  3  0  0  0  0  0  0
  193.0570  174.8060  142.8760 C   0  0  0  0  0  3  0  0  0  0  0  0
  189.8610  173.5440  140.3860 O   0  0  0  0  0  0  0  0  0  0  0  0
  185.4050  176.4680  144.6940 C   0  0  0  0  0  2  0  0  0  0  0  0
  186.7270  176.4300  142.5410 C   0  0  0  0  0  2  0  0  0  0  0  0
  192.8360  175.8910  143.7290 C   0  0  0  0  0  0  0  0  0  0  0  0
  190.5070  175.9760  143.0120 C   0  0  0  0  0  0  0  0  0  0  0  0
  188.0300  175.6610  142.7070 C   0  0  1  0  0  3  0  0  0  0  0  0
  190.7480  174.8910  142.1400 C   0  0  0  0  0  0  0  0  0  0  0  0
  187.5850  177.7130  144.6120 C   0  0  0  0  0  0  0  0  0  0  0  0
  185.2030  177.0960  146.0870 C   0  0  0  0  0  2  0  0  0  0  0  0
  186.9700  179.0410  148.3840 C   0  0  0  0  0  1  0  0  0  0  0  0
  185.6490  179.0160  147.6380 C   0  0  0  0  0  2  0  0  0  0  0  0
  193.9710  176.4040  144.5650 C   0  0  2  0  0  3  0  0  0  0  0  0
  195.8160  174.4790  144.6460 C   0  0  0  0  0  1  0  0  0  0  0  0
  195.3270  175.8310  144.1560 C   0  0  1  0  0  0  0  0  0  0  0  0
  195.6090  176.0350  142.7960 O   0  0  0  0  0  0  0  0  0  0  0  0
  196.3580  176.7910  143.7240 C   0  0  0  0  0  2  0  0  0  0  0  0
  193.7070  176.2820  146.0390 C   0  0  0  0  0  0  0  0  0  0  0  0
  194.1910  177.0760  146.8310 O   0  0  0  0  0  0  0  0  0  0  0  0
  192.8530  175.1700  146.5410 C   0  0  0  0  0  1  0  0  0  0  0  0
  1 16  1  0  0  0  0
  2 21  1  1  0  0  0
  3  2  1  0  0  0  0
  5  1  1  0  0  0  0
  5 17  1  0  0  0  0
  6 13  1  6  0  0  0
  6 18  1  0  0  0  0
  6 12  1  0  0  0  0
  7 15  1  0  0  0  0
  7  8  1  1  0  0  0
  8 18  2  0  0  0  0
  9 17  2  0  0  0  0
  9 10  1  0  0  0  0
 10 14  2  0  0  0  0
 11  5  2  0  0  0  0
 12 19  1  0  0  0  0
 14  4  1  0  0  0  0
 14 22  1  0  0  0  0
 15  4  2  0  0  0  0
 16 13  1  6  0  0  0
 16  7  1  0  0  0  0
 17 15  1  0  0  0  0
 18  3  1  0  0  0  0
 19  2  1  0  0  0  0
 21 20  1  0  0  0  0
 22 27  1  1  0  0  0
 24 22  1  0  0  0  0
 24 23  1  1  0  0  0
 25 26  1  0  0  0  0
 25 24  1  0  0  0  0
 26 24  1  0  0  0  0
 27 29  1  0  0  0  0
 27 28  2  0  0  0  0
M  END
>  <MODEL>
7

>  <REMARK>
 VINA RESULT:      -7.1      2.579      4.906
  Name = 
  4 active torsions:
  status: ('A' for Active; 'I' for Inactive)
    1  A    between atoms: C_2  and  C_16
    2  A    between atoms: C_5  and  C_20
    3  A    between atoms: C_18  and  C_20
    4  A    between atoms: C_20  and  C_24
                            x       y       z     vdW  Elec       q    Type
                         _______ _______ _______ _____ _____    ______ ____

>  <TORSDO>
F 4

$$$$
=
 OpenBabel11062422423D

 29 33  0  0  1  0  0  0  0  0999 V2000
  192.0700  174.4660  145.4440 N   0  0  0  0  0  2  0  0  0  0  0  0
  190.2790  172.1980  139.6970 C   0  0  1  0  0  3  0  0  0  0  0  0
  189.6580  173.4350  140.3490 C   0  0  0  0  0  2  0  0  0  0  0  0
  188.6330  176.6580  144.1820 C   0  0  0  0  0  3  0  0  0  0  0  0
  191.3980  175.3190  146.3730 C   0  0  0  0  0  0  0  0  0  0  0  0
  191.7170  173.0960  141.9020 C   0  0  2  0  0  3  0  0  0  0  0  0
  190.6780  175.2740  143.5850 C   0  0  1  0  0  3  0  0  0  0  0  0
  189.9540  174.8280  142.3410 C   0  0  0  0  0  3  0  0  0  0  0  0
  189.3890  176.7250  146.8710 C   0  0  0  0  0  3  0  0  0  0  0  0
  188.2350  177.3910  146.4530 C   0  0  0  0  0  3  0  0  0  0  0  0
  191.8700  175.4840  147.5290 O   0  0  0  0  0  0  0  0  0  0  0  0
  191.4440  171.5890  141.9070 C   0  0  0  0  0  2  0  0  0  0  0  0
  192.4040  173.5320  143.2050 C   0  0  0  0  0  2  0  0  0  0  0  0
  187.8520  177.3620  145.1100 C   0  0  0  0  0  0  0  0  0  0  0  0
  189.7800  175.9620  144.5920 C   0  0  0  0  0  0  0  0  0  0  0  0
  191.3990  174.0750  144.2110 C   0  0  1  0  0  3  0  0  0  0  0  0
  190.1680  176.0150  145.9490 C   0  0  0  0  0  0  0  0  0  0  0  0
  190.4540  173.8690  141.5460 C   0  0  0  0  0  0  0  0  0  0  0  0
  190.5420  171.1140  140.7510 C   0  0  0  0  0  2  0  0  0  0  0  0
  189.7400  170.2660  138.2180 C   0  0  0  0  0  1  0  0  0  0  0  0
  189.3480  171.6760  138.6180 C   0  0  0  0  0  2  0  0  0  0  0  0
  186.6100  178.0920  144.6890 C   0  0  2  0  0  3  0  0  0  0  0  0
  185.1500  176.6960  146.4330 C   0  0  0  0  0  1  0  0  0  0  0  0
  185.4790  177.9920  145.7120 C   0  0  1  0  0  0  0  0  0  0  0  0
  185.4300  179.1030  146.5700 O   0  0  0  0  0  0  0  0  0  0  0  0
  184.3970  178.9880  145.6140 C   0  0  0  0  0  2  0  0  0  0  0  0
  186.1710  177.7350  143.2970 C   0  0  0  0  0  0  0  0  0  0  0  0
  185.5810  176.6900  143.0750 O   0  0  0  0  0  0  0  0  0  0  0  0
  186.4710  178.6650  142.1740 C   0  0  0  0  0  1  0  0  0  0  0  0
  1  5  1  0  0  0  0
  2 21  1  6  0  0  0
  2  3  1  0  0  0  0
  2 19  1  0  0  0  0
  3 18  1  0  0  0  0
  4 15  2  0  0  0  0
  4 14  1  0  0  0  0
  5 11  2  0  0  0  0
  6 12  1  1  0  0  0
  6 13  1  0  0  0  0
  7  8  1  6  0  0  0
  7 16  1  0  0  0  0
  7 15  1  0  0  0  0
 10  9  1  0  0  0  0
 14 10  2  0  0  0  0
 15 17  1  0  0  0  0
 16 13  1  6  0  0  0
 16  1  1  0  0  0  0
 17  5  1  0  0  0  0
 17  9  2  0  0  0  0
 18  6  1  0  0  0  0
 18  8  2  0  0  0  0
 19 12  1  0  0  0  0
 20 21  1  0  0  0  0
 22 27  1  6  0  0  0
 22 14  1  0  0  0  0
 22 24  1  0  0  0  0
 24 23  1  1  0  0  0
 24 25  1  0  0  0  0
 26 24  1  0  0  0  0
 26 25  1  0  0  0  0
 28 27  2  0  0  0  0
 29 27  1  0  0  0  0
M  END
>  <MODEL>
8

>  <REMARK>
 VINA RESULT:      -7.0      2.471      6.920
  Name = 
  4 active torsions:
  status: ('A' for Active; 'I' for Inactive)
    1  A    between atoms: C_2  and  C_16
    2  A    between atoms: C_5  and  C_20
    3  A    between atoms: C_18  and  C_20
    4  A    between atoms: C_20  and  C_24
                            x       y       z     vdW  Elec       q    Type
                         _______ _______ _______ _____ _____    ______ ____

>  <TORSDO>
F 4

$$$$
=
 OpenBabel11062422423D

 29 33  0  0  1  0  0  0  0  0999 V2000
  192.8750  176.2840  146.9300 N   0  0  0  0  0  2  0  0  0  0  0  0
  195.1840  174.9080  141.0860 C   0  0  1  0  0  3  0  0  0  0  0  0
  193.8710  175.6570  141.3220 C   0  0  0  0  0  2  0  0  0  0  0  0
  189.8940  177.3310  144.0620 C   0  0  0  0  0  3  0  0  0  0  0  0
  191.5540  176.6040  147.3710 C   0  0  0  0  0  0  0  0  0  0  0  0
  194.8660  175.7290  143.7240 C   0  0  2  0  0  3  0  0  0  0  0  0
  192.3420  176.9450  144.6220 C   0  0  1  0  0  3  0  0  0  0  0  0
  192.5630  176.5670  143.1800 C   0  0  0  0  0  3  0  0  0  0  0  0
  189.1720  177.0460  146.7460 C   0  0  0  0  0  3  0  0  0  0  0  0
  188.1980  177.3320  145.7870 C   0  0  0  0  0  3  0  0  0  0  0  0
  191.2990  176.6570  148.6040 O   0  0  0  0  0  0  0  0  0  0  0  0
  195.2920  174.2650  143.5730 C   0  0  0  0  0  2  0  0  0  0  0  0
  194.5920  176.0710  145.1960 C   0  0  0  0  0  2  0  0  0  0  0  0
  188.5530  177.4770  144.4430 C   0  0  0  0  0  0  0  0  0  0  0  0
  190.8790  177.0160  145.0100 C   0  0  0  0  0  0  0  0  0  0  0  0
  193.1090  175.9730  145.5250 C   0  0  1  0  0  3  0  0  0  0  0  0
  190.5110  176.8920  146.3670 C   0  0  0  0  0  0  0  0  0  0  0  0
  193.7330  176.0600  142.7610 C   0  0  0  0  0  0  0  0  0  0  0  0
  195.3460  173.7780  142.1120 C   0  0  0  0  0  2  0  0  0  0  0  0
  193.9700  174.8050  138.9120 C   0  0  0  0  0  1  0  0  0  0  0  0
  195.2000  174.3500  139.6740 C   0  0  0  0  0  2  0  0  0  0  0  0
  187.4850  177.7910  143.4370 C   0  0  2  0  0  3  0  0  0  0  0  0
  185.2570  177.1610  144.7650 C   0  0  0  0  0  1  0  0  0  0  0  0
  186.1510  178.1780  144.0760 C   0  0  1  0  0  0  0  0  0  0  0  0
  186.2260  179.3860  144.7880 O   0  0  0  0  0  0  0  0  0  0  0  0
  185.5000  179.4020  143.5780 C   0  0  0  0  0  2  0  0  0  0  0  0
  187.3410  176.7220  142.3910 C   0  0  0  0  0  0  0  0  0  0  0  0
  187.3960  175.5390  142.6920 O   0  0  0  0  0  0  0  0  0  0  0  0
  187.1410  177.1110  140.9680 C   0  0  0  0  0  1  0  0  0  0  0  0
  1  5  1  0  0  0  0
  2 21  1  6  0  0  0
  2  3  1  0  0  0  0
  2 19  1  0  0  0  0
  3 18  1  0  0  0  0
  4 14  2  0  0  0  0
  4 15  1  0  0  0  0
  5 11  2  0  0  0  0
  6 12  1  1  0  0  0
  6 13  1  0  0  0  0
  7  8  1  6  0  0  0
  7 15  1  0  0  0  0
  7 16  1  0  0  0  0
 10  9  2  0  0  0  0
 14 10  1  0  0  0  0
 15 17  2  0  0  0  0
 16 13  1  6  0  0  0
 16  1  1  0  0  0  0
 17  9  1  0  0  0  0
 17  5  1  0  0  0  0
 18  8  2  0  0  0  0
 18  6  1  0  0  0  0
 19 12  1  0  0  0  0
 20 21  1  0  0  0  0
 22 27  1  6  0  0  0
 22 24  1  0  0  0  0
 22 14  1  0  0  0  0
 24 23  1  1  0  0  0
 24 25  1  0  0  0  0
 26 24  1  0  0  0  0
 26 25  1  0  0  0  0
 27 28  2  0  0  0  0
 29 27  1  0  0  0  0
M  END
>  <MODEL>
9

>  <REMARK>
 VINA RESULT:      -6.9      2.739      7.138
  Name = 
  4 active torsions:
  status: ('A' for Active; 'I' for Inactive)
    1  A    between atoms: C_2  and  C_16
    2  A    between atoms: C_5  and  C_20
    3  A    between atoms: C_18  and  C_20
    4  A    between atoms: C_20  and  C_24
                            x       y       z     vdW  Elec       q    Type
                         _______ _______ _______ _____ _____    ______ ____

>  <TORSDO>
F 4

$$$$
