=
 OpenBabel11072409083D

 57 66  0  0  1  0  0  0  0  0999 V2000
  194.0670  176.4140  144.4930 C   0  0  0  0  0  2  0  0  0  0  0  0
  195.4210  174.6280  145.7650 C   0  0  0  0  0  2  0  0  0  0  0  0
  195.3310  175.5320  144.5350 C   0  0  1  0  0  3  0  0  0  0  0  0
  192.0030  174.6800  147.1960 N   0  0  0  0  0  2  0  0  0  0  0  0
  192.0080  177.0800  145.7960 N   0  0  0  0  0  2  0  0  0  0  0  0
  194.0950  173.9230  146.0070 C   0  0  0  0  0  2  0  0  0  0  0  0
  190.7570  175.4450  147.2790 C   0  0  1  0  0  3  0  0  0  0  0  0
  190.1640  177.7520  147.0560 O   0  0  0  0  0  0  0  0  0  0  0  0
  193.0180  174.9400  146.2180 C   0  0  0  0  0  0  0  0  0  0  0  0
  193.0110  176.0940  145.5250 C   0  0  0  0  0  0  0  0  0  0  0  0
  190.9490  176.8230  146.7240 C   0  0  0  0  0  0  0  0  0  0  0  0
  189.6620  174.7380  146.4950 C   0  0  0  0  0  2  0  0  0  0  0  0
  189.6030  175.2720  145.0590 C   0  0  1  0  0  3  0  0  0  0  0  0
  188.8410  173.9570  142.9870 C   0  0  0  0  0  2  0  0  0  0  0  0
  190.8540  171.8590  143.6490 C   0  0  0  0  0  0  0  0  0  0  0  0
  191.7370  171.0150  143.9580 O   0  0  0  0  0  0  0  0  0  0  0  0
  189.7660  173.6440  140.7770 O   0  0  0  0  0  0  0  0  0  0  0  0
  190.4980  170.8600  141.4460 C   0  0  0  0  0  2  0  0  0  0  0  0
  189.3650  173.0050  141.9260 C   0  0  0  0  0  0  0  0  0  0  0  0
  188.6330  172.9090  140.7650 O   0  0  0  0  0  0  0  0  0  0  0  0
  190.2380  171.8430  142.3060 C   0  0  0  0  0  0  0  0  0  0  0  0
  190.3850  172.8430  144.6840 C   0  0  2  0  0  3  0  0  0  0  0  0
  189.3550  172.2690  145.4090 F   0  0  0  0  0  0  0  0  0  0  0  0
  189.9360  174.1670  144.0370 C   0  0  2  0  0  3  0  0  0  0  0  0
  187.3410  177.9340  144.2410 C   0  0  2  0  0  3  0  0  0  0  0  0
  184.8800  176.4600  146.3840 O   0  0  0  0  0  0  0  0  0  0  0  0
  185.5620  176.9810  145.4660 C   0  0  0  0  0  0  0  0  0  0  0  0
  188.2900  175.8660  144.7870 N   0  0  0  0  0  0  0  0  0  0  0  0
  185.0900  177.1270  144.1820 O   0  0  0  0  0  0  0  0  0  0  0  0
  186.9610  177.4450  145.6290 C   0  0  1  0  0  3  0  0  0  0  0  0
  187.7930  176.3590  145.9610 O   0  0  0  0  0  0  0  0  0  0  0  0
  186.0730  177.7460  143.3650 C   0  0  2  0  0  3  0  0  0  0  0  0
  188.4620  177.0050  143.8980 C   0  0  0  0  0  2  0  0  0  0  0  0
  186.2890  177.0960  142.1250 O   0  0  0  0  0  0  0  0  0  0  0  0
  186.1650  178.0150  141.0720 C   0  0  0  0  0  1  0  0  0  0  0  0
  195.4780  174.7390  143.2380 C   0  0  0  0  0  2  0  0  0  0  0  0
  197.6740  175.7120  143.3590 O   0  0  0  0  0  1  0  0  0  0  0  0
  196.8460  174.9090  142.5640 C   0  0  2  0  0  0  0  0  0  0  0  0
  196.6930  175.5100  141.1580 C   0  0  0  0  0  2  0  0  0  0  0  0
  195.5040  174.1470  139.1670 O   0  0  0  0  0  0  0  0  0  0  0  0
  197.6000  174.8360  140.1160 C   0  0  2  0  0  3  0  0  0  0  0  0
  197.4160  175.4730  138.8010 N   0  0  2  0  0  0  0  0  0  0  0  0
  196.1280  175.0110  138.2530 C   0  0  1  0  0  3  0  0  0  0  0  0
  196.9020  174.1010  139.0440 C   0  0  2  0  0  0  0  0  0  0  0  0
  197.4720  173.5200  142.4270 C   0  0  0  0  0  2  0  0  0  0  0  0
  196.4780  172.4210  142.8000 C   0  0  0  0  0  2  0  0  0  0  0  0
  194.9810  170.7840  144.8160 C   0  0  0  0  0  1  0  0  0  0  0  0
  197.2220  169.9570  145.7060 C   0  0  2  0  0  3  0  0  0  0  0  0
  196.4840  171.0650  144.9380 C   0  0  1  0  0  3  0  0  0  0  0  0
  197.2360  168.6590  144.9050 C   0  0  0  0  0  2  0  0  0  0  0  0
  196.0120  169.5530  142.2960 O   0  0  0  0  0  1  0  0  0  0  0  0
  197.9400  168.8820  143.5670 C   0  0  0  0  0  2  0  0  0  0  0  0
  197.2630  169.9840  142.7470 C   0  0  2  0  0  3  0  0  0  0  0  0
  197.1510  171.2850  143.5660 C   0  0  1  0  0  3  0  0  0  0  0  0
  196.6450  169.7300  147.0980 C   0  0  0  0  0  2  0  0  0  0  0  0
  196.1700  168.2970  147.2370 C   0  0  0  0  0  2  0  0  0  0  0  0
  194.7550  168.2800  147.7700 C   0  0  0  0  0  1  0  0  0  0  0  0
  1  3  1  0  0  0  0
  1 10  1  0  0  0  0
  2  6  1  0  0  0  0
  3 36  1  6  0  0  0
  3  2  1  0  0  0  0
  4  7  1  0  0  0  0
  5 11  1  0  0  0  0
  6  9  1  0  0  0  0
  7 12  1  6  0  0  0
  9  4  1  0  0  0  0
 10  5  1  0  0  0  0
 10  9  2  0  0  0  0
 11  8  2  0  0  0  0
 11  7  1  0  0  0  0
 13 12  1  1  0  0  0
 14 24  1  0  0  0  0
 15 16  2  0  0  0  0
 15 22  1  0  0  0  0
 17 19  1  0  0  0  0
 18 21  2  0  0  0  0
 19 21  1  0  0  0  0
 19 14  1  0  0  0  0
 20 17  1  0  0  0  0
 20 19  1  0  0  0  0
 21 15  1  0  0  0  0
 22 23  1  6  0  0  0
 24 22  1  0  0  0  0
 24 13  1  1  0  0  0
 25 33  1  6  0  0  0
 25 30  1  0  0  0  0
 27 26  2  0  0  0  0
 28 13  1  0  0  0  0
 28 31  1  0  0  0  0
 29 27  1  0  0  0  0
 30 27  1  6  0  0  0
 30 31  1  0  0  0  0
 32 34  1  6  0  0  0
 32 29  1  0  0  0  0
 32 25  1  0  0  0  0
 33 28  1  0  0  0  0
 35 34  1  0  0  0  0
 38 36  1  0  0  0  0
 38 37  1  1  0  0  0
 39 38  1  0  0  0  0
 41 39  1  1  0  0  0
 42 44  1  0  0  0  0
 42 41  1  0  0  0  0
 43 42  1  0  0  0  0
 43 44  1  0  0  0  0
 43 40  1  0  0  0  0
 44 40  1  0  0  0  0
 44 41  1  0  0  0  0
 45 38  1  0  0  0  0
 45 46  1  0  0  0  0
 46 54  1  0  0  0  0
 47 49  1  0  0  0  0
 48 55  1  0  0  0  0
 49 48  1  0  0  0  0
 50 48  1  0  0  0  0
 51 53  1  0  0  0  0
 52 50  1  0  0  0  0
 53 54  1  0  0  0  0
 53 52  1  0  0  0  0
 54 49  1  0  0  0  0
 55 56  1  0  0  0  0
 56 57  1  0  0  0  0
M  END
>  <MODEL>
1

>  <REMARK>
 VINA RESULT:      -8.0      0.000      0.000
  Name = 
  14 active torsions:
  status: ('A' for Active; 'I' for Inactive)
    1  A    between atoms: C_1  and  C_44
    2  A    between atoms: C_1  and  C_50
    3  A    between atoms: C_8  and  C_39
    4  A    between atoms: C_10  and  C_39
    5  A    between atoms: C_11  and  C_43
    6  A    between atoms: C_13  and  C_23
    7  A    between atoms: C_13  and  C_28
    8  A    between atoms: O_25  and  C_48
    9  A    between atoms: N_26  and  C_56
   10  A    between atoms: C_28  and  C_43
   11  A    between atoms: C_28  and  C_44
   12  A    between atoms: C_37  and  C_38
   13  A    between atoms: C_37  and  C_56
   14  A    between atoms: C_51  and  C_56
                            x       y       z     vdW  Elec       q    Type
                         _______ _______ _______ _____ _____    ______ ____

>  <TORSDO>
F 14

$$$$
=
 OpenBabel11072409083D

 57 66  0  0  1  0  0  0  0  0999 V2000
  193.5380  174.3520  145.8270 C   0  0  0  0  0  2  0  0  0  0  0  0
  194.3090  176.7780  145.4170 C   0  0  0  0  0  2  0  0  0  0  0  0
  193.1410  175.8390  145.7260 C   0  0  1  0  0  3  0  0  0  0  0  0
  197.0200  174.5250  144.2720 N   0  0  0  0  0  2  0  0  0  0  0  0
  195.5040  172.7660  145.7970 N   0  0  0  0  0  2  0  0  0  0  0  0
  195.1530  176.2220  144.2800 C   0  0  0  0  0  2  0  0  0  0  0  0
  197.5350  173.1550  144.3260 C   0  0  1  0  0  3  0  0  0  0  0  0
  197.3390  171.3290  145.8610 O   0  0  0  0  0  0  0  0  0  0  0  0
  195.6870  174.8780  144.6630 C   0  0  0  0  0  0  0  0  0  0  0  0
  194.9430  174.0190  145.3860 C   0  0  0  0  0  0  0  0  0  0  0  0
  196.8100  172.3630  145.3720 C   0  0  0  0  0  0  0  0  0  0  0  0
  197.3560  172.4810  142.9760 C   0  0  0  0  0  2  0  0  0  0  0  0
  195.9080  172.6240  142.4930 C   0  0  1  0  0  3  0  0  0  0  0  0
  197.1750  172.8340  140.2670 C   0  0  0  0  0  2  0  0  0  0  0  0
  195.0790  174.7320  139.3200 C   0  0  0  0  0  0  0  0  0  0  0  0
  194.1560  175.5090  138.9580 O   0  0  0  0  0  0  0  0  0  0  0  0
  196.8330  171.9120  138.0600 O   0  0  0  0  0  0  0  0  0  0  0  0
  195.9830  174.5570  137.0550 C   0  0  0  0  0  2  0  0  0  0  0  0
  196.9410  173.0740  138.7860 C   0  0  0  0  0  0  0  0  0  0  0  0
  197.9390  172.6740  137.9290 O   0  0  0  0  0  0  0  0  0  0  0  0
  196.0120  174.1600  138.3250 C   0  0  0  0  0  0  0  0  0  0  0  0
  195.2670  174.4450  140.7830 C   0  0  2  0  0  3  0  0  0  0  0  0
  196.0890  175.4180  141.3260 F   0  0  0  0  0  0  0  0  0  0  0  0
  195.8510  173.0380  141.0090 C   0  0  2  0  0  3  0  0  0  0  0  0
  195.2620  169.1090  142.1710 C   0  0  2  0  0  3  0  0  0  0  0  0
  191.7460  169.7860  142.1730 O   0  0  0  0  0  0  0  0  0  0  0  0
  192.9240  169.3850  142.3470 C   0  0  0  0  0  0  0  0  0  0  0  0
  195.1650  171.3810  142.7240 N   0  0  0  0  0  0  0  0  0  0  0  0
  193.2700  168.5160  143.3560 O   0  0  0  0  0  0  0  0  0  0  0  0
  194.0850  169.8320  141.5390 C   0  0  1  0  0  3  0  0  0  0  0  0
  194.2760  171.2180  141.6980 O   0  0  0  0  0  0  0  0  0  0  0  0
  194.6620  168.2380  143.3090 C   0  0  2  0  0  3  0  0  0  0  0  0
  196.0880  170.2580  142.6560 C   0  0  0  0  0  2  0  0  0  0  0  0
  195.3180  168.3470  144.5600 O   0  0  0  0  0  0  0  0  0  0  0  0
  194.3830  168.6210  145.5700 C   0  0  0  0  0  1  0  0  0  0  0  0
  191.9910  176.0230  144.7370 C   0  0  0  0  0  2  0  0  0  0  0  0
  190.7630  175.0370  146.5550 O   0  0  0  0  0  1  0  0  0  0  0  0
  190.6130  175.6980  145.3280 C   0  0  2  0  0  0  0  0  0  0  0  0
  189.7840  174.8500  144.3520 C   0  0  0  0  0  2  0  0  0  0  0  0
  189.7500  172.2460  145.0260 O   0  0  0  0  0  0  0  0  0  0  0  0
  190.6430  173.8880  143.5150 C   0  0  2  0  0  3  0  0  0  0  0  0
  189.7770  172.9510  142.7780 N   0  0  2  0  0  0  0  0  0  0  0  0
  189.2660  171.9580  143.7400 C   0  0  1  0  0  3  0  0  0  0  0  0
  190.5910  172.4700  143.9230 C   0  0  2  0  0  0  0  0  0  0  0  0
  189.8820  177.0220  145.5550 C   0  0  0  0  0  2  0  0  0  0  0  0
  188.7210  176.8570  146.5350 C   0  0  0  0  0  2  0  0  0  0  0  0
  186.2900  176.4480  144.8300 C   0  0  0  0  0  1  0  0  0  0  0  0
  185.9440  178.9730  144.8370 C   0  0  2  0  0  3  0  0  0  0  0  0
  186.9480  177.8220  145.0070 C   0  0  1  0  0  3  0  0  0  0  0  0
  184.9370  178.9880  145.9820 C   0  0  0  0  0  2  0  0  0  0  0  0
  186.0490  176.8370  147.7840 O   0  0  0  0  0  1  0  0  0  0  0  0
  185.6670  179.1650  147.3140 C   0  0  0  0  0  2  0  0  0  0  0  0
  186.6960  178.0540  147.5480 C   0  0  2  0  0  3  0  0  0  0  0  0
  187.6730  177.9530  146.3600 C   0  0  1  0  0  3  0  0  0  0  0  0
  185.2340  178.9320  143.4900 C   0  0  0  0  0  2  0  0  0  0  0  0
  186.2500  178.8390  142.3680 C   0  0  0  0  0  2  0  0  0  0  0  0
  185.5870  178.2890  141.1260 C   0  0  0  0  0  1  0  0  0  0  0  0
  2  3  1  0  0  0  0
  3 36  1  6  0  0  0
  3  1  1  0  0  0  0
  4  7  1  0  0  0  0
  4  9  1  0  0  0  0
  6  9  1  0  0  0  0
  6  2  1  0  0  0  0
  7 12  1  6  0  0  0
  7 11  1  0  0  0  0
  9 10  2  0  0  0  0
 10  5  1  0  0  0  0
 10  1  1  0  0  0  0
 11  5  1  0  0  0  0
 11  8  2  0  0  0  0
 13 28  1  0  0  0  0
 13 12  1  6  0  0  0
 14 24  1  0  0  0  0
 15 22  1  0  0  0  0
 16 15  2  0  0  0  0
 17 19  1  0  0  0  0
 18 21  2  0  0  0  0
 19 14  1  0  0  0  0
 20 17  1  0  0  0  0
 20 19  1  0  0  0  0
 21 19  1  0  0  0  0
 21 15  1  0  0  0  0
 22 24  1  0  0  0  0
 22 23  1  6  0  0  0
 24 13  1  1  0  0  0
 25 33  1  1  0  0  0
 25 32  1  0  0  0  0
 26 27  2  0  0  0  0
 27 29  1  0  0  0  0
 30 31  1  1  0  0  0
 30 25  1  0  0  0  0
 30 27  1  0  0  0  0
 31 28  1  0  0  0  0
 32 29  1  0  0  0  0
 32 34  1  1  0  0  0
 33 28  1  0  0  0  0
 34 35  1  0  0  0  0
 36 38  1  0  0  0  0
 38 45  1  0  0  0  0
 38 37  1  1  0  0  0
 39 38  1  0  0  0  0
 41 44  1  0  0  0  0
 41 39  1  1  0  0  0
 42 41  1  0  0  0  0
 42 43  1  0  0  0  0
 42 44  1  0  0  0  0
 43 44  1  0  0  0  0
 43 40  1  0  0  0  0
 44 40  1  0  0  0  0
 45 46  1  0  0  0  0
 47 49  1  0  0  0  0
 48 49  1  0  0  0  0
 48 50  1  0  0  0  0
 49 54  1  0  0  0  0
 50 52  1  0  0  0  0
 52 53  1  0  0  0  0
 53 51  1  0  0  0  0
 54 46  1  0  0  0  0
 54 53  1  0  0  0  0
 55 48  1  0  0  0  0
 56 55  1  0  0  0  0
 57 56  1  0  0  0  0
M  END
>  <MODEL>
2

>  <REMARK>
 VINA RESULT:      -7.6      2.731      9.778
  Name = 
  14 active torsions:
  status: ('A' for Active; 'I' for Inactive)
    1  A    between atoms: C_1  and  C_44
    2  A    between atoms: C_1  and  C_50
    3  A    between atoms: C_8  and  C_39
    4  A    between atoms: C_10  and  C_39
    5  A    between atoms: C_11  and  C_43
    6  A    between atoms: C_13  and  C_23
    7  A    between atoms: C_13  and  C_28
    8  A    between atoms: O_25  and  C_48
    9  A    between atoms: N_26  and  C_56
   10  A    between atoms: C_28  and  C_43
   11  A    between atoms: C_28  and  C_44
   12  A    between atoms: C_37  and  C_38
   13  A    between atoms: C_37  and  C_56
   14  A    between atoms: C_51  and  C_56
                            x       y       z     vdW  Elec       q    Type
                         _______ _______ _______ _____ _____    ______ ____

>  <TORSDO>
F 14

$$$$
=
 OpenBabel11072409083D

 57 66  0  0  1  0  0  0  0  0999 V2000
  191.7550  172.4630  140.0300 C   0  0  0  0  0  2  0  0  0  0  0  0
  189.3270  172.1520  139.2240 C   0  0  0  0  0  2  0  0  0  0  0  0
  190.7560  172.5600  138.8600 C   0  0  1  0  0  3  0  0  0  0  0  0
  189.2960  172.1210  142.9300 N   0  0  0  0  0  2  0  0  0  0  0  0
  192.0030  171.7400  142.4380 N   0  0  0  0  0  2  0  0  0  0  0  0
  188.9040  172.8030  140.5330 C   0  0  0  0  0  2  0  0  0  0  0  0
  190.1280  171.9950  144.1280 C   0  0  1  0  0  3  0  0  0  0  0  0
  192.2360  170.9800  144.6300 O   0  0  0  0  0  0  0  0  0  0  0  0
  189.8330  172.3780  141.6260 C   0  0  0  0  0  0  0  0  0  0  0  0
  191.1480  172.2130  141.3910 C   0  0  0  0  0  0  0  0  0  0  0  0
  191.5060  171.5320  143.7640 C   0  0  0  0  0  0  0  0  0  0  0  0
  190.2230  173.3360  144.8370 C   0  0  0  0  0  2  0  0  0  0  0  0
  190.3340  174.4740  143.8160 C   0  0  1  0  0  3  0  0  0  0  0  0
  188.6110  175.4220  145.4700 C   0  0  0  0  0  2  0  0  0  0  0  0
  187.6170  177.2250  143.3120 C   0  0  0  0  0  0  0  0  0  0  0  0
  187.2520  177.9830  142.3740 O   0  0  0  0  0  0  0  0  0  0  0  0
  188.4770  177.4670  146.7500 O   0  0  0  0  0  0  0  0  0  0  0  0
  186.3340  178.4700  144.9800 C   0  0  0  0  0  2  0  0  0  0  0  0
  187.8550  176.6990  145.7950 C   0  0  0  0  0  0  0  0  0  0  0  0
  187.3430  176.8080  147.0670 O   0  0  0  0  0  0  0  0  0  0  0  0
  187.2050  177.5020  144.7050 C   0  0  0  0  0  0  0  0  0  0  0  0
  188.4220  175.9970  142.9920 C   0  0  2  0  0  3  0  0  0  0  0  0
  187.5530  174.9570  142.7060 F   0  0  0  0  0  0  0  0  0  0  0  0
  189.3650  175.6250  144.1520 C   0  0  2  0  0  3  0  0  0  0  0  0
  192.9910  176.8410  144.2770 C   0  0  2  0  0  3  0  0  0  0  0  0
  194.4750  175.7240  141.2150 O   0  0  0  0  0  0  0  0  0  0  0  0
  194.1790  176.0800  142.3830 C   0  0  0  0  0  0  0  0  0  0  0  0
  191.7170  174.9550  143.7320 N   0  0  0  0  0  0  0  0  0  0  0  0
  195.0510  175.9560  143.4410 O   0  0  0  0  0  0  0  0  0  0  0  0
  192.8550  176.6190  142.7800 C   0  0  1  0  0  3  0  0  0  0  0  0
  191.8570  175.6500  142.5620 O   0  0  0  0  0  0  0  0  0  0  0  0
  194.4490  176.4380  144.6330 C   0  0  2  0  0  3  0  0  0  0  0  0
  191.9540  175.9050  144.8090 C   0  0  0  0  0  2  0  0  0  0  0  0
  194.5780  175.5660  145.7420 O   0  0  0  0  0  0  0  0  0  0  0  0
  195.6920  174.7300  145.5680 C   0  0  0  0  0  1  0  0  0  0  0  0
  190.8030  173.9480  138.2250 C   0  0  0  0  0  2  0  0  0  0  0  0
  190.6280  174.4950  135.8900 O   0  0  0  0  0  1  0  0  0  0  0  0
  191.4980  173.9760  136.8570 C   0  0  2  0  0  0  0  0  0  0  0  0
  191.9790  172.5720  136.4590 C   0  0  0  0  0  2  0  0  0  0  0  0
  192.1540  169.9250  136.0160 O   0  0  0  0  0  0  0  0  0  0  0  0
  191.2280  172.0030  135.2450 C   0  0  2  0  0  3  0  0  0  0  0  0
  190.1450  171.1110  135.6940 N   0  0  2  0  0  0  0  0  0  0  0  0
  190.7590  169.8480  136.1440 C   0  0  1  0  0  3  0  0  0  0  0  0
  191.3540  170.5470  135.0430 C   0  0  2  0  0  0  0  0  0  0  0  0
  192.7210  174.8870  136.9760 C   0  0  0  0  0  2  0  0  0  0  0  0
  194.0190  174.1090  136.7680 C   0  0  0  0  0  2  0  0  0  0  0  0
  195.9440  171.9270  137.4870 C   0  0  0  0  0  1  0  0  0  0  0  0
  196.1980  173.0030  139.7840 C   0  0  2  0  0  3  0  0  0  0  0  0
  195.3090  172.8430  138.5410 C   0  0  1  0  0  3  0  0  0  0  0  0
  197.4640  173.7850  139.4490 C   0  0  0  0  0  2  0  0  0  0  0  0
  196.9210  174.6080  136.5970 O   0  0  0  0  0  1  0  0  0  0  0  0
  197.0940  175.1740  138.9280 C   0  0  0  0  0  2  0  0  0  0  0  0
  196.1960  175.0940  137.6900 C   0  0  2  0  0  3  0  0  0  0  0  0
  194.9510  174.2290  137.9700 C   0  0  1  0  0  3  0  0  0  0  0  0
  196.5410  171.6660  140.4300 C   0  0  0  0  0  2  0  0  0  0  0  0
  195.5610  171.3620  141.5470 C   0  0  0  0  0  2  0  0  0  0  0  0
  195.4750  172.5460  142.4840 C   0  0  0  0  0  1  0  0  0  0  0  0
  1 10  1  0  0  0  0
  2  6  1  0  0  0  0
  3 36  1  1  0  0  0
  3  2  1  0  0  0  0
  3  1  1  0  0  0  0
  4  7  1  0  0  0  0
  5 11  1  0  0  0  0
  6  9  1  0  0  0  0
  7 12  1  6  0  0  0
  9  4  1  0  0  0  0
 10  9  2  0  0  0  0
 10  5  1  0  0  0  0
 11  7  1  0  0  0  0
 11  8  2  0  0  0  0
 13 12  1  1  0  0  0
 14 19  1  0  0  0  0
 15 21  1  0  0  0  0
 16 15  2  0  0  0  0
 17 20  1  0  0  0  0
 19 17  1  0  0  0  0
 19 20  1  0  0  0  0
 21 18  2  0  0  0  0
 21 19  1  0  0  0  0
 22 23  1  1  0  0  0
 22 15  1  0  0  0  0
 22 24  1  0  0  0  0
 24 13  1  6  0  0  0
 24 14  1  0  0  0  0
 25 32  1  0  0  0  0
 25 33  1  1  0  0  0
 26 27  2  0  0  0  0
 27 29  1  0  0  0  0
 28 13  1  0  0  0  0
 28 33  1  0  0  0  0
 29 32  1  0  0  0  0
 30 27  1  1  0  0  0
 30 25  1  0  0  0  0
 31 30  1  0  0  0  0
 31 28  1  0  0  0  0
 32 34  1  1  0  0  0
 35 34  1  0  0  0  0
 38 37  1  6  0  0  0
 38 45  1  0  0  0  0
 38 36  1  0  0  0  0
 39 38  1  0  0  0  0
 40 43  1  0  0  0  0
 41 42  1  0  0  0  0
 41 39  1  1  0  0  0
 42 43  1  0  0  0  0
 44 41  1  0  0  0  0
 44 42  1  0  0  0  0
 44 40  1  0  0  0  0
 44 43  1  0  0  0  0
 46 45  1  0  0  0  0
 46 54  1  0  0  0  0
 47 49  1  0  0  0  0
 48 55  1  0  0  0  0
 49 48  1  0  0  0  0
 50 48  1  0  0  0  0
 51 53  1  0  0  0  0
 52 50  1  0  0  0  0
 53 54  1  0  0  0  0
 53 52  1  0  0  0  0
 54 49  1  0  0  0  0
 55 56  1  0  0  0  0
 56 57  1  0  0  0  0
M  END
>  <MODEL>
3

>  <REMARK>
 VINA RESULT:      -7.3      3.133      7.136
  Name = 
  14 active torsions:
  status: ('A' for Active; 'I' for Inactive)
    1  A    between atoms: C_1  and  C_44
    2  A    between atoms: C_1  and  C_50
    3  A    between atoms: C_8  and  C_39
    4  A    between atoms: C_10  and  C_39
    5  A    between atoms: C_11  and  C_43
    6  A    between atoms: C_13  and  C_23
    7  A    between atoms: C_13  and  C_28
    8  A    between atoms: O_25  and  C_48
    9  A    between atoms: N_26  and  C_56
   10  A    between atoms: C_28  and  C_43
   11  A    between atoms: C_28  and  C_44
   12  A    between atoms: C_37  and  C_38
   13  A    between atoms: C_37  and  C_56
   14  A    between atoms: C_51  and  C_56
                            x       y       z     vdW  Elec       q    Type
                         _______ _______ _______ _____ _____    ______ ____

>  <TORSDO>
F 14

$$$$
=
 OpenBabel11072409083D

 57 66  0  0  1  0  0  0  0  0999 V2000
  195.1030  169.7960  141.6110 C   0  0  0  0  0  2  0  0  0  0  0  0
  192.5510  169.4630  141.4730 C   0  0  0  0  0  2  0  0  0  0  0  0
  193.8890  169.4310  140.7330 C   0  0  1  0  0  3  0  0  0  0  0  0
  193.2800  171.2950  144.6110 N   0  0  0  0  0  2  0  0  0  0  0  0
  195.8120  170.3480  143.9720 N   0  0  0  0  0  2  0  0  0  0  0  0
  192.4310  170.7320  142.3030 C   0  0  0  0  0  2  0  0  0  0  0  0
  194.3350  171.6710  145.5540 C   0  0  1  0  0  3  0  0  0  0  0  0
  196.4600  170.7630  146.1730 O   0  0  0  0  0  0  0  0  0  0  0  0
  193.5470  170.7880  143.2970 C   0  0  0  0  0  0  0  0  0  0  0  0
  194.7790  170.3470  142.9800 C   0  0  0  0  0  0  0  0  0  0  0  0
  195.5900  170.9030  145.2730 C   0  0  0  0  0  0  0  0  0  0  0  0
  194.6240  173.1600  145.4410 C   0  0  0  0  0  2  0  0  0  0  0  0
  193.7170  173.8020  144.3850 C   0  0  1  0  0  3  0  0  0  0  0  0
  192.2080  175.8790  144.2650 C   0  0  0  0  0  2  0  0  0  0  0  0
  191.6000  175.5330  147.1640 C   0  0  0  0  0  0  0  0  0  0  0  0
  191.3550  175.3280  148.3830 O   0  0  0  0  0  0  0  0  0  0  0  0
  189.8150  176.1970  144.1650 O   0  0  0  0  0  0  0  0  0  0  0  0
  189.8000  177.1740  146.9540 C   0  0  0  0  0  2  0  0  0  0  0  0
  190.9540  176.4720  144.8830 C   0  0  0  0  0  0  0  0  0  0  0  0
  190.3130  177.4520  144.1620 O   0  0  0  0  0  0  0  0  0  0  0  0
  190.7500  176.4470  146.3710 C   0  0  0  0  0  0  0  0  0  0  0  0
  192.8060  174.8900  146.5390 C   0  0  2  0  0  3  0  0  0  0  0  0
  193.9000  175.7150  146.7320 F   0  0  0  0  0  0  0  0  0  0  0  0
  192.5800  174.6110  145.0410 C   0  0  2  0  0  3  0  0  0  0  0  0
  196.0980  174.4240  141.7740 C   0  0  2  0  0  3  0  0  0  0  0  0
  197.1190  177.4140  143.4580 O   0  0  0  0  0  0  0  0  0  0  0  0
  196.7400  176.5120  142.6710 C   0  0  0  0  0  0  0  0  0  0  0  0
  194.5050  174.6400  143.4740 N   0  0  0  0  0  0  0  0  0  0  0  0
  196.3180  176.7750  141.3880 O   0  0  0  0  0  0  0  0  0  0  0  0
  196.6460  175.0760  143.0320 C   0  0  1  0  0  3  0  0  0  0  0  0
  195.7090  174.9020  144.0680 O   0  0  0  0  0  0  0  0  0  0  0  0
  195.9530  175.5690  140.7330 C   0  0  2  0  0  3  0  0  0  0  0  0
  194.7950  173.8810  142.2660 C   0  0  0  0  0  2  0  0  0  0  0  0
  194.7040  175.6240  140.0700 O   0  0  0  0  0  0  0  0  0  0  0  0
  194.8170  175.0720  138.7840 C   0  0  0  0  0  1  0  0  0  0  0  0
  193.8580  170.2930  139.4720 C   0  0  0  0  0  2  0  0  0  0  0  0
  193.3950  168.1680  138.4470 O   0  0  0  0  0  1  0  0  0  0  0  0
  193.3440  169.5510  138.2310 C   0  0  2  0  0  0  0  0  0  0  0  0
  194.1560  169.9380  136.9860 C   0  0  0  0  0  2  0  0  0  0  0  0
  195.0470  168.3780  134.9840 O   0  0  0  0  0  0  0  0  0  0  0  0
  195.6160  169.4630  137.0510 C   0  0  2  0  0  3  0  0  0  0  0  0
  196.3890  170.0570  135.9460 N   0  0  2  0  0  0  0  0  0  0  0  0
  196.0180  169.3520  134.7060 C   0  0  1  0  0  3  0  0  0  0  0  0
  196.0590  168.6100  135.9310 C   0  0  2  0  0  0  0  0  0  0  0  0
  191.8910  169.9720  138.0080 C   0  0  0  0  0  2  0  0  0  0  0  0
  191.7280  171.4880  138.1100 C   0  0  0  0  0  2  0  0  0  0  0  0
  191.6690  173.6150  140.2210 C   0  0  0  0  0  1  0  0  0  0  0  0
  189.3900  172.7340  140.9470 C   0  0  2  0  0  3  0  0  0  0  0  0
  190.7150  172.4140  140.2370 C   0  0  1  0  0  3  0  0  0  0  0  0
  188.5720  173.7400  140.1440 C   0  0  0  0  0  2  0  0  0  0  0  0
  190.2250  173.9800  137.6300 O   0  0  0  0  0  1  0  0  0  0  0  0
  188.2630  173.1690  138.7600 C   0  0  0  0  0  2  0  0  0  0  0  0
  189.5410  172.8160  137.9930 C   0  0  2  0  0  3  0  0  0  0  0  0
  190.4340  171.8720  138.8220 C   0  0  1  0  0  3  0  0  0  0  0  0
  189.6000  173.2220  142.3760 C   0  0  0  0  0  2  0  0  0  0  0  0
  189.1240  172.1700  143.3600 C   0  0  0  0  0  2  0  0  0  0  0  0
  189.7250  172.4390  144.7210 C   0  0  0  0  0  1  0  0  0  0  0  0
  1 10  1  0  0  0  0
  2  6  1  0  0  0  0
  3 36  1  6  0  0  0
  3  2  1  0  0  0  0
  3  1  1  0  0  0  0
  4  7  1  0  0  0  0
  5 11  1  0  0  0  0
  6  9  1  0  0  0  0
  7 12  1  6  0  0  0
  9  4  1  0  0  0  0
 10  9  2  0  0  0  0
 10  5  1  0  0  0  0
 11  7  1  0  0  0  0
 11  8  2  0  0  0  0
 13 12  1  1  0  0  0
 14 19  1  0  0  0  0
 14 24  1  0  0  0  0
 15 16  2  0  0  0  0
 17 19  1  0  0  0  0
 19 21  1  0  0  0  0
 20 17  1  0  0  0  0
 20 19  1  0  0  0  0
 21 18  2  0  0  0  0
 21 15  1  0  0  0  0
 22 23  1  6  0  0  0
 22 15  1  0  0  0  0
 24 13  1  6  0  0  0
 24 22  1  0  0  0  0
 25 33  1  1  0  0  0
 25 30  1  0  0  0  0
 27 26  2  0  0  0  0
 28 31  1  0  0  0  0
 28 13  1  0  0  0  0
 29 27  1  0  0  0  0
 30 27  1  6  0  0  0
 30 31  1  0  0  0  0
 32 34  1  1  0  0  0
 32 29  1  0  0  0  0
 32 25  1  0  0  0  0
 33 28  1  0  0  0  0
 35 34  1  0  0  0  0
 38 37  1  1  0  0  0
 38 36  1  0  0  0  0
 39 38  1  0  0  0  0
 40 44  1  0  0  0  0
 41 39  1  6  0  0  0
 42 41  1  0  0  0  0
 43 40  1  0  0  0  0
 43 44  1  0  0  0  0
 43 42  1  0  0  0  0
 44 42  1  0  0  0  0
 44 41  1  0  0  0  0
 45 46  1  0  0  0  0
 45 38  1  0  0  0  0
 46 54  1  0  0  0  0
 47 49  1  0  0  0  0
 48 55  1  0  0  0  0
 49 48  1  0  0  0  0
 50 48  1  0  0  0  0
 51 53  1  0  0  0  0
 52 50  1  0  0  0  0
 53 52  1  0  0  0  0
 53 54  1  0  0  0  0
 54 49  1  0  0  0  0
 55 56  1  0  0  0  0
 56 57  1  0  0  0  0
M  END
>  <MODEL>
4

>  <REMARK>
 VINA RESULT:      -7.3      3.301      7.751
  Name = 
  14 active torsions:
  status: ('A' for Active; 'I' for Inactive)
    1  A    between atoms: C_1  and  C_44
    2  A    between atoms: C_1  and  C_50
    3  A    between atoms: C_8  and  C_39
    4  A    between atoms: C_10  and  C_39
    5  A    between atoms: C_11  and  C_43
    6  A    between atoms: C_13  and  C_23
    7  A    between atoms: C_13  and  C_28
    8  A    between atoms: O_25  and  C_48
    9  A    between atoms: N_26  and  C_56
   10  A    between atoms: C_28  and  C_43
   11  A    between atoms: C_28  and  C_44
   12  A    between atoms: C_37  and  C_38
   13  A    between atoms: C_37  and  C_56
   14  A    between atoms: C_51  and  C_56
                            x       y       z     vdW  Elec       q    Type
                         _______ _______ _______ _____ _____    ______ ____

>  <TORSDO>
F 14

$$$$
=
 OpenBabel11072409083D

 57 66  0  0  1  0  0  0  0  0999 V2000
  192.1740  171.8690  141.3990 C   0  0  0  0  0  2  0  0  0  0  0  0
  193.3730  173.8770  140.3160 C   0  0  0  0  0  2  0  0  0  0  0  0
  193.4830  172.4350  140.8140 C   0  0  1  0  0  3  0  0  0  0  0  0
  190.2040  175.1160  141.7850 N   0  0  0  0  0  2  0  0  0  0  0  0
  189.7290  172.3790  141.7790 N   0  0  0  0  0  2  0  0  0  0  0  0
  192.6590  174.7430  141.3430 C   0  0  0  0  0  2  0  0  0  0  0  0
  188.9020  174.7150  142.3220 C   0  0  1  0  0  3  0  0  0  0  0  0
  187.4560  172.8300  142.0350 O   0  0  0  0  0  0  0  0  0  0  0  0
  191.2880  174.1980  141.5910 C   0  0  0  0  0  0  0  0  0  0  0  0
  191.0630  172.8710  141.6080 C   0  0  0  0  0  0  0  0  0  0  0  0
  188.6370  173.2690  142.0320 C   0  0  0  0  0  0  0  0  0  0  0  0
  188.8710  174.9380  143.8250 C   0  0  0  0  0  2  0  0  0  0  0  0
  189.2210  176.3930  144.1580 C   0  0  1  0  0  3  0  0  0  0  0  0
  187.0190  176.3160  145.4800 C   0  0  0  0  0  2  0  0  0  0  0  0
  186.1680  178.8170  144.0960 C   0  0  0  0  0  0  0  0  0  0  0  0
  185.8670  179.8870  143.5040 O   0  0  0  0  0  0  0  0  0  0  0  0
  186.1860  177.5180  147.4030 O   0  0  0  0  0  0  0  0  0  0  0  0
  184.3210  179.0330  145.6830 C   0  0  0  0  0  2  0  0  0  0  0  0
  185.9610  177.2260  146.0780 C   0  0  0  0  0  0  0  0  0  0  0  0
  185.1720  176.6900  147.0690 O   0  0  0  0  0  0  0  0  0  0  0  0
  185.4130  178.3820  145.2910 C   0  0  0  0  0  0  0  0  0  0  0  0
  187.2610  177.9500  143.5370 C   0  0  2  0  0  3  0  0  0  0  0  0
  186.7130  177.0890  142.6020 F   0  0  0  0  0  0  0  0  0  0  0  0
  187.9840  177.1690  144.6510 C   0  0  2  0  0  3  0  0  0  0  0  0
  191.7010  175.0050  146.3490 C   0  0  2  0  0  3  0  0  0  0  0  0
  191.0950  177.6650  148.6690 O   0  0  0  0  0  0  0  0  0  0  0  0
  191.5440  176.7950  147.8810 C   0  0  0  0  0  0  0  0  0  0  0  0
  190.3070  176.4470  145.1430 N   0  0  0  0  0  0  0  0  0  0  0  0
  192.8650  176.7490  147.5010 O   0  0  0  0  0  0  0  0  0  0  0  0
  190.7120  175.7570  147.2240 C   0  0  1  0  0  3  0  0  0  0  0  0
  189.7540  176.3650  146.3920 O   0  0  0  0  0  0  0  0  0  0  0  0
  193.0830  175.6640  146.6100 C   0  0  2  0  0  3  0  0  0  0  0  0
  191.1480  175.2700  144.9850 C   0  0  0  0  0  2  0  0  0  0  0  0
  193.8150  176.0070  145.4480 O   0  0  0  0  0  0  0  0  0  0  0  0
  194.5620  177.1740  145.6760 C   0  0  0  0  0  1  0  0  0  0  0  0
  194.6340  172.2660  141.8050 C   0  0  0  0  0  2  0  0  0  0  0  0
  196.8140  171.2530  141.8730 O   0  0  0  0  0  1  0  0  0  0  0  0
  196.0080  172.1300  141.1360 C   0  0  2  0  0  0  0  0  0  0  0  0
  196.6850  173.5010  140.9920 C   0  0  0  0  0  2  0  0  0  0  0  0
  197.4770  176.0710  140.9540 O   0  0  0  0  0  0  0  0  0  0  0  0
  196.9510  174.1830  142.3440 C   0  0  2  0  0  3  0  0  0  0  0  0
  195.9680  175.2570  142.5680 N   0  0  2  0  0  0  0  0  0  0  0  0
  196.3380  176.3950  141.7080 C   0  0  1  0  0  3  0  0  0  0  0  0
  197.3830  175.5920  142.2720 C   0  0  2  0  0  0  0  0  0  0  0  0
  195.7860  171.5540  139.7360 C   0  0  0  0  0  2  0  0  0  0  0  0
  196.6920  172.2270  138.7060 C   0  0  0  0  0  2  0  0  0  0  0  0
  196.9020  174.9290  137.4260 C   0  0  0  0  0  1  0  0  0  0  0  0
  194.8220  174.3690  136.0630 C   0  0  2  0  0  3  0  0  0  0  0  0
  195.6330  174.0730  137.3350 C   0  0  1  0  0  3  0  0  0  0  0  0
  195.5730  173.9040  134.8200 C   0  0  0  0  0  2  0  0  0  0  0  0
  197.9410  172.4900  136.0460 O   0  0  0  0  0  1  0  0  0  0  0  0
  195.8280  172.3980  134.9010 C   0  0  0  0  0  2  0  0  0  0  0  0
  196.6260  172.0250  136.1540 C   0  0  2  0  0  3  0  0  0  0  0  0
  195.9380  172.5650  137.4230 C   0  0  1  0  0  3  0  0  0  0  0  0
  194.4390  175.8390  135.9480 C   0  0  0  0  0  2  0  0  0  0  0  0
  193.0020  176.0390  136.3900 C   0  0  0  0  0  2  0  0  0  0  0  0
  192.1730  174.8430  135.9800 C   0  0  0  0  0  1  0  0  0  0  0  0
  1 10  1  0  0  0  0
  2  3  1  0  0  0  0
  2  6  1  0  0  0  0
  3  1  1  0  0  0  0
  3 36  1  1  0  0  0
  4  7  1  0  0  0  0
  5 11  1  0  0  0  0
  6  9  1  0  0  0  0
  7 12  1  1  0  0  0
  9 10  2  0  0  0  0
  9  4  1  0  0  0  0
 10  5  1  0  0  0  0
 11  8  2  0  0  0  0
 11  7  1  0  0  0  0
 13 12  1  1  0  0  0
 13 28  1  0  0  0  0
 14 19  1  0  0  0  0
 15 21  1  0  0  0  0
 16 15  2  0  0  0  0
 19 20  1  0  0  0  0
 19 17  1  0  0  0  0
 20 17  1  0  0  0  0
 21 18  2  0  0  0  0
 21 19  1  0  0  0  0
 22 23  1  6  0  0  0
 22 15  1  0  0  0  0
 22 24  1  0  0  0  0
 24 13  1  6  0  0  0
 24 14  1  0  0  0  0
 25 33  1  6  0  0  0
 25 32  1  0  0  0  0
 25 30  1  0  0  0  0
 27 26  2  0  0  0  0
 28 31  1  0  0  0  0
 29 27  1  0  0  0  0
 30 31  1  6  0  0  0
 30 27  1  0  0  0  0
 32 34  1  6  0  0  0
 32 29  1  0  0  0  0
 33 28  1  0  0  0  0
 34 35  1  0  0  0  0
 38 36  1  0  0  0  0
 38 37  1  1  0  0  0
 39 38  1  0  0  0  0
 40 43  1  0  0  0  0
 40 44  1  0  0  0  0
 41 39  1  6  0  0  0
 41 42  1  0  0  0  0
 43 44  1  0  0  0  0
 43 42  1  0  0  0  0
 44 41  1  0  0  0  0
 44 42  1  0  0  0  0
 45 38  1  0  0  0  0
 46 45  1  0  0  0  0
 48 49  1  0  0  0  0
 49 54  1  0  0  0  0
 49 47  1  0  0  0  0
 50 52  1  0  0  0  0
 50 48  1  0  0  0  0
 51 53  1  0  0  0  0
 52 53  1  0  0  0  0
 53 54  1  0  0  0  0
 54 46  1  0  0  0  0
 55 48  1  0  0  0  0
 55 56  1  0  0  0  0
 57 56  1  0  0  0  0
M  END
>  <MODEL>
5

>  <REMARK>
 VINA RESULT:      -7.2      2.924      7.028
  Name = 
  14 active torsions:
  status: ('A' for Active; 'I' for Inactive)
    1  A    between atoms: C_1  and  C_44
    2  A    between atoms: C_1  and  C_50
    3  A    between atoms: C_8  and  C_39
    4  A    between atoms: C_10  and  C_39
    5  A    between atoms: C_11  and  C_43
    6  A    between atoms: C_13  and  C_23
    7  A    between atoms: C_13  and  C_28
    8  A    between atoms: O_25  and  C_48
    9  A    between atoms: N_26  and  C_56
   10  A    between atoms: C_28  and  C_43
   11  A    between atoms: C_28  and  C_44
   12  A    between atoms: C_37  and  C_38
   13  A    between atoms: C_37  and  C_56
   14  A    between atoms: C_51  and  C_56
                            x       y       z     vdW  Elec       q    Type
                         _______ _______ _______ _____ _____    ______ ____

>  <TORSDO>
F 14

$$$$
=
 OpenBabel11072409083D

 57 66  0  0  1  0  0  0  0  0999 V2000
  190.9810  174.8310  142.2510 C   0  0  0  0  0  2  0  0  0  0  0  0
  189.5250  173.2760  143.7030 C   0  0  0  0  0  2  0  0  0  0  0  0
  190.0620  174.6910  143.4820 C   0  0  1  0  0  3  0  0  0  0  0  0
  191.6520  171.1390  141.5480 N   0  0  0  0  0  2  0  0  0  0  0  0
  191.9170  173.5880  140.2620 N   0  0  0  0  0  2  0  0  0  0  0  0
  190.6450  172.2550  143.5740 C   0  0  0  0  0  2  0  0  0  0  0  0
  192.5120  171.1230  140.3630 C   0  0  1  0  0  3  0  0  0  0  0  0
  192.6950  172.4510  138.3810 O   0  0  0  0  0  0  0  0  0  0  0  0
  191.2510  172.3460  142.2090 C   0  0  0  0  0  0  0  0  0  0  0  0
  191.3970  173.5360  141.5950 C   0  0  0  0  0  0  0  0  0  0  0  0
  192.3790  172.4060  139.5990 C   0  0  0  0  0  0  0  0  0  0  0  0
  193.9630  170.9380  140.7790 C   0  0  0  0  0  2  0  0  0  0  0  0
  194.3880  172.0490  141.7460 C   0  0  1  0  0  3  0  0  0  0  0  0
  194.5610  170.0670  143.3720 C   0  0  0  0  0  2  0  0  0  0  0  0
  195.8480  171.8820  145.3570 C   0  0  0  0  0  0  0  0  0  0  0  0
  196.4100  172.6840  146.1500 O   0  0  0  0  0  0  0  0  0  0  0  0
  196.3740  168.6210  144.0510 O   0  0  0  0  0  0  0  0  0  0  0  0
  196.4680  169.9330  146.6970 C   0  0  0  0  0  2  0  0  0  0  0  0
  195.4320  169.5210  144.4900 C   0  0  0  0  0  0  0  0  0  0  0  0
  195.3170  168.1780  144.7650 O   0  0  0  0  0  0  0  0  0  0  0  0
  195.9250  170.4230  145.5850 C   0  0  0  0  0  0  0  0  0  0  0  0
  195.0400  172.4270  144.2130 C   0  0  2  0  0  3  0  0  0  0  0  0
  193.7460  172.6510  144.6480 F   0  0  0  0  0  0  0  0  0  0  0  0
  195.0590  171.4680  143.0060 C   0  0  2  0  0  3  0  0  0  0  0  0
  197.2080  173.0360  139.7590 C   0  0  2  0  0  3  0  0  0  0  0  0
  197.5470  175.9860  141.7600 O   0  0  0  0  0  0  0  0  0  0  0  0
  197.4370  175.1080  140.8690 C   0  0  0  0  0  0  0  0  0  0  0  0
  195.2710  173.0070  141.0700 N   0  0  0  0  0  0  0  0  0  0  0  0
  197.2790  175.4170  139.5370 O   0  0  0  0  0  0  0  0  0  0  0  0
  197.4040  173.6490  141.1360 C   0  0  1  0  0  3  0  0  0  0  0  0
  196.2860  173.3300  141.9280 O   0  0  0  0  0  0  0  0  0  0  0  0
  197.1830  174.2300  138.7650 C   0  0  2  0  0  3  0  0  0  0  0  0
  195.8870  172.3550  139.9250 C   0  0  0  0  0  2  0  0  0  0  0  0
  196.1080  174.2230  137.8430 O   0  0  0  0  0  0  0  0  0  0  0  0
  195.1550  175.1860  138.2100 C   0  0  0  0  0  1  0  0  0  0  0  0
  190.7500  175.2370  144.7320 C   0  0  0  0  0  2  0  0  0  0  0  0
  190.1860  177.3160  143.6610 O   0  0  0  0  0  1  0  0  0  0  0  0
  190.8940  176.7650  144.7370 C   0  0  2  0  0  0  0  0  0  0  0  0
  192.3730  177.1760  144.6820 C   0  0  0  0  0  2  0  0  0  0  0  0
  194.6250  175.9620  143.8540 O   0  0  0  0  0  0  0  0  0  0  0  0
  193.2310  176.4690  145.7430 C   0  0  2  0  0  3  0  0  0  0  0  0
  194.5270  177.1550  145.8820 N   0  0  2  0  0  0  0  0  0  0  0  0
  195.3500  176.8040  144.7110 C   0  0  1  0  0  3  0  0  0  0  0  0
  194.4560  175.8190  145.2410 C   0  0  2  0  0  0  0  0  0  0  0  0
  190.3000  177.2820  146.0480 C   0  0  0  0  0  2  0  0  0  0  0  0
  188.8880  176.7420  146.2730 C   0  0  0  0  0  2  0  0  0  0  0  0
  186.4020  176.4220  144.6310 C   0  0  0  0  0  1  0  0  0  0  0  0
  186.0640  178.9440  144.7760 C   0  0  2  0  0  3  0  0  0  0  0  0
  187.0690  177.7840  144.8540 C   0  0  1  0  0  3  0  0  0  0  0  0
  185.0950  178.9030  145.9530 C   0  0  0  0  0  2  0  0  0  0  0  0
  186.2580  176.6620  147.6060 O   0  0  0  0  0  1  0  0  0  0  0  0
  185.8690  179.0110  147.2670 C   0  0  0  0  0  2  0  0  0  0  0  0
  186.9010  177.8890  147.4110 C   0  0  2  0  0  3  0  0  0  0  0  0
  187.8380  177.8460  146.1880 C   0  0  1  0  0  3  0  0  0  0  0  0
  185.3100  178.9710  143.4520 C   0  0  0  0  0  2  0  0  0  0  0  0
  186.2460  178.6150  142.3130 C   0  0  0  0  0  2  0  0  0  0  0  0
  185.4440  178.3670  141.0550 C   0  0  0  0  0  1  0  0  0  0  0  0
  1  3  1  0  0  0  0
  3  2  1  0  0  0  0
  3 36  1  1  0  0  0
  4  9  1  0  0  0  0
  5 10  1  0  0  0  0
  6  2  1  0  0  0  0
  7 12  1  1  0  0  0
  7  4  1  0  0  0  0
  8 11  2  0  0  0  0
  9  6  1  0  0  0  0
 10  9  2  0  0  0  0
 10  1  1  0  0  0  0
 11  5  1  0  0  0  0
 11  7  1  0  0  0  0
 13 12  1  6  0  0  0
 14 19  1  0  0  0  0
 15 21  1  0  0  0  0
 15 16  2  0  0  0  0
 17 19  1  0  0  0  0
 17 20  1  0  0  0  0
 19 20  1  0  0  0  0
 19 21  1  0  0  0  0
 21 18  2  0  0  0  0
 22 23  1  1  0  0  0
 22 15  1  0  0  0  0
 24 13  1  6  0  0  0
 24 14  1  0  0  0  0
 24 22  1  0  0  0  0
 25 33  1  1  0  0  0
 25 30  1  0  0  0  0
 27 26  2  0  0  0  0
 28 13  1  0  0  0  0
 28 31  1  0  0  0  0
 29 27  1  0  0  0  0
 30 27  1  6  0  0  0
 30 31  1  0  0  0  0
 32 34  1  1  0  0  0
 32 29  1  0  0  0  0
 32 25  1  0  0  0  0
 33 28  1  0  0  0  0
 34 35  1  0  0  0  0
 36 38  1  0  0  0  0
 38 37  1  6  0  0  0
 38 45  1  0  0  0  0
 39 38  1  0  0  0  0
 40 43  1  0  0  0  0
 40 44  1  0  0  0  0
 41 39  1  6  0  0  0
 41 42  1  0  0  0  0
 43 44  1  0  0  0  0
 43 42  1  0  0  0  0
 44 41  1  0  0  0  0
 44 42  1  0  0  0  0
 45 46  1  0  0  0  0
 47 49  1  0  0  0  0
 48 49  1  0  0  0  0
 48 50  1  0  0  0  0
 49 54  1  0  0  0  0
 50 52  1  0  0  0  0
 52 53  1  0  0  0  0
 53 51  1  0  0  0  0
 54 46  1  0  0  0  0
 54 53  1  0  0  0  0
 55 48  1  0  0  0  0
 56 55  1  0  0  0  0
 57 56  1  0  0  0  0
M  END
>  <MODEL>
6

>  <REMARK>
 VINA RESULT:      -7.2      2.360      9.620
  Name = 
  14 active torsions:
  status: ('A' for Active; 'I' for Inactive)
    1  A    between atoms: C_1  and  C_44
    2  A    between atoms: C_1  and  C_50
    3  A    between atoms: C_8  and  C_39
    4  A    between atoms: C_10  and  C_39
    5  A    between atoms: C_11  and  C_43
    6  A    between atoms: C_13  and  C_23
    7  A    between atoms: C_13  and  C_28
    8  A    between atoms: O_25  and  C_48
    9  A    between atoms: N_26  and  C_56
   10  A    between atoms: C_28  and  C_43
   11  A    between atoms: C_28  and  C_44
   12  A    between atoms: C_37  and  C_38
   13  A    between atoms: C_37  and  C_56
   14  A    between atoms: C_51  and  C_56
                            x       y       z     vdW  Elec       q    Type
                         _______ _______ _______ _____ _____    ______ ____

>  <TORSDO>
F 14

$$$$
=
 OpenBabel11072409083D

 57 66  0  0  1  0  0  0  0  0999 V2000
  188.9820  172.9390  140.2590 C   0  0  0  0  0  2  0  0  0  0  0  0
  188.9850  173.2720  142.8150 C   0  0  0  0  0  2  0  0  0  0  0  0
  188.4130  173.7110  141.4660 C   0  0  1  0  0  3  0  0  0  0  0  0
  191.9830  171.2780  141.9360 N   0  0  0  0  0  2  0  0  0  0  0  0
  190.5010  171.0320  139.5980 N   0  0  0  0  0  2  0  0  0  0  0  0
  190.5000  173.1540  142.7390 C   0  0  0  0  0  2  0  0  0  0  0  0
  192.6160  170.4770  140.8860 C   0  0  1  0  0  3  0  0  0  0  0  0
  191.8320  169.2090  139.0140 O   0  0  0  0  0  0  0  0  0  0  0  0
  190.8720  172.1510  141.6930 C   0  0  0  0  0  0  0  0  0  0  0  0
  190.1650  172.0470  140.5520 C   0  0  0  0  0  0  0  0  0  0  0  0
  191.6400  170.1850  139.7870 C   0  0  0  0  0  0  0  0  0  0  0  0
  193.8070  171.2260  140.3110 C   0  0  0  0  0  2  0  0  0  0  0  0
  193.6830  172.7280  140.5960 C   0  0  1  0  0  3  0  0  0  0  0  0
  194.5780  172.2890  142.9640 C   0  0  0  0  0  2  0  0  0  0  0  0
  195.6400  175.0760  143.0160 C   0  0  0  0  0  0  0  0  0  0  0  0
  196.0900  176.2520  142.9780 O   0  0  0  0  0  0  0  0  0  0  0  0
  196.7740  171.8160  143.8560 O   0  0  0  0  0  0  0  0  0  0  0  0
  196.9130  174.5250  145.0290 C   0  0  0  0  0  2  0  0  0  0  0  0
  195.7090  172.6850  143.8980 C   0  0  0  0  0  0  0  0  0  0  0  0
  195.9750  171.8320  144.9440 O   0  0  0  0  0  0  0  0  0  0  0  0
  196.1120  174.1240  144.0440 C   0  0  0  0  0  0  0  0  0  0  0  0
  194.5660  174.6690  142.0460 C   0  0  2  0  0  3  0  0  0  0  0  0
  193.3330  174.9880  142.5880 F   0  0  0  0  0  0  0  0  0  0  0  0
  194.6520  173.1680  141.7110 C   0  0  2  0  0  3  0  0  0  0  0  0
  193.7630  173.2530  137.0470 C   0  0  2  0  0  3  0  0  0  0  0  0
  196.6110  175.3840  137.4570 O   0  0  0  0  0  0  0  0  0  0  0  0
  195.5210  174.8230  137.1820 C   0  0  0  0  0  0  0  0  0  0  0  0
  193.9020  173.5030  139.3690 N   0  0  0  0  0  0  0  0  0  0  0  0
  194.4880  175.4770  136.5490 O   0  0  0  0  0  0  0  0  0  0  0  0
  195.1870  173.4260  137.5490 C   0  0  1  0  0  3  0  0  0  0  0  0
  195.1850  173.2830  138.9490 O   0  0  0  0  0  0  0  0  0  0  0  0
  193.3870  174.5990  136.3690 C   0  0  2  0  0  3  0  0  0  0  0  0
  193.0300  172.9890  138.3240 C   0  0  0  0  0  2  0  0  0  0  0  0
  192.1410  175.1430  136.7610 O   0  0  0  0  0  0  0  0  0  0  0  0
  191.1840  174.9260  135.7570 C   0  0  0  0  0  1  0  0  0  0  0  0
  188.5530  175.2180  141.2560 C   0  0  0  0  0  2  0  0  0  0  0  0
  186.6770  175.1980  142.7610 O   0  0  0  0  0  1  0  0  0  0  0  0
  187.5130  176.0460  142.0230 C   0  0  2  0  0  0  0  0  0  0  0  0
  186.6910  176.9180  141.0620 C   0  0  0  0  0  2  0  0  0  0  0  0
  184.4220  178.0140  140.1190 O   0  0  0  0  0  0  0  0  0  0  0  0
  186.2170  178.2320  141.7020 C   0  0  2  0  0  3  0  0  0  0  0  0
  184.9460  178.0160  142.4150 N   0  0  2  0  0  0  0  0  0  0  0  0
  183.8770  177.9020  141.4070 C   0  0  1  0  0  3  0  0  0  0  0  0
  184.9680  178.7940  141.1520 C   0  0  2  0  0  0  0  0  0  0  0  0
  188.2680  176.9670  142.9810 C   0  0  0  0  0  2  0  0  0  0  0  0
  187.7970  176.7810  144.4230 C   0  0  0  0  0  2  0  0  0  0  0  0
  190.5890  177.6050  145.1360 C   0  0  0  0  0  1  0  0  0  0  0  0
  191.1100  175.1610  145.6360 C   0  0  2  0  0  3  0  0  0  0  0  0
  190.2050  176.1430  144.8760 C   0  0  1  0  0  3  0  0  0  0  0  0
  190.8730  175.2570  147.1400 C   0  0  0  0  0  2  0  0  0  0  0  0
  188.5300  177.1560  147.2550 O   0  0  0  0  0  1  0  0  0  0  0  0
  189.4140  174.9290  147.4580 C   0  0  0  0  0  2  0  0  0  0  0  0
  188.4490  175.8650  146.7240 C   0  0  2  0  0  3  0  0  0  0  0  0
  188.7270  175.8600  145.2080 C   0  0  1  0  0  3  0  0  0  0  0  0
  192.5840  175.3530  145.3050 C   0  0  0  0  0  2  0  0  0  0  0  0
  193.3920  175.4810  146.5820 C   0  0  0  0  0  2  0  0  0  0  0  0
  194.2270  176.7410  146.5320 C   0  0  0  0  0  1  0  0  0  0  0  0
  1 10  1  0  0  0  0
  1  3  1  0  0  0  0
  3 36  1  6  0  0  0
  3  2  1  0  0  0  0
  5 11  1  0  0  0  0
  5 10  1  0  0  0  0
  6  2  1  0  0  0  0
  7 12  1  6  0  0  0
  7  4  1  0  0  0  0
  8 11  2  0  0  0  0
  9  4  1  0  0  0  0
  9  6  1  0  0  0  0
 10  9  2  0  0  0  0
 11  7  1  0  0  0  0
 13 12  1  6  0  0  0
 14 19  1  0  0  0  0
 15 21  1  0  0  0  0
 16 15  2  0  0  0  0
 17 19  1  0  0  0  0
 17 20  1  0  0  0  0
 19 21  1  0  0  0  0
 19 20  1  0  0  0  0
 21 18  2  0  0  0  0
 22 23  1  1  0  0  0
 22 15  1  0  0  0  0
 24 13  1  6  0  0  0
 24 22  1  0  0  0  0
 24 14  1  0  0  0  0
 25 30  1  0  0  0  0
 25 33  1  1  0  0  0
 27 26  2  0  0  0  0
 28 13  1  0  0  0  0
 29 27  1  0  0  0  0
 30 27  1  1  0  0  0
 30 31  1  0  0  0  0
 31 28  1  0  0  0  0
 32 29  1  0  0  0  0
 32 34  1  1  0  0  0
 32 25  1  0  0  0  0
 33 28  1  0  0  0  0
 35 34  1  0  0  0  0
 36 38  1  0  0  0  0
 38 37  1  1  0  0  0
 38 45  1  0  0  0  0
 39 38  1  0  0  0  0
 40 44  1  0  0  0  0
 40 43  1  0  0  0  0
 41 39  1  6  0  0  0
 41 42  1  0  0  0  0
 43 42  1  0  0  0  0
 44 43  1  0  0  0  0
 44 41  1  0  0  0  0
 44 42  1  0  0  0  0
 45 46  1  0  0  0  0
 46 54  1  0  0  0  0
 48 50  1  0  0  0  0
 49 47  1  0  0  0  0
 49 54  1  0  0  0  0
 49 48  1  0  0  0  0
 50 52  1  0  0  0  0
 53 51  1  0  0  0  0
 53 52  1  0  0  0  0
 54 53  1  0  0  0  0
 55 48  1  0  0  0  0
 55 56  1  0  0  0  0
 57 56  1  0  0  0  0
M  END
>  <MODEL>
7

>  <REMARK>
 VINA RESULT:      -7.1      2.940      9.271
  Name = 
  14 active torsions:
  status: ('A' for Active; 'I' for Inactive)
    1  A    between atoms: C_1  and  C_44
    2  A    between atoms: C_1  and  C_50
    3  A    between atoms: C_8  and  C_39
    4  A    between atoms: C_10  and  C_39
    5  A    between atoms: C_11  and  C_43
    6  A    between atoms: C_13  and  C_23
    7  A    between atoms: C_13  and  C_28
    8  A    between atoms: O_25  and  C_48
    9  A    between atoms: N_26  and  C_56
   10  A    between atoms: C_28  and  C_43
   11  A    between atoms: C_28  and  C_44
   12  A    between atoms: C_37  and  C_38
   13  A    between atoms: C_37  and  C_56
   14  A    between atoms: C_51  and  C_56
                            x       y       z     vdW  Elec       q    Type
                         _______ _______ _______ _____ _____    ______ ____

>  <TORSDO>
F 14

$$$$
=
 OpenBabel11072409083D

 57 66  0  0  1  0  0  0  0  0999 V2000
  191.2040  171.0220  140.4830 C   0  0  0  0  0  2  0  0  0  0  0  0
  192.2610  172.7890  138.9320 C   0  0  0  0  0  2  0  0  0  0  0  0
  192.3370  171.3690  139.4950 C   0  0  1  0  0  3  0  0  0  0  0  0
  189.8600  174.5320  141.1520 N   0  0  0  0  0  2  0  0  0  0  0  0
  189.0700  171.8940  141.5160 N   0  0  0  0  0  2  0  0  0  0  0  0
  192.0030  173.7920  140.0470 C   0  0  0  0  0  2  0  0  0  0  0  0
  188.7400  174.3460  142.0780 C   0  0  1  0  0  3  0  0  0  0  0  0
  187.0530  172.6770  142.3850 O   0  0  0  0  0  0  0  0  0  0  0  0
  190.7130  173.4610  140.7290 C   0  0  0  0  0  0  0  0  0  0  0  0
  190.3410  172.1820  140.9220 C   0  0  0  0  0  0  0  0  0  0  0  0
  188.2240  172.9410  142.0010 C   0  0  0  0  0  0  0  0  0  0  0  0
  189.1910  174.6360  143.5000 C   0  0  0  0  0  2  0  0  0  0  0  0
  189.5870  176.1100  143.6460 C   0  0  1  0  0  3  0  0  0  0  0  0
  187.7170  176.2090  145.4060 C   0  0  0  0  0  2  0  0  0  0  0  0
  186.4830  178.4570  143.8830 C   0  0  0  0  0  0  0  0  0  0  0  0
  186.0160  179.4190  143.2170 O   0  0  0  0  0  0  0  0  0  0  0  0
  187.2520  177.6830  147.2630 O   0  0  0  0  0  0  0  0  0  0  0  0
  185.0010  178.8920  145.7780 C   0  0  0  0  0  2  0  0  0  0  0  0
  186.7680  177.1880  146.0760 C   0  0  0  0  0  0  0  0  0  0  0  0
  186.2290  176.8010  147.2810 O   0  0  0  0  0  0  0  0  0  0  0  0
  186.0160  178.2020  145.2620 C   0  0  0  0  0  0  0  0  0  0  0  0
  187.4720  177.5290  143.2360 C   0  0  2  0  0  3  0  0  0  0  0  0
  186.7790  176.5270  142.5780 F   0  0  0  0  0  0  0  0  0  0  0  0
  188.4470  176.9370  144.2730 C   0  0  2  0  0  3  0  0  0  0  0  0
  192.6830  174.9580  145.0470 C   0  0  2  0  0  3  0  0  0  0  0  0
  192.0750  176.9570  147.9550 O   0  0  0  0  0  0  0  0  0  0  0  0
  192.5080  176.3650  146.9350 C   0  0  0  0  0  0  0  0  0  0  0  0
  190.8220  176.2340  144.4280 N   0  0  0  0  0  0  0  0  0  0  0  0
  193.7070  176.6890  146.3420 O   0  0  0  0  0  0  0  0  0  0  0  0
  191.7720  175.2990  146.2150 C   0  0  1  0  0  3  0  0  0  0  0  0
  190.5640  175.8090  145.7030 O   0  0  0  0  0  0  0  0  0  0  0  0
  193.9380  175.8580  145.2140 C   0  0  2  0  0  3  0  0  0  0  0  0
  191.8200  175.3270  143.8830 C   0  0  0  0  0  2  0  0  0  0  0  0
  194.3360  176.5580  144.0500 O   0  0  0  0  0  0  0  0  0  0  0  0
  195.7190  176.4170  143.8520 C   0  0  0  0  0  1  0  0  0  0  0  0
  193.7020  171.0800  140.1180 C   0  0  0  0  0  2  0  0  0  0  0  0
  195.5490  170.3660  138.7540 O   0  0  0  0  0  1  0  0  0  0  0  0
  194.4370  169.9010  139.4680 C   0  0  2  0  0  0  0  0  0  0  0  0
  193.4950  169.1060  138.5510 C   0  0  0  0  0  2  0  0  0  0  0  0
  191.7100  168.3360  136.6920 O   0  0  0  0  0  0  0  0  0  0  0  0
  193.9570  169.0910  137.0850 C   0  0  2  0  0  3  0  0  0  0  0  0
  193.2180  170.1050  136.3130 N   0  0  2  0  0  0  0  0  0  0  0  0
  191.8550  169.5940  136.0860 C   0  0  1  0  0  3  0  0  0  0  0  0
  192.9430  168.6620  136.1030 C   0  0  2  0  0  0  0  0  0  0  0  0
  194.9110  168.9740  140.5890 C   0  0  0  0  0  2  0  0  0  0  0  0
  194.0930  169.1770  141.8640 C   0  0  0  0  0  2  0  0  0  0  0  0
  194.6620  171.6160  143.5110 C   0  0  0  0  0  1  0  0  0  0  0  0
  196.5790  170.3430  144.6080 C   0  0  2  0  0  3  0  0  0  0  0  0
  195.6620  170.4610  143.3800 C   0  0  1  0  0  3  0  0  0  0  0  0
  195.7890  169.9000  145.8350 C   0  0  0  0  0  2  0  0  0  0  0  0
  193.0790  169.3400  144.6290 O   0  0  0  0  0  1  0  0  0  0  0  0
  195.1420  168.5400  145.5720 C   0  0  0  0  0  2  0  0  0  0  0  0
  194.2180  168.5780  144.3510 C   0  0  2  0  0  3  0  0  0  0  0  0
  194.9670  169.1120  143.1140 C   0  0  1  0  0  3  0  0  0  0  0  0
  197.3420  171.6320  144.8900 C   0  0  0  0  0  2  0  0  0  0  0  0
  196.8170  172.2810  146.1560 C   0  0  0  0  0  2  0  0  0  0  0  0
  196.9020  173.7850  146.0290 C   0  0  0  0  0  1  0  0  0  0  0  0
  1 10  1  0  0  0  0
  2  3  1  0  0  0  0
  2  6  1  0  0  0  0
  3 36  1  1  0  0  0
  3  1  1  0  0  0  0
  4  7  1  0  0  0  0
  5 11  1  0  0  0  0
  6  9  1  0  0  0  0
  7 12  1  1  0  0  0
  9 10  2  0  0  0  0
  9  4  1  0  0  0  0
 10  5  1  0  0  0  0
 11  7  1  0  0  0  0
 11  8  2  0  0  0  0
 13 12  1  1  0  0  0
 13 28  1  0  0  0  0
 14 19  1  0  0  0  0
 15 21  1  0  0  0  0
 16 15  2  0  0  0  0
 17 20  1  0  0  0  0
 19 17  1  0  0  0  0
 19 20  1  0  0  0  0
 21 18  2  0  0  0  0
 21 19  1  0  0  0  0
 22 23  1  1  0  0  0
 22 15  1  0  0  0  0
 22 24  1  0  0  0  0
 24 13  1  6  0  0  0
 24 14  1  0  0  0  0
 25 33  1  6  0  0  0
 25 32  1  0  0  0  0
 25 30  1  0  0  0  0
 27 26  2  0  0  0  0
 28 31  1  0  0  0  0
 29 27  1  0  0  0  0
 30 31  1  6  0  0  0
 30 27  1  0  0  0  0
 32 34  1  6  0  0  0
 32 29  1  0  0  0  0
 33 28  1  0  0  0  0
 35 34  1  0  0  0  0
 38 37  1  6  0  0  0
 38 36  1  0  0  0  0
 38 45  1  0  0  0  0
 39 38  1  0  0  0  0
 41 39  1  1  0  0  0
 42 41  1  0  0  0  0
 43 44  1  0  0  0  0
 43 42  1  0  0  0  0
 43 40  1  0  0  0  0
 44 42  1  0  0  0  0
 44 40  1  0  0  0  0
 44 41  1  0  0  0  0
 45 46  1  0  0  0  0
 46 54  1  0  0  0  0
 48 55  1  0  0  0  0
 48 50  1  0  0  0  0
 49 47  1  0  0  0  0
 49 48  1  0  0  0  0
 52 50  1  0  0  0  0
 53 51  1  0  0  0  0
 53 52  1  0  0  0  0
 54 49  1  0  0  0  0
 54 53  1  0  0  0  0
 55 56  1  0  0  0  0
 57 56  1  0  0  0  0
M  END
>  <MODEL>
8

>  <REMARK>
 VINA RESULT:      -7.0      3.054      6.313
  Name = 
  14 active torsions:
  status: ('A' for Active; 'I' for Inactive)
    1  A    between atoms: C_1  and  C_44
    2  A    between atoms: C_1  and  C_50
    3  A    between atoms: C_8  and  C_39
    4  A    between atoms: C_10  and  C_39
    5  A    between atoms: C_11  and  C_43
    6  A    between atoms: C_13  and  C_23
    7  A    between atoms: C_13  and  C_28
    8  A    between atoms: O_25  and  C_48
    9  A    between atoms: N_26  and  C_56
   10  A    between atoms: C_28  and  C_43
   11  A    between atoms: C_28  and  C_44
   12  A    between atoms: C_37  and  C_38
   13  A    between atoms: C_37  and  C_56
   14  A    between atoms: C_51  and  C_56
                            x       y       z     vdW  Elec       q    Type
                         _______ _______ _______ _____ _____    ______ ____

>  <TORSDO>
F 14

$$$$
=
 OpenBabel11072409083D

 57 66  0  0  1  0  0  0  0  0999 V2000
  193.5570  175.1300  143.2070 C   0  0  0  0  0  2  0  0  0  0  0  0
  194.5840  173.9200  145.2380 C   0  0  0  0  0  2  0  0  0  0  0  0
  194.5820  174.0970  143.7190 C   0  0  1  0  0  3  0  0  0  0  0  0
  191.4320  175.5170  146.3550 N   0  0  0  0  0  2  0  0  0  0  0  0
  191.8500  176.8380  143.9470 N   0  0  0  0  0  2  0  0  0  0  0  0
  193.1630  173.7800  145.7610 C   0  0  0  0  0  2  0  0  0  0  0  0
  190.4110  176.5090  146.0110 C   0  0  1  0  0  3  0  0  0  0  0  0
  190.3470  178.4760  144.6510 O   0  0  0  0  0  0  0  0  0  0  0  0
  192.3770  175.0030  145.4070 C   0  0  0  0  0  0  0  0  0  0  0  0
  192.5660  175.6310  144.2310 C   0  0  0  0  0  0  0  0  0  0  0  0
  190.8590  177.3420  144.8490 C   0  0  0  0  0  0  0  0  0  0  0  0
  189.1100  175.8090  145.6520 C   0  0  0  0  0  2  0  0  0  0  0  0
  188.5740  176.3300  144.3140 C   0  0  1  0  0  3  0  0  0  0  0  0
  189.3890  173.9960  143.6120 C   0  0  0  0  0  2  0  0  0  0  0  0
  188.5560  174.6090  140.8160 C   0  0  0  0  0  0  0  0  0  0  0  0
  188.1640  174.9070  139.6560 O   0  0  0  0  0  0  0  0  0  0  0  0
  188.2640  171.9160  143.1140 O   0  0  0  0  0  0  0  0  0  0  0  0
  188.8550  172.2520  140.2380 C   0  0  0  0  0  2  0  0  0  0  0  0
  189.1000  172.8870  142.6160 C   0  0  0  0  0  0  0  0  0  0  0  0
  189.5710  171.6340  142.9290 O   0  0  0  0  0  0  0  0  0  0  0  0
  188.8580  173.2050  141.1670 C   0  0  0  0  0  0  0  0  0  0  0  0
  188.7780  175.7040  141.8200 C   0  0  2  0  0  3  0  0  0  0  0  0
  190.0710  176.1810  141.6800 F   0  0  0  0  0  0  0  0  0  0  0  0
  188.5240  175.2090  143.2560 C   0  0  2  0  0  3  0  0  0  0  0  0
  186.0980  178.8960  143.9190 C   0  0  2  0  0  3  0  0  0  0  0  0
  184.8610  178.1640  147.1990 O   0  0  0  0  0  0  0  0  0  0  0  0
  185.0600  178.4000  145.9820 C   0  0  0  0  0  0  0  0  0  0  0  0
  187.2540  176.9450  144.4940 N   0  0  0  0  0  0  0  0  0  0  0  0
  184.0710  178.2780  145.0310 O   0  0  0  0  0  0  0  0  0  0  0  0
  186.3750  178.7780  145.4090 C   0  0  1  0  0  3  0  0  0  0  0  0
  187.3020  177.7380  145.6080 O   0  0  0  0  0  0  0  0  0  0  0  0
  184.5810  178.6080  143.7470 C   0  0  2  0  0  3  0  0  0  0  0  0
  186.9860  177.8270  143.3680 C   0  0  0  0  0  2  0  0  0  0  0  0
  184.2570  177.6700  142.7370 O   0  0  0  0  0  0  0  0  0  0  0  0
  184.2710  178.2950  141.4790 C   0  0  0  0  0  1  0  0  0  0  0  0
  194.4100  172.7640  142.9940 C   0  0  0  0  0  2  0  0  0  0  0  0
  196.4200  171.4860  143.3280 O   0  0  0  0  0  1  0  0  0  0  0  0
  195.7080  172.2270  142.3760 C   0  0  2  0  0  0  0  0  0  0  0  0
  196.5680  173.3750  141.8270 C   0  0  0  0  0  2  0  0  0  0  0  0
  196.7220  175.9890  141.2120 O   0  0  0  0  0  0  0  0  0  0  0  0
  196.1700  173.7950  140.4030 C   0  0  2  0  0  3  0  0  0  0  0  0
  197.3460  174.3110  139.6820 N   0  0  2  0  0  0  0  0  0  0  0  0
  197.6370  175.6600  140.2010 C   0  0  1  0  0  3  0  0  0  0  0  0
  196.2710  175.2390  140.1140 C   0  0  2  0  0  0  0  0  0  0  0  0
  195.3240  171.3150  141.2100 C   0  0  0  0  0  2  0  0  0  0  0  0
  193.8620  171.5060  140.8100 C   0  0  0  0  0  2  0  0  0  0  0  0
  191.9750  172.2930  138.6180 C   0  0  0  0  0  1  0  0  0  0  0  0
  191.6210  169.8160  138.1280 C   0  0  2  0  0  3  0  0  0  0  0  0
  192.0430  170.8640  139.1710 C   0  0  1  0  0  3  0  0  0  0  0  0
  192.6410  169.7350  136.9970 C   0  0  0  0  0  2  0  0  0  0  0  0
  194.8120  171.5670  138.0180 O   0  0  0  0  0  1  0  0  0  0  0  0
  194.0090  169.3470  137.5580 C   0  0  0  0  0  2  0  0  0  0  0  0
  194.4920  170.3440  138.6160 C   0  0  2  0  0  3  0  0  0  0  0  0
  193.4380  170.5180  139.7270 C   0  0  1  0  0  3  0  0  0  0  0  0
  190.2220  170.0720  137.5810 C   0  0  0  0  0  2  0  0  0  0  0  0
  190.2930  170.3950  136.1010 C   0  0  0  0  0  2  0  0  0  0  0  0
  189.3580  171.5400  135.7850 C   0  0  0  0  0  1  0  0  0  0  0  0
  1  3  1  0  0  0  0
  1 10  1  0  0  0  0
  2  6  1  0  0  0  0
  3 36  1  6  0  0  0
  3  2  1  0  0  0  0
  5 10  1  0  0  0  0
  5 11  1  0  0  0  0
  7 12  1  6  0  0  0
  7  4  1  0  0  0  0
  8 11  2  0  0  0  0
  9  6  1  0  0  0  0
  9  4  1  0  0  0  0
 10  9  2  0  0  0  0
 11  7  1  0  0  0  0
 13 28  1  0  0  0  0
 13 12  1  1  0  0  0
 15 21  1  0  0  0  0
 15 22  1  0  0  0  0
 16 15  2  0  0  0  0
 18 21  2  0  0  0  0
 19 20  1  0  0  0  0
 19 17  1  0  0  0  0
 19 14  1  0  0  0  0
 20 17  1  0  0  0  0
 21 19  1  0  0  0  0
 22 23  1  1  0  0  0
 22 24  1  0  0  0  0
 24 14  1  0  0  0  0
 24 13  1  1  0  0  0
 25 33  1  6  0  0  0
 25 30  1  0  0  0  0
 27 26  2  0  0  0  0
 28 31  1  0  0  0  0
 29 27  1  0  0  0  0
 30 31  1  6  0  0  0
 30 27  1  0  0  0  0
 32 34  1  6  0  0  0
 32 25  1  0  0  0  0
 32 29  1  0  0  0  0
 33 28  1  0  0  0  0
 35 34  1  0  0  0  0
 38 36  1  0  0  0  0
 38 37  1  1  0  0  0
 39 38  1  0  0  0  0
 41 39  1  1  0  0  0
 42 44  1  0  0  0  0
 42 43  1  0  0  0  0
 42 41  1  0  0  0  0
 43 40  1  0  0  0  0
 44 43  1  0  0  0  0
 44 41  1  0  0  0  0
 44 40  1  0  0  0  0
 45 38  1  0  0  0  0
 46 45  1  0  0  0  0
 47 49  1  0  0  0  0
 48 49  1  0  0  0  0
 49 54  1  0  0  0  0
 50 52  1  0  0  0  0
 50 48  1  0  0  0  0
 51 53  1  0  0  0  0
 52 53  1  0  0  0  0
 53 54  1  0  0  0  0
 54 46  1  0  0  0  0
 55 48  1  0  0  0  0
 56 55  1  0  0  0  0
 57 56  1  0  0  0  0
M  END
>  <MODEL>
9

>  <REMARK>
 VINA RESULT:      -7.0      2.540      4.565
  Name = 
  14 active torsions:
  status: ('A' for Active; 'I' for Inactive)
    1  A    between atoms: C_1  and  C_44
    2  A    between atoms: C_1  and  C_50
    3  A    between atoms: C_8  and  C_39
    4  A    between atoms: C_10  and  C_39
    5  A    between atoms: C_11  and  C_43
    6  A    between atoms: C_13  and  C_23
    7  A    between atoms: C_13  and  C_28
    8  A    between atoms: O_25  and  C_48
    9  A    between atoms: N_26  and  C_56
   10  A    between atoms: C_28  and  C_43
   11  A    between atoms: C_28  and  C_44
   12  A    between atoms: C_37  and  C_38
   13  A    between atoms: C_37  and  C_56
   14  A    between atoms: C_51  and  C_56
                            x       y       z     vdW  Elec       q    Type
                         _______ _______ _______ _____ _____    ______ ____

>  <TORSDO>
F 14

$$$$
