=
 OpenBabel11072408343D

 26 27  0  0  1  0  0  0  0  0999 V2000
  190.5430  175.5010  143.6630 N   0  0  0  0  0  0  0  0  0  0  0  0
  188.2110  177.2730  144.8720 C   0  0  0  0  0  0  0  0  0  0  0  0
  189.7900  174.4970  145.7510 C   0  0  0  0  0  2  0  0  0  0  0  0
  186.0540  177.0050  146.6180 C   0  0  0  0  0  3  0  0  0  0  0  0
  190.4560  176.7930  143.5650 C   0  0  0  0  0  0  0  0  0  0  0  0
  191.5140  177.4930  142.9230 N   0  0  0  0  0  1  0  0  0  0  0  0
  185.8950  177.7540  145.4520 C   0  0  0  0  0  0  0  0  0  0  0  0
  189.2950  177.5440  143.9650 N   0  0  0  0  0  2  0  0  0  0  0  0
  188.3260  176.5270  146.0760 C   0  0  0  0  0  0  0  0  0  0  0  0
  189.5490  174.6230  144.2520 C   0  0  0  0  0  2  0  0  0  0  0  0
  189.5720  175.8080  146.5040 C   0  0  2  0  0  3  0  0  0  0  0  0
  187.2450  176.4140  146.8950 N   0  0  0  0  0  0  0  0  0  0  0  0
  186.9930  177.9020  144.6010 C   0  0  0  0  0  3  0  0  0  0  0  0
  184.6060  178.4660  145.1680 C   0  0  0  0  0  0  0  0  0  0  0  0
  184.8180  179.8300  145.0780 F   0  0  0  0  0  0  0  0  0  0  0  0
  184.0620  178.0230  143.9750 F   0  0  0  0  0  0  0  0  0  0  0  0
  183.7110  178.2150  146.1930 F   0  0  0  0  0  0  0  0  0  0  0  0
  190.8180  176.6820  146.5800 C   0  0  0  0  0  2  0  0  0  0  0  0
  192.0000  175.8530  146.7240 N   0  0  0  0  0  2  0  0  0  0  0  0
  193.1630  176.1320  145.9550 C   0  0  0  0  0  2  0  0  0  0  0  0
  194.1810  176.8090  146.4960 C   0  0  0  0  0  2  0  0  0  0  0  0
  194.5350  175.8120  146.5140 C   0  0  0  0  0  2  0  0  0  0  0  0
  195.4280  175.1090  145.4500 C   0  0  0  0  0  0  0  0  0  0  0  0
  195.9010  175.7550  144.5290 O   0  0  0  0  0  0  0  0  0  0  0  0
  196.9900  173.3390  146.1760 C   0  0  0  0  0  1  0  0  0  0  0  0
  195.6520  173.6340  145.5250 C   0  0  0  0  0  2  0  0  0  0  0  0
  1 10  1  0  0  0  0
  2  9  1  0  0  0  0
  3 11  1  0  0  0  0
  4 12  1  0  0  0  0
  5  1  2  0  0  0  0
  5  8  1  0  0  0  0
  6  5  1  0  0  0  0
  7  4  2  0  0  0  0
  8  2  1  0  0  0  0
  9 11  1  0  0  0  0
  9 12  2  0  0  0  0
 10  3  1  0  0  0  0
 11 18  1  6  0  0  0
 13  2  2  0  0  0  0
 13  7  1  0  0  0  0
 14  7  1  0  0  0  0
 14 17  1  0  0  0  0
 15 14  1  0  0  0  0
 16 14  1  0  0  0  0
 18 19  1  0  0  0  0
 20 21  1  0  0  0  0
 20 19  1  0  0  0  0
 21 22  1  0  0  0  0
 23 26  1  0  0  0  0
 23 22  1  0  0  0  0
 24 23  2  0  0  0  0
 26 25  1  0  0  0  0
M  END
>  <MODEL>
1

>  <REMARK>
 VINA RESULT:      -7.3      0.000      0.000
  Name = 
  7 active torsions:
  status: ('A' for Active; 'I' for Inactive)
    1  A    between atoms: C_1  and  C_13
    2  A    between atoms: N_2  and  C_3
    3  A    between atoms: N_2  and  C_18
    4  A    between atoms: C_3  and  C_22
    5  A    between atoms: C_8  and  C_15
    6  A    between atoms: C_8  and  C_21
    7  A    between atoms: C_15  and  C_18
                            x       y       z     vdW  Elec       q    Type
                         _______ _______ _______ _____ _____    ______ ____

>  <TORSDO>
F 7

$$$$
=
 OpenBabel11072408343D

 26 27  0  0  1  0  0  0  0  0999 V2000
  189.9840  173.9310  144.2410 N   0  0  0  0  0  0  0  0  0  0  0  0
  188.0670  176.3970  144.7710 C   0  0  0  0  0  0  0  0  0  0  0  0
  190.5220  174.8970  146.4120 C   0  0  0  0  0  2  0  0  0  0  0  0
  187.0580  177.8540  146.9240 C   0  0  0  0  0  3  0  0  0  0  0  0
  189.5360  174.7410  143.3290 C   0  0  0  0  0  0  0  0  0  0  0  0
  189.9810  174.5630  141.9910 N   0  0  0  0  0  1  0  0  0  0  0  0
  186.2130  177.5420  145.8590 C   0  0  0  0  0  0  0  0  0  0  0  0
  188.5240  175.7350  143.5780 N   0  0  0  0  0  2  0  0  0  0  0  0
  188.8900  176.7460  145.8740 C   0  0  0  0  0  0  0  0  0  0  0  0
  189.6160  173.9420  145.6440 C   0  0  0  0  0  2  0  0  0  0  0  0
  190.3340  176.3570  146.0030 C   0  0  2  0  0  3  0  0  0  0  0  0
  188.3550  177.4500  146.9090 N   0  0  0  0  0  0  0  0  0  0  0  0
  186.7390  176.8360  144.7760 C   0  0  0  0  0  3  0  0  0  0  0  0
  184.7970  178.0390  145.8340 C   0  0  0  0  0  0  0  0  0  0  0  0
  184.2770  177.9480  144.5550 F   0  0  0  0  0  0  0  0  0  0  0  0
  184.0080  177.2890  146.6870 F   0  0  0  0  0  0  0  0  0  0  0  0
  184.7710  179.3610  146.2380 F   0  0  0  0  0  0  0  0  0  0  0  0
  191.2150  176.7800  144.8330 C   0  0  0  0  0  2  0  0  0  0  0  0
  192.4840  176.0790  144.8870 N   0  0  0  0  0  2  0  0  0  0  0  0
  193.6570  176.7630  145.3120 C   0  0  0  0  0  2  0  0  0  0  0  0
  194.0250  176.7340  146.5970 C   0  0  0  0  0  2  0  0  0  0  0  0
  194.6910  176.0410  146.1530 C   0  0  0  0  0  2  0  0  0  0  0  0
  195.6200  175.1570  145.2700 C   0  0  0  0  0  0  0  0  0  0  0  0
  196.2590  175.6640  144.3620 O   0  0  0  0  0  0  0  0  0  0  0  0
  196.9570  173.3150  146.2280 C   0  0  0  0  0  1  0  0  0  0  0  0
  195.6790  173.6820  145.4980 C   0  0  0  0  0  2  0  0  0  0  0  0
  1 10  1  0  0  0  0
  2 13  2  0  0  0  0
  2  9  1  0  0  0  0
  5  8  1  0  0  0  0
  5  1  2  0  0  0  0
  6  5  1  0  0  0  0
  7  4  2  0  0  0  0
  8  2  1  0  0  0  0
  9 11  1  0  0  0  0
  9 12  2  0  0  0  0
 10  3  1  0  0  0  0
 11 18  1  6  0  0  0
 11  3  1  0  0  0  0
 12  4  1  0  0  0  0
 13  7  1  0  0  0  0
 14  7  1  0  0  0  0
 14 17  1  0  0  0  0
 14 16  1  0  0  0  0
 15 14  1  0  0  0  0
 18 19  1  0  0  0  0
 19 20  1  0  0  0  0
 20 21  1  0  0  0  0
 22 21  1  0  0  0  0
 23 26  1  0  0  0  0
 23 22  1  0  0  0  0
 24 23  2  0  0  0  0
 26 25  1  0  0  0  0
M  END
>  <MODEL>
2

>  <REMARK>
 VINA RESULT:      -7.0      1.145      1.508
  Name = 
  7 active torsions:
  status: ('A' for Active; 'I' for Inactive)
    1  A    between atoms: C_1  and  C_13
    2  A    between atoms: N_2  and  C_3
    3  A    between atoms: N_2  and  C_18
    4  A    between atoms: C_3  and  C_22
    5  A    between atoms: C_8  and  C_15
    6  A    between atoms: C_8  and  C_21
    7  A    between atoms: C_15  and  C_18
                            x       y       z     vdW  Elec       q    Type
                         _______ _______ _______ _____ _____    ______ ____

>  <TORSDO>
F 7

$$$$
=
 OpenBabel11072408343D

 26 27  0  0  1  0  0  0  0  0999 V2000
  190.9470  177.3500  145.0740 N   0  0  0  0  0  0  0  0  0  0  0  0
  187.7840  177.2700  144.9000 C   0  0  0  0  0  0  0  0  0  0  0  0
  190.2980  176.3990  142.9270 C   0  0  0  0  0  2  0  0  0  0  0  0
  185.7850  177.1940  142.9580 C   0  0  0  0  0  3  0  0  0  0  0  0
  190.1460  177.1440  146.0770 C   0  0  0  0  0  0  0  0  0  0  0  0
  190.7170  176.8670  147.3490 N   0  0  0  0  0  1  0  0  0  0  0  0
  185.6120  178.0050  144.0800 C   0  0  0  0  0  0  0  0  0  0  0  0
  188.7170  177.2970  145.9960 N   0  0  0  0  0  2  0  0  0  0  0  0
  187.9110  176.4540  143.7450 C   0  0  0  0  0  0  0  0  0  0  0  0
  190.5470  177.6770  143.7180 C   0  0  0  0  0  2  0  0  0  0  0  0
  189.1060  175.5970  143.4460 C   0  0  2  0  0  3  0  0  0  0  0  0
  186.9150  176.4540  142.8160 N   0  0  0  0  0  0  0  0  0  0  0  0
  186.6090  178.0110  145.0580 C   0  0  0  0  0  3  0  0  0  0  0  0
  184.3400  178.7750  144.2800 C   0  0  0  0  0  0  0  0  0  0  0  0
  183.7640  178.4470  145.4950 F   0  0  0  0  0  0  0  0  0  0  0  0
  184.5930  180.1360  144.2630 F   0  0  0  0  0  0  0  0  0  0  0  0
  183.4550  178.4670  143.2630 F   0  0  0  0  0  0  0  0  0  0  0  0
  189.4710  174.6070  144.5460 C   0  0  0  0  0  2  0  0  0  0  0  0
  190.6830  173.8940  144.1920 N   0  0  0  0  0  0  0  0  0  0  0  0
  191.8090  173.9270  145.0610 C   0  0  0  0  0  3  0  0  0  0  0  0
  192.7840  173.0210  144.9350 C   0  0  0  0  0  2  0  0  0  0  0  0
  193.2100  173.8810  144.4870 C   0  0  0  0  0  2  0  0  0  0  0  0
  193.9320  175.2510  144.6470 C   0  0  0  0  0  0  0  0  0  0  0  0
  193.8670  176.0810  143.7540 O   0  0  0  0  0  0  0  0  0  0  0  0
  194.2330  176.7470  146.5890 C   0  0  0  0  0  1  0  0  0  0  0  0
  194.7540  175.5210  145.8650 C   0  0  0  0  0  2  0  0  0  0  0  0
  1  5  2  0  0  0  0
  2 13  1  0  0  0  0
  2  8  1  0  0  0  0
  3 11  1  0  0  0  0
  3 10  1  0  0  0  0
  4  7  1  0  0  0  0
  5  6  1  0  0  0  0
  7 14  1  0  0  0  0
  7 13  2  0  0  0  0
  8  5  1  0  0  0  0
  9  2  2  0  0  0  0
 10  1  1  0  0  0  0
 11  9  1  0  0  0  0
 11 18  1  1  0  0  0
 12  4  2  0  0  0  0
 12  9  1  0  0  0  0
 14 15  1  0  0  0  0
 16 14  1  0  0  0  0
 17 14  1  0  0  0  0
 19 18  1  0  0  0  0
 19 20  2  0  0  0  0
 21 20  1  0  0  0  0
 22 23  1  0  0  0  0
 22 21  1  0  0  0  0
 23 26  1  0  0  0  0
 24 23  2  0  0  0  0
 26 25  1  0  0  0  0
M  END
>  <MODEL>
3

>  <REMARK>
 VINA RESULT:      -6.9      1.617      2.876
  Name = 
  7 active torsions:
  status: ('A' for Active; 'I' for Inactive)
    1  A    between atoms: C_1  and  C_13
    2  A    between atoms: N_2  and  C_3
    3  A    between atoms: N_2  and  C_18
    4  A    between atoms: C_3  and  C_22
    5  A    between atoms: C_8  and  C_15
    6  A    between atoms: C_8  and  C_21
    7  A    between atoms: C_15  and  C_18
                            x       y       z     vdW  Elec       q    Type
                         _______ _______ _______ _____ _____    ______ ____

>  <TORSDO>
F 7

$$$$
=
 OpenBabel11072408343D

 26 27  0  0  1  0  0  0  0  0999 V2000
  189.1390  176.3790  142.8160 N   0  0  0  0  0  0  0  0  0  0  0  0
  191.3960  175.0690  144.6140 C   0  0  0  0  0  0  0  0  0  0  0  0
  189.6070  177.8550  144.6970 C   0  0  0  0  0  2  0  0  0  0  0  0
  193.3300  175.8510  146.4640 C   0  0  0  0  0  3  0  0  0  0  0  0
  189.2930  175.1040  143.0150 C   0  0  0  0  0  0  0  0  0  0  0  0
  188.3460  174.2130  142.4410 N   0  0  0  0  0  1  0  0  0  0  0  0
  193.6510  174.8810  145.5140 C   0  0  0  0  0  0  0  0  0  0  0  0
  190.4350  174.5370  143.6850 N   0  0  0  0  0  2  0  0  0  0  0  0
  191.1140  176.0460  145.6050 C   0  0  0  0  0  0  0  0  0  0  0  0
  190.0210  177.4270  143.2940 C   0  0  0  0  0  2  0  0  0  0  0  0
  189.7980  176.7550  145.7380 C   0  0  2  0  0  3  0  0  0  0  0  0
  192.0900  176.4060  146.4840 N   0  0  0  0  0  0  0  0  0  0  0  0
  192.6640  174.4800  144.6110 C   0  0  0  0  0  3  0  0  0  0  0  0
  194.9950  174.2140  145.5250 C   0  0  0  0  0  0  0  0  0  0  0  0
  194.8640  172.8720  145.8350 F   0  0  0  0  0  0  0  0  0  0  0  0
  195.5980  174.3250  144.2840 F   0  0  0  0  0  0  0  0  0  0  0  0
  195.7980  174.8200  146.4740 F   0  0  0  0  0  0  0  0  0  0  0  0
  188.5910  175.8350  145.8800 C   0  0  0  0  0  2  0  0  0  0  0  0
  187.6250  176.4180  146.7930 N   0  0  0  0  0  0  0  0  0  0  0  0
  186.4110  176.9630  146.2920 C   0  0  0  0  0  3  0  0  0  0  0  0
  185.5380  177.5400  147.1250 C   0  0  0  0  0  2  0  0  0  0  0  0
  186.0030  178.3740  146.6680 C   0  0  0  0  0  2  0  0  0  0  0  0
  185.0340  178.9820  145.6120 C   0  0  0  0  0  0  0  0  0  0  0  0
  183.8310  178.8010  145.7160 O   0  0  0  0  0  0  0  0  0  0  0  0
  185.3350  178.9580  143.1610 C   0  0  0  0  0  1  0  0  0  0  0  0
  185.5830  179.7310  144.4420 C   0  0  0  0  0  2  0  0  0  0  0  0
  1  5  2  0  0  0  0
  1 10  1  0  0  0  0
  2  9  1  0  0  0  0
  3 11  1  0  0  0  0
  4 12  1  0  0  0  0
  5  8  1  0  0  0  0
  6  5  1  0  0  0  0
  7 14  1  0  0  0  0
  7  4  2  0  0  0  0
  8  2  1  0  0  0  0
  9 11  1  0  0  0  0
  9 12  2  0  0  0  0
 10  3  1  0  0  0  0
 11 18  1  6  0  0  0
 13  2  2  0  0  0  0
 13  7  1  0  0  0  0
 14 15  1  0  0  0  0
 14 17  1  0  0  0  0
 16 14  1  0  0  0  0
 18 19  1  0  0  0  0
 20 19  2  0  0  0  0
 20 21  1  0  0  0  0
 22 21  1  0  0  0  0
 23 24  2  0  0  0  0
 23 22  1  0  0  0  0
 25 26  1  0  0  0  0
 26 23  1  0  0  0  0
M  END
>  <MODEL>
4

>  <REMARK>
 VINA RESULT:      -6.9      4.972      8.036
  Name = 
  7 active torsions:
  status: ('A' for Active; 'I' for Inactive)
    1  A    between atoms: C_1  and  C_13
    2  A    between atoms: N_2  and  C_3
    3  A    between atoms: N_2  and  C_18
    4  A    between atoms: C_3  and  C_22
    5  A    between atoms: C_8  and  C_15
    6  A    between atoms: C_8  and  C_21
    7  A    between atoms: C_15  and  C_18
                            x       y       z     vdW  Elec       q    Type
                         _______ _______ _______ _____ _____    ______ ____

>  <TORSDO>
F 7

$$$$
=
 OpenBabel11072408343D

 26 27  0  0  1  0  0  0  0  0999 V2000
  187.4580  175.8790  141.4600 N   0  0  0  0  0  0  0  0  0  0  0  0
  187.2090  177.5390  144.1480 C   0  0  0  0  0  0  0  0  0  0  0  0
  188.9190  174.8870  143.1400 C   0  0  0  0  0  2  0  0  0  0  0  0
  187.6190  177.1890  146.8830 C   0  0  0  0  0  3  0  0  0  0  0  0
  187.2610  177.1610  141.5330 C   0  0  0  0  0  0  0  0  0  0  0  0
  187.2140  177.9060  140.3230 N   0  0  0  0  0  1  0  0  0  0  0  0
  186.4970  177.8960  146.4490 C   0  0  0  0  0  0  0  0  0  0  0  0
  186.9700  177.8510  142.7630 N   0  0  0  0  0  2  0  0  0  0  0  0
  188.3400  176.8340  144.6380 C   0  0  0  0  0  0  0  0  0  0  0  0
  187.5030  174.9590  142.5820 C   0  0  0  0  0  2  0  0  0  0  0  0
  189.3830  176.2020  143.7630 C   0  0  2  0  0  3  0  0  0  0  0  0
  188.4970  176.6780  145.9820 N   0  0  0  0  0  0  0  0  0  0  0  0
  186.3200  178.0870  145.0770 C   0  0  0  0  0  3  0  0  0  0  0  0
  185.5570  178.5220  147.4360 C   0  0  0  0  0  0  0  0  0  0  0  0
  185.9330  179.8270  147.7000 F   0  0  0  0  0  0  0  0  0  0  0  0
  184.2660  178.5250  146.9370 F   0  0  0  0  0  0  0  0  0  0  0  0
  185.5840  177.7980  148.6140 F   0  0  0  0  0  0  0  0  0  0  0  0
  190.0380  177.1510  142.7670 C   0  0  0  0  0  2  0  0  0  0  0  0
  191.4270  177.3680  143.1260 N   0  0  0  0  0  0  0  0  0  0  0  0
  192.2670  176.2600  143.4250 C   0  0  0  0  0  3  0  0  0  0  0  0
  193.5470  176.4560  143.7590 C   0  0  0  0  0  2  0  0  0  0  0  0
  193.0940  176.2580  144.6950 C   0  0  0  0  0  2  0  0  0  0  0  0
  192.3650  175.4980  145.8420 C   0  0  0  0  0  0  0  0  0  0  0  0
  192.0330  174.3340  145.6860 O   0  0  0  0  0  0  0  0  0  0  0  0
  191.1790  175.3240  148.0010 C   0  0  0  0  0  1  0  0  0  0  0  0
  192.0180  176.2150  147.1060 C   0  0  0  0  0  2  0  0  0  0  0  0
  1  5  2  0  0  0  0
  1 10  1  0  0  0  0
  2  9  2  0  0  0  0
  2 13  1  0  0  0  0
  3 11  1  0  0  0  0
  5  8  1  0  0  0  0
  6  5  1  0  0  0  0
  7  4  1  0  0  0  0
  7 14  1  0  0  0  0
  8  2  1  0  0  0  0
  9 12  1  0  0  0  0
 10  3  1  0  0  0  0
 11 18  1  6  0  0  0
 11  9  1  0  0  0  0
 12  4  2  0  0  0  0
 13  7  2  0  0  0  0
 14 15  1  0  0  0  0
 14 17  1  0  0  0  0
 16 14  1  0  0  0  0
 18 19  1  0  0  0  0
 19 20  2  0  0  0  0
 20 21  1  0  0  0  0
 21 22  1  0  0  0  0
 22 23  1  0  0  0  0
 23 26  1  0  0  0  0
 24 23  2  0  0  0  0
 26 25  1  0  0  0  0
M  END
>  <MODEL>
5

>  <REMARK>
 VINA RESULT:      -6.8      2.333      3.227
  Name = 
  7 active torsions:
  status: ('A' for Active; 'I' for Inactive)
    1  A    between atoms: C_1  and  C_13
    2  A    between atoms: N_2  and  C_3
    3  A    between atoms: N_2  and  C_18
    4  A    between atoms: C_3  and  C_22
    5  A    between atoms: C_8  and  C_15
    6  A    between atoms: C_8  and  C_21
    7  A    between atoms: C_15  and  C_18
                            x       y       z     vdW  Elec       q    Type
                         _______ _______ _______ _____ _____    ______ ____

>  <TORSDO>
F 7

$$$$
=
 OpenBabel11072408343D

 26 27  0  0  1  0  0  0  0  0999 V2000
  191.5500  176.5500  146.0540 N   0  0  0  0  0  0  0  0  0  0  0  0
  188.4050  176.8280  146.3260 C   0  0  0  0  0  0  0  0  0  0  0  0
  190.5290  176.1310  143.8820 C   0  0  0  0  0  2  0  0  0  0  0  0
  186.1920  177.3560  144.7140 C   0  0  0  0  0  3  0  0  0  0  0  0
  190.8560  176.2250  147.1040 C   0  0  0  0  0  0  0  0  0  0  0  0
  191.5370  175.6360  148.2040 N   0  0  0  0  0  1  0  0  0  0  0  0
  186.2620  177.9320  145.9830 C   0  0  0  0  0  0  0  0  0  0  0  0
  189.4590  176.5350  147.2600 N   0  0  0  0  0  2  0  0  0  0  0  0
  188.2850  176.2580  145.0310 C   0  0  0  0  0  0  0  0  0  0  0  0
  191.0330  177.1870  144.8570 C   0  0  0  0  0  2  0  0  0  0  0  0
  189.3160  175.3650  144.4050 C   0  0  2  0  0  3  0  0  0  0  0  0
  187.1920  176.5500  144.2720 N   0  0  0  0  0  0  0  0  0  0  0  0
  187.3630  177.6370  146.7890 C   0  0  0  0  0  3  0  0  0  0  0  0
  185.1320  178.7700  146.5070 C   0  0  0  0  0  0  0  0  0  0  0  0
  184.2130  177.9780  147.1710 F   0  0  0  0  0  0  0  0  0  0  0  0
  185.6090  179.7260  147.3860 F   0  0  0  0  0  0  0  0  0  0  0  0
  184.5030  179.4010  145.4490 F   0  0  0  0  0  0  0  0  0  0  0  0
  189.6810  174.1380  145.2330 C   0  0  0  0  0  2  0  0  0  0  0  0
  190.4450  173.2040  144.4270 N   0  0  0  0  0  2  0  0  0  0  0  0
  189.7970  172.0930  143.8190 C   0  0  0  0  0  2  0  0  0  0  0  0
  188.9240  172.2860  142.8240 C   0  0  2  0  0  3  0  0  0  0  0  0
  189.7890  171.9560  142.3090 C   0  0  0  0  0  1  0  0  0  0  0  0
  188.7570  172.9250  141.6600 C   0  0  0  0  0  0  0  0  0  0  0  0
  187.5620  172.6890  141.7470 O   0  0  0  0  0  0  0  0  0  0  0  0
  188.1890  175.2040  140.8980 C   0  0  0  0  0  1  0  0  0  0  0  0
  189.2350  174.1050  140.8800 C   0  0  0  0  0  2  0  0  0  0  0  0
  1  5  2  0  0  0  0
  2 13  1  0  0  0  0
  2  8  1  0  0  0  0
  3 11  1  0  0  0  0
  3 10  1  0  0  0  0
  4  7  1  0  0  0  0
  5  8  1  0  0  0  0
  5  6  1  0  0  0  0
  7 14  1  0  0  0  0
  7 13  2  0  0  0  0
  9  2  2  0  0  0  0
 10  1  1  0  0  0  0
 11  9  1  0  0  0  0
 11 18  1  1  0  0  0
 12  4  2  0  0  0  0
 12  9  1  0  0  0  0
 14 15  1  0  0  0  0
 14 16  1  0  0  0  0
 17 14  1  0  0  0  0
 19 18  1  0  0  0  0
 20 19  1  0  0  0  0
 21 22  1  6  0  0  0
 21 20  1  0  0  0  0
 23 24  2  0  0  0  0
 23 21  1  0  0  0  0
 26 25  1  0  0  0  0
 26 23  1  0  0  0  0
M  END
>  <MODEL>
6

>  <REMARK>
 VINA RESULT:      -6.6      3.203      4.920
  Name = 
  7 active torsions:
  status: ('A' for Active; 'I' for Inactive)
    1  A    between atoms: C_1  and  C_13
    2  A    between atoms: N_2  and  C_3
    3  A    between atoms: N_2  and  C_18
    4  A    between atoms: C_3  and  C_22
    5  A    between atoms: C_8  and  C_15
    6  A    between atoms: C_8  and  C_21
    7  A    between atoms: C_15  and  C_18
                            x       y       z     vdW  Elec       q    Type
                         _______ _______ _______ _____ _____    ______ ____

>  <TORSDO>
F 7

$$$$
=
 OpenBabel11072408343D

 26 27  0  0  1  0  0  0  0  0999 V2000
  191.3010  177.0310  145.5580 N   0  0  0  0  0  0  0  0  0  0  0  0
  188.1660  176.9310  146.0110 C   0  0  0  0  0  0  0  0  0  0  0  0
  190.2060  176.6260  143.4190 C   0  0  0  0  0  2  0  0  0  0  0  0
  185.8170  177.2940  144.5540 C   0  0  0  0  0  3  0  0  0  0  0  0
  190.7110  176.5680  146.6190 C   0  0  0  0  0  0  0  0  0  0  0  0
  191.5170  175.9980  147.6430 N   0  0  0  0  0  1  0  0  0  0  0  0
  185.8970  177.8000  145.8520 C   0  0  0  0  0  0  0  0  0  0  0  0
  189.3000  176.7060  146.8680 N   0  0  0  0  0  2  0  0  0  0  0  0
  188.0340  176.4270  144.6900 C   0  0  0  0  0  0  0  0  0  0  0  0
  190.6460  177.6740  144.4330 C   0  0  0  0  0  2  0  0  0  0  0  0
  189.1190  175.6960  143.9550 C   0  0  2  0  0  3  0  0  0  0  0  0
  186.8720  176.6360  144.0100 N   0  0  0  0  0  0  0  0  0  0  0  0
  187.0700  177.5860  146.5790 C   0  0  0  0  0  3  0  0  0  0  0  0
  184.7140  178.4700  146.4880 C   0  0  0  0  0  0  0  0  0  0  0  0
  184.1670  179.4030  145.6240 F   0  0  0  0  0  0  0  0  0  0  0  0
  183.7430  177.5360  146.8030 F   0  0  0  0  0  0  0  0  0  0  0  0
  185.1200  179.1100  147.6450 F   0  0  0  0  0  0  0  0  0  0  0  0
  189.6670  174.4730  144.6810 C   0  0  0  0  0  2  0  0  0  0  0  0
  190.8300  173.9590  143.9820 N   0  0  0  0  0  0  0  0  0  0  0  0
  192.0330  173.7030  144.6960 C   0  0  0  0  0  3  0  0  0  0  0  0
  193.1370  173.3280  144.0400 C   0  0  0  0  0  2  0  0  0  0  0  0
  193.3300  174.3480  144.2480 C   0  0  0  0  0  2  0  0  0  0  0  0
  194.4610  174.1280  145.2960 C   0  0  0  0  0  0  0  0  0  0  0  0
  194.9270  173.0130  145.4630 O   0  0  0  0  0  0  0  0  0  0  0  0
  194.7390  176.5800  145.3940 C   0  0  0  0  0  1  0  0  0  0  0  0
  194.9270  175.2710  146.1360 C   0  0  0  0  0  2  0  0  0  0  0  0
  1  5  2  0  0  0  0
  2 13  1  0  0  0  0
  2  8  1  0  0  0  0
  3 11  1  0  0  0  0
  3 10  1  0  0  0  0
  4  7  1  0  0  0  0
  5  8  1  0  0  0  0
  5  6  1  0  0  0  0
  7 14  1  0  0  0  0
  7 13  2  0  0  0  0
  9  2  2  0  0  0  0
 10  1  1  0  0  0  0
 11 18  1  1  0  0  0
 11  9  1  0  0  0  0
 12  4  2  0  0  0  0
 12  9  1  0  0  0  0
 14 16  1  0  0  0  0
 14 17  1  0  0  0  0
 15 14  1  0  0  0  0
 19 18  1  0  0  0  0
 19 20  2  0  0  0  0
 21 22  1  0  0  0  0
 21 20  1  0  0  0  0
 22 23  1  0  0  0  0
 23 24  2  0  0  0  0
 23 26  1  0  0  0  0
 25 26  1  0  0  0  0
M  END
>  <MODEL>
7

>  <REMARK>
 VINA RESULT:      -6.6      1.616      2.797
  Name = 
  7 active torsions:
  status: ('A' for Active; 'I' for Inactive)
    1  A    between atoms: C_1  and  C_13
    2  A    between atoms: N_2  and  C_3
    3  A    between atoms: N_2  and  C_18
    4  A    between atoms: C_3  and  C_22
    5  A    between atoms: C_8  and  C_15
    6  A    between atoms: C_8  and  C_21
    7  A    between atoms: C_15  and  C_18
                            x       y       z     vdW  Elec       q    Type
                         _______ _______ _______ _____ _____    ______ ____

>  <TORSDO>
F 7

$$$$
=
 OpenBabel11072408343D

 26 27  0  0  1  0  0  0  0  0999 V2000
  190.1700  176.8450  142.8480 N   0  0  0  0  0  0  0  0  0  0  0  0
  187.7480  176.9100  144.8900 C   0  0  0  0  0  0  0  0  0  0  0  0
  188.1200  177.3420  141.6270 C   0  0  0  0  0  2  0  0  0  0  0  0
  185.1920  178.0060  145.0890 C   0  0  0  0  0  3  0  0  0  0  0  0
  190.0600  176.0970  143.9040 C   0  0  0  0  0  0  0  0  0  0  0  0
  191.0650  175.1210  144.1460 N   0  0  0  0  0  1  0  0  0  0  0  0
  186.0210  178.0050  146.2120 C   0  0  0  0  0  0  0  0  0  0  0  0
  189.0420  176.2800  144.9050 N   0  0  0  0  0  2  0  0  0  0  0  0
  186.8650  176.9270  143.7780 C   0  0  0  0  0  0  0  0  0  0  0  0
  189.2620  177.9090  142.4610 C   0  0  0  0  0  2  0  0  0  0  0  0
  187.2150  176.3980  142.4170 C   0  0  2  0  0  3  0  0  0  0  0  0
  185.6290  177.4810  143.9160 N   0  0  0  0  0  0  0  0  0  0  0  0
  187.2870  177.4270  146.1040 C   0  0  0  0  0  3  0  0  0  0  0  0
  185.5250  178.5220  147.5300 C   0  0  0  0  0  0  0  0  0  0  0  0
  185.8960  177.6680  148.5540 F   0  0  0  0  0  0  0  0  0  0  0  0
  186.0530  179.7750  147.7860 F   0  0  0  0  0  0  0  0  0  0  0  0
  184.1450  178.6110  147.4960 F   0  0  0  0  0  0  0  0  0  0  0  0
  187.6830  174.9480  142.3980 C   0  0  0  0  0  2  0  0  0  0  0  0
  188.2270  174.6170  141.0950 N   0  0  0  0  0  2  0  0  0  0  0  0
  189.4090  173.8320  140.9950 C   0  0  0  0  0  2  0  0  0  0  0  0
  189.5910  172.7840  141.8060 C   0  0  1  0  0  3  0  0  0  0  0  0
  189.3090  172.3230  140.8950 C   0  0  0  0  0  1  0  0  0  0  0  0
  189.9010  171.6330  142.1590 C   0  0  2  0  0  3  0  0  0  0  0  0
  189.3730  171.7990  143.2470 O   0  0  0  0  0  1  0  0  0  0  0  0
  190.8290  169.4320  141.5320 C   0  0  0  0  0  1  0  0  0  0  0  0
  191.1500  170.8220  142.0470 C   0  0  0  0  0  2  0  0  0  0  0  0
  1  5  2  0  0  0  0
  2  8  1  0  0  0  0
  2 13  1  0  0  0  0
  3 11  1  0  0  0  0
  3 10  1  0  0  0  0
  4  7  1  0  0  0  0
  5  6  1  0  0  0  0
  5  8  1  0  0  0  0
  7 14  1  0  0  0  0
  9 12  1  0  0  0  0
  9  2  2  0  0  0  0
 10  1  1  0  0  0  0
 11 18  1  1  0  0  0
 11  9  1  0  0  0  0
 12  4  2  0  0  0  0
 13  7  2  0  0  0  0
 14 16  1  0  0  0  0
 14 15  1  0  0  0  0
 17 14  1  0  0  0  0
 19 18  1  0  0  0  0
 20 19  1  0  0  0  0
 20 21  1  0  0  0  0
 21 22  1  6  0  0  0
 21 23  1  0  0  0  0
 23 24  1  1  0  0  0
 25 26  1  0  0  0  0
 26 23  1  0  0  0  0
M  END
>  <MODEL>
8

>  <REMARK>
 VINA RESULT:      -6.4      3.555      4.939
  Name = 
  7 active torsions:
  status: ('A' for Active; 'I' for Inactive)
    1  A    between atoms: C_1  and  C_13
    2  A    between atoms: N_2  and  C_3
    3  A    between atoms: N_2  and  C_18
    4  A    between atoms: C_3  and  C_22
    5  A    between atoms: C_8  and  C_15
    6  A    between atoms: C_8  and  C_21
    7  A    between atoms: C_15  and  C_18
                            x       y       z     vdW  Elec       q    Type
                         _______ _______ _______ _____ _____    ______ ____

>  <TORSDO>
F 7

$$$$
=
 OpenBabel11072408343D

 26 27  0  0  1  0  0  0  0  0999 V2000
  190.2960  174.3960  143.3100 N   0  0  0  0  0  0  0  0  0  0  0  0
  192.8240  174.1090  145.1980 C   0  0  0  0  0  0  0  0  0  0  0  0
  190.9310  176.6040  144.1200 C   0  0  0  0  0  2  0  0  0  0  0  0
  194.9400  175.6670  146.1330 C   0  0  0  0  0  3  0  0  0  0  0  0
  190.5340  173.3880  144.0950 C   0  0  0  0  0  0  0  0  0  0  0  0
  189.5650  172.3520  144.1750 N   0  0  0  0  0  1  0  0  0  0  0  0
  195.1820  174.3440  145.7590 C   0  0  0  0  0  0  0  0  0  0  0  0
  191.7780  173.2060  144.7970 N   0  0  0  0  0  2  0  0  0  0  0  0
  192.6250  175.4570  145.5980 C   0  0  0  0  0  0  0  0  0  0  0  0
  191.1810  175.5220  143.0770 C   0  0  0  0  0  2  0  0  0  0  0  0
  191.3050  176.1680  145.5350 C   0  0  2  0  0  3  0  0  0  0  0  0
  193.6880  176.1850  146.0390 N   0  0  0  0  0  0  0  0  0  0  0  0
  194.1080  173.5680  145.3190 C   0  0  0  0  0  3  0  0  0  0  0  0
  196.5460  173.7410  145.9200 C   0  0  0  0  0  0  0  0  0  0  0  0
  196.9430  173.7930  147.2450 F   0  0  0  0  0  0  0  0  0  0  0  0
  196.5400  172.4190  145.5120 F   0  0  0  0  0  0  0  0  0  0  0  0
  197.4520  174.4470  145.1500 F   0  0  0  0  0  0  0  0  0  0  0  0
  190.1710  175.4710  146.2780 C   0  0  0  0  0  2  0  0  0  0  0  0
  188.8920  176.0060  145.8490 N   0  0  0  0  0  2  0  0  0  0  0  0
  187.9670  176.4970  146.8120 C   0  0  0  0  0  2  0  0  0  0  0  0
  187.1840  177.5410  146.5210 C   0  0  2  0  0  3  0  0  0  0  0  0
  186.5200  176.7220  146.4250 C   0  0  0  0  0  1  0  0  0  0  0  0
  186.2550  178.2150  146.0720 C   0  0  0  0  0  0  0  0  0  0  0  0
  185.9470  179.0030  146.9520 O   0  0  0  0  0  0  0  0  0  0  0  0
  185.1940  179.6420  144.3580 C   0  0  0  0  0  1  0  0  0  0  0  0
  186.3170  178.6650  144.6490 C   0  0  0  0  0  2  0  0  0  0  0  0
  1  5  2  0  0  0  0
  2 13  2  0  0  0  0
  2  9  1  0  0  0  0
  3 11  1  0  0  0  0
  5  6  1  0  0  0  0
  5  8  1  0  0  0  0
  7 14  1  0  0  0  0
  7  4  2  0  0  0  0
  8  2  1  0  0  0  0
  9 12  2  0  0  0  0
 10  1  1  0  0  0  0
 10  3  1  0  0  0  0
 11  9  1  0  0  0  0
 11 18  1  6  0  0  0
 12  4  1  0  0  0  0
 13  7  1  0  0  0  0
 14 15  1  0  0  0  0
 16 14  1  0  0  0  0
 17 14  1  0  0  0  0
 19 18  1  0  0  0  0
 19 20  1  0  0  0  0
 21 22  1  1  0  0  0
 21 20  1  0  0  0  0
 23 21  1  0  0  0  0
 23 24  2  0  0  0  0
 25 26  1  0  0  0  0
 26 23  1  0  0  0  0
M  END
>  <MODEL>
9

>  <REMARK>
 VINA RESULT:      -6.4      5.319      8.407
  Name = 
  7 active torsions:
  status: ('A' for Active; 'I' for Inactive)
    1  A    between atoms: C_1  and  C_13
    2  A    between atoms: N_2  and  C_3
    3  A    between atoms: N_2  and  C_18
    4  A    between atoms: C_3  and  C_22
    5  A    between atoms: C_8  and  C_15
    6  A    between atoms: C_8  and  C_21
    7  A    between atoms: C_15  and  C_18
                            x       y       z     vdW  Elec       q    Type
                         _______ _______ _______ _____ _____    ______ ____

>  <TORSDO>
F 7

$$$$
