=
 OpenBabel11062421003D

 38 41  0  0  1  0  0  0  0  0999 V2000
  187.2190  177.8850  143.0520 N   0  0  0  0  0  2  0  0  0  0  0  0
  188.9750  177.2980  147.1920 O   0  0  0  0  0  0  0  0  0  0  0  0
  189.3690  175.9820  147.4740 C   0  0  0  0  0  2  0  0  0  0  0  0
  191.4260  173.6240  142.8110 C   0  0  0  0  0  2  0  0  0  0  0  0
  189.6550  173.7030  138.7380 C   0  0  0  0  0  2  0  0  0  0  0  0
  192.9970  175.0800  145.4170 C   0  0  0  0  0  0  0  0  0  0  0  0
  190.6720  174.5890  145.8220 C   0  0  0  0  0  0  0  0  0  0  0  0
  189.5300  173.8300  145.5810 O   0  0  0  0  0  1  0  0  0  0  0  0
  191.3240  172.4470  141.8470 C   0  0  2  0  0  3  0  0  0  0  0  0
  194.3630  174.9930  144.8690 C   0  0  0  0  0  3  0  0  0  0  0  0
  187.5890  177.3260  146.9140 C   0  0  1  0  0  3  0  0  0  0  0  0
  191.0510  172.8920  140.4820 N   0  0  0  0  0  2  0  0  0  0  0  0
  185.9700  177.0850  145.0110 C   0  0  0  0  0  2  0  0  0  0  0  0
  191.9520  173.1670  144.1620 C   0  0  0  0  0  2  0  0  0  0  0  0
  186.4490  178.3040  144.2240 C   0  0  2  0  0  3  0  0  0  0  0  0
  189.8810  173.5920  140.0380 C   0  0  0  0  0  0  0  0  0  0  0  0
  185.4270  177.0270  141.8090 O   0  0  0  0  0  0  0  0  0  0  0  0
  190.6320  175.6580  146.7470 C   0  0  0  0  0  0  0  0  0  0  0  0
  188.5410  174.6640  142.3060 C   0  0  0  0  0  2  0  0  0  0  0  0
  187.7700  176.5880  140.6510 S   0  0  0  0  0  0  0  0  0  0  0  0
  188.9650  174.1880  140.9560 N   0  0  0  0  0  0  0  0  0  0  0  0
  195.1260  176.0260  145.4790 O   0  0  0  0  0  0  0  0  0  0  0  0
  191.7910  176.4160  146.9980 C   0  0  0  0  0  3  0  0  0  0  0  0
  186.6710  177.2010  141.9200 C   0  0  0  0  0  0  0  0  0  0  0  0
  194.2790  176.7220  146.3840 C   0  0  0  0  0  3  0  0  0  0  0  0
  187.6760  174.8770  141.2560 C   0  0  1  0  0  3  0  0  0  0  0  0
  192.9540  176.0910  146.3050 C   0  0  0  0  0  0  0  0  0  0  0  0
  187.1340  176.4390  145.7490 C   0  0  0  0  0  2  0  0  0  0  0  0
  191.8770  174.2880  145.1480 C   0  0  0  0  0  0  0  0  0  0  0  0
  185.5360  180.6060  143.8560 O   0  0  0  0  0  1  0  0  0  0  0  0
  184.1770  178.7830  143.6110 O   0  0  0  0  0  0  0  0  0  0  0  0
  185.3290  179.2330  143.8500 C   0  0  0  0  0  0  0  0  0  0  0  0
  190.3480  171.3940  142.2770 C   0  0  0  0  0  0  0  0  0  0  0  0
  190.4930  170.0960  141.8050 O   0  0  0  0  0  0  0  0  0  0  0  0
  189.3810  171.6750  143.0330 O   0  0  0  0  0  1  0  0  0  0  0  0
  186.6840  177.3170  148.1530 C   0  0  0  0  0  2  0  0  0  0  0  0
  185.9100  179.4770  147.5860 O   0  0  0  0  0  0  0  0  0  0  0  0
  185.6830  178.4310  148.1710 C   0  0  0  0  0  3  0  0  0  0  0  0
  1 15  1  0  0  0  0
  2  3  1  0  0  0  0
  4 14  1  0  0  0  0
  5 16  2  0  0  0  0
  6 27  1  0  0  0  0
  7 18  1  0  0  0  0
  8  7  1  0  0  0  0
  9 33  1  1  0  0  0
  9  4  1  0  0  0  0
 10  6  2  0  0  0  0
 10 22  1  0  0  0  0
 11  2  1  0  0  0  0
 11 36  1  1  0  0  0
 12  9  1  0  0  0  0
 13 28  1  0  0  0  0
 14 29  1  0  0  0  0
 15 32  1  6  0  0  0
 15 13  1  0  0  0  0
 16 12  1  0  0  0  0
 16 21  1  0  0  0  0
 17 24  2  0  0  0  0
 18 23  2  0  0  0  0
 18  3  1  0  0  0  0
 20 26  1  0  0  0  0
 20 24  1  0  0  0  0
 21 26  1  0  0  0  0
 21 19  1  0  0  0  0
 22 25  1  0  0  0  0
 24  1  1  0  0  0  0
 26 19  1  1  0  0  0
 27 25  2  0  0  0  0
 27 23  1  0  0  0  0
 28 11  1  0  0  0  0
 29  6  1  0  0  0  0
 29  7  2  0  0  0  0
 31 32  2  0  0  0  0
 32 30  1  0  0  0  0
 33 35  1  0  0  0  0
 34 33  2  0  0  0  0
 36 38  1  0  0  0  0
 37 38  2  0  0  0  0
M  END
>  <MODEL>
1

>  <REMARK>
 VINA RESULT:      -8.0      0.000      0.000
  Name = 
  4 active torsions:
  status: ('A' for Active; 'I' for Inactive)
    1  A    between atoms: C_11  and  C_16
    2  A    between atoms: C_11  and  C_35
    3  A    between atoms: C_12  and  CA_13
    4  A    between atoms: CA_20  and  C_36
                            x       y       z     vdW  Elec       q    Type
                         _______ _______ _______ _____ _____    ______ ____

>  <TORSDO>
F 4

$$$$
=
 OpenBabel11062421003D

 38 41  0  0  1  0  0  0  0  0999 V2000
  188.4590  177.0430  143.4530 N   0  0  0  0  0  2  0  0  0  0  0  0
  192.2990  176.3930  145.7760 O   0  0  0  0  0  0  0  0  0  0  0  0
  192.9010  175.1440  145.5650 C   0  0  0  0  0  2  0  0  0  0  0  0
  192.1530  173.6090  140.2150 C   0  0  0  0  0  2  0  0  0  0  0  0
  188.3850  173.7530  137.8670 C   0  0  0  0  0  2  0  0  0  0  0  0
  194.7850  175.0710  141.7370 C   0  0  0  0  0  0  0  0  0  0  0  0
  193.1570  174.1530  143.2580 C   0  0  0  0  0  0  0  0  0  0  0  0
  192.1540  173.2340  143.5570 O   0  0  0  0  0  1  0  0  0  0  0  0
  191.6290  172.5260  139.2790 C   0  0  2  0  0  3  0  0  0  0  0  0
  195.6000  175.2710  140.5240 C   0  0  0  0  0  3  0  0  0  0  0  0
  191.0050  176.2080  146.3140 C   0  0  1  0  0  3  0  0  0  0  0  0
  190.5910  173.0390  138.3900 N   0  0  0  0  0  2  0  0  0  0  0  0
  188.6210  175.8650  145.6030 C   0  0  0  0  0  2  0  0  0  0  0  0
  193.3920  173.1300  140.9540 C   0  0  0  0  0  2  0  0  0  0  0  0
  188.4570  177.2150  144.9060 C   0  0  2  0  0  3  0  0  0  0  0  0
  189.3180  173.5650  138.7880 C   0  0  0  0  0  0  0  0  0  0  0  0
  186.3660  176.0070  143.2700 O   0  0  0  0  0  0  0  0  0  0  0  0
  193.5510  175.1100  144.2220 C   0  0  0  0  0  0  0  0  0  0  0  0
  189.4110  174.1790  141.5630 C   0  0  0  0  0  2  0  0  0  0  0  0
  187.6650  176.0840  140.9630 S   0  0  0  0  0  0  0  0  0  0  0  0
  189.0350  173.9080  140.1440 N   0  0  0  0  0  0  0  0  0  0  0  0
  196.4760  176.3600  140.7830 O   0  0  0  0  0  0  0  0  0  0  0  0
  194.5730  176.0300  143.9220 C   0  0  0  0  0  3  0  0  0  0  0  0
  187.4310  176.3810  142.7090 C   0  0  0  0  0  0  0  0  0  0  0  0
  196.2340  176.8140  142.1080 C   0  0  0  0  0  3  0  0  0  0  0  0
  188.0870  174.3350  141.2150 C   0  0  1  0  0  3  0  0  0  0  0  0
  195.1620  175.9750  142.6610 C   0  0  0  0  0  0  0  0  0  0  0  0
  190.0520  175.3650  145.4580 C   0  0  0  0  0  2  0  0  0  0  0  0
  193.7870  174.1260  141.9940 C   0  0  0  0  0  0  0  0  0  0  0  0
  186.6840  178.9520  144.5700 O   0  0  0  0  0  0  0  0  0  0  0  0
  186.7740  177.7730  146.5270 O   0  0  0  0  0  1  0  0  0  0  0  0
  187.2430  177.9670  145.3750 C   0  0  0  0  0  0  0  0  0  0  0  0
  191.1700  171.2850  139.9850 C   0  0  0  0  0  0  0  0  0  0  0  0
  191.0290  170.1050  139.2680 O   0  0  0  0  0  0  0  0  0  0  0  0
  190.8810  171.3050  141.2110 O   0  0  0  0  0  1  0  0  0  0  0  0
  190.9680  175.9300  147.8230 C   0  0  0  0  0  2  0  0  0  0  0  0
  191.1690  177.9250  149.0750 O   0  0  0  0  0  0  0  0  0  0  0  0
  191.7280  176.9340  148.6340 C   0  0  0  0  0  3  0  0  0  0  0  0
  1 15  1  0  0  0  0
  2 11  1  0  0  0  0
  3  2  1  0  0  0  0
  4 14  1  0  0  0  0
  5 16  2  0  0  0  0
  6 29  1  0  0  0  0
  6 27  1  0  0  0  0
  7  8  1  0  0  0  0
  7 18  1  0  0  0  0
  9 33  1  1  0  0  0
  9  4  1  0  0  0  0
 10 22  1  0  0  0  0
 10  6  2  0  0  0  0
 11 36  1  1  0  0  0
 12 16  1  0  0  0  0
 12  9  1  0  0  0  0
 14 29  1  0  0  0  0
 15 32  1  1  0  0  0
 15 13  1  0  0  0  0
 16 21  1  0  0  0  0
 18  3  1  0  0  0  0
 20 26  1  0  0  0  0
 20 24  1  0  0  0  0
 21 26  1  0  0  0  0
 21 19  1  0  0  0  0
 22 25  1  0  0  0  0
 23 18  2  0  0  0  0
 24 17  2  0  0  0  0
 24  1  1  0  0  0  0
 25 27  2  0  0  0  0
 26 19  1  1  0  0  0
 27 23  1  0  0  0  0
 28 13  1  0  0  0  0
 28 11  1  0  0  0  0
 29  7  2  0  0  0  0
 30 32  2  0  0  0  0
 32 31  1  0  0  0  0
 33 35  1  0  0  0  0
 34 33  2  0  0  0  0
 36 38  1  0  0  0  0
 38 37  2  0  0  0  0
M  END
>  <MODEL>
2

>  <REMARK>
 VINA RESULT:      -7.6      2.211      3.345
  Name = 
  4 active torsions:
  status: ('A' for Active; 'I' for Inactive)
    1  A    between atoms: C_11  and  C_16
    2  A    between atoms: C_11  and  C_35
    3  A    between atoms: C_12  and  CA_13
    4  A    between atoms: CA_20  and  C_36
                            x       y       z     vdW  Elec       q    Type
                         _______ _______ _______ _____ _____    ______ ____

>  <TORSDO>
F 4

$$$$
=
 OpenBabel11062421003D

 38 41  0  0  1  0  0  0  0  0999 V2000
  189.5850  174.7840  141.5460 N   0  0  0  0  0  2  0  0  0  0  0  0
  191.8550  177.0220  144.7700 O   0  0  0  0  0  0  0  0  0  0  0  0
  192.5770  176.2010  145.6490 C   0  0  0  0  0  2  0  0  0  0  0  0
  194.6310  171.8090  142.8160 C   0  0  0  0  0  2  0  0  0  0  0  0
  192.4730  169.2070  139.9340 C   0  0  0  0  0  2  0  0  0  0  0  0
  196.0790  174.7220  143.7100 C   0  0  0  0  0  0  0  0  0  0  0  0
  193.9910  174.2780  144.8310 C   0  0  0  0  0  0  0  0  0  0  0  0
  193.0410  173.3870  145.3240 O   0  0  0  0  0  1  0  0  0  0  0  0
  194.7090  170.2880  142.7370 C   0  0  2  0  0  3  0  0  0  0  0  0
  197.3610  174.5000  143.0180 C   0  0  0  0  0  3  0  0  0  0  0  0
  190.4810  176.7010  144.8450 C   0  0  1  0  0  3  0  0  0  0  0  0
  194.1960  169.7880  141.4640 N   0  0  0  0  0  2  0  0  0  0  0  0
  188.7740  175.1630  143.8330 C   0  0  0  0  0  2  0  0  0  0  0  0
  195.3890  172.3240  144.0290 C   0  0  0  0  0  2  0  0  0  0  0  0
  188.8670  175.7170  142.4130 C   0  0  2  0  0  3  0  0  0  0  0  0
  192.8540  169.9260  140.9790 C   0  0  0  0  0  0  0  0  0  0  0  0
  187.9270  173.1320  141.4450 O   0  0  0  0  0  0  0  0  0  0  0  0
  193.7960  175.6720  144.9710 C   0  0  0  0  0  0  0  0  0  0  0  0
  191.5450  171.9590  142.4750 C   0  0  0  0  0  2  0  0  0  0  0  0
  190.1710  172.3910  140.2470 S   0  0  0  0  0  0  0  0  0  0  0  0
  191.9250  170.8290  141.5770 N   0  0  0  0  0  0  0  0  0  0  0  0
  197.9180  175.7800  142.7480 O   0  0  0  0  0  0  0  0  0  0  0  0
  194.7640  176.5690  144.4820 C   0  0  0  0  0  3  0  0  0  0  0  0
  189.0990  173.4950  141.1560 C   0  0  0  0  0  0  0  0  0  0  0  0
  197.0310  176.7630  143.2640 C   0  0  0  0  0  3  0  0  0  0  0  0
  190.5480  171.3890  141.7160 C   0  0  1  0  0  3  0  0  0  0  0  0
  195.8910  176.0470  143.8540 C   0  0  0  0  0  0  0  0  0  0  0  0
  190.1280  175.2440  144.5230 C   0  0  0  0  0  2  0  0  0  0  0  0
  195.1550  173.7910  144.1950 C   0  0  0  0  0  0  0  0  0  0  0  0
  186.3770  175.9110  142.6050 O   0  0  0  0  0  1  0  0  0  0  0  0
  187.4210  176.4720  140.6490 O   0  0  0  0  0  0  0  0  0  0  0  0
  187.5250  176.0850  141.8430 C   0  0  0  0  0  0  0  0  0  0  0  0
  194.0590  169.5880  143.8930 C   0  0  0  0  0  0  0  0  0  0  0  0
  194.4410  168.2890  144.2050 O   0  0  0  0  0  0  0  0  0  0  0  0
  193.1520  170.1460  144.5640 O   0  0  0  0  0  1  0  0  0  0  0  0
  189.7390  177.3190  146.0370 C   0  0  0  0  0  2  0  0  0  0  0  0
  187.8080  176.3590  147.0040 O   0  0  0  0  0  0  0  0  0  0  0  0
  189.0210  176.3120  146.8820 C   0  0  0  0  0  3  0  0  0  0  0  0
  1 15  1  0  0  0  0
  2 11  1  0  0  0  0
  2  3  1  0  0  0  0
  4 14  1  0  0  0  0
  5 16  2  0  0  0  0
  6 27  1  0  0  0  0
  6 29  1  0  0  0  0
  7 18  1  0  0  0  0
  7  8  1  0  0  0  0
  9  4  1  0  0  0  0
  9 33  1  1  0  0  0
 10  6  2  0  0  0  0
 11 36  1  1  0  0  0
 12  9  1  0  0  0  0
 13 28  1  0  0  0  0
 14 29  1  0  0  0  0
 15 32  1  6  0  0  0
 15 13  1  0  0  0  0
 16 12  1  0  0  0  0
 16 21  1  0  0  0  0
 18  3  1  0  0  0  0
 20 24  1  0  0  0  0
 20 26  1  0  0  0  0
 21 26  1  0  0  0  0
 21 19  1  0  0  0  0
 22 10  1  0  0  0  0
 22 25  1  0  0  0  0
 23 18  2  0  0  0  0
 24 17  2  0  0  0  0
 24  1  1  0  0  0  0
 25 27  2  0  0  0  0
 26 19  1  1  0  0  0
 27 23  1  0  0  0  0
 28 11  1  0  0  0  0
 29  7  2  0  0  0  0
 31 32  2  0  0  0  0
 32 30  1  0  0  0  0
 33 34  2  0  0  0  0
 33 35  1  0  0  0  0
 36 38  1  0  0  0  0
 38 37  2  0  0  0  0
M  END
>  <MODEL>
3

>  <REMARK>
 VINA RESULT:      -7.2      2.749      4.139
  Name = 
  4 active torsions:
  status: ('A' for Active; 'I' for Inactive)
    1  A    between atoms: C_11  and  C_16
    2  A    between atoms: C_11  and  C_35
    3  A    between atoms: C_12  and  CA_13
    4  A    between atoms: CA_20  and  C_36
                            x       y       z     vdW  Elec       q    Type
                         _______ _______ _______ _____ _____    ______ ____

>  <TORSDO>
F 4

$$$$
=
 OpenBabel11062421003D

 38 41  0  0  1  0  0  0  0  0999 V2000
  188.7850  176.5720  143.1730 N   0  0  0  0  0  2  0  0  0  0  0  0
  192.2850  176.7250  146.0520 O   0  0  0  0  0  0  0  0  0  0  0  0
  192.9570  175.5040  146.2150 C   0  0  0  0  0  2  0  0  0  0  0  0
  193.0180  172.7560  141.3180 C   0  0  0  0  0  2  0  0  0  0  0  0
  189.6110  172.1100  138.5420 C   0  0  0  0  0  2  0  0  0  0  0  0
  195.3570  174.6980  142.7800 C   0  0  0  0  0  0  0  0  0  0  0  0
  193.5680  174.0380  144.2540 C   0  0  0  0  0  0  0  0  0  0  0  0
  192.5670  173.1440  144.6280 O   0  0  0  0  0  1  0  0  0  0  0  0
  192.6700  171.4560  140.6010 C   0  0  2  0  0  3  0  0  0  0  0  0
  196.3240  174.6740  141.6680 C   0  0  0  0  0  3  0  0  0  0  0  0
  190.9360  176.5780  146.4490 C   0  0  1  0  0  3  0  0  0  0  0  0
  191.7470  171.6830  139.4920 N   0  0  0  0  0  2  0  0  0  0  0  0
  188.6890  175.9220  145.5400 C   0  0  0  0  0  2  0  0  0  0  0  0
  194.1590  172.5400  142.3000 C   0  0  0  0  0  2  0  0  0  0  0  0
  188.5740  177.0660  144.5330 C   0  0  2  0  0  3  0  0  0  0  0  0
  190.4130  172.1980  139.5920 C   0  0  0  0  0  0  0  0  0  0  0  0
  186.7770  175.3810  142.9720 O   0  0  0  0  0  0  0  0  0  0  0  0
  193.7880  175.2120  145.0100 C   0  0  0  0  0  0  0  0  0  0  0  0
  190.0960  173.4260  142.1370 C   0  0  0  0  0  2  0  0  0  0  0  0
  188.3820  175.0240  140.8930 S   0  0  0  0  0  0  0  0  0  0  0  0
  189.9310  172.8180  140.7840 N   0  0  0  0  0  0  0  0  0  0  0  0
  197.1150  175.8510  141.7760 O   0  0  0  0  0  0  0  0  0  0  0  0
  194.8070  176.1080  144.6370 C   0  0  0  0  0  3  0  0  0  0  0  0
  187.8950  175.6900  142.4790 C   0  0  0  0  0  0  0  0  0  0  0  0
  196.6740  176.5740  142.9170 C   0  0  0  0  0  3  0  0  0  0  0  0
  188.8290  173.4090  141.5970 C   0  0  1  0  0  3  0  0  0  0  0  0
  195.5670  175.8100  143.5090 C   0  0  0  0  0  0  0  0  0  0  0  0
  190.1440  175.5010  145.6980 C   0  0  0  0  0  2  0  0  0  0  0  0
  194.3680  173.7700  143.1210 C   0  0  0  0  0  0  0  0  0  0  0  0
  186.4010  177.5260  145.6910 O   0  0  0  0  0  1  0  0  0  0  0  0
  186.9430  178.6610  143.7810 O   0  0  0  0  0  0  0  0  0  0  0  0
  187.2800  177.8200  144.6560 C   0  0  0  0  0  0  0  0  0  0  0  0
  192.1630  170.3780  141.5120 C   0  0  0  0  0  0  0  0  0  0  0  0
  192.1420  169.0630  141.0670 O   0  0  0  0  0  0  0  0  0  0  0  0
  191.7270  170.6520  142.6610 O   0  0  0  0  0  1  0  0  0  0  0  0
  190.7000  176.6450  147.9640 C   0  0  0  0  0  2  0  0  0  0  0  0
  191.3580  178.2370  149.5830 O   0  0  0  0  0  0  0  0  0  0  0  0
  191.7070  177.4840  148.6890 C   0  0  0  0  0  3  0  0  0  0  0  0
  1 15  1  0  0  0  0
  2  3  1  0  0  0  0
  2 11  1  0  0  0  0
  4 14  1  0  0  0  0
  5 16  2  0  0  0  0
  6 29  1  0  0  0  0
  6 27  1  0  0  0  0
  7  8  1  0  0  0  0
  7 18  1  0  0  0  0
  9  4  1  0  0  0  0
  9 33  1  1  0  0  0
 10 22  1  0  0  0  0
 10  6  2  0  0  0  0
 11 36  1  1  0  0  0
 12 16  1  0  0  0  0
 12  9  1  0  0  0  0
 13 28  1  0  0  0  0
 14 29  1  0  0  0  0
 15 32  1  6  0  0  0
 15 13  1  0  0  0  0
 16 21  1  0  0  0  0
 18  3  1  0  0  0  0
 20 26  1  0  0  0  0
 20 24  1  0  0  0  0
 21 26  1  0  0  0  0
 21 19  1  0  0  0  0
 22 25  1  0  0  0  0
 23 18  2  0  0  0  0
 24 17  2  0  0  0  0
 24  1  1  0  0  0  0
 25 27  2  0  0  0  0
 26 19  1  1  0  0  0
 27 23  1  0  0  0  0
 28 11  1  0  0  0  0
 29  7  2  0  0  0  0
 31 32  2  0  0  0  0
 32 30  1  0  0  0  0
 33 35  1  0  0  0  0
 34 33  2  0  0  0  0
 36 38  1  0  0  0  0
 38 37  2  0  0  0  0
M  END
>  <MODEL>
4

>  <REMARK>
 VINA RESULT:      -7.2      2.169      3.198
  Name = 
  4 active torsions:
  status: ('A' for Active; 'I' for Inactive)
    1  A    between atoms: C_11  and  C_16
    2  A    between atoms: C_11  and  C_35
    3  A    between atoms: C_12  and  CA_13
    4  A    between atoms: CA_20  and  C_36
                            x       y       z     vdW  Elec       q    Type
                         _______ _______ _______ _____ _____    ______ ____

>  <TORSDO>
F 4

$$$$
=
 OpenBabel11062421003D

 38 41  0  0  1  0  0  0  0  0999 V2000
  188.9690  175.4850  143.7090 N   0  0  0  0  0  2  0  0  0  0  0  0
  189.4920  171.7260  141.2260 O   0  0  0  0  0  0  0  0  0  0  0  0
  190.7520  171.6010  140.6210 C   0  0  0  0  0  2  0  0  0  0  0  0
  194.6750  173.6820  144.0570 C   0  0  0  0  0  2  0  0  0  0  0  0
  194.5660  177.5410  146.2560 C   0  0  0  0  0  1  0  0  0  0  0  0
  193.6630  170.5050  143.5420 C   0  0  0  0  0  0  0  0  0  0  0  0
  192.8930  172.0640  141.8730 C   0  0  0  0  0  0  0  0  0  0  0  0
  193.0440  173.2450  141.1490 O   0  0  0  0  0  1  0  0  0  0  0  0
  195.8240  174.6740  144.1990 C   0  0  2  0  0  3  0  0  0  0  0  0
  194.4990  169.8840  144.5850 C   0  0  0  0  0  3  0  0  0  0  0  0
  188.8610  172.9030  140.7620 C   0  0  1  0  0  3  0  0  0  0  0  0
  195.5820  175.6260  145.2810 N   0  0  0  0  0  0  0  0  0  0  0  0
  188.6710  175.3530  141.2740 C   0  0  0  0  0  2  0  0  0  0  0  0
  195.0490  172.5580  143.1050 C   0  0  0  0  0  2  0  0  0  0  0  0
  188.0120  175.1900  142.6430 C   0  0  2  0  0  3  0  0  0  0  0  0
  194.5120  176.5780  145.3480 C   0  0  0  0  0  0  0  0  0  0  0  0
  189.0940  177.8000  143.3680 O   0  0  0  0  0  0  0  0  0  0  0  0
  191.7750  171.2290  141.6420 C   0  0  0  0  0  0  0  0  0  0  0  0
  192.5060  175.8310  143.4760 C   0  0  0  0  0  2  0  0  0  0  0  0
  190.8180  176.9480  145.1910 S   0  0  0  0  0  0  0  0  0  0  0  0
  193.3830  176.5050  144.4780 N   0  0  0  0  0  0  0  0  0  0  0  0
  193.8580  168.6750  144.9690 O   0  0  0  0  0  0  0  0  0  0  0  0
  191.6310  170.0310  142.3660 C   0  0  0  0  0  3  0  0  0  0  0  0
  189.5180  176.7800  143.9760 C   0  0  0  0  0  0  0  0  0  0  0  0
  192.6790  168.5340  144.1880 C   0  0  0  0  0  3  0  0  0  0  0  0
  192.1180  177.0730  143.9270 C   0  0  1  0  0  3  0  0  0  0  0  0
  192.6020  169.7110  143.3110 C   0  0  0  0  0  0  0  0  0  0  0  0
  189.6330  174.2040  141.0090 C   0  0  0  0  0  2  0  0  0  0  0  0
  193.8590  171.6960  142.8350 C   0  0  0  0  0  0  0  0  0  0  0  0
  186.3170  176.7910  141.7280 O   0  0  0  0  0  0  0  0  0  0  0  0
  186.1380  176.0410  143.8810 O   0  0  0  0  0  1  0  0  0  0  0  0
  186.7550  176.0020  142.7840 C   0  0  0  0  0  0  0  0  0  0  0  0
  196.1740  175.3830  142.9250 C   0  0  0  0  0  0  0  0  0  0  0  0
  197.3880  176.0500  142.8280 O   0  0  0  0  0  1  0  0  0  0  0  0
  195.3710  175.4080  141.9550 O   0  0  0  0  0  0  0  0  0  0  0  0
  188.1910  172.7740  139.3870 C   0  0  0  0  0  2  0  0  0  0  0  0
  188.0190  174.5410  137.8260 O   0  0  0  0  0  0  0  0  0  0  0  0
  188.7430  173.7180  138.3630 C   0  0  0  0  0  3  0  0  0  0  0  0
  1 24  1  0  0  0  0
  3  2  1  0  0  0  0
  3 18  1  0  0  0  0
  4  9  1  0  0  0  0
  6 10  2  0  0  0  0
  7 29  2  0  0  0  0
  8  7  1  0  0  0  0
  9 33  1  6  0  0  0
  9 12  1  0  0  0  0
 10 22  1  0  0  0  0
 11 36  1  6  0  0  0
 11 28  1  0  0  0  0
 11  2  1  0  0  0  0
 12 16  2  0  0  0  0
 13 15  1  0  0  0  0
 14  4  1  0  0  0  0
 15 32  1  6  0  0  0
 15  1  1  0  0  0  0
 16  5  1  0  0  0  0
 17 24  2  0  0  0  0
 18  7  1  0  0  0  0
 18 23  2  0  0  0  0
 19 21  1  0  0  0  0
 21 16  1  0  0  0  0
 23 27  1  0  0  0  0
 24 20  1  0  0  0  0
 25 22  1  0  0  0  0
 26 19  1  6  0  0  0
 26 21  1  0  0  0  0
 26 20  1  0  0  0  0
 27  6  1  0  0  0  0
 27 25  2  0  0  0  0
 28 13  1  0  0  0  0
 29 14  1  0  0  0  0
 29  6  1  0  0  0  0
 30 32  2  0  0  0  0
 32 31  1  0  0  0  0
 34 33  1  0  0  0  0
 35 33  2  0  0  0  0
 37 38  2  0  0  0  0
 38 36  1  0  0  0  0
M  END
>  <MODEL>
5

>  <REMARK>
 VINA RESULT:      -7.2      3.137      6.646
  Name = 
  4 active torsions:
  status: ('A' for Active; 'I' for Inactive)
    1  A    between atoms: C_11  and  C_16
    2  A    between atoms: C_11  and  C_35
    3  A    between atoms: C_12  and  CA_13
    4  A    between atoms: CA_20  and  C_36
                            x       y       z     vdW  Elec       q    Type
                         _______ _______ _______ _____ _____    ______ ____

>  <TORSDO>
F 4

$$$$
=
 OpenBabel11062421003D

 38 41  0  0  1  0  0  0  0  0999 V2000
  190.1470  175.1290  145.5450 N   0  0  0  0  0  2  0  0  0  0  0  0
  188.5810  173.9590  141.4530 O   0  0  0  0  0  0  0  0  0  0  0  0
  189.5210  174.0710  140.4180 C   0  0  0  0  0  2  0  0  0  0  0  0
  194.5990  172.6770  142.3680 C   0  0  0  0  0  2  0  0  0  0  0  0
  196.5120  174.0430  146.1380 C   0  0  0  0  0  1  0  0  0  0  0  0
  192.3280  170.8650  140.6540 C   0  0  0  0  0  0  0  0  0  0  0  0
  191.8900  173.2350  140.6620 C   0  0  0  0  0  0  0  0  0  0  0  0
  192.3320  174.5540  140.7410 O   0  0  0  0  0  1  0  0  0  0  0  0
  196.0470  173.1230  142.5370 C   0  0  2  0  0  3  0  0  0  0  0  0
  193.0570  169.5850  140.6970 C   0  0  0  0  0  3  0  0  0  0  0  0
  188.3810  175.2260  142.0470 C   0  0  1  0  0  3  0  0  0  0  0  0
  196.4460  173.1360  143.9420 N   0  0  0  0  0  0  0  0  0  0  0  0
  189.2930  176.7020  143.8620 C   0  0  0  0  0  2  0  0  0  0  0  0
  194.2790  172.4320  140.9030 C   0  0  0  0  0  2  0  0  0  0  0  0
  188.9420  175.7760  145.0260 C   0  0  2  0  0  3  0  0  0  0  0  0
  195.8830  173.9550  144.9750 C   0  0  0  0  0  0  0  0  0  0  0  0
  191.0980  177.0240  146.5430 O   0  0  0  0  0  0  0  0  0  0  0  0
  190.5120  172.9580  140.5040 C   0  0  0  0  0  0  0  0  0  0  0  0
  193.3870  174.9760  144.0740 C   0  0  0  0  0  2  0  0  0  0  0  0
  192.7000  174.9160  146.6350 S   0  0  0  0  0  0  0  0  0  0  0  0
  194.6560  174.6600  144.7940 N   0  0  0  0  0  0  0  0  0  0  0  0
  192.0920  168.5490  140.5660 O   0  0  0  0  0  0  0  0  0  0  0  0
  190.0690  171.6260  140.4120 C   0  0  0  0  0  3  0  0  0  0  0  0
  191.2070  175.8080  146.2270 C   0  0  0  0  0  0  0  0  0  0  0  0
  190.8130  169.1540  140.4300 C   0  0  0  0  0  3  0  0  0  0  0  0
  193.6310  175.6420  145.2540 C   0  0  1  0  0  3  0  0  0  0  0  0
  191.0160  170.6080  140.4950 C   0  0  0  0  0  0  0  0  0  0  0  0
  189.6390  175.8880  142.6230 C   0  0  0  0  0  2  0  0  0  0  0  0
  192.8180  172.1730  140.7330 C   0  0  0  0  0  0  0  0  0  0  0  0
  187.8160  175.7810  147.2630 O   0  0  0  0  0  1  0  0  0  0  0  0
  187.7770  177.6590  145.9580 O   0  0  0  0  0  0  0  0  0  0  0  0
  188.1740  176.4730  146.1130 C   0  0  0  0  0  0  0  0  0  0  0  0
  196.3590  174.4330  141.8760 C   0  0  0  0  0  0  0  0  0  0  0  0
  197.6800  174.7590  141.6000 O   0  0  0  0  0  1  0  0  0  0  0  0
  195.4450  175.2530  141.5980 O   0  0  0  0  0  0  0  0  0  0  0  0
  187.4310  176.1540  141.2790 C   0  0  0  0  0  2  0  0  0  0  0  0
  185.9420  176.1790  143.1150 O   0  0  0  0  0  0  0  0  0  0  0  0
  186.3740  176.7740  142.1410 C   0  0  0  0  0  3  0  0  0  0  0  0
  1 24  1  0  0  0  0
  2 11  1  0  0  0  0
  3 18  1  0  0  0  0
  3  2  1  0  0  0  0
  4  9  1  0  0  0  0
  6 10  2  0  0  0  0
  6 29  1  0  0  0  0
  7 29  2  0  0  0  0
  7  8  1  0  0  0  0
  9 33  1  1  0  0  0
  9 12  1  0  0  0  0
 11 36  1  6  0  0  0
 11 28  1  0  0  0  0
 12 16  2  0  0  0  0
 13 15  1  0  0  0  0
 14  4  1  0  0  0  0
 15  1  1  0  0  0  0
 15 32  1  1  0  0  0
 16  5  1  0  0  0  0
 18  7  1  0  0  0  0
 19 21  1  0  0  0  0
 21 16  1  0  0  0  0
 21 26  1  0  0  0  0
 22 10  1  0  0  0  0
 23 27  1  0  0  0  0
 23 18  2  0  0  0  0
 24 17  2  0  0  0  0
 24 20  1  0  0  0  0
 25 27  2  0  0  0  0
 25 22  1  0  0  0  0
 26 19  1  6  0  0  0
 26 20  1  0  0  0  0
 27  6  1  0  0  0  0
 28 13  1  0  0  0  0
 29 14  1  0  0  0  0
 31 32  2  0  0  0  0
 32 30  1  0  0  0  0
 34 33  1  0  0  0  0
 35 33  2  0  0  0  0
 36 38  1  0  0  0  0
 38 37  2  0  0  0  0
M  END
>  <MODEL>
6

>  <REMARK>
 VINA RESULT:      -6.9      3.118      6.597
  Name = 
  4 active torsions:
  status: ('A' for Active; 'I' for Inactive)
    1  A    between atoms: C_11  and  C_16
    2  A    between atoms: C_11  and  C_35
    3  A    between atoms: C_12  and  CA_13
    4  A    between atoms: CA_20  and  C_36
                            x       y       z     vdW  Elec       q    Type
                         _______ _______ _______ _____ _____    ______ ____

>  <TORSDO>
F 4

$$$$
=
 OpenBabel11062421003D

 38 41  0  0  1  0  0  0  0  0999 V2000
  194.9040  173.7180  143.9550 N   0  0  0  0  0  2  0  0  0  0  0  0
  192.6810  170.0570  142.4640 O   0  0  0  0  0  0  0  0  0  0  0  0
  191.2960  170.0900  142.6840 C   0  0  0  0  0  2  0  0  0  0  0  0
  189.4490  175.3590  142.0910 C   0  0  0  0  0  2  0  0  0  0  0  0
  191.2180  179.0500  143.8180 C   0  0  0  0  0  1  0  0  0  0  0  0
  189.4520  172.7730  139.9260 C   0  0  0  0  0  0  0  0  0  0  0  0
  189.9110  172.1440  142.2070 C   0  0  0  0  0  0  0  0  0  0  0  0
  189.7860  172.3610  143.5770 O   0  0  0  0  0  1  0  0  0  0  0  0
  188.6870  176.5060  142.7470 C   0  0  2  0  0  3  0  0  0  0  0  0
  188.9260  173.5150  138.7660 C   0  0  0  0  0  3  0  0  0  0  0  0
  193.3570  170.1260  143.7040 C   0  0  1  0  0  3  0  0  0  0  0  0
  189.5110  177.7080  142.8530 N   0  0  0  0  0  0  0  0  0  0  0  0
  194.2740  171.7910  145.3430 C   0  0  0  0  0  2  0  0  0  0  0  0
  188.5120  174.2080  141.7640 C   0  0  0  0  0  2  0  0  0  0  0  0
  195.3220  172.3910  144.4070 C   0  0  2  0  0  3  0  0  0  0  0  0
  190.7220  177.8400  143.6090 C   0  0  0  0  0  0  0  0  0  0  0  0
  195.2000  174.8360  145.9930 O   0  0  0  0  0  0  0  0  0  0  0  0
  190.6490  171.0360  141.7290 C   0  0  0  0  0  0  0  0  0  0  0  0
  191.6980  175.2440  144.2340 C   0  0  0  0  0  2  0  0  0  0  0  0
  194.0950  176.3760  144.1420 S   0  0  0  0  0  0  0  0  0  0  0  0
  191.4170  176.7060  144.1240 N   0  0  0  0  0  0  0  0  0  0  0  0
  189.3660  172.8340  137.5980 O   0  0  0  0  0  0  0  0  0  0  0  0
  190.7630  170.8120  140.3440 C   0  0  0  0  0  3  0  0  0  0  0  0
  194.8000  174.8710  144.7980 C   0  0  0  0  0  0  0  0  0  0  0  0
  190.1220  171.7020  138.0070 C   0  0  0  0  0  3  0  0  0  0  0  0
  192.4950  176.1000  144.9590 C   0  0  1  0  0  3  0  0  0  0  0  0
  190.1490  171.7120  139.4770 C   0  0  0  0  0  0  0  0  0  0  0  0
  193.0440  171.3620  144.5560 C   0  0  0  0  0  2  0  0  0  0  0  0
  189.2950  173.0270  141.2920 C   0  0  0  0  0  0  0  0  0  0  0  0
  197.7610  172.9480  144.2960 O   0  0  0  0  0  0  0  0  0  0  0  0
  196.9120  171.8900  146.1370 O   0  0  0  0  0  1  0  0  0  0  0  0
  196.6970  172.4190  145.0140 C   0  0  0  0  0  0  0  0  0  0  0  0
  188.0780  176.1510  144.0700 C   0  0  0  0  0  0  0  0  0  0  0  0
  186.9030  176.7740  144.4680 O   0  0  0  0  0  0  0  0  0  0  0  0
  188.6310  175.3200  144.8370 O   0  0  0  0  0  1  0  0  0  0  0  0
  193.4420  168.7950  144.4650 C   0  0  0  0  0  2  0  0  0  0  0  0
  195.7870  168.8710  144.1760 O   0  0  0  0  0  0  0  0  0  0  0  0
  194.8140  168.1940  144.4660 C   0  0  0  0  0  3  0  0  0  0  0  0
  1 15  1  0  0  0  0
  1 24  1  0  0  0  0
  2  3  1  0  0  0  0
  2 11  1  0  0  0  0
  4  9  1  0  0  0  0
  6 29  1  0  0  0  0
  7  8  1  0  0  0  0
  9 12  1  0  0  0  0
  9 33  1  1  0  0  0
 10  6  2  0  0  0  0
 11 36  1  1  0  0  0
 11 28  1  0  0  0  0
 12 16  2  0  0  0  0
 14  4  1  0  0  0  0
 15 32  1  1  0  0  0
 15 13  1  0  0  0  0
 16  5  1  0  0  0  0
 16 21  1  0  0  0  0
 18  7  1  0  0  0  0
 18  3  1  0  0  0  0
 20 24  1  0  0  0  0
 20 26  1  0  0  0  0
 21 19  1  0  0  0  0
 21 26  1  0  0  0  0
 22 25  1  0  0  0  0
 22 10  1  0  0  0  0
 23 18  2  0  0  0  0
 24 17  2  0  0  0  0
 25 27  2  0  0  0  0
 26 19  1  6  0  0  0
 27  6  1  0  0  0  0
 27 23  1  0  0  0  0
 28 13  1  0  0  0  0
 29 14  1  0  0  0  0
 29  7  2  0  0  0  0
 30 32  2  0  0  0  0
 32 31  1  0  0  0  0
 33 34  2  0  0  0  0
 33 35  1  0  0  0  0
 36 38  1  0  0  0  0
 37 38  2  0  0  0  0
M  END
>  <MODEL>
7

>  <REMARK>
 VINA RESULT:      -6.8      3.206      8.797
  Name = 
  4 active torsions:
  status: ('A' for Active; 'I' for Inactive)
    1  A    between atoms: C_11  and  C_16
    2  A    between atoms: C_11  and  C_35
    3  A    between atoms: C_12  and  CA_13
    4  A    between atoms: CA_20  and  C_36
                            x       y       z     vdW  Elec       q    Type
                         _______ _______ _______ _____ _____    ______ ____

>  <TORSDO>
F 4

$$$$
=
 OpenBabel11062421003D

 38 41  0  0  1  0  0  0  0  0999 V2000
  191.3160  173.1790  139.3710 N   0  0  0  0  0  2  0  0  0  0  0  0
  189.7110  175.5790  142.8670 O   0  0  0  0  0  0  0  0  0  0  0  0
  189.7800  174.9200  144.1040 C   0  0  0  0  0  2  0  0  0  0  0  0
  194.4540  171.8140  144.2910 C   0  0  0  0  0  2  0  0  0  0  0  0
  195.9950  169.0630  141.1620 C   0  0  0  0  0  2  0  0  0  0  0  0
  193.8090  174.8920  145.5120 C   0  0  0  0  0  0  0  0  0  0  0  0
  191.8430  173.6680  144.8430 C   0  0  0  0  0  0  0  0  0  0  0  0
  191.1730  172.4660  144.6290 O   0  0  0  0  0  1  0  0  0  0  0  0
  195.0300  170.4200  144.5160 C   0  0  2  0  0  3  0  0  0  0  0  0
  195.1720  175.1790  145.9920 C   0  0  0  0  0  3  0  0  0  0  0  0
  188.9040  174.8330  141.9800 C   0  0  1  0  0  3  0  0  0  0  0  0
  195.7830  169.9540  143.3540 N   0  0  0  0  0  2  0  0  0  0  0  0
  189.0470  172.9800  140.2920 C   0  0  0  0  0  2  0  0  0  0  0  0
  193.8920  172.3790  145.5850 C   0  0  0  0  0  2  0  0  0  0  0  0
  189.9570  173.7160  139.3090 C   0  0  2  0  0  3  0  0  0  0  0  0
  195.2560  169.7230  142.0410 C   0  0  0  0  0  0  0  0  0  0  0  0
  190.8700  171.1150  138.3550 O   0  0  0  0  0  0  0  0  0  0  0  0
  191.1900  174.8980  144.5940 C   0  0  0  0  0  0  0  0  0  0  0  0
  192.7370  171.0230  141.8240 C   0  0  0  0  0  2  0  0  0  0  0  0
  193.3550  171.2860  139.2570 S   0  0  0  0  0  0  0  0  0  0  0  0
  193.9700  170.1990  141.6500 N   0  0  0  0  0  0  0  0  0  0  0  0
  195.3170  176.5930  146.0190 O   0  0  0  0  0  0  0  0  0  0  0  0
  191.8650  176.1110  144.8230 C   0  0  0  0  0  3  0  0  0  0  0  0
  191.6940  171.8650  138.9460 C   0  0  0  0  0  0  0  0  0  0  0  0
  194.0900  177.1700  145.5910 C   0  0  0  0  0  3  0  0  0  0  0  0
  192.8420  170.2710  140.6750 C   0  0  1  0  0  3  0  0  0  0  0  0
  193.1790  176.0590  145.2810 C   0  0  0  0  0  0  0  0  0  0  0  0
  189.3670  173.3940  141.7210 C   0  0  0  0  0  2  0  0  0  0  0  0
  193.1740  173.6610  145.3160 C   0  0  0  0  0  0  0  0  0  0  0  0
  188.1920  173.1230  137.6340 O   0  0  0  0  0  1  0  0  0  0  0  0
  190.1120  174.1630  136.9540 O   0  0  0  0  0  0  0  0  0  0  0  0
  189.4210  173.7110  137.9050 C   0  0  0  0  0  0  0  0  0  0  0  0
  194.0110  169.4050  144.9410 C   0  0  0  0  0  0  0  0  0  0  0  0
  192.7020  169.5250  144.4930 O   0  0  0  0  0  0  0  0  0  0  0  0
  194.3170  168.4650  145.7200 O   0  0  0  0  0  1  0  0  0  0  0  0
  187.3930  175.0230  142.1700 C   0  0  0  0  0  2  0  0  0  0  0  0
  186.5270  177.0150  141.2380 O   0  0  0  0  0  0  0  0  0  0  0  0
  186.9740  176.4600  142.2280 C   0  0  0  0  0  3  0  0  0  0  0  0
  2  3  1  0  0  0  0
  3 18  1  0  0  0  0
  4  9  1  0  0  0  0
  4 14  1  0  0  0  0
  5 16  2  0  0  0  0
  6 10  2  0  0  0  0
  7 29  2  0  0  0  0
  8  7  1  0  0  0  0
  9 33  1  6  0  0  0
 10 22  1  0  0  0  0
 11 36  1  1  0  0  0
 11  2  1  0  0  0  0
 12  9  1  0  0  0  0
 13 28  1  0  0  0  0
 15 32  1  6  0  0  0
 15  1  1  0  0  0  0
 15 13  1  0  0  0  0
 16 12  1  0  0  0  0
 17 24  2  0  0  0  0
 18 23  2  0  0  0  0
 18  7  1  0  0  0  0
 20 26  1  0  0  0  0
 21 19  1  0  0  0  0
 21 16  1  0  0  0  0
 23 27  1  0  0  0  0
 24 20  1  0  0  0  0
 24  1  1  0  0  0  0
 25 22  1  0  0  0  0
 26 21  1  0  0  0  0
 26 19  1  1  0  0  0
 27  6  1  0  0  0  0
 27 25  2  0  0  0  0
 28 11  1  0  0  0  0
 29  6  1  0  0  0  0
 29 14  1  0  0  0  0
 30 32  1  0  0  0  0
 31 32  2  0  0  0  0
 33 35  1  0  0  0  0
 34 33  2  0  0  0  0
 36 38  1  0  0  0  0
 37 38  2  0  0  0  0
M  END
>  <MODEL>
8

>  <REMARK>
 VINA RESULT:      -6.4      3.377      5.844
  Name = 
  4 active torsions:
  status: ('A' for Active; 'I' for Inactive)
    1  A    between atoms: C_11  and  C_16
    2  A    between atoms: C_11  and  C_35
    3  A    between atoms: C_12  and  CA_13
    4  A    between atoms: CA_20  and  C_36
                            x       y       z     vdW  Elec       q    Type
                         _______ _______ _______ _____ _____    ______ ____

>  <TORSDO>
F 4

$$$$
=
 OpenBabel11062421003D

 38 41  0  0  1  0  0  0  0  0999 V2000
  189.8910  173.2280  141.3390 N   0  0  0  0  0  2  0  0  0  0  0  0
  193.7220  171.1060  140.1650 O   0  0  0  0  0  0  0  0  0  0  0  0
  194.8960  171.7690  140.5540 C   0  0  0  0  0  2  0  0  0  0  0  0
  194.0620  174.2540  145.5190 C   0  0  0  0  0  2  0  0  0  0  0  0
  190.5890  176.7380  146.7460 C   0  0  0  0  0  2  0  0  0  0  0  0
  195.5040  171.3030  144.7510 C   0  0  0  0  0  0  0  0  0  0  0  0
  195.1760  172.7580  142.8580 C   0  0  0  0  0  0  0  0  0  0  0  0
  195.0470  174.0330  142.3120 O   0  0  0  0  0  1  0  0  0  0  0  0
  194.1170  175.5660  146.2940 C   0  0  2  0  0  3  0  0  0  0  0  0
  195.7260  170.8510  146.1370 C   0  0  0  0  0  3  0  0  0  0  0  0
  192.9770  171.9360  139.2970 C   0  0  1  0  0  3  0  0  0  0  0  0
  192.8150  175.9140  146.8580 N   0  0  0  0  0  2  0  0  0  0  0  0
  191.2200  173.7300  139.3360 C   0  0  0  0  0  2  0  0  0  0  0  0
  195.4610  173.7850  145.1550 C   0  0  0  0  0  2  0  0  0  0  0  0
  190.1120  172.8690  139.9390 C   0  0  2  0  0  3  0  0  0  0  0  0
  191.6190  176.1910  146.1180 C   0  0  0  0  0  0  0  0  0  0  0  0
  188.8980  175.3160  140.9600 O   0  0  0  0  0  0  0  0  0  0  0  0
  195.1060  171.6190  142.0240 C   0  0  0  0  0  0  0  0  0  0  0  0
  191.9390  175.2210  143.4650 C   0  0  0  0  0  2  0  0  0  0  0  0
  189.3140  174.8420  143.5340 S   0  0  0  0  0  0  0  0  0  0  0  0
  191.5000  175.8770  144.7310 N   0  0  0  0  0  0  0  0  0  0  0  0
  195.7810  169.4300  146.1090 O   0  0  0  0  0  0  0  0  0  0  0  0
  195.2500  170.3330  142.5760 C   0  0  0  0  0  3  0  0  0  0  0  0
  189.3490  174.4760  141.7850 C   0  0  0  0  0  0  0  0  0  0  0  0
  195.6180  169.0090  144.7620 C   0  0  0  0  0  3  0  0  0  0  0  0
  190.7630  175.9360  143.4350 C   0  0  1  0  0  3  0  0  0  0  0  0
  195.4450  170.2230  143.9510 C   0  0  0  0  0  0  0  0  0  0  0  0
  192.5780  173.3000  139.8740 C   0  0  0  0  0  2  0  0  0  0  0  0
  195.3850  172.6020  144.2460 C   0  0  0  0  0  0  0  0  0  0  0  0
  188.7500  173.7400  138.0260 O   0  0  0  0  0  0  0  0  0  0  0  0
  187.8160  172.2910  139.5280 O   0  0  0  0  0  1  0  0  0  0  0  0
  188.8370  172.9200  139.1440 C   0  0  0  0  0  0  0  0  0  0  0  0
  194.6880  176.7100  145.5100 C   0  0  0  0  0  0  0  0  0  0  0  0
  194.9410  177.9160  146.1500 O   0  0  0  0  0  1  0  0  0  0  0  0
  194.9110  176.6020  144.2750 O   0  0  0  0  0  0  0  0  0  0  0  0
  193.4600  171.9440  137.8410 C   0  0  0  0  0  2  0  0  0  0  0  0
  191.4410  170.8510  137.2750 O   0  0  0  0  0  0  0  0  0  0  0  0
  192.5440  171.2180  136.9040 C   0  0  0  0  0  3  0  0  0  0  0  0
  1 24  1  0  0  0  0
  2  3  1  0  0  0  0
  3 18  1  0  0  0  0
  4  9  1  0  0  0  0
  6 10  2  0  0  0  0
  7 29  2  0  0  0  0
  8  7  1  0  0  0  0
  9 33  1  6  0  0  0
  9 12  1  0  0  0  0
 11 36  1  6  0  0  0
 11 28  1  0  0  0  0
 11  2  1  0  0  0  0
 13 28  1  0  0  0  0
 13 15  1  0  0  0  0
 14  4  1  0  0  0  0
 15 32  1  6  0  0  0
 15  1  1  0  0  0  0
 16  5  2  0  0  0  0
 16 12  1  0  0  0  0
 17 24  2  0  0  0  0
 18 23  2  0  0  0  0
 18  7  1  0  0  0  0
 19 21  1  0  0  0  0
 21 16  1  0  0  0  0
 22 10  1  0  0  0  0
 23 27  1  0  0  0  0
 24 20  1  0  0  0  0
 25 22  1  0  0  0  0
 26 19  1  6  0  0  0
 26 20  1  0  0  0  0
 26 21  1  0  0  0  0
 27  6  1  0  0  0  0
 27 25  2  0  0  0  0
 29  6  1  0  0  0  0
 29 14  1  0  0  0  0
 30 32  2  0  0  0  0
 32 31  1  0  0  0  0
 33 34  1  0  0  0  0
 35 33  2  0  0  0  0
 38 37  2  0  0  0  0
 38 36  1  0  0  0  0
M  END
>  <MODEL>
9

>  <REMARK>
 VINA RESULT:      -6.2      3.727      7.913
  Name = 
  4 active torsions:
  status: ('A' for Active; 'I' for Inactive)
    1  A    between atoms: C_11  and  C_16
    2  A    between atoms: C_11  and  C_35
    3  A    between atoms: C_12  and  CA_13
    4  A    between atoms: CA_20  and  C_36
                            x       y       z     vdW  Elec       q    Type
                         _______ _______ _______ _____ _____    ______ ____

>  <TORSDO>
F 4

$$$$
