=
 OpenBabel11062420283D

 53 59  0  0  1  0  0  0  0  0999 V2000
  192.2340  171.2160  142.4760 C   0  0  0  0  0  2  0  0  0  0  0  0
  189.5280  174.7020  144.4510 C   0  0  2  0  0  3  0  0  0  0  0  0
  193.7400  172.0280  144.5670 C   0  0  1  0  0  0  0  0  0  0  0  0
  190.9100  171.3270  143.2100 C   0  0  2  0  0  3  0  0  0  0  0  0
  190.8000  175.1260  145.2110 C   0  0  0  0  0  2  0  0  0  0  0  0
  194.4600  171.4650  145.6090 F   0  0  0  0  0  0  0  0  0  0  0  0
  193.1100  174.1620  144.9800 C   0  0  0  0  0  2  0  0  0  0  0  0
  193.4260  171.0680  143.4210 C   0  0  1  0  0  0  0  0  0  0  0  0
  189.4560  173.1900  144.1660 C   0  0  1  0  0  3  0  0  0  0  0  0
  189.8060  171.6550  142.2290 C   0  0  0  0  0  2  0  0  0  0  0  0
  190.4260  172.7630  143.0580 C   0  0  2  0  0  3  0  0  0  0  0  0
  189.6470  172.4690  145.3500 O   0  0  0  0  0  1  0  0  0  0  0  0
  192.6520  172.8420  144.9110 O   0  0  0  0  0  0  0  0  0  0  0  0
  192.0660  175.0810  144.3560 C   0  0  2  0  0  3  0  0  0  0  0  0
  194.0200  169.8050  143.4950 O   0  0  0  0  0  1  0  0  0  0  0  0
  194.4120  172.2230  143.2050 C   0  0  2  0  0  3  0  0  0  0  0  0
  189.0090  177.9340  142.3550 C   0  0  0  0  0  2  0  0  0  0  0  0
  187.5450  176.6810  140.8000 C   0  0  0  0  0  2  0  0  0  0  0  0
  189.1670  177.0440  143.5970 C   0  0  0  0  0  2  0  0  0  0  0  0
  188.2580  175.4010  141.2480 C   0  0  0  0  0  2  0  0  0  0  0  0
  187.6880  177.8350  141.7070 N   0  0  0  0  0  0  0  0  0  0  0  0
  188.0480  175.1720  142.6090 O   0  0  0  0  0  0  0  0  0  0  0  0
  189.2480  175.5670  143.2160 C   0  0  2  0  0  3  0  0  0  0  0  0
  186.5960  177.8630  142.6790 C   0  0  0  0  0  2  0  0  0  0  0  0
  185.2740  178.1680  141.9930 C   0  0  0  0  0  2  0  0  0  0  0  0
  184.2150  177.9030  142.8640 O   0  0  0  0  0  1  0  0  0  0  0  0
  193.3480  177.0890  145.0550 C   0  0  0  0  0  2  0  0  0  0  0  0
  192.6200  176.4560  144.1320 C   0  0  0  0  0  3  0  0  0  0  0  0
  195.8720  171.7830  143.2310 C   0  0  0  0  0  2  0  0  0  0  0  0
  194.8270  174.7410  140.0730 N   0  0  0  0  0  0  0  0  0  0  0  0
  196.5860  172.3140  142.0360 C   0  0  0  0  0  3  0  0  0  0  0  0
  194.8250  172.4640  138.6230 S   0  0  0  0  0  0  0  0  0  0  0  0
  194.2310  175.1390  138.8080 C   0  0  0  0  0  2  0  0  0  0  0  0
  194.5650  174.0640  137.7730 C   0  0  2  0  0  3  0  0  0  0  0  0
  195.8970  172.8450  141.0670 C   0  0  0  0  0  0  0  0  0  0  0  0
  195.1820  173.3670  140.1070 C   0  0  0  0  0  0  0  0  0  0  0  0
  193.4190  173.9520  136.7780 C   0  0  0  0  0  2  0  0  0  0  0  0
  192.4710  172.7990  137.0960 C   0  0  1  0  0  3  0  0  0  0  0  0
  190.8460  171.4810  135.8200 O   0  0  0  0  0  0  0  0  0  0  0  0
  193.0940  170.8430  135.8070 O   0  0  0  0  0  1  0  0  0  0  0  0
  190.7790  172.3660  138.5990 C   0  0  2  0  0  3  0  0  0  0  0  0
  191.2570  173.2770  137.6260 O   0  0  0  0  0  0  0  0  0  0  0  0
  190.2800  170.0490  139.1470 O   0  0  0  0  0  1  0  0  0  0  0  0
  192.1960  171.9130  135.8740 C   0  0  2  0  0  3  0  0  0  0  0  0
  190.5670  170.4900  136.7950 C   0  0  0  0  0  2  0  0  0  0  0  0
  190.9480  170.8680  138.2370 C   0  0  1  0  0  3  0  0  0  0  0  0
  189.1060  173.6820  137.9940 C   0  0  0  0  0  1  0  0  0  0  0  0
  189.4370  172.6480  138.8720 O   0  0  0  0  0  0  0  0  0  0  0  0
  194.9490  175.6180  141.2420 C   0  0  0  0  0  2  0  0  0  0  0  0
  196.2530  176.4010  141.2480 C   0  0  0  0  0  2  0  0  0  0  0  0
  196.3210  175.5380  143.5570 C   0  0  0  0  0  2  0  0  0  0  0  0
  197.7460  175.7940  143.1170 C   0  0  0  0  0  2  0  0  0  0  0  0
  196.6380  176.7270  142.6750 C   0  0  0  0  0  3  0  0  0  0  0  0
  1  4  1  0  0  0  0
  1  8  1  0  0  0  0
  2  5  1  6  0  0  0
  3 13  1  0  0  0  0
  3  6  1  1  0  0  0
  4 10  1  6  0  0  0
  8 15  1  1  0  0  0
  8  3  1  0  0  0  0
  9  2  1  0  0  0  0
  9 12  1  1  0  0  0
 11 10  1  6  0  0  0
 11  4  1  0  0  0  0
 11  9  1  0  0  0  0
 13  7  1  0  0  0  0
 14 28  1  1  0  0  0
 14  7  1  0  0  0  0
 14  5  1  0  0  0  0
 16 29  1  1  0  0  0
 16  8  1  0  0  0  0
 16  3  1  0  0  0  0
 17 19  1  0  0  0  0
 18 20  1  0  0  0  0
 18 21  1  0  0  0  0
 20 22  1  0  0  0  0
 21 17  1  0  0  0  0
 21 24  1  0  0  0  0
 22 23  1  0  0  0  0
 23 19  1  1  0  0  0
 23  2  1  0  0  0  0
 25 24  1  0  0  0  0
 25 26  1  0  0  0  0
 28 27  2  0  0  0  0
 30 36  1  0  0  0  0
 30 49  1  0  0  0  0
 31 29  1  0  0  0  0
 32 36  1  0  0  0  0
 33 30  1  0  0  0  0
 34 37  1  6  0  0  0
 34 32  1  0  0  0  0
 34 33  1  0  0  0  0
 35 31  2  0  0  0  0
 36 35  2  0  0  0  0
 38 37  1  6  0  0  0
 38 42  1  0  0  0  0
 39 44  1  0  0  0  0
 39 45  1  0  0  0  0
 41 48  1  6  0  0  0
 42 41  1  0  0  0  0
 44 40  1  1  0  0  0
 44 38  1  0  0  0  0
 45 46  1  0  0  0  0
 46 41  1  0  0  0  0
 46 43  1  1  0  0  0
 47 48  1  0  0  0  0
 49 50  1  0  0  0  0
 50 53  1  0  0  0  0
 52 51  1  0  0  0  0
 53 52  1  0  0  0  0
 53 51  1  0  0  0  0
M  END
>  <MODEL>
1

>  <REMARK>
 VINA RESULT:      -6.5      0.000      0.000
  Name = 
  12 active torsions:
  status: ('A' for Active; 'I' for Inactive)
    1  A    between atoms: N_1  and  C_29
    2  A    between atoms: C_2  and  C_4
    3  A    between atoms: C_2  and  C_43
    4  A    between atoms: C_3  and  C_25
    5  A    between atoms: O_11  and  C_19
    6  A    between atoms: C_12  and  C_35
    7  A    between atoms: C_13  and  C_50
    8  A    between atoms: C_25  and  C_47
    9  A    between atoms: N_27  and  C_35
   10  A    between atoms: C_29  and  C_52
   11  A    between atoms: C_40  and  C_51
   12  A    between atoms: C_49  and  C_52
                            x       y       z     vdW  Elec       q    Type
                         _______ _______ _______ _____ _____    ______ ____

>  <TORSDO>
F 12

$$$$
=
 OpenBabel11062420283D

 53 59  0  0  1  0  0  0  0  0999 V2000
  190.2670  173.7670  137.8590 C   0  0  0  0  0  2  0  0  0  0  0  0
  188.5950  174.2580  142.3690 C   0  0  2  0  0  3  0  0  0  0  0  0
  192.2390  172.6750  139.3500 C   0  0  1  0  0  0  0  0  0  0  0  0
  189.1340  173.2100  138.7020 C   0  0  2  0  0  3  0  0  0  0  0  0
  190.0350  173.9670  142.8320 C   0  0  0  0  0  2  0  0  0  0  0  0
  193.0260  171.5340  139.3540 F   0  0  0  0  0  0  0  0  0  0  0  0
  192.0670  173.6390  141.3890 C   0  0  0  0  0  2  0  0  0  0  0  0
  191.5660  172.9750  138.0120 C   0  0  1  0  0  0  0  0  0  0  0  0
  188.2150  173.5500  141.0560 C   0  0  1  0  0  3  0  0  0  0  0  0
  187.9450  174.1430  138.6460 C   0  0  0  0  0  2  0  0  0  0  0  0
  188.8840  174.1950  139.8360 C   0  0  2  0  0  3  0  0  0  0  0  0
  188.4880  172.1810  141.1530 O   0  0  0  0  0  1  0  0  0  0  0  0
  191.3850  172.8660  140.4440 O   0  0  0  0  0  0  0  0  0  0  0  0
  191.1020  174.6580  141.9840 C   0  0  2  0  0  3  0  0  0  0  0  0
  191.9370  172.1620  136.9370 O   0  0  0  0  0  1  0  0  0  0  0  0
  192.6800  173.8920  138.5310 C   0  0  2  0  0  3  0  0  0  0  0  0
  187.9720  177.8090  143.8230 C   0  0  0  0  0  2  0  0  0  0  0  0
  186.4230  178.2950  141.9520 C   0  0  0  0  0  2  0  0  0  0  0  0
  188.1940  176.2890  143.8040 C   0  0  0  0  0  2  0  0  0  0  0  0
  187.1560  177.2210  141.1410 C   0  0  0  0  0  2  0  0  0  0  0  0
  186.6180  178.2250  143.4120 N   0  0  0  0  0  0  0  0  0  0  0  0
  187.0200  175.9700  141.7430 O   0  0  0  0  0  0  0  0  0  0  0  0
  188.2510  175.7530  142.3750 C   0  0  2  0  0  3  0  0  0  0  0  0
  185.5790  177.4010  144.0300 C   0  0  0  0  0  2  0  0  0  0  0  0
  184.6770  178.2470  144.9140 C   0  0  0  0  0  2  0  0  0  0  0  0
  185.4450  179.1620  145.6370 O   0  0  0  0  0  1  0  0  0  0  0  0
  191.5360  176.9990  142.6870 C   0  0  0  0  0  2  0  0  0  0  0  0
  191.8340  175.7010  142.7740 C   0  0  0  0  0  3  0  0  0  0  0  0
  194.0240  173.6540  137.8510 C   0  0  0  0  0  2  0  0  0  0  0  0
  197.1840  174.8110  140.7640 N   0  0  0  0  0  0  0  0  0  0  0  0
  194.8940  174.8520  138.0080 C   0  0  0  0  0  3  0  0  0  0  0  0
  195.2450  176.5690  141.4300 S   0  0  0  0  0  0  0  0  0  0  0  0
  197.6550  175.3880  142.0120 C   0  0  0  0  0  2  0  0  0  0  0  0
  196.8730  176.6790  142.2590 C   0  0  2  0  0  3  0  0  0  0  0  0
  195.4220  175.1070  139.1710 C   0  0  0  0  0  0  0  0  0  0  0  0
  195.9340  175.3430  140.3480 C   0  0  0  0  0  0  0  0  0  0  0  0
  196.6880  176.8760  143.7570 C   0  0  0  0  0  2  0  0  0  0  0  0
  195.6350  175.9450  144.3500 C   0  0  1  0  0  3  0  0  0  0  0  0
  194.6110  175.6620  146.5580 O   0  0  0  0  0  0  0  0  0  0  0  0
  193.7160  177.2350  145.0790 O   0  0  0  0  0  1  0  0  0  0  0  0
  195.2970  173.6730  144.5370 C   0  0  2  0  0  3  0  0  0  0  0  0
  196.2130  174.7300  144.7640 O   0  0  0  0  0  0  0  0  0  0  0  0
  193.0210  172.8590  144.8100 O   0  0  0  0  0  1  0  0  0  0  0  0
  194.8760  176.5890  145.5180 C   0  0  2  0  0  3  0  0  0  0  0  0
  193.5920  174.7420  146.2020 C   0  0  0  0  0  2  0  0  0  0  0  0
  193.8190  174.0010  144.8720 C   0  0  1  0  0  3  0  0  0  0  0  0
  196.8960  172.9370  145.8780 C   0  0  0  0  0  1  0  0  0  0  0  0
  195.7140  172.5440  145.2470 O   0  0  0  0  0  0  0  0  0  0  0  0
  197.8510  173.7150  140.0540 C   0  0  0  0  0  2  0  0  0  0  0  0
  197.6830  172.3780  140.7590 C   0  0  0  0  0  2  0  0  0  0  0  0
  196.2050  170.4280  141.0590 C   0  0  0  0  0  2  0  0  0  0  0  0
  195.4480  171.6550  141.5170 C   0  0  0  0  0  2  0  0  0  0  0  0
  196.3800  171.7410  140.3260 C   0  0  0  0  0  3  0  0  0  0  0  0
  1  8  1  0  0  0  0
  2 23  1  0  0  0  0
  2  5  1  6  0  0  0
  3  6  1  1  0  0  0
  3 13  1  0  0  0  0
  4  1  1  6  0  0  0
  4 11  1  0  0  0  0
  7 14  1  0  0  0  0
  8 15  1  6  0  0  0
  8 16  1  0  0  0  0
  8  3  1  0  0  0  0
  9 12  1  1  0  0  0
  9  2  1  0  0  0  0
 10  4  1  0  0  0  0
 11 10  1  6  0  0  0
 11  9  1  0  0  0  0
 13  7  1  0  0  0  0
 14 28  1  1  0  0  0
 14  5  1  0  0  0  0
 16 29  1  6  0  0  0
 16  3  1  0  0  0  0
 18 21  1  0  0  0  0
 19 17  1  0  0  0  0
 20 22  1  0  0  0  0
 20 18  1  0  0  0  0
 21 17  1  0  0  0  0
 21 24  1  0  0  0  0
 22 23  1  0  0  0  0
 23 19  1  1  0  0  0
 24 25  1  0  0  0  0
 25 26  1  0  0  0  0
 27 28  2  0  0  0  0
 29 31  1  0  0  0  0
 30 33  1  0  0  0  0
 31 35  2  0  0  0  0
 32 34  1  0  0  0  0
 33 34  1  0  0  0  0
 34 37  1  1  0  0  0
 35 36  2  0  0  0  0
 36 30  1  0  0  0  0
 36 32  1  0  0  0  0
 38 37  1  1  0  0  0
 38 42  1  0  0  0  0
 38 44  1  0  0  0  0
 41 42  1  0  0  0  0
 41 46  1  0  0  0  0
 41 48  1  1  0  0  0
 44 40  1  6  0  0  0
 44 39  1  0  0  0  0
 45 39  1  0  0  0  0
 46 43  1  1  0  0  0
 46 45  1  0  0  0  0
 48 47  1  0  0  0  0
 49 50  1  0  0  0  0
 49 30  1  0  0  0  0
 51 52  1  0  0  0  0
 53 50  1  0  0  0  0
 53 51  1  0  0  0  0
 53 52  1  0  0  0  0
M  END
>  <MODEL>
2

>  <REMARK>
 VINA RESULT:      -6.4      2.255      5.840
  Name = 
  12 active torsions:
  status: ('A' for Active; 'I' for Inactive)
    1  A    between atoms: N_1  and  C_29
    2  A    between atoms: C_2  and  C_4
    3  A    between atoms: C_2  and  C_43
    4  A    between atoms: C_3  and  C_25
    5  A    between atoms: O_11  and  C_19
    6  A    between atoms: C_12  and  C_35
    7  A    between atoms: C_13  and  C_50
    8  A    between atoms: C_25  and  C_47
    9  A    between atoms: N_27  and  C_35
   10  A    between atoms: C_29  and  C_52
   11  A    between atoms: C_40  and  C_51
   12  A    between atoms: C_49  and  C_52
                            x       y       z     vdW  Elec       q    Type
                         _______ _______ _______ _____ _____    ______ ____

>  <TORSDO>
F 12

$$$$
=
 OpenBabel11062420283D

 53 59  0  0  1  0  0  0  0  0999 V2000
  193.0190  174.5120  146.4100 C   0  0  0  0  0  2  0  0  0  0  0  0
  189.6790  176.9840  143.9390 C   0  0  2  0  0  3  0  0  0  0  0  0
  193.4290  173.6920  143.8680 C   0  0  1  0  0  0  0  0  0  0  0  0
  192.7380  175.9580  146.0430 C   0  0  2  0  0  3  0  0  0  0  0  0
  189.9400  175.9960  142.7850 C   0  0  0  0  0  2  0  0  0  0  0  0
  194.4900  173.5040  142.9960 F   0  0  0  0  0  0  0  0  0  0  0  0
  191.4530  173.9890  142.8050 C   0  0  0  0  0  2  0  0  0  0  0  0
  193.8260  173.7750  145.3400 C   0  0  1  0  0  0  0  0  0  0  0  0
  190.9180  177.2520  144.8120 C   0  0  1  0  0  3  0  0  0  0  0  0
  191.7870  176.5670  147.0500 C   0  0  0  0  0  2  0  0  0  0  0  0
  191.2530  176.0640  145.7230 C   0  0  2  0  0  3  0  0  0  0  0  0
  191.9990  177.6300  144.0080 O   0  0  0  0  0  1  0  0  0  0  0  0
  192.4690  174.6470  143.5070 O   0  0  0  0  0  0  0  0  0  0  0  0
  190.1050  174.5490  143.2460 C   0  0  2  0  0  3  0  0  0  0  0  0
  195.1650  173.5060  145.6340 O   0  0  0  0  0  1  0  0  0  0  0  0
  193.0320  172.5660  144.8270 C   0  0  2  0  0  3  0  0  0  0  0  0
  185.8940  176.6420  144.7570 C   0  0  0  0  0  2  0  0  0  0  0  0
  186.4040  176.8680  147.1700 C   0  0  0  0  0  2  0  0  0  0  0  0
  187.1640  177.0860  144.0130 C   0  0  0  0  0  2  0  0  0  0  0  0
  187.8210  176.3740  146.8600 C   0  0  0  0  0  2  0  0  0  0  0  0
  185.6440  177.3760  146.0120 N   0  0  0  0  0  0  0  0  0  0  0  0
  188.4760  177.2640  146.0070 O   0  0  0  0  0  0  0  0  0  0  0  0
  188.4250  176.6430  144.7530 C   0  0  2  0  0  3  0  0  0  0  0  0
  185.8450  178.8160  145.8570 C   0  0  0  0  0  2  0  0  0  0  0  0
  184.7700  179.4150  144.9650 C   0  0  0  0  0  2  0  0  0  0  0  0
  185.3610  180.1750  143.9540 O   0  0  0  0  0  1  0  0  0  0  0  0
  188.0160  174.1640  141.9620 C   0  0  0  0  0  2  0  0  0  0  0  0
  188.9770  173.6900  142.7580 C   0  0  0  0  0  3  0  0  0  0  0  0
  193.8920  171.3240  144.6210 C   0  0  0  0  0  2  0  0  0  0  0  0
  193.0860  169.0200  140.8980 N   0  0  0  0  0  0  0  0  0  0  0  0
  193.0280  170.1550  144.2970 C   0  0  0  0  0  3  0  0  0  0  0  0
  190.7010  170.2400  141.2380 S   0  0  0  0  0  0  0  0  0  0  0  0
  192.3900  168.7720  139.6470 C   0  0  0  0  0  2  0  0  0  0  0  0
  190.9010  169.0340  139.8760 C   0  0  2  0  0  3  0  0  0  0  0  0
  192.6660  169.9530  143.0620 C   0  0  0  0  0  0  0  0  0  0  0  0
  192.3130  169.7780  141.8180 C   0  0  0  0  0  0  0  0  0  0  0  0
  190.2830  169.5790  138.5960 C   0  0  0  0  0  2  0  0  0  0  0  0
  190.6830  171.0240  138.3160 C   0  0  1  0  0  3  0  0  0  0  0  0
  189.8220  172.8200  136.8880 O   0  0  0  0  0  0  0  0  0  0  0  0
  188.9060  172.5180  139.0160 O   0  0  0  0  0  1  0  0  0  0  0  0
  192.5660  172.1560  137.6220 C   0  0  2  0  0  3  0  0  0  0  0  0
  191.6830  171.0880  137.3270 O   0  0  0  0  0  0  0  0  0  0  0  0
  192.7950  174.5020  138.2190 O   0  0  0  0  0  1  0  0  0  0  0  0
  189.4850  171.8930  137.9070 C   0  0  2  0  0  3  0  0  0  0  0  0
  190.6220  173.8830  137.3800 C   0  0  0  0  0  2  0  0  0  0  0  0
  191.8860  173.4480  138.1430 C   0  0  1  0  0  3  0  0  0  0  0  0
  194.5230  171.7250  136.6810 C   0  0  0  0  0  1  0  0  0  0  0  0
  193.3380  172.4380  136.4910 O   0  0  0  0  0  0  0  0  0  0  0  0
  194.4780  168.6410  141.1610 C   0  0  0  0  0  2  0  0  0  0  0  0
  195.4710  169.5320  140.4330 C   0  0  0  0  0  2  0  0  0  0  0  0
  196.7220  170.5050  142.3210 C   0  0  0  0  0  2  0  0  0  0  0  0
  197.1410  171.2360  141.0650 C   0  0  0  0  0  2  0  0  0  0  0  0
  195.7030  170.7920  141.2390 C   0  0  0  0  0  3  0  0  0  0  0  0
  2  5  1  6  0  0  0
  2 23  1  0  0  0  0
  2  9  1  0  0  0  0
  3  6  1  6  0  0  0
  3 16  1  0  0  0  0
  3  8  1  0  0  0  0
  4  1  1  1  0  0  0
  4 10  1  0  0  0  0
  5 14  1  0  0  0  0
  7 14  1  0  0  0  0
  7 13  1  0  0  0  0
  8 15  1  1  0  0  0
  8  1  1  0  0  0  0
  9 12  1  6  0  0  0
  9 11  1  0  0  0  0
 11  4  1  0  0  0  0
 11 10  1  1  0  0  0
 13  3  1  0  0  0  0
 14 28  1  6  0  0  0
 16 29  1  6  0  0  0
 16  8  1  0  0  0  0
 17 21  1  0  0  0  0
 19 17  1  0  0  0  0
 20 18  1  0  0  0  0
 21 18  1  0  0  0  0
 22 20  1  0  0  0  0
 23 19  1  6  0  0  0
 23 22  1  0  0  0  0
 24 21  1  0  0  0  0
 25 24  1  0  0  0  0
 26 25  1  0  0  0  0
 27 28  2  0  0  0  0
 30 49  1  0  0  0  0
 30 36  1  0  0  0  0
 31 29  1  0  0  0  0
 32 36  1  0  0  0  0
 33 34  1  0  0  0  0
 33 30  1  0  0  0  0
 34 37  1  6  0  0  0
 34 32  1  0  0  0  0
 35 31  2  0  0  0  0
 36 35  2  0  0  0  0
 38 37  1  6  0  0  0
 39 45  1  0  0  0  0
 39 44  1  0  0  0  0
 41 48  1  6  0  0  0
 41 46  1  0  0  0  0
 42 41  1  0  0  0  0
 42 38  1  0  0  0  0
 44 38  1  0  0  0  0
 44 40  1  1  0  0  0
 45 46  1  0  0  0  0
 46 43  1  6  0  0  0
 48 47  1  0  0  0  0
 50 49  1  0  0  0  0
 50 53  1  0  0  0  0
 52 53  1  0  0  0  0
 52 51  1  0  0  0  0
 53 51  1  0  0  0  0
M  END
>  <MODEL>
3

>  <REMARK>
 VINA RESULT:      -6.2      2.690      4.588
  Name = 
  12 active torsions:
  status: ('A' for Active; 'I' for Inactive)
    1  A    between atoms: N_1  and  C_29
    2  A    between atoms: C_2  and  C_4
    3  A    between atoms: C_2  and  C_43
    4  A    between atoms: C_3  and  C_25
    5  A    between atoms: O_11  and  C_19
    6  A    between atoms: C_12  and  C_35
    7  A    between atoms: C_13  and  C_50
    8  A    between atoms: C_25  and  C_47
    9  A    between atoms: N_27  and  C_35
   10  A    between atoms: C_29  and  C_52
   11  A    between atoms: C_40  and  C_51
   12  A    between atoms: C_49  and  C_52
                            x       y       z     vdW  Elec       q    Type
                         _______ _______ _______ _____ _____    ______ ____

>  <TORSDO>
F 12

$$$$
=
 OpenBabel11062420283D

 53 59  0  0  1  0  0  0  0  0999 V2000
  196.1070  174.5390  141.6590 C   0  0  0  0  0  2  0  0  0  0  0  0
  193.0210  170.8940  140.9070 C   0  0  2  0  0  3  0  0  0  0  0  0
  195.3820  173.8430  144.1670 C   0  0  1  0  0  0  0  0  0  0  0  0
  196.1590  173.1170  141.1320 C   0  0  2  0  0  3  0  0  0  0  0  0
  192.5780  171.0950  142.3690 C   0  0  0  0  0  2  0  0  0  0  0  0
  195.9850  173.5900  145.3890 F   0  0  0  0  0  0  0  0  0  0  0  0
  193.3470  172.8760  143.9680 C   0  0  0  0  0  2  0  0  0  0  0  0
  196.2540  174.6160  143.1780 C   0  0  1  0  0  0  0  0  0  0  0  0
  194.5010  171.2380  140.6590 C   0  0  1  0  0  3  0  0  0  0  0  0
  195.8240  173.1030  139.6570 C   0  0  0  0  0  2  0  0  0  0  0  0
  194.7550  172.7500  140.6720 C   0  0  2  0  0  3  0  0  0  0  0  0
  195.3120  170.5530  141.5720 O   0  0  0  0  0  1  0  0  0  0  0  0
  194.6840  172.7860  143.5690 O   0  0  0  0  0  0  0  0  0  0  0  0
  192.4530  172.5630  142.7730 C   0  0  2  0  0  3  0  0  0  0  0  0
  197.4720  175.0920  143.6710 O   0  0  0  0  0  1  0  0  0  0  0  0
  195.0160  175.2820  143.7910 C   0  0  2  0  0  3  0  0  0  0  0  0
  189.7180  171.5320  138.9590 C   0  0  0  0  0  2  0  0  0  0  0  0
  191.0270  172.3550  137.0250 C   0  0  0  0  0  2  0  0  0  0  0  0
  190.7230  170.8210  139.8780 C   0  0  0  0  0  2  0  0  0  0  0  0
  192.1630  172.6780  138.0010 C   0  0  0  0  0  2  0  0  0  0  0  0
  190.0190  171.4000  137.5210 N   0  0  0  0  0  0  0  0  0  0  0  0
  192.6330  171.5140  138.6120 O   0  0  0  0  0  0  0  0  0  0  0  0
  192.0700  171.5420  139.8930 C   0  0  2  0  0  3  0  0  0  0  0  0
  190.3860  170.0310  137.1600 C   0  0  0  0  0  2  0  0  0  0  0  0
  190.9090  169.9740  135.7330 C   0  0  0  0  0  2  0  0  0  0  0  0
  192.0960  169.2410  135.6930 O   0  0  0  0  0  1  0  0  0  0  0  0
  190.2690  172.2410  143.9100 C   0  0  0  0  0  2  0  0  0  0  0  0
  191.0260  172.9310  143.0540 C   0  0  0  0  0  3  0  0  0  0  0  0
  195.3490  176.2580  144.9140 C   0  0  0  0  0  2  0  0  0  0  0  0
  191.0420  175.6450  145.8530 N   0  0  0  0  0  0  0  0  0  0  0  0
  194.2020  177.1790  145.1460 C   0  0  0  0  0  3  0  0  0  0  0  0
  190.8550  176.6160  143.3400 S   0  0  0  0  0  0  0  0  0  0  0  0
  189.6520  175.4130  145.4960 C   0  0  0  0  0  2  0  0  0  0  0  0
  189.3240  176.2920  144.2880 C   0  0  2  0  0  3  0  0  0  0  0  0
  192.9880  176.7360  144.9860 C   0  0  0  0  0  0  0  0  0  0  0  0
  191.7810  176.2690  144.8130 C   0  0  0  0  0  0  0  0  0  0  0  0
  188.3030  175.5800  143.4110 C   0  0  0  0  0  2  0  0  0  0  0  0
  187.1590  176.4920  142.9780 C   0  0  1  0  0  3  0  0  0  0  0  0
  186.9820  178.5590  141.6740 O   0  0  0  0  0  0  0  0  0  0  0  0
  186.9910  176.5050  140.5590 O   0  0  0  0  0  1  0  0  0  0  0  0
  185.4510  177.6610  143.9890 C   0  0  2  0  0  3  0  0  0  0  0  0
  186.8480  177.4230  143.9860 O   0  0  0  0  0  0  0  0  0  0  0  0
  183.4740  178.1950  142.6760 O   0  0  0  0  0  1  0  0  0  0  0  0
  187.4610  177.2240  141.6630 C   0  0  2  0  0  3  0  0  0  0  0  0
  185.5690  178.6170  141.5610 C   0  0  0  0  0  2  0  0  0  0  0  0
  184.7990  177.7670  142.5870 C   0  0  1  0  0  3  0  0  0  0  0  0
  184.9740  178.3560  146.0360 C   0  0  0  0  0  1  0  0  0  0  0  0
  185.1840  178.8140  144.7340 O   0  0  0  0  0  0  0  0  0  0  0  0
  191.6630  175.1890  147.1000 C   0  0  0  0  0  2  0  0  0  0  0  0
  191.1210  175.9160  148.3210 C   0  0  0  0  0  2  0  0  0  0  0  0
  190.4090  178.2540  148.6470 C   0  0  0  0  0  2  0  0  0  0  0  0
  191.4660  177.9440  149.6840 C   0  0  0  0  0  2  0  0  0  0  0  0
  191.5780  177.3590  148.2910 C   0  0  0  0  0  3  0  0  0  0  0  0
  1  8  1  0  0  0  0
  2  5  1  1  0  0  0
  3  6  1  1  0  0  0
  4 10  1  6  0  0  0
  4  1  1  0  0  0  0
  5 14  1  0  0  0  0
  8 15  1  1  0  0  0
  8 16  1  0  0  0  0
  8  3  1  0  0  0  0
  9 11  1  0  0  0  0
  9  2  1  0  0  0  0
  9 12  1  1  0  0  0
 11 10  1  6  0  0  0
 11  4  1  0  0  0  0
 13  7  1  0  0  0  0
 13  3  1  0  0  0  0
 14 28  1  1  0  0  0
 14  7  1  0  0  0  0
 16  3  1  0  0  0  0
 16 29  1  1  0  0  0
 17 19  1  0  0  0  0
 18 21  1  0  0  0  0
 18 20  1  0  0  0  0
 20 22  1  0  0  0  0
 21 17  1  0  0  0  0
 22 23  1  0  0  0  0
 23 19  1  6  0  0  0
 23  2  1  0  0  0  0
 24 21  1  0  0  0  0
 25 24  1  0  0  0  0
 26 25  1  0  0  0  0
 28 27  2  0  0  0  0
 29 31  1  0  0  0  0
 30 49  1  0  0  0  0
 32 34  1  0  0  0  0
 32 36  1  0  0  0  0
 33 30  1  0  0  0  0
 34 37  1  6  0  0  0
 34 33  1  0  0  0  0
 35 31  2  0  0  0  0
 36 35  2  0  0  0  0
 36 30  1  0  0  0  0
 38 37  1  1  0  0  0
 38 42  1  0  0  0  0
 41 48  1  6  0  0  0
 42 41  1  0  0  0  0
 44 40  1  6  0  0  0
 44 39  1  0  0  0  0
 44 38  1  0  0  0  0
 45 39  1  0  0  0  0
 45 46  1  0  0  0  0
 46 43  1  1  0  0  0
 46 41  1  0  0  0  0
 48 47  1  0  0  0  0
 49 50  1  0  0  0  0
 51 52  1  0  0  0  0
 53 50  1  0  0  0  0
 53 51  1  0  0  0  0
 53 52  1  0  0  0  0
M  END
>  <MODEL>
4

>  <REMARK>
 VINA RESULT:      -6.2      2.616      7.595
  Name = 
  12 active torsions:
  status: ('A' for Active; 'I' for Inactive)
    1  A    between atoms: N_1  and  C_29
    2  A    between atoms: C_2  and  C_4
    3  A    between atoms: C_2  and  C_43
    4  A    between atoms: C_3  and  C_25
    5  A    between atoms: O_11  and  C_19
    6  A    between atoms: C_12  and  C_35
    7  A    between atoms: C_13  and  C_50
    8  A    between atoms: C_25  and  C_47
    9  A    between atoms: N_27  and  C_35
   10  A    between atoms: C_29  and  C_52
   11  A    between atoms: C_40  and  C_51
   12  A    between atoms: C_49  and  C_52
                            x       y       z     vdW  Elec       q    Type
                         _______ _______ _______ _____ _____    ______ ____

>  <TORSDO>
F 12

$$$$
=
 OpenBabel11062420283D

 53 59  0  0  1  0  0  0  0  0999 V2000
  194.8000  175.8280  142.1350 C   0  0  0  0  0  2  0  0  0  0  0  0
  195.7040  171.6390  139.8970 C   0  0  2  0  0  3  0  0  0  0  0  0
  196.2420  174.4690  143.9720 C   0  0  1  0  0  0  0  0  0  0  0  0
  195.6060  175.3450  140.9430 C   0  0  2  0  0  3  0  0  0  0  0  0
  196.0880  171.0910  141.2840 C   0  0  0  0  0  2  0  0  0  0  0  0
  197.3170  174.6900  144.8200 F   0  0  0  0  0  0  0  0  0  0  0  0
  195.9300  172.2790  143.4940 C   0  0  0  0  0  2  0  0  0  0  0  0
  195.5740  175.7390  143.4510 C   0  0  1  0  0  0  0  0  0  0  0  0
  195.9980  173.1400  139.7240 C   0  0  1  0  0  3  0  0  0  0  0  0
  194.7240  175.2860  139.7160 C   0  0  0  0  0  2  0  0  0  0  0  0
  195.0070  174.0180  140.4970 C   0  0  2  0  0  3  0  0  0  0  0  0
  197.3290  173.4100  140.0640 O   0  0  0  0  0  1  0  0  0  0  0  0
  196.4030  173.4910  142.9810 O   0  0  0  0  0  0  0  0  0  0  0  0
  195.1540  171.5500  142.4030 C   0  0  2  0  0  3  0  0  0  0  0  0
  196.0240  176.9430  144.0000 O   0  0  0  0  0  1  0  0  0  0  0  0
  194.8280  174.8300  144.4360 C   0  0  2  0  0  3  0  0  0  0  0  0
  192.7110  169.3100  139.0420 C   0  0  0  0  0  2  0  0  0  0  0  0
  191.8230  171.0310  137.4980 C   0  0  0  0  0  2  0  0  0  0  0  0
  194.1570  169.7270  139.3540 C   0  0  0  0  0  2  0  0  0  0  0  0
  192.5990  172.0760  138.3060 C   0  0  0  0  0  2  0  0  0  0  0  0
  192.2720  169.6370  137.6730 N   0  0  0  0  0  0  0  0  0  0  0  0
  193.9720  171.8340  138.2340 O   0  0  0  0  0  0  0  0  0  0  0  0
  194.2860  171.2450  139.4650 C   0  0  2  0  0  3  0  0  0  0  0  0
  193.2850  169.2940  136.6750 C   0  0  0  0  0  2  0  0  0  0  0  0
  192.7920  168.1760  135.7710 C   0  0  0  0  0  2  0  0  0  0  0  0
  191.7470  168.6400  134.9690 O   0  0  0  0  0  1  0  0  0  0  0  0
  194.8620  169.1560  142.9910 C   0  0  0  0  0  2  0  0  0  0  0  0
  194.3770  170.3980  142.9690 C   0  0  0  0  0  3  0  0  0  0  0  0
  194.8250  175.3620  145.8640 C   0  0  0  0  0  2  0  0  0  0  0  0
  190.7720  174.6580  144.1660 N   0  0  0  0  0  0  0  0  0  0  0  0
  193.4680  175.2180  146.4590 C   0  0  0  0  0  3  0  0  0  0  0  0
  190.4970  177.1990  145.0350 S   0  0  0  0  0  0  0  0  0  0  0  0
  189.5130  175.0890  143.5800 C   0  0  0  0  0  2  0  0  0  0  0  0
  189.0450  176.3340  144.3340 C   0  0  2  0  0  3  0  0  0  0  0  0
  192.4200  175.4370  145.7160 C   0  0  0  0  0  0  0  0  0  0  0  0
  191.3880  175.6680  144.9520 C   0  0  0  0  0  0  0  0  0  0  0  0
  188.2980  177.2510  143.3750 C   0  0  0  0  0  2  0  0  0  0  0  0
  186.9640  177.7310  143.9370 C   0  0  1  0  0  3  0  0  0  0  0  0
  185.4760  179.6300  143.5010 O   0  0  0  0  0  0  0  0  0  0  0  0
  185.2810  177.7040  142.1910 O   0  0  0  0  0  1  0  0  0  0  0  0
  186.0870  178.2570  146.0020 C   0  0  2  0  0  3  0  0  0  0  0  0
  187.1540  178.4980  145.1020 O   0  0  0  0  0  0  0  0  0  0  0  0
  183.6790  178.1090  146.3110 O   0  0  0  0  0  1  0  0  0  0  0  0
  186.1510  178.5310  142.9100 C   0  0  2  0  0  3  0  0  0  0  0  0
  184.3690  179.2140  144.2830 C   0  0  0  0  0  2  0  0  0  0  0  0
  184.6860  178.1480  145.3470 C   0  0  1  0  0  3  0  0  0  0  0  0
  186.7390  178.6710  148.0760 C   0  0  0  0  0  1  0  0  0  0  0  0
  186.0840  179.2490  146.9870 O   0  0  0  0  0  0  0  0  0  0  0  0
  191.4120  173.3660  143.8960 C   0  0  0  0  0  2  0  0  0  0  0  0
  191.8450  173.2240  142.4460 C   0  0  0  0  0  2  0  0  0  0  0  0
  190.0310  171.5550  142.4700 C   0  0  0  0  0  2  0  0  0  0  0  0
  190.1750  172.0590  141.0510 C   0  0  0  0  0  2  0  0  0  0  0  0
  191.4040  171.8760  141.9180 C   0  0  0  0  0  3  0  0  0  0  0  0
  1  8  1  0  0  0  0
  2  5  1  1  0  0  0
  3 16  1  0  0  0  0
  3  6  1  1  0  0  0
  4 10  1  6  0  0  0
  4  1  1  0  0  0  0
  5 14  1  0  0  0  0
  8  3  1  0  0  0  0
  8 15  1  1  0  0  0
  8 16  1  0  0  0  0
  9  2  1  0  0  0  0
  9 12  1  1  0  0  0
  9 11  1  0  0  0  0
 11 10  1  6  0  0  0
 11  4  1  0  0  0  0
 13  7  1  0  0  0  0
 13  3  1  0  0  0  0
 14 28  1  1  0  0  0
 14  7  1  0  0  0  0
 16 29  1  1  0  0  0
 17 19  1  0  0  0  0
 18 21  1  0  0  0  0
 18 20  1  0  0  0  0
 21 17  1  0  0  0  0
 22 20  1  0  0  0  0
 22 23  1  0  0  0  0
 23 19  1  6  0  0  0
 23  2  1  0  0  0  0
 24 21  1  0  0  0  0
 25 24  1  0  0  0  0
 26 25  1  0  0  0  0
 28 27  2  0  0  0  0
 29 31  1  0  0  0  0
 30 36  1  0  0  0  0
 33 30  1  0  0  0  0
 33 34  1  0  0  0  0
 34 37  1  6  0  0  0
 34 32  1  0  0  0  0
 35 31  2  0  0  0  0
 36 32  1  0  0  0  0
 36 35  2  0  0  0  0
 38 37  1  6  0  0  0
 38 42  1  0  0  0  0
 39 45  1  0  0  0  0
 41 48  1  1  0  0  0
 42 41  1  0  0  0  0
 44 40  1  1  0  0  0
 44 39  1  0  0  0  0
 44 38  1  0  0  0  0
 45 46  1  0  0  0  0
 46 41  1  0  0  0  0
 46 43  1  1  0  0  0
 48 47  1  0  0  0  0
 49 30  1  0  0  0  0
 50 49  1  0  0  0  0
 52 53  1  0  0  0  0
 52 51  1  0  0  0  0
 53 50  1  0  0  0  0
 53 51  1  0  0  0  0
M  END
>  <MODEL>
5

>  <REMARK>
 VINA RESULT:      -6.0      2.986      8.647
  Name = 
  12 active torsions:
  status: ('A' for Active; 'I' for Inactive)
    1  A    between atoms: N_1  and  C_29
    2  A    between atoms: C_2  and  C_4
    3  A    between atoms: C_2  and  C_43
    4  A    between atoms: C_3  and  C_25
    5  A    between atoms: O_11  and  C_19
    6  A    between atoms: C_12  and  C_35
    7  A    between atoms: C_13  and  C_50
    8  A    between atoms: C_25  and  C_47
    9  A    between atoms: N_27  and  C_35
   10  A    between atoms: C_29  and  C_52
   11  A    between atoms: C_40  and  C_51
   12  A    between atoms: C_49  and  C_52
                            x       y       z     vdW  Elec       q    Type
                         _______ _______ _______ _____ _____    ______ ____

>  <TORSDO>
F 12

$$$$
=
 OpenBabel11062420283D

 53 59  0  0  1  0  0  0  0  0999 V2000
  194.6040  175.7620  142.4090 C   0  0  0  0  0  2  0  0  0  0  0  0
  195.4700  171.5230  140.2510 C   0  0  2  0  0  3  0  0  0  0  0  0
  195.8800  174.3610  144.3350 C   0  0  1  0  0  0  0  0  0  0  0  0
  195.4590  175.2380  141.2700 C   0  0  2  0  0  3  0  0  0  0  0  0
  195.7500  170.9710  141.6620 C   0  0  0  0  0  2  0  0  0  0  0  0
  196.9100  174.5460  145.2440 F   0  0  0  0  0  0  0  0  0  0  0  0
  195.5090  172.1820  143.8520 C   0  0  0  0  0  2  0  0  0  0  0  0
  195.2940  175.6530  143.7680 C   0  0  1  0  0  0  0  0  0  0  0  0
  195.8340  173.0100  140.0870 C   0  0  1  0  0  3  0  0  0  0  0  0
  194.6490  175.2050  139.9930 C   0  0  0  0  0  2  0  0  0  0  0  0
  194.8350  173.9330  140.7960 C   0  0  2  0  0  3  0  0  0  0  0  0
  197.1520  173.2300  140.5050 O   0  0  0  0  0  1  0  0  0  0  0  0
  196.0600  173.3700  143.3610 O   0  0  0  0  0  0  0  0  0  0  0  0
  194.7700  171.4750  142.7210 C   0  0  2  0  0  3  0  0  0  0  0  0
  195.7590  176.8420  144.3370 O   0  0  0  0  0  1  0  0  0  0  0  0
  194.4570  174.7820  144.7120 C   0  0  2  0  0  3  0  0  0  0  0  0
  192.4370  169.3090  139.2450 C   0  0  0  0  0  2  0  0  0  0  0  0
  191.7200  171.0410  137.6270 C   0  0  0  0  0  2  0  0  0  0  0  0
  193.8780  169.6700  139.6390 C   0  0  0  0  0  2  0  0  0  0  0  0
  192.4890  172.0650  138.4670 C   0  0  0  0  0  2  0  0  0  0  0  0
  192.0970  169.6320  137.8460 N   0  0  0  0  0  0  0  0  0  0  0  0
  193.8520  171.7650  138.4820 O   0  0  0  0  0  0  0  0  0  0  0  0
  194.0650  171.1830  139.7380 C   0  0  2  0  0  3  0  0  0  0  0  0
  193.1530  169.2320  136.9170 C   0  0  0  0  0  2  0  0  0  0  0  0
  192.7980  169.6360  135.4950 C   0  0  0  0  0  2  0  0  0  0  0  0
  191.8940  168.7190  134.9540 O   0  0  0  0  0  1  0  0  0  0  0  0
  193.0840  170.5270  144.2770 C   0  0  0  0  0  2  0  0  0  0  0  0
  193.9150  170.3600  143.2460 C   0  0  0  0  0  3  0  0  0  0  0  0
  194.3900  175.3250  146.1360 C   0  0  0  0  0  2  0  0  0  0  0  0
  190.5490  175.3110  143.8870 N   0  0  0  0  0  0  0  0  0  0  0  0
  192.9780  175.6210  146.5030 C   0  0  0  0  0  3  0  0  0  0  0  0
  190.8460  177.9590  144.3210 S   0  0  0  0  0  0  0  0  0  0  0  0
  189.5360  175.9150  143.0380 C   0  0  0  0  0  2  0  0  0  0  0  0
  189.3200  177.3520  143.5130 C   0  0  2  0  0  3  0  0  0  0  0  0
  192.1310  175.9430  145.5680 C   0  0  0  0  0  0  0  0  0  0  0  0
  191.3030  176.2700  144.6130 C   0  0  0  0  0  0  0  0  0  0  0  0
  188.9720  178.2300  142.3190 C   0  0  0  0  0  2  0  0  0  0  0  0
  187.4780  178.2400  142.0090 C   0  0  1  0  0  3  0  0  0  0  0  0
  185.5120  177.0720  142.8910 O   0  0  0  0  0  0  0  0  0  0  0  0
  186.2440  179.0270  143.9420 O   0  0  0  0  0  1  0  0  0  0  0  0
  186.1290  177.9210  140.1690 C   0  0  2  0  0  3  0  0  0  0  0  0
  187.1790  177.3690  140.9450 O   0  0  0  0  0  0  0  0  0  0  0  0
  183.9170  178.9310  140.1640 O   0  0  0  0  0  1  0  0  0  0  0  0
  186.6250  177.8830  143.2340 C   0  0  2  0  0  3  0  0  0  0  0  0
  184.5080  177.8090  142.2130 C   0  0  0  0  0  2  0  0  0  0  0  0
  184.9940  178.5940  140.9830 C   0  0  1  0  0  3  0  0  0  0  0  0
  186.6070  176.6810  138.3990 C   0  0  0  0  0  1  0  0  0  0  0  0
  185.6030  176.9280  139.3370 O   0  0  0  0  0  0  0  0  0  0  0  0
  190.8550  173.8770  143.9200 C   0  0  0  0  0  2  0  0  0  0  0  0
  191.3430  173.3560  142.5770 C   0  0  0  0  0  2  0  0  0  0  0  0
  189.1320  172.2910  142.3500 C   0  0  0  0  0  2  0  0  0  0  0  0
  189.7990  172.2640  140.9920 C   0  0  0  0  0  2  0  0  0  0  0  0
  190.6250  172.0650  142.2460 C   0  0  0  0  0  3  0  0  0  0  0  0
  1  8  1  0  0  0  0
  2  5  1  1  0  0  0
  3 16  1  0  0  0  0
  3  6  1  1  0  0  0
  4 10  1  6  0  0  0
  4  1  1  0  0  0  0
  5 14  1  0  0  0  0
  8  3  1  0  0  0  0
  8 15  1  1  0  0  0
  8 16  1  0  0  0  0
  9  2  1  0  0  0  0
  9 12  1  1  0  0  0
  9 11  1  0  0  0  0
 11 10  1  6  0  0  0
 11  4  1  0  0  0  0
 13  7  1  0  0  0  0
 13  3  1  0  0  0  0
 14 28  1  1  0  0  0
 14  7  1  0  0  0  0
 16 29  1  1  0  0  0
 17 19  1  0  0  0  0
 18 21  1  0  0  0  0
 18 20  1  0  0  0  0
 20 22  1  0  0  0  0
 21 17  1  0  0  0  0
 22 23  1  0  0  0  0
 23 19  1  6  0  0  0
 23  2  1  0  0  0  0
 24 21  1  0  0  0  0
 25 24  1  0  0  0  0
 26 25  1  0  0  0  0
 28 27  2  0  0  0  0
 29 31  1  0  0  0  0
 30 49  1  0  0  0  0
 30 36  1  0  0  0  0
 32 36  1  0  0  0  0
 33 34  1  0  0  0  0
 33 30  1  0  0  0  0
 34 37  1  6  0  0  0
 34 32  1  0  0  0  0
 35 31  2  0  0  0  0
 36 35  2  0  0  0  0
 38 37  1  1  0  0  0
 38 44  1  0  0  0  0
 39 44  1  0  0  0  0
 41 48  1  1  0  0  0
 41 42  1  0  0  0  0
 41 46  1  0  0  0  0
 42 38  1  0  0  0  0
 44 40  1  6  0  0  0
 45 39  1  0  0  0  0
 46 43  1  6  0  0  0
 46 45  1  0  0  0  0
 47 48  1  0  0  0  0
 50 49  1  0  0  0  0
 52 53  1  0  0  0  0
 52 51  1  0  0  0  0
 53 51  1  0  0  0  0
 53 50  1  0  0  0  0
M  END
>  <MODEL>
6

>  <REMARK>
 VINA RESULT:      -5.8      2.720      7.955
  Name = 
  12 active torsions:
  status: ('A' for Active; 'I' for Inactive)
    1  A    between atoms: N_1  and  C_29
    2  A    between atoms: C_2  and  C_4
    3  A    between atoms: C_2  and  C_43
    4  A    between atoms: C_3  and  C_25
    5  A    between atoms: O_11  and  C_19
    6  A    between atoms: C_12  and  C_35
    7  A    between atoms: C_13  and  C_50
    8  A    between atoms: C_25  and  C_47
    9  A    between atoms: N_27  and  C_35
   10  A    between atoms: C_29  and  C_52
   11  A    between atoms: C_40  and  C_51
   12  A    between atoms: C_49  and  C_52
                            x       y       z     vdW  Elec       q    Type
                         _______ _______ _______ _____ _____    ______ ____

>  <TORSDO>
F 12

$$$$
=
 OpenBabel11062420283D

 53 59  0  0  1  0  0  0  0  0999 V2000
  196.1920  173.1710  142.4820 C   0  0  0  0  0  2  0  0  0  0  0  0
  193.1100  169.7310  141.0550 C   0  0  2  0  0  3  0  0  0  0  0  0
  195.2470  172.2070  144.8230 C   0  0  1  0  0  0  0  0  0  0  0  0
  196.2610  171.8190  141.7950 C   0  0  2  0  0  3  0  0  0  0  0  0
  192.5490  169.7720  142.4890 C   0  0  0  0  0  2  0  0  0  0  0  0
  195.7410  171.7940  146.0510 F   0  0  0  0  0  0  0  0  0  0  0  0
  193.2170  171.3290  144.3460 C   0  0  0  0  0  2  0  0  0  0  0  0
  196.2130  173.0640  144.0070 C   0  0  1  0  0  0  0  0  0  0  0  0
  194.6120  170.0580  140.9700 C   0  0  1  0  0  3  0  0  0  0  0  0
  196.0500  171.9880  140.3070 C   0  0  0  0  0  2  0  0  0  0  0  0
  194.8920  171.5500  141.1840 C   0  0  2  0  0  3  0  0  0  0  0  0
  195.3300  169.2470  141.8560 O   0  0  0  0  0  1  0  0  0  0  0  0
  194.5810  171.2480  144.0480 O   0  0  0  0  0  0  0  0  0  0  0  0
  192.4200  171.1860  143.0550 C   0  0  2  0  0  3  0  0  0  0  0  0
  197.3950  173.4430  144.6490 O   0  0  0  0  0  1  0  0  0  0  0  0
  194.9420  173.6900  144.5930 C   0  0  2  0  0  3  0  0  0  0  0  0
  189.9710  170.7350  138.9930 C   0  0  0  0  0  2  0  0  0  0  0  0
  191.4380  171.6410  137.2150 C   0  0  0  0  0  2  0  0  0  0  0  0
  190.8770  169.8870  139.8980 C   0  0  0  0  0  2  0  0  0  0  0  0
  192.5290  171.8080  138.2780 C   0  0  0  0  0  2  0  0  0  0  0  0
  190.3500  170.7100  137.5670 N   0  0  0  0  0  0  0  0  0  0  0  0
  192.8960  170.5690  138.8060 O   0  0  0  0  0  0  0  0  0  0  0  0
  192.2590  170.5210  140.0520 C   0  0  2  0  0  3  0  0  0  0  0  0
  190.6610  169.3580  137.1050 C   0  0  0  0  0  2  0  0  0  0  0  0
  191.3780  169.3990  135.7660 C   0  0  0  0  0  2  0  0  0  0  0  0
  192.4250  168.4760  135.7600 O   0  0  0  0  0  1  0  0  0  0  0  0
  190.3800  172.5000  142.5320 C   0  0  0  0  0  2  0  0  0  0  0  0
  190.9820  171.5590  143.2620 C   0  0  0  0  0  3  0  0  0  0  0  0
  195.1990  174.5170  145.8470 C   0  0  0  0  0  2  0  0  0  0  0  0
  191.5560  177.0700  145.6990 N   0  0  0  0  0  0  0  0  0  0  0  0
  194.9600  175.9590  145.5650 C   0  0  0  0  0  3  0  0  0  0  0  0
  192.2260  177.0320  143.0840 S   0  0  0  0  0  0  0  0  0  0  0  0
  190.3980  177.6480  145.0380 C   0  0  0  0  0  2  0  0  0  0  0  0
  190.8220  178.0690  143.6310 C   0  0  2  0  0  3  0  0  0  0  0  0
  193.7770  176.3450  145.1810 C   0  0  0  0  0  0  0  0  0  0  0  0
  192.5840  176.7050  144.7910 C   0  0  0  0  0  0  0  0  0  0  0  0
  189.6440  177.9040  142.6800 C   0  0  0  0  0  2  0  0  0  0  0  0
  188.3800  177.4210  143.3850 C   0  0  1  0  0  3  0  0  0  0  0  0
  186.2500  176.4490  142.6610 O   0  0  0  0  0  0  0  0  0  0  0  0
  188.0860  175.0440  143.0050 O   0  0  0  0  0  1  0  0  0  0  0  0
  186.8290  178.2800  144.8570 C   0  0  2  0  0  3  0  0  0  0  0  0
  187.4970  178.4910  143.6250 O   0  0  0  0  0  0  0  0  0  0  0  0
  185.5750  176.7330  146.2530 O   0  0  0  0  0  1  0  0  0  0  0  0
  187.6610  176.3140  142.6010 C   0  0  2  0  0  3  0  0  0  0  0  0
  185.7360  176.0940  143.9340 C   0  0  0  0  0  2  0  0  0  0  0  0
  186.3910  176.8170  145.1250 C   0  0  1  0  0  3  0  0  0  0  0  0
  185.4370  179.4630  143.6070 C   0  0  0  0  0  1  0  0  0  0  0  0
  185.7270  179.1360  144.9340 O   0  0  0  0  0  0  0  0  0  0  0  0
  191.6300  176.7780  147.1350 C   0  0  0  0  0  2  0  0  0  0  0  0
  190.9950  175.4430  147.4910 C   0  0  0  0  0  2  0  0  0  0  0  0
  189.6630  173.8580  146.1530 C   0  0  0  0  0  2  0  0  0  0  0  0
  188.8540  174.2210  147.3790 C   0  0  0  0  0  2  0  0  0  0  0  0
  189.7150  175.2680  146.7030 C   0  0  0  0  0  3  0  0  0  0  0  0
  1  8  1  0  0  0  0
  2  5  1  1  0  0  0
  3  6  1  1  0  0  0
  4 10  1  6  0  0  0
  4  1  1  0  0  0  0
  5 14  1  0  0  0  0
  8 16  1  0  0  0  0
  8 15  1  1  0  0  0
  8  3  1  0  0  0  0
  9  2  1  0  0  0  0
  9 11  1  0  0  0  0
  9 12  1  1  0  0  0
 11 10  1  6  0  0  0
 11  4  1  0  0  0  0
 13  7  1  0  0  0  0
 13  3  1  0  0  0  0
 14 28  1  1  0  0  0
 14  7  1  0  0  0  0
 16  3  1  0  0  0  0
 16 29  1  1  0  0  0
 17 19  1  0  0  0  0
 18 21  1  0  0  0  0
 18 20  1  0  0  0  0
 20 22  1  0  0  0  0
 21 17  1  0  0  0  0
 22 23  1  0  0  0  0
 23 19  1  6  0  0  0
 23  2  1  0  0  0  0
 24 21  1  0  0  0  0
 25 24  1  0  0  0  0
 26 25  1  0  0  0  0
 27 28  2  0  0  0  0
 30 49  1  0  0  0  0
 31 29  1  0  0  0  0
 32 34  1  0  0  0  0
 32 36  1  0  0  0  0
 33 30  1  0  0  0  0
 34 37  1  6  0  0  0
 34 33  1  0  0  0  0
 35 31  2  0  0  0  0
 36 35  2  0  0  0  0
 36 30  1  0  0  0  0
 38 37  1  6  0  0  0
 38 42  1  0  0  0  0
 39 45  1  0  0  0  0
 41 48  1  6  0  0  0
 41 46  1  0  0  0  0
 42 41  1  0  0  0  0
 44 39  1  0  0  0  0
 44 40  1  1  0  0  0
 44 38  1  0  0  0  0
 45 46  1  0  0  0  0
 46 43  1  1  0  0  0
 47 48  1  0  0  0  0
 49 50  1  0  0  0  0
 51 53  1  0  0  0  0
 51 52  1  0  0  0  0
 53 52  1  0  0  0  0
 53 50  1  0  0  0  0
M  END
>  <MODEL>
7

>  <REMARK>
 VINA RESULT:      -5.5      2.604      7.628
  Name = 
  12 active torsions:
  status: ('A' for Active; 'I' for Inactive)
    1  A    between atoms: N_1  and  C_29
    2  A    between atoms: C_2  and  C_4
    3  A    between atoms: C_2  and  C_43
    4  A    between atoms: C_3  and  C_25
    5  A    between atoms: O_11  and  C_19
    6  A    between atoms: C_12  and  C_35
    7  A    between atoms: C_13  and  C_50
    8  A    between atoms: C_25  and  C_47
    9  A    between atoms: N_27  and  C_35
   10  A    between atoms: C_29  and  C_52
   11  A    between atoms: C_40  and  C_51
   12  A    between atoms: C_49  and  C_52
                            x       y       z     vdW  Elec       q    Type
                         _______ _______ _______ _____ _____    ______ ____

>  <TORSDO>
F 12

$$$$
=
 OpenBabel11062420283D

 53 59  0  0  1  0  0  0  0  0999 V2000
  195.5540  175.2680  139.0780 C   0  0  0  0  0  2  0  0  0  0  0  0
  193.2990  171.1020  138.1130 C   0  0  2  0  0  3  0  0  0  0  0  0
  196.4020  173.6540  141.0720 C   0  0  1  0  0  0  0  0  0  0  0  0
  195.5940  174.1940  138.0070 C   0  0  2  0  0  3  0  0  0  0  0  0
  193.6590  170.6850  139.5520 C   0  0  0  0  0  2  0  0  0  0  0  0
  197.5920  173.3110  141.6960 F   0  0  0  0  0  0  0  0  0  0  0  0
  194.7940  172.0800  141.3080 C   0  0  0  0  0  2  0  0  0  0  0  0
  196.4580  174.9530  140.2690 C   0  0  1  0  0  0  0  0  0  0  0  0
  194.3310  172.0450  137.4680 C   0  0  1  0  0  3  0  0  0  0  0  0
  194.5450  174.4780  136.9550 C   0  0  0  0  0  2  0  0  0  0  0  0
  194.2580  173.4650  138.0450 C   0  0  2  0  0  3  0  0  0  0  0  0
  195.6130  171.4940  137.5690 O   0  0  0  0  0  1  0  0  0  0  0  0
  195.7120  172.6320  140.4080 O   0  0  0  0  0  0  0  0  0  0  0  0
  193.4860  171.8070  140.5750 C   0  0  2  0  0  3  0  0  0  0  0  0
  197.6360  175.6970  140.3810 O   0  0  0  0  0  1  0  0  0  0  0  0
  195.6250  174.8830  141.5550 C   0  0  2  0  0  3  0  0  0  0  0  0
  189.8130  171.6350  136.4770 C   0  0  0  0  0  2  0  0  0  0  0  0
  189.5470  173.7430  137.7480 C   0  0  0  0  0  2  0  0  0  0  0  0
  191.2980  171.2560  136.5910 C   0  0  0  0  0  2  0  0  0  0  0  0
  190.5460  173.1880  138.7690 C   0  0  0  0  0  2  0  0  0  0  0  0
  189.5640  173.0880  136.4270 N   0  0  0  0  0  0  0  0  0  0  0  0
  191.7920  172.9810  138.1760 O   0  0  0  0  0  0  0  0  0  0  0  0
  191.8530  171.5970  137.9730 C   0  0  2  0  0  3  0  0  0  0  0  0
  190.4890  173.7740  135.5250 C   0  0  0  0  0  2  0  0  0  0  0  0
  189.7300  174.6610  134.5510 C   0  0  0  0  0  2  0  0  0  0  0  0
  189.9580  176.0040  134.8570 O   0  0  0  0  0  1  0  0  0  0  0  0
  191.6910  172.4570  142.1630 C   0  0  0  0  0  2  0  0  0  0  0  0
  192.3790  171.4980  141.5390 C   0  0  0  0  0  3  0  0  0  0  0  0
  196.3030  175.5420  142.7500 C   0  0  0  0  0  2  0  0  0  0  0  0
  192.4990  174.7920  144.9360 N   0  0  0  0  0  0  0  0  0  0  0  0
  195.3350  176.4170  143.4670 C   0  0  0  0  0  3  0  0  0  0  0  0
  191.5640  176.1230  142.7800 S   0  0  0  0  0  0  0  0  0  0  0  0
  191.0590  174.6140  145.0170 C   0  0  0  0  0  2  0  0  0  0  0  0
  190.4030  175.6610  144.1160 C   0  0  2  0  0  3  0  0  0  0  0  0
  194.1140  176.0010  143.6480 C   0  0  0  0  0  0  0  0  0  0  0  0
  192.8950  175.5640  143.8110 C   0  0  0  0  0  0  0  0  0  0  0  0
  189.1230  175.0850  143.5260 C   0  0  0  0  0  2  0  0  0  0  0  0
  187.9760  176.0910  143.5090 C   0  0  1  0  0  3  0  0  0  0  0  0
  187.6400  178.3290  142.5690 O   0  0  0  0  0  0  0  0  0  0  0  0
  187.2390  176.4570  141.2280 O   0  0  0  0  0  1  0  0  0  0  0  0
  186.6440  177.1650  145.0520 C   0  0  2  0  0  3  0  0  0  0  0  0
  187.9800  176.8780  144.6750 O   0  0  0  0  0  0  0  0  0  0  0  0
  184.4550  177.9530  144.3450 O   0  0  0  0  0  1  0  0  0  0  0  0
  188.0070  176.9920  142.2670 C   0  0  2  0  0  3  0  0  0  0  0  0
  186.2490  178.4540  142.8150 C   0  0  0  0  0  2  0  0  0  0  0  0
  185.6860  177.4940  143.8780 C   0  0  1  0  0  3  0  0  0  0  0  0
  187.1790  177.6470  147.1450 C   0  0  0  0  0  1  0  0  0  0  0  0
  186.6430  178.2080  145.9830 O   0  0  0  0  0  0  0  0  0  0  0  0
  193.4650  174.1570  145.8380 C   0  0  0  0  0  2  0  0  0  0  0  0
  193.8340  172.7500  145.3980 C   0  0  0  0  0  2  0  0  0  0  0  0
  196.1830  173.4190  145.7320 C   0  0  0  0  0  2  0  0  0  0  0  0
  196.1450  171.9110  145.6090 C   0  0  0  0  0  2  0  0  0  0  0  0
  195.2120  172.7620  144.7730 C   0  0  0  0  0  3  0  0  0  0  0  0
  1  8  1  0  0  0  0
  2  5  1  1  0  0  0
  3 16  1  0  0  0  0
  3  6  1  1  0  0  0
  4 10  1  6  0  0  0
  4 11  1  0  0  0  0
  4  1  1  0  0  0  0
  5 14  1  0  0  0  0
  8 15  1  1  0  0  0
  8  3  1  0  0  0  0
  8 16  1  0  0  0  0
  9 12  1  1  0  0  0
  9 11  1  0  0  0  0
  9  2  1  0  0  0  0
 11 10  1  6  0  0  0
 13  3  1  0  0  0  0
 13  7  1  0  0  0  0
 14  7  1  0  0  0  0
 14 28  1  1  0  0  0
 16 29  1  1  0  0  0
 17 19  1  0  0  0  0
 18 20  1  0  0  0  0
 21 17  1  0  0  0  0
 21 18  1  0  0  0  0
 22 20  1  0  0  0  0
 23 19  1  6  0  0  0
 23  2  1  0  0  0  0
 23 22  1  0  0  0  0
 24 21  1  0  0  0  0
 25 26  1  0  0  0  0
 25 24  1  0  0  0  0
 28 27  2  0  0  0  0
 29 31  1  0  0  0  0
 30 33  1  0  0  0  0
 30 49  1  0  0  0  0
 31 35  2  0  0  0  0
 32 36  1  0  0  0  0
 32 34  1  0  0  0  0
 34 37  1  6  0  0  0
 34 33  1  0  0  0  0
 35 36  2  0  0  0  0
 36 30  1  0  0  0  0
 38 37  1  1  0  0  0
 38 42  1  0  0  0  0
 39 45  1  0  0  0  0
 41 48  1  1  0  0  0
 42 41  1  0  0  0  0
 44 40  1  6  0  0  0
 44 39  1  0  0  0  0
 44 38  1  0  0  0  0
 45 46  1  0  0  0  0
 46 43  1  1  0  0  0
 46 41  1  0  0  0  0
 48 47  1  0  0  0  0
 50 49  1  0  0  0  0
 52 51  1  0  0  0  0
 53 50  1  0  0  0  0
 53 52  1  0  0  0  0
 53 51  1  0  0  0  0
M  END
>  <MODEL>
8

>  <REMARK>
 VINA RESULT:      -5.3      2.761      7.378
  Name = 
  12 active torsions:
  status: ('A' for Active; 'I' for Inactive)
    1  A    between atoms: N_1  and  C_29
    2  A    between atoms: C_2  and  C_4
    3  A    between atoms: C_2  and  C_43
    4  A    between atoms: C_3  and  C_25
    5  A    between atoms: O_11  and  C_19
    6  A    between atoms: C_12  and  C_35
    7  A    between atoms: C_13  and  C_50
    8  A    between atoms: C_25  and  C_47
    9  A    between atoms: N_27  and  C_35
   10  A    between atoms: C_29  and  C_52
   11  A    between atoms: C_40  and  C_51
   12  A    between atoms: C_49  and  C_52
                            x       y       z     vdW  Elec       q    Type
                         _______ _______ _______ _____ _____    ______ ____

>  <TORSDO>
F 12

$$$$
=
 OpenBabel11062420283D

 53 59  0  0  1  0  0  0  0  0999 V2000
  194.7730  175.5920  142.4150 C   0  0  0  0  0  2  0  0  0  0  0  0
  194.5920  171.0220  140.8460 C   0  0  2  0  0  3  0  0  0  0  0  0
  195.8610  174.2130  144.4670 C   0  0  1  0  0  0  0  0  0  0  0  0
  195.4200  174.7540  141.3280 C   0  0  2  0  0  3  0  0  0  0  0  0
  194.8490  170.6110  142.3090 C   0  0  0  0  0  2  0  0  0  0  0  0
  196.9680  174.2900  145.2990 F   0  0  0  0  0  0  0  0  0  0  0  0
  195.0150  172.1200  144.3130 C   0  0  0  0  0  2  0  0  0  0  0  0
  195.5180  175.5150  143.7470 C   0  0  1  0  0  0  0  0  0  0  0  0
  195.2440  172.3620  140.4590 C   0  0  1  0  0  3  0  0  0  0  0  0
  194.5340  174.7290  140.1020 C   0  0  0  0  0  2  0  0  0  0  0  0
  194.5080  173.5620  141.0690 C   0  0  2  0  0  3  0  0  0  0  0  0
  196.6040  172.3470  140.7880 O   0  0  0  0  0  1  0  0  0  0  0  0
  195.7650  173.0880  143.6370 O   0  0  0  0  0  0  0  0  0  0  0  0
  194.0700  171.4470  143.3240 C   0  0  2  0  0  3  0  0  0  0  0  0
  196.2570  176.6410  144.1220 O   0  0  0  0  0  1  0  0  0  0  0  0
  194.5850  174.9740  144.8380 C   0  0  2  0  0  3  0  0  0  0  0  0
  191.1150  169.3890  140.2520 C   0  0  0  0  0  2  0  0  0  0  0  0
  190.6470  171.0490  138.4760 C   0  0  0  0  0  2  0  0  0  0  0  0
  192.6230  169.4840  140.5340 C   0  0  0  0  0  2  0  0  0  0  0  0
  191.6630  171.9760  139.1520 C   0  0  0  0  0  2  0  0  0  0  0  0
  190.7490  169.6250  138.8430 N   0  0  0  0  0  0  0  0  0  0  0  0
  192.9360  171.4040  139.1390 O   0  0  0  0  0  0  0  0  0  0  0  0
  193.1150  170.9270  140.4430 C   0  0  2  0  0  3  0  0  0  0  0  0
  191.6360  168.9180  137.9190 C   0  0  0  0  0  2  0  0  0  0  0  0
  191.3210  169.2930  136.4800 C   0  0  0  0  0  2  0  0  0  0  0  0
  192.5070  169.4810  135.7690 O   0  0  0  0  0  1  0  0  0  0  0  0
  192.9790  169.2930  143.9010 C   0  0  0  0  0  2  0  0  0  0  0  0
  193.0410  170.6190  144.0360 C   0  0  0  0  0  3  0  0  0  0  0  0
  194.7320  175.6990  146.1710 C   0  0  0  0  0  2  0  0  0  0  0  0
  190.4890  175.5080  144.8380 N   0  0  0  0  0  0  0  0  0  0  0  0
  193.5300  176.5400  146.4290 C   0  0  0  0  0  3  0  0  0  0  0  0
  191.3130  177.7140  143.5160 S   0  0  0  0  0  0  0  0  0  0  0  0
  189.4020  175.7820  143.9120 C   0  0  0  0  0  2  0  0  0  0  0  0
  189.5530  177.2220  143.4230 C   0  0  2  0  0  3  0  0  0  0  0  0
  192.5330  176.5000  145.5910 C   0  0  0  0  0  0  0  0  0  0  0  0
  191.5510  176.4460  144.7330 C   0  0  0  0  0  0  0  0  0  0  0  0
  189.0540  177.3200  141.9880 C   0  0  0  0  0  2  0  0  0  0  0  0
  187.5540  177.5860  141.9000 C   0  0  1  0  0  3  0  0  0  0  0  0
  186.0680  178.6420  140.2620 O   0  0  0  0  0  0  0  0  0  0  0  0
  186.6160  176.3840  140.0160 O   0  0  0  0  0  1  0  0  0  0  0  0
  185.9420  178.6260  143.1770 C   0  0  2  0  0  3  0  0  0  0  0  0
  187.2140  178.7760  142.5700 O   0  0  0  0  0  0  0  0  0  0  0  0
  183.6250  177.9390  142.9040 O   0  0  0  0  0  1  0  0  0  0  0  0
  187.0530  177.6390  140.4500 C   0  0  2  0  0  3  0  0  0  0  0  0
  184.8260  178.2810  140.8410 C   0  0  0  0  0  2  0  0  0  0  0  0
  184.8920  177.8710  142.3230 C   0  0  1  0  0  3  0  0  0  0  0  0
  185.3960  179.8550  144.9340 C   0  0  0  0  0  1  0  0  0  0  0  0
  185.4550  179.8850  143.5400 O   0  0  0  0  0  0  0  0  0  0  0  0
  190.5560  174.3330  145.7130 C   0  0  0  0  0  2  0  0  0  0  0  0
  190.2730  173.0380  144.9690 C   0  0  0  0  0  2  0  0  0  0  0  0
  190.4810  172.4380  142.5870 C   0  0  0  0  0  2  0  0  0  0  0  0
  189.0580  172.1500  143.0120 C   0  0  0  0  0  2  0  0  0  0  0  0
  189.7870  173.3550  143.5710 C   0  0  0  0  0  3  0  0  0  0  0  0
  1  8  1  0  0  0  0
  2  5  1  1  0  0  0
  3 16  1  0  0  0  0
  3  6  1  1  0  0  0
  4 10  1  6  0  0  0
  4  1  1  0  0  0  0
  5 14  1  0  0  0  0
  8 15  1  1  0  0  0
  8  3  1  0  0  0  0
  8 16  1  0  0  0  0
  9 12  1  1  0  0  0
  9  2  1  0  0  0  0
  9 11  1  0  0  0  0
 11 10  1  6  0  0  0
 11  4  1  0  0  0  0
 13  7  1  0  0  0  0
 13  3  1  0  0  0  0
 14 28  1  1  0  0  0
 14  7  1  0  0  0  0
 16 29  1  1  0  0  0
 17 19  1  0  0  0  0
 18 21  1  0  0  0  0
 18 20  1  0  0  0  0
 21 17  1  0  0  0  0
 22 20  1  0  0  0  0
 22 23  1  0  0  0  0
 23 19  1  6  0  0  0
 23  2  1  0  0  0  0
 24 21  1  0  0  0  0
 25 24  1  0  0  0  0
 26 25  1  0  0  0  0
 27 28  2  0  0  0  0
 29 31  1  0  0  0  0
 30 49  1  0  0  0  0
 32 36  1  0  0  0  0
 33 30  1  0  0  0  0
 34 37  1  6  0  0  0
 34 32  1  0  0  0  0
 34 33  1  0  0  0  0
 35 31  2  0  0  0  0
 36 30  1  0  0  0  0
 36 35  2  0  0  0  0
 38 37  1  6  0  0  0
 38 42  1  0  0  0  0
 39 44  1  0  0  0  0
 39 45  1  0  0  0  0
 41 48  1  6  0  0  0
 42 41  1  0  0  0  0
 44 40  1  1  0  0  0
 44 38  1  0  0  0  0
 45 46  1  0  0  0  0
 46 43  1  1  0  0  0
 46 41  1  0  0  0  0
 48 47  1  0  0  0  0
 50 49  1  0  0  0  0
 51 52  1  0  0  0  0
 51 53  1  0  0  0  0
 52 53  1  0  0  0  0
 53 50  1  0  0  0  0
M  END
>  <MODEL>
9

>  <REMARK>
 VINA RESULT:      -5.2      2.605      7.775
  Name = 
  12 active torsions:
  status: ('A' for Active; 'I' for Inactive)
    1  A    between atoms: N_1  and  C_29
    2  A    between atoms: C_2  and  C_4
    3  A    between atoms: C_2  and  C_43
    4  A    between atoms: C_3  and  C_25
    5  A    between atoms: O_11  and  C_19
    6  A    between atoms: C_12  and  C_35
    7  A    between atoms: C_13  and  C_50
    8  A    between atoms: C_25  and  C_47
    9  A    between atoms: N_27  and  C_35
   10  A    between atoms: C_29  and  C_52
   11  A    between atoms: C_40  and  C_51
   12  A    between atoms: C_49  and  C_52
                            x       y       z     vdW  Elec       q    Type
                         _______ _______ _______ _____ _____    ______ ____

>  <TORSDO>
F 12

$$$$
