=
 OpenBabel11062419553D

 28 31  0  0  1  0  0  0  0  0999 V2000
  187.3660  177.3740  143.8220 C   0  0  0  0  0  0  0  0  0  0  0  0
  188.0020  177.2990  144.9490 C   0  0  0  0  0  0  0  0  0  0  0  0
  185.6670  178.8230  145.0030 C   0  0  0  0  0  2  0  0  0  0  0  0
  187.4070  177.7650  147.1310 O   0  0  0  0  0  0  0  0  0  0  0  0
  185.6640  179.6060  147.5880 O   0  0  0  0  0  1  0  0  0  0  0  0
  185.1080  177.8200  146.0250 C   0  0  2  0  0  3  0  0  0  0  0  0
  188.3760  177.4030  146.1860 C   0  0  0  0  0  0  0  0  0  0  0  0
  185.0470  178.3540  147.4590 C   0  0  1  0  0  3  0  0  0  0  0  0
  186.0590  177.2630  147.1060 C   0  0  2  0  0  3  0  0  0  0  0  0
  186.1450  178.1250  143.8030 N   0  0  0  0  0  2  0  0  0  0  0  0
  189.6330  174.3640  141.9850 C   0  0  0  0  0  2  0  0  0  0  0  0
  188.1460  174.3260  141.6650 C   0  0  1  0  0  3  0  0  0  0  0  0
  189.3400  176.7840  142.4280 C   0  0  0  0  0  0  0  0  0  0  0  0
  187.6910  173.0110  141.7320 O   0  0  0  0  0  1  0  0  0  0  0  0
  190.1160  175.7060  141.9840 O   0  0  0  0  0  0  0  0  0  0  0  0
  189.8800  177.9140  142.5630 O   0  0  0  0  0  0  0  0  0  0  0  0
  187.8490  176.6330  142.6160 C   0  0  1  0  0  3  0  0  0  0  0  0
  187.4180  175.1680  142.7010 C   0  0  0  0  0  2  0  0  0  0  0  0
  190.1560  177.7040  147.7040 O   0  0  0  0  0  0  0  0  0  0  0  0
  189.7890  177.2830  146.5740 C   0  0  0  0  0  0  0  0  0  0  0  0
  190.7380  176.6900  145.6750 N   0  0  0  0  0  2  0  0  0  0  0  0
  192.9650  176.4760  144.6510 C   0  0  0  0  0  2  0  0  0  0  0  0
  192.4510  175.2220  146.5960 C   0  0  0  0  0  0  0  0  0  0  0  0
  193.9360  175.2970  144.7520 C   0  0  1  0  0  3  0  0  0  0  0  0
  191.9220  174.8660  147.6370 O   0  0  0  0  0  0  0  0  0  0  0  0
  195.2120  175.7750  145.0460 O   0  0  0  0  0  1  0  0  0  0  0  0
  192.1660  176.5210  145.9440 C   0  0  2  0  0  3  0  0  0  0  0  0
  193.4590  174.4030  145.8890 C   0  0  0  0  0  2  0  0  0  0  0  0
  1  2  2  0  0  0  0
  2  7  2  0  0  0  0
  6  3  1  6  0  0  0
  6  9  1  0  0  0  0
  6  8  1  0  0  0  0
  7 20  1  0  0  0  0
  7  4  1  0  0  0  0
  8  5  1  6  0  0  0
  9  4  1  6  0  0  0
  9  8  1  0  0  0  0
 10  1  1  0  0  0  0
 10  3  1  0  0  0  0
 12 14  1  1  0  0  0
 12 11  1  0  0  0  0
 12 18  1  0  0  0  0
 13 16  2  0  0  0  0
 13 17  1  0  0  0  0
 15 11  1  0  0  0  0
 15 13  1  0  0  0  0
 17 18  1  0  0  0  0
 17  1  1  1  0  0  0
 20 19  2  0  0  0  0
 21 20  1  0  0  0  0
 22 24  1  0  0  0  0
 22 27  1  0  0  0  0
 23 25  2  0  0  0  0
 24 26  1  1  0  0  0
 24 28  1  0  0  0  0
 27 21  1  6  0  0  0
 27 23  1  0  0  0  0
 28 23  1  0  0  0  0
M  END
>  <MODEL>
1

>  <REMARK>
 VINA RESULT:      -7.7      0.000      0.000
  Name = 
  3 active torsions:
  status: ('A' for Active; 'I' for Inactive)
    1  A    between atoms: C_4  and  C_26
    2  A    between atoms: C_6  and  C_18
    3  A    between atoms: N_7  and  C_24
                            x       y       z     vdW  Elec       q    Type
                         _______ _______ _______ _____ _____    ______ ____

>  <TORSDO>
F 3

$$$$
=
 OpenBabel11062419553D

 28 31  0  0  1  0  0  0  0  0999 V2000
  188.0490  177.2420  145.5650 C   0  0  0  0  0  0  0  0  0  0  0  0
  187.8680  177.1680  144.2830 C   0  0  0  0  0  0  0  0  0  0  0  0
  185.6490  178.0110  145.7470 C   0  0  0  0  0  2  0  0  0  0  0  0
  186.2550  178.0150  142.8640 O   0  0  0  0  0  0  0  0  0  0  0  0
  183.8620  178.3570  143.7520 O   0  0  0  0  0  1  0  0  0  0  0  0
  185.7240  179.3410  144.9790 C   0  0  2  0  0  3  0  0  0  0  0  0
  187.3860  177.2160  143.0800 C   0  0  0  0  0  0  0  0  0  0  0  0
  184.6290  179.5180  143.9230 C   0  0  1  0  0  3  0  0  0  0  0  0
  186.0760  179.3050  143.4760 C   0  0  2  0  0  3  0  0  0  0  0  0
  186.9450  177.6950  146.3600 N   0  0  0  0  0  2  0  0  0  0  0  0
  191.6720  175.1380  145.7020 C   0  0  0  0  0  2  0  0  0  0  0  0
  191.8170  176.6500  145.6190 C   0  0  1  0  0  3  0  0  0  0  0  0
  189.4490  175.5400  146.7190 C   0  0  0  0  0  0  0  0  0  0  0  0
  192.8110  176.9710  144.6970 O   0  0  0  0  0  1  0  0  0  0  0  0
  190.6180  174.7800  146.5940 O   0  0  0  0  0  0  0  0  0  0  0  0
  188.4880  175.0820  147.3920 O   0  0  0  0  0  0  0  0  0  0  0  0
  189.3830  176.9460  146.1710 C   0  0  1  0  0  3  0  0  0  0  0  0
  190.4890  177.2270  145.1530 C   0  0  0  0  0  2  0  0  0  0  0  0
  187.4880  176.5160  140.8300 O   0  0  0  0  0  0  0  0  0  0  0  0
  187.9120  176.3610  142.0070 C   0  0  0  0  0  0  0  0  0  0  0  0
  188.9010  175.3600  142.2970 N   0  0  0  0  0  2  0  0  0  0  0  0
  188.7820  173.1050  141.3210 C   0  0  0  0  0  2  0  0  0  0  0  0
  190.8980  174.1200  141.6580 C   0  0  0  0  0  0  0  0  0  0  0  0
  189.8570  172.0170  141.3390 C   0  0  1  0  0  3  0  0  0  0  0  0
  191.7630  174.9660  141.8190 O   0  0  0  0  0  0  0  0  0  0  0  0
  189.9950  171.4830  140.0590 O   0  0  0  0  0  1  0  0  0  0  0  0
  189.4940  174.4490  141.3190 C   0  0  2  0  0  3  0  0  0  0  0  0
  191.1680  172.6690  141.7550 C   0  0  0  0  0  2  0  0  0  0  0  0
  1 10  1  0  0  0  0
  2  1  2  0  0  0  0
  3 10  1  0  0  0  0
  4  7  1  0  0  0  0
  6  3  1  6  0  0  0
  7  2  2  0  0  0  0
  8  5  1  6  0  0  0
  8  6  1  0  0  0  0
  9  4  1  6  0  0  0
  9  8  1  0  0  0  0
  9  6  1  0  0  0  0
 11 15  1  0  0  0  0
 12 14  1  6  0  0  0
 12 11  1  0  0  0  0
 13 16  2  0  0  0  0
 15 13  1  0  0  0  0
 17  1  1  6  0  0  0
 17 13  1  0  0  0  0
 18 12  1  0  0  0  0
 18 17  1  0  0  0  0
 19 20  2  0  0  0  0
 20 21  1  0  0  0  0
 20  7  1  0  0  0  0
 22 24  1  0  0  0  0
 23 28  1  0  0  0  0
 23 25  2  0  0  0  0
 24 26  1  6  0  0  0
 24 28  1  0  0  0  0
 27 22  1  0  0  0  0
 27 23  1  0  0  0  0
 27 21  1  1  0  0  0
M  END
>  <MODEL>
2

>  <REMARK>
 VINA RESULT:      -7.5      2.148      4.924
  Name = 
  3 active torsions:
  status: ('A' for Active; 'I' for Inactive)
    1  A    between atoms: C_4  and  C_26
    2  A    between atoms: C_6  and  C_18
    3  A    between atoms: N_7  and  C_24
                            x       y       z     vdW  Elec       q    Type
                         _______ _______ _______ _____ _____    ______ ____

>  <TORSDO>
F 3

$$$$
=
 OpenBabel11062419553D

 28 31  0  0  1  0  0  0  0  0999 V2000
  186.4720  178.6570  143.7660 C   0  0  0  0  0  0  0  0  0  0  0  0
  187.1570  177.7230  144.3490 C   0  0  0  0  0  0  0  0  0  0  0  0
  185.6980  179.3710  146.0620 C   0  0  0  0  0  2  0  0  0  0  0  0
  187.0940  176.8090  146.4690 O   0  0  0  0  0  0  0  0  0  0  0  0
  186.3510  178.2830  148.4460 O   0  0  0  0  0  1  0  0  0  0  0  0
  184.9070  178.1230  146.4890 C   0  0  2  0  0  3  0  0  0  0  0  0
  187.6950  176.9130  145.2070 C   0  0  0  0  0  0  0  0  0  0  0  0
  185.2570  177.6070  147.8880 C   0  0  1  0  0  3  0  0  0  0  0  0
  185.6680  176.7910  146.6610 C   0  0  2  0  0  3  0  0  0  0  0  0
  185.6840  179.5150  144.6010 N   0  0  0  0  0  2  0  0  0  0  0  0
  186.2660  176.9930  139.9240 C   0  0  0  0  0  2  0  0  0  0  0  0
  185.1930  178.0270  140.2280 C   0  0  1  0  0  3  0  0  0  0  0  0
  187.6500  178.1200  141.6420 C   0  0  0  0  0  0  0  0  0  0  0  0
  183.9610  177.5680  139.7630 O   0  0  0  0  0  1  0  0  0  0  0  0
  187.5280  177.4080  140.4430 O   0  0  0  0  0  0  0  0  0  0  0  0
  188.7960  178.3060  142.1310 O   0  0  0  0  0  0  0  0  0  0  0  0
  186.4450  178.7730  142.2760 C   0  0  1  0  0  3  0  0  0  0  0  0
  185.1280  178.2120  141.7370 C   0  0  0  0  0  2  0  0  0  0  0  0
  189.0060  175.3470  144.0290 O   0  0  0  0  0  0  0  0  0  0  0  0
  188.9660  176.2310  144.9270 C   0  0  0  0  0  0  0  0  0  0  0  0
  190.1480  176.5700  145.6680 N   0  0  0  0  0  2  0  0  0  0  0  0
  192.2350  175.9150  146.7960 C   0  0  0  0  0  2  0  0  0  0  0  0
  192.3220  176.7630  144.5830 C   0  0  0  0  0  0  0  0  0  0  0  0
  193.6520  176.4160  146.5120 C   0  0  1  0  0  3  0  0  0  0  0  0
  191.9930  177.0740  143.4500 O   0  0  0  0  0  0  0  0  0  0  0  0
  194.5200  175.3270  146.4370 O   0  0  0  0  0  1  0  0  0  0  0  0
  191.4650  175.9590  145.4850 C   0  0  2  0  0  3  0  0  0  0  0  0
  193.6290  177.1320  145.1690 C   0  0  0  0  0  2  0  0  0  0  0  0
  1  2  2  0  0  0  0
  1 10  1  0  0  0  0
  2  7  2  0  0  0  0
  6  3  1  6  0  0  0
  6  9  1  0  0  0  0
  6  8  1  0  0  0  0
  7  4  1  0  0  0  0
  8  5  1  6  0  0  0
  9  4  1  6  0  0  0
  9  8  1  0  0  0  0
 10  3  1  0  0  0  0
 11 12  1  0  0  0  0
 11 15  1  0  0  0  0
 12 14  1  1  0  0  0
 12 18  1  0  0  0  0
 13 16  2  0  0  0  0
 13 17  1  0  0  0  0
 15 13  1  0  0  0  0
 17  1  1  1  0  0  0
 18 17  1  0  0  0  0
 19 20  2  0  0  0  0
 20  7  1  0  0  0  0
 20 21  1  0  0  0  0
 23 28  1  0  0  0  0
 23 27  1  0  0  0  0
 24 26  1  6  0  0  0
 24 22  1  0  0  0  0
 25 23  2  0  0  0  0
 27 21  1  1  0  0  0
 27 22  1  0  0  0  0
 28 24  1  0  0  0  0
M  END
>  <MODEL>
3

>  <REMARK>
 VINA RESULT:      -7.4      2.146      2.788
  Name = 
  3 active torsions:
  status: ('A' for Active; 'I' for Inactive)
    1  A    between atoms: C_4  and  C_26
    2  A    between atoms: C_6  and  C_18
    3  A    between atoms: N_7  and  C_24
                            x       y       z     vdW  Elec       q    Type
                         _______ _______ _______ _____ _____    ______ ____

>  <TORSDO>
F 3

$$$$
=
 OpenBabel11062419553D

 28 31  0  0  1  0  0  0  0  0999 V2000
  187.6710  175.5260  142.9450 C   0  0  0  0  0  0  0  0  0  0  0  0
  188.4870  176.2340  143.6610 C   0  0  0  0  0  0  0  0  0  0  0  0
  185.8410  177.1140  143.6580 C   0  0  0  0  0  2  0  0  0  0  0  0
  188.1720  177.8120  145.3190 O   0  0  0  0  0  0  0  0  0  0  0  0
  186.0500  179.2700  145.2710 O   0  0  0  0  0  1  0  0  0  0  0  0
  185.8140  176.8460  145.1720 C   0  0  2  0  0  3  0  0  0  0  0  0
  189.0230  177.1100  144.4540 C   0  0  0  0  0  0  0  0  0  0  0  0
  185.8430  178.1130  146.0330 C   0  0  1  0  0  3  0  0  0  0  0  0
  187.0670  177.1960  146.0040 C   0  0  2  0  0  3  0  0  0  0  0  0
  186.2930  175.9210  142.9310 N   0  0  0  0  0  2  0  0  0  0  0  0
  190.6540  173.2120  141.1220 C   0  0  0  0  0  2  0  0  0  0  0  0
  189.9190  172.5210  142.2600 C   0  0  1  0  0  3  0  0  0  0  0  0
  188.6270  174.6090  140.8400 C   0  0  0  0  0  0  0  0  0  0  0  0
  190.8380  171.8560  143.0700 O   0  0  0  0  0  1  0  0  0  0  0  0
  189.7440  173.9530  140.3100 O   0  0  0  0  0  0  0  0  0  0  0  0
  187.9630  175.3830  140.1010 O   0  0  0  0  0  0  0  0  0  0  0  0
  188.1410  174.2970  142.2350 C   0  0  1  0  0  3  0  0  0  0  0  0
  189.2020  173.5860  143.0760 C   0  0  0  0  0  2  0  0  0  0  0  0
  190.7850  178.5130  143.7540 O   0  0  0  0  0  0  0  0  0  0  0  0
  190.4470  177.4610  144.3610 C   0  0  0  0  0  0  0  0  0  0  0  0
  191.4420  176.6140  144.9570 N   0  0  0  0  0  2  0  0  0  0  0  0
  193.5610  175.9880  143.8750 C   0  0  0  0  0  2  0  0  0  0  0  0
  193.5320  176.4580  146.1990 C   0  0  0  0  0  0  0  0  0  0  0  0
  194.7960  175.3600  144.5240 C   0  0  1  0  0  3  0  0  0  0  0  0
  193.1950  176.8980  147.2870 O   0  0  0  0  0  0  0  0  0  0  0  0
  195.9360  176.0450  144.1050 O   0  0  0  0  0  1  0  0  0  0  0  0
  192.8840  176.8530  144.9270 C   0  0  2  0  0  3  0  0  0  0  0  0
  194.6490  175.5030  146.0320 C   0  0  0  0  0  2  0  0  0  0  0  0
  1  2  2  0  0  0  0
  2  7  2  0  0  0  0
  6  3  1  6  0  0  0
  6  9  1  0  0  0  0
  6  8  1  0  0  0  0
  7  4  1  0  0  0  0
  8  5  1  6  0  0  0
  9  4  1  6  0  0  0
  9  8  1  0  0  0  0
 10  1  1  0  0  0  0
 10  3  1  0  0  0  0
 11 12  1  0  0  0  0
 12 14  1  1  0  0  0
 12 18  1  0  0  0  0
 13 17  1  0  0  0  0
 15 13  1  0  0  0  0
 15 11  1  0  0  0  0
 16 13  2  0  0  0  0
 17  1  1  1  0  0  0
 17 18  1  0  0  0  0
 19 20  2  0  0  0  0
 20  7  1  0  0  0  0
 20 21  1  0  0  0  0
 22 24  1  0  0  0  0
 22 27  1  0  0  0  0
 23 25  2  0  0  0  0
 24 26  1  6  0  0  0
 24 28  1  0  0  0  0
 27 21  1  1  0  0  0
 27 23  1  0  0  0  0
 28 23  1  0  0  0  0
M  END
>  <MODEL>
4

>  <REMARK>
 VINA RESULT:      -7.3      1.746      2.250
  Name = 
  3 active torsions:
  status: ('A' for Active; 'I' for Inactive)
    1  A    between atoms: C_4  and  C_26
    2  A    between atoms: C_6  and  C_18
    3  A    between atoms: N_7  and  C_24
                            x       y       z     vdW  Elec       q    Type
                         _______ _______ _______ _____ _____    ______ ____

>  <TORSDO>
F 3

$$$$
=
 OpenBabel11062419553D

 28 31  0  0  1  0  0  0  0  0999 V2000
  186.3810  176.9730  143.8770 C   0  0  0  0  0  0  0  0  0  0  0  0
  187.3100  177.0230  144.7800 C   0  0  0  0  0  0  0  0  0  0  0  0
  185.1000  178.6560  145.2580 C   0  0  0  0  0  2  0  0  0  0  0  0
  187.3610  177.8180  146.9490 O   0  0  0  0  0  0  0  0  0  0  0  0
  185.8360  179.7890  147.5960 O   0  0  0  0  0  1  0  0  0  0  0  0
  184.8440  177.8330  146.5310 C   0  0  2  0  0  3  0  0  0  0  0  0
  188.0200  177.2790  145.8350 C   0  0  0  0  0  0  0  0  0  0  0  0
  185.1960  178.5640  147.8310 C   0  0  1  0  0  3  0  0  0  0  0  0
  186.0570  177.3850  147.3750 C   0  0  2  0  0  3  0  0  0  0  0  0
  185.2120  177.7750  144.0890 N   0  0  0  0  0  2  0  0  0  0  0  0
  188.5940  175.0380  140.8880 C   0  0  0  0  0  2  0  0  0  0  0  0
  187.8150  174.1080  141.8060 C   0  0  1  0  0  3  0  0  0  0  0  0
  186.9270  176.7800  141.4580 C   0  0  0  0  0  0  0  0  0  0  0  0
  188.6190  173.0270  142.1640 O   0  0  0  0  0  1  0  0  0  0  0  0
  187.8170  176.1860  140.5540 O   0  0  0  0  0  0  0  0  0  0  0  0
  186.4010  177.8860  141.1630 O   0  0  0  0  0  0  0  0  0  0  0  0
  186.4970  176.0490  142.7080 C   0  0  1  0  0  3  0  0  0  0  0  0
  187.4310  174.8890  143.0540 C   0  0  0  0  0  2  0  0  0  0  0  0
  190.1350  177.4240  146.8680 O   0  0  0  0  0  0  0  0  0  0  0  0
  189.4830  177.1430  145.8270 C   0  0  0  0  0  0  0  0  0  0  0  0
  190.1620  176.6920  144.6440 N   0  0  0  0  0  2  0  0  0  0  0  0
  192.0620  176.7860  143.0840 C   0  0  0  0  0  2  0  0  0  0  0  0
  192.0240  175.1260  144.7770 C   0  0  0  0  0  0  0  0  0  0  0  0
  193.0070  175.6490  142.6870 C   0  0  1  0  0  3  0  0  0  0  0  0
  191.7630  174.5360  145.8140 O   0  0  0  0  0  0  0  0  0  0  0  0
  194.3250  176.1010  142.7560 O   0  0  0  0  0  1  0  0  0  0  0  0
  191.6090  176.5230  144.5110 C   0  0  2  0  0  3  0  0  0  0  0  0
  192.8120  174.5160  143.6840 C   0  0  0  0  0  2  0  0  0  0  0  0
  1 10  1  0  0  0  0
  1  2  2  0  0  0  0
  2  7  2  0  0  0  0
  6  3  1  6  0  0  0
  6  9  1  0  0  0  0
  6  8  1  0  0  0  0
  7  4  1  0  0  0  0
  8  5  1  6  0  0  0
  9  4  1  6  0  0  0
  9  8  1  0  0  0  0
 10  3  1  0  0  0  0
 11 12  1  0  0  0  0
 12 14  1  1  0  0  0
 12 18  1  0  0  0  0
 13 17  1  0  0  0  0
 15 11  1  0  0  0  0
 15 13  1  0  0  0  0
 16 13  2  0  0  0  0
 17 18  1  0  0  0  0
 17  1  1  1  0  0  0
 20  7  1  0  0  0  0
 20 19  2  0  0  0  0
 21 20  1  0  0  0  0
 22 27  1  0  0  0  0
 23 25  2  0  0  0  0
 24 26  1  1  0  0  0
 24 22  1  0  0  0  0
 24 28  1  0  0  0  0
 27 21  1  6  0  0  0
 27 23  1  0  0  0  0
 28 23  1  0  0  0  0
M  END
>  <MODEL>
5

>  <REMARK>
 VINA RESULT:      -7.2      1.491      1.594
  Name = 
  3 active torsions:
  status: ('A' for Active; 'I' for Inactive)
    1  A    between atoms: C_4  and  C_26
    2  A    between atoms: C_6  and  C_18
    3  A    between atoms: N_7  and  C_24
                            x       y       z     vdW  Elec       q    Type
                         _______ _______ _______ _____ _____    ______ ____

>  <TORSDO>
F 3

$$$$
=
 OpenBabel11062419553D

 28 31  0  0  1  0  0  0  0  0999 V2000
  191.4710  173.9750  144.0650 C   0  0  0  0  0  0  0  0  0  0  0  0
  191.1120  175.2090  144.2320 C   0  0  0  0  0  0  0  0  0  0  0  0
  193.2890  174.3880  145.7690 C   0  0  0  0  0  2  0  0  0  0  0  0
  192.1510  177.0400  145.1820 O   0  0  0  0  0  0  0  0  0  0  0  0
  193.8220  176.6730  147.1070 O   0  0  0  0  0  1  0  0  0  0  0  0
  194.1310  175.4390  145.0280 C   0  0  2  0  0  3  0  0  0  0  0  0
  191.0200  176.4490  144.6020 C   0  0  0  0  0  0  0  0  0  0  0  0
  194.4780  176.6710  145.8690 C   0  0  1  0  0  3  0  0  0  0  0  0
  193.4890  176.8060  144.7090 C   0  0  2  0  0  3  0  0  0  0  0  0
  192.6010  173.5100  144.8140 N   0  0  0  0  0  2  0  0  0  0  0  0
  188.1940  172.9950  141.6400 C   0  0  0  0  0  2  0  0  0  0  0  0
  189.5130  173.1500  140.8970 C   0  0  1  0  0  3  0  0  0  0  0  0
  189.5430  172.4590  143.6480 C   0  0  0  0  0  0  0  0  0  0  0  0
  189.3030  173.8810  139.7290 O   0  0  0  0  0  1  0  0  0  0  0  0
  188.3880  172.3030  142.8730 O   0  0  0  0  0  0  0  0  0  0  0  0
  189.5790  171.9560  144.8030 O   0  0  0  0  0  0  0  0  0  0  0  0
  190.7800  173.1020  143.0670 C   0  0  1  0  0  3  0  0  0  0  0  0
  190.4780  173.9030  141.8000 C   0  0  0  0  0  2  0  0  0  0  0  0
  189.4890  177.9020  143.5510 O   0  0  0  0  0  0  0  0  0  0  0  0
  189.7430  177.1740  144.5470 C   0  0  0  0  0  0  0  0  0  0  0  0
  188.7950  177.0510  145.6190 N   0  0  0  0  0  2  0  0  0  0  0  0
  187.0800  177.9760  147.1220 C   0  0  0  0  0  2  0  0  0  0  0  0
  186.4140  176.8800  145.1270 C   0  0  0  0  0  0  0  0  0  0  0  0
  185.6190  177.5430  147.2580 C   0  0  1  0  0  3  0  0  0  0  0  0
  186.4390  176.4160  143.9990 O   0  0  0  0  0  0  0  0  0  0  0  0
  184.8010  178.6720  147.2530 O   0  0  0  0  0  1  0  0  0  0  0  0
  187.4980  177.7250  145.6820 C   0  0  2  0  0  3  0  0  0  0  0  0
  185.2810  176.6730  146.0550 C   0  0  0  0  0  2  0  0  0  0  0  0
  1  2  2  0  0  0  0
  1 10  1  0  0  0  0
  2  7  2  0  0  0  0
  6  3  1  1  0  0  0
  6  8  1  0  0  0  0
  7  4  1  0  0  0  0
  8  5  1  1  0  0  0
  9  6  1  0  0  0  0
  9  4  1  1  0  0  0
  9  8  1  0  0  0  0
 10  3  1  0  0  0  0
 11 15  1  0  0  0  0
 12 14  1  6  0  0  0
 12 11  1  0  0  0  0
 12 18  1  0  0  0  0
 13 16  2  0  0  0  0
 15 13  1  0  0  0  0
 17 13  1  0  0  0  0
 17  1  1  1  0  0  0
 18 17  1  0  0  0  0
 19 20  2  0  0  0  0
 20  7  1  0  0  0  0
 20 21  1  0  0  0  0
 22 24  1  0  0  0  0
 23 27  1  0  0  0  0
 23 28  1  0  0  0  0
 24 26  1  6  0  0  0
 25 23  2  0  0  0  0
 27 21  1  1  0  0  0
 27 22  1  0  0  0  0
 28 24  1  0  0  0  0
M  END
>  <MODEL>
6

>  <REMARK>
 VINA RESULT:      -7.2      2.079      6.323
  Name = 
  3 active torsions:
  status: ('A' for Active; 'I' for Inactive)
    1  A    between atoms: C_4  and  C_26
    2  A    between atoms: C_6  and  C_18
    3  A    between atoms: N_7  and  C_24
                            x       y       z     vdW  Elec       q    Type
                         _______ _______ _______ _____ _____    ______ ____

>  <TORSDO>
F 3

$$$$
=
 OpenBabel11062419553D

 28 31  0  0  1  0  0  0  0  0999 V2000
  191.1490  174.6030  143.2150 C   0  0  0  0  0  0  0  0  0  0  0  0
  189.9830  175.1660  143.1680 C   0  0  0  0  0  0  0  0  0  0  0  0
  190.7080  173.7460  140.8800 C   0  0  0  0  0  2  0  0  0  0  0  0
  188.1500  174.8890  141.7910 O   0  0  0  0  0  0  0  0  0  0  0  0
  188.5180  174.1490  139.3510 O   0  0  0  0  0  1  0  0  0  0  0  0
  189.5050  172.8250  141.1450 C   0  0  2  0  0  3  0  0  0  0  0  0
  188.8020  175.5770  142.8230 C   0  0  0  0  0  0  0  0  0  0  0  0
  188.3290  173.0390  140.1870 C   0  0  1  0  0  3  0  0  0  0  0  0
  188.1910  173.4570  141.6520 C   0  0  2  0  0  3  0  0  0  0  0  0
  191.5590  173.8390  142.0730 N   0  0  0  0  0  2  0  0  0  0  0  0
  192.5250  176.5880  146.6420 C   0  0  0  0  0  2  0  0  0  0  0  0
  191.9110  175.2200  146.9020 C   0  0  1  0  0  3  0  0  0  0  0  0
  193.0210  175.7820  144.3520 C   0  0  0  0  0  0  0  0  0  0  0  0
  191.0750  175.2910  148.0140 O   0  0  0  0  0  1  0  0  0  0  0  0
  193.3390  176.5620  145.4710 O   0  0  0  0  0  0  0  0  0  0  0  0
  193.6840  175.9330  143.2920 O   0  0  0  0  0  0  0  0  0  0  0  0
  191.9910  174.6820  144.4480 C   0  0  1  0  0  3  0  0  0  0  0  0
  191.0960  174.8280  145.6790 C   0  0  0  0  0  2  0  0  0  0  0  0
  188.2900  177.8770  142.7410 O   0  0  0  0  0  0  0  0  0  0  0  0
  188.2170  176.7990  143.3910 C   0  0  0  0  0  0  0  0  0  0  0  0
  187.5680  176.7650  144.6720 N   0  0  0  0  0  2  0  0  0  0  0  0
  187.2080  177.8700  146.8400 C   0  0  0  0  0  2  0  0  0  0  0  0
  185.4800  177.8960  145.2170 C   0  0  0  0  0  0  0  0  0  0  0  0
  185.8770  178.1580  147.5370 C   0  0  1  0  0  3  0  0  0  0  0  0
  184.9000  177.8510  144.1440 O   0  0  0  0  0  0  0  0  0  0  0  0
  185.8690  179.4780  147.9880 O   0  0  0  0  0  1  0  0  0  0  0  0
  186.9560  177.9120  145.3410 C   0  0  2  0  0  3  0  0  0  0  0  0
  184.7690  177.9710  146.5110 C   0  0  0  0  0  2  0  0  0  0  0  0
  2  1  2  0  0  0  0
  3 10  1  0  0  0  0
  4  7  1  0  0  0  0
  6  3  1  6  0  0  0
  6  9  1  0  0  0  0
  7  2  2  0  0  0  0
  7 20  1  0  0  0  0
  8  5  1  6  0  0  0
  8  6  1  0  0  0  0
  8  9  1  0  0  0  0
  9  4  1  6  0  0  0
 10  1  1  0  0  0  0
 11 12  1  0  0  0  0
 12 14  1  1  0  0  0
 13 17  1  0  0  0  0
 13 15  1  0  0  0  0
 15 11  1  0  0  0  0
 16 13  2  0  0  0  0
 17  1  1  6  0  0  0
 17 18  1  0  0  0  0
 18 12  1  0  0  0  0
 19 20  2  0  0  0  0
 20 21  1  0  0  0  0
 22 24  1  0  0  0  0
 23 27  1  0  0  0  0
 23 28  1  0  0  0  0
 24 26  1  6  0  0  0
 25 23  2  0  0  0  0
 27 21  1  6  0  0  0
 27 22  1  0  0  0  0
 28 24  1  0  0  0  0
M  END
>  <MODEL>
7

>  <REMARK>
 VINA RESULT:      -7.1      1.887      6.785
  Name = 
  3 active torsions:
  status: ('A' for Active; 'I' for Inactive)
    1  A    between atoms: C_4  and  C_26
    2  A    between atoms: C_6  and  C_18
    3  A    between atoms: N_7  and  C_24
                            x       y       z     vdW  Elec       q    Type
                         _______ _______ _______ _____ _____    ______ ____

>  <TORSDO>
F 3

$$$$
=
 OpenBabel11062419553D

 28 31  0  0  1  0  0  0  0  0999 V2000
  186.3970  178.6850  143.7900 C   0  0  0  0  0  0  0  0  0  0  0  0
  187.0160  177.6610  144.2890 C   0  0  0  0  0  0  0  0  0  0  0  0
  185.8490  179.3690  146.1590 C   0  0  0  0  0  2  0  0  0  0  0  0
  186.9940  176.6630  146.3710 O   0  0  0  0  0  0  0  0  0  0  0  0
  186.5360  178.1140  148.4500 O   0  0  0  0  0  1  0  0  0  0  0  0
  184.9610  178.1900  146.5910 C   0  0  2  0  0  3  0  0  0  0  0  0
  187.5200  176.7630  145.0760 C   0  0  0  0  0  0  0  0  0  0  0  0
  185.3450  177.5790  147.9420 C   0  0  1  0  0  3  0  0  0  0  0  0
  185.5890  176.7820  146.6590 C   0  0  2  0  0  3  0  0  0  0  0  0
  185.7570  179.5800  144.7090 N   0  0  0  0  0  2  0  0  0  0  0  0
  185.9610  177.2030  139.8930 C   0  0  0  0  0  2  0  0  0  0  0  0
  184.9150  178.2270  140.3050 C   0  0  1  0  0  3  0  0  0  0  0  0
  187.4490  178.2410  141.5800 C   0  0  0  0  0  0  0  0  0  0  0  0
  183.6560  177.7970  139.8900 O   0  0  0  0  0  1  0  0  0  0  0  0
  187.2540  177.5860  140.3580 O   0  0  0  0  0  0  0  0  0  0  0  0
  188.6220  178.3990  142.0110 O   0  0  0  0  0  0  0  0  0  0  0  0
  186.2860  178.8700  142.3110 C   0  0  1  0  0  3  0  0  0  0  0  0
  184.9370  178.3420  141.8210 C   0  0  0  0  0  2  0  0  0  0  0  0
  189.7590  176.0720  145.3470 O   0  0  0  0  0  0  0  0  0  0  0  0
  188.6920  175.9680  144.6840 C   0  0  0  0  0  0  0  0  0  0  0  0
  188.6210  175.0800  143.5570 N   0  0  0  0  0  2  0  0  0  0  0  0
  189.6080  174.0210  141.5670 C   0  0  0  0  0  2  0  0  0  0  0  0
  189.6670  172.8820  143.6460 C   0  0  0  0  0  0  0  0  0  0  0  0
  189.8250  172.5290  141.3090 C   0  0  1  0  0  3  0  0  0  0  0  0
  189.6600  172.6650  144.8470 O   0  0  0  0  0  0  0  0  0  0  0  0
  191.1200  172.3280  140.8330 O   0  0  0  0  0  1  0  0  0  0  0  0
  189.7170  174.2450  143.0680 C   0  0  2  0  0  3  0  0  0  0  0  0
  189.6590  171.8020  142.6360 C   0  0  0  0  0  2  0  0  0  0  0  0
  1  2  2  0  0  0  0
  1 10  1  0  0  0  0
  2  7  2  0  0  0  0
  6  3  1  6  0  0  0
  6  9  1  0  0  0  0
  6  8  1  0  0  0  0
  7  4  1  0  0  0  0
  8  5  1  6  0  0  0
  9  4  1  6  0  0  0
  9  8  1  0  0  0  0
 10  3  1  0  0  0  0
 11 12  1  0  0  0  0
 11 15  1  0  0  0  0
 12 14  1  1  0  0  0
 12 18  1  0  0  0  0
 13 16  2  0  0  0  0
 13 17  1  0  0  0  0
 15 13  1  0  0  0  0
 17  1  1  1  0  0  0
 18 17  1  0  0  0  0
 20  7  1  0  0  0  0
 20 19  2  0  0  0  0
 21 20  1  0  0  0  0
 22 27  1  0  0  0  0
 23 25  2  0  0  0  0
 24 26  1  1  0  0  0
 24 22  1  0  0  0  0
 24 28  1  0  0  0  0
 27 21  1  1  0  0  0
 27 23  1  0  0  0  0
 28 23  1  0  0  0  0
M  END
>  <MODEL>
8

>  <REMARK>
 VINA RESULT:      -7.0      2.807      3.730
  Name = 
  3 active torsions:
  status: ('A' for Active; 'I' for Inactive)
    1  A    between atoms: C_4  and  C_26
    2  A    between atoms: C_6  and  C_18
    3  A    between atoms: N_7  and  C_24
                            x       y       z     vdW  Elec       q    Type
                         _______ _______ _______ _____ _____    ______ ____

>  <TORSDO>
F 3

$$$$
=
 OpenBabel11062419553D

 28 31  0  0  1  0  0  0  0  0999 V2000
  188.1930  177.0500  144.8960 C   0  0  0  0  0  0  0  0  0  0  0  0
  188.1150  176.6230  143.6740 C   0  0  0  0  0  0  0  0  0  0  0  0
  185.8230  177.8840  144.6420 C   0  0  0  0  0  2  0  0  0  0  0  0
  186.6590  177.0700  141.9370 O   0  0  0  0  0  0  0  0  0  0  0  0
  184.2200  177.6930  142.4770 O   0  0  0  0  0  1  0  0  0  0  0  0
  186.0180  178.9440  143.5450 C   0  0  2  0  0  3  0  0  0  0  0  0
  187.7340  176.3410  142.4670 C   0  0  0  0  0  0  0  0  0  0  0  0
  185.0200  178.8400  142.3870 C   0  0  1  0  0  3  0  0  0  0  0  0
  186.4880  178.4820  142.1490 C   0  0  2  0  0  3  0  0  0  0  0  0
  187.0500  177.7280  145.4320 N   0  0  0  0  0  2  0  0  0  0  0  0
  191.9040  175.2500  145.6480 C   0  0  0  0  0  2  0  0  0  0  0  0
  191.9580  176.7560  145.4420 C   0  0  1  0  0  3  0  0  0  0  0  0
  189.5520  175.5640  146.3580 C   0  0  0  0  0  0  0  0  0  0  0  0
  193.0340  177.0740  144.6150 O   0  0  0  0  0  1  0  0  0  0  0  0
  190.7750  174.8880  146.4400 O   0  0  0  0  0  0  0  0  0  0  0  0
  188.5480  175.0920  146.9550 O   0  0  0  0  0  0  0  0  0  0  0  0
  189.4600  176.9100  145.6780 C   0  0  1  0  0  3  0  0  0  0  0  0
  190.6610  177.1880  144.7730 C   0  0  0  0  0  2  0  0  0  0  0  0
  188.0570  175.0880  140.4950 O   0  0  0  0  0  0  0  0  0  0  0  0
  188.3070  175.2100  141.7250 C   0  0  0  0  0  0  0  0  0  0  0  0
  189.1460  174.2560  142.3940 N   0  0  0  0  0  2  0  0  0  0  0  0
  189.5020  171.8280  142.5720 C   0  0  0  0  0  2  0  0  0  0  0  0
  191.2450  173.2050  141.7400 C   0  0  0  0  0  0  0  0  0  0  0  0
  190.8310  171.0820  142.7070 C   0  0  1  0  0  3  0  0  0  0  0  0
  191.8340  174.1470  141.2350 O   0  0  0  0  0  0  0  0  0  0  0  0
  190.8540  170.0150  141.8090 O   0  0  0  0  0  1  0  0  0  0  0  0
  189.7680  173.0900  141.7670 C   0  0  2  0  0  3  0  0  0  0  0  0
  191.9460  172.0570  142.3560 C   0  0  0  0  0  2  0  0  0  0  0  0
  1 10  1  0  0  0  0
  2  1  2  0  0  0  0
  3 10  1  0  0  0  0
  4  7  1  0  0  0  0
  6  3  1  1  0  0  0
  7  2  2  0  0  0  0
  8  5  1  1  0  0  0
  8  6  1  0  0  0  0
  9  4  1  1  0  0  0
  9  8  1  0  0  0  0
  9  6  1  0  0  0  0
 11 15  1  0  0  0  0
 12 14  1  6  0  0  0
 12 11  1  0  0  0  0
 13 15  1  0  0  0  0
 13 16  2  0  0  0  0
 17  1  1  6  0  0  0
 17 13  1  0  0  0  0
 18 12  1  0  0  0  0
 18 17  1  0  0  0  0
 19 20  2  0  0  0  0
 20 21  1  0  0  0  0
 20  7  1  0  0  0  0
 22 24  1  0  0  0  0
 23 27  1  0  0  0  0
 23 28  1  0  0  0  0
 24 26  1  6  0  0  0
 25 23  2  0  0  0  0
 27 21  1  1  0  0  0
 27 22  1  0  0  0  0
 28 24  1  0  0  0  0
M  END
>  <MODEL>
9

>  <REMARK>
 VINA RESULT:      -7.0      2.522      5.072
  Name = 
  3 active torsions:
  status: ('A' for Active; 'I' for Inactive)
    1  A    between atoms: C_4  and  C_26
    2  A    between atoms: C_6  and  C_18
    3  A    between atoms: N_7  and  C_24
                            x       y       z     vdW  Elec       q    Type
                         _______ _______ _______ _____ _____    ______ ____

>  <TORSDO>
F 3

$$$$
