=
 OpenBabel11062422433D

 29 32  0  0  1  0  0  0  0  0999 V2000
  191.7990  176.1680  144.1910 C   0  0  2  0  0  3  0  0  0  0  0  0
  191.5550  177.3470  143.2640 C   0  0  0  0  0  1  0  0  0  0  0  0
  191.5580  176.5790  145.6000 N   0  0  0  0  0  0  0  0  0  0  0  0
  193.9230  176.2920  146.2600 C   0  0  0  0  0  2  0  0  0  0  0  0
  193.2170  175.6340  143.9210 C   0  0  0  0  0  2  0  0  0  0  0  0
  192.4740  175.8650  146.5040 C   0  0  0  0  0  2  0  0  0  0  0  0
  194.2410  176.3960  144.7660 C   0  0  2  0  0  3  0  0  0  0  0  0
  195.6770  175.9480  144.4890 C   0  0  1  0  0  3  0  0  0  0  0  0
  196.0430  174.9190  145.3620 O   0  0  0  0  0  1  0  0  0  0  0  0
  196.6040  173.8180  141.7110 C   0  0  0  0  0  2  0  0  0  0  0  0
  196.9250  174.7870  140.6110 C   0  0  0  0  0  0  0  0  0  0  0  0
  195.8570  175.5010  143.0390 C   0  0  2  0  0  3  0  0  0  0  0  0
  197.3110  174.3770  139.4860 O   0  0  0  0  0  0  0  0  0  0  0  0
  196.7700  174.4300  142.9710 O   0  0  0  0  0  0  0  0  0  0  0  0
  196.3810  176.6590  142.1780 C   0  0  0  0  0  2  0  0  0  0  0  0
  196.6960  176.1790  140.8360 N   0  0  0  0  0  2  0  0  0  0  0  0
  190.1810  176.2140  145.9870 C   0  0  1  0  0  3  0  0  0  0  0  0
  190.1680  175.4790  147.3300 C   0  0  0  0  0  2  0  0  0  0  0  0
  189.2160  174.4600  147.3130 O   0  0  0  0  0  1  0  0  0  0  0  0
  189.2870  177.4500  146.1150 C   0  0  0  0  0  2  0  0  0  0  0  0
  186.5290  176.6340  146.0280 S   0  0  0  0  0  0  0  0  0  0  0  0
  187.9420  177.7750  144.0600 C   0  0  0  0  0  2  0  0  0  0  0  0
  185.7240  177.4110  144.6430 C   0  0  2  0  0  3  0  0  0  0  0  0
  186.0870  178.9040  142.9500 N   0  0  0  0  0  2  0  0  0  0  0  0
  185.1350  179.3430  143.6680 N   0  0  0  0  0  0  0  0  0  0  0  0
  186.5840  177.6290  143.4570 C   0  0  1  0  0  3  0  0  0  0  0  0
  184.9000  178.4410  144.7350 C   0  0  0  0  0  0  0  0  0  0  0  0
  188.0370  177.3020  145.3090 C   0  0  1  0  0  3  0  0  0  0  0  0
  184.1280  178.8160  145.9540 C   0  0  0  0  0  1  0  0  0  0  0  0
  1  2  1  6  0  0  0
  1  3  1  0  0  0  0
  3 17  1  0  0  0  0
  3  6  1  0  0  0  0
  4  6  1  0  0  0  0
  5  1  1  0  0  0  0
  5  7  1  0  0  0  0
  7  8  1  1  0  0  0
  7  4  1  0  0  0  0
  8  9  1  1  0  0  0
 10 14  1  0  0  0  0
 11 16  1  0  0  0  0
 11 10  1  0  0  0  0
 12  8  1  1  0  0  0
 13 11  2  0  0  0  0
 14 12  1  0  0  0  0
 15 12  1  0  0  0  0
 16 15  1  0  0  0  0
 17 20  1  1  0  0  0
 17 18  1  0  0  0  0
 19 18  1  0  0  0  0
 22 28  1  0  0  0  0
 23 27  1  1  0  0  0
 23 21  1  0  0  0  0
 24 26  1  0  0  0  0
 24 25  1  0  0  0  0
 25 27  2  0  0  0  0
 26 22  1  1  0  0  0
 26 23  1  0  0  0  0
 27 29  1  0  0  0  0
 28 21  1  0  0  0  0
 28 20  1  1  0  0  0
M  END
>  <MODEL>
1

>  <REMARK>
 VINA RESULT:      -7.0      0.000      0.000
  Name = 
  6 active torsions:
  status: ('A' for Active; 'I' for Inactive)
    1  A    between atoms: C_2  and  C_14
    2  A    between atoms: C_2  and  C_27
    3  A    between atoms: C_8  and  C_20
    4  A    between atoms: C_8  and  C_28
    5  A    between atoms: N_11  and  C_20
    6  A    between atoms: C_17  and  C_20
                            x       y       z     vdW  Elec       q    Type
                         _______ _______ _______ _____ _____    ______ ____

>  <TORSDO>
F 6

$$$$
=
 OpenBabel11062422433D

 29 32  0  0  1  0  0  0  0  0999 V2000
  190.5400  177.5320  144.4160 C   0  0  2  0  0  3  0  0  0  0  0  0
  191.7620  178.0680  143.6900 C   0  0  0  0  0  1  0  0  0  0  0  0
  190.8740  176.2430  145.0780 N   0  0  0  0  0  0  0  0  0  0  0  0
  189.3500  174.9260  143.6440 C   0  0  0  0  0  2  0  0  0  0  0  0
  189.3840  177.4450  143.4040 C   0  0  0  0  0  2  0  0  0  0  0  0
  189.7050  175.3480  145.0710 C   0  0  0  0  0  2  0  0  0  0  0  0
  189.4230  176.1030  142.6680 C   0  0  2  0  0  3  0  0  0  0  0  0
  188.3330  175.9880  141.6020 C   0  0  1  0  0  3  0  0  0  0  0  0
  187.9120  174.6600  141.4770 O   0  0  0  0  0  1  0  0  0  0  0  0
  185.3340  177.1520  143.2660 C   0  0  0  0  0  2  0  0  0  0  0  0
  184.6080  177.9170  142.1980 C   0  0  0  0  0  0  0  0  0  0  0  0
  187.1420  176.8920  141.9170 C   0  0  2  0  0  3  0  0  0  0  0  0
  183.4940  178.4500  142.4350 O   0  0  0  0  0  0  0  0  0  0  0  0
  186.1920  176.1930  142.6890 O   0  0  0  0  0  0  0  0  0  0  0  0
  186.4740  177.3760  140.6220 C   0  0  0  0  0  2  0  0  0  0  0  0
  185.2490  178.1060  140.9360 N   0  0  0  0  0  2  0  0  0  0  0  0
  191.2310  176.4950  146.4870 C   0  0  1  0  0  3  0  0  0  0  0  0
  189.9760  176.6970  147.3400 C   0  0  0  0  0  2  0  0  0  0  0  0
  189.9140  178.0120  147.8030 O   0  0  0  0  0  1  0  0  0  0  0  0
  192.0230  175.3280  147.0830 C   0  0  0  0  0  2  0  0  0  0  0  0
  193.2710  173.5850  145.1630 S   0  0  0  0  0  0  0  0  0  0  0  0
  194.2770  175.8420  146.1920 C   0  0  0  0  0  2  0  0  0  0  0  0
  194.6190  174.4390  144.3740 C   0  0  2  0  0  3  0  0  0  0  0  0
  195.6620  176.4710  144.2870 N   0  0  0  0  0  2  0  0  0  0  0  0
  195.2420  176.1910  143.1200 N   0  0  0  0  0  0  0  0  0  0  0  0
  195.3360  175.4100  145.2330 C   0  0  1  0  0  3  0  0  0  0  0  0
  194.5770  174.9400  143.1510 C   0  0  0  0  0  0  0  0  0  0  0  0
  193.2290  175.0130  146.2560 C   0  0  1  0  0  3  0  0  0  0  0  0
  193.6570  174.4880  142.0700 C   0  0  0  0  0  1  0  0  0  0  0  0
  1  2  1  6  0  0  0
  1  3  1  0  0  0  0
  3 17  1  0  0  0  0
  4  6  1  0  0  0  0
  5  1  1  0  0  0  0
  6  3  1  0  0  0  0
  7  8  1  6  0  0  0
  7  5  1  0  0  0  0
  7  4  1  0  0  0  0
  8  9  1  1  0  0  0
 11 13  2  0  0  0  0
 11 10  1  0  0  0  0
 12  8  1  6  0  0  0
 12 14  1  0  0  0  0
 14 10  1  0  0  0  0
 15 16  1  0  0  0  0
 15 12  1  0  0  0  0
 16 11  1  0  0  0  0
 17 20  1  1  0  0  0
 17 18  1  0  0  0  0
 18 19  1  0  0  0  0
 21 28  1  0  0  0  0
 22 28  1  0  0  0  0
 23 27  1  6  0  0  0
 23 21  1  0  0  0  0
 23 26  1  0  0  0  0
 24 26  1  0  0  0  0
 25 27  2  0  0  0  0
 25 24  1  0  0  0  0
 26 22  1  1  0  0  0
 28 20  1  6  0  0  0
 29 27  1  0  0  0  0
M  END
>  <MODEL>
2

>  <REMARK>
 VINA RESULT:      -7.0      3.671      8.240
  Name = 
  6 active torsions:
  status: ('A' for Active; 'I' for Inactive)
    1  A    between atoms: C_2  and  C_14
    2  A    between atoms: C_2  and  C_27
    3  A    between atoms: C_8  and  C_20
    4  A    between atoms: C_8  and  C_28
    5  A    between atoms: N_11  and  C_20
    6  A    between atoms: C_17  and  C_20
                            x       y       z     vdW  Elec       q    Type
                         _______ _______ _______ _____ _____    ______ ____

>  <TORSDO>
F 6

$$$$
=
 OpenBabel11062422433D

 29 32  0  0  1  0  0  0  0  0999 V2000
  191.4690  176.5900  144.0370 C   0  0  2  0  0  3  0  0  0  0  0  0
  191.3040  178.0330  143.5890 C   0  0  0  0  0  1  0  0  0  0  0  0
  191.4260  176.5180  145.5220 N   0  0  0  0  0  0  0  0  0  0  0  0
  193.7790  175.7880  145.7170 C   0  0  0  0  0  2  0  0  0  0  0  0
  192.7640  176.0420  143.4130 C   0  0  0  0  0  2  0  0  0  0  0  0
  192.3160  175.4510  146.0070 C   0  0  0  0  0  2  0  0  0  0  0  0
  193.9630  176.3630  144.3100 C   0  0  2  0  0  3  0  0  0  0  0  0
  195.2870  175.8950  143.7060 C   0  0  1  0  0  3  0  0  0  0  0  0
  196.2870  176.8470  143.9250 O   0  0  0  0  0  1  0  0  0  0  0  0
  197.1620  173.5080  145.6810 C   0  0  0  0  0  2  0  0  0  0  0  0
  197.1150  172.2520  144.8620 C   0  0  0  0  0  0  0  0  0  0  0  0
  195.7150  174.5400  144.2690 C   0  0  2  0  0  3  0  0  0  0  0  0
  197.6970  171.2070  145.2530 O   0  0  0  0  0  0  0  0  0  0  0  0
  196.9910  174.6400  144.8590 O   0  0  0  0  0  0  0  0  0  0  0  0
  195.7620  173.4830  143.1560 C   0  0  0  0  0  2  0  0  0  0  0  0
  196.3210  172.2380  143.6750 N   0  0  0  0  0  2  0  0  0  0  0  0
  190.0550  176.1830  145.9550 C   0  0  1  0  0  3  0  0  0  0  0  0
  190.0710  175.4650  147.3070 C   0  0  0  0  0  2  0  0  0  0  0  0
  189.1350  174.4300  147.3140 O   0  0  0  0  0  1  0  0  0  0  0  0
  189.1880  177.4370  146.0960 C   0  0  0  0  0  2  0  0  0  0  0  0
  186.4210  176.6450  146.0920 S   0  0  0  0  0  0  0  0  0  0  0  0
  187.7820  177.7800  144.0850 C   0  0  0  0  0  2  0  0  0  0  0  0
  185.5800  177.4340  144.7350 C   0  0  2  0  0  3  0  0  0  0  0  0
  185.9040  178.9290  143.0360 N   0  0  0  0  0  2  0  0  0  0  0  0
  184.9780  179.3740  143.7860 N   0  0  0  0  0  0  0  0  0  0  0  0
  186.4050  177.6480  143.5230 C   0  0  1  0  0  3  0  0  0  0  0  0
  184.7690  178.4710  144.8570 C   0  0  0  0  0  0  0  0  0  0  0  0
  187.9120  177.3030  145.3280 C   0  0  1  0  0  3  0  0  0  0  0  0
  184.0380  178.8480  146.1000 C   0  0  0  0  0  1  0  0  0  0  0  0
  1  2  1  1  0  0  0
  1  3  1  0  0  0  0
  3 17  1  0  0  0  0
  3  6  1  0  0  0  0
  4  6  1  0  0  0  0
  5  1  1  0  0  0  0
  5  7  1  0  0  0  0
  7  8  1  6  0  0  0
  7  4  1  0  0  0  0
  8  9  1  1  0  0  0
 11 13  2  0  0  0  0
 11 10  1  0  0  0  0
 12  8  1  6  0  0  0
 12 14  1  0  0  0  0
 14 10  1  0  0  0  0
 15 16  1  0  0  0  0
 15 12  1  0  0  0  0
 16 11  1  0  0  0  0
 17 20  1  1  0  0  0
 17 18  1  0  0  0  0
 18 19  1  0  0  0  0
 22 28  1  0  0  0  0
 23 27  1  1  0  0  0
 23 21  1  0  0  0  0
 24 26  1  0  0  0  0
 24 25  1  0  0  0  0
 25 27  2  0  0  0  0
 26 22  1  1  0  0  0
 26 23  1  0  0  0  0
 27 29  1  0  0  0  0
 28 21  1  0  0  0  0
 28 20  1  1  0  0  0
M  END
>  <MODEL>
3

>  <REMARK>
 VINA RESULT:      -7.0      1.644      2.160
  Name = 
  6 active torsions:
  status: ('A' for Active; 'I' for Inactive)
    1  A    between atoms: C_2  and  C_14
    2  A    between atoms: C_2  and  C_27
    3  A    between atoms: C_8  and  C_20
    4  A    between atoms: C_8  and  C_28
    5  A    between atoms: N_11  and  C_20
    6  A    between atoms: C_17  and  C_20
                            x       y       z     vdW  Elec       q    Type
                         _______ _______ _______ _____ _____    ______ ____

>  <TORSDO>
F 6

$$$$
=
 OpenBabel11062422433D

 29 32  0  0  1  0  0  0  0  0999 V2000
  190.8490  176.9690  144.7850 C   0  0  2  0  0  3  0  0  0  0  0  0
  190.7340  176.8740  143.2730 C   0  0  0  0  0  1  0  0  0  0  0  0
  191.2710  175.6550  145.3400 N   0  0  0  0  0  0  0  0  0  0  0  0
  189.1380  175.2940  146.5360 C   0  0  0  0  0  2  0  0  0  0  0  0
  189.5100  177.4890  145.3340 C   0  0  0  0  0  2  0  0  0  0  0  0
  190.6560  175.4380  146.6590 C   0  0  0  0  0  2  0  0  0  0  0  0
  188.5450  176.3250  145.5720 C   0  0  2  0  0  3  0  0  0  0  0  0
  187.1730  176.7920  146.0590 C   0  0  1  0  0  3  0  0  0  0  0  0
  187.3130  177.6950  147.1170 O   0  0  0  0  0  1  0  0  0  0  0  0
  184.4150  178.4830  144.4320 C   0  0  0  0  0  2  0  0  0  0  0  0
  184.4450  177.9460  143.0300 C   0  0  0  0  0  0  0  0  0  0  0  0
  186.3600  177.4220  144.9300 C   0  0  2  0  0  3  0  0  0  0  0  0
  183.5920  178.3150  142.1830 O   0  0  0  0  0  0  0  0  0  0  0  0
  185.0140  177.5680  145.3230 O   0  0  0  0  0  0  0  0  0  0  0  0
  186.4190  176.5490  143.6680 C   0  0  0  0  0  2  0  0  0  0  0  0
  185.5150  177.0790  142.6520 N   0  0  0  0  0  2  0  0  0  0  0  0
  192.7350  175.6500  145.5270 C   0  0  1  0  0  3  0  0  0  0  0  0
  193.1130  176.2340  146.8900 C   0  0  0  0  0  2  0  0  0  0  0  0
  194.1990  177.0990  146.7590 O   0  0  0  0  0  1  0  0  0  0  0  0
  193.3060  174.2310  145.4460 C   0  0  0  0  0  2  0  0  0  0  0  0
  191.6290  172.2140  144.2610 S   0  0  0  0  0  0  0  0  0  0  0  0
  193.2330  173.9390  142.9870 C   0  0  0  0  0  2  0  0  0  0  0  0
  191.4250  172.5580  142.5260 C   0  0  2  0  0  3  0  0  0  0  0  0
  191.9560  174.0910  140.9150 N   0  0  0  0  0  2  0  0  0  0  0  0
  190.6890  174.0110  140.9840 N   0  0  0  0  0  0  0  0  0  0  0  0
  192.5930  173.1870  141.8670 C   0  0  1  0  0  3  0  0  0  0  0  0
  190.3330  173.0760  141.9870 C   0  0  0  0  0  0  0  0  0  0  0  0
  192.8520  173.5340  144.2040 C   0  0  1  0  0  3  0  0  0  0  0  0
  188.9690  173.0100  142.5820 C   0  0  0  0  0  1  0  0  0  0  0  0
  1  2  1  6  0  0  0
  1  5  1  0  0  0  0
  1  3  1  0  0  0  0
  3 17  1  0  0  0  0
  3  6  1  0  0  0  0
  4  6  1  0  0  0  0
  5  7  1  0  0  0  0
  7  8  1  1  0  0  0
  7  4  1  0  0  0  0
  8  9  1  1  0  0  0
 10 14  1  0  0  0  0
 11 10  1  0  0  0  0
 12 14  1  0  0  0  0
 12  8  1  1  0  0  0
 13 11  2  0  0  0  0
 15 12  1  0  0  0  0
 16 11  1  0  0  0  0
 16 15  1  0  0  0  0
 17 20  1  1  0  0  0
 17 18  1  0  0  0  0
 19 18  1  0  0  0  0
 22 28  1  0  0  0  0
 23 27  1  1  0  0  0
 23 21  1  0  0  0  0
 24 25  1  0  0  0  0
 24 26  1  0  0  0  0
 25 27  2  0  0  0  0
 26 23  1  0  0  0  0
 26 22  1  1  0  0  0
 27 29  1  0  0  0  0
 28 21  1  0  0  0  0
 28 20  1  6  0  0  0
M  END
>  <MODEL>
4

>  <REMARK>
 VINA RESULT:      -6.9      3.364      8.043
  Name = 
  6 active torsions:
  status: ('A' for Active; 'I' for Inactive)
    1  A    between atoms: C_2  and  C_14
    2  A    between atoms: C_2  and  C_27
    3  A    between atoms: C_8  and  C_20
    4  A    between atoms: C_8  and  C_28
    5  A    between atoms: N_11  and  C_20
    6  A    between atoms: C_17  and  C_20
                            x       y       z     vdW  Elec       q    Type
                         _______ _______ _______ _____ _____    ______ ____

>  <TORSDO>
F 6

$$$$
=
 OpenBabel11062422433D

 29 32  0  0  1  0  0  0  0  0999 V2000
  189.3990  175.8550  145.2200 C   0  0  2  0  0  3  0  0  0  0  0  0
  188.2680  176.0390  146.2180 C   0  0  0  0  0  1  0  0  0  0  0  0
  190.4170  176.9220  145.4120 N   0  0  0  0  0  0  0  0  0  0  0  0
  189.9900  177.9510  143.2060 C   0  0  0  0  0  2  0  0  0  0  0  0
  188.7880  175.8080  143.8090 C   0  0  0  0  0  2  0  0  0  0  0  0
  191.0210  177.2890  144.1210 C   0  0  0  0  0  2  0  0  0  0  0  0
  188.6440  177.2240  143.2460 C   0  0  2  0  0  3  0  0  0  0  0  0
  187.9810  177.2410  141.8680 C   0  0  1  0  0  3  0  0  0  0  0  0
  187.9230  175.9480  141.3400 O   0  0  0  0  0  1  0  0  0  0  0  0
  184.6470  177.9160  143.1100 C   0  0  0  0  0  2  0  0  0  0  0  0
  183.8600  178.2240  141.8700 C   0  0  0  0  0  0  0  0  0  0  0  0
  186.5820  177.8520  141.9240 C   0  0  2  0  0  3  0  0  0  0  0  0
  182.6320  178.4890  141.9370 O   0  0  0  0  0  0  0  0  0  0  0  0
  185.7630  177.1110  142.7990 O   0  0  0  0  0  0  0  0  0  0  0  0
  185.9410  177.8610  140.5290 C   0  0  0  0  0  2  0  0  0  0  0  0
  184.5510  178.3010  140.6220 N   0  0  0  0  0  2  0  0  0  0  0  0
  191.4990  176.4160  146.2800 C   0  0  1  0  0  3  0  0  0  0  0  0
  191.1220  176.5510  147.7570 C   0  0  0  0  0  2  0  0  0  0  0  0
  191.1920  175.3090  148.3880 O   0  0  0  0  0  1  0  0  0  0  0  0
  191.7980  174.9400  146.0010 C   0  0  0  0  0  2  0  0  0  0  0  0
  193.7450  173.2600  144.7090 S   0  0  0  0  0  0  0  0  0  0  0  0
  194.1350  175.7110  145.7150 C   0  0  0  0  0  2  0  0  0  0  0  0
  195.1520  174.2420  144.2320 C   0  0  2  0  0  3  0  0  0  0  0  0
  195.9260  176.3930  144.2080 N   0  0  0  0  0  2  0  0  0  0  0  0
  195.8960  175.9680  143.0100 N   0  0  0  0  0  0  0  0  0  0  0  0
  195.4690  175.3690  145.1400 C   0  0  1  0  0  3  0  0  0  0  0  0
  195.4050  174.6400  142.9960 C   0  0  0  0  0  0  0  0  0  0  0  0
  193.2190  174.7440  145.5800 C   0  0  1  0  0  3  0  0  0  0  0  0
  194.8970  173.9790  141.7610 C   0  0  0  0  0  1  0  0  0  0  0  0
  1  3  1  0  0  0  0
  1  2  1  1  0  0  0
  3 17  1  0  0  0  0
  4  7  1  0  0  0  0
  4  6  1  0  0  0  0
  5  1  1  0  0  0  0
  6  3  1  0  0  0  0
  7  8  1  6  0  0  0
  7  5  1  0  0  0  0
  8  9  1  1  0  0  0
 11 13  2  0  0  0  0
 11 10  1  0  0  0  0
 12  8  1  6  0  0  0
 12 14  1  0  0  0  0
 14 10  1  0  0  0  0
 15 16  1  0  0  0  0
 15 12  1  0  0  0  0
 16 11  1  0  0  0  0
 17 20  1  6  0  0  0
 17 18  1  0  0  0  0
 18 19  1  0  0  0  0
 21 28  1  0  0  0  0
 23 27  1  6  0  0  0
 23 21  1  0  0  0  0
 23 26  1  0  0  0  0
 24 26  1  0  0  0  0
 25 24  1  0  0  0  0
 26 22  1  6  0  0  0
 27 25  2  0  0  0  0
 28 22  1  0  0  0  0
 28 20  1  6  0  0  0
 29 27  1  0  0  0  0
M  END
>  <MODEL>
5

>  <REMARK>
 VINA RESULT:      -6.8      3.424      8.734
  Name = 
  6 active torsions:
  status: ('A' for Active; 'I' for Inactive)
    1  A    between atoms: C_2  and  C_14
    2  A    between atoms: C_2  and  C_27
    3  A    between atoms: C_8  and  C_20
    4  A    between atoms: C_8  and  C_28
    5  A    between atoms: N_11  and  C_20
    6  A    between atoms: C_17  and  C_20
                            x       y       z     vdW  Elec       q    Type
                         _______ _______ _______ _____ _____    ______ ____

>  <TORSDO>
F 6

$$$$
=
 OpenBabel11062422433D

 29 32  0  0  1  0  0  0  0  0999 V2000
  190.8610  177.3960  145.0110 C   0  0  2  0  0  3  0  0  0  0  0  0
  190.6750  177.7860  143.5540 C   0  0  0  0  0  1  0  0  0  0  0  0
  191.3970  176.0120  145.0950 N   0  0  0  0  0  0  0  0  0  0  0  0
  189.3570  175.1150  146.1660 C   0  0  0  0  0  2  0  0  0  0  0  0
  189.5200  177.6030  145.7360 C   0  0  0  0  0  2  0  0  0  0  0  0
  190.8660  175.3310  146.2880 C   0  0  0  0  0  2  0  0  0  0  0  0
  188.6480  176.3510  145.6060 C   0  0  2  0  0  3  0  0  0  0  0  0
  187.2750  176.5250  146.2560 C   0  0  1  0  0  3  0  0  0  0  0  0
  187.3090  177.5570  147.1980 O   0  0  0  0  0  1  0  0  0  0  0  0
  185.7610  176.8910  142.9870 C   0  0  0  0  0  2  0  0  0  0  0  0
  184.6750  177.9020  143.2090 C   0  0  0  0  0  0  0  0  0  0  0  0
  186.1900  176.7940  145.2140 C   0  0  2  0  0  3  0  0  0  0  0  0
  183.9490  178.2850  142.2550 O   0  0  0  0  0  0  0  0  0  0  0  0
  186.7750  177.0360  143.9550 O   0  0  0  0  0  0  0  0  0  0  0  0
  185.3470  178.0140  145.6150 C   0  0  0  0  0  2  0  0  0  0  0  0
  184.4210  178.3540  144.5400 N   0  0  0  0  0  2  0  0  0  0  0  0
  192.8660  176.0620  145.2310 C   0  0  1  0  0  3  0  0  0  0  0  0
  193.2740  176.1570  146.7030 C   0  0  0  0  0  2  0  0  0  0  0  0
  194.2190  177.1690  146.8770 O   0  0  0  0  0  1  0  0  0  0  0  0
  193.5280  174.8170  144.6360 C   0  0  0  0  0  2  0  0  0  0  0  0
  196.1930  173.8840  144.0750 S   0  0  0  0  0  0  0  0  0  0  0  0
  195.1720  176.2970  143.5210 C   0  0  0  0  0  2  0  0  0  0  0  0
  196.9570  174.9580  142.8780 C   0  0  2  0  0  3  0  0  0  0  0  0
  196.5380  176.7760  141.5580 N   0  0  0  0  0  2  0  0  0  0  0  0
  196.8670  175.8070  140.8050 N   0  0  0  0  0  0  0  0  0  0  0  0
  196.5540  176.3810  142.9620 C   0  0  1  0  0  3  0  0  0  0  0  0
  197.1180  174.6610  141.5990 C   0  0  0  0  0  0  0  0  0  0  0  0
  194.8920  175.1270  144.1080 C   0  0  1  0  0  3  0  0  0  0  0  0
  197.1620  173.2820  141.0380 C   0  0  0  0  0  1  0  0  0  0  0  0
  1  2  1  6  0  0  0
  1  3  1  0  0  0  0
  1  5  1  0  0  0  0
  3 17  1  0  0  0  0
  3  6  1  0  0  0  0
  4  6  1  0  0  0  0
  7  5  1  0  0  0  0
  7  4  1  0  0  0  0
  7  8  1  1  0  0  0
  8  9  1  1  0  0  0
 10 11  1  0  0  0  0
 10 14  1  0  0  0  0
 11 16  1  0  0  0  0
 12 15  1  0  0  0  0
 12  8  1  1  0  0  0
 13 11  2  0  0  0  0
 14 12  1  0  0  0  0
 16 15  1  0  0  0  0
 17 20  1  1  0  0  0
 17 18  1  0  0  0  0
 18 19  1  0  0  0  0
 21 28  1  0  0  0  0
 22 28  1  0  0  0  0
 23 27  1  6  0  0  0
 23 26  1  0  0  0  0
 23 21  1  0  0  0  0
 24 26  1  0  0  0  0
 25 24  1  0  0  0  0
 25 27  2  0  0  0  0
 26 22  1  6  0  0  0
 28 20  1  6  0  0  0
 29 27  1  0  0  0  0
M  END
>  <MODEL>
6

>  <REMARK>
 VINA RESULT:      -6.8      3.036      9.194
  Name = 
  6 active torsions:
  status: ('A' for Active; 'I' for Inactive)
    1  A    between atoms: C_2  and  C_14
    2  A    between atoms: C_2  and  C_27
    3  A    between atoms: C_8  and  C_20
    4  A    between atoms: C_8  and  C_28
    5  A    between atoms: N_11  and  C_20
    6  A    between atoms: C_17  and  C_20
                            x       y       z     vdW  Elec       q    Type
                         _______ _______ _______ _____ _____    ______ ____

>  <TORSDO>
F 6

$$$$
=
 OpenBabel11062422433D

 29 32  0  0  1  0  0  0  0  0999 V2000
  190.8430  175.4450  146.4640 C   0  0  2  0  0  3  0  0  0  0  0  0
  191.1920  175.5600  147.9380 C   0  0  0  0  0  1  0  0  0  0  0  0
  191.5980  176.4640  145.6870 N   0  0  0  0  0  0  0  0  0  0  0  0
  189.5650  177.7090  145.0340 C   0  0  0  0  0  2  0  0  0  0  0  0
  189.3140  175.5480  146.3260 C   0  0  0  0  0  2  0  0  0  0  0  0
  190.7930  176.9380  144.5490 C   0  0  0  0  0  2  0  0  0  0  0  0
  188.8880  177.0140  146.2180 C   0  0  2  0  0  3  0  0  0  0  0  0
  187.3690  177.1780  146.1430 C   0  0  1  0  0  3  0  0  0  0  0  0
  186.9320  178.1070  147.0920 O   0  0  0  0  0  1  0  0  0  0  0  0
  185.9420  179.2620  143.5480 C   0  0  0  0  0  2  0  0  0  0  0  0
  185.4080  178.2750  142.5510 C   0  0  0  0  0  0  0  0  0  0  0  0
  186.9180  177.5980  144.7450 C   0  0  2  0  0  3  0  0  0  0  0  0
  184.8170  178.6670  141.5130 O   0  0  0  0  0  0  0  0  0  0  0  0
  186.0160  178.6780  144.8290 O   0  0  0  0  0  0  0  0  0  0  0  0
  186.2300  176.4290  144.0260 C   0  0  0  0  0  2  0  0  0  0  0  0
  185.6660  176.8850  142.7590 N   0  0  0  0  0  2  0  0  0  0  0  0
  192.8240  175.8510  145.1390 C   0  0  1  0  0  3  0  0  0  0  0  0
  192.6570  175.5380  143.6500 C   0  0  0  0  0  2  0  0  0  0  0  0
  192.8110  174.1700  143.4250 O   0  0  0  0  0  1  0  0  0  0  0  0
  194.0330  176.7780  145.2940 C   0  0  0  0  0  2  0  0  0  0  0  0
  195.8160  174.5400  145.6010 S   0  0  0  0  0  0  0  0  0  0  0  0
  196.0260  176.5470  143.8410 C   0  0  0  0  0  2  0  0  0  0  0  0
  196.8410  174.3950  144.1520 C   0  0  2  0  0  3  0  0  0  0  0  0
  197.1840  175.3120  142.0860 N   0  0  0  0  0  2  0  0  0  0  0  0
  196.9030  174.0810  141.9330 N   0  0  0  0  0  0  0  0  0  0  0  0
  197.1900  175.6780  143.4990 C   0  0  1  0  0  3  0  0  0  0  0  0
  196.6700  173.4930  143.2000 C   0  0  0  0  0  0  0  0  0  0  0  0
  195.2950  176.0990  144.8690 C   0  0  1  0  0  3  0  0  0  0  0  0
  195.9680  172.1900  143.3690 C   0  0  0  0  0  1  0  0  0  0  0  0
  1  2  1  1  0  0  0
  3  1  1  0  0  0  0
  4  7  1  0  0  0  0
  5  1  1  0  0  0  0
  6  4  1  0  0  0  0
  6  3  1  0  0  0  0
  7  8  1  6  0  0  0
  7  5  1  0  0  0  0
  8  9  1  1  0  0  0
 10 14  1  0  0  0  0
 11 16  1  0  0  0  0
 11 10  1  0  0  0  0
 12 14  1  0  0  0  0
 12  8  1  1  0  0  0
 13 11  2  0  0  0  0
 15 12  1  0  0  0  0
 16 15  1  0  0  0  0
 17 18  1  6  0  0  0
 17 20  1  0  0  0  0
 17  3  1  0  0  0  0
 19 18  1  0  0  0  0
 22 28  1  0  0  0  0
 23 27  1  6  0  0  0
 23 21  1  0  0  0  0
 24 26  1  0  0  0  0
 25 24  1  0  0  0  0
 25 27  2  0  0  0  0
 26 22  1  6  0  0  0
 26 23  1  0  0  0  0
 27 29  1  0  0  0  0
 28 20  1  6  0  0  0
 28 21  1  0  0  0  0
M  END
>  <MODEL>
7

>  <REMARK>
 VINA RESULT:      -6.7      3.086      9.129
  Name = 
  6 active torsions:
  status: ('A' for Active; 'I' for Inactive)
    1  A    between atoms: C_2  and  C_14
    2  A    between atoms: C_2  and  C_27
    3  A    between atoms: C_8  and  C_20
    4  A    between atoms: C_8  and  C_28
    5  A    between atoms: N_11  and  C_20
    6  A    between atoms: C_17  and  C_20
                            x       y       z     vdW  Elec       q    Type
                         _______ _______ _______ _____ _____    ______ ____

>  <TORSDO>
F 6

$$$$
=
 OpenBabel11062422433D

 29 32  0  0  1  0  0  0  0  0999 V2000
  191.0830  177.0750  144.7820 C   0  0  2  0  0  3  0  0  0  0  0  0
  190.9650  177.3110  143.2850 C   0  0  0  0  0  1  0  0  0  0  0  0
  191.4280  175.6520  145.0410 N   0  0  0  0  0  0  0  0  0  0  0  0
  189.2760  175.1640  146.1550 C   0  0  0  0  0  2  0  0  0  0  0  0
  189.7740  177.5400  145.4420 C   0  0  0  0  0  2  0  0  0  0  0  0
  190.7990  175.1930  146.2900 C   0  0  0  0  0  2  0  0  0  0  0  0
  188.7440  176.4070  145.4370 C   0  0  2  0  0  3  0  0  0  0  0  0
  187.4000  176.8360  146.0260 C   0  0  1  0  0  3  0  0  0  0  0  0
  187.5930  177.7290  147.0830 O   0  0  0  0  0  1  0  0  0  0  0  0
  184.4640  178.4110  144.6060 C   0  0  0  0  0  2  0  0  0  0  0  0
  184.4610  177.9400  143.1810 C   0  0  0  0  0  0  0  0  0  0  0  0
  186.4950  177.4600  144.9650 C   0  0  2  0  0  3  0  0  0  0  0  0
  183.5460  178.2890  142.3910 O   0  0  0  0  0  0  0  0  0  0  0  0
  185.1630  177.5000  145.4250 O   0  0  0  0  0  0  0  0  0  0  0  0
  186.5480  176.6490  143.6630 C   0  0  0  0  0  2  0  0  0  0  0  0
  185.5640  177.1630  142.7140 N   0  0  0  0  0  2  0  0  0  0  0  0
  192.8890  175.5250  145.2080 C   0  0  1  0  0  3  0  0  0  0  0  0
  193.4800  176.7980  145.8200 C   0  0  0  0  0  2  0  0  0  0  0  0
  194.8010  176.9640  145.4040 O   0  0  0  0  0  1  0  0  0  0  0  0
  193.2500  174.3500  146.1210 C   0  0  0  0  0  2  0  0  0  0  0  0
  195.6100  172.9550  145.2440 S   0  0  0  0  0  0  0  0  0  0  0  0
  193.0620  172.2720  144.7850 C   0  0  0  0  0  2  0  0  0  0  0  0
  195.1720  171.3030  144.7460 C   0  0  2  0  0  3  0  0  0  0  0  0
  193.4010  169.8620  144.6370 N   0  0  0  0  0  2  0  0  0  0  0  0
  194.2960  169.3350  145.3700 N   0  0  0  0  0  0  0  0  0  0  0  0
  193.8280  171.1650  144.1390 C   0  0  1  0  0  3  0  0  0  0  0  0
  195.4000  170.2170  145.4660 C   0  0  0  0  0  0  0  0  0  0  0  0
  193.8320  173.2160  145.3400 C   0  0  1  0  0  3  0  0  0  0  0  0
  196.4450  170.0910  146.5210 C   0  0  0  0  0  1  0  0  0  0  0  0
  1  2  1  6  0  0  0
  1  3  1  0  0  0  0
  1  5  1  0  0  0  0
  3 17  1  0  0  0  0
  3  6  1  0  0  0  0
  4  6  1  0  0  0  0
  7  5  1  0  0  0  0
  7  8  1  1  0  0  0
  7  4  1  0  0  0  0
  8  9  1  1  0  0  0
 10 14  1  0  0  0  0
 11 10  1  0  0  0  0
 12 14  1  0  0  0  0
 12  8  1  1  0  0  0
 13 11  2  0  0  0  0
 15 12  1  0  0  0  0
 16 11  1  0  0  0  0
 16 15  1  0  0  0  0
 17 18  1  1  0  0  0
 17 20  1  0  0  0  0
 19 18  1  0  0  0  0
 21 28  1  0  0  0  0
 22 28  1  0  0  0  0
 23 21  1  1  0  0  0
 23 27  1  0  0  0  0
 24 25  1  0  0  0  0
 25 27  2  0  0  0  0
 26 24  1  0  0  0  0
 26 23  1  0  0  0  0
 26 22  1  1  0  0  0
 27 29  1  0  0  0  0
 28 20  1  1  0  0  0
M  END
>  <MODEL>
8

>  <REMARK>
 VINA RESULT:      -6.7      4.038      9.309
  Name = 
  6 active torsions:
  status: ('A' for Active; 'I' for Inactive)
    1  A    between atoms: C_2  and  C_14
    2  A    between atoms: C_2  and  C_27
    3  A    between atoms: C_8  and  C_20
    4  A    between atoms: C_8  and  C_28
    5  A    between atoms: N_11  and  C_20
    6  A    between atoms: C_17  and  C_20
                            x       y       z     vdW  Elec       q    Type
                         _______ _______ _______ _____ _____    ______ ____

>  <TORSDO>
F 6

$$$$
=
 OpenBabel11062422433D

 29 32  0  0  1  0  0  0  0  0999 V2000
  190.8280  177.1780  144.4170 C   0  0  2  0  0  3  0  0  0  0  0  0
  191.5580  178.1170  143.4720 C   0  0  0  0  0  1  0  0  0  0  0  0
  191.1060  175.7670  144.0370 N   0  0  0  0  0  0  0  0  0  0  0  0
  188.7640  175.3100  143.3900 C   0  0  0  0  0  2  0  0  0  0  0  0
  189.3370  177.5550  144.4070 C   0  0  0  0  0  2  0  0  0  0  0  0
  189.9280  174.9250  144.3040 C   0  0  0  0  0  2  0  0  0  0  0  0
  188.6130  176.8290  143.2700 C   0  0  2  0  0  3  0  0  0  0  0  0
  187.1370  177.2170  143.1740 C   0  0  1  0  0  3  0  0  0  0  0  0
  186.3800  176.1410  142.7000 O   0  0  0  0  0  1  0  0  0  0  0  0
  185.5510  177.0300  146.4240 C   0  0  0  0  0  2  0  0  0  0  0  0
  184.9390  178.3890  146.6010 C   0  0  0  0  0  0  0  0  0  0  0  0
  186.5920  177.6940  144.5190 C   0  0  2  0  0  3  0  0  0  0  0  0
  184.2800  178.6670  147.6360 O   0  0  0  0  0  0  0  0  0  0  0  0
  185.7090  176.7350  145.0550 O   0  0  0  0  0  0  0  0  0  0  0  0
  185.8440  179.0250  144.3570 C   0  0  0  0  0  2  0  0  0  0  0  0
  185.1970  179.3890  145.6150 N   0  0  0  0  0  2  0  0  0  0  0  0
  192.2170  175.2490  144.8580 C   0  0  1  0  0  3  0  0  0  0  0  0
  192.2370  175.9190  146.2340 C   0  0  0  0  0  2  0  0  0  0  0  0
  193.5340  176.3160  146.5580 O   0  0  0  0  0  1  0  0  0  0  0  0
  192.1000  173.7370  145.0710 C   0  0  0  0  0  2  0  0  0  0  0  0
  194.7210  173.9150  143.8960 S   0  0  0  0  0  0  0  0  0  0  0  0
  193.5860  171.7560  144.9990 C   0  0  0  0  0  2  0  0  0  0  0  0
  195.6990  172.5190  144.4110 C   0  0  2  0  0  3  0  0  0  0  0  0
  195.6350  170.6700  145.7530 N   0  0  0  0  0  2  0  0  0  0  0  0
  196.5990  171.4050  146.1370 N   0  0  0  0  0  0  0  0  0  0  0  0
  194.9420  171.2620  144.6150 C   0  0  1  0  0  3  0  0  0  0  0  0
  196.6500  172.5680  145.3290 C   0  0  0  0  0  0  0  0  0  0  0  0
  193.3600  173.0350  144.6770 C   0  0  1  0  0  3  0  0  0  0  0  0
  197.3990  173.7940  145.7250 C   0  0  0  0  0  1  0  0  0  0  0  0
  1  2  1  6  0  0  0
  3  6  1  0  0  0  0
  3  1  1  0  0  0  0
  3 17  1  0  0  0  0
  4  6  1  0  0  0  0
  5  1  1  0  0  0  0
  7  8  1  1  0  0  0
  7  4  1  0  0  0  0
  7  5  1  0  0  0  0
  8  9  1  1  0  0  0
 10 11  1  0  0  0  0
 11 13  2  0  0  0  0
 12  8  1  6  0  0  0
 12 14  1  0  0  0  0
 14 10  1  0  0  0  0
 15 12  1  0  0  0  0
 15 16  1  0  0  0  0
 16 11  1  0  0  0  0
 17 20  1  1  0  0  0
 17 18  1  0  0  0  0
 18 19  1  0  0  0  0
 21 28  1  0  0  0  0
 23 21  1  1  0  0  0
 23 26  1  0  0  0  0
 23 27  1  0  0  0  0
 24 25  1  0  0  0  0
 26 22  1  1  0  0  0
 26 24  1  0  0  0  0
 27 29  1  0  0  0  0
 27 25  2  0  0  0  0
 28 22  1  0  0  0  0
 28 20  1  1  0  0  0
M  END
>  <MODEL>
9

>  <REMARK>
 VINA RESULT:      -6.4      3.724      9.520
  Name = 
  6 active torsions:
  status: ('A' for Active; 'I' for Inactive)
    1  A    between atoms: C_2  and  C_14
    2  A    between atoms: C_2  and  C_27
    3  A    between atoms: C_8  and  C_20
    4  A    between atoms: C_8  and  C_28
    5  A    between atoms: N_11  and  C_20
    6  A    between atoms: C_17  and  C_20
                            x       y       z     vdW  Elec       q    Type
                         _______ _______ _______ _____ _____    ______ ____

>  <TORSDO>
F 6

$$$$
