=
 OpenBabel11072408333D

 26 29  0  0  1  0  0  0  0  0999 V2000
  189.5880  175.6930  144.7850 C   0  0  0  0  0  0  0  0  0  0  0  0
  190.5630  176.8560  146.7670 N   0  0  0  0  0  0  0  0  0  0  0  0
  188.1490  176.4250  146.6220 C   0  0  2  0  0  3  0  0  0  0  0  0
  189.3760  177.0320  147.2620 C   0  0  0  0  0  3  0  0  0  0  0  0
  188.4000  175.8760  145.2830 N   0  0  0  0  0  0  0  0  0  0  0  0
  191.9290  175.9090  145.1350 O   0  0  0  0  0  0  0  0  0  0  0  0
  190.7610  176.1310  145.5530 C   0  0  0  0  0  0  0  0  0  0  0  0
  185.0030  179.4760  144.0120 C   0  0  0  0  0  2  0  0  0  0  0  0
  184.8450  177.9890  143.7260 C   0  0  0  0  0  2  0  0  0  0  0  0
  186.8120  178.2430  145.3570 C   0  0  0  0  0  2  0  0  0  0  0  0
  185.3220  178.4570  145.0790 C   0  0  0  0  0  0  0  0  0  0  0  0
  186.1520  177.4870  147.6210 C   0  0  0  0  0  3  0  0  0  0  0  0
  184.2950  178.3420  146.2070 C   0  0  0  0  0  2  0  0  0  0  0  0
  184.9880  178.4370  147.5670 C   0  0  0  0  0  2  0  0  0  0  0  0
  187.0120  177.3990  146.5900 C   0  0  0  0  0  0  0  0  0  0  0  0
  189.7560  175.1090  143.4080 C   0  0  2  0  0  3  0  0  0  0  0  0
  189.2150  177.4500  142.6520 C   0  0  0  0  0  2  0  0  0  0  0  0
  187.4290  177.7830  141.1070 C   0  0  0  0  0  2  0  0  0  0  0  0
  188.7480  178.2570  141.5240 N   0  0  0  0  0  2  0  0  0  0  0  0
  187.5000  176.2870  140.7910 C   0  0  0  0  0  2  0  0  0  0  0  0
  189.1870  175.9650  142.2690 C   0  0  2  0  0  3  0  0  0  0  0  0
  187.8710  175.5760  141.9460 O   0  0  0  0  0  0  0  0  0  0  0  0
  189.3960  173.6230  143.3140 C   0  0  0  0  0  2  0  0  0  0  0  0
  190.1370  172.7600  144.2830 C   0  0  0  0  0  0  0  0  0  0  0  0
  189.5120  172.1480  145.1890 O   0  0  0  0  0  0  0  0  0  0  0  0
  191.5500  172.6290  144.1860 N   0  0  0  0  0  1  0  0  0  0  0  0
  1  5  2  0  0  0  0
  1  7  1  0  0  0  0
  2  4  2  0  0  0  0
  3 15  1  6  0  0  0
  3  4  1  0  0  0  0
  5  3  1  0  0  0  0
  6  7  2  0  0  0  0
  7  2  1  0  0  0  0
  8 11  1  0  0  0  0
  9  8  1  0  0  0  0
  9 11  1  0  0  0  0
 10 15  1  0  0  0  0
 11 10  1  0  0  0  0
 11 13  1  0  0  0  0
 13 14  1  0  0  0  0
 14 12  1  0  0  0  0
 15 12  2  0  0  0  0
 16 23  1  1  0  0  0
 16  1  1  0  0  0  0
 18 19  1  0  0  0  0
 19 17  1  0  0  0  0
 20 18  1  0  0  0  0
 20 22  1  0  0  0  0
 21 17  1  0  0  0  0
 21 16  1  1  0  0  0
 22 21  1  0  0  0  0
 23 24  1  0  0  0  0
 24 25  2  0  0  0  0
 26 24  1  0  0  0  0
M  END
>  <MODEL>
1

>  <REMARK>
 VINA RESULT:      -7.3      0.000      0.000
  Name = 
  5 active torsions:
  status: ('A' for Active; 'I' for Inactive)
    1  A    between atoms: C_4  and  C_5
    2  A    between atoms: C_5  and  C_25
    3  A    between atoms: C_9  and  C_25
    4  A    between atoms: C_12  and  C_25
    5  A    between atoms: C_17  and  C_26
                            x       y       z     vdW  Elec       q    Type
                         _______ _______ _______ _____ _____    ______ ____

>  <TORSDO>
F 5

$$$$
=
 OpenBabel11072408333D

 26 29  0  0  1  0  0  0  0  0999 V2000
  189.8350  176.2240  142.9620 C   0  0  0  0  0  0  0  0  0  0  0  0
  188.2020  175.3650  141.2810 N   0  0  0  0  0  0  0  0  0  0  0  0
  187.8400  177.5210  142.4000 C   0  0  2  0  0  3  0  0  0  0  0  0
  187.4230  176.3790  141.5020 C   0  0  0  0  0  3  0  0  0  0  0  0
  189.0490  177.2360  143.1840 N   0  0  0  0  0  0  0  0  0  0  0  0
  190.2380  174.2910  141.6390 O   0  0  0  0  0  0  0  0  0  0  0  0
  189.4700  175.2460  141.9290 C   0  0  0  0  0  0  0  0  0  0  0  0
  185.0140  176.8410  146.5920 C   0  0  0  0  0  2  0  0  0  0  0  0
  186.4730  177.1910  146.8470 C   0  0  0  0  0  2  0  0  0  0  0  0
  186.1800  176.9670  144.3060 C   0  0  0  0  0  2  0  0  0  0  0  0
  185.7800  177.6810  145.5990 C   0  0  0  0  0  0  0  0  0  0  0  0
  186.2280  179.2000  143.2350 C   0  0  0  0  0  3  0  0  0  0  0  0
  185.4300  179.1700  145.5900 C   0  0  0  0  0  2  0  0  0  0  0  0
  185.1290  179.6360  144.1650 C   0  0  0  0  0  2  0  0  0  0  0  0
  186.7170  177.9480  143.2940 C   0  0  0  0  0  0  0  0  0  0  0  0
  191.0650  176.0140  143.8050 C   0  0  2  0  0  3  0  0  0  0  0  0
  192.1670  176.3480  146.0460 C   0  0  0  0  0  2  0  0  0  0  0  0
  191.1670  175.3770  147.9810 C   0  0  0  0  0  2  0  0  0  0  0  0
  191.9190  176.5250  147.4770 N   0  0  0  0  0  2  0  0  0  0  0  0
  189.8850  175.2070  147.1640 C   0  0  0  0  0  2  0  0  0  0  0  0
  190.8360  176.1150  145.3180 C   0  0  2  0  0  3  0  0  0  0  0  0
  190.2100  174.9550  145.8190 O   0  0  0  0  0  0  0  0  0  0  0  0
  192.2970  176.7760  143.3070 C   0  0  0  0  0  2  0  0  0  0  0  0
  193.2940  175.9150  142.6010 C   0  0  0  0  0  0  0  0  0  0  0  0
  194.0150  176.4000  141.6900 O   0  0  0  0  0  0  0  0  0  0  0  0
  193.4290  174.5440  142.9550 N   0  0  0  0  0  1  0  0  0  0  0  0
  1  5  2  0  0  0  0
  1 16  1  0  0  0  0
  2  4  2  0  0  0  0
  2  7  1  0  0  0  0
  3  5  1  0  0  0  0
  3 15  1  1  0  0  0
  4  3  1  0  0  0  0
  6  7  2  0  0  0  0
  7  1  1  0  0  0  0
  8  9  1  0  0  0  0
 10 11  1  0  0  0  0
 11  8  1  0  0  0  0
 11  9  1  0  0  0  0
 12 15  2  0  0  0  0
 12 14  1  0  0  0  0
 13 11  1  0  0  0  0
 14 13  1  0  0  0  0
 15 10  1  0  0  0  0
 16 23  1  6  0  0  0
 17 19  1  0  0  0  0
 19 18  1  0  0  0  0
 20 18  1  0  0  0  0
 21 16  1  6  0  0  0
 21 22  1  0  0  0  0
 21 17  1  0  0  0  0
 22 20  1  0  0  0  0
 24 26  1  0  0  0  0
 24 23  1  0  0  0  0
 25 24  2  0  0  0  0
M  END
>  <MODEL>
2

>  <REMARK>
 VINA RESULT:      -7.2      2.027      4.550
  Name = 
  5 active torsions:
  status: ('A' for Active; 'I' for Inactive)
    1  A    between atoms: C_4  and  C_5
    2  A    between atoms: C_5  and  C_25
    3  A    between atoms: C_9  and  C_25
    4  A    between atoms: C_12  and  C_25
    5  A    between atoms: C_17  and  C_26
                            x       y       z     vdW  Elec       q    Type
                         _______ _______ _______ _____ _____    ______ ____

>  <TORSDO>
F 5

$$$$
=
 OpenBabel11072408333D

 26 29  0  0  1  0  0  0  0  0999 V2000
  189.8790  175.8890  143.4320 C   0  0  0  0  0  0  0  0  0  0  0  0
  188.4430  175.2080  141.5070 N   0  0  0  0  0  0  0  0  0  0  0  0
  188.0760  177.3470  142.6570 C   0  0  2  0  0  3  0  0  0  0  0  0
  187.7120  176.2690  141.6620 C   0  0  0  0  0  3  0  0  0  0  0  0
  189.1400  176.9480  143.5870 N   0  0  0  0  0  0  0  0  0  0  0  0
  190.3300  173.9760  142.0960 O   0  0  0  0  0  0  0  0  0  0  0  0
  189.5960  174.9750  142.3170 C   0  0  0  0  0  0  0  0  0  0  0  0
  184.8880  176.9720  146.6210 C   0  0  0  0  0  2  0  0  0  0  0  0
  186.3130  177.3740  146.9740 C   0  0  0  0  0  2  0  0  0  0  0  0
  186.2560  176.9250  144.4470 C   0  0  0  0  0  2  0  0  0  0  0  0
  185.7300  177.7400  145.6310 C   0  0  0  0  0  0  0  0  0  0  0  0
  186.3730  179.0580  143.1930 C   0  0  0  0  0  3  0  0  0  0  0  0
  185.3640  179.2150  145.4590 C   0  0  0  0  0  2  0  0  0  0  0  0
  185.1880  179.5490  143.9780 C   0  0  0  0  0  2  0  0  0  0  0  0
  186.8700  177.8260  143.4050 C   0  0  0  0  0  0  0  0  0  0  0  0
  190.9610  175.5620  144.4270 C   0  0  2  0  0  3  0  0  0  0  0  0
  193.4010  175.1870  144.9300 C   0  0  0  0  0  2  0  0  0  0  0  0
  195.0350  175.9600  143.3740 C   0  0  0  0  0  2  0  0  0  0  0  0
  194.7080  174.9070  144.3350 N   0  0  0  0  0  2  0  0  0  0  0  0
  193.9120  176.0750  142.3400 C   0  0  0  0  0  2  0  0  0  0  0  0
  192.3550  175.3550  143.8200 C   0  0  2  0  0  3  0  0  0  0  0  0
  192.7120  176.4300  142.9810 O   0  0  0  0  0  0  0  0  0  0  0  0
  190.5610  174.4980  145.4530 C   0  0  0  0  0  2  0  0  0  0  0  0
  189.9530  175.0580  146.6980 C   0  0  0  0  0  0  0  0  0  0  0  0
  189.0900  174.3960  147.3320 O   0  0  0  0  0  0  0  0  0  0  0  0
  190.3460  176.3420  147.1680 N   0  0  0  0  0  1  0  0  0  0  0  0
  1  5  2  0  0  0  0
  1 16  1  0  0  0  0
  2  4  2  0  0  0  0
  2  7  1  0  0  0  0
  3 15  1  1  0  0  0
  3  5  1  0  0  0  0
  4  3  1  0  0  0  0
  6  7  2  0  0  0  0
  7  1  1  0  0  0  0
  8  9  1  0  0  0  0
 10 11  1  0  0  0  0
 11  8  1  0  0  0  0
 11  9  1  0  0  0  0
 12 15  2  0  0  0  0
 12 14  1  0  0  0  0
 13 11  1  0  0  0  0
 14 13  1  0  0  0  0
 15 10  1  0  0  0  0
 16 23  1  6  0  0  0
 18 19  1  0  0  0  0
 19 17  1  0  0  0  0
 20 22  1  0  0  0  0
 20 18  1  0  0  0  0
 21 16  1  1  0  0  0
 21 17  1  0  0  0  0
 22 21  1  0  0  0  0
 23 24  1  0  0  0  0
 24 26  1  0  0  0  0
 24 25  2  0  0  0  0
M  END
>  <MODEL>
3

>  <REMARK>
 VINA RESULT:      -6.8      2.286      4.321
  Name = 
  5 active torsions:
  status: ('A' for Active; 'I' for Inactive)
    1  A    between atoms: C_4  and  C_5
    2  A    between atoms: C_5  and  C_25
    3  A    between atoms: C_9  and  C_25
    4  A    between atoms: C_12  and  C_25
    5  A    between atoms: C_17  and  C_26
                            x       y       z     vdW  Elec       q    Type
                         _______ _______ _______ _____ _____    ______ ____

>  <TORSDO>
F 5

$$$$
=
 OpenBabel11072408333D

 26 29  0  0  1  0  0  0  0  0999 V2000
  190.3110  174.8860  144.1540 C   0  0  0  0  0  0  0  0  0  0  0  0
  191.2600  177.0440  144.9730 N   0  0  0  0  0  0  0  0  0  0  0  0
  188.9440  176.4100  145.4930 C   0  0  2  0  0  3  0  0  0  0  0  0
  190.1100  177.3720  145.4780 C   0  0  0  0  0  3  0  0  0  0  0  0
  189.1590  175.2210  144.6570 N   0  0  0  0  0  0  0  0  0  0  0  0
  192.6070  175.4550  143.9320 O   0  0  0  0  0  0  0  0  0  0  0  0
  191.4620  175.7770  144.3460 C   0  0  0  0  0  0  0  0  0  0  0  0
  184.3820  178.2880  146.7870 C   0  0  0  0  0  2  0  0  0  0  0  0
  185.5740  179.0060  147.4050 C   0  0  0  0  0  2  0  0  0  0  0  0
  186.4960  177.0190  146.0640 C   0  0  0  0  0  2  0  0  0  0  0  0
  185.7050  178.3290  146.0610 C   0  0  0  0  0  0  0  0  0  0  0  0
  187.5800  177.8160  143.9840 C   0  0  0  0  0  3  0  0  0  0  0  0
  185.7670  179.2740  144.8600 C   0  0  0  0  0  2  0  0  0  0  0  0
  186.3080  178.5390  143.6340 C   0  0  0  0  0  2  0  0  0  0  0  0
  187.6670  177.0970  145.1190 C   0  0  0  0  0  0  0  0  0  0  0  0
  190.4450  173.6390  143.3200 C   0  0  2  0  0  3  0  0  0  0  0  0
  190.0190  172.5270  141.1010 C   0  0  0  0  0  2  0  0  0  0  0  0
  188.8620  173.7380  139.4030 C   0  0  0  0  0  2  0  0  0  0  0  0
  189.0740  172.4150  139.9900 N   0  0  0  0  0  2  0  0  0  0  0  0
  188.4030  174.7110  140.4920 C   0  0  0  0  0  2  0  0  0  0  0  0
  189.5130  173.5710  142.1050 C   0  0  2  0  0  3  0  0  0  0  0  0
  189.4010  174.8280  141.4750 O   0  0  0  0  0  0  0  0  0  0  0  0
  190.5000  172.3460  144.1400 C   0  0  0  0  0  2  0  0  0  0  0  0
  191.8570  171.7210  144.1910 C   0  0  0  0  0  0  0  0  0  0  0  0
  192.7680  172.2470  144.8810 O   0  0  0  0  0  0  0  0  0  0  0  0
  192.1210  170.5310  143.4580 N   0  0  0  0  0  1  0  0  0  0  0  0
  1  7  1  0  0  0  0
  1  5  2  0  0  0  0
  2  4  2  0  0  0  0
  3 15  1  6  0  0  0
  4  3  1  0  0  0  0
  5  3  1  0  0  0  0
  6  7  2  0  0  0  0
  7  2  1  0  0  0  0
  8  9  1  0  0  0  0
 11 10  1  0  0  0  0
 11  8  1  0  0  0  0
 11  9  1  0  0  0  0
 12 15  2  0  0  0  0
 13 11  1  0  0  0  0
 14 12  1  0  0  0  0
 14 13  1  0  0  0  0
 15 10  1  0  0  0  0
 16 23  1  1  0  0  0
 16  1  1  0  0  0  0
 17 21  1  0  0  0  0
 18 19  1  0  0  0  0
 18 20  1  0  0  0  0
 19 17  1  0  0  0  0
 20 22  1  0  0  0  0
 21 16  1  1  0  0  0
 22 21  1  0  0  0  0
 23 24  1  0  0  0  0
 24 25  2  0  0  0  0
 26 24  1  0  0  0  0
M  END
>  <MODEL>
4

>  <REMARK>
 VINA RESULT:      -6.8      1.907      2.831
  Name = 
  5 active torsions:
  status: ('A' for Active; 'I' for Inactive)
    1  A    between atoms: C_4  and  C_5
    2  A    between atoms: C_5  and  C_25
    3  A    between atoms: C_9  and  C_25
    4  A    between atoms: C_12  and  C_25
    5  A    between atoms: C_17  and  C_26
                            x       y       z     vdW  Elec       q    Type
                         _______ _______ _______ _____ _____    ______ ____

>  <TORSDO>
F 5

$$$$
=
 OpenBabel11072408333D

 26 29  0  0  1  0  0  0  0  0999 V2000
  190.0110  175.1000  145.1580 C   0  0  0  0  0  0  0  0  0  0  0  0
  190.9730  176.8230  146.6870 N   0  0  0  0  0  0  0  0  0  0  0  0
  188.5670  176.3270  146.7050 C   0  0  2  0  0  3  0  0  0  0  0  0
  189.7850  177.1190  147.1190 C   0  0  0  0  0  3  0  0  0  0  0  0
  188.8220  175.4050  145.5900 N   0  0  0  0  0  0  0  0  0  0  0  0
  192.3480  175.4520  145.4010 O   0  0  0  0  0  0  0  0  0  0  0  0
  191.1790  175.7690  145.7450 C   0  0  0  0  0  0  0  0  0  0  0  0
  185.6300  178.7490  143.3110 C   0  0  0  0  0  2  0  0  0  0  0  0
  185.5490  177.2300  143.2660 C   0  0  0  0  0  2  0  0  0  0  0  0
  187.3200  177.8440  145.0210 C   0  0  0  0  0  2  0  0  0  0  0  0
  185.8630  177.9380  144.5620 C   0  0  0  0  0  0  0  0  0  0  0  0
  186.4430  177.4420  147.3030 C   0  0  0  0  0  3  0  0  0  0  0  0
  184.7240  177.9620  145.5830 C   0  0  0  0  0  2  0  0  0  0  0  0
  185.2630  178.3130  146.9700 C   0  0  0  0  0  2  0  0  0  0  0  0
  187.4120  177.2270  146.3940 C   0  0  0  0  0  0  0  0  0  0  0  0
  190.1830  174.1310  144.0190 C   0  0  2  0  0  3  0  0  0  0  0  0
  189.2760  173.1070  141.9030 C   0  0  0  0  0  2  0  0  0  0  0  0
  188.3490  174.5340  140.2330 C   0  0  0  0  0  2  0  0  0  0  0  0
  188.2430  173.2240  140.8740 N   0  0  0  0  0  2  0  0  0  0  0  0
  188.2690  175.6320  141.2960 C   0  0  0  0  0  2  0  0  0  0  0  0
  189.1640  174.2830  142.8820 C   0  0  2  0  0  3  0  0  0  0  0  0
  189.3440  175.5000  142.1940 O   0  0  0  0  0  0  0  0  0  0  0  0
  190.4140  172.6830  144.4630 C   0  0  0  0  0  2  0  0  0  0  0  0
  191.7300  172.1220  144.0310 C   0  0  0  0  0  0  0  0  0  0  0  0
  192.0340  170.9350  144.3190 O   0  0  0  0  0  0  0  0  0  0  0  0
  192.6420  172.9290  143.2960 N   0  0  0  0  0  1  0  0  0  0  0  0
  1  5  2  0  0  0  0
  1  7  1  0  0  0  0
  2  4  2  0  0  0  0
  3 15  1  6  0  0  0
  3  4  1  0  0  0  0
  5  3  1  0  0  0  0
  6  7  2  0  0  0  0
  7  2  1  0  0  0  0
  8 11  1  0  0  0  0
  9  8  1  0  0  0  0
  9 11  1  0  0  0  0
 10 15  1  0  0  0  0
 11 10  1  0  0  0  0
 11 13  1  0  0  0  0
 13 14  1  0  0  0  0
 14 12  1  0  0  0  0
 15 12  2  0  0  0  0
 16 23  1  1  0  0  0
 16  1  1  0  0  0  0
 17 21  1  0  0  0  0
 18 19  1  0  0  0  0
 18 20  1  0  0  0  0
 19 17  1  0  0  0  0
 20 22  1  0  0  0  0
 21 16  1  1  0  0  0
 22 21  1  0  0  0  0
 24 25  2  0  0  0  0
 24 23  1  0  0  0  0
 26 24  1  0  0  0  0
M  END
>  <MODEL>
5

>  <REMARK>
 VINA RESULT:      -6.6      1.550      1.870
  Name = 
  5 active torsions:
  status: ('A' for Active; 'I' for Inactive)
    1  A    between atoms: C_4  and  C_5
    2  A    between atoms: C_5  and  C_25
    3  A    between atoms: C_9  and  C_25
    4  A    between atoms: C_12  and  C_25
    5  A    between atoms: C_17  and  C_26
                            x       y       z     vdW  Elec       q    Type
                         _______ _______ _______ _____ _____    ______ ____

>  <TORSDO>
F 5

$$$$
=
 OpenBabel11072408333D

 26 29  0  0  1  0  0  0  0  0999 V2000
  189.7880  176.1150  145.7290 C   0  0  0  0  0  0  0  0  0  0  0  0
  190.8630  175.0860  147.7330 N   0  0  0  0  0  0  0  0  0  0  0  0
  192.1430  176.5470  146.2290 C   0  0  2  0  0  3  0  0  0  0  0  0
  192.0090  175.5920  147.3920 C   0  0  0  0  0  3  0  0  0  0  0  0
  190.9400  176.6150  145.3890 N   0  0  0  0  0  0  0  0  0  0  0  0
  188.5670  174.9170  147.3790 O   0  0  0  0  0  0  0  0  0  0  0  0
  189.6790  175.3580  146.9830 C   0  0  0  0  0  0  0  0  0  0  0  0
  196.6180  174.1670  145.6510 C   0  0  0  0  0  2  0  0  0  0  0  0
  195.4080  173.2490  145.7630 C   0  0  0  0  0  2  0  0  0  0  0  0
  194.5670  175.6540  146.0790 C   0  0  0  0  0  2  0  0  0  0  0  0
  195.2630  174.6330  145.1770 C   0  0  0  0  0  0  0  0  0  0  0  0
  193.3330  176.4030  144.0660 C   0  0  0  0  0  3  0  0  0  0  0  0
  195.0780  174.6800  143.6590 C   0  0  0  0  0  2  0  0  0  0  0  0
  194.5330  176.0430  143.2340 C   0  0  0  0  0  2  0  0  0  0  0  0
  193.3500  176.2290  145.4010 C   0  0  0  0  0  0  0  0  0  0  0  0
  188.6000  176.2440  144.8130 C   0  0  2  0  0  3  0  0  0  0  0  0
  187.5980  176.0540  142.5100 C   0  0  0  0  0  2  0  0  0  0  0  0
  188.5340  174.4970  140.9660 C   0  0  0  0  0  2  0  0  0  0  0  0
  187.8990  175.8070  141.1000 N   0  0  0  0  0  2  0  0  0  0  0  0
  189.7700  174.4340  141.8670 C   0  0  0  0  0  2  0  0  0  0  0  0
  188.8760  175.9020  143.3440 C   0  0  2  0  0  3  0  0  0  0  0  0
  189.3850  174.5940  143.2100 O   0  0  0  0  0  0  0  0  0  0  0  0
  187.7960  177.5320  145.0160 C   0  0  0  0  0  2  0  0  0  0  0  0
  186.6440  177.3840  145.9560 C   0  0  0  0  0  0  0  0  0  0  0  0
  185.5980  176.7910  145.5840 O   0  0  0  0  0  0  0  0  0  0  0  0
  186.7270  177.9140  147.2740 N   0  0  0  0  0  1  0  0  0  0  0  0
  1  7  1  0  0  0  0
  3 15  1  6  0  0  0
  3  4  1  0  0  0  0
  4  2  2  0  0  0  0
  5  1  2  0  0  0  0
  5  3  1  0  0  0  0
  7  6  2  0  0  0  0
  7  2  1  0  0  0  0
  8  9  1  0  0  0  0
 11  8  1  0  0  0  0
 11  9  1  0  0  0  0
 11 10  1  0  0  0  0
 12 15  2  0  0  0  0
 13 11  1  0  0  0  0
 14 13  1  0  0  0  0
 14 12  1  0  0  0  0
 15 10  1  0  0  0  0
 16 23  1  6  0  0  0
 16  1  1  0  0  0  0
 17 21  1  0  0  0  0
 18 19  1  0  0  0  0
 18 20  1  0  0  0  0
 19 17  1  0  0  0  0
 20 22  1  0  0  0  0
 21 16  1  1  0  0  0
 22 21  1  0  0  0  0
 23 24  1  0  0  0  0
 24 26  1  0  0  0  0
 25 24  2  0  0  0  0
M  END
>  <MODEL>
6

>  <REMARK>
 VINA RESULT:      -6.5      3.123      6.511
  Name = 
  5 active torsions:
  status: ('A' for Active; 'I' for Inactive)
    1  A    between atoms: C_4  and  C_5
    2  A    between atoms: C_5  and  C_25
    3  A    between atoms: C_9  and  C_25
    4  A    between atoms: C_12  and  C_25
    5  A    between atoms: C_17  and  C_26
                            x       y       z     vdW  Elec       q    Type
                         _______ _______ _______ _____ _____    ______ ____

>  <TORSDO>
F 5

$$$$
=
 OpenBabel11072408333D

 26 29  0  0  1  0  0  0  0  0999 V2000
  191.4750  175.9260  144.4430 C   0  0  0  0  0  0  0  0  0  0  0  0
  191.2280  177.9850  143.0540 N   0  0  0  0  0  0  0  0  0  0  0  0
  189.5680  177.4210  144.7740 C   0  0  2  0  0  3  0  0  0  0  0  0
  190.0870  178.2410  143.6160 C   0  0  0  0  0  3  0  0  0  0  0  0
  190.3280  176.1840  144.9990 N   0  0  0  0  0  0  0  0  0  0  0  0
  193.1620  176.6900  142.9540 O   0  0  0  0  0  0  0  0  0  0  0  0
  192.0240  176.8710  143.4620 C   0  0  0  0  0  0  0  0  0  0  0  0
  184.7820  177.7080  146.5160 C   0  0  0  0  0  2  0  0  0  0  0  0
  185.4140  179.0420  146.1430 C   0  0  0  0  0  2  0  0  0  0  0  0
  187.2120  177.2360  145.8270 C   0  0  0  0  0  2  0  0  0  0  0  0
  185.8340  177.7760  145.4360 C   0  0  0  0  0  0  0  0  0  0  0  0
  187.5920  176.8150  143.4160 C   0  0  0  0  0  3  0  0  0  0  0  0
  185.3170  177.6280  144.0040 C   0  0  0  0  0  2  0  0  0  0  0  0
  186.1180  176.5600  143.2590 C   0  0  0  0  0  2  0  0  0  0  0  0
  188.1080  177.1240  144.6200 C   0  0  0  0  0  0  0  0  0  0  0  0
  192.1950  174.6380  144.7430 C   0  0  2  0  0  3  0  0  0  0  0  0
  191.1920  173.3560  142.8200 C   0  0  0  0  0  2  0  0  0  0  0  0
  189.3360  171.9170  143.2330 C   0  0  0  0  0  2  0  0  0  0  0  0
  190.5490  172.0990  142.4370 N   0  0  0  0  0  2  0  0  0  0  0  0
  189.6870  171.9860  144.7210 C   0  0  0  0  0  2  0  0  0  0  0  0
  191.4420  173.3660  144.3340 C   0  0  2  0  0  3  0  0  0  0  0  0
  190.2180  173.2520  145.0240 O   0  0  0  0  0  0  0  0  0  0  0  0
  192.8070  174.5800  146.1460 C   0  0  0  0  0  2  0  0  0  0  0  0
  194.0040  175.4570  146.3200 C   0  0  0  0  0  0  0  0  0  0  0  0
  193.8910  176.5750  146.8860 O   0  0  0  0  0  0  0  0  0  0  0  0
  195.2750  175.0300  145.8440 N   0  0  0  0  0  1  0  0  0  0  0  0
  1 16  1  0  0  0  0
  1  5  2  0  0  0  0
  2  7  1  0  0  0  0
  2  4  2  0  0  0  0
  3 15  1  6  0  0  0
  3  5  1  0  0  0  0
  4  3  1  0  0  0  0
  6  7  2  0  0  0  0
  7  1  1  0  0  0  0
  9  8  1  0  0  0  0
 11 10  1  0  0  0  0
 11  9  1  0  0  0  0
 11  8  1  0  0  0  0
 12 15  2  0  0  0  0
 13 11  1  0  0  0  0
 14 12  1  0  0  0  0
 14 13  1  0  0  0  0
 15 10  1  0  0  0  0
 16 23  1  1  0  0  0
 17 21  1  0  0  0  0
 18 20  1  0  0  0  0
 19 17  1  0  0  0  0
 19 18  1  0  0  0  0
 20 22  1  0  0  0  0
 21 16  1  1  0  0  0
 21 22  1  0  0  0  0
 23 24  1  0  0  0  0
 24 25  2  0  0  0  0
 26 24  1  0  0  0  0
M  END
>  <MODEL>
7

>  <REMARK>
 VINA RESULT:      -6.5      2.114      4.075
  Name = 
  5 active torsions:
  status: ('A' for Active; 'I' for Inactive)
    1  A    between atoms: C_4  and  C_5
    2  A    between atoms: C_5  and  C_25
    3  A    between atoms: C_9  and  C_25
    4  A    between atoms: C_12  and  C_25
    5  A    between atoms: C_17  and  C_26
                            x       y       z     vdW  Elec       q    Type
                         _______ _______ _______ _____ _____    ______ ____

>  <TORSDO>
F 5

$$$$
=
 OpenBabel11072408333D

 26 29  0  0  1  0  0  0  0  0999 V2000
  187.0570  176.9230  143.7390 C   0  0  0  0  0  0  0  0  0  0  0  0
  187.3160  177.5750  141.3430 N   0  0  0  0  0  0  0  0  0  0  0  0
  187.4380  175.2190  142.0260 C   0  0  2  0  0  3  0  0  0  0  0  0
  187.5560  176.3410  141.0210 C   0  0  0  0  0  3  0  0  0  0  0  0
  187.3040  175.6890  143.4120 N   0  0  0  0  0  0  0  0  0  0  0  0
  186.6860  179.1350  142.9540 O   0  0  0  0  0  0  0  0  0  0  0  0
  186.9890  177.9430  142.6840 C   0  0  0  0  0  0  0  0  0  0  0  0
  191.3350  172.6750  144.1140 C   0  0  0  0  0  2  0  0  0  0  0  0
  189.9590  172.2910  144.6380 C   0  0  0  0  0  2  0  0  0  0  0  0
  189.6270  174.2250  142.9830 C   0  0  0  0  0  2  0  0  0  0  0  0
  190.1210  172.7980  143.2250 C   0  0  0  0  0  0  0  0  0  0  0  0
  188.6350  173.3890  140.8720 C   0  0  0  0  0  3  0  0  0  0  0  0
  189.9960  171.7340  142.1330 C   0  0  0  0  0  2  0  0  0  0  0  0
  189.7590  172.3940  140.7750 C   0  0  0  0  0  2  0  0  0  0  0  0
  188.5760  174.2540  141.9020 C   0  0  0  0  0  0  0  0  0  0  0  0
  186.9200  177.3160  145.1860 C   0  0  2  0  0  3  0  0  0  0  0  0
  189.4250  177.4370  145.4150 C   0  0  0  0  0  2  0  0  0  0  0  0
  190.5550  175.7460  146.6600 C   0  0  0  0  0  2  0  0  0  0  0  0
  190.5510  177.1660  146.3090 N   0  0  0  0  0  2  0  0  0  0  0  0
  189.2010  175.3650  147.2630 C   0  0  0  0  0  2  0  0  0  0  0  0
  188.1220  176.9610  146.0690 C   0  0  2  0  0  3  0  0  0  0  0  0
  188.1850  175.5730  146.3130 O   0  0  0  0  0  0  0  0  0  0  0  0
  185.5630  176.9580  145.8010 C   0  0  0  0  0  2  0  0  0  0  0  0
  184.6730  178.1370  146.0280 C   0  0  0  0  0  0  0  0  0  0  0  0
  184.0670  178.6650  145.0600 O   0  0  0  0  0  0  0  0  0  0  0  0
  184.5100  178.6650  147.3380 N   0  0  0  0  0  1  0  0  0  0  0  0
  1 16  1  0  0  0  0
  2  7  1  0  0  0  0
  3 15  1  1  0  0  0
  3  5  1  0  0  0  0
  4  2  2  0  0  0  0
  4  3  1  0  0  0  0
  5  1  2  0  0  0  0
  7  6  2  0  0  0  0
  7  1  1  0  0  0  0
  8  9  1  0  0  0  0
 10 11  1  0  0  0  0
 11  8  1  0  0  0  0
 11  9  1  0  0  0  0
 12 15  2  0  0  0  0
 13 11  1  0  0  0  0
 14 12  1  0  0  0  0
 14 13  1  0  0  0  0
 15 10  1  0  0  0  0
 16 23  1  1  0  0  0
 17 21  1  0  0  0  0
 17 19  1  0  0  0  0
 18 20  1  0  0  0  0
 19 18  1  0  0  0  0
 21 16  1  6  0  0  0
 21 22  1  0  0  0  0
 22 20  1  0  0  0  0
 23 24  1  0  0  0  0
 24 26  1  0  0  0  0
 25 24  2  0  0  0  0
M  END
>  <MODEL>
8

>  <REMARK>
 VINA RESULT:      -6.4      2.376      6.687
  Name = 
  5 active torsions:
  status: ('A' for Active; 'I' for Inactive)
    1  A    between atoms: C_4  and  C_5
    2  A    between atoms: C_5  and  C_25
    3  A    between atoms: C_9  and  C_25
    4  A    between atoms: C_12  and  C_25
    5  A    between atoms: C_17  and  C_26
                            x       y       z     vdW  Elec       q    Type
                         _______ _______ _______ _____ _____    ______ ____

>  <TORSDO>
F 5

$$$$
=
 OpenBabel11072408333D

 26 29  0  0  1  0  0  0  0  0999 V2000
  191.0400  175.6630  144.0000 C   0  0  0  0  0  0  0  0  0  0  0  0
  189.3020  174.2750  142.8660 N   0  0  0  0  0  0  0  0  0  0  0  0
  188.8160  176.5810  143.5600 C   0  0  2  0  0  3  0  0  0  0  0  0
  188.4310  175.2270  143.0120 C   0  0  0  0  0  3  0  0  0  0  0  0
  190.1620  176.6110  144.1490 N   0  0  0  0  0  0  0  0  0  0  0  0
  191.5010  173.5310  143.0560 O   0  0  0  0  0  0  0  0  0  0  0  0
  190.6600  174.4410  143.2780 C   0  0  0  0  0  0  0  0  0  0  0  0
  184.7040  179.4070  144.6190 C   0  0  0  0  0  2  0  0  0  0  0  0
  184.4590  178.2410  143.6720 C   0  0  0  0  0  2  0  0  0  0  0  0
  186.9760  178.2920  144.1780 C   0  0  0  0  0  2  0  0  0  0  0  0
  185.5490  178.1600  144.7140 C   0  0  0  0  0  0  0  0  0  0  0  0
  187.5840  176.4330  145.6980 C   0  0  0  0  0  3  0  0  0  0  0  0
  185.2450  177.2490  145.9050 C   0  0  0  0  0  2  0  0  0  0  0  0
  186.5320  176.9160  146.6590 C   0  0  0  0  0  2  0  0  0  0  0  0
  187.7990  177.0810  144.5390 C   0  0  0  0  0  0  0  0  0  0  0  0
  192.4040  175.7820  144.6250 C   0  0  2  0  0  3  0  0  0  0  0  0
  194.9010  175.9600  144.3420 C   0  0  0  0  0  2  0  0  0  0  0  0
  195.7900  176.4090  142.1750 C   0  0  0  0  0  2  0  0  0  0  0  0
  196.0160  175.6960  143.4310 N   0  0  0  0  0  2  0  0  0  0  0  0
  194.4300  176.0090  141.5970 C   0  0  0  0  0  2  0  0  0  0  0  0
  193.5780  175.5950  143.6560 C   0  0  2  0  0  3  0  0  0  0  0  0
  193.4090  176.3740  142.4920 O   0  0  0  0  0  0  0  0  0  0  0  0
  192.5530  175.0150  145.9430 C   0  0  0  0  0  2  0  0  0  0  0  0
  192.0360  175.7560  147.1340 C   0  0  0  0  0  0  0  0  0  0  0  0
  192.6320  176.7850  147.5450 O   0  0  0  0  0  0  0  0  0  0  0  0
  190.8700  175.2970  147.8070 N   0  0  0  0  0  1  0  0  0  0  0  0
  1  5  2  0  0  0  0
  1 16  1  0  0  0  0
  2  4  2  0  0  0  0
  2  7  1  0  0  0  0
  3  5  1  0  0  0  0
  3 15  1  1  0  0  0
  4  3  1  0  0  0  0
  6  7  2  0  0  0  0
  7  1  1  0  0  0  0
  8 11  1  0  0  0  0
  9  8  1  0  0  0  0
  9 11  1  0  0  0  0
 10 15  1  0  0  0  0
 10 11  1  0  0  0  0
 11 13  1  0  0  0  0
 12 14  1  0  0  0  0
 13 14  1  0  0  0  0
 15 12  2  0  0  0  0
 16 23  1  1  0  0  0
 18 19  1  0  0  0  0
 19 17  1  0  0  0  0
 20 18  1  0  0  0  0
 20 22  1  0  0  0  0
 21 17  1  0  0  0  0
 21 16  1  1  0  0  0
 22 21  1  0  0  0  0
 23 24  1  0  0  0  0
 24 25  2  0  0  0  0
 24 26  1  0  0  0  0
M  END
>  <MODEL>
9

>  <REMARK>
 VINA RESULT:      -6.4      2.747      4.316
  Name = 
  5 active torsions:
  status: ('A' for Active; 'I' for Inactive)
    1  A    between atoms: C_4  and  C_5
    2  A    between atoms: C_5  and  C_25
    3  A    between atoms: C_9  and  C_25
    4  A    between atoms: C_12  and  C_25
    5  A    between atoms: C_17  and  C_26
                            x       y       z     vdW  Elec       q    Type
                         _______ _______ _______ _____ _____    ______ ____

>  <TORSDO>
F 5

$$$$
