=
 OpenBabel11062420343D

 32 35  0  0  1  0  0  0  0  0999 V2000
  187.2050  177.9980  144.3570 C   0  0  0  0  0  3  0  0  0  0  0  0
  188.3730  177.6000  145.0190 C   0  0  0  0  0  0  0  0  0  0  0  0
  185.8540  177.1130  146.1480 C   0  0  0  0  0  3  0  0  0  0  0  0
  185.9440  177.7610  144.9130 C   0  0  0  0  0  0  0  0  0  0  0  0
  188.2820  176.9500  146.2740 C   0  0  0  0  0  0  0  0  0  0  0  0
  187.0100  176.7120  146.8190 C   0  0  0  0  0  3  0  0  0  0  0  0
  191.5570  176.6470  148.0720 C   0  0  0  0  0  2  0  0  0  0  0  0
  191.2160  175.1840  147.8350 C   0  0  0  0  0  2  0  0  0  0  0  0
  190.3140  177.4380  147.7130 C   0  0  0  0  0  2  0  0  0  0  0  0
  189.4470  176.5160  147.0020 N   0  0  0  0  0  0  0  0  0  0  0  0
  189.9910  175.1730  146.9430 C   0  0  0  0  0  2  0  0  0  0  0  0
  184.5710  177.8130  142.8050 N   0  0  0  0  0  2  0  0  0  0  0  0
  184.7260  178.1600  144.1860 C   0  0  0  0  0  0  0  0  0  0  0  0
  183.8140  178.7930  144.7830 O   0  0  0  0  0  0  0  0  0  0  0  0
  183.3900  178.1650  142.0320 C   0  0  0  0  0  2  0  0  0  0  0  0
  185.2460  178.2260  140.3990 C   0  0  0  0  0  1  0  0  0  0  0  0
  183.7430  178.2680  140.5600 C   0  0  0  0  0  2  0  0  0  0  0  0
  189.6750  177.7850  144.3040 C   0  0  0  0  0  2  0  0  0  0  0  0
  189.2440  175.8300  143.0620 O   0  0  0  0  0  0  0  0  0  0  0  0
  190.0850  176.5170  143.6230 C   0  0  0  0  0  0  0  0  0  0  0  0
  193.8170  174.9960  144.8510 N   0  0  0  0  0  2  0  0  0  0  0  0
  194.5760  177.3320  145.8610 S   0  0  0  0  0  0  0  0  0  0  0  0
  191.5370  176.1530  143.5490 C   0  0  2  0  0  3  0  0  0  0  0  0
  191.7260  174.6680  143.7130 C   0  0  0  0  0  3  0  0  0  0  0  0
  193.5570  176.3920  145.0010 C   0  0  0  0  0  0  0  0  0  0  0  0
  192.3270  176.9210  144.5100 N   0  0  0  0  0  2  0  0  0  0  0  0
  192.8260  174.1400  144.2660 C   0  0  0  0  0  0  0  0  0  0  0  0
  193.0070  172.6790  144.3200 C   0  0  0  0  0  0  0  0  0  0  0  0
  193.8470  170.4420  144.6070 S   0  0  0  0  0  0  0  0  0  0  0  0
  192.2820  170.5370  144.0830 N   0  0  0  0  0  0  0  0  0  0  0  0
  191.9890  171.8280  143.9830 N   0  0  0  0  0  0  0  0  0  0  0  0
  194.2050  172.0700  144.7220 C   0  0  0  0  0  3  0  0  0  0  0  0
  1  4  2  0  0  0  0
  1  2  1  0  0  0  0
  2  5  2  0  0  0  0
  3  6  2  0  0  0  0
  4  3  1  0  0  0  0
  5  6  1  0  0  0  0
  5 10  1  0  0  0  0
  8  7  1  0  0  0  0
  9  7  1  0  0  0  0
 10  9  1  0  0  0  0
 11 10  1  0  0  0  0
 11  8  1  0  0  0  0
 12 13  1  0  0  0  0
 13 14  2  0  0  0  0
 13  4  1  0  0  0  0
 15 12  1  0  0  0  0
 16 17  1  0  0  0  0
 17 15  1  0  0  0  0
 18  2  1  0  0  0  0
 19 20  2  0  0  0  0
 20 18  1  0  0  0  0
 21 25  1  0  0  0  0
 23 20  1  1  0  0  0
 23 24  1  0  0  0  0
 23 26  1  0  0  0  0
 24 27  2  0  0  0  0
 25 22  2  0  0  0  0
 26 25  1  0  0  0  0
 27 28  1  0  0  0  0
 27 21  1  0  0  0  0
 28 32  2  0  0  0  0
 29 32  1  0  0  0  0
 30 29  1  0  0  0  0
 31 30  2  0  0  0  0
 31 28  1  0  0  0  0
M  END
>  <MODEL>
1

>  <REMARK>
 VINA RESULT:      -7.4      0.000      0.000
  Name = 
  8 active torsions:
  status: ('A' for Active; 'I' for Inactive)
    1  A    between atoms: N_3  and  C_23
    2  A    between atoms: C_4  and  C_9
    3  A    between atoms: C_4  and  C_13
    4  A    between atoms: C_5  and  C_30
    5  A    between atoms: C_11  and  C_13
    6  A    between atoms: C_18  and  C_20
    7  A    between atoms: C_19  and  N_25
    8  A    between atoms: C_23  and  C_29
                            x       y       z     vdW  Elec       q    Type
                         _______ _______ _______ _____ _____    ______ ____

>  <TORSDO>
F 8

$$$$
=
 OpenBabel11062420343D

 32 35  0  0  1  0  0  0  0  0999 V2000
  189.3850  177.2360  145.9410 C   0  0  0  0  0  3  0  0  0  0  0  0
  190.4900  176.4710  145.5500 C   0  0  0  0  0  0  0  0  0  0  0  0
  188.4560  175.3450  147.1160 C   0  0  0  0  0  3  0  0  0  0  0  0
  188.3660  176.6840  146.7240 C   0  0  0  0  0  0  0  0  0  0  0  0
  190.5840  175.1160  145.9520 C   0  0  0  0  0  0  0  0  0  0  0  0
  189.5530  174.5710  146.7330 C   0  0  0  0  0  3  0  0  0  0  0  0
  192.8520  172.3640  144.7970 C   0  0  0  0  0  2  0  0  0  0  0  0
  193.8370  173.2750  145.5130 C   0  0  0  0  0  2  0  0  0  0  0  0
  191.5540  173.1420  144.6890 C   0  0  0  0  0  2  0  0  0  0  0  0
  191.6960  174.2780  145.5800 N   0  0  0  0  0  0  0  0  0  0  0  0
  193.0080  174.3450  146.1930 C   0  0  0  0  0  2  0  0  0  0  0  0
  185.9110  177.2030  146.5420 N   0  0  0  0  0  2  0  0  0  0  0  0
  187.1960  177.4980  147.1000 C   0  0  0  0  0  0  0  0  0  0  0  0
  187.3240  178.4440  147.9240 O   0  0  0  0  0  0  0  0  0  0  0  0
  184.7140  177.9580  146.8790 C   0  0  0  0  0  2  0  0  0  0  0  0
  185.2080  179.6460  145.1400 C   0  0  0  0  0  1  0  0  0  0  0  0
  184.1770  178.6610  145.6460 C   0  0  0  0  0  2  0  0  0  0  0  0
  191.4760  177.1010  144.6160 C   0  0  0  0  0  2  0  0  0  0  0  0
  190.7830  179.1600  143.7080 O   0  0  0  0  0  0  0  0  0  0  0  0
  190.7730  177.9430  143.5980 C   0  0  0  0  0  0  0  0  0  0  0  0
  188.1140  175.5560  141.3670 N   0  0  0  0  0  0  0  0  0  0  0  0
  189.6650  173.4110  141.5800 S   0  0  0  0  0  0  0  0  0  0  0  0
  190.1520  177.2920  142.4010 C   0  0  2  0  0  3  0  0  0  0  0  0
  188.7130  177.7090  142.2500 C   0  0  0  0  0  2  0  0  0  0  0  0
  189.3700  175.0050  141.7630 C   0  0  0  0  0  0  0  0  0  0  0  0
  190.3050  175.8380  142.4470 N   0  0  0  0  0  2  0  0  0  0  0  0
  187.7850  176.9100  141.7060 C   0  0  0  0  0  0  0  0  0  0  0  0
  186.4110  177.3980  141.4950 C   0  0  0  0  0  0  0  0  0  0  0  0
  184.3680  178.2980  140.5960 S   0  0  0  0  0  0  0  0  0  0  0  0
  184.2800  177.8090  142.1720 N   0  0  0  0  0  0  0  0  0  0  0  0
  185.4800  177.3450  142.4980 N   0  0  0  0  0  0  0  0  0  0  0  0
  185.9660  177.9290  140.2750 C   0  0  0  0  0  3  0  0  0  0  0  0
  1  4  1  0  0  0  0
  2  1  2  0  0  0  0
  2  5  1  0  0  0  0
  4 13  1  0  0  0  0
  4  3  2  0  0  0  0
  5  6  2  0  0  0  0
  6  3  1  0  0  0  0
  7  8  1  0  0  0  0
  8 11  1  0  0  0  0
  9  7  1  0  0  0  0
  9 10  1  0  0  0  0
 10  5  1  0  0  0  0
 10 11  1  0  0  0  0
 12 15  1  0  0  0  0
 12 13  1  0  0  0  0
 13 14  2  0  0  0  0
 16 17  1  0  0  0  0
 17 15  1  0  0  0  0
 18  2  1  0  0  0  0
 20 19  2  0  0  0  0
 20 18  1  0  0  0  0
 21 27  2  0  0  0  0
 21 25  1  0  0  0  0
 22 25  2  0  0  0  0
 23 26  1  0  0  0  0
 23 20  1  1  0  0  0
 24 23  1  0  0  0  0
 25 26  1  0  0  0  0
 27 24  1  0  0  0  0
 28 27  1  0  0  0  0
 28 31  1  0  0  0  0
 29 30  1  0  0  0  0
 30 31  2  0  0  0  0
 32 29  1  0  0  0  0
 32 28  2  0  0  0  0
M  END
>  <MODEL>
2

>  <REMARK>
 VINA RESULT:      -7.4      3.122      5.779
  Name = 
  8 active torsions:
  status: ('A' for Active; 'I' for Inactive)
    1  A    between atoms: N_3  and  C_23
    2  A    between atoms: C_4  and  C_9
    3  A    between atoms: C_4  and  C_13
    4  A    between atoms: C_5  and  C_30
    5  A    between atoms: C_11  and  C_13
    6  A    between atoms: C_18  and  C_20
    7  A    between atoms: C_19  and  N_25
    8  A    between atoms: C_23  and  C_29
                            x       y       z     vdW  Elec       q    Type
                         _______ _______ _______ _____ _____    ______ ____

>  <TORSDO>
F 8

$$$$
=
 OpenBabel11062420343D

 32 35  0  0  1  0  0  0  0  0999 V2000
  187.1600  178.0920  144.3380 C   0  0  0  0  0  3  0  0  0  0  0  0
  188.3380  177.6760  144.9700 C   0  0  0  0  0  0  0  0  0  0  0  0
  185.8340  177.0650  146.0730 C   0  0  0  0  0  3  0  0  0  0  0  0
  185.9060  177.7940  144.8810 C   0  0  0  0  0  0  0  0  0  0  0  0
  188.2660  176.9450  146.1800 C   0  0  0  0  0  0  0  0  0  0  0  0
  187.0020  176.6460  146.7130 C   0  0  0  0  0  3  0  0  0  0  0  0
  191.5510  176.5950  147.9500 C   0  0  0  0  0  2  0  0  0  0  0  0
  191.2440  175.1440  147.6120 C   0  0  0  0  0  2  0  0  0  0  0  0
  190.2890  177.3790  147.6480 C   0  0  0  0  0  2  0  0  0  0  0  0
  189.4420  176.4890  146.8750 N   0  0  0  0  0  0  0  0  0  0  0  0
  190.0180  175.1670  146.7230 C   0  0  0  0  0  2  0  0  0  0  0  0
  184.4790  177.8650  142.8100 N   0  0  0  0  0  2  0  0  0  0  0  0
  184.6770  178.2130  144.1850 C   0  0  0  0  0  0  0  0  0  0  0  0
  183.7930  178.8670  144.8030 O   0  0  0  0  0  0  0  0  0  0  0  0
  183.2850  178.2370  142.0670 C   0  0  0  0  0  2  0  0  0  0  0  0
  185.0790  178.1600  140.3660 C   0  0  0  0  0  1  0  0  0  0  0  0
  183.5850  178.2660  140.5800 C   0  0  0  0  0  2  0  0  0  0  0  0
  189.6330  177.9330  144.2630 C   0  0  0  0  0  2  0  0  0  0  0  0
  189.1560  177.3740  142.0260 O   0  0  0  0  0  0  0  0  0  0  0  0
  189.7500  177.0670  143.0480 C   0  0  0  0  0  0  0  0  0  0  0  0
  192.7050  174.3780  141.7130 N   0  0  0  0  0  0  0  0  0  0  0  0
  190.9180  172.8060  140.5350 S   0  0  0  0  0  0  0  0  0  0  0  0
  190.6750  175.8890  143.0660 C   0  0  2  0  0  3  0  0  0  0  0  0
  192.1110  176.3340  142.9760 C   0  0  0  0  0  2  0  0  0  0  0  0
  191.3310  174.0560  141.4990 C   0  0  0  0  0  0  0  0  0  0  0  0
  190.3280  174.9250  142.0230 N   0  0  0  0  0  2  0  0  0  0  0  0
  193.0610  175.5870  142.3960 C   0  0  0  0  0  0  0  0  0  0  0  0
  194.4680  176.0230  142.4150 C   0  0  0  0  0  0  0  0  0  0  0  0
  196.7390  176.5480  143.0150 S   0  0  0  0  0  0  0  0  0  0  0  0
  196.3400  176.8710  141.4430 N   0  0  0  0  0  0  0  0  0  0  0  0
  195.0680  176.5240  141.2910 N   0  0  0  0  0  0  0  0  0  0  0  0
  195.2780  175.9470  143.5590 C   0  0  0  0  0  3  0  0  0  0  0  0
  1  4  2  0  0  0  0
  1  2  1  0  0  0  0
  2  5  2  0  0  0  0
  3  6  2  0  0  0  0
  4  3  1  0  0  0  0
  5  6  1  0  0  0  0
  5 10  1  0  0  0  0
  8  7  1  0  0  0  0
  9  7  1  0  0  0  0
 10  9  1  0  0  0  0
 11 10  1  0  0  0  0
 11  8  1  0  0  0  0
 12 13  1  0  0  0  0
 13 14  2  0  0  0  0
 13  4  1  0  0  0  0
 15 12  1  0  0  0  0
 16 17  1  0  0  0  0
 17 15  1  0  0  0  0
 18  2  1  0  0  0  0
 19 20  2  0  0  0  0
 20 18  1  0  0  0  0
 21 27  2  0  0  0  0
 22 25  2  0  0  0  0
 23 20  1  6  0  0  0
 24 23  1  0  0  0  0
 25 21  1  0  0  0  0
 25 26  1  0  0  0  0
 26 23  1  0  0  0  0
 27 28  1  0  0  0  0
 27 24  1  0  0  0  0
 28 32  2  0  0  0  0
 29 32  1  0  0  0  0
 30 29  1  0  0  0  0
 31 30  2  0  0  0  0
 31 28  1  0  0  0  0
M  END
>  <MODEL>
3

>  <REMARK>
 VINA RESULT:      -7.4      2.174      3.114
  Name = 
  8 active torsions:
  status: ('A' for Active; 'I' for Inactive)
    1  A    between atoms: N_3  and  C_23
    2  A    between atoms: C_4  and  C_9
    3  A    between atoms: C_4  and  C_13
    4  A    between atoms: C_5  and  C_30
    5  A    between atoms: C_11  and  C_13
    6  A    between atoms: C_18  and  C_20
    7  A    between atoms: C_19  and  N_25
    8  A    between atoms: C_23  and  C_29
                            x       y       z     vdW  Elec       q    Type
                         _______ _______ _______ _____ _____    ______ ____

>  <TORSDO>
F 8

$$$$
=
 OpenBabel11062420343D

 32 35  0  0  1  0  0  0  0  0999 V2000
  186.9430  178.0710  144.3670 C   0  0  0  0  0  3  0  0  0  0  0  0
  188.1160  177.6370  144.9960 C   0  0  0  0  0  0  0  0  0  0  0  0
  185.6240  177.3060  146.2370 C   0  0  0  0  0  3  0  0  0  0  0  0
  185.6950  177.9110  144.9780 C   0  0  0  0  0  0  0  0  0  0  0  0
  188.0450  177.0310  146.2740 C   0  0  0  0  0  0  0  0  0  0  0  0
  186.7870  176.8710  146.8750 C   0  0  0  0  0  3  0  0  0  0  0  0
  191.3690  176.6270  147.9590 C   0  0  0  0  0  2  0  0  0  0  0  0
  190.9560  175.1760  147.7730 C   0  0  0  0  0  2  0  0  0  0  0  0
  190.1480  177.4630  147.6250 C   0  0  0  0  0  2  0  0  0  0  0  0
  189.2170  176.5640  146.9700 N   0  0  0  0  0  0  0  0  0  0  0  0
  189.6990  175.1970  146.9280 C   0  0  0  0  0  2  0  0  0  0  0  0
  184.2380  177.9560  142.9280 N   0  0  0  0  0  2  0  0  0  0  0  0
  184.4690  178.3460  144.2860 C   0  0  0  0  0  0  0  0  0  0  0  0
  183.6160  179.0480  144.8940 O   0  0  0  0  0  0  0  0  0  0  0  0
  183.0440  178.3400  142.1900 C   0  0  0  0  0  2  0  0  0  0  0  0
  184.7970  178.2970  140.4460 C   0  0  0  0  0  1  0  0  0  0  0  0
  183.3060  178.2590  140.6980 C   0  0  0  0  0  2  0  0  0  0  0  0
  189.3960  177.7370  144.2260 C   0  0  0  0  0  2  0  0  0  0  0  0
  189.3660  177.9260  141.8780 O   0  0  0  0  0  0  0  0  0  0  0  0
  189.2210  177.1910  142.8430 C   0  0  0  0  0  0  0  0  0  0  0  0
  189.8750  173.2320  141.5580 N   0  0  0  0  0  0  0  0  0  0  0  0
  188.5800  173.6290  139.2730 S   0  0  0  0  0  0  0  0  0  0  0  0
  188.9700  175.7260  142.6530 C   0  0  2  0  0  3  0  0  0  0  0  0
  190.0760  174.9090  143.2670 C   0  0  0  0  0  2  0  0  0  0  0  0
  189.0490  174.0880  140.7670 C   0  0  0  0  0  0  0  0  0  0  0  0
  188.7610  175.4010  141.2430 N   0  0  0  0  0  2  0  0  0  0  0  0
  190.4440  173.7160  142.7820 C   0  0  0  0  0  0  0  0  0  0  0  0
  191.4680  172.9120  143.4730 C   0  0  0  0  0  0  0  0  0  0  0  0
  192.9600  171.1770  144.2160 S   0  0  0  0  0  0  0  0  0  0  0  0
  193.1250  172.6220  145.0020 N   0  0  0  0  0  0  0  0  0  0  0  0
  192.2360  173.4510  144.4700 N   0  0  0  0  0  0  0  0  0  0  0  0
  191.7290  171.5700  143.1570 C   0  0  0  0  0  3  0  0  0  0  0  0
  1  4  2  0  0  0  0
  1  2  1  0  0  0  0
  2  5  2  0  0  0  0
  3  6  2  0  0  0  0
  4  3  1  0  0  0  0
  5  6  1  0  0  0  0
  5 10  1  0  0  0  0
  8  7  1  0  0  0  0
  9  7  1  0  0  0  0
 10  9  1  0  0  0  0
 11 10  1  0  0  0  0
 11  8  1  0  0  0  0
 12 13  1  0  0  0  0
 13 14  2  0  0  0  0
 13  4  1  0  0  0  0
 15 12  1  0  0  0  0
 16 17  1  0  0  0  0
 17 15  1  0  0  0  0
 18  2  1  0  0  0  0
 19 20  2  0  0  0  0
 20 18  1  0  0  0  0
 21 27  2  0  0  0  0
 22 25  2  0  0  0  0
 23 20  1  6  0  0  0
 23 24  1  0  0  0  0
 25 26  1  0  0  0  0
 25 21  1  0  0  0  0
 26 23  1  0  0  0  0
 27 24  1  0  0  0  0
 27 28  1  0  0  0  0
 28 31  1  0  0  0  0
 29 30  1  0  0  0  0
 31 30  2  0  0  0  0
 32 28  2  0  0  0  0
 32 29  1  0  0  0  0
M  END
>  <MODEL>
4

>  <REMARK>
 VINA RESULT:      -7.3      2.184      2.751
  Name = 
  8 active torsions:
  status: ('A' for Active; 'I' for Inactive)
    1  A    between atoms: N_3  and  C_23
    2  A    between atoms: C_4  and  C_9
    3  A    between atoms: C_4  and  C_13
    4  A    between atoms: C_5  and  C_30
    5  A    between atoms: C_11  and  C_13
    6  A    between atoms: C_18  and  C_20
    7  A    between atoms: C_19  and  N_25
    8  A    between atoms: C_23  and  C_29
                            x       y       z     vdW  Elec       q    Type
                         _______ _______ _______ _____ _____    ______ ____

>  <TORSDO>
F 8

$$$$
=
 OpenBabel11062420343D

 32 35  0  0  1  0  0  0  0  0999 V2000
  188.8340  177.2160  145.8060 C   0  0  0  0  0  3  0  0  0  0  0  0
  190.1490  176.7840  145.5940 C   0  0  0  0  0  0  0  0  0  0  0  0
  188.4520  175.3930  147.3390 C   0  0  0  0  0  3  0  0  0  0  0  0
  187.9800  176.5300  146.6750 C   0  0  0  0  0  0  0  0  0  0  0  0
  190.6290  175.6370  146.2720 C   0  0  0  0  0  0  0  0  0  0  0  0
  189.7610  174.9530  147.1380 C   0  0  0  0  0  3  0  0  0  0  0  0
  194.3370  175.1780  145.9620 C   0  0  0  0  0  2  0  0  0  0  0  0
  193.8280  173.8900  145.3340 C   0  0  0  0  0  2  0  0  0  0  0  0
  193.1350  175.8390  146.6100 C   0  0  0  0  0  2  0  0  0  0  0  0
  191.9710  175.1440  146.0940 N   0  0  0  0  0  0  0  0  0  0  0  0
  192.3240  174.0340  145.2300 C   0  0  0  0  0  2  0  0  0  0  0  0
  185.8760  177.5680  145.7660 N   0  0  0  0  0  2  0  0  0  0  0  0
  186.5900  176.9820  146.8610 C   0  0  0  0  0  0  0  0  0  0  0  0
  186.0240  176.8400  147.9780 O   0  0  0  0  0  0  0  0  0  0  0  0
  184.5000  178.0240  145.8770 C   0  0  0  0  0  2  0  0  0  0  0  0
  185.5500  179.5540  144.2420 C   0  0  0  0  0  1  0  0  0  0  0  0
  184.2470  179.1580  144.9020 C   0  0  0  0  0  2  0  0  0  0  0  0
  190.9590  177.5020  144.5600 C   0  0  0  0  0  2  0  0  0  0  0  0
  191.9830  176.6350  142.6250 O   0  0  0  0  0  0  0  0  0  0  0  0
  190.9500  176.7490  143.2680 C   0  0  0  0  0  0  0  0  0  0  0  0
  188.0690  175.1450  140.6440 N   0  0  0  0  0  0  0  0  0  0  0  0
  186.6940  177.4160  140.5680 S   0  0  0  0  0  0  0  0  0  0  0  0
  189.6980  176.0540  142.8250 C   0  0  2  0  0  3  0  0  0  0  0  0
  190.0240  174.8330  142.0070 C   0  0  0  0  0  2  0  0  0  0  0  0
  187.8710  176.4580  141.1680 C   0  0  0  0  0  0  0  0  0  0  0  0
  188.8030  176.9700  142.1200 N   0  0  0  0  0  2  0  0  0  0  0  0
  189.2200  174.3840  141.0330 C   0  0  0  0  0  0  0  0  0  0  0  0
  189.5360  173.1320  140.3230 C   0  0  0  0  0  0  0  0  0  0  0  0
  189.7760  171.3640  138.7080 S   0  0  0  0  0  0  0  0  0  0  0  0
  190.4500  171.0550  140.1860 N   0  0  0  0  0  0  0  0  0  0  0  0
  190.2260  172.1230  140.9400 N   0  0  0  0  0  0  0  0  0  0  0  0
  189.1670  172.8940  138.9910 C   0  0  0  0  0  3  0  0  0  0  0  0
  1  4  1  0  0  0  0
  2  1  2  0  0  0  0
  2  5  1  0  0  0  0
  4 13  1  0  0  0  0
  4  3  2  0  0  0  0
  5  6  2  0  0  0  0
  6  3  1  0  0  0  0
  7  9  1  0  0  0  0
  8  7  1  0  0  0  0
 10  5  1  0  0  0  0
 10  9  1  0  0  0  0
 11  8  1  0  0  0  0
 11 10  1  0  0  0  0
 12 15  1  0  0  0  0
 12 13  1  0  0  0  0
 13 14  2  0  0  0  0
 16 17  1  0  0  0  0
 17 15  1  0  0  0  0
 18  2  1  0  0  0  0
 19 20  2  0  0  0  0
 20 18  1  0  0  0  0
 21 27  2  0  0  0  0
 21 25  1  0  0  0  0
 22 25  2  0  0  0  0
 23 20  1  6  0  0  0
 24 23  1  0  0  0  0
 25 26  1  0  0  0  0
 26 23  1  0  0  0  0
 27 24  1  0  0  0  0
 28 31  1  0  0  0  0
 28 27  1  0  0  0  0
 29 32  1  0  0  0  0
 29 30  1  0  0  0  0
 30 31  2  0  0  0  0
 32 28  2  0  0  0  0
M  END
>  <MODEL>
5

>  <REMARK>
 VINA RESULT:      -7.2      3.372      4.409
  Name = 
  8 active torsions:
  status: ('A' for Active; 'I' for Inactive)
    1  A    between atoms: N_3  and  C_23
    2  A    between atoms: C_4  and  C_9
    3  A    between atoms: C_4  and  C_13
    4  A    between atoms: C_5  and  C_30
    5  A    between atoms: C_11  and  C_13
    6  A    between atoms: C_18  and  C_20
    7  A    between atoms: C_19  and  N_25
    8  A    between atoms: C_23  and  C_29
                            x       y       z     vdW  Elec       q    Type
                         _______ _______ _______ _____ _____    ______ ____

>  <TORSDO>
F 8

$$$$
=
 OpenBabel11062420343D

 32 35  0  0  1  0  0  0  0  0999 V2000
  192.4280  173.7030  145.2360 C   0  0  0  0  0  3  0  0  0  0  0  0
  191.1170  174.1790  145.3530 C   0  0  0  0  0  0  0  0  0  0  0  0
  193.2930  175.8070  146.0370 C   0  0  0  0  0  3  0  0  0  0  0  0
  193.5210  174.5070  145.5770 C   0  0  0  0  0  0  0  0  0  0  0  0
  190.8870  175.4930  145.8260 C   0  0  0  0  0  0  0  0  0  0  0  0
  191.9910  176.2930  146.1590 C   0  0  0  0  0  3  0  0  0  0  0  0
  187.8260  177.6530  145.9630 C   0  0  0  0  0  2  0  0  0  0  0  0
  187.3500  176.4210  146.7170 C   0  0  0  0  0  2  0  0  0  0  0  0
  189.1540  177.2800  145.3330 C   0  0  0  0  0  2  0  0  0  0  0  0
  189.5610  176.0390  145.9660 N   0  0  0  0  0  0  0  0  0  0  0  0
  188.5660  175.5360  146.8940 C   0  0  0  0  0  2  0  0  0  0  0  0
  195.1210  172.7380  144.7750 N   0  0  0  0  0  2  0  0  0  0  0  0
  194.8950  173.9980  145.4170 C   0  0  0  0  0  0  0  0  0  0  0  0
  195.8720  174.6780  145.8340 O   0  0  0  0  0  0  0  0  0  0  0  0
  196.4520  172.1840  144.5750 C   0  0  0  0  0  2  0  0  0  0  0  0
  195.7780  170.3030  146.0320 C   0  0  0  0  0  1  0  0  0  0  0  0
  196.8480  171.3400  145.7710 C   0  0  0  0  0  2  0  0  0  0  0  0
  190.0120  173.2990  144.8570 C   0  0  0  0  0  2  0  0  0  0  0  0
  190.5730  171.7350  143.1880 O   0  0  0  0  0  0  0  0  0  0  0  0
  190.2610  172.8890  143.4390 C   0  0  0  0  0  0  0  0  0  0  0  0
  188.1890  174.9980  140.4380 N   0  0  0  0  0  0  0  0  0  0  0  0
  188.8500  173.2330  138.5670 S   0  0  0  0  0  0  0  0  0  0  0  0
  190.0260  173.8720  142.3330 C   0  0  2  0  0  3  0  0  0  0  0  0
  188.9540  174.8590  142.7120 C   0  0  0  0  0  2  0  0  0  0  0  0
  188.9660  173.8590  140.0700 C   0  0  0  0  0  0  0  0  0  0  0  0
  189.7340  173.1930  141.0720 N   0  0  0  0  0  2  0  0  0  0  0  0
  188.1440  175.4250  141.8060 C   0  0  0  0  0  0  0  0  0  0  0  0
  187.1720  176.4540  142.2140 C   0  0  0  0  0  0  0  0  0  0  0  0
  185.9010  178.4770  142.5040 S   0  0  0  0  0  0  0  0  0  0  0  0
  185.3450  177.1760  143.3590 N   0  0  0  0  0  0  0  0  0  0  0  0
  186.1540  176.1610  143.0820 N   0  0  0  0  0  0  0  0  0  0  0  0
  187.2130  177.7750  141.7440 C   0  0  0  0  0  3  0  0  0  0  0  0
  1  2  2  0  0  0  0
  1  4  1  0  0  0  0
  2  5  1  0  0  0  0
  3  6  1  0  0  0  0
  4  3  2  0  0  0  0
  5 10  1  0  0  0  0
  5  6  2  0  0  0  0
  7  8  1  0  0  0  0
  8 11  1  0  0  0  0
  9  7  1  0  0  0  0
  9 10  1  0  0  0  0
 10 11  1  0  0  0  0
 12 13  1  0  0  0  0
 13  4  1  0  0  0  0
 13 14  2  0  0  0  0
 15 12  1  0  0  0  0
 15 17  1  0  0  0  0
 17 16  1  0  0  0  0
 18  2  1  0  0  0  0
 19 20  2  0  0  0  0
 20 18  1  0  0  0  0
 21 27  2  0  0  0  0
 22 25  2  0  0  0  0
 23 24  1  0  0  0  0
 23 20  1  1  0  0  0
 25 21  1  0  0  0  0
 25 26  1  0  0  0  0
 26 23  1  0  0  0  0
 27 28  1  0  0  0  0
 27 24  1  0  0  0  0
 28 31  1  0  0  0  0
 29 30  1  0  0  0  0
 31 30  2  0  0  0  0
 32 28  2  0  0  0  0
 32 29  1  0  0  0  0
M  END
>  <MODEL>
6

>  <REMARK>
 VINA RESULT:      -6.7      3.621      8.148
  Name = 
  8 active torsions:
  status: ('A' for Active; 'I' for Inactive)
    1  A    between atoms: N_3  and  C_23
    2  A    between atoms: C_4  and  C_9
    3  A    between atoms: C_4  and  C_13
    4  A    between atoms: C_5  and  C_30
    5  A    between atoms: C_11  and  C_13
    6  A    between atoms: C_18  and  C_20
    7  A    between atoms: C_19  and  N_25
    8  A    between atoms: C_23  and  C_29
                            x       y       z     vdW  Elec       q    Type
                         _______ _______ _______ _____ _____    ______ ____

>  <TORSDO>
F 8

$$$$
=
 OpenBabel11062420343D

 32 35  0  0  1  0  0  0  0  0999 V2000
  188.9040  175.8990  143.3440 C   0  0  0  0  0  3  0  0  0  0  0  0
  188.2370  176.5810  144.3690 C   0  0  0  0  0  0  0  0  0  0  0  0
  186.8650  175.7710  142.0620 C   0  0  0  0  0  3  0  0  0  0  0  0
  188.2300  175.4920  142.1890 C   0  0  0  0  0  0  0  0  0  0  0  0
  186.8570  176.8700  144.2360 C   0  0  0  0  0  0  0  0  0  0  0  0
  186.1880  176.4510  143.0750 C   0  0  0  0  0  3  0  0  0  0  0  0
  184.4440  177.9660  146.8880 C   0  0  0  0  0  2  0  0  0  0  0  0
  185.1050  179.2870  146.5270 C   0  0  0  0  0  2  0  0  0  0  0  0
  185.2590  176.8830  146.2070 C   0  0  0  0  0  2  0  0  0  0  0  0
  186.1160  177.5670  145.2570 N   0  0  0  0  0  0  0  0  0  0  0  0
  185.9810  179.0090  145.3240 C   0  0  0  0  0  2  0  0  0  0  0  0
  188.3090  174.5080  139.8750 N   0  0  0  0  0  2  0  0  0  0  0  0
  188.9430  174.7480  141.1360 C   0  0  0  0  0  0  0  0  0  0  0  0
  190.1170  174.3360  141.3400 O   0  0  0  0  0  0  0  0  0  0  0  0
  188.9600  173.7910  138.7890 C   0  0  0  0  0  2  0  0  0  0  0  0
  189.9010  171.5050  138.8780 C   0  0  0  0  0  1  0  0  0  0  0  0
  188.6220  172.3140  138.8640 C   0  0  0  0  0  2  0  0  0  0  0  0
  189.0020  176.8760  145.6210 C   0  0  0  0  0  2  0  0  0  0  0  0
  188.1920  175.3950  147.2630 O   0  0  0  0  0  0  0  0  0  0  0  0
  189.0940  175.6550  146.4810 C   0  0  0  0  0  0  0  0  0  0  0  0
  192.2310  173.6110  144.5490 N   0  0  0  0  0  0  0  0  0  0  0  0
  190.6370  171.6280  143.7900 S   0  0  0  0  0  0  0  0  0  0  0  0
  190.2430  174.7100  146.3030 C   0  0  2  0  0  3  0  0  0  0  0  0
  191.4910  175.4530  145.9040 C   0  0  0  0  0  2  0  0  0  0  0  0
  190.9510  172.9860  144.6380 C   0  0  0  0  0  0  0  0  0  0  0  0
  189.9110  173.6410  145.3630 N   0  0  0  0  0  2  0  0  0  0  0  0
  192.4410  174.9030  145.1360 C   0  0  0  0  0  0  0  0  0  0  0  0
  193.6860  175.6360  144.8490 C   0  0  0  0  0  0  0  0  0  0  0  0
  195.7810  176.4160  143.9550 S   0  0  0  0  0  0  0  0  0  0  0  0
  195.1670  177.3280  145.1900 N   0  0  0  0  0  0  0  0  0  0  0  0
  194.0240  176.7600  145.5540 N   0  0  0  0  0  0  0  0  0  0  0  0
  194.5890  175.2490  143.8470 C   0  0  0  0  0  3  0  0  0  0  0  0
  1  2  1  0  0  0  0
  2 18  1  0  0  0  0
  3  4  1  0  0  0  0
  3  6  2  0  0  0  0
  4  1  2  0  0  0  0
  5  2  2  0  0  0  0
  5 10  1  0  0  0  0
  6  5  1  0  0  0  0
  8  7  1  0  0  0  0
  9  7  1  0  0  0  0
 10 11  1  0  0  0  0
 10  9  1  0  0  0  0
 11  8  1  0  0  0  0
 12 13  1  0  0  0  0
 13 14  2  0  0  0  0
 13  4  1  0  0  0  0
 15 17  1  0  0  0  0
 15 12  1  0  0  0  0
 17 16  1  0  0  0  0
 18 20  1  0  0  0  0
 20 19  2  0  0  0  0
 21 25  1  0  0  0  0
 21 27  2  0  0  0  0
 22 25  2  0  0  0  0
 23 20  1  6  0  0  0
 24 23  1  0  0  0  0
 25 26  1  0  0  0  0
 26 23  1  0  0  0  0
 27 24  1  0  0  0  0
 28 27  1  0  0  0  0
 28 31  1  0  0  0  0
 29 30  1  0  0  0  0
 30 31  2  0  0  0  0
 32 29  1  0  0  0  0
 32 28  2  0  0  0  0
M  END
>  <MODEL>
7

>  <REMARK>
 VINA RESULT:      -6.5      2.965      5.244
  Name = 
  8 active torsions:
  status: ('A' for Active; 'I' for Inactive)
    1  A    between atoms: N_3  and  C_23
    2  A    between atoms: C_4  and  C_9
    3  A    between atoms: C_4  and  C_13
    4  A    between atoms: C_5  and  C_30
    5  A    between atoms: C_11  and  C_13
    6  A    between atoms: C_18  and  C_20
    7  A    between atoms: C_19  and  N_25
    8  A    between atoms: C_23  and  C_29
                            x       y       z     vdW  Elec       q    Type
                         _______ _______ _______ _____ _____    ______ ____

>  <TORSDO>
F 8

$$$$
=
 OpenBabel11062420343D

 32 35  0  0  1  0  0  0  0  0999 V2000
  190.5810  176.0230  144.8000 C   0  0  0  0  0  3  0  0  0  0  0  0
  191.8540  175.4420  144.7470 C   0  0  0  0  0  0  0  0  0  0  0  0
  190.5820  175.8690  147.2080 C   0  0  0  0  0  3  0  0  0  0  0  0
  189.9390  176.2420  146.0230 C   0  0  0  0  0  0  0  0  0  0  0  0
  192.5070  175.0710  145.9470 C   0  0  0  0  0  0  0  0  0  0  0  0
  191.8510  175.2890  147.1680 C   0  0  0  0  0  3  0  0  0  0  0  0
  196.1680  174.2920  145.7270 C   0  0  0  0  0  2  0  0  0  0  0  0
  195.5720  172.8940  145.7630 C   0  0  0  0  0  2  0  0  0  0  0  0
  195.0360  175.2460  146.0590 C   0  0  0  0  0  2  0  0  0  0  0  0
  193.8160  174.4670  145.9550 N   0  0  0  0  0  0  0  0  0  0  0  0
  194.0700  173.0700  145.6650 C   0  0  0  0  0  2  0  0  0  0  0  0
  187.5810  176.2560  146.9010 N   0  0  0  0  0  2  0  0  0  0  0  0
  188.5870  176.8270  146.0570 C   0  0  0  0  0  0  0  0  0  0  0  0
  188.3190  177.8390  145.3540 O   0  0  0  0  0  0  0  0  0  0  0  0
  186.2310  176.7900  146.9910 C   0  0  0  0  0  2  0  0  0  0  0  0
  185.5660  179.1580  147.2560 C   0  0  0  0  0  1  0  0  0  0  0  0
  186.2000  177.9690  147.9450 C   0  0  0  0  0  2  0  0  0  0  0  0
  192.4210  175.1340  143.3960 C   0  0  0  0  0  2  0  0  0  0  0  0
  191.4950  172.9850  143.1280 O   0  0  0  0  0  0  0  0  0  0  0  0
  191.5750  174.1220  142.6880 C   0  0  0  0  0  0  0  0  0  0  0  0
  188.2230  174.4540  140.1580 N   0  0  0  0  0  0  0  0  0  0  0  0
  188.8980  172.2920  138.7730 S   0  0  0  0  0  0  0  0  0  0  0  0
  190.7540  174.5400  141.5060 C   0  0  2  0  0  3  0  0  0  0  0  0
  189.5610  175.3490  141.9420 C   0  0  0  0  0  2  0  0  0  0  0  0
  189.1980  173.4490  139.8830 C   0  0  0  0  0  0  0  0  0  0  0  0
  190.3740  173.3890  140.6890 N   0  0  0  0  0  2  0  0  0  0  0  0
  188.4050  175.3480  141.2650 C   0  0  0  0  0  0  0  0  0  0  0  0
  187.2970  176.2270  141.6780 C   0  0  0  0  0  0  0  0  0  0  0  0
  185.5890  177.9170  141.8180 S   0  0  0  0  0  0  0  0  0  0  0  0
  185.6690  176.8960  143.1160 N   0  0  0  0  0  0  0  0  0  0  0  0
  186.6530  176.0400  142.8710 N   0  0  0  0  0  0  0  0  0  0  0  0
  186.8280  177.2890  140.8890 C   0  0  0  0  0  3  0  0  0  0  0  0
  1  4  1  0  0  0  0
  2  1  2  0  0  0  0
  2  5  1  0  0  0  0
  4 13  1  0  0  0  0
  4  3  2  0  0  0  0
  5 10  1  0  0  0  0
  5  6  2  0  0  0  0
  6  3  1  0  0  0  0
  7  8  1  0  0  0  0
  7  9  1  0  0  0  0
 10  9  1  0  0  0  0
 11  8  1  0  0  0  0
 11 10  1  0  0  0  0
 12 15  1  0  0  0  0
 13 12  1  0  0  0  0
 14 13  2  0  0  0  0
 15 17  1  0  0  0  0
 16 17  1  0  0  0  0
 18  2  1  0  0  0  0
 20 19  2  0  0  0  0
 20 18  1  0  0  0  0
 21 27  2  0  0  0  0
 22 25  2  0  0  0  0
 23 24  1  0  0  0  0
 23 20  1  1  0  0  0
 25 21  1  0  0  0  0
 25 26  1  0  0  0  0
 26 23  1  0  0  0  0
 27 28  1  0  0  0  0
 27 24  1  0  0  0  0
 28 31  1  0  0  0  0
 29 30  1  0  0  0  0
 31 30  2  0  0  0  0
 32 28  2  0  0  0  0
 32 29  1  0  0  0  0
M  END
>  <MODEL>
8

>  <REMARK>
 VINA RESULT:      -6.5      3.278      6.167
  Name = 
  8 active torsions:
  status: ('A' for Active; 'I' for Inactive)
    1  A    between atoms: N_3  and  C_23
    2  A    between atoms: C_4  and  C_9
    3  A    between atoms: C_4  and  C_13
    4  A    between atoms: C_5  and  C_30
    5  A    between atoms: C_11  and  C_13
    6  A    between atoms: C_18  and  C_20
    7  A    between atoms: C_19  and  N_25
    8  A    between atoms: C_23  and  C_29
                            x       y       z     vdW  Elec       q    Type
                         _______ _______ _______ _____ _____    ______ ____

>  <TORSDO>
F 8

$$$$
=
 OpenBabel11062420343D

 32 35  0  0  1  0  0  0  0  0999 V2000
  190.3640  176.2970  145.3770 C   0  0  0  0  0  3  0  0  0  0  0  0
  189.1270  176.9310  145.5480 C   0  0  0  0  0  0  0  0  0  0  0  0
  189.8020  174.6810  147.0770 C   0  0  0  0  0  3  0  0  0  0  0  0
  190.7090  175.1730  146.1340 C   0  0  0  0  0  0  0  0  0  0  0  0
  188.2060  176.4290  146.4980 C   0  0  0  0  0  0  0  0  0  0  0  0
  188.5660  175.3030  147.2570 C   0  0  0  0  0  3  0  0  0  0  0  0
  184.7350  177.8220  146.2400 C   0  0  0  0  0  2  0  0  0  0  0  0
  185.2070  178.4470  147.5440 C   0  0  0  0  0  2  0  0  0  0  0  0
  185.7740  176.7810  145.8670 C   0  0  0  0  0  2  0  0  0  0  0  0
  186.9200  177.0380  146.7200 N   0  0  0  0  0  0  0  0  0  0  0  0
  186.6770  178.1070  147.6710 C   0  0  0  0  0  2  0  0  0  0  0  0
  192.3460  173.8730  144.7340 N   0  0  0  0  0  2  0  0  0  0  0  0
  192.0280  174.5390  145.9610 C   0  0  0  0  0  0  0  0  0  0  0  0
  192.8820  174.5950  146.8870 O   0  0  0  0  0  0  0  0  0  0  0  0
  193.6320  173.2360  144.4930 C   0  0  0  0  0  2  0  0  0  0  0  0
  193.1830  170.8080  144.6230 C   0  0  0  0  0  1  0  0  0  0  0  0
  193.4420  171.9670  143.6850 C   0  0  0  0  0  2  0  0  0  0  0  0
  188.8830  178.1960  144.7850 C   0  0  0  0  0  2  0  0  0  0  0  0
  190.8580  178.5340  143.5460 O   0  0  0  0  0  0  0  0  0  0  0  0
  189.6800  178.2080  143.5180 C   0  0  0  0  0  0  0  0  0  0  0  0
  187.0920  176.0450  140.9930 N   0  0  0  0  0  0  0  0  0  0  0  0
  188.7850  174.0080  140.7980 S   0  0  0  0  0  0  0  0  0  0  0  0
  189.0550  177.7230  142.2460 C   0  0  2  0  0  3  0  0  0  0  0  0
  187.5870  178.0580  142.2090 C   0  0  0  0  0  2  0  0  0  0  0  0
  188.3960  175.5260  141.2550 C   0  0  0  0  0  0  0  0  0  0  0  0
  189.3020  176.2970  142.0420 N   0  0  0  0  0  2  0  0  0  0  0  0
  186.6910  177.2980  141.5650 C   0  0  0  0  0  0  0  0  0  0  0  0
  185.2810  177.7160  141.4790 C   0  0  0  0  0  0  0  0  0  0  0  0
  183.0800  178.3570  140.7480 S   0  0  0  0  0  0  0  0  0  0  0  0
  183.2780  178.2910  142.3880 N   0  0  0  0  0  0  0  0  0  0  0  0
  184.5350  177.9250  142.6080 N   0  0  0  0  0  0  0  0  0  0  0  0
  184.6150  177.9160  140.2600 C   0  0  0  0  0  3  0  0  0  0  0  0
  1  2  2  0  0  0  0
  1  4  1  0  0  0  0
  2  5  1  0  0  0  0
  3  6  1  0  0  0  0
  4  3  2  0  0  0  0
  5 10  1  0  0  0  0
  5  6  2  0  0  0  0
  7  8  1  0  0  0  0
  8 11  1  0  0  0  0
  9  7  1  0  0  0  0
  9 10  1  0  0  0  0
 10 11  1  0  0  0  0
 12 13  1  0  0  0  0
 13  4  1  0  0  0  0
 13 14  2  0  0  0  0
 15 12  1  0  0  0  0
 17 15  1  0  0  0  0
 17 16  1  0  0  0  0
 18  2  1  0  0  0  0
 20 19  2  0  0  0  0
 20 18  1  0  0  0  0
 21 25  1  0  0  0  0
 21 27  2  0  0  0  0
 22 25  2  0  0  0  0
 23 20  1  1  0  0  0
 24 23  1  0  0  0  0
 25 26  1  0  0  0  0
 26 23  1  0  0  0  0
 27 24  1  0  0  0  0
 28 27  1  0  0  0  0
 28 31  1  0  0  0  0
 29 30  1  0  0  0  0
 30 31  2  0  0  0  0
 32 29  1  0  0  0  0
 32 28  2  0  0  0  0
M  END
>  <MODEL>
9

>  <REMARK>
 VINA RESULT:      -6.5      3.280      7.626
  Name = 
  8 active torsions:
  status: ('A' for Active; 'I' for Inactive)
    1  A    between atoms: N_3  and  C_23
    2  A    between atoms: C_4  and  C_9
    3  A    between atoms: C_4  and  C_13
    4  A    between atoms: C_5  and  C_30
    5  A    between atoms: C_11  and  C_13
    6  A    between atoms: C_18  and  C_20
    7  A    between atoms: C_19  and  N_25
    8  A    between atoms: C_23  and  C_29
                            x       y       z     vdW  Elec       q    Type
                         _______ _______ _______ _____ _____    ______ ____

>  <TORSDO>
F 8

$$$$
