=
 OpenBabel11072409333D

 58 63  0  0  1  0  0  0  0  0999 V2000
  192.4470  170.8040  143.7200 C   0  0  0  0  0  2  0  0  0  0  0  0
  188.4360  174.5840  143.0440 C   0  0  1  0  0  3  0  0  0  0  0  0
  191.3660  171.7200  144.1950 C   0  0  0  0  0  3  0  0  0  0  0  0
  189.4450  175.5180  145.9730 C   0  0  2  0  0  0  0  0  0  0  0  0
  188.1970  175.2390  145.3410 O   0  0  0  0  0  0  0  0  0  0  0  0
  188.2700  175.0620  141.6240 C   0  0  0  0  0  0  0  0  0  0  0  0
  188.9010  172.3200  137.8270 C   0  0  0  0  0  2  0  0  0  0  0  0
  186.3110  176.2960  142.3250 C   0  0  1  0  0  3  0  0  0  0  0  0
  189.2050  173.2470  140.2350 C   0  0  2  0  0  3  0  0  0  0  0  0
  192.9030  171.1620  142.2930 C   0  0  2  0  0  3  0  0  0  0  0  0
  187.3200  175.8920  141.3390 N   0  0  0  0  0  0  0  0  0  0  0  0
  190.5570  175.1180  145.1830 O   0  0  0  0  0  0  0  0  0  0  0  0
  189.8650  173.2530  137.0790 C   0  0  0  0  0  2  0  0  0  0  0  0
  190.6660  172.7850  140.0170 C   0  0  1  0  0  3  0  0  0  0  0  0
  188.2580  173.0080  139.0400 C   0  0  0  0  0  2  0  0  0  0  0  0
  191.4130  173.6760  139.0330 C   0  0  0  0  0  2  0  0  0  0  0  0
  191.3690  172.6850  141.2210 O   0  0  0  0  0  0  0  0  0  0  0  0
  191.5440  172.9960  144.5680 C   0  0  0  0  0  0  0  0  0  0  0  0
  186.9070  176.5450  143.7240 C   0  0  2  0  0  3  0  0  0  0  0  0
  189.8450  174.0290  143.2010 C   0  0  0  0  0  2  0  0  0  0  0  0
  188.2040  175.7450  144.0240 C   0  0  2  0  0  3  0  0  0  0  0  0
  189.1300  174.6270  140.6060 O   0  0  0  0  0  0  0  0  0  0  0  0
  189.4970  174.8130  147.1840 O   0  0  0  0  0  1  0  0  0  0  0  0
  191.7390  171.3400  141.3060 C   0  0  0  0  0  2  0  0  0  0  0  0
  190.3030  173.8390  144.6370 C   0  0  2  0  0  3  0  0  0  0  0  0
  191.2760  173.1270  137.6220 C   0  0  0  0  0  2  0  0  0  0  0  0
  185.5880  177.4870  141.8560 C   0  0  0  0  0  0  0  0  0  0  0  0
  184.9940  178.4640  141.4600 C   0  0  0  0  0  3  0  0  0  0  0  0
  192.9140  173.6120  144.6560 C   0  0  0  0  0  2  0  0  0  0  0  0
  193.3060  173.8570  146.1080 C   0  0  0  0  0  2  0  0  0  0  0  0
  193.7280  175.2970  146.2830 C   0  0  0  0  0  1  0  0  0  0  0  0
  193.9270  170.1390  141.7880 C   0  0  1  0  0  3  0  0  0  0  0  0
  193.7760  169.8010  140.3020 C   0  0  0  0  0  2  0  0  0  0  0  0
  195.0210  169.7820  139.6610 O   0  0  0  0  0  0  0  0  0  0  0  0
  194.8010  170.6580  138.2270 P   0  0  0  0  0  0  0  0  0  0  0  0
  193.2870  170.3020  137.5540 O   0  0  0  0  0  1  0  0  0  0  0  0
  196.0240  170.2590  137.1290 O   0  0  0  0  0  0  0  0  0  0  0  0
  194.8780  172.1370  138.5290 O   0  0  0  0  0  1  0  0  0  0  0  0
  195.2820  170.5910  142.0760 N   0  0  0  0  0  2  0  0  0  0  0  0
  197.3430  172.3200  145.2700 N   0  0  0  0  0  0  0  0  0  0  0  0
  196.8470  170.1600  144.4580 O   0  0  0  0  0  0  0  0  0  0  0  0
  197.5700  173.7320  144.9160 C   0  0  2  0  0  3  0  0  0  0  0  0
  195.5440  171.9400  142.3530 N   0  0  0  0  0  0  0  0  0  0  0  0
  197.1000  173.4820  146.1710 C   0  0  0  0  0  2  0  0  0  0  0  0
  196.5260  173.7740  143.7560 C   0  0  0  0  0  2  0  0  0  0  0  0
  196.1570  172.3060  143.4330 C   0  0  0  0  0  0  0  0  0  0  0  0
  196.7070  171.4140  144.4510 C   0  0  0  0  0  0  0  0  0  0  0  0
  185.9010  176.3880  144.7380 O   0  0  0  0  0  0  0  0  0  0  0  0
  184.5790  177.2430  146.4580 O   0  0  0  0  0  0  0  0  0  0  0  0
  185.4910  177.4280  145.5970 C   0  0  0  0  0  0  0  0  0  0  0  0
  186.1800  178.7490  145.5220 C   0  0  0  0  0  2  0  0  0  0  0  0
  186.1380  179.4090  146.8910 C   0  0  0  0  0  1  0  0  0  0  0  0
  189.5660  176.9040  146.2390 O   0  0  0  0  0  0  0  0  0  0  0  0
  190.7540  177.3740  145.6470 C   0  0  0  0  0  2  0  0  0  0  0  0
  190.4510  178.3990  144.5770 C   0  0  0  0  0  2  0  0  0  0  0  0
  190.7010  177.7520  143.2340 C   0  0  0  0  0  2  0  0  0  0  0  0
  192.3280  176.2160  142.4600 O   0  0  0  0  0  1  0  0  0  0  0  0
  192.1690  177.4830  143.0350 C   0  0  0  0  0  2  0  0  0  0  0  0
  1  3  1  0  0  0  0
  2 20  1  6  0  0  0
  2 21  1  0  0  0  0
  3 18  2  0  0  0  0
  4 53  1  0  0  0  0
  4 23  1  1  0  0  0
  5  4  1  0  0  0  0
  6  2  1  0  0  0  0
  7 15  1  0  0  0  0
  8 27  1  6  0  0  0
  8 19  1  0  0  0  0
  9 15  1  6  0  0  0
  9 22  1  0  0  0  0
 10 32  1  6  0  0  0
 10  1  1  0  0  0  0
 11  6  2  0  0  0  0
 11  8  1  0  0  0  0
 12  4  1  0  0  0  0
 13 26  1  0  0  0  0
 13  7  1  0  0  0  0
 14 16  1  6  0  0  0
 14  9  1  0  0  0  0
 14 17  1  0  0  0  0
 17 24  1  0  0  0  0
 18 25  1  0  0  0  0
 18 29  1  0  0  0  0
 19 21  1  0  0  0  0
 19 48  1  1  0  0  0
 21  5  1  1  0  0  0
 22  6  1  0  0  0  0
 24 10  1  0  0  0  0
 25 20  1  6  0  0  0
 25 12  1  0  0  0  0
 26 16  1  0  0  0  0
 28 27  3  0  0  0  0
 29 30  1  0  0  0  0
 30 31  1  0  0  0  0
 32 33  1  6  0  0  0
 32 39  1  0  0  0  0
 34 33  1  0  0  0  0
 35 38  1  0  0  0  0
 35 34  1  0  0  0  0
 36 35  1  0  0  0  0
 37 35  2  0  0  0  0
 39 43  1  0  0  0  0
 40 44  1  0  0  0  0
 42 45  1  6  0  0  0
 42 40  1  0  0  0  0
 42 44  1  0  0  0  0
 43 46  2  0  0  0  0
 46 45  1  0  0  0  0
 46 47  1  0  0  0  0
 47 41  2  0  0  0  0
 47 40  1  0  0  0  0
 48 50  1  0  0  0  0
 50 49  2  0  0  0  0
 51 50  1  0  0  0  0
 51 52  1  0  0  0  0
 54 53  1  0  0  0  0
 55 54  1  0  0  0  0
 56 55  1  0  0  0  0
 57 58  1  0  0  0  0
 58 56  1  0  0  0  0
M  END
>  <MODEL>
1

>  <REMARK>
 VINA RESULT:      -6.0      0.000      0.000
  Name = 
  17 active torsions:
  status: ('A' for Active; 'I' for Inactive)
    1  A    between atoms: P_1  and  O_20
    2  A    between atoms: C_8  and  C_28
    3  A    between atoms: O_10  and  C_11
    4  A    between atoms: O_10  and  C_55
    5  A    between atoms: C_15  and  C_50
    6  A    between atoms: C_16  and  C_43
    7  A    between atoms: C_19  and  C_40
    8  A    between atoms: O_20  and  C_49
    9  A    between atoms: C_21  and  C_39
   10  A    between atoms: C_28  and  C_36
   11  A    between atoms: O_29  and  C_38
   12  A    between atoms: O_29  and  C_50
   13  A    between atoms: N_30  and  C_39
   14  A    between atoms: N_30  and  N_41
   15  A    between atoms: C_36  and  C_55
   16  A    between atoms: C_37  and  C_40
   17  A    between atoms: C_39  and  C_49
                            x       y       z     vdW  Elec       q    Type
                         _______ _______ _______ _____ _____    ______ ____

>  <TORSDO>
F 17

$$$$
=
 OpenBabel11072409333D

 58 63  0  0  1  0  0  0  0  0999 V2000
  190.9170  177.2700  144.3800 C   0  0  0  0  0  2  0  0  0  0  0  0
  194.2350  174.0090  141.3470 C   0  0  1  0  0  3  0  0  0  0  0  0
  192.2410  176.7780  143.8920 C   0  0  0  0  0  3  0  0  0  0  0  0
  196.1910  174.3950  143.8960 C   0  0  2  0  0  0  0  0  0  0  0  0
  196.3000  174.4820  142.4760 O   0  0  0  0  0  0  0  0  0  0  0  0
  193.5060  172.9640  140.5420 C   0  0  0  0  0  0  0  0  0  0  0  0
  189.2580  173.6310  138.5830 C   0  0  0  0  0  2  0  0  0  0  0  0
  195.6090  172.3780  139.5000 C   0  0  1  0  0  3  0  0  0  0  0  0
  191.2200  173.8590  140.2690 C   0  0  2  0  0  3  0  0  0  0  0  0
  189.7930  176.2660  144.0680 C   0  0  2  0  0  3  0  0  0  0  0  0
  194.1750  172.1930  139.7460 N   0  0  0  0  0  0  0  0  0  0  0  0
  194.8430  174.2840  144.3330 O   0  0  0  0  0  0  0  0  0  0  0  0
  188.5880  172.3710  139.1510 C   0  0  0  0  0  2  0  0  0  0  0  0
  190.0680  174.0250  141.2880 C   0  0  1  0  0  3  0  0  0  0  0  0
  190.7760  173.6280  138.8100 C   0  0  0  0  0  2  0  0  0  0  0  0
  189.3290  172.7190  141.5440 C   0  0  0  0  0  2  0  0  0  0  0  0
  190.5080  174.5850  142.4900 O   0  0  0  0  0  0  0  0  0  0  0  0
  192.9560  175.7950  144.4590 C   0  0  0  0  0  0  0  0  0  0  0  0
  196.3970  172.7250  140.7770 C   0  0  2  0  0  3  0  0  0  0  0  0
  193.3410  174.4320  142.5040 C   0  0  0  0  0  2  0  0  0  0  0  0
  195.5620  173.4410  141.8740 C   0  0  2  0  0  3  0  0  0  0  0  0
  192.1170  172.8080  140.6430 O   0  0  0  0  0  0  0  0  0  0  0  0
  196.7350  175.5590  144.4560 O   0  0  0  0  0  1  0  0  0  0  0  0
  189.7940  175.7810  142.6100 C   0  0  0  0  0  2  0  0  0  0  0  0
  194.0440  175.2000  143.6110 C   0  0  2  0  0  3  0  0  0  0  0  0
  188.1540  172.5860  140.5890 C   0  0  0  0  0  2  0  0  0  0  0  0
  196.1740  171.1810  138.8580 C   0  0  0  0  0  0  0  0  0  0  0  0
  196.6300  170.1960  138.3240 C   0  0  0  0  0  3  0  0  0  0  0  0
  192.5320  175.1510  145.7520 C   0  0  0  0  0  2  0  0  0  0  0  0
  192.5420  176.1620  146.8900 C   0  0  0  0  0  2  0  0  0  0  0  0
  191.4870  175.7920  147.9070 C   0  0  0  0  0  1  0  0  0  0  0  0
  188.4330  176.8450  144.4730 C   0  0  1  0  0  3  0  0  0  0  0  0
  188.3890  177.3620  145.9140 C   0  0  0  0  0  2  0  0  0  0  0  0
  187.7220  176.4600  146.7520 O   0  0  0  0  0  0  0  0  0  0  0  0
  186.2110  177.1630  147.0570 P   0  0  0  0  0  0  0  0  0  0  0  0
  185.6700  176.7320  148.6030 O   0  0  0  0  0  1  0  0  0  0  0  0
  185.1000  176.6380  145.8950 O   0  0  0  0  0  0  0  0  0  0  0  0
  186.3330  178.6670  146.9720 O   0  0  0  0  0  1  0  0  0  0  0  0
  188.0260  177.8900  143.5420 N   0  0  0  0  0  2  0  0  0  0  0  0
  184.7350  177.6620  140.9820 N   0  0  0  0  0  0  0  0  0  0  0  0
  186.8880  176.7130  141.1690 O   0  0  0  0  0  0  0  0  0  0  0  0
  183.5900  178.2360  141.7080 C   0  0  2  0  0  3  0  0  0  0  0  0
  186.7630  178.4890  143.6450 N   0  0  0  0  0  0  0  0  0  0  0  0
  183.7690  178.6490  140.4220 C   0  0  0  0  0  2  0  0  0  0  0  0
  184.4390  178.9410  142.8120 C   0  0  0  0  0  2  0  0  0  0  0  0
  185.8690  178.3540  142.7180 C   0  0  0  0  0  0  0  0  0  0  0  0
  186.0010  177.5420  141.5110 C   0  0  0  0  0  0  0  0  0  0  0  0
  197.6110  173.4200  140.4500 O   0  0  0  0  0  0  0  0  0  0  0  0
  197.4940  175.7300  140.1560 O   0  0  0  0  0  0  0  0  0  0  0  0
  197.6530  174.5790  139.6480 C   0  0  0  0  0  0  0  0  0  0  0  0
  197.9410  174.4470  138.1910 C   0  0  0  0  0  2  0  0  0  0  0  0
  196.7360  174.9290  137.4010 C   0  0  0  0  0  1  0  0  0  0  0  0
  196.9070  173.2710  144.3780 O   0  0  0  0  0  0  0  0  0  0  0  0
  196.2510  172.7770  145.5230 C   0  0  0  0  0  2  0  0  0  0  0  0
  196.7880  171.4150  145.9030 C   0  0  0  0  0  2  0  0  0  0  0  0
  195.6110  170.4760  146.0380 C   0  0  0  0  0  2  0  0  0  0  0  0
  193.6090  169.8880  144.9190 O   0  0  0  0  0  1  0  0  0  0  0  0
  194.4370  170.9720  145.2370 C   0  0  0  0  0  2  0  0  0  0  0  0
  2 21  1  0  0  0  0
  2 20  1  1  0  0  0
  3  1  1  0  0  0  0
  3 18  2  0  0  0  0
  4 12  1  0  0  0  0
  4 53  1  0  0  0  0
  4 23  1  1  0  0  0
  5  4  1  0  0  0  0
  6 22  1  0  0  0  0
  6  2  1  0  0  0  0
  7 15  1  0  0  0  0
  7 13  1  0  0  0  0
  8 27  1  1  0  0  0
  8 11  1  0  0  0  0
  8 19  1  0  0  0  0
  9 15  1  6  0  0  0
  9 22  1  0  0  0  0
  9 14  1  0  0  0  0
 10  1  1  0  0  0  0
 10 32  1  6  0  0  0
 11  6  2  0  0  0  0
 13 26  1  0  0  0  0
 14 16  1  1  0  0  0
 14 17  1  0  0  0  0
 17 24  1  0  0  0  0
 18 29  1  0  0  0  0
 19 48  1  6  0  0  0
 19 21  1  0  0  0  0
 21  5  1  6  0  0  0
 24 10  1  0  0  0  0
 25 20  1  6  0  0  0
 25 12  1  0  0  0  0
 25 18  1  0  0  0  0
 26 16  1  0  0  0  0
 28 27  3  0  0  0  0
 29 30  1  0  0  0  0
 30 31  1  0  0  0  0
 32 33  1  1  0  0  0
 33 34  1  0  0  0  0
 34 35  1  0  0  0  0
 35 36  1  0  0  0  0
 37 35  2  0  0  0  0
 38 35  1  0  0  0  0
 39 43  1  0  0  0  0
 39 32  1  0  0  0  0
 40 47  1  0  0  0  0
 40 42  1  0  0  0  0
 41 47  2  0  0  0  0
 42 44  1  6  0  0  0
 42 45  1  0  0  0  0
 44 40  1  0  0  0  0
 46 45  1  0  0  0  0
 46 43  2  0  0  0  0
 47 46  1  0  0  0  0
 50 49  2  0  0  0  0
 50 48  1  0  0  0  0
 51 50  1  0  0  0  0
 52 51  1  0  0  0  0
 53 54  1  0  0  0  0
 54 55  1  0  0  0  0
 55 56  1  0  0  0  0
 57 58  1  0  0  0  0
 58 56  1  0  0  0  0
M  END
>  <MODEL>
2

>  <REMARK>
 VINA RESULT:      -5.9      3.216      9.629
  Name = 
  17 active torsions:
  status: ('A' for Active; 'I' for Inactive)
    1  A    between atoms: P_1  and  O_20
    2  A    between atoms: C_8  and  C_28
    3  A    between atoms: O_10  and  C_11
    4  A    between atoms: O_10  and  C_55
    5  A    between atoms: C_15  and  C_50
    6  A    between atoms: C_16  and  C_43
    7  A    between atoms: C_19  and  C_40
    8  A    between atoms: O_20  and  C_49
    9  A    between atoms: C_21  and  C_39
   10  A    between atoms: C_28  and  C_36
   11  A    between atoms: O_29  and  C_38
   12  A    between atoms: O_29  and  C_50
   13  A    between atoms: N_30  and  C_39
   14  A    between atoms: N_30  and  N_41
   15  A    between atoms: C_36  and  C_55
   16  A    between atoms: C_37  and  C_40
   17  A    between atoms: C_39  and  C_49
                            x       y       z     vdW  Elec       q    Type
                         _______ _______ _______ _____ _____    ______ ____

>  <TORSDO>
F 17

$$$$
=
 OpenBabel11072409333D

 58 63  0  0  1  0  0  0  0  0999 V2000
  192.4750  170.7520  143.6740 C   0  0  0  0  0  2  0  0  0  0  0  0
  188.4860  174.5800  143.1470 C   0  0  1  0  0  3  0  0  0  0  0  0
  191.4130  171.6710  144.1880 C   0  0  0  0  0  3  0  0  0  0  0  0
  189.5680  175.4580  146.0680 C   0  0  2  0  0  0  0  0  0  0  0  0
  188.3040  175.2010  145.4590 O   0  0  0  0  0  0  0  0  0  0  0  0
  188.2930  175.0820  141.7390 C   0  0  0  0  0  0  0  0  0  0  0  0
  188.8140  172.3950  137.8870 C   0  0  0  0  0  2  0  0  0  0  0  0
  186.3630  176.3230  142.5030 C   0  0  1  0  0  3  0  0  0  0  0  0
  189.1800  173.2810  140.3010 C   0  0  2  0  0  3  0  0  0  0  0  0
  192.9020  171.1290  142.2440 C   0  0  2  0  0  3  0  0  0  0  0  0
  187.3450  175.9260  141.4890 N   0  0  0  0  0  0  0  0  0  0  0  0
  190.6590  175.0600  145.2470 O   0  0  0  0  0  0  0  0  0  0  0  0
  189.7700  173.3310  137.1320 C   0  0  0  0  0  2  0  0  0  0  0  0
  190.6310  172.8090  140.0440 C   0  0  1  0  0  3  0  0  0  0  0  0
  188.2050  173.0700  139.1240 C   0  0  0  0  0  2  0  0  0  0  0  0
  191.3650  173.7080  139.0580 C   0  0  0  0  0  2  0  0  0  0  0  0
  191.3590  172.6840  141.2300 O   0  0  0  0  0  0  0  0  0  0  0  0
  191.6110  172.9390  144.5770 C   0  0  0  0  0  0  0  0  0  0  0  0
  186.9910  176.5450  143.8920 C   0  0  2  0  0  3  0  0  0  0  0  0
  189.8930  174.0090  143.2640 C   0  0  0  0  0  2  0  0  0  0  0  0
  188.2870  175.7270  144.1500 C   0  0  2  0  0  3  0  0  0  0  0  0
  189.1260  174.6550  140.6960 O   0  0  0  0  0  0  0  0  0  0  0  0
  189.6400  174.7330  147.2660 O   0  0  0  0  0  1  0  0  0  0  0  0
  191.7190  171.3330  141.2860 C   0  0  0  0  0  2  0  0  0  0  0  0
  190.3800  173.7930  144.6870 C   0  0  2  0  0  3  0  0  0  0  0  0
  191.1910  173.1830  137.6420 C   0  0  0  0  0  2  0  0  0  0  0  0
  185.6410  177.5290  142.0680 C   0  0  0  0  0  0  0  0  0  0  0  0
  185.0550  178.5250  141.7110 C   0  0  0  0  0  3  0  0  0  0  0  0
  192.9890  173.5410  144.6450 C   0  0  0  0  0  2  0  0  0  0  0  0
  193.2940  174.0400  146.0510 C   0  0  0  0  0  2  0  0  0  0  0  0
  194.4670  174.9920  146.0080 C   0  0  0  0  0  1  0  0  0  0  0  0
  193.9050  170.1050  141.7000 C   0  0  1  0  0  3  0  0  0  0  0  0
  194.3430  169.0640  142.7340 C   0  0  0  0  0  2  0  0  0  0  0  0
  195.7280  169.1070  142.9350 O   0  0  0  0  0  0  0  0  0  0  0  0
  195.9320  169.4070  144.5900 P   0  0  0  0  0  0  0  0  0  0  0  0
  195.7810  171.0650  144.9040 O   0  0  0  0  0  0  0  0  0  0  0  0
  197.4610  168.8700  145.0760 O   0  0  0  0  0  1  0  0  0  0  0  0
  194.8790  168.6520  145.3690 O   0  0  0  0  0  1  0  0  0  0  0  0
  193.3720  169.4530  140.5110 N   0  0  0  0  0  2  0  0  0  0  0  0
  191.4040  169.4740  136.8280 N   0  0  0  0  0  0  0  0  0  0  0  0
  190.8820  169.1060  139.1000 O   0  0  0  0  0  0  0  0  0  0  0  0
  192.2840  170.1770  135.8780 C   0  0  2  0  0  3  0  0  0  0  0  0
  193.8520  169.7860  139.2360 N   0  0  0  0  0  0  0  0  0  0  0  0
  191.7390  169.0010  135.4550 C   0  0  0  0  0  2  0  0  0  0  0  0
  193.5680  170.0940  136.7620 C   0  0  0  0  0  2  0  0  0  0  0  0
  193.1090  169.6800  138.1810 C   0  0  0  0  0  0  0  0  0  0  0  0
  191.7030  169.2830  138.1580 C   0  0  0  0  0  0  0  0  0  0  0  0
  186.0070  176.3810  144.9260 O   0  0  0  0  0  0  0  0  0  0  0  0
  184.4370  177.4730  146.2590 O   0  0  0  0  0  0  0  0  0  0  0  0
  185.6190  177.4140  145.8030 C   0  0  0  0  0  0  0  0  0  0  0  0
  186.6310  178.4190  146.2380 C   0  0  0  0  0  2  0  0  0  0  0  0
  186.0510  179.2490  147.3710 C   0  0  0  0  0  1  0  0  0  0  0  0
  189.7080  176.8380  146.3530 O   0  0  0  0  0  0  0  0  0  0  0  0
  190.8340  177.3290  145.6620 C   0  0  0  0  0  2  0  0  0  0  0  0
  190.4150  178.2720  144.5560 C   0  0  0  0  0  2  0  0  0  0  0  0
  191.1240  177.8450  143.2920 C   0  0  0  0  0  2  0  0  0  0  0  0
  192.8830  176.5070  142.4420 O   0  0  0  0  0  1  0  0  0  0  0  0
  192.3860  177.0910  143.6150 C   0  0  0  0  0  2  0  0  0  0  0  0
  1  3  1  0  0  0  0
  2 20  1  6  0  0  0
  2 21  1  0  0  0  0
  3 18  2  0  0  0  0
  4 53  1  0  0  0  0
  4 23  1  1  0  0  0
  5  4  1  0  0  0  0
  6  2  1  0  0  0  0
  7 15  1  0  0  0  0
  8 27  1  6  0  0  0
  8 19  1  0  0  0  0
  9 15  1  6  0  0  0
  9 22  1  0  0  0  0
 10 32  1  6  0  0  0
 10  1  1  0  0  0  0
 11  6  2  0  0  0  0
 11  8  1  0  0  0  0
 12  4  1  0  0  0  0
 13 26  1  0  0  0  0
 13  7  1  0  0  0  0
 14 16  1  6  0  0  0
 14  9  1  0  0  0  0
 14 17  1  0  0  0  0
 17 24  1  0  0  0  0
 18 29  1  0  0  0  0
 18 25  1  0  0  0  0
 19 21  1  0  0  0  0
 19 48  1  1  0  0  0
 21  5  1  1  0  0  0
 22  6  1  0  0  0  0
 24 10  1  0  0  0  0
 25 20  1  6  0  0  0
 25 12  1  0  0  0  0
 26 16  1  0  0  0  0
 28 27  3  0  0  0  0
 29 30  1  0  0  0  0
 31 30  1  0  0  0  0
 32 33  1  1  0  0  0
 33 34  1  0  0  0  0
 34 35  1  0  0  0  0
 35 36  2  0  0  0  0
 35 37  1  0  0  0  0
 35 38  1  0  0  0  0
 39 32  1  0  0  0  0
 40 47  1  0  0  0  0
 42 44  1  6  0  0  0
 42 45  1  0  0  0  0
 42 40  1  0  0  0  0
 43 39  1  0  0  0  0
 44 40  1  0  0  0  0
 45 46  1  0  0  0  0
 46 43  2  0  0  0  0
 47 46  1  0  0  0  0
 47 41  2  0  0  0  0
 48 50  1  0  0  0  0
 50 51  1  0  0  0  0
 50 49  2  0  0  0  0
 51 52  1  0  0  0  0
 54 53  1  0  0  0  0
 55 54  1  0  0  0  0
 56 58  1  0  0  0  0
 56 55  1  0  0  0  0
 57 58  1  0  0  0  0
M  END
>  <MODEL>
3

>  <REMARK>
 VINA RESULT:      -5.6      2.084      3.998
  Name = 
  17 active torsions:
  status: ('A' for Active; 'I' for Inactive)
    1  A    between atoms: P_1  and  O_20
    2  A    between atoms: C_8  and  C_28
    3  A    between atoms: O_10  and  C_11
    4  A    between atoms: O_10  and  C_55
    5  A    between atoms: C_15  and  C_50
    6  A    between atoms: C_16  and  C_43
    7  A    between atoms: C_19  and  C_40
    8  A    between atoms: O_20  and  C_49
    9  A    between atoms: C_21  and  C_39
   10  A    between atoms: C_28  and  C_36
   11  A    between atoms: O_29  and  C_38
   12  A    between atoms: O_29  and  C_50
   13  A    between atoms: N_30  and  C_39
   14  A    between atoms: N_30  and  N_41
   15  A    between atoms: C_36  and  C_55
   16  A    between atoms: C_37  and  C_40
   17  A    between atoms: C_39  and  C_49
                            x       y       z     vdW  Elec       q    Type
                         _______ _______ _______ _____ _____    ______ ____

>  <TORSDO>
F 17

$$$$
=
 OpenBabel11072409333D

 58 63  0  0  1  0  0  0  0  0999 V2000
  190.7460  178.0100  143.3050 C   0  0  0  0  0  2  0  0  0  0  0  0
  193.8390  174.5260  140.2840 C   0  0  1  0  0  3  0  0  0  0  0  0
  192.0190  177.5300  142.6870 C   0  0  0  0  0  3  0  0  0  0  0  0
  196.1140  175.4250  142.4020 C   0  0  2  0  0  0  0  0  0  0  0  0
  196.0010  175.2960  140.9860 O   0  0  0  0  0  0  0  0  0  0  0  0
  193.0900  173.3250  139.7650 C   0  0  0  0  0  0  0  0  0  0  0  0
  188.5550  173.4150  138.4380 C   0  0  0  0  0  2  0  0  0  0  0  0
  195.0560  172.7140  138.4950 C   0  0  1  0  0  3  0  0  0  0  0  0
  190.7210  174.0240  139.7370 C   0  0  2  0  0  3  0  0  0  0  0  0
  189.6770  176.9020  143.3260 C   0  0  2  0  0  3  0  0  0  0  0  0
  193.6960  172.4820  138.9930 N   0  0  0  0  0  0  0  0  0  0  0  0
  194.8600  175.3010  143.0610 O   0  0  0  0  0  0  0  0  0  0  0  0
  188.0880  172.2200  139.2830 C   0  0  0  0  0  2  0  0  0  0  0  0
  189.7240  174.2760  140.8920 C   0  0  1  0  0  3  0  0  0  0  0  0
  190.0850  173.5410  138.4160 C   0  0  0  0  0  2  0  0  0  0  0  0
  189.1460  172.9830  141.4500 C   0  0  0  0  0  2  0  0  0  0  0  0
  190.2890  175.0420  141.9150 O   0  0  0  0  0  0  0  0  0  0  0  0
  192.8920  176.6940  143.2680 C   0  0  0  0  0  0  0  0  0  0  0  0
  195.9930  173.3040  139.5660 C   0  0  2  0  0  3  0  0  0  0  0  0
  193.0950  175.0690  141.4950 C   0  0  0  0  0  2  0  0  0  0  0  0
  195.2740  174.1300  140.6670 C   0  0  2  0  0  3  0  0  0  0  0  0
  191.7500  173.1010  140.1100 O   0  0  0  0  0  0  0  0  0  0  0  0
  196.6340  176.6930  142.6930 O   0  0  0  0  0  1  0  0  0  0  0  0
  189.5020  176.1960  141.9720 C   0  0  0  0  0  2  0  0  0  0  0  0
  193.8880  176.0410  142.3520 C   0  0  2  0  0  3  0  0  0  0  0  0
  187.8570  172.6300  140.7250 C   0  0  0  0  0  2  0  0  0  0  0  0
  195.6180  171.4680  137.9510 C   0  0  0  0  0  0  0  0  0  0  0  0
  196.0820  170.4410  137.5120 C   0  0  0  0  0  3  0  0  0  0  0  0
  192.7220  176.2340  144.6920 C   0  0  0  0  0  2  0  0  0  0  0  0
  193.6730  176.9800  145.6190 C   0  0  0  0  0  2  0  0  0  0  0  0
  194.5080  175.9870  146.3940 C   0  0  0  0  0  1  0  0  0  0  0  0
  188.3490  177.4530  143.8560 C   0  0  1  0  0  3  0  0  0  0  0  0
  187.1400  177.0830  142.9920 C   0  0  0  0  0  2  0  0  0  0  0  0
  186.6050  178.2140  142.3640 O   0  0  0  0  0  0  0  0  0  0  0  0
  185.2210  178.6120  143.2570 P   0  0  0  0  0  0  0  0  0  0  0  0
  185.4070  180.1380  143.9690 O   0  0  0  0  0  1  0  0  0  0  0  0
  184.9710  177.4470  144.4580 O   0  0  0  0  0  1  0  0  0  0  0  0
  184.0220  178.6320  142.3380 O   0  0  0  0  0  0  0  0  0  0  0  0
  188.1390  177.0350  145.2360 N   0  0  0  0  0  2  0  0  0  0  0  0
  190.9900  175.1540  147.6390 N   0  0  0  0  0  0  0  0  0  0  0  0
  189.6210  174.6260  145.7910 O   0  0  0  0  0  0  0  0  0  0  0  0
  191.7160  176.2190  148.3520 C   0  0  2  0  0  3  0  0  0  0  0  0
  188.9290  177.5560  146.2710 N   0  0  0  0  0  0  0  0  0  0  0  0
  191.3010  175.1550  149.0960 C   0  0  0  0  0  2  0  0  0  0  0  0
  190.6700  177.3430  148.0650 C   0  0  0  0  0  2  0  0  0  0  0  0
  189.7310  176.8070  146.9570 C   0  0  0  0  0  0  0  0  0  0  0  0
  189.9800  175.3850  146.7320 C   0  0  0  0  0  0  0  0  0  0  0  0
  197.0820  174.0130  138.9500 O   0  0  0  0  0  0  0  0  0  0  0  0
  196.2030  175.5230  137.4070 O   0  0  0  0  0  0  0  0  0  0  0  0
  197.0120  174.5800  137.6620 C   0  0  0  0  0  0  0  0  0  0  0  0
  197.9410  174.0960  136.6010 C   0  0  0  0  0  2  0  0  0  0  0  0
  197.1380  173.7450  135.3590 C   0  0  0  0  0  1  0  0  0  0  0  0
  196.9870  174.4370  142.9200 O   0  0  0  0  0  0  0  0  0  0  0  0
  196.4140  173.8990  144.0900 C   0  0  0  0  0  2  0  0  0  0  0  0
  197.4010  173.9360  145.2360 C   0  0  0  0  0  2  0  0  0  0  0  0
  196.9960  172.8700  146.2280 C   0  0  0  0  0  2  0  0  0  0  0  0
  195.8720  170.7940  146.0510 O   0  0  0  0  0  1  0  0  0  0  0  0
  196.9770  171.5130  145.5770 C   0  0  0  0  0  2  0  0  0  0  0  0
  1 10  1  0  0  0  0
  2 21  1  0  0  0  0
  2 20  1  1  0  0  0
  3 18  2  0  0  0  0
  3  1  1  0  0  0  0
  4 23  1  1  0  0  0
  4 53  1  0  0  0  0
  4 12  1  0  0  0  0
  5  4  1  0  0  0  0
  6 22  1  0  0  0  0
  6  2  1  0  0  0  0
  7 13  1  0  0  0  0
  8 27  1  1  0  0  0
  8 11  1  0  0  0  0
  8 19  1  0  0  0  0
  9 15  1  6  0  0  0
  9 22  1  0  0  0  0
  9 14  1  0  0  0  0
 10 32  1  6  0  0  0
 11  6  2  0  0  0  0
 13 26  1  0  0  0  0
 14 16  1  1  0  0  0
 14 17  1  0  0  0  0
 15  7  1  0  0  0  0
 17 24  1  0  0  0  0
 18 29  1  0  0  0  0
 19 48  1  6  0  0  0
 19 21  1  0  0  0  0
 21  5  1  6  0  0  0
 24 10  1  0  0  0  0
 25 20  1  6  0  0  0
 25 12  1  0  0  0  0
 25 18  1  0  0  0  0
 26 16  1  0  0  0  0
 28 27  3  0  0  0  0
 29 30  1  0  0  0  0
 30 31  1  0  0  0  0
 32 33  1  6  0  0  0
 32 39  1  0  0  0  0
 34 33  1  0  0  0  0
 34 35  1  0  0  0  0
 35 36  1  0  0  0  0
 35 37  1  0  0  0  0
 38 35  2  0  0  0  0
 39 43  1  0  0  0  0
 40 42  1  0  0  0  0
 40 44  1  0  0  0  0
 41 47  2  0  0  0  0
 42 45  1  1  0  0  0
 42 44  1  0  0  0  0
 43 46  2  0  0  0  0
 46 45  1  0  0  0  0
 47 46  1  0  0  0  0
 47 40  1  0  0  0  0
 49 50  2  0  0  0  0
 50 48  1  0  0  0  0
 51 50  1  0  0  0  0
 52 51  1  0  0  0  0
 53 54  1  0  0  0  0
 54 55  1  0  0  0  0
 55 56  1  0  0  0  0
 58 57  1  0  0  0  0
 58 56  1  0  0  0  0
M  END
>  <MODEL>
4

>  <REMARK>
 VINA RESULT:      -5.5      3.507      8.851
  Name = 
  17 active torsions:
  status: ('A' for Active; 'I' for Inactive)
    1  A    between atoms: P_1  and  O_20
    2  A    between atoms: C_8  and  C_28
    3  A    between atoms: O_10  and  C_11
    4  A    between atoms: O_10  and  C_55
    5  A    between atoms: C_15  and  C_50
    6  A    between atoms: C_16  and  C_43
    7  A    between atoms: C_19  and  C_40
    8  A    between atoms: O_20  and  C_49
    9  A    between atoms: C_21  and  C_39
   10  A    between atoms: C_28  and  C_36
   11  A    between atoms: O_29  and  C_38
   12  A    between atoms: O_29  and  C_50
   13  A    between atoms: N_30  and  C_39
   14  A    between atoms: N_30  and  N_41
   15  A    between atoms: C_36  and  C_55
   16  A    between atoms: C_37  and  C_40
   17  A    between atoms: C_39  and  C_49
                            x       y       z     vdW  Elec       q    Type
                         _______ _______ _______ _____ _____    ______ ____

>  <TORSDO>
F 17

$$$$
=
 OpenBabel11072409333D

 58 63  0  0  1  0  0  0  0  0999 V2000
  189.6690  172.0430  144.2200 C   0  0  0  0  0  2  0  0  0  0  0  0
  193.3100  171.6130  140.0500 C   0  0  1  0  0  3  0  0  0  0  0  0
  190.2300  171.4240  142.9810 C   0  0  0  0  0  3  0  0  0  0  0  0
  190.7020  170.5110  138.4840 C   0  0  2  0  0  0  0  0  0  0  0  0
  192.0590  170.1080  138.6610 O   0  0  0  0  0  0  0  0  0  0  0  0
  194.3530  172.7010  140.0250 C   0  0  0  0  0  0  0  0  0  0  0  0
  196.1900  174.6830  143.9020 C   0  0  0  0  0  2  0  0  0  0  0  0
  195.4590  171.5260  138.2230 C   0  0  1  0  0  3  0  0  0  0  0  0
  194.4560  173.5280  142.3500 C   0  0  2  0  0  3  0  0  0  0  0  0
  190.2310  173.4580  144.4470 C   0  0  2  0  0  3  0  0  0  0  0  0
  195.2930  172.6620  139.1370 N   0  0  0  0  0  0  0  0  0  0  0  0
  190.3310  171.5710  139.3550 O   0  0  0  0  0  0  0  0  0  0  0  0
  195.9470  176.1460  143.4990 C   0  0  0  0  0  2  0  0  0  0  0  0
  193.4510  174.3680  143.1740 C   0  0  1  0  0  3  0  0  0  0  0  0
  195.9380  173.7160  142.7370 C   0  0  0  0  0  2  0  0  0  0  0  0
  193.5240  175.8510  142.8360 C   0  0  0  0  0  2  0  0  0  0  0  0
  192.1420  173.8980  143.0410 O   0  0  0  0  0  0  0  0  0  0  0  0
  189.8950  171.7630  141.7280 C   0  0  0  0  0  0  0  0  0  0  0  0
  194.1200  170.9910  137.6820 C   0  0  2  0  0  3  0  0  0  0  0  0
  192.1050  172.1220  140.8290 C   0  0  0  0  0  2  0  0  0  0  0  0
  192.9040  171.2370  138.6160 C   0  0  2  0  0  3  0  0  0  0  0  0
  194.3200  173.7590  140.9440 O   0  0  0  0  0  0  0  0  0  0  0  0
  189.8730  169.4140  138.7590 O   0  0  0  0  0  1  0  0  0  0  0  0
  191.7610  173.5330  144.3360 C   0  0  0  0  0  2  0  0  0  0  0  0
  190.8350  171.3070  140.6490 C   0  0  2  0  0  3  0  0  0  0  0  0
  194.5080  176.5500  143.7600 C   0  0  0  0  0  2  0  0  0  0  0  0
  196.3520  171.8920  137.1130 C   0  0  0  0  0  0  0  0  0  0  0  0
  197.0790  172.1900  136.1930 C   0  0  0  0  0  3  0  0  0  0  0  0
  188.7980  172.7540  141.4420 C   0  0  0  0  0  2  0  0  0  0  0  0
  189.3770  174.0840  140.9770 C   0  0  0  0  0  2  0  0  0  0  0  0
  188.4360  174.7280  139.9860 C   0  0  0  0  0  1  0  0  0  0  0  0
  189.7290  174.0230  145.7810 C   0  0  1  0  0  3  0  0  0  0  0  0
  190.8490  174.5350  146.6920 C   0  0  0  0  0  2  0  0  0  0  0  0
  190.3300  175.2890  147.7510 O   0  0  0  0  0  0  0  0  0  0  0  0
  190.9630  176.8480  147.5450 P   0  0  0  0  0  0  0  0  0  0  0  0
  192.2050  176.8230  146.3930 O   0  0  0  0  0  0  0  0  0  0  0  0
  191.5640  177.4120  149.0220 O   0  0  0  0  0  1  0  0  0  0  0  0
  189.8650  177.7750  147.0770 O   0  0  0  0  0  1  0  0  0  0  0  0
  188.7380  175.0660  145.5520 N   0  0  0  0  0  2  0  0  0  0  0  0
  185.8950  177.7630  144.1070 N   0  0  0  0  0  0  0  0  0  0  0  0
  186.3480  176.5820  146.0990 O   0  0  0  0  0  0  0  0  0  0  0  0
  186.4710  178.3830  142.9020 C   0  0  2  0  0  3  0  0  0  0  0  0
  188.6810  175.7430  144.3250 N   0  0  0  0  0  0  0  0  0  0  0  0
  185.1840  177.9450  142.8100 C   0  0  0  0  0  2  0  0  0  0  0  0
  187.6030  177.3270  142.7050 C   0  0  0  0  0  2  0  0  0  0  0  0
  187.6840  176.5090  144.0160 C   0  0  0  0  0  0  0  0  0  0  0  0
  186.5490  176.8290  144.8790 C   0  0  0  0  0  0  0  0  0  0  0  0
  194.2500  169.6180  137.2760 O   0  0  0  0  0  0  0  0  0  0  0  0
  193.0340  169.5840  135.2870 O   0  0  0  0  0  0  0  0  0  0  0  0
  194.0290  169.1720  135.9580 C   0  0  0  0  0  0  0  0  0  0  0  0
  195.0110  168.2420  135.3290 C   0  0  0  0  0  2  0  0  0  0  0  0
  196.3190  168.3040  136.1010 C   0  0  0  0  0  1  0  0  0  0  0  0
  190.4810  170.9340  137.1510 O   0  0  0  0  0  0  0  0  0  0  0  0
  189.5570  171.9980  137.1630 C   0  0  0  0  0  2  0  0  0  0  0  0
  190.0210  173.1220  136.2640 C   0  0  0  0  0  2  0  0  0  0  0  0
  190.7830  174.1110  137.1160 C   0  0  0  0  0  2  0  0  0  0  0  0
  192.9680  174.8690  137.6230 O   0  0  0  0  0  1  0  0  0  0  0  0
  192.1950  174.2670  136.6210 C   0  0  0  0  0  2  0  0  0  0  0  0
  1 10  1  0  0  0  0
  2 20  1  1  0  0  0
  3  1  1  0  0  0  0
  4  5  1  0  0  0  0
  4 23  1  1  0  0  0
  4 12  1  0  0  0  0
  6  2  1  0  0  0  0
  6 22  1  0  0  0  0
  8 27  1  6  0  0  0
  8 11  1  0  0  0  0
  9 15  1  1  0  0  0
  9 14  1  0  0  0  0
 10 32  1  1  0  0  0
 11  6  2  0  0  0  0
 12 25  1  0  0  0  0
 13 26  1  0  0  0  0
 13  7  1  0  0  0  0
 14 16  1  6  0  0  0
 15  7  1  0  0  0  0
 16 26  1  0  0  0  0
 17 14  1  0  0  0  0
 17 24  1  0  0  0  0
 18  3  2  0  0  0  0
 19 48  1  1  0  0  0
 19  8  1  0  0  0  0
 19 21  1  0  0  0  0
 21  5  1  1  0  0  0
 21  2  1  0  0  0  0
 22  9  1  0  0  0  0
 24 10  1  0  0  0  0
 25 20  1  1  0  0  0
 25 18  1  0  0  0  0
 28 27  3  0  0  0  0
 29 18  1  0  0  0  0
 30 29  1  0  0  0  0
 31 30  1  0  0  0  0
 32 33  1  6  0  0  0
 33 34  1  0  0  0  0
 35 34  1  0  0  0  0
 35 37  1  0  0  0  0
 36 35  2  0  0  0  0
 38 35  1  0  0  0  0
 39 32  1  0  0  0  0
 40 47  1  0  0  0  0
 42 45  1  6  0  0  0
 42 40  1  0  0  0  0
 43 39  1  0  0  0  0
 44 42  1  0  0  0  0
 44 40  1  0  0  0  0
 45 46  1  0  0  0  0
 46 43  2  0  0  0  0
 46 47  1  0  0  0  0
 47 41  2  0  0  0  0
 49 50  2  0  0  0  0
 50 48  1  0  0  0  0
 51 50  1  0  0  0  0
 51 52  1  0  0  0  0
 53 54  1  0  0  0  0
 53  4  1  0  0  0  0
 55 56  1  0  0  0  0
 55 54  1  0  0  0  0
 58 56  1  0  0  0  0
 58 57  1  0  0  0  0
M  END
>  <MODEL>
5

>  <REMARK>
 VINA RESULT:      -5.4      3.001      9.749
  Name = 
  17 active torsions:
  status: ('A' for Active; 'I' for Inactive)
    1  A    between atoms: P_1  and  O_20
    2  A    between atoms: C_8  and  C_28
    3  A    between atoms: O_10  and  C_11
    4  A    between atoms: O_10  and  C_55
    5  A    between atoms: C_15  and  C_50
    6  A    between atoms: C_16  and  C_43
    7  A    between atoms: C_19  and  C_40
    8  A    between atoms: O_20  and  C_49
    9  A    between atoms: C_21  and  C_39
   10  A    between atoms: C_28  and  C_36
   11  A    between atoms: O_29  and  C_38
   12  A    between atoms: O_29  and  C_50
   13  A    between atoms: N_30  and  C_39
   14  A    between atoms: N_30  and  N_41
   15  A    between atoms: C_36  and  C_55
   16  A    between atoms: C_37  and  C_40
   17  A    between atoms: C_39  and  C_49
                            x       y       z     vdW  Elec       q    Type
                         _______ _______ _______ _____ _____    ______ ____

>  <TORSDO>
F 17

$$$$
=
 OpenBabel11072409333D

 58 63  0  0  1  0  0  0  0  0999 V2000
  187.5380  173.9300  142.2370 C   0  0  0  0  0  2  0  0  0  0  0  0
  192.6390  171.8410  141.5640 C   0  0  1  0  0  3  0  0  0  0  0  0
  188.5380  172.9770  141.6680 C   0  0  0  0  0  3  0  0  0  0  0  0
  191.4930  171.1910  138.6090 C   0  0  2  0  0  0  0  0  0  0  0  0
  192.1990  170.4890  139.6300 O   0  0  0  0  0  0  0  0  0  0  0  0
  193.7190  172.6000  142.2920 C   0  0  0  0  0  0  0  0  0  0  0  0
  193.1040  174.6950  146.4830 C   0  0  0  0  0  2  0  0  0  0  0  0
  195.2900  170.8790  141.6450 C   0  0  1  0  0  3  0  0  0  0  0  0
  192.5430  173.7710  144.1210 C   0  0  2  0  0  3  0  0  0  0  0  0
  188.2210  175.1690  142.8440 C   0  0  2  0  0  3  0  0  0  0  0  0
  194.9350  172.1620  142.2610 N   0  0  0  0  0  0  0  0  0  0  0  0
  191.0000  172.4480  139.0530 O   0  0  0  0  0  0  0  0  0  0  0  0
  193.6490  176.0750  146.0860 C   0  0  0  0  0  2  0  0  0  0  0  0
  191.5700  174.9740  144.0960 C   0  0  1  0  0  3  0  0  0  0  0  0
  193.3830  173.6350  145.4080 C   0  0  0  0  0  2  0  0  0  0  0  0
  192.3000  176.3040  143.9590 C   0  0  0  0  0  2  0  0  0  0  0  0
  190.5990  174.8420  143.1000 O   0  0  0  0  0  0  0  0  0  0  0  0
  189.2210  173.1630  140.5280 C   0  0  0  0  0  0  0  0  0  0  0  0
  194.5420  170.6210  140.3230 C   0  0  2  0  0  3  0  0  0  0  0  0
  191.4530  172.7730  141.3580 C   0  0  0  0  0  2  0  0  0  0  0  0
  193.1660  171.3350  140.2130 C   0  0  2  0  0  3  0  0  0  0  0  0
  193.4290  173.7760  142.9980 O   0  0  0  0  0  0  0  0  0  0  0  0
  190.3980  170.4120  138.2100 O   0  0  0  0  0  1  0  0  0  0  0  0
  189.3820  174.8240  143.7890 C   0  0  0  0  0  2  0  0  0  0  0  0
  190.4330  172.2970  140.3380 C   0  0  2  0  0  3  0  0  0  0  0  0
  192.6040  176.8770  145.3340 C   0  0  0  0  0  2  0  0  0  0  0  0
  196.7440  170.7990  141.4350 C   0  0  0  0  0  0  0  0  0  0  0  0
  197.9380  170.7320  141.2530 C   0  0  0  0  0  3  0  0  0  0  0  0
  188.9500  174.3370  139.6250 C   0  0  0  0  0  2  0  0  0  0  0  0
  188.1050  173.9170  138.4290 C   0  0  0  0  0  2  0  0  0  0  0  0
  188.7710  174.3740  137.1520 C   0  0  0  0  0  1  0  0  0  0  0  0
  187.1840  176.0710  143.5220 C   0  0  1  0  0  3  0  0  0  0  0  0
  187.4360  176.2820  145.0180 C   0  0  0  0  0  2  0  0  0  0  0  0
  186.2320  176.4440  145.7130 O   0  0  0  0  0  0  0  0  0  0  0  0
  186.5810  177.5280  146.9680 P   0  0  0  0  0  0  0  0  0  0  0  0
  185.9430  179.0560  146.6120 O   0  0  0  0  0  0  0  0  0  0  0  0
  188.2570  177.6390  147.1680 O   0  0  0  0  0  1  0  0  0  0  0  0
  185.9690  177.0180  148.2530 O   0  0  0  0  0  1  0  0  0  0  0  0
  187.0950  177.3520  142.8320 N   0  0  0  0  0  2  0  0  0  0  0  0
  183.1630  178.4480  141.9530 N   0  0  0  0  0  0  0  0  0  0  0  0
  184.5680  178.3000  143.8430 O   0  0  0  0  0  0  0  0  0  0  0  0
  183.0970  178.6690  140.4980 C   0  0  2  0  0  3  0  0  0  0  0  0
  186.4450  177.4540  141.5940 N   0  0  0  0  0  0  0  0  0  0  0  0
  182.1020  177.9190  141.0490 C   0  0  0  0  0  2  0  0  0  0  0  0
  184.4400  177.9450  140.1670 C   0  0  0  0  0  2  0  0  0  0  0  0
  185.1890  177.7570  141.5080 C   0  0  0  0  0  0  0  0  0  0  0  0
  184.3090  178.0910  142.6270 C   0  0  0  0  0  0  0  0  0  0  0  0
  194.4690  169.2120  140.0490 O   0  0  0  0  0  0  0  0  0  0  0  0
  196.4380  168.2560  139.2480 O   0  0  0  0  0  0  0  0  0  0  0  0
  195.2270  168.5730  139.0470 C   0  0  0  0  0  0  0  0  0  0  0  0
  194.5750  168.2210  137.7530 C   0  0  0  0  0  2  0  0  0  0  0  0
  194.9000  169.2930  136.7250 C   0  0  0  0  0  1  0  0  0  0  0  0
  192.3340  171.4140  137.4910 O   0  0  0  0  0  0  0  0  0  0  0  0
  191.6950  172.3180  136.6200 C   0  0  0  0  0  2  0  0  0  0  0  0
  192.6680  173.3640  136.1230 C   0  0  0  0  0  2  0  0  0  0  0  0
  192.3570  174.6590  136.8370 C   0  0  0  0  0  2  0  0  0  0  0  0
  194.5010  175.6070  136.5060 O   0  0  0  0  0  1  0  0  0  0  0  0
  193.1380  175.7990  136.2420 C   0  0  0  0  0  2  0  0  0  0  0  0
  1 10  1  0  0  0  0
  2 20  1  6  0  0  0
  2  6  1  0  0  0  0
  3  1  1  0  0  0  0
  4 23  1  6  0  0  0
  4 12  1  0  0  0  0
  4  5  1  0  0  0  0
  6 22  1  0  0  0  0
  8 27  1  6  0  0  0
  8 11  1  0  0  0  0
  9 15  1  1  0  0  0
 10 32  1  1  0  0  0
 10 24  1  0  0  0  0
 11  6  2  0  0  0  0
 12 25  1  0  0  0  0
 13  7  1  0  0  0  0
 14 16  1  6  0  0  0
 14  9  1  0  0  0  0
 15  7  1  0  0  0  0
 16 26  1  0  0  0  0
 17 24  1  0  0  0  0
 17 14  1  0  0  0  0
 18  3  2  0  0  0  0
 19 48  1  1  0  0  0
 19  8  1  0  0  0  0
 21  5  1  1  0  0  0
 21 19  1  0  0  0  0
 21  2  1  0  0  0  0
 22  9  1  0  0  0  0
 25 18  1  0  0  0  0
 25 20  1  1  0  0  0
 26 13  1  0  0  0  0
 28 27  3  0  0  0  0
 29 18  1  0  0  0  0
 30 29  1  0  0  0  0
 31 30  1  0  0  0  0
 32 33  1  1  0  0  0
 33 34  1  0  0  0  0
 34 35  1  0  0  0  0
 35 37  1  0  0  0  0
 35 38  1  0  0  0  0
 36 35  2  0  0  0  0
 39 32  1  0  0  0  0
 40 47  1  0  0  0  0
 42 45  1  6  0  0  0
 42 44  1  0  0  0  0
 42 40  1  0  0  0  0
 43 39  1  0  0  0  0
 44 40  1  0  0  0  0
 45 46  1  0  0  0  0
 46 43  2  0  0  0  0
 46 47  1  0  0  0  0
 47 41  2  0  0  0  0
 50 49  2  0  0  0  0
 50 48  1  0  0  0  0
 51 50  1  0  0  0  0
 52 51  1  0  0  0  0
 53  4  1  0  0  0  0
 54 53  1  0  0  0  0
 55 54  1  0  0  0  0
 55 56  1  0  0  0  0
 58 57  1  0  0  0  0
 58 56  1  0  0  0  0
M  END
>  <MODEL>
6

>  <REMARK>
 VINA RESULT:      -5.2      2.819     10.588
  Name = 
  17 active torsions:
  status: ('A' for Active; 'I' for Inactive)
    1  A    between atoms: P_1  and  O_20
    2  A    between atoms: C_8  and  C_28
    3  A    between atoms: O_10  and  C_11
    4  A    between atoms: O_10  and  C_55
    5  A    between atoms: C_15  and  C_50
    6  A    between atoms: C_16  and  C_43
    7  A    between atoms: C_19  and  C_40
    8  A    between atoms: O_20  and  C_49
    9  A    between atoms: C_21  and  C_39
   10  A    between atoms: C_28  and  C_36
   11  A    between atoms: O_29  and  C_38
   12  A    between atoms: O_29  and  C_50
   13  A    between atoms: N_30  and  C_39
   14  A    between atoms: N_30  and  N_41
   15  A    between atoms: C_36  and  C_55
   16  A    between atoms: C_37  and  C_40
   17  A    between atoms: C_39  and  C_49
                            x       y       z     vdW  Elec       q    Type
                         _______ _______ _______ _____ _____    ______ ____

>  <TORSDO>
F 17

$$$$
=
 OpenBabel11072409333D

 58 63  0  0  1  0  0  0  0  0999 V2000
  189.7500  173.5680  144.6480 C   0  0  0  0  0  2  0  0  0  0  0  0
  192.6420  170.5740  140.9730 C   0  0  1  0  0  3  0  0  0  0  0  0
  189.9070  172.7220  143.4260 C   0  0  0  0  0  3  0  0  0  0  0  0
  190.3820  171.7060  138.9520 C   0  0  2  0  0  0  0  0  0  0  0  0
  190.9720  170.4430  139.2530 O   0  0  0  0  0  0  0  0  0  0  0  0
  194.1280  170.5570  141.2220 C   0  0  0  0  0  0  0  0  0  0  0  0
  196.0830  170.6140  145.5240 C   0  0  0  0  0  2  0  0  0  0  0  0
  194.3530  168.9280  139.4480 C   0  0  1  0  0  3  0  0  0  0  0  0
  194.3700  171.0720  143.6250 C   0  0  2  0  0  3  0  0  0  0  0  0
  191.1030  174.1280  145.1230 C   0  0  2  0  0  3  0  0  0  0  0  0
  194.8920  169.8360  140.4670 N   0  0  0  0  0  0  0  0  0  0  0  0
  190.7370  172.7110  139.8920 O   0  0  0  0  0  0  0  0  0  0  0  0
  197.0440  171.7870  145.2790 C   0  0  0  0  0  2  0  0  0  0  0  0
  194.1500  172.3880  144.4080 C   0  0  1  0  0  3  0  0  0  0  0  0
  195.4300  170.1230  144.2240 C   0  0  0  0  0  2  0  0  0  0  0  0
  195.3250  173.3460  144.2720 C   0  0  0  0  0  2  0  0  0  0  0  0
  192.9570  173.0200  144.0460 O   0  0  0  0  0  0  0  0  0  0  0  0
  190.1520  173.1850  142.1920 C   0  0  0  0  0  0  0  0  0  0  0  0
  193.1670  169.5330  138.6730 C   0  0  2  0  0  3  0  0  0  0  0  0
  192.0570  171.8090  141.6440 C   0  0  0  0  0  2  0  0  0  0  0  0
  192.3580  170.5980  139.4630 C   0  0  2  0  0  3  0  0  0  0  0  0
  194.7000  171.3140  142.2540 O   0  0  0  0  0  0  0  0  0  0  0  0
  188.9880  171.5630  138.9760 O   0  0  0  0  0  1  0  0  0  0  0  0
  192.2040  173.0620  145.2240 C   0  0  0  0  0  2  0  0  0  0  0  0
  190.6520  172.1760  141.1980 C   0  0  2  0  0  3  0  0  0  0  0  0
  196.3210  173.1160  145.3970 C   0  0  0  0  0  2  0  0  0  0  0  0
  195.4170  168.5160  138.5190 C   0  0  0  0  0  0  0  0  0  0  0  0
  196.2900  168.1670  137.7580 C   0  0  0  0  0  3  0  0  0  0  0  0
  190.1800  174.6600  141.8900 C   0  0  0  0  0  2  0  0  0  0  0  0
  188.9460  175.0740  141.0990 C   0  0  0  0  0  2  0  0  0  0  0  0
  187.7680  175.2200  142.0350 C   0  0  0  0  0  1  0  0  0  0  0  0
  190.9300  174.8940  146.4390 C   0  0  1  0  0  3  0  0  0  0  0  0
  192.2510  175.3670  147.0540 C   0  0  0  0  0  2  0  0  0  0  0  0
  192.4970  176.7100  146.7460 O   0  0  0  0  0  0  0  0  0  0  0  0
  193.9730  176.7160  145.9130 P   0  0  0  0  0  0  0  0  0  0  0  0
  195.0340  175.5890  146.6010 O   0  0  0  0  0  1  0  0  0  0  0  0
  194.6550  178.2630  145.9850 O   0  0  0  0  0  1  0  0  0  0  0  0
  193.7320  176.3560  144.4650 O   0  0  0  0  0  0  0  0  0  0  0  0
  190.0180  176.0160  146.2600 N   0  0  0  0  0  2  0  0  0  0  0  0
  186.6290  178.0800  144.9570 N   0  0  0  0  0  0  0  0  0  0  0  0
  188.9050  177.8820  144.3650 O   0  0  0  0  0  0  0  0  0  0  0  0
  185.4640  177.4080  145.5580 C   0  0  2  0  0  3  0  0  0  0  0  0
  188.6900  175.9380  146.7040 N   0  0  0  0  0  0  0  0  0  0  0  0
  185.4940  178.7690  145.6330 C   0  0  0  0  0  2  0  0  0  0  0  0
  186.2750  176.6130  146.6290 C   0  0  0  0  0  2  0  0  0  0  0  0
  187.7650  176.7030  146.2200 C   0  0  0  0  0  0  0  0  0  0  0  0
  187.9320  177.6720  145.1390 C   0  0  0  0  0  0  0  0  0  0  0  0
  192.3420  168.4950  138.1190 O   0  0  0  0  0  0  0  0  0  0  0  0
  190.7380  168.7170  136.4420 O   0  0  0  0  0  0  0  0  0  0  0  0
  191.9360  168.4600  136.7700 C   0  0  0  0  0  0  0  0  0  0  0  0
  192.9450  168.1660  135.7120 C   0  0  0  0  0  2  0  0  0  0  0  0
  192.8720  169.2420  134.6420 C   0  0  0  0  0  1  0  0  0  0  0  0
  190.7810  172.1430  137.6650 O   0  0  0  0  0  0  0  0  0  0  0  0
  190.4740  173.5120  137.5390 C   0  0  0  0  0  2  0  0  0  0  0  0
  191.1030  174.0910  136.2910 C   0  0  0  0  0  2  0  0  0  0  0  0
  192.6000  174.1260  136.5030 C   0  0  0  0  0  2  0  0  0  0  0  0
  194.4320  175.6230  136.4070 O   0  0  0  0  0  1  0  0  0  0  0  0
  193.0730  175.5350  136.7390 C   0  0  0  0  0  2  0  0  0  0  0  0
  1 10  1  0  0  0  0
  2  6  1  0  0  0  0
  2 20  1  1  0  0  0
  3  1  1  0  0  0  0
  4 23  1  1  0  0  0
  4  5  1  0  0  0  0
  4 12  1  0  0  0  0
  6 22  1  0  0  0  0
  8 27  1  6  0  0  0
  8 11  1  0  0  0  0
  9 15  1  1  0  0  0
  9 14  1  0  0  0  0
 10 24  1  0  0  0  0
 10 32  1  1  0  0  0
 11  6  2  0  0  0  0
 12 25  1  0  0  0  0
 13 26  1  0  0  0  0
 13  7  1  0  0  0  0
 14 16  1  6  0  0  0
 15  7  1  0  0  0  0
 16 26  1  0  0  0  0
 17 14  1  0  0  0  0
 17 24  1  0  0  0  0
 18  3  2  0  0  0  0
 19 48  1  1  0  0  0
 19  8  1  0  0  0  0
 19 21  1  0  0  0  0
 21  5  1  1  0  0  0
 21  2  1  0  0  0  0
 22  9  1  0  0  0  0
 25 20  1  1  0  0  0
 25 18  1  0  0  0  0
 28 27  3  0  0  0  0
 29 18  1  0  0  0  0
 30 29  1  0  0  0  0
 30 31  1  0  0  0  0
 32 33  1  6  0  0  0
 34 33  1  0  0  0  0
 35 37  1  0  0  0  0
 35 36  1  0  0  0  0
 35 34  1  0  0  0  0
 38 35  2  0  0  0  0
 39 32  1  0  0  0  0
 39 43  1  0  0  0  0
 40 47  1  0  0  0  0
 40 42  1  0  0  0  0
 40 44  1  0  0  0  0
 41 47  2  0  0  0  0
 42 44  1  1  0  0  0
 42 45  1  0  0  0  0
 46 45  1  0  0  0  0
 46 43  2  0  0  0  0
 47 46  1  0  0  0  0
 49 50  2  0  0  0  0
 50 48  1  0  0  0  0
 51 50  1  0  0  0  0
 52 51  1  0  0  0  0
 53  4  1  0  0  0  0
 54 53  1  0  0  0  0
 55 56  1  0  0  0  0
 55 54  1  0  0  0  0
 56 58  1  0  0  0  0
 57 58  1  0  0  0  0
M  END
>  <MODEL>
7

>  <REMARK>
 VINA RESULT:      -5.1      2.919      9.484
  Name = 
  17 active torsions:
  status: ('A' for Active; 'I' for Inactive)
    1  A    between atoms: P_1  and  O_20
    2  A    between atoms: C_8  and  C_28
    3  A    between atoms: O_10  and  C_11
    4  A    between atoms: O_10  and  C_55
    5  A    between atoms: C_15  and  C_50
    6  A    between atoms: C_16  and  C_43
    7  A    between atoms: C_19  and  C_40
    8  A    between atoms: O_20  and  C_49
    9  A    between atoms: C_21  and  C_39
   10  A    between atoms: C_28  and  C_36
   11  A    between atoms: O_29  and  C_38
   12  A    between atoms: O_29  and  C_50
   13  A    between atoms: N_30  and  C_39
   14  A    between atoms: N_30  and  N_41
   15  A    between atoms: C_36  and  C_55
   16  A    between atoms: C_37  and  C_40
   17  A    between atoms: C_39  and  C_49
                            x       y       z     vdW  Elec       q    Type
                         _______ _______ _______ _____ _____    ______ ____

>  <TORSDO>
F 17

$$$$
=
 OpenBabel11072409333D

 58 63  0  0  1  0  0  0  0  0999 V2000
  193.0240  170.8850  144.3380 C   0  0  0  0  0  2  0  0  0  0  0  0
  189.0350  174.5120  143.0070 C   0  0  1  0  0  3  0  0  0  0  0  0
  191.9010  171.8230  144.6410 C   0  0  0  0  0  3  0  0  0  0  0  0
  189.8120  175.7390  145.8990 C   0  0  2  0  0  0  0  0  0  0  0  0
  188.6180  175.3790  145.2060 O   0  0  0  0  0  0  0  0  0  0  0  0
  188.9710  174.8490  141.5390 C   0  0  0  0  0  0  0  0  0  0  0  0
  189.9140  171.7690  138.0810 C   0  0  0  0  0  2  0  0  0  0  0  0
  186.9520  176.1100  141.9720 C   0  0  1  0  0  3  0  0  0  0  0  0
  190.0270  172.9270  140.4040 C   0  0  2  0  0  3  0  0  0  0  0  0
  193.5820  171.1140  142.9210 C   0  0  2  0  0  3  0  0  0  0  0  0
  188.0360  175.6320  141.1070 N   0  0  0  0  0  0  0  0  0  0  0  0
  190.9840  175.2850  145.2350 O   0  0  0  0  0  0  0  0  0  0  0  0
  190.9220  172.6440  137.3200 C   0  0  0  0  0  2  0  0  0  0  0  0
  191.5040  172.4730  140.3400 C   0  0  1  0  0  3  0  0  0  0  0  0
  189.1750  172.5590  139.1710 C   0  0  0  0  0  2  0  0  0  0  0  0
  192.3140  173.2780  139.3330 C   0  0  0  0  0  2  0  0  0  0  0  0
  192.1160  172.5010  141.5960 O   0  0  0  0  0  0  0  0  0  0  0  0
  192.0360  173.1320  144.9020 C   0  0  0  0  0  0  0  0  0  0  0  0
  187.4390  176.5030  143.3800 C   0  0  2  0  0  3  0  0  0  0  0  0
  190.4340  174.0000  143.3200 C   0  0  0  0  0  2  0  0  0  0  0  0
  188.7180  175.7570  143.8500 C   0  0  2  0  0  3  0  0  0  0  0  0
  189.9090  174.3340  140.6340 O   0  0  0  0  0  0  0  0  0  0  0  0
  189.7800  175.1540  147.1720 O   0  0  0  0  0  1  0  0  0  0  0  0
  192.4930  171.1760  141.8390 C   0  0  0  0  0  2  0  0  0  0  0  0
  190.7850  173.9560  144.7970 C   0  0  2  0  0  3  0  0  0  0  0  0
  192.2890  172.5950  137.9750 C   0  0  0  0  0  2  0  0  0  0  0  0
  186.2540  177.2390  141.3370 C   0  0  0  0  0  0  0  0  0  0  0  0
  185.6710  178.1640  140.8200 C   0  0  0  0  0  3  0  0  0  0  0  0
  193.3900  173.7780  145.0310 C   0  0  0  0  0  2  0  0  0  0  0  0
  193.7430  174.5520  143.7680 C   0  0  0  0  0  2  0  0  0  0  0  0
  195.0740  175.2430  143.9530 C   0  0  0  0  0  1  0  0  0  0  0  0
  194.6510  170.0660  142.5940 C   0  0  1  0  0  3  0  0  0  0  0  0
  194.9310  169.0930  143.7420 C   0  0  0  0  0  2  0  0  0  0  0  0
  196.3060  168.8880  143.9040 O   0  0  0  0  0  0  0  0  0  0  0  0
  196.6680  169.4690  145.4540 P   0  0  0  0  0  0  0  0  0  0  0  0
  195.3740  169.1670  146.5050 O   0  0  0  0  0  1  0  0  0  0  0  0
  196.9670  171.1320  145.3780 O   0  0  0  0  0  0  0  0  0  0  0  0
  197.9060  168.7740  145.9730 O   0  0  0  0  0  1  0  0  0  0  0  0
  194.2970  169.3390  141.3810 N   0  0  0  0  0  2  0  0  0  0  0  0
  193.2110  169.1160  137.3550 N   0  0  0  0  0  0  0  0  0  0  0  0
  192.1540  169.1160  139.4650 O   0  0  0  0  0  0  0  0  0  0  0  0
  194.3720  169.5750  136.5740 C   0  0  2  0  0  3  0  0  0  0  0  0
  195.0890  169.4400  140.2290 N   0  0  0  0  0  0  0  0  0  0  0  0
  193.7650  168.4290  136.1540 C   0  0  0  0  0  2  0  0  0  0  0  0
  195.4050  169.4520  137.7390 C   0  0  0  0  0  2  0  0  0  0  0  0
  194.5890  169.2880  139.0440 C   0  0  0  0  0  0  0  0  0  0  0  0
  193.1780  169.0660  138.7310 C   0  0  0  0  0  0  0  0  0  0  0  0
  186.3610  176.4250  144.3280 O   0  0  0  0  0  0  0  0  0  0  0  0
  184.6340  177.4130  145.5440 O   0  0  0  0  0  0  0  0  0  0  0  0
  185.6270  177.5460  144.7660 C   0  0  0  0  0  0  0  0  0  0  0  0
  186.0620  178.9100  144.3480 C   0  0  0  0  0  2  0  0  0  0  0  0
  184.8440  179.8170  144.2710 C   0  0  0  0  0  1  0  0  0  0  0  0
  189.8970  177.1460  146.0380 O   0  0  0  0  0  0  0  0  0  0  0  0
  190.1370  177.4500  147.3930 C   0  0  0  0  0  2  0  0  0  0  0  0
  189.1820  178.5180  147.8800 C   0  0  0  0  0  2  0  0  0  0  0  0
  187.8390  178.2650  147.2350 C   0  0  0  0  0  2  0  0  0  0  0  0
  185.8980  177.5600  148.3930 O   0  0  0  0  0  1  0  0  0  0  0  0
  186.7190  178.6700  148.1560 C   0  0  0  0  0  2  0  0  0  0  0  0
  1  3  1  0  0  0  0
  2 20  1  1  0  0  0
  2 21  1  0  0  0  0
  3 18  2  0  0  0  0
  4 53  1  0  0  0  0
  4 23  1  1  0  0  0
  5  4  1  0  0  0  0
  6  2  1  0  0  0  0
  7 15  1  0  0  0  0
  8 27  1  6  0  0  0
  8 19  1  0  0  0  0
  9 15  1  6  0  0  0
  9 22  1  0  0  0  0
 10 32  1  6  0  0  0
 10  1  1  0  0  0  0
 11  6  2  0  0  0  0
 11  8  1  0  0  0  0
 12  4  1  0  0  0  0
 13 26  1  0  0  0  0
 13  7  1  0  0  0  0
 14 16  1  6  0  0  0
 14  9  1  0  0  0  0
 14 17  1  0  0  0  0
 17 24  1  0  0  0  0
 18 29  1  0  0  0  0
 19 21  1  0  0  0  0
 19 48  1  1  0  0  0
 21  5  1  1  0  0  0
 22  6  1  0  0  0  0
 24 10  1  0  0  0  0
 25 20  1  6  0  0  0
 25 18  1  0  0  0  0
 25 12  1  0  0  0  0
 26 16  1  0  0  0  0
 28 27  3  0  0  0  0
 30 31  1  0  0  0  0
 30 29  1  0  0  0  0
 32 33  1  1  0  0  0
 33 34  1  0  0  0  0
 34 35  1  0  0  0  0
 35 38  1  0  0  0  0
 35 36  1  0  0  0  0
 37 35  2  0  0  0  0
 39 32  1  0  0  0  0
 40 47  1  0  0  0  0
 42 44  1  6  0  0  0
 42 40  1  0  0  0  0
 42 45  1  0  0  0  0
 43 39  1  0  0  0  0
 44 40  1  0  0  0  0
 45 46  1  0  0  0  0
 46 43  2  0  0  0  0
 47 46  1  0  0  0  0
 47 41  2  0  0  0  0
 48 50  1  0  0  0  0
 50 49  2  0  0  0  0
 51 50  1  0  0  0  0
 52 51  1  0  0  0  0
 53 54  1  0  0  0  0
 54 55  1  0  0  0  0
 56 55  1  0  0  0  0
 56 58  1  0  0  0  0
 58 57  1  0  0  0  0
M  END
>  <MODEL>
8

>  <REMARK>
 VINA RESULT:      -5.0      2.183      4.293
  Name = 
  17 active torsions:
  status: ('A' for Active; 'I' for Inactive)
    1  A    between atoms: P_1  and  O_20
    2  A    between atoms: C_8  and  C_28
    3  A    between atoms: O_10  and  C_11
    4  A    between atoms: O_10  and  C_55
    5  A    between atoms: C_15  and  C_50
    6  A    between atoms: C_16  and  C_43
    7  A    between atoms: C_19  and  C_40
    8  A    between atoms: O_20  and  C_49
    9  A    between atoms: C_21  and  C_39
   10  A    between atoms: C_28  and  C_36
   11  A    between atoms: O_29  and  C_38
   12  A    between atoms: O_29  and  C_50
   13  A    between atoms: N_30  and  C_39
   14  A    between atoms: N_30  and  N_41
   15  A    between atoms: C_36  and  C_55
   16  A    between atoms: C_37  and  C_40
   17  A    between atoms: C_39  and  C_49
                            x       y       z     vdW  Elec       q    Type
                         _______ _______ _______ _____ _____    ______ ____

>  <TORSDO>
F 17

$$$$
=
 OpenBabel11072409333D

 58 63  0  0  1  0  0  0  0  0999 V2000
  189.9390  172.2870  142.1800 C   0  0  0  0  0  2  0  0  0  0  0  0
  193.8680  173.0070  138.3210 C   0  0  1  0  0  3  0  0  0  0  0  0
  190.5690  172.0690  140.8420 C   0  0  0  0  0  3  0  0  0  0  0  0
  191.3440  172.6350  136.3300 C   0  0  2  0  0  0  0  0  0  0  0  0
  192.6670  172.1130  136.4440 O   0  0  0  0  0  0  0  0  0  0  0  0
  194.9520  173.9770  138.7160 C   0  0  0  0  0  0  0  0  0  0  0  0
  196.5650  174.4780  143.1290 C   0  0  0  0  0  2  0  0  0  0  0  0
  196.1440  173.3830  136.6970 C   0  0  1  0  0  3  0  0  0  0  0  0
  194.9100  173.9980  141.1850 C   0  0  2  0  0  3  0  0  0  0  0  0
  190.5380  173.5150  142.8910 C   0  0  2  0  0  3  0  0  0  0  0  0
  195.9540  174.1690  137.9200 N   0  0  0  0  0  0  0  0  0  0  0  0
  190.9500  173.3770  137.4770 O   0  0  0  0  0  0  0  0  0  0  0  0
  196.4110  176.0040  143.2140 C   0  0  0  0  0  2  0  0  0  0  0  0
  193.8800  174.5860  142.1770 C   0  0  1  0  0  3  0  0  0  0  0  0
  196.3650  173.9580  141.6980 C   0  0  0  0  0  2  0  0  0  0  0  0
  194.0360  176.0910  142.3490 C   0  0  0  0  0  2  0  0  0  0  0  0
  192.5670  174.2660  141.8210 O   0  0  0  0  0  0  0  0  0  0  0  0
  190.3430  172.8160  139.7510 C   0  0  0  0  0  0  0  0  0  0  0  0
  194.8300  173.1360  135.9320 C   0  0  2  0  0  3  0  0  0  0  0  0
  192.6280  173.3090  139.1510 C   0  0  0  0  0  2  0  0  0  0  0  0
  193.5570  173.1410  136.8220 C   0  0  2  0  0  3  0  0  0  0  0  0
  194.8910  174.6800  139.9270 O   0  0  0  0  0  0  0  0  0  0  0  0
  190.4550  171.5620  136.1810 O   0  0  0  0  0  1  0  0  0  0  0  0
  192.0750  173.5260  142.9000 C   0  0  0  0  0  2  0  0  0  0  0  0
  191.3440  172.6770  138.6400 C   0  0  2  0  0  3  0  0  0  0  0  0
  194.9740  176.3910  143.5080 C   0  0  0  0  0  2  0  0  0  0  0  0
  197.1320  174.0330  135.8220 C   0  0  0  0  0  0  0  0  0  0  0  0
  197.9380  174.5730  135.0990 C   0  0  0  0  0  3  0  0  0  0  0  0
  189.3110  173.9120  139.7410 C   0  0  0  0  0  2  0  0  0  0  0  0
  188.2140  173.6140  138.7280 C   0  0  0  0  0  2  0  0  0  0  0  0
  187.8180  174.8890  138.0190 C   0  0  0  0  0  1  0  0  0  0  0  0
  189.9600  173.6470  144.3040 C   0  0  1  0  0  3  0  0  0  0  0  0
  191.0200  173.8830  145.3830 C   0  0  0  0  0  2  0  0  0  0  0  0
  190.6100  174.8750  146.2820 O   0  0  0  0  0  0  0  0  0  0  0  0
  191.9190  175.9450  146.3970 P   0  0  0  0  0  0  0  0  0  0  0  0
  191.8640  176.7750  147.8730 O   0  0  0  0  0  1  0  0  0  0  0  0
  191.8590  177.0490  145.1170 O   0  0  0  0  0  0  0  0  0  0  0  0
  193.2110  175.1660  146.3100 O   0  0  0  0  0  1  0  0  0  0  0  0
  188.9460  174.6930  144.3430 N   0  0  0  0  0  2  0  0  0  0  0  0
  186.3950  177.9680  143.8920 N   0  0  0  0  0  0  0  0  0  0  0  0
  187.1210  176.5270  145.6140 O   0  0  0  0  0  0  0  0  0  0  0  0
  186.7400  178.6040  142.6090 C   0  0  2  0  0  3  0  0  0  0  0  0
  188.6990  175.4930  143.2180 N   0  0  0  0  0  0  0  0  0  0  0  0
  185.4150  178.4020  142.8570 C   0  0  0  0  0  2  0  0  0  0  0  0
  187.5560  177.3970  142.0490 C   0  0  0  0  0  2  0  0  0  0  0  0
  187.8220  176.4450  143.2410 C   0  0  0  0  0  0  0  0  0  0  0  0
  187.0370  176.8620  144.4010 C   0  0  0  0  0  0  0  0  0  0  0  0
  194.9360  171.9640  135.1080 O   0  0  0  0  0  0  0  0  0  0  0  0
  196.9150  170.7460  134.9200 O   0  0  0  0  0  0  0  0  0  0  0  0
  195.7570  170.8620  135.4230 C   0  0  0  0  0  0  0  0  0  0  0  0
  195.2720  169.8480  136.4030 C   0  0  0  0  0  2  0  0  0  0  0  0
  194.2760  168.9290  135.7140 C   0  0  0  0  0  1  0  0  0  0  0  0
  191.2430  173.4810  135.1980 O   0  0  0  0  0  0  0  0  0  0  0  0
  190.4180  174.5750  135.5260 C   0  0  0  0  0  2  0  0  0  0  0  0
  190.9120  175.8390  134.8580 C   0  0  0  0  0  2  0  0  0  0  0  0
  192.0920  176.3500  135.6520 C   0  0  0  0  0  2  0  0  0  0  0  0
  194.0550  177.5430  135.0790 O   0  0  0  0  0  1  0  0  0  0  0  0
  193.3370  176.3710  134.8070 C   0  0  0  0  0  2  0  0  0  0  0  0
  1 10  1  0  0  0  0
  2  6  1  0  0  0  0
  2 20  1  1  0  0  0
  3  1  1  0  0  0  0
  4 23  1  6  0  0  0
  4  5  1  0  0  0  0
  4 12  1  0  0  0  0
  6 22  1  0  0  0  0
  7 13  1  0  0  0  0
  8 27  1  6  0  0  0
  8 11  1  0  0  0  0
  9 15  1  1  0  0  0
  9 14  1  0  0  0  0
 10 24  1  0  0  0  0
 10 32  1  1  0  0  0
 11  6  2  0  0  0  0
 12 25  1  0  0  0  0
 13 26  1  0  0  0  0
 14 16  1  6  0  0  0
 15  7  1  0  0  0  0
 16 26  1  0  0  0  0
 17 14  1  0  0  0  0
 17 24  1  0  0  0  0
 18  3  2  0  0  0  0
 19 48  1  1  0  0  0
 19  8  1  0  0  0  0
 19 21  1  0  0  0  0
 21  5  1  6  0  0  0
 21  2  1  0  0  0  0
 22  9  1  0  0  0  0
 25 20  1  1  0  0  0
 25 18  1  0  0  0  0
 28 27  3  0  0  0  0
 29 18  1  0  0  0  0
 30 29  1  0  0  0  0
 31 30  1  0  0  0  0
 32 39  1  0  0  0  0
 32 33  1  1  0  0  0
 33 34  1  0  0  0  0
 34 35  1  0  0  0  0
 35 36  1  0  0  0  0
 37 35  2  0  0  0  0
 38 35  1  0  0  0  0
 40 47  1  0  0  0  0
 42 45  1  6  0  0  0
 42 44  1  0  0  0  0
 42 40  1  0  0  0  0
 43 46  2  0  0  0  0
 43 39  1  0  0  0  0
 44 40  1  0  0  0  0
 45 46  1  0  0  0  0
 46 47  1  0  0  0  0
 47 41  2  0  0  0  0
 48 50  1  0  0  0  0
 49 50  2  0  0  0  0
 50 51  1  0  0  0  0
 52 51  1  0  0  0  0
 53 54  1  0  0  0  0
 53  4  1  0  0  0  0
 55 54  1  0  0  0  0
 55 56  1  0  0  0  0
 58 57  1  0  0  0  0
 58 56  1  0  0  0  0
M  END
>  <MODEL>
9

>  <REMARK>
 VINA RESULT:      -4.9      3.366      9.887
  Name = 
  17 active torsions:
  status: ('A' for Active; 'I' for Inactive)
    1  A    between atoms: P_1  and  O_20
    2  A    between atoms: C_8  and  C_28
    3  A    between atoms: O_10  and  C_11
    4  A    between atoms: O_10  and  C_55
    5  A    between atoms: C_15  and  C_50
    6  A    between atoms: C_16  and  C_43
    7  A    between atoms: C_19  and  C_40
    8  A    between atoms: O_20  and  C_49
    9  A    between atoms: C_21  and  C_39
   10  A    between atoms: C_28  and  C_36
   11  A    between atoms: O_29  and  C_38
   12  A    between atoms: O_29  and  C_50
   13  A    between atoms: N_30  and  C_39
   14  A    between atoms: N_30  and  N_41
   15  A    between atoms: C_36  and  C_55
   16  A    between atoms: C_37  and  C_40
   17  A    between atoms: C_39  and  C_49
                            x       y       z     vdW  Elec       q    Type
                         _______ _______ _______ _____ _____    ______ ____

>  <TORSDO>
F 17

$$$$
