=
 OpenBabel11062420313D

 53 56  0  0  1  0  0  0  0  0999 V2000
  191.3990  176.6650  146.0400 C   0  0  0  0  0  2  0  0  0  0  0  0
  192.4990  171.3750  142.1260 O   0  0  0  0  0  0  0  0  0  0  0  0
  193.3140  175.2570  146.5780 C   0  0  0  0  0  2  0  0  0  0  0  0
  189.3480  172.5600  141.2560 O   0  0  0  0  0  0  0  0  0  0  0  0
  194.5590  174.9570  144.3960 C   0  0  2  0  0  3  0  0  0  0  0  0
  191.0740  175.9540  143.2490 P   0  0  2  0  0  0  0  0  0  0  0  0
  192.5700  172.2650  143.2430 C   0  0  0  0  0  2  0  0  0  0  0  0
  194.2900  174.4420  145.7640 C   0  0  0  0  0  2  0  0  0  0  0  0
  191.5730  171.6070  141.1000 C   0  0  1  0  0  0  0  0  0  0  0  0
  190.5580  172.7510  141.3640 C   0  0  0  0  0  0  0  0  0  0  0  0
  195.0630  176.2880  144.4030 O   0  0  0  0  0  1  0  0  0  0  0  0
  190.8050  174.1130  141.6510 C   0  0  0  0  0  2  0  0  0  0  0  0
  190.8130  176.9620  142.0900 O   0  0  0  0  0  0  0  0  0  0  0  0
  193.4740  173.4050  142.7800 C   0  0  1  0  0  3  0  0  0  0  0  0
  190.3740  178.2750  144.6650 C   0  0  0  0  0  1  0  0  0  0  0  0
  193.3000  174.7840  143.6280 C   0  0  2  0  0  3  0  0  0  0  0  0
  190.4280  174.3520  142.9700 O   0  0  0  0  0  0  0  0  0  0  0  0
  192.2850  171.8910  139.8920 F   0  0  0  0  0  0  0  0  0  0  0  0
  190.4190  176.7390  144.7820 C   0  0  2  0  0  0  0  0  0  0  0  0
  191.8690  175.2360  146.2360 C   0  0  0  0  0  2  0  0  0  0  0  0
  192.7480  176.0950  143.5440 O   0  0  0  0  0  0  0  0  0  0  0  0
  195.8860  171.7530  140.5480 C   0  0  0  0  0  2  0  0  0  0  0  0
  194.7760  175.5660  136.9760 O   0  0  0  0  0  0  0  0  0  0  0  0
  196.8500  173.8130  139.5240 C   0  0  0  0  0  2  0  0  0  0  0  0
  193.9450  174.3600  138.8130 C   0  0  0  0  0  2  0  0  0  0  0  0
  194.4160  173.0180  139.3160 C   0  0  0  0  0  2  0  0  0  0  0  0
  196.4790  174.5660  138.3400 O   0  0  0  0  0  0  0  0  0  0  0  0
  195.2710  173.9750  141.3170 O   0  0  0  0  0  0  0  0  0  0  0  0
  194.9590  171.6180  141.6790 C   0  0  2  0  0  3  0  0  0  0  0  0
  194.9220  173.0890  142.2650 C   0  0  2  0  0  3  0  0  0  0  0  0
  195.6360  173.2210  140.2210 C   0  0  1  0  0  0  0  0  0  0  0  0
  195.0900  174.9350  138.0620 C   0  0  0  0  0  0  0  0  0  0  0  0
  195.3450  170.6060  142.7350 C   0  0  0  0  0  2  0  0  0  0  0  0
  196.0700  171.2630  143.7790 O   0  0  0  0  0  0  0  0  0  0  0  0
  196.7450  171.2090  146.1150 N   0  0  0  0  0  1  0  0  0  0  0  0
  195.7380  170.9030  145.0930 C   0  0  0  0  0  0  0  0  0  0  0  0
  194.5940  170.2620  145.4130 N   0  0  0  0  0  2  0  0  0  0  0  0
  190.2220  169.7570  141.9630 F   0  0  0  0  0  0  0  0  0  0  0  0
  192.0240  169.3070  140.6610 F   0  0  0  0  0  0  0  0  0  0  0  0
  190.1730  170.2530  139.6920 F   0  0  0  0  0  0  0  0  0  0  0  0
  190.9530  170.1990  140.8660 C   0  0  0  0  0  0  0  0  0  0  0  0
  188.9150  176.3160  145.1950 C   0  0  1  0  0  3  0  0  0  0  0  0
  188.6040  176.2490  146.6390 C   0  0  0  0  0  0  0  0  0  0  0  0
  188.4940  175.0820  147.2770 O   0  0  0  0  0  0  0  0  0  0  0  0
  188.2590  177.5020  147.3180 O   0  0  0  0  0  1  0  0  0  0  0  0
  187.9450  177.2120  144.5240 O   0  0  0  0  0  0  0  0  0  0  0  0
  186.7440  176.5020  144.4120 C   0  0  1  0  0  3  0  0  0  0  0  0
  185.0960  176.6890  146.2030 O   0  0  0  0  0  0  0  0  0  0  0  0
  185.5020  177.1070  145.0750 C   0  0  0  0  0  0  0  0  0  0  0  0
  184.7690  177.9560  144.1790 O   0  0  0  0  0  0  0  0  0  0  0  0
  185.0730  179.3300  144.1430 C   0  0  0  0  0  1  0  0  0  0  0  0
  187.2620  176.8010  141.9280 C   0  0  0  0  0  1  0  0  0  0  0  0
  186.4010  176.0540  142.9790 C   0  0  0  0  0  2  0  0  0  0  0  0
  1 20  1  0  0  0  0
  2  7  1  0  0  0  0
  4 10  2  0  0  0  0
  5 11  1  1  0  0  0
  5  8  1  0  0  0  0
  6 13  2  6  0  0  0
  6 21  1  0  0  0  0
  6 19  1  0  0  0  0
  8  3  1  0  0  0  0
  9 18  1  6  0  0  0
  9 10  1  0  0  0  0
  9  2  1  0  0  0  0
 10 12  1  0  0  0  0
 12 17  1  0  0  0  0
 14  7  1  1  0  0  0
 14 16  1  0  0  0  0
 16 21  1  6  0  0  0
 16  5  1  0  0  0  0
 17  6  1  0  0  0  0
 19 15  1  6  0  0  0
 19 42  1  0  0  0  0
 19  1  1  0  0  0  0
 20  3  1  0  0  0  0
 22 29  1  0  0  0  0
 23 32  2  0  0  0  0
 24 31  1  0  0  0  0
 25 26  1  0  0  0  0
 27 24  1  0  0  0  0
 29 30  1  0  0  0  0
 29 33  1  1  0  0  0
 30 28  1  6  0  0  0
 30 14  1  0  0  0  0
 31 26  1  6  0  0  0
 31 22  1  0  0  0  0
 31 28  1  0  0  0  0
 32 27  1  0  0  0  0
 32 25  1  0  0  0  0
 33 34  1  0  0  0  0
 34 36  1  0  0  0  0
 36 37  2  0  0  0  0
 36 35  1  0  0  0  0
 39 41  1  0  0  0  0
 40 41  1  0  0  0  0
 41  9  1  0  0  0  0
 41 38  1  0  0  0  0
 42 46  1  6  0  0  0
 42 43  1  0  0  0  0
 43 44  2  0  0  0  0
 43 45  1  0  0  0  0
 47 53  1  6  0  0  0
 47 46  1  0  0  0  0
 47 49  1  0  0  0  0
 49 48  2  0  0  0  0
 50 49  1  0  0  0  0
 51 50  1  0  0  0  0
 52 53  1  0  0  0  0
M  END
>  <MODEL>
1

>  <REMARK>
 VINA RESULT:      -6.5      0.000      0.000
  Name = 
  12 active torsions:
  status: ('A' for Active; 'I' for Inactive)
    1  A    between atoms: C_2  and  C_30
    2  A    between atoms: C_2  and  O_31
    3  A    between atoms: C_5  and  C_15
    4  A    between atoms: O_6  and  C_44
    5  A    between atoms: C_15  and  O_26
    6  A    between atoms: C_15  and  C_51
    7  A    between atoms: C_18  and  O_31
    8  A    between atoms: C_22  and  C_32
    9  A    between atoms: O_26  and  C_39
   10  A    between atoms: C_36  and  C_45
   11  A    between atoms: C_39  and  C_44
   12  A    between atoms: C_39  and  C_49
                            x       y       z     vdW  Elec       q    Type
                         _______ _______ _______ _____ _____    ______ ____

>  <TORSDO>
F 12

$$$$
=
 OpenBabel11062420313D

 53 56  0  0  1  0  0  0  0  0999 V2000
  189.6870  177.3500  146.0570 C   0  0  0  0  0  2  0  0  0  0  0  0
  192.1210  171.5830  143.7490 O   0  0  0  0  0  0  0  0  0  0  0  0
  190.7860  175.8810  147.6610 C   0  0  0  0  0  2  0  0  0  0  0  0
  190.1660  172.8820  141.1840 O   0  0  0  0  0  0  0  0  0  0  0  0
  192.9880  175.2450  146.5890 C   0  0  2  0  0  3  0  0  0  0  0  0
  190.8900  176.3500  143.6160 P   0  0  2  0  0  0  0  0  0  0  0  0
  191.6670  172.5880  144.6590 C   0  0  0  0  0  2  0  0  0  0  0  0
  191.9400  174.9100  147.5890 C   0  0  0  0  0  2  0  0  0  0  0  0
  191.9620  171.7620  142.3680 C   0  0  1  0  0  0  0  0  0  0  0  0
  191.1220  172.9970  141.9480 C   0  0  0  0  0  0  0  0  0  0  0  0
  193.5620  176.5290  146.8070 O   0  0  0  0  0  1  0  0  0  0  0  0
  191.3330  174.3620  142.2500 C   0  0  0  0  0  2  0  0  0  0  0  0
  191.4460  177.2340  142.4620 O   0  0  0  0  0  0  0  0  0  0  0  0
  192.8070  173.6000  144.7290 C   0  0  1  0  0  3  0  0  0  0  0  0
  189.8120  178.8620  144.2580 C   0  0  0  0  0  1  0  0  0  0  0  0
  192.3610  175.0760  145.2530 C   0  0  2  0  0  3  0  0  0  0  0  0
  190.3170  174.7760  143.1080 O   0  0  0  0  0  0  0  0  0  0  0  0
  193.2550  171.8540  141.7630 F   0  0  0  0  0  0  0  0  0  0  0  0
  189.5940  177.3500  144.4630 C   0  0  2  0  0  0  0  0  0  0  0  0
  189.7880  175.9230  146.5620 C   0  0  0  0  0  2  0  0  0  0  0  0
  192.1170  176.4050  144.8000 O   0  0  0  0  0  0  0  0  0  0  0  0
  195.9050  171.6790  144.2440 C   0  0  0  0  0  2  0  0  0  0  0  0
  197.4690  175.5590  140.9240 O   0  0  0  0  0  0  0  0  0  0  0  0
  197.4730  173.6130  144.0980 C   0  0  0  0  0  2  0  0  0  0  0  0
  195.6090  174.4660  141.8530 C   0  0  0  0  0  2  0  0  0  0  0  0
  195.5670  173.0840  142.4590 C   0  0  0  0  0  2  0  0  0  0  0  0
  197.9410  174.3920  142.9680 O   0  0  0  0  0  0  0  0  0  0  0  0
  195.1640  173.9600  144.6320 O   0  0  0  0  0  0  0  0  0  0  0  0
  194.4830  171.6540  144.6080 C   0  0  2  0  0  3  0  0  0  0  0  0
  194.2440  173.1250  145.1430 C   0  0  2  0  0  3  0  0  0  0  0  0
  196.0330  173.1620  143.9170 C   0  0  1  0  0  0  0  0  0  0  0  0
  197.0230  174.9080  141.9490 C   0  0  0  0  0  0  0  0  0  0  0  0
  194.0780  170.6150  145.6300 C   0  0  0  0  0  2  0  0  0  0  0  0
  195.0620  169.5770  145.6660 O   0  0  0  0  0  0  0  0  0  0  0  0
  196.7800  169.1190  147.3260 N   0  0  0  0  0  2  0  0  0  0  0  0
  195.3690  169.0500  146.9290 C   0  0  0  0  0  0  0  0  0  0  0  0
  194.4520  168.4590  147.7220 N   0  0  0  0  0  1  0  0  0  0  0  0
  191.3920  170.2650  140.5150 F   0  0  0  0  0  0  0  0  0  0  0  0
  190.0840  170.2920  142.3680 F   0  0  0  0  0  0  0  0  0  0  0  0
  192.1800  169.3730  142.5120 F   0  0  0  0  0  0  0  0  0  0  0  0
  191.4100  170.3830  141.9000 C   0  0  0  0  0  0  0  0  0  0  0  0
  188.0760  177.0850  143.9740 C   0  0  1  0  0  3  0  0  0  0  0  0
  186.9930  177.4020  144.9280 C   0  0  0  0  0  0  0  0  0  0  0  0
  186.3900  176.4500  145.6420 O   0  0  0  0  0  1  0  0  0  0  0  0
  186.4880  178.7790  144.9490 O   0  0  0  0  0  0  0  0  0  0  0  0
  187.8340  177.7990  142.6990 O   0  0  0  0  0  0  0  0  0  0  0  0
  187.0260  176.9690  141.9140 C   0  0  1  0  0  3  0  0  0  0  0  0
  186.4570  177.5540  139.6130 O   0  0  0  0  0  0  0  0  0  0  0  0
  186.1560  177.6370  140.8440 C   0  0  0  0  0  0  0  0  0  0  0  0
  185.1830  178.5260  141.4150 O   0  0  0  0  0  0  0  0  0  0  0  0
  184.2650  178.0160  142.3530 C   0  0  0  0  0  1  0  0  0  0  0  0
  187.3080  174.4300  141.9650 C   0  0  0  0  0  1  0  0  0  0  0  0
  187.7580  175.7590  141.3040 C   0  0  0  0  0  2  0  0  0  0  0  0
  1 20  1  0  0  0  0
  2  7  1  0  0  0  0
  4 10  2  0  0  0  0
  5 11  1  1  0  0  0
  5  8  1  0  0  0  0
  6 13  2  6  0  0  0
  6 19  1  0  0  0  0
  6 21  1  0  0  0  0
  8  3  1  0  0  0  0
  9 18  1  6  0  0  0
  9  2  1  0  0  0  0
 10 12  1  0  0  0  0
 10  9  1  0  0  0  0
 12 17  1  0  0  0  0
 14  7  1  1  0  0  0
 14 30  1  0  0  0  0
 14 16  1  0  0  0  0
 16 21  1  6  0  0  0
 16  5  1  0  0  0  0
 17  6  1  0  0  0  0
 19 15  1  6  0  0  0
 19  1  1  0  0  0  0
 20  3  1  0  0  0  0
 22 29  1  0  0  0  0
 23 32  2  0  0  0  0
 25 32  1  0  0  0  0
 25 26  1  0  0  0  0
 27 24  1  0  0  0  0
 29 30  1  0  0  0  0
 29 33  1  1  0  0  0
 30 28  1  6  0  0  0
 31 26  1  6  0  0  0
 31 24  1  0  0  0  0
 31 22  1  0  0  0  0
 31 28  1  0  0  0  0
 32 27  1  0  0  0  0
 33 34  1  0  0  0  0
 34 36  1  0  0  0  0
 36 35  2  0  0  0  0
 36 37  1  0  0  0  0
 38 41  1  0  0  0  0
 41 39  1  0  0  0  0
 41  9  1  0  0  0  0
 41 40  1  0  0  0  0
 42 46  1  6  0  0  0
 42 19  1  0  0  0  0
 42 43  1  0  0  0  0
 43 45  2  0  0  0  0
 43 44  1  0  0  0  0
 47 53  1  6  0  0  0
 47 46  1  0  0  0  0
 48 49  2  0  0  0  0
 49 50  1  0  0  0  0
 49 47  1  0  0  0  0
 50 51  1  0  0  0  0
 53 52  1  0  0  0  0
M  END
>  <MODEL>
2

>  <REMARK>
 VINA RESULT:      -6.5      1.993      2.835
  Name = 
  12 active torsions:
  status: ('A' for Active; 'I' for Inactive)
    1  A    between atoms: C_2  and  C_30
    2  A    between atoms: C_2  and  O_31
    3  A    between atoms: C_5  and  C_15
    4  A    between atoms: O_6  and  C_44
    5  A    between atoms: C_15  and  O_26
    6  A    between atoms: C_15  and  C_51
    7  A    between atoms: C_18  and  O_31
    8  A    between atoms: C_22  and  C_32
    9  A    between atoms: O_26  and  C_39
   10  A    between atoms: C_36  and  C_45
   11  A    between atoms: C_39  and  C_44
   12  A    between atoms: C_39  and  C_49
                            x       y       z     vdW  Elec       q    Type
                         _______ _______ _______ _____ _____    ______ ____

>  <TORSDO>
F 12

$$$$
=
 OpenBabel11062420313D

 53 56  0  0  1  0  0  0  0  0999 V2000
  191.7790  176.5460  146.0470 C   0  0  0  0  0  2  0  0  0  0  0  0
  193.6160  171.2250  142.4660 O   0  0  0  0  0  0  0  0  0  0  0  0
  193.9430  175.5510  146.5570 C   0  0  0  0  0  2  0  0  0  0  0  0
  190.2600  171.7550  141.7250 O   0  0  0  0  0  0  0  0  0  0  0  0
  195.1060  175.2930  144.3240 C   0  0  2  0  0  3  0  0  0  0  0  0
  191.4410  175.5560  143.3430 P   0  0  2  0  0  0  0  0  0  0  0  0
  193.5820  172.2040  143.5070 C   0  0  0  0  0  2  0  0  0  0  0  0
  195.0070  174.8560  145.7410 C   0  0  0  0  0  2  0  0  0  0  0  0
  192.6100  171.2020  141.4900 C   0  0  1  0  0  0  0  0  0  0  0  0
  191.4180  172.1650  141.7380 C   0  0  0  0  0  0  0  0  0  0  0  0
  195.3580  176.6890  144.1990 O   0  0  0  0  0  1  0  0  0  0  0  0
  191.4280  173.5690  141.9070 C   0  0  0  0  0  2  0  0  0  0  0  0
  190.9410  176.4000  142.1340 O   0  0  0  0  0  0  0  0  0  0  0  0
  194.2370  173.4430  142.9020 C   0  0  1  0  0  3  0  0  0  0  0  0
  190.4060  177.8270  144.6290 C   0  0  0  0  0  1  0  0  0  0  0  0
  193.8600  174.8360  143.6570 C   0  0  2  0  0  3  0  0  0  0  0  0
  191.0840  173.8470  143.2270 O   0  0  0  0  0  0  0  0  0  0  0  0
  193.1930  171.5050  140.2200 F   0  0  0  0  0  0  0  0  0  0  0  0
  190.7360  176.3390  144.8560 C   0  0  2  0  0  0  0  0  0  0  0  0
  192.5110  175.2440  146.3150 C   0  0  0  0  0  2  0  0  0  0  0  0
  193.0750  176.0170  143.5140 O   0  0  0  0  0  0  0  0  0  0  0  0
  196.7710  172.1210  140.5870 C   0  0  0  0  0  2  0  0  0  0  0  0
  194.8690  175.5630  136.9730 O   0  0  0  0  0  0  0  0  0  0  0  0
  197.3300  174.2690  139.4500 C   0  0  0  0  0  2  0  0  0  0  0  0
  194.3420  174.3100  138.8890 C   0  0  0  0  0  2  0  0  0  0  0  0
  195.0520  173.0820  139.4040 C   0  0  0  0  0  2  0  0  0  0  0  0
  196.7810  174.9060  138.2680 O   0  0  0  0  0  0  0  0  0  0  0  0
  195.8390  174.2410  141.3240 O   0  0  0  0  0  0  0  0  0  0  0  0
  195.9380  171.8800  141.7730 C   0  0  2  0  0  3  0  0  0  0  0  0
  195.6900  173.3470  142.3160 C   0  0  2  0  0  3  0  0  0  0  0  0
  196.2670  173.5150  140.2310 C   0  0  1  0  0  0  0  0  0  0  0  0
  195.3370  175.0340  138.0570 C   0  0  0  0  0  0  0  0  0  0  0  0
  196.5380  170.9860  142.8340 C   0  0  0  0  0  2  0  0  0  0  0  0
  197.2510  171.7870  143.7810 O   0  0  0  0  0  0  0  0  0  0  0  0
  197.9080  169.9470  145.2310 N   0  0  0  0  0  2  0  0  0  0  0  0
  197.3290  171.2880  145.0890 C   0  0  0  0  0  0  0  0  0  0  0  0
  196.8540  171.9560  146.1600 N   0  0  0  0  0  1  0  0  0  0  0  0
  193.3620  168.8910  141.1880 F   0  0  0  0  0  0  0  0  0  0  0  0
  191.3770  169.5410  140.3030 F   0  0  0  0  0  0  0  0  0  0  0  0
  191.5550  169.3380  142.5800 F   0  0  0  0  0  0  0  0  0  0  0  0
  192.2450  169.6910  141.4020 C   0  0  0  0  0  0  0  0  0  0  0  0
  189.3580  175.6920  145.3990 C   0  0  1  0  0  3  0  0  0  0  0  0
  189.4670  174.5010  146.2670 C   0  0  0  0  0  0  0  0  0  0  0  0
  189.5830  173.2740  145.7590 O   0  0  0  0  0  0  0  0  0  0  0  0
  189.2790  174.6940  147.7100 O   0  0  0  0  0  1  0  0  0  0  0  0
  188.5590  176.7330  146.0860 O   0  0  0  0  0  0  0  0  0  0  0  0
  187.2370  176.5850  145.6510 C   0  0  1  0  0  3  0  0  0  0  0  0
  184.9280  176.5590  146.4440 O   0  0  0  0  0  0  0  0  0  0  0  0
  186.1230  176.9400  146.6420 C   0  0  0  0  0  0  0  0  0  0  0  0
  186.5460  177.9180  147.6040 O   0  0  0  0  0  0  0  0  0  0  0  0
  185.9150  179.1760  147.6180 C   0  0  0  0  0  1  0  0  0  0  0  0
  186.3560  176.2020  143.2830 C   0  0  0  0  0  1  0  0  0  0  0  0
  186.9410  177.2320  144.2840 C   0  0  0  0  0  2  0  0  0  0  0  0
  1 20  1  0  0  0  0
  2  7  1  0  0  0  0
  4 10  2  0  0  0  0
  5 11  1  1  0  0  0
  5  8  1  0  0  0  0
  6 13  2  6  0  0  0
  6 21  1  0  0  0  0
  6 19  1  0  0  0  0
  8  3  1  0  0  0  0
  9 18  1  6  0  0  0
  9 10  1  0  0  0  0
  9  2  1  0  0  0  0
 10 12  1  0  0  0  0
 12 17  1  0  0  0  0
 14  7  1  1  0  0  0
 14 16  1  0  0  0  0
 16 21  1  6  0  0  0
 16  5  1  0  0  0  0
 17  6  1  0  0  0  0
 19 15  1  6  0  0  0
 19 42  1  0  0  0  0
 19  1  1  0  0  0  0
 20  3  1  0  0  0  0
 22 29  1  0  0  0  0
 23 32  2  0  0  0  0
 24 31  1  0  0  0  0
 25 26  1  0  0  0  0
 27 24  1  0  0  0  0
 29 30  1  0  0  0  0
 29 33  1  1  0  0  0
 30 28  1  6  0  0  0
 30 14  1  0  0  0  0
 31 26  1  6  0  0  0
 31 22  1  0  0  0  0
 31 28  1  0  0  0  0
 32 27  1  0  0  0  0
 32 25  1  0  0  0  0
 33 34  1  0  0  0  0
 34 36  1  0  0  0  0
 36 35  2  0  0  0  0
 36 37  1  0  0  0  0
 38 41  1  0  0  0  0
 39 41  1  0  0  0  0
 41  9  1  0  0  0  0
 41 40  1  0  0  0  0
 42 46  1  1  0  0  0
 42 43  1  0  0  0  0
 43 45  1  0  0  0  0
 44 43  2  0  0  0  0
 47 53  1  6  0  0  0
 47 46  1  0  0  0  0
 47 49  1  0  0  0  0
 48 49  2  0  0  0  0
 49 50  1  0  0  0  0
 50 51  1  0  0  0  0
 52 53  1  0  0  0  0
M  END
>  <MODEL>
3

>  <REMARK>
 VINA RESULT:      -6.4      1.161      1.532
  Name = 
  12 active torsions:
  status: ('A' for Active; 'I' for Inactive)
    1  A    between atoms: C_2  and  C_30
    2  A    between atoms: C_2  and  O_31
    3  A    between atoms: C_5  and  C_15
    4  A    between atoms: O_6  and  C_44
    5  A    between atoms: C_15  and  O_26
    6  A    between atoms: C_15  and  C_51
    7  A    between atoms: C_18  and  O_31
    8  A    between atoms: C_22  and  C_32
    9  A    between atoms: O_26  and  C_39
   10  A    between atoms: C_36  and  C_45
   11  A    between atoms: C_39  and  C_44
   12  A    between atoms: C_39  and  C_49
                            x       y       z     vdW  Elec       q    Type
                         _______ _______ _______ _____ _____    ______ ____

>  <TORSDO>
F 12

$$$$
=
 OpenBabel11062420313D

 53 56  0  0  1  0  0  0  0  0999 V2000
  193.7830  172.9090  137.4270 C   0  0  0  0  0  2  0  0  0  0  0  0
  191.6830  174.1050  143.6450 O   0  0  0  0  0  0  0  0  0  0  0  0
  194.2900  175.0960  138.3750 C   0  0  0  0  0  2  0  0  0  0  0  0
  190.1270  171.1520  142.6700 O   0  0  0  0  0  0  0  0  0  0  0  0
  195.2880  174.6250  140.6520 C   0  0  2  0  0  3  0  0  0  0  0  0
  193.3870  171.4220  139.8830 P   0  0  2  0  0  0  0  0  0  0  0  0
  192.1820  174.3260  142.3240 C   0  0  0  0  0  2  0  0  0  0  0  0
  194.6050  175.6000  139.7630 C   0  0  0  0  0  2  0  0  0  0  0  0
  191.2360  172.8320  144.0240 C   0  0  1  0  0  0  0  0  0  0  0  0
  191.1600  171.7850  142.8810 C   0  0  0  0  0  0  0  0  0  0  0  0
  196.5190  174.1600  140.1090 O   0  0  0  0  0  1  0  0  0  0  0  0
  192.1840  171.3310  142.0180 C   0  0  0  0  0  2  0  0  0  0  0  0
  193.9560  170.0020  140.1750 O   0  0  0  0  0  0  0  0  0  0  0  0
  193.6470  173.9050  142.3820 C   0  0  1  0  0  3  0  0  0  0  0  0
  194.1760  170.5920  137.3200 C   0  0  0  0  0  1  0  0  0  0  0  0
  194.3000  173.5510  140.9320 C   0  0  2  0  0  3  0  0  0  0  0  0
  191.9040  171.7930  140.7350 O   0  0  0  0  0  0  0  0  0  0  0  0
  192.0920  172.3310  145.0540 F   0  0  0  0  0  0  0  0  0  0  0  0
  193.2200  171.5530  138.0520 C   0  0  2  0  0  0  0  0  0  0  0  0
  193.2110  174.0940  138.1810 C   0  0  0  0  0  2  0  0  0  0  0  0
  194.7230  172.4550  140.1260 O   0  0  0  0  0  0  0  0  0  0  0  0
  194.6530  174.8620  145.7880 C   0  0  0  0  0  2  0  0  0  0  0  0
  196.5020  169.8830  146.3460 O   0  0  0  0  0  0  0  0  0  0  0  0
  196.7820  173.5660  145.8790 C   0  0  0  0  0  2  0  0  0  0  0  0
  194.9460  171.2340  145.2180 C   0  0  0  0  0  2  0  0  0  0  0  0
  194.4200  172.5810  145.6500 C   0  0  0  0  0  2  0  0  0  0  0  0
  197.0700  172.2150  146.3210 O   0  0  0  0  0  0  0  0  0  0  0  0
  195.5160  173.6790  143.8490 O   0  0  0  0  0  0  0  0  0  0  0  0
  193.7580  175.1110  144.6500 C   0  0  2  0  0  3  0  0  0  0  0  0
  194.6090  174.5750  143.4260 C   0  0  2  0  0  3  0  0  0  0  0  0
  195.4140  173.6670  145.2250 C   0  0  1  0  0  0  0  0  0  0  0  0
  196.2550  171.0720  145.9020 C   0  0  0  0  0  0  0  0  0  0  0  0
  193.3290  176.5460  144.4460 C   0  0  0  0  0  2  0  0  0  0  0  0
  192.1400  176.7970  145.2010 O   0  0  0  0  0  0  0  0  0  0  0  0
  189.8360  177.5770  145.2670 N   0  0  0  0  0  1  0  0  0  0  0  0
  191.0970  177.4480  144.5260 C   0  0  0  0  0  0  0  0  0  0  0  0
  191.2030  177.8840  143.2540 N   0  0  0  0  0  2  0  0  0  0  0  0
  189.3250  171.9960  145.3060 F   0  0  0  0  0  0  0  0  0  0  0  0
  189.0060  173.6370  143.7730 F   0  0  0  0  0  0  0  0  0  0  0  0
  190.1280  174.1400  145.7080 F   0  0  0  0  0  0  0  0  0  0  0  0
  189.8910  173.1360  144.7470 C   0  0  0  0  0  0  0  0  0  0  0  0
  191.7570  171.2060  137.4590 C   0  0  1  0  0  3  0  0  0  0  0  0
  191.4100  169.7770  137.3080 C   0  0  0  0  0  0  0  0  0  0  0  0
  191.2920  169.2090  136.1080 O   0  0  0  0  0  0  0  0  0  0  0  0
  191.0390  169.0380  138.5200 O   0  0  0  0  0  1  0  0  0  0  0  0
  190.7190  171.8830  138.2700 O   0  0  0  0  0  0  0  0  0  0  0  0
  189.7170  172.2980  137.3850 C   0  0  1  0  0  3  0  0  0  0  0  0
  188.2700  174.2610  137.5000 O   0  0  0  0  0  0  0  0  0  0  0  0
  188.5570  173.1140  137.9640 C   0  0  0  0  0  0  0  0  0  0  0  0
  188.0580  172.5520  139.1880 O   0  0  0  0  0  0  0  0  0  0  0  0
  188.3930  173.1710  140.4070 C   0  0  0  0  0  1  0  0  0  0  0  0
  189.6020  172.3600  134.8330 C   0  0  0  0  0  1  0  0  0  0  0  0
  190.2400  172.9770  136.1050 C   0  0  0  0  0  2  0  0  0  0  0  0
  1 19  1  0  0  0  0
  1 20  1  0  0  0  0
  2  9  1  0  0  0  0
  3  8  1  0  0  0  0
  4 10  2  0  0  0  0
  5 11  1  6  0  0  0
  5 16  1  0  0  0  0
  6 21  1  0  0  0  0
  6 13  2  1  0  0  0
  6 17  1  0  0  0  0
  7  2  1  0  0  0  0
  8  5  1  0  0  0  0
  9 41  1  0  0  0  0
  9 18  1  1  0  0  0
 10  9  1  0  0  0  0
 12 10  1  0  0  0  0
 14  7  1  6  0  0  0
 14 30  1  0  0  0  0
 16 21  1  1  0  0  0
 16 14  1  0  0  0  0
 17 12  1  0  0  0  0
 19 15  1  6  0  0  0
 19  6  1  0  0  0  0
 20  3  1  0  0  0  0
 24 27  1  0  0  0  0
 25 26  1  0  0  0  0
 25 32  1  0  0  0  0
 28 31  1  0  0  0  0
 29 33  1  6  0  0  0
 29 22  1  0  0  0  0
 30 28  1  1  0  0  0
 30 29  1  0  0  0  0
 31 26  1  1  0  0  0
 31 22  1  0  0  0  0
 31 24  1  0  0  0  0
 32 27  1  0  0  0  0
 32 23  2  0  0  0  0
 33 34  1  0  0  0  0
 36 34  1  0  0  0  0
 36 35  1  0  0  0  0
 37 36  2  0  0  0  0
 39 41  1  0  0  0  0
 41 38  1  0  0  0  0
 41 40  1  0  0  0  0
 42 43  1  1  0  0  0
 42 19  1  0  0  0  0
 42 46  1  0  0  0  0
 43 45  1  0  0  0  0
 44 43  2  0  0  0  0
 47 53  1  6  0  0  0
 47 49  1  0  0  0  0
 47 46  1  0  0  0  0
 48 49  2  0  0  0  0
 49 50  1  0  0  0  0
 50 51  1  0  0  0  0
 52 53  1  0  0  0  0
M  END
>  <MODEL>
4

>  <REMARK>
 VINA RESULT:      -6.2      3.710      7.313
  Name = 
  12 active torsions:
  status: ('A' for Active; 'I' for Inactive)
    1  A    between atoms: C_2  and  C_30
    2  A    between atoms: C_2  and  O_31
    3  A    between atoms: C_5  and  C_15
    4  A    between atoms: O_6  and  C_44
    5  A    between atoms: C_15  and  O_26
    6  A    between atoms: C_15  and  C_51
    7  A    between atoms: C_18  and  O_31
    8  A    between atoms: C_22  and  C_32
    9  A    between atoms: O_26  and  C_39
   10  A    between atoms: C_36  and  C_45
   11  A    between atoms: C_39  and  C_44
   12  A    between atoms: C_39  and  C_49
                            x       y       z     vdW  Elec       q    Type
                         _______ _______ _______ _____ _____    ______ ____

>  <TORSDO>
F 12

$$$$
=
 OpenBabel11062420313D

 53 56  0  0  1  0  0  0  0  0999 V2000
  189.0510  177.1150  145.7150 C   0  0  0  0  0  2  0  0  0  0  0  0
  191.9870  171.4760  143.6920 O   0  0  0  0  0  0  0  0  0  0  0  0
  189.9800  175.6620  147.4350 C   0  0  0  0  0  2  0  0  0  0  0  0
  190.3440  172.7440  140.9020 O   0  0  0  0  0  0  0  0  0  0  0  0
  192.3280  175.1220  146.6610 C   0  0  2  0  0  3  0  0  0  0  0  0
  190.6050  176.1970  143.4460 P   0  0  2  0  0  0  0  0  0  0  0  0
  191.3780  172.4490  144.5440 C   0  0  0  0  0  2  0  0  0  0  0  0
  191.1700  174.7350  147.5080 C   0  0  0  0  0  2  0  0  0  0  0  0
  192.0070  171.6700  142.3040 C   0  0  1  0  0  0  0  0  0  0  0  0
  191.1840  172.8810  141.7890 C   0  0  0  0  0  0  0  0  0  0  0  0
  192.8190  176.4230  146.9680 O   0  0  0  0  0  1  0  0  0  0  0  0
  191.3010  174.2480  142.1310 C   0  0  0  0  0  2  0  0  0  0  0  0
  191.2760  177.1190  142.3860 O   0  0  0  0  0  0  0  0  0  0  0  0
  192.4590  173.5010  144.7760 C   0  0  1  0  0  3  0  0  0  0  0  0
  189.3570  178.6580  143.9640 C   0  0  0  0  0  1  0  0  0  0  0  0
  191.8920  174.9520  145.2510 C   0  0  2  0  0  3  0  0  0  0  0  0
  190.1650  174.6120  142.8490 O   0  0  0  0  0  0  0  0  0  0  0  0
  193.3640  171.8180  141.8790 F   0  0  0  0  0  0  0  0  0  0  0  0
  189.1710  177.1370  144.1230 C   0  0  2  0  0  0  0  0  0  0  0  0
  189.1370  175.6850  146.2130 C   0  0  0  0  0  2  0  0  0  0  0  0
  191.6600  176.2780  144.7840 O   0  0  0  0  0  0  0  0  0  0  0  0
  195.7800  171.9300  144.5900 C   0  0  0  0  0  2  0  0  0  0  0  0
  197.4750  176.4280  142.2620 O   0  0  0  0  0  0  0  0  0  0  0  0
  197.1360  173.9740  145.0410 C   0  0  0  0  0  2  0  0  0  0  0  0
  195.6080  175.0550  142.6450 C   0  0  0  0  0  2  0  0  0  0  0  0
  195.6080  173.5910  143.0120 C   0  0  0  0  0  2  0  0  0  0  0  0
  197.7080  174.9680  144.1520 O   0  0  0  0  0  0  0  0  0  0  0  0
  194.7460  174.0490  145.1800 O   0  0  0  0  0  0  0  0  0  0  0  0
  194.3260  171.7360  144.6720 C   0  0  2  0  0  3  0  0  0  0  0  0
  193.8450  173.0720  145.3750 C   0  0  2  0  0  3  0  0  0  0  0  0
  195.8050  173.4530  144.5260 C   0  0  1  0  0  0  0  0  0  0  0  0
  196.9310  175.5790  143.0720 C   0  0  0  0  0  0  0  0  0  0  0  0
  193.8630  170.5100  145.4270 C   0  0  0  0  0  2  0  0  0  0  0  0
  194.7760  170.2380  146.4940 O   0  0  0  0  0  0  0  0  0  0  0  0
  194.1600  168.1660  147.6110 N   0  0  0  0  0  1  0  0  0  0  0  0
  195.0820  168.8890  146.7270 C   0  0  0  0  0  0  0  0  0  0  0  0
  196.1810  168.2870  146.2270 N   0  0  0  0  0  2  0  0  0  0  0  0
  190.2410  169.9970  142.0270 F   0  0  0  0  0  0  0  0  0  0  0  0
  192.3720  169.3160  142.3970 F   0  0  0  0  0  0  0  0  0  0  0  0
  191.8510  170.2530  140.3700 F   0  0  0  0  0  0  0  0  0  0  0  0
  191.5740  170.2800  141.7530 C   0  0  0  0  0  0  0  0  0  0  0  0
  187.7430  176.8250  143.4320 C   0  0  1  0  0  3  0  0  0  0  0  0
  187.7360  175.8890  142.2880 C   0  0  0  0  0  0  0  0  0  0  0  0
  187.9130  176.3140  141.0360 O   0  0  0  0  0  0  0  0  0  0  0  0
  187.3660  174.4950  142.5540 O   0  0  0  0  0  1  0  0  0  0  0  0
  186.7860  176.3540  144.4600 O   0  0  0  0  0  0  0  0  0  0  0  0
  185.6700  177.1940  144.3920 C   0  0  1  0  0  3  0  0  0  0  0  0
  184.0730  178.4490  145.7470 O   0  0  0  0  0  0  0  0  0  0  0  0
  184.9840  177.5650  145.7120 C   0  0  0  0  0  0  0  0  0  0  0  0
  185.6590  177.0060  146.8490 O   0  0  0  0  0  0  0  0  0  0  0  0
  186.2620  177.8750  147.7770 C   0  0  0  0  0  1  0  0  0  0  0  0
  184.8760  178.5230  142.3590 C   0  0  0  0  0  1  0  0  0  0  0  0
  185.8770  178.4620  143.5420 C   0  0  0  0  0  2  0  0  0  0  0  0
  1 20  1  0  0  0  0
  2  7  1  0  0  0  0
  3  8  1  0  0  0  0
  4 10  2  0  0  0  0
  5 11  1  6  0  0  0
  5  8  1  0  0  0  0
  6 13  2  6  0  0  0
  6 19  1  0  0  0  0
  6 21  1  0  0  0  0
  9 18  1  6  0  0  0
  9  2  1  0  0  0  0
 10 12  1  0  0  0  0
 10  9  1  0  0  0  0
 12 17  1  0  0  0  0
 14  7  1  1  0  0  0
 14 16  1  0  0  0  0
 14 30  1  0  0  0  0
 16 21  1  6  0  0  0
 16  5  1  0  0  0  0
 17  6  1  0  0  0  0
 19 15  1  6  0  0  0
 19  1  1  0  0  0  0
 20  3  1  0  0  0  0
 22 29  1  0  0  0  0
 23 32  2  0  0  0  0
 25 26  1  0  0  0  0
 25 32  1  0  0  0  0
 27 24  1  0  0  0  0
 29 30  1  0  0  0  0
 29 33  1  1  0  0  0
 30 28  1  6  0  0  0
 31 26  1  6  0  0  0
 31 22  1  0  0  0  0
 31 24  1  0  0  0  0
 31 28  1  0  0  0  0
 32 27  1  0  0  0  0
 33 34  1  0  0  0  0
 34 36  1  0  0  0  0
 36 35  1  0  0  0  0
 37 36  2  0  0  0  0
 40 41  1  0  0  0  0
 41 38  1  0  0  0  0
 41  9  1  0  0  0  0
 41 39  1  0  0  0  0
 42 43  1  6  0  0  0
 42 19  1  0  0  0  0
 42 46  1  0  0  0  0
 43 45  1  0  0  0  0
 44 43  2  0  0  0  0
 47 53  1  1  0  0  0
 47 46  1  0  0  0  0
 47 49  1  0  0  0  0
 49 48  2  0  0  0  0
 49 50  1  0  0  0  0
 50 51  1  0  0  0  0
 52 53  1  0  0  0  0
M  END
>  <MODEL>
5

>  <REMARK>
 VINA RESULT:      -6.2      2.283      3.174
  Name = 
  12 active torsions:
  status: ('A' for Active; 'I' for Inactive)
    1  A    between atoms: C_2  and  C_30
    2  A    between atoms: C_2  and  O_31
    3  A    between atoms: C_5  and  C_15
    4  A    between atoms: O_6  and  C_44
    5  A    between atoms: C_15  and  O_26
    6  A    between atoms: C_15  and  C_51
    7  A    between atoms: C_18  and  O_31
    8  A    between atoms: C_22  and  C_32
    9  A    between atoms: O_26  and  C_39
   10  A    between atoms: C_36  and  C_45
   11  A    between atoms: C_39  and  C_44
   12  A    between atoms: C_39  and  C_49
                            x       y       z     vdW  Elec       q    Type
                         _______ _______ _______ _____ _____    ______ ____

>  <TORSDO>
F 12

$$$$
=
 OpenBabel11062420313D

 53 56  0  0  1  0  0  0  0  0999 V2000
  191.8140  172.0570  141.3920 C   0  0  0  0  0  2  0  0  0  0  0  0
  190.0180  175.6660  146.7090 O   0  0  0  0  0  0  0  0  0  0  0  0
  189.6830  171.5150  142.4410 C   0  0  0  0  0  2  0  0  0  0  0  0
  193.3450  176.4710  146.0960 O   0  0  0  0  0  0  0  0  0  0  0  0
  188.4790  173.7260  142.6970 C   0  0  2  0  0  3  0  0  0  0  0  0
  192.1160  174.7800  142.3410 P   0  0  2  0  0  0  0  0  0  0  0  0
  190.0520  174.6140  145.7410 C   0  0  0  0  0  2  0  0  0  0  0  0
  188.6170  172.3170  143.1500 C   0  0  0  0  0  2  0  0  0  0  0  0
  191.0030  176.6630  146.6970 C   0  0  1  0  0  0  0  0  0  0  0  0
  192.1790  176.4290  145.7110 C   0  0  0  0  0  0  0  0  0  0  0  0
  188.1940  173.8280  141.3060 O   0  0  0  0  0  1  0  0  0  0  0  0
  192.1420  176.2410  144.3100 C   0  0  0  0  0  2  0  0  0  0  0  0
  192.5720  175.9880  141.4710 O   0  0  0  0  0  0  0  0  0  0  0  0
  189.3580  175.1890  144.5100 C   0  0  1  0  0  3  0  0  0  0  0  0
  193.1280  173.4870  140.0640 C   0  0  0  0  0  1  0  0  0  0  0  0
  189.7210  174.4250  143.1180 C   0  0  2  0  0  3  0  0  0  0  0  0
  192.5070  174.9250  144.0400 O   0  0  0  0  0  0  0  0  0  0  0  0
  190.3870  177.9170  146.3920 F   0  0  0  0  0  0  0  0  0  0  0  0
  192.8350  173.2730  141.5610 C   0  0  2  0  0  0  0  0  0  0  0  0
  191.1160  171.7910  142.7130 C   0  0  0  0  0  2  0  0  0  0  0  0
  190.4760  174.5690  141.9190 O   0  0  0  0  0  0  0  0  0  0  0  0
  186.8600  177.8870  144.5770 C   0  0  0  0  0  2  0  0  0  0  0  0
  187.0670  177.8420  139.2410 O   0  0  0  0  0  0  0  0  0  0  0  0
  185.5520  177.1760  142.5760 C   0  0  0  0  0  2  0  0  0  0  0  0
  188.2610  177.3730  141.2090 C   0  0  0  0  0  2  0  0  0  0  0  0
  188.0080  177.9310  142.5880 C   0  0  0  0  0  2  0  0  0  0  0  0
  185.6790  177.5140  141.1710 O   0  0  0  0  0  0  0  0  0  0  0  0
  187.3310  175.8070  143.4130 O   0  0  0  0  0  0  0  0  0  0  0  0
  187.9380  177.1870  145.2860 C   0  0  2  0  0  3  0  0  0  0  0  0
  187.8960  175.7460  144.6300 C   0  0  2  0  0  3  0  0  0  0  0  0
  186.9050  177.1120  143.2660 C   0  0  1  0  0  0  0  0  0  0  0  0
  186.9710  177.4900  140.4820 C   0  0  0  0  0  0  0  0  0  0  0  0
  187.8070  177.1200  146.7920 C   0  0  0  0  0  2  0  0  0  0  0  0
  186.4220  177.1250  147.1470 O   0  0  0  0  0  0  0  0  0  0  0  0
  184.5270  178.6460  147.2700 N   0  0  0  0  0  2  0  0  0  0  0  0
  185.9090  178.3310  147.6480 C   0  0  0  0  0  0  0  0  0  0  0  0
  186.6420  179.1910  148.3850 N   0  0  0  0  0  1  0  0  0  0  0  0
  192.7160  177.1910  148.3660 F   0  0  0  0  0  0  0  0  0  0  0  0
  191.2650  175.4930  148.7580 F   0  0  0  0  0  0  0  0  0  0  0  0
  190.4840  177.6470  148.8270 F   0  0  0  0  0  0  0  0  0  0  0  0
  191.3990  176.7780  148.1980 C   0  0  0  0  0  0  0  0  0  0  0  0
  194.2380  172.7670  142.1840 C   0  0  1  0  0  3  0  0  0  0  0  0
  194.9810  171.7370  141.4280 C   0  0  0  0  0  0  0  0  0  0  0  0
  194.7400  170.4360  141.5970 O   0  0  0  0  0  1  0  0  0  0  0  0
  196.1090  172.1820  140.6020 O   0  0  0  0  0  0  0  0  0  0  0  0
  195.1210  173.9300  142.4300 O   0  0  0  0  0  0  0  0  0  0  0  0
  195.7120  173.7360  143.6840 C   0  0  1  0  0  3  0  0  0  0  0  0
  196.1620  174.8950  145.7840 O   0  0  0  0  0  0  0  0  0  0  0  0
  196.0020  174.9820  144.5280 C   0  0  0  0  0  0  0  0  0  0  0  0
  195.8120  176.1960  143.7850 O   0  0  0  0  0  0  0  0  0  0  0  0
  196.9210  176.7830  143.1460 C   0  0  0  0  0  1  0  0  0  0  0  0
  196.0350  171.6180  145.0760 C   0  0  0  0  0  1  0  0  0  0  0  0
  195.0220  172.6700  144.5550 C   0  0  0  0  0  2  0  0  0  0  0  0
  1 19  1  0  0  0  0
  1 20  1  0  0  0  0
  3 20  1  0  0  0  0
  3  8  1  0  0  0  0
  5 11  1  6  0  0  0
  5 16  1  0  0  0  0
  5  8  1  0  0  0  0
  6 13  2  6  0  0  0
  6 17  1  0  0  0  0
  7  2  1  0  0  0  0
  9 18  1  6  0  0  0
  9  2  1  0  0  0  0
  9 41  1  0  0  0  0
 10  4  2  0  0  0  0
 10  9  1  0  0  0  0
 12 10  1  0  0  0  0
 14 30  1  0  0  0  0
 14  7  1  1  0  0  0
 16 21  1  6  0  0  0
 16 14  1  0  0  0  0
 17 12  1  0  0  0  0
 19 15  1  6  0  0  0
 19 42  1  0  0  0  0
 19  6  1  0  0  0  0
 21  6  1  0  0  0  0
 22 29  1  0  0  0  0
 23 32  2  0  0  0  0
 25 26  1  0  0  0  0
 26 31  1  0  0  0  0
 27 24  1  0  0  0  0
 29 33  1  1  0  0  0
 30 28  1  6  0  0  0
 30 29  1  0  0  0  0
 31 24  1  6  0  0  0
 31 28  1  0  0  0  0
 31 22  1  0  0  0  0
 32 27  1  0  0  0  0
 32 25  1  0  0  0  0
 33 34  1  0  0  0  0
 34 36  1  0  0  0  0
 35 36  2  0  0  0  0
 36 37  1  0  0  0  0
 41 38  1  0  0  0  0
 41 39  1  0  0  0  0
 41 40  1  0  0  0  0
 42 43  1  6  0  0  0
 42 46  1  0  0  0  0
 43 44  1  0  0  0  0
 45 43  2  0  0  0  0
 46 47  1  0  0  0  0
 47 49  1  0  0  0  0
 47 53  1  1  0  0  0
 49 48  2  0  0  0  0
 50 49  1  0  0  0  0
 51 50  1  0  0  0  0
 53 52  1  0  0  0  0
M  END
>  <MODEL>
6

>  <REMARK>
 VINA RESULT:      -5.9      4.065      8.871
  Name = 
  12 active torsions:
  status: ('A' for Active; 'I' for Inactive)
    1  A    between atoms: C_2  and  C_30
    2  A    between atoms: C_2  and  O_31
    3  A    between atoms: C_5  and  C_15
    4  A    between atoms: O_6  and  C_44
    5  A    between atoms: C_15  and  O_26
    6  A    between atoms: C_15  and  C_51
    7  A    between atoms: C_18  and  O_31
    8  A    between atoms: C_22  and  C_32
    9  A    between atoms: O_26  and  C_39
   10  A    between atoms: C_36  and  C_45
   11  A    between atoms: C_39  and  C_44
   12  A    between atoms: C_39  and  C_49
                            x       y       z     vdW  Elec       q    Type
                         _______ _______ _______ _____ _____    ______ ____

>  <TORSDO>
F 12

$$$$
=
 OpenBabel11062420313D

 53 56  0  0  1  0  0  0  0  0999 V2000
  189.3340  172.8110  141.2540 C   0  0  0  0  0  2  0  0  0  0  0  0
  195.7640  174.5880  141.3590 O   0  0  0  0  0  0  0  0  0  0  0  0
  190.7310  172.0560  139.4050 C   0  0  0  0  0  2  0  0  0  0  0  0
  194.2200  176.4630  143.8470 O   0  0  0  0  0  0  0  0  0  0  0  0
  192.7820  171.0420  140.4850 C   0  0  2  0  0  3  0  0  0  0  0  0
  191.4010  173.2790  143.2320 P   0  0  2  0  0  0  0  0  0  0  0  0
  194.5040  174.1090  140.8810 C   0  0  0  0  0  2  0  0  0  0  0  0
  192.1790  171.6490  139.2700 C   0  0  0  0  0  2  0  0  0  0  0  0
  195.8630  175.1490  142.6390 C   0  0  1  0  0  0  0  0  0  0  0  0
  194.5160  175.3660  143.3780 C   0  0  0  0  0  0  0  0  0  0  0  0
  192.0820  169.8810  140.9210 O   0  0  0  0  0  1  0  0  0  0  0  0
  193.5190  174.4190  143.7090 C   0  0  0  0  0  2  0  0  0  0  0  0
  191.3270  172.8490  144.7270 O   0  0  0  0  0  0  0  0  0  0  0  0
  194.3850  172.6930  141.4360 C   0  0  1  0  0  3  0  0  0  0  0  0
  188.6760  172.6580  143.5080 C   0  0  0  0  0  1  0  0  0  0  0  0
  192.8600  172.1240  141.5000 C   0  0  2  0  0  3  0  0  0  0  0  0
  192.3930  174.6900  142.9360 O   0  0  0  0  0  0  0  0  0  0  0  0
  196.7030  174.3170  143.4440 F   0  0  0  0  0  0  0  0  0  0  0  0
  189.6600  173.4890  142.6620 C   0  0  2  0  0  0  0  0  0  0  0  0
  190.3700  173.2370  140.2310 C   0  0  0  0  0  2  0  0  0  0  0  0
  191.8020  171.8390  142.4110 O   0  0  0  0  0  0  0  0  0  0  0  0
  197.8430  171.4420  141.5020 C   0  0  0  0  0  2  0  0  0  0  0  0
  196.8810  169.8470  146.5080 O   0  0  0  0  0  0  0  0  0  0  0  0
  197.4250  169.3880  142.8530 C   0  0  0  0  0  2  0  0  0  0  0  0
  196.2800  171.3860  144.8380 C   0  0  0  0  0  2  0  0  0  0  0  0
  197.1010  171.8100  143.6450 C   0  0  0  0  0  2  0  0  0  0  0  0
  197.4570  169.1510  144.2840 O   0  0  0  0  0  0  0  0  0  0  0  0
  195.5980  170.7590  142.1330 O   0  0  0  0  0  0  0  0  0  0  0  0
  196.8840  172.3850  140.9130 C   0  0  2  0  0  3  0  0  0  0  0  0
  195.5030  171.6370  141.1210 C   0  0  2  0  0  3  0  0  0  0  0  0
  196.9220  170.7830  142.5220 C   0  0  1  0  0  0  0  0  0  0  0  0
  196.7990  170.0510  145.2330 C   0  0  0  0  0  0  0  0  0  0  0  0
  197.1120  172.7440  139.4620 C   0  0  0  0  0  2  0  0  0  0  0  0
  196.2670  171.9380  138.6360 O   0  0  0  0  0  0  0  0  0  0  0  0
  194.8050  173.2150  137.1690 N   0  0  0  0  0  1  0  0  0  0  0  0
  196.0220  172.4140  137.3400 C   0  0  0  0  0  0  0  0  0  0  0  0
  196.8120  172.1170  136.2870 N   0  0  0  0  0  2  0  0  0  0  0  0
  196.9140  177.1610  143.5570 F   0  0  0  0  0  0  0  0  0  0  0  0
  195.9780  177.2370  141.4930 F   0  0  0  0  0  0  0  0  0  0  0  0
  197.9190  176.0490  141.7810 F   0  0  0  0  0  0  0  0  0  0  0  0
  196.7070  176.4330  142.3910 C   0  0  0  0  0  0  0  0  0  0  0  0
  189.0820  174.9970  142.7250 C   0  0  1  0  0  3  0  0  0  0  0  0
  187.8260  175.2700  141.9950 C   0  0  0  0  0  0  0  0  0  0  0  0
  187.8290  175.6430  140.7140 O   0  0  0  0  0  0  0  0  0  0  0  0
  186.5790  175.2760  142.7680 O   0  0  0  0  0  1  0  0  0  0  0  0
  188.9300  175.4110  144.1390 O   0  0  0  0  0  0  0  0  0  0  0  0
  189.1020  176.8000  144.1770 C   0  0  1  0  0  3  0  0  0  0  0  0
  187.9280  177.5040  146.1980 O   0  0  0  0  0  0  0  0  0  0  0  0
  188.0560  177.6200  144.9400 C   0  0  0  0  0  0  0  0  0  0  0  0
  187.1370  178.2820  144.0580 O   0  0  0  0  0  0  0  0  0  0  0  0
  185.9680  178.8510  144.5960 C   0  0  0  0  0  1  0  0  0  0  0  0
  191.1410  178.1900  143.5160 C   0  0  0  0  0  1  0  0  0  0  0  0
  190.5160  177.2560  144.5840 C   0  0  0  0  0  2  0  0  0  0  0  0
  1 19  1  0  0  0  0
  2  9  1  0  0  0  0
  3 20  1  0  0  0  0
  5 11  1  1  0  0  0
  5 16  1  0  0  0  0
  6 13  2  1  0  0  0
  7  2  1  0  0  0  0
  8  3  1  0  0  0  0
  8  5  1  0  0  0  0
  9 10  1  0  0  0  0
  9 18  1  1  0  0  0
 10 12  1  0  0  0  0
 10  4  2  0  0  0  0
 14  7  1  6  0  0  0
 14 16  1  0  0  0  0
 16 21  1  1  0  0  0
 17  6  1  0  0  0  0
 17 12  1  0  0  0  0
 19 42  1  0  0  0  0
 19  6  1  0  0  0  0
 19 15  1  1  0  0  0
 20  1  1  0  0  0  0
 21  6  1  0  0  0  0
 24 27  1  0  0  0  0
 25 32  1  0  0  0  0
 26 25  1  0  0  0  0
 27 32  1  0  0  0  0
 28 31  1  0  0  0  0
 29 33  1  6  0  0  0
 29 30  1  0  0  0  0
 29 22  1  0  0  0  0
 30 14  1  0  0  0  0
 30 28  1  1  0  0  0
 31 22  1  6  0  0  0
 31 24  1  0  0  0  0
 31 26  1  0  0  0  0
 32 23  2  0  0  0  0
 34 33  1  0  0  0  0
 35 36  1  0  0  0  0
 36 34  1  0  0  0  0
 37 36  2  0  0  0  0
 39 41  1  0  0  0  0
 40 41  1  0  0  0  0
 41  9  1  0  0  0  0
 41 38  1  0  0  0  0
 42 43  1  1  0  0  0
 42 46  1  0  0  0  0
 43 45  1  0  0  0  0
 44 43  2  0  0  0  0
 46 47  1  0  0  0  0
 47 53  1  1  0  0  0
 47 49  1  0  0  0  0
 49 48  2  0  0  0  0
 50 51  1  0  0  0  0
 50 49  1  0  0  0  0
 52 53  1  0  0  0  0
M  END
>  <MODEL>
7

>  <REMARK>
 VINA RESULT:      -5.8      3.283      5.908
  Name = 
  12 active torsions:
  status: ('A' for Active; 'I' for Inactive)
    1  A    between atoms: C_2  and  C_30
    2  A    between atoms: C_2  and  O_31
    3  A    between atoms: C_5  and  C_15
    4  A    between atoms: O_6  and  C_44
    5  A    between atoms: C_15  and  O_26
    6  A    between atoms: C_15  and  C_51
    7  A    between atoms: C_18  and  O_31
    8  A    between atoms: C_22  and  C_32
    9  A    between atoms: O_26  and  C_39
   10  A    between atoms: C_36  and  C_45
   11  A    between atoms: C_39  and  C_44
   12  A    between atoms: C_39  and  C_49
                            x       y       z     vdW  Elec       q    Type
                         _______ _______ _______ _____ _____    ______ ____

>  <TORSDO>
F 12

$$$$
=
 OpenBabel11062420313D

 53 56  0  0  1  0  0  0  0  0999 V2000
  191.3350  170.0070  140.4940 C   0  0  0  0  0  2  0  0  0  0  0  0
  195.7720  174.4200  142.8070 O   0  0  0  0  0  0  0  0  0  0  0  0
  192.5370  169.4190  142.5300 C   0  0  0  0  0  2  0  0  0  0  0  0
  194.9040  175.5260  139.6270 O   0  0  0  0  0  0  0  0  0  0  0  0
  192.3320  171.4410  144.0380 C   0  0  2  0  0  3  0  0  0  0  0  0
  191.6510  172.8880  140.5880 P   0  0  2  0  0  0  0  0  0  0  0  0
  195.0600  173.1950  142.6200 C   0  0  0  0  0  2  0  0  0  0  0  0
  193.0810  170.2010  143.7020 C   0  0  0  0  0  2  0  0  0  0  0  0
  195.5140  175.5180  141.9750 C   0  0  1  0  0  0  0  0  0  0  0  0
  194.5710  175.2370  140.7740 C   0  0  0  0  0  0  0  0  0  0  0  0
  190.9620  171.1900  144.3290 O   0  0  0  0  0  1  0  0  0  0  0  0
  193.2470  174.7390  140.7780 C   0  0  0  0  0  2  0  0  0  0  0  0
  190.5240  173.9240  140.3050 O   0  0  0  0  0  0  0  0  0  0  0  0
  193.7520  173.3780  143.3840 C   0  0  1  0  0  3  0  0  0  0  0  0
  189.6870  171.2760  139.3920 C   0  0  0  0  0  1  0  0  0  0  0  0
  192.5540  172.3820  142.9110 C   0  0  2  0  0  3  0  0  0  0  0  0
  193.2650  173.4610  140.2270 O   0  0  0  0  0  0  0  0  0  0  0  0
  194.9570  176.5730  142.7630 F   0  0  0  0  0  0  0  0  0  0  0  0
  191.2030  171.3610  139.6570 C   0  0  2  0  0  0  0  0  0  0  0  0
  192.7010  169.9460  141.1510 C   0  0  0  0  0  2  0  0  0  0  0  0
  191.3320  172.3600  142.1790 O   0  0  0  0  0  0  0  0  0  0  0  0
  194.4130  175.6230  146.2220 C   0  0  0  0  0  2  0  0  0  0  0  0
  189.7040  177.9080  145.1580 O   0  0  0  0  0  0  0  0  0  0  0  0
  192.0740  175.7710  147.0760 C   0  0  0  0  0  2  0  0  0  0  0  0
  191.5020  176.7060  144.2400 C   0  0  0  0  0  2  0  0  0  0  0  0
  192.9040  176.5940  144.7880 C   0  0  0  0  0  2  0  0  0  0  0  0
  190.9940  176.6920  146.7760 O   0  0  0  0  0  0  0  0  0  0  0  0
  192.6180  174.2850  145.2770 O   0  0  0  0  0  0  0  0  0  0  0  0
  194.9750  174.7520  145.1820 C   0  0  2  0  0  3  0  0  0  0  0  0
  193.7880  173.7380  144.9120 C   0  0  2  0  0  3  0  0  0  0  0  0
  192.9390  175.4960  145.8570 C   0  0  1  0  0  0  0  0  0  0  0  0
  190.6400  177.0470  145.4000 C   0  0  0  0  0  0  0  0  0  0  0  0
  196.2550  174.0310  145.5410 C   0  0  0  0  0  2  0  0  0  0  0  0
  195.9420  172.7180  146.0160 O   0  0  0  0  0  0  0  0  0  0  0  0
  197.8240  172.0410  144.6320 N   0  0  0  0  0  2  0  0  0  0  0  0
  196.8260  171.6930  145.6500 C   0  0  0  0  0  0  0  0  0  0  0  0
  196.7450  170.4410  146.1450 N   0  0  0  0  0  1  0  0  0  0  0  0
  197.6180  175.1200  140.7880 F   0  0  0  0  0  0  0  0  0  0  0  0
  197.6570  176.1430  142.8110 F   0  0  0  0  0  0  0  0  0  0  0  0
  196.8190  177.2910  141.0120 F   0  0  0  0  0  0  0  0  0  0  0  0
  196.9410  176.0180  141.6050 C   0  0  0  0  0  0  0  0  0  0  0  0
  191.8830  171.2080  138.1990 C   0  0  1  0  0  3  0  0  0  0  0  0
  192.1530  169.8360  137.7200 C   0  0  0  0  0  0  0  0  0  0  0  0
  193.3870  169.3310  137.7050 O   0  0  0  0  0  1  0  0  0  0  0  0
  191.0420  169.0990  137.1080 O   0  0  0  0  0  0  0  0  0  0  0  0
  191.0690  171.9300  137.1940 O   0  0  0  0  0  0  0  0  0  0  0  0
  191.7150  173.1450  136.9430 C   0  0  1  0  0  3  0  0  0  0  0  0
  193.1620  172.4250  135.1140 O   0  0  0  0  0  0  0  0  0  0  0  0
  193.0470  173.0940  136.1860 C   0  0  0  0  0  0  0  0  0  0  0  0
  194.1270  173.6480  136.9530 O   0  0  0  0  0  0  0  0  0  0  0  0
  195.2740  172.8630  137.1780 C   0  0  0  0  0  1  0  0  0  0  0  0
  189.3570  174.1270  136.8570 C   0  0  0  0  0  1  0  0  0  0  0  0
  190.8120  174.2320  136.3300 C   0  0  0  0  0  2  0  0  0  0  0  0
  1 20  1  0  0  0  0
  3  8  1  0  0  0  0
  4 10  2  0  0  0  0
  5 11  1  6  0  0  0
  6 13  2  6  0  0  0
  6 21  1  0  0  0  0
  7  2  1  0  0  0  0
  8  5  1  0  0  0  0
  9 18  1  1  0  0  0
  9  2  1  0  0  0  0
 10 12  1  0  0  0  0
 10  9  1  0  0  0  0
 14  7  1  1  0  0  0
 14 30  1  0  0  0  0
 16 21  1  1  0  0  0
 16 14  1  0  0  0  0
 16  5  1  0  0  0  0
 17  6  1  0  0  0  0
 17 12  1  0  0  0  0
 19 15  1  6  0  0  0
 19  1  1  0  0  0  0
 19  6  1  0  0  0  0
 20  3  1  0  0  0  0
 23 32  2  0  0  0  0
 25 26  1  0  0  0  0
 25 32  1  0  0  0  0
 27 24  1  0  0  0  0
 28 31  1  0  0  0  0
 29 33  1  1  0  0  0
 29 22  1  0  0  0  0
 30 29  1  0  0  0  0
 30 28  1  6  0  0  0
 31 26  1  6  0  0  0
 31 22  1  0  0  0  0
 31 24  1  0  0  0  0
 32 27  1  0  0  0  0
 33 34  1  0  0  0  0
 35 36  2  0  0  0  0
 36 34  1  0  0  0  0
 36 37  1  0  0  0  0
 38 41  1  0  0  0  0
 40 41  1  0  0  0  0
 41  9  1  0  0  0  0
 41 39  1  0  0  0  0
 42 46  1  6  0  0  0
 42 19  1  0  0  0  0
 43 42  1  0  0  0  0
 44 43  1  0  0  0  0
 45 43  2  0  0  0  0
 47 53  1  6  0  0  0
 47 46  1  0  0  0  0
 48 49  2  0  0  0  0
 49 47  1  0  0  0  0
 49 50  1  0  0  0  0
 50 51  1  0  0  0  0
 53 52  1  0  0  0  0
M  END
>  <MODEL>
8

>  <REMARK>
 VINA RESULT:      -5.8      3.373      7.716
  Name = 
  12 active torsions:
  status: ('A' for Active; 'I' for Inactive)
    1  A    between atoms: C_2  and  C_30
    2  A    between atoms: C_2  and  O_31
    3  A    between atoms: C_5  and  C_15
    4  A    between atoms: O_6  and  C_44
    5  A    between atoms: C_15  and  O_26
    6  A    between atoms: C_15  and  C_51
    7  A    between atoms: C_18  and  O_31
    8  A    between atoms: C_22  and  C_32
    9  A    between atoms: O_26  and  C_39
   10  A    between atoms: C_36  and  C_45
   11  A    between atoms: C_39  and  C_44
   12  A    between atoms: C_39  and  C_49
                            x       y       z     vdW  Elec       q    Type
                         _______ _______ _______ _____ _____    ______ ____

>  <TORSDO>
F 12

$$$$
=
 OpenBabel11062420313D

 53 56  0  0  1  0  0  0  0  0999 V2000
  190.8050  177.3680  145.8350 C   0  0  0  0  0  2  0  0  0  0  0  0
  191.8910  171.5180  142.8160 O   0  0  0  0  0  0  0  0  0  0  0  0
  191.7510  175.5740  147.1850 C   0  0  0  0  0  2  0  0  0  0  0  0
  189.9860  173.3940  140.5930 O   0  0  0  0  0  0  0  0  0  0  0  0
  193.6870  174.6650  145.8320 C   0  0  2  0  0  3  0  0  0  0  0  0
  191.5680  176.4170  143.2050 P   0  0  2  0  0  0  0  0  0  0  0  0
  191.7190  172.4920  143.8490 C   0  0  0  0  0  2  0  0  0  0  0  0
  192.6920  174.4250  146.9090 C   0  0  0  0  0  2  0  0  0  0  0  0
  191.6410  171.8580  141.4800 C   0  0  1  0  0  0  0  0  0  0  0  0
  191.0120  173.2600  141.2550 C   0  0  0  0  0  0  0  0  0  0  0  0
  194.5090  175.7980  146.0890 O   0  0  0  0  0  1  0  0  0  0  0  0
  191.5020  174.5280  141.6420 C   0  0  0  0  0  2  0  0  0  0  0  0
  192.1710  177.2990  142.0720 O   0  0  0  0  0  0  0  0  0  0  0  0
  193.0300  173.2720  143.8750 C   0  0  1  0  0  3  0  0  0  0  0  0
  191.0440  179.0040  144.1610 C   0  0  0  0  0  1  0  0  0  0  0  0
  192.9190  174.7450  144.5630 C   0  0  2  0  0  3  0  0  0  0  0  0
  190.6660  175.0290  142.6360 O   0  0  0  0  0  0  0  0  0  0  0  0
  192.8670  171.7780  140.7470 F   0  0  0  0  0  0  0  0  0  0  0  0
  190.5660  177.5430  144.2660 C   0  0  2  0  0  0  0  0  0  0  0  0
  190.6820  175.9020  146.2080 C   0  0  0  0  0  2  0  0  0  0  0  0
  192.8870  176.1340  144.2480 O   0  0  0  0  0  0  0  0  0  0  0  0
  195.5680  170.7600  142.9970 C   0  0  0  0  0  2  0  0  0  0  0  0
  197.3930  174.2600  139.3990 O   0  0  0  0  0  0  0  0  0  0  0  0
  197.4590  172.3330  142.5840 C   0  0  0  0  0  2  0  0  0  0  0  0
  195.5030  173.5650  140.6090 C   0  0  0  0  0  2  0  0  0  0  0  0
  195.2680  172.2170  141.2470 C   0  0  0  0  0  2  0  0  0  0  0  0
  197.9070  173.0070  141.3810 O   0  0  0  0  0  0  0  0  0  0  0  0
  195.3710  173.1420  143.4350 O   0  0  0  0  0  0  0  0  0  0  0  0
  194.2380  171.0250  143.5610 C   0  0  2  0  0  3  0  0  0  0  0  0
  194.3850  172.5100  144.0910 C   0  0  2  0  0  3  0  0  0  0  0  0
  195.9470  172.1870  142.6210 C   0  0  1  0  0  0  0  0  0  0  0  0
  196.9770  173.7060  140.4920 C   0  0  0  0  0  0  0  0  0  0  0  0
  193.7820  170.0840  144.6540 C   0  0  0  0  0  2  0  0  0  0  0  0
  194.8720  169.2400  145.0370 O   0  0  0  0  0  0  0  0  0  0  0  0
  196.6110  170.1170  146.4950 N   0  0  0  0  0  2  0  0  0  0  0  0
  195.3460  169.3880  146.3490 C   0  0  0  0  0  0  0  0  0  0  0  0
  194.7260  168.8500  147.4200 N   0  0  0  0  0  1  0  0  0  0  0  0
  191.4370  169.4370  141.1770 F   0  0  0  0  0  0  0  0  0  0  0  0
  190.6350  170.8310  139.5780 F   0  0  0  0  0  0  0  0  0  0  0  0
  189.5340  170.7080  141.5860 F   0  0  0  0  0  0  0  0  0  0  0  0
  190.7990  170.6540  140.9650 C   0  0  0  0  0  0  0  0  0  0  0  0
  188.9870  177.6030  143.9250 C   0  0  1  0  0  3  0  0  0  0  0  0
  188.5980  177.4850  142.5040 C   0  0  0  0  0  0  0  0  0  0  0  0
  188.0860  176.3560  142.0110 O   0  0  0  0  0  1  0  0  0  0  0  0
  188.9420  178.5970  141.6110 O   0  0  0  0  0  0  0  0  0  0  0  0
  188.2690  176.5810  144.7200 O   0  0  0  0  0  0  0  0  0  0  0  0
  187.3540  177.2630  145.5300 C   0  0  1  0  0  3  0  0  0  0  0  0
  185.3330  176.9610  144.1960 O   0  0  0  0  0  0  0  0  0  0  0  0
  186.0570  177.7510  144.8760 C   0  0  0  0  0  0  0  0  0  0  0  0
  185.9360  179.1820  144.9150 O   0  0  0  0  0  0  0  0  0  0  0  0
  184.8450  179.7890  144.2660 C   0  0  0  0  0  1  0  0  0  0  0  0
  185.9520  177.3270  147.6660 C   0  0  0  0  0  1  0  0  0  0  0  0
  187.0300  176.5560  146.8600 C   0  0  0  0  0  2  0  0  0  0  0  0
  1 20  1  0  0  0  0
  2  7  1  0  0  0  0
  4 10  2  0  0  0  0
  5 11  1  1  0  0  0
  5  8  1  0  0  0  0
  6 13  2  6  0  0  0
  6 21  1  0  0  0  0
  6 19  1  0  0  0  0
  8  3  1  0  0  0  0
  9 18  1  6  0  0  0
  9  2  1  0  0  0  0
 10  9  1  0  0  0  0
 10 12  1  0  0  0  0
 12 17  1  0  0  0  0
 14  7  1  1  0  0  0
 14 30  1  0  0  0  0
 14 16  1  0  0  0  0
 16 21  1  6  0  0  0
 16  5  1  0  0  0  0
 17  6  1  0  0  0  0
 19 15  1  6  0  0  0
 19  1  1  0  0  0  0
 20  3  1  0  0  0  0
 22 29  1  0  0  0  0
 23 32  2  0  0  0  0
 24 31  1  0  0  0  0
 25 26  1  0  0  0  0
 27 24  1  0  0  0  0
 29 30  1  0  0  0  0
 29 33  1  1  0  0  0
 30 28  1  6  0  0  0
 31 26  1  6  0  0  0
 31 22  1  0  0  0  0
 31 28  1  0  0  0  0
 32 25  1  0  0  0  0
 32 27  1  0  0  0  0
 33 34  1  0  0  0  0
 34 36  1  0  0  0  0
 36 35  2  0  0  0  0
 36 37  1  0  0  0  0
 39 41  1  0  0  0  0
 41 38  1  0  0  0  0
 41  9  1  0  0  0  0
 41 40  1  0  0  0  0
 42 43  1  6  0  0  0
 42 19  1  0  0  0  0
 42 46  1  0  0  0  0
 44 43  1  0  0  0  0
 45 43  2  0  0  0  0
 46 47  1  0  0  0  0
 47 53  1  1  0  0  0
 48 49  2  0  0  0  0
 49 50  1  0  0  0  0
 49 47  1  0  0  0  0
 51 50  1  0  0  0  0
 53 52  1  0  0  0  0
M  END
>  <MODEL>
9

>  <REMARK>
 VINA RESULT:      -5.5      1.544      2.397
  Name = 
  12 active torsions:
  status: ('A' for Active; 'I' for Inactive)
    1  A    between atoms: C_2  and  C_30
    2  A    between atoms: C_2  and  O_31
    3  A    between atoms: C_5  and  C_15
    4  A    between atoms: O_6  and  C_44
    5  A    between atoms: C_15  and  O_26
    6  A    between atoms: C_15  and  C_51
    7  A    between atoms: C_18  and  O_31
    8  A    between atoms: C_22  and  C_32
    9  A    between atoms: O_26  and  C_39
   10  A    between atoms: C_36  and  C_45
   11  A    between atoms: C_39  and  C_44
   12  A    between atoms: C_39  and  C_49
                            x       y       z     vdW  Elec       q    Type
                         _______ _______ _______ _____ _____    ______ ____

>  <TORSDO>
F 12

$$$$
