=
 OpenBabel11072408493D

 26 29  0  0  1  0  0  0  0  0999 V2000
  190.1960  177.1770  144.4800 C   0  0  2  0  0  3  0  0  0  0  0  0
  191.4170  177.8640  143.9030 C   0  0  0  0  0  2  0  0  0  0  0  0
  191.7260  175.4730  143.5320 N   0  0  0  0  0  0  0  0  0  0  0  0
  189.5260  174.6120  144.4960 C   0  0  1  0  0  3  0  0  0  0  0  0
  190.5150  174.9170  145.5450 N   0  0  0  0  0  0  0  0  0  0  0  0
  192.4300  176.7520  143.6230 C   0  0  0  0  0  2  0  0  0  0  0  0
  190.4950  175.6990  144.2820 C   0  0  2  0  0  0  0  0  0  0  0  0
  189.9060  173.4400  143.8370 O   0  0  0  0  0  1  0  0  0  0  0  0
  185.2840  178.2260  145.8600 C   0  0  0  0  0  0  0  0  0  0  0  0
  185.2930  178.3850  144.5300 C   0  0  0  0  0  0  0  0  0  0  0  0
  187.8390  178.0670  141.7030 C   0  0  0  0  0  3  0  0  0  0  0  0
  187.7510  177.7730  144.5100 C   0  0  1  0  0  3  0  0  0  0  0  0
  186.5100  177.7830  146.6270 C   0  0  0  0  0  3  0  0  0  0  0  0
  184.1160  178.4600  146.5750 O   0  0  0  0  0  1  0  0  0  0  0  0
  188.9610  177.7280  142.3450 C   0  0  0  0  0  3  0  0  0  0  0  0
  188.9750  177.5770  143.7790 N   0  0  0  0  0  0  0  0  0  0  0  0
  187.7140  177.6230  145.8020 N   0  0  0  0  0  0  0  0  0  0  0  0
  184.1070  178.7990  143.8540 N   0  0  0  0  0  1  0  0  0  0  0  0
  186.5330  178.1540  143.7750 C   0  0  0  0  0  0  0  0  0  0  0  0
  186.5840  178.2910  142.4450 C   0  0  0  0  0  3  0  0  0  0  0  0
  189.8280  175.5620  146.5220 O   0  0  0  0  0  0  0  0  0  0  0  0
  191.3400  176.6230  148.0160 C   0  0  0  0  0  1  0  0  0  0  0  0
  190.5810  175.3570  147.6790 C   0  0  0  0  0  2  0  0  0  0  0  0
  191.3870  175.2800  142.1260 C   0  0  0  0  0  2  0  0  0  0  0  0
  191.4840  173.6680  140.6260 C   0  0  0  0  0  1  0  0  0  0  0  0
  192.2640  174.3600  141.5510 O   0  0  0  0  0  0  0  0  0  0  0  0
  1 16  1  6  0  0  0
  2  1  1  0  0  0  0
  3  6  1  0  0  0  0
  4  8  1  6  0  0  0
  4  5  1  0  0  0  0
  5 21  1  0  0  0  0
  6  2  1  0  0  0  0
  7  3  1  6  0  0  0
  7  1  1  0  0  0  0
  7  4  1  0  0  0  0
  7  5  1  0  0  0  0
  9 14  1  0  0  0  0
  9 13  1  0  0  0  0
 10  9  2  0  0  0  0
 11 15  2  0  0  0  0
 11 20  1  0  0  0  0
 12 19  1  1  0  0  0
 12 17  1  0  0  0  0
 15 16  1  0  0  0  0
 16 12  1  0  0  0  0
 17 13  2  0  0  0  0
 18 10  1  0  0  0  0
 19 10  1  0  0  0  0
 20 19  2  0  0  0  0
 21 23  1  0  0  0  0
 23 22  1  0  0  0  0
 24  3  1  0  0  0  0
 25 26  1  0  0  0  0
 26 24  1  0  0  0  0
M  END
>  <MODEL>
1

>  <REMARK>
 VINA RESULT:      -6.5      0.000      0.000
  Name = 
  5 active torsions:
  status: ('A' for Active; 'I' for Inactive)
    1  A    between atoms: C_1  and  N_17
    2  A    between atoms: O_5  and  N_19
    3  A    between atoms: O_5  and  C_25
    4  A    between atoms: O_6  and  C_16
    5  A    between atoms: N_11  and  C_16
                            x       y       z     vdW  Elec       q    Type
                         _______ _______ _______ _____ _____    ______ ____

>  <TORSDO>
F 5

$$$$
=
 OpenBabel11072408493D

 26 29  0  0  1  0  0  0  0  0999 V2000
  188.5500  175.6310  145.9680 C   0  0  2  0  0  3  0  0  0  0  0  0
  188.8130  174.9340  147.2880 C   0  0  0  0  0  2  0  0  0  0  0  0
  190.8970  176.0340  146.6560 N   0  0  0  0  0  0  0  0  0  0  0  0
  190.1350  177.1710  144.5040 C   0  0  1  0  0  3  0  0  0  0  0  0
  190.4380  175.7430  144.3040 N   0  0  0  0  0  0  0  0  0  0  0  0
  190.3290  174.9700  147.4850 C   0  0  0  0  0  2  0  0  0  0  0  0
  189.9030  176.2220  145.6050 C   0  0  2  0  0  0  0  0  0  0  0  0
  191.3310  177.8740  144.6650 O   0  0  0  0  0  1  0  0  0  0  0  0
  184.8850  177.6760  142.8840 C   0  0  0  0  0  0  0  0  0  0  0  0
  184.7640  178.3550  144.0330 C   0  0  1  0  0  3  0  0  0  0  0  0
  186.4860  178.3930  147.4400 C   0  0  0  0  0  3  0  0  0  0  0  0
  186.6670  176.9890  144.9970 C   0  0  0  0  0  0  0  0  0  0  0  0
  185.9450  176.6170  142.6820 C   0  0  0  0  0  3  0  0  0  0  0  0
  184.0240  177.9500  141.8280 O   0  0  0  0  0  1  0  0  0  0  0  0
  187.4010  177.4260  147.3260 C   0  0  0  0  0  3  0  0  0  0  0  0
  187.5280  176.6690  146.1050 N   0  0  0  0  0  0  0  0  0  0  0  0
  186.7650  176.3470  143.8700 N   0  0  0  0  0  0  0  0  0  0  0  0
  183.7500  179.3490  144.1710 N   0  0  0  0  0  1  0  0  0  0  0  0
  185.6630  178.0540  145.1570 C   0  0  0  0  0  0  0  0  0  0  0  0
  185.5840  178.7140  146.3180 C   0  0  0  0  0  3  0  0  0  0  0  0
  189.4390  175.2600  143.5220 O   0  0  0  0  0  0  0  0  0  0  0  0
  188.9600  174.6630  141.2720 C   0  0  0  0  0  1  0  0  0  0  0  0
  189.9860  175.2160  142.2380 C   0  0  0  0  0  2  0  0  0  0  0  0
  190.9350  177.2350  147.4840 C   0  0  0  0  0  2  0  0  0  0  0  0
  191.3700  178.1120  149.4590 C   0  0  0  0  0  1  0  0  0  0  0  0
  191.5180  176.9410  148.7170 O   0  0  0  0  0  0  0  0  0  0  0  0
  1 16  1  1  0  0  0
  1  2  1  0  0  0  0
  2  6  1  0  0  0  0
  3 24  1  0  0  0  0
  3  6  1  0  0  0  0
  4  8  1  1  0  0  0
  4  7  1  0  0  0  0
  5  4  1  0  0  0  0
  7  5  1  6  0  0  0
  7  1  1  0  0  0  0
  7  3  1  0  0  0  0
  9 10  1  0  0  0  0
 10 18  1  1  0  0  0
 10 19  1  0  0  0  0
 12 19  1  0  0  0  0
 12 16  1  0  0  0  0
 13  9  2  0  0  0  0
 13 17  1  0  0  0  0
 14  9  1  0  0  0  0
 15 11  2  0  0  0  0
 16 15  1  0  0  0  0
 17 12  2  0  0  0  0
 19 20  2  0  0  0  0
 20 11  1  0  0  0  0
 21  5  1  0  0  0  0
 22 23  1  0  0  0  0
 23 21  1  0  0  0  0
 24 26  1  0  0  0  0
 26 25  1  0  0  0  0
M  END
>  <MODEL>
2

>  <REMARK>
 VINA RESULT:      -6.5      2.044      4.526
  Name = 
  5 active torsions:
  status: ('A' for Active; 'I' for Inactive)
    1  A    between atoms: C_1  and  N_17
    2  A    between atoms: O_5  and  N_19
    3  A    between atoms: O_5  and  C_25
    4  A    between atoms: O_6  and  C_16
    5  A    between atoms: N_11  and  C_16
                            x       y       z     vdW  Elec       q    Type
                         _______ _______ _______ _____ _____    ______ ____

>  <TORSDO>
F 5

$$$$
=
 OpenBabel11072408493D

 26 29  0  0  1  0  0  0  0  0999 V2000
  189.1530  175.3180  144.7000 C   0  0  2  0  0  3  0  0  0  0  0  0
  189.6770  174.3220  145.7140 C   0  0  0  0  0  2  0  0  0  0  0  0
  191.6020  175.6110  144.9490 N   0  0  0  0  0  0  0  0  0  0  0  0
  190.4210  177.2260  143.3660 C   0  0  1  0  0  3  0  0  0  0  0  0
  190.6410  175.9040  142.7540 N   0  0  0  0  0  0  0  0  0  0  0  0
  191.2010  174.3560  145.5850 C   0  0  0  0  0  2  0  0  0  0  0  0
  190.4100  176.0250  144.2170 C   0  0  2  0  0  0  0  0  0  0  0  0
  191.6400  177.9040  143.4390 O   0  0  0  0  0  1  0  0  0  0  0  0
  184.8160  177.7610  143.1650 C   0  0  0  0  0  0  0  0  0  0  0  0
  185.0070  178.1870  144.4210 C   0  0  1  0  0  3  0  0  0  0  0  0
  187.5650  177.6210  147.1970 C   0  0  0  0  0  3  0  0  0  0  0  0
  187.0890  176.7500  144.5530 C   0  0  0  0  0  0  0  0  0  0  0  0
  185.7800  176.8180  142.4800 C   0  0  0  0  0  3  0  0  0  0  0  0
  183.7100  178.1990  142.4480 O   0  0  0  0  0  1  0  0  0  0  0  0
  188.4130  176.7430  146.6520 C   0  0  0  0  0  3  0  0  0  0  0  0
  188.2090  176.2560  145.3100 N   0  0  0  0  0  0  0  0  0  0  0  0
  186.8820  176.3550  143.3320 N   0  0  0  0  0  0  0  0  0  0  0  0
  184.0700  179.0810  145.0200 N   0  0  0  0  0  1  0  0  0  0  0  0
  186.1680  177.7100  145.1850 C   0  0  0  0  0  0  0  0  0  0  0  0
  186.4010  178.1180  146.4390 C   0  0  0  0  0  3  0  0  0  0  0  0
  189.4860  175.6010  142.1080 O   0  0  0  0  0  0  0  0  0  0  0  0
  188.6570  173.4590  141.4990 C   0  0  0  0  0  1  0  0  0  0  0  0
  189.7850  174.4600  141.3630 C   0  0  0  0  0  2  0  0  0  0  0  0
  191.8450  176.5670  146.0240 C   0  0  0  0  0  2  0  0  0  0  0  0
  194.0110  176.6920  146.4170 C   0  0  0  0  0  1  0  0  0  0  0  0
  192.8420  176.0820  146.8710 O   0  0  0  0  0  0  0  0  0  0  0  0
  1 16  1  1  0  0  0
  1  2  1  0  0  0  0
  3  6  1  0  0  0  0
  3 24  1  0  0  0  0
  4  8  1  1  0  0  0
  4  7  1  0  0  0  0
  5  4  1  0  0  0  0
  6  2  1  0  0  0  0
  7  5  1  6  0  0  0
  7  1  1  0  0  0  0
  7  3  1  0  0  0  0
  9 10  1  0  0  0  0
 10 18  1  1  0  0  0
 10 19  1  0  0  0  0
 12 19  1  0  0  0  0
 12 16  1  0  0  0  0
 13  9  2  0  0  0  0
 13 17  1  0  0  0  0
 14  9  1  0  0  0  0
 15 11  2  0  0  0  0
 16 15  1  0  0  0  0
 17 12  2  0  0  0  0
 19 20  2  0  0  0  0
 20 11  1  0  0  0  0
 21  5  1  0  0  0  0
 23 22  1  0  0  0  0
 23 21  1  0  0  0  0
 24 26  1  0  0  0  0
 25 26  1  0  0  0  0
M  END
>  <MODEL>
3

>  <REMARK>
 VINA RESULT:      -6.4      2.093      4.039
  Name = 
  5 active torsions:
  status: ('A' for Active; 'I' for Inactive)
    1  A    between atoms: C_1  and  N_17
    2  A    between atoms: O_5  and  N_19
    3  A    between atoms: O_5  and  C_25
    4  A    between atoms: O_6  and  C_16
    5  A    between atoms: N_11  and  C_16
                            x       y       z     vdW  Elec       q    Type
                         _______ _______ _______ _____ _____    ______ ____

>  <TORSDO>
F 5

$$$$
=
 OpenBabel11072408493D

 26 29  0  0  1  0  0  0  0  0999 V2000
  189.6380  174.3200  143.3080 C   0  0  2  0  0  3  0  0  0  0  0  0
  189.3280  172.8900  142.9170 C   0  0  0  0  0  2  0  0  0  0  0  0
  187.8930  174.3100  141.5480 N   0  0  0  0  0  0  0  0  0  0  0  0
  188.6920  176.6000  142.3410 C   0  0  1  0  0  3  0  0  0  0  0  0
  187.7440  175.9810  143.2850 N   0  0  0  0  0  0  0  0  0  0  0  0
  188.0550  172.9540  142.0720 C   0  0  0  0  0  2  0  0  0  0  0  0
  188.6600  175.1340  142.4760 C   0  0  2  0  0  0  0  0  0  0  0  0
  187.9940  177.0340  141.2110 O   0  0  0  0  0  1  0  0  0  0  0  0
  193.5570  176.6010  145.8730 C   0  0  0  0  0  0  0  0  0  0  0  0
  194.0670  176.3340  144.6630 C   0  0  0  0  0  0  0  0  0  0  0  0
  192.8420  174.7570  141.4090 C   0  0  0  0  0  3  0  0  0  0  0  0
  191.8420  175.3300  143.9870 C   0  0  1  0  0  3  0  0  0  0  0  0
  192.1200  176.2880  146.2280 C   0  0  0  0  0  3  0  0  0  0  0  0
  194.3560  177.1950  146.8420 O   0  0  0  0  0  1  0  0  0  0  0  0
  191.5830  174.4120  141.6960 C   0  0  0  0  0  3  0  0  0  0  0  0
  191.0270  174.6700  143.0010 N   0  0  0  0  0  0  0  0  0  0  0  0
  191.3700  175.6030  145.1680 N   0  0  0  0  0  0  0  0  0  0  0  0
  195.4280  176.6530  144.3770 N   0  0  0  0  0  1  0  0  0  0  0  0
  193.2280  175.6890  143.6430 C   0  0  0  0  0  0  0  0  0  0  0  0
  193.6940  175.4140  142.4180 C   0  0  0  0  0  3  0  0  0  0  0  0
  188.2590  176.2020  144.5210 O   0  0  0  0  0  0  0  0  0  0  0  0
  186.1900  176.8220  145.5110 C   0  0  0  0  0  1  0  0  0  0  0  0
  187.5400  177.2920  145.0140 C   0  0  0  0  0  2  0  0  0  0  0  0
  188.5520  174.3380  140.2460 C   0  0  0  0  0  2  0  0  0  0  0  0
  188.3330  173.5350  138.2050 C   0  0  0  0  0  1  0  0  0  0  0  0
  188.2660  173.1650  139.5470 O   0  0  0  0  0  0  0  0  0  0  0  0
  1  2  1  6  0  0  0
  3  6  1  0  0  0  0
  4  8  1  6  0  0  0
  4  7  1  0  0  0  0
  4  5  1  0  0  0  0
  5 21  1  0  0  0  0
  6  2  1  0  0  0  0
  7  3  1  6  0  0  0
  7  5  1  0  0  0  0
  7  1  1  0  0  0  0
  9 13  1  0  0  0  0
  9 14  1  0  0  0  0
 10  9  2  0  0  0  0
 11 15  2  0  0  0  0
 11 20  1  0  0  0  0
 12 19  1  1  0  0  0
 12 17  1  0  0  0  0
 15 16  1  0  0  0  0
 16  1  1  0  0  0  0
 16 12  1  0  0  0  0
 17 13  2  0  0  0  0
 18 10  1  0  0  0  0
 19 10  1  0  0  0  0
 20 19  2  0  0  0  0
 21 23  1  0  0  0  0
 23 22  1  0  0  0  0
 24  3  1  0  0  0  0
 25 26  1  0  0  0  0
 26 24  1  0  0  0  0
M  END
>  <MODEL>
4

>  <REMARK>
 VINA RESULT:      -5.7      2.726      5.893
  Name = 
  5 active torsions:
  status: ('A' for Active; 'I' for Inactive)
    1  A    between atoms: C_1  and  N_17
    2  A    between atoms: O_5  and  N_19
    3  A    between atoms: O_5  and  C_25
    4  A    between atoms: O_6  and  C_16
    5  A    between atoms: N_11  and  C_16
                            x       y       z     vdW  Elec       q    Type
                         _______ _______ _______ _____ _____    ______ ____

>  <TORSDO>
F 5

$$$$
=
 OpenBabel11072408493D

 26 29  0  0  1  0  0  0  0  0999 V2000
  189.1990  177.0500  142.6250 C   0  0  2  0  0  3  0  0  0  0  0  0
  188.5710  178.2990  142.0410 C   0  0  0  0  0  2  0  0  0  0  0  0
  187.1000  176.4430  141.4530 N   0  0  0  0  0  0  0  0  0  0  0  0
  188.3360  174.5430  142.6250 C   0  0  1  0  0  3  0  0  0  0  0  0
  188.9530  174.9000  141.3360 N   0  0  0  0  0  0  0  0  0  0  0  0
  187.4730  177.8120  141.0940 C   0  0  0  0  0  2  0  0  0  0  0  0
  188.2750  175.9370  142.1560 C   0  0  2  0  0  0  0  0  0  0  0  0
  187.1410  173.8610  142.3860 O   0  0  0  0  0  1  0  0  0  0  0  0
  192.8710  176.2470  146.2310 C   0  0  0  0  0  0  0  0  0  0  0  0
  191.7800  176.5710  146.9390 C   0  0  0  0  0  0  0  0  0  0  0  0
  188.1450  177.4710  146.1990 C   0  0  0  0  0  3  0  0  0  0  0  0
  190.4890  176.8040  144.7720 C   0  0  1  0  0  3  0  0  0  0  0  0
  192.8480  176.1340  144.7230 C   0  0  0  0  0  3  0  0  0  0  0  0
  194.0680  175.9920  146.8880 O   0  0  0  0  0  1  0  0  0  0  0  0
  188.0920  177.4380  144.8640 C   0  0  0  0  0  3  0  0  0  0  0  0
  189.2620  177.1170  144.0860 N   0  0  0  0  0  0  0  0  0  0  0  0
  191.5610  176.4850  144.1090 N   0  0  0  0  0  0  0  0  0  0  0  0
  191.8530  176.6580  148.3610 N   0  0  0  0  0  1  0  0  0  0  0  0
  190.5170  176.8580  146.2440 C   0  0  0  0  0  0  0  0  0  0  0  0
  189.4020  177.1750  146.9120 C   0  0  0  0  0  3  0  0  0  0  0  0
  190.2920  174.9100  141.5590 O   0  0  0  0  0  0  0  0  0  0  0  0
  191.6290  172.9920  141.9860 C   0  0  0  0  0  1  0  0  0  0  0  0
  190.7550  173.7230  140.9890 C   0  0  0  0  0  2  0  0  0  0  0  0
  185.9970  176.5440  142.4020 C   0  0  0  0  0  2  0  0  0  0  0  0
  184.4950  177.9560  143.1840 C   0  0  0  0  0  1  0  0  0  0  0  0
  185.1240  177.5580  142.0050 O   0  0  0  0  0  0  0  0  0  0  0  0
  1  2  1  1  0  0  0
  1 16  1  0  0  0  0
  3  7  1  0  0  0  0
  3 24  1  0  0  0  0
  4  8  1  6  0  0  0
  5 21  1  0  0  0  0
  5  4  1  0  0  0  0
  6  3  1  0  0  0  0
  6  2  1  0  0  0  0
  7  5  1  6  0  0  0
  7  4  1  0  0  0  0
  7  1  1  0  0  0  0
  9 14  1  0  0  0  0
  9 10  2  0  0  0  0
 10 18  1  0  0  0  0
 11 20  1  0  0  0  0
 12 17  1  6  0  0  0
 12 19  1  0  0  0  0
 13  9  1  0  0  0  0
 15 11  2  0  0  0  0
 16 12  1  0  0  0  0
 16 15  1  0  0  0  0
 17 13  2  0  0  0  0
 19 20  2  0  0  0  0
 19 10  1  0  0  0  0
 23 21  1  0  0  0  0
 23 22  1  0  0  0  0
 26 24  1  0  0  0  0
 26 25  1  0  0  0  0
M  END
>  <MODEL>
5

>  <REMARK>
 VINA RESULT:      -5.6      2.263      5.770
  Name = 
  5 active torsions:
  status: ('A' for Active; 'I' for Inactive)
    1  A    between atoms: C_1  and  N_17
    2  A    between atoms: O_5  and  N_19
    3  A    between atoms: O_5  and  C_25
    4  A    between atoms: O_6  and  C_16
    5  A    between atoms: N_11  and  C_16
                            x       y       z     vdW  Elec       q    Type
                         _______ _______ _______ _____ _____    ______ ____

>  <TORSDO>
F 5

$$$$
=
 OpenBabel11072408493D

 26 29  0  0  1  0  0  0  0  0999 V2000
  189.9110  174.4680  144.1700 C   0  0  2  0  0  3  0  0  0  0  0  0
  190.3790  173.3090  145.0260 C   0  0  0  0  0  2  0  0  0  0  0  0
  192.3760  174.2690  144.0060 N   0  0  0  0  0  0  0  0  0  0  0  0
  191.3070  176.2060  142.7350 C   0  0  1  0  0  3  0  0  0  0  0  0
  191.1560  174.9220  142.0280 N   0  0  0  0  0  0  0  0  0  0  0  0
  191.8380  173.0640  144.6370 C   0  0  0  0  0  2  0  0  0  0  0  0
  191.1900  174.9620  143.5130 C   0  0  2  0  0  0  0  0  0  0  0  0
  192.6320  176.6320  142.6310 O   0  0  0  0  0  1  0  0  0  0  0  0
  185.6820  177.4780  143.7400 C   0  0  0  0  0  0  0  0  0  0  0  0
  186.2400  177.8580  144.8970 C   0  0  0  0  0  0  0  0  0  0  0  0
  189.3260  176.9250  146.9410 C   0  0  0  0  0  3  0  0  0  0  0  0
  188.0820  176.1600  144.5240 C   0  0  1  0  0  3  0  0  0  0  0  0
  186.3070  176.4260  142.8520 C   0  0  0  0  0  3  0  0  0  0  0  0
  184.4950  178.0670  143.3200 O   0  0  0  0  0  1  0  0  0  0  0  0
  189.8850  175.9510  146.2160 C   0  0  0  0  0  3  0  0  0  0  0  0
  189.2840  175.5130  144.9810 N   0  0  0  0  0  0  0  0  0  0  0  0
  187.5210  175.8110  143.4040 N   0  0  0  0  0  0  0  0  0  0  0  0
  185.6120  178.8600  145.6960 N   0  0  0  0  0  1  0  0  0  0  0  0
  187.4850  177.2230  145.3500 C   0  0  0  0  0  0  0  0  0  0  0  0
  188.0820  177.5800  146.4940 C   0  0  0  0  0  3  0  0  0  0  0  0
  189.8760  174.8990  141.5760 O   0  0  0  0  0  0  0  0  0  0  0  0
  191.1840  173.4540  140.2170 C   0  0  0  0  0  1  0  0  0  0  0  0
  189.8070  173.7670  140.7640 C   0  0  0  0  0  2  0  0  0  0  0  0
  192.9750  175.0690  145.0690 C   0  0  0  0  0  2  0  0  0  0  0  0
  194.9100  175.2710  146.1060 C   0  0  0  0  0  1  0  0  0  0  0  0
  193.9600  174.3260  145.7200 O   0  0  0  0  0  0  0  0  0  0  0  0
  1 16  1  1  0  0  0
  1  2  1  0  0  0  0
  3  6  1  0  0  0  0
  3 24  1  0  0  0  0
  4  8  1  6  0  0  0
  4  7  1  0  0  0  0
  5  4  1  0  0  0  0
  6  2  1  0  0  0  0
  7  5  1  6  0  0  0
  7  3  1  0  0  0  0
  7  1  1  0  0  0  0
  9 10  2  0  0  0  0
 10 19  1  0  0  0  0
 10 18  1  0  0  0  0
 12 17  1  1  0  0  0
 12 16  1  0  0  0  0
 12 19  1  0  0  0  0
 13 17  2  0  0  0  0
 13  9  1  0  0  0  0
 14  9  1  0  0  0  0
 15 11  2  0  0  0  0
 16 15  1  0  0  0  0
 19 20  2  0  0  0  0
 20 11  1  0  0  0  0
 21  5  1  0  0  0  0
 22 23  1  0  0  0  0
 23 21  1  0  0  0  0
 24 26  1  0  0  0  0
 26 25  1  0  0  0  0
M  END
>  <MODEL>
6

>  <REMARK>
 VINA RESULT:      -5.6      2.125      4.126
  Name = 
  5 active torsions:
  status: ('A' for Active; 'I' for Inactive)
    1  A    between atoms: C_1  and  N_17
    2  A    between atoms: O_5  and  N_19
    3  A    between atoms: O_5  and  C_25
    4  A    between atoms: O_6  and  C_16
    5  A    between atoms: N_11  and  C_16
                            x       y       z     vdW  Elec       q    Type
                         _______ _______ _______ _____ _____    ______ ____

>  <TORSDO>
F 5

$$$$
=
 OpenBabel11072408493D

 26 29  0  0  1  0  0  0  0  0999 V2000
  189.7270  175.2670  145.8690 C   0  0  2  0  0  3  0  0  0  0  0  0
  189.9980  175.7830  147.2670 C   0  0  0  0  0  2  0  0  0  0  0  0
  192.1590  175.1490  146.3320 N   0  0  0  0  0  0  0  0  0  0  0  0
  191.4120  174.4300  144.0010 C   0  0  1  0  0  3  0  0  0  0  0  0
  191.1680  173.3870  145.0130 N   0  0  0  0  0  0  0  0  0  0  0  0
  191.4440  175.3980  147.5840 C   0  0  0  0  0  2  0  0  0  0  0  0
  191.0990  174.8240  145.3850 C   0  0  2  0  0  0  0  0  0  0  0  0
  192.7810  174.4990  143.7380 O   0  0  0  0  0  1  0  0  0  0  0  0
  185.3060  178.0200  145.7670 C   0  0  0  0  0  0  0  0  0  0  0  0
  185.9920  178.4600  144.7030 C   0  0  1  0  0  3  0  0  0  0  0  0
  189.3530  177.7150  143.0530 C   0  0  0  0  0  3  0  0  0  0  0  0
  187.8600  176.8530  145.2890 C   0  0  0  0  0  0  0  0  0  0  0  0
  185.8290  176.9200  146.6630 C   0  0  0  0  0  3  0  0  0  0  0  0
  184.0670  178.5730  146.0640 O   0  0  0  0  0  1  0  0  0  0  0  0
  189.8800  176.7800  143.8500 C   0  0  0  0  0  3  0  0  0  0  0  0
  189.1660  176.3130  145.0120 N   0  0  0  0  0  0  0  0  0  0  0  0
  187.1730  176.4420  146.3140 N   0  0  0  0  0  0  0  0  0  0  0  0
  185.4520  179.4970  143.8850 N   0  0  0  0  0  1  0  0  0  0  0  0
  187.3110  177.8880  144.3980 C   0  0  0  0  0  0  0  0  0  0  0  0
  188.0260  178.2910  143.3400 C   0  0  0  0  0  3  0  0  0  0  0  0
  189.9300  172.8980  144.7470 O   0  0  0  0  0  0  0  0  0  0  0  0
  188.9420  172.1170  142.7310 C   0  0  0  0  0  1  0  0  0  0  0  0
  190.1180  172.0190  143.6800 C   0  0  0  0  0  2  0  0  0  0  0  0
  192.7660  176.4160  145.9370 C   0  0  0  0  0  2  0  0  0  0  0  0
  194.8540  176.8640  145.3880 C   0  0  0  0  0  1  0  0  0  0  0  0
  194.0510  176.5110  146.4720 O   0  0  0  0  0  0  0  0  0  0  0  0
  1 16  1  6  0  0  0
  1  2  1  0  0  0  0
  2  6  1  0  0  0  0
  3  6  1  0  0  0  0
  4  8  1  1  0  0  0
  4  5  1  0  0  0  0
  4  7  1  0  0  0  0
  7  5  1  1  0  0  0
  7  1  1  0  0  0  0
  7  3  1  0  0  0  0
  9 14  1  0  0  0  0
  9 13  2  0  0  0  0
 10 18  1  1  0  0  0
 10  9  1  0  0  0  0
 11 20  1  0  0  0  0
 11 15  2  0  0  0  0
 12 17  2  0  0  0  0
 15 16  1  0  0  0  0
 16 12  1  0  0  0  0
 17 13  1  0  0  0  0
 19 10  1  0  0  0  0
 19 12  1  0  0  0  0
 20 19  2  0  0  0  0
 21  5  1  0  0  0  0
 22 23  1  0  0  0  0
 23 21  1  0  0  0  0
 24  3  1  0  0  0  0
 24 26  1  0  0  0  0
 25 26  1  0  0  0  0
M  END
>  <MODEL>
7

>  <REMARK>
 VINA RESULT:      -5.6      1.821      3.266
  Name = 
  5 active torsions:
  status: ('A' for Active; 'I' for Inactive)
    1  A    between atoms: C_1  and  N_17
    2  A    between atoms: O_5  and  N_19
    3  A    between atoms: O_5  and  C_25
    4  A    between atoms: O_6  and  C_16
    5  A    between atoms: N_11  and  C_16
                            x       y       z     vdW  Elec       q    Type
                         _______ _______ _______ _____ _____    ______ ____

>  <TORSDO>
F 5

$$$$
=
 OpenBabel11072408493D

 26 29  0  0  1  0  0  0  0  0999 V2000
  189.6660  177.2890  144.7930 C   0  0  2  0  0  3  0  0  0  0  0  0
  190.1390  177.7210  143.4200 C   0  0  0  0  0  2  0  0  0  0  0  0
  190.5610  175.3230  143.5760 N   0  0  0  0  0  0  0  0  0  0  0  0
  189.5990  174.8790  145.8970 C   0  0  1  0  0  3  0  0  0  0  0  0
  190.9520  175.4610  145.9540 N   0  0  0  0  0  0  0  0  0  0  0  0
  190.9410  176.5430  142.8630 C   0  0  0  0  0  2  0  0  0  0  0  0
  190.0300  175.8130  144.8430 C   0  0  2  0  0  0  0  0  0  0  0  0
  189.6910  173.5490  145.4820 O   0  0  0  0  0  1  0  0  0  0  0  0
  185.6450  178.0950  141.5810 C   0  0  0  0  0  0  0  0  0  0  0  0
  185.0990  178.1150  142.8050 C   0  0  1  0  0  3  0  0  0  0  0  0
  186.3140  177.7580  146.4060 C   0  0  0  0  0  3  0  0  0  0  0  0
  187.3930  177.7060  143.7970 C   0  0  0  0  0  0  0  0  0  0  0  0
  187.1320  177.9190  141.3670 C   0  0  0  0  0  3  0  0  0  0  0  0
  184.8370  178.2520  140.4620 O   0  0  0  0  0  1  0  0  0  0  0  0
  187.6250  177.5430  146.2610 C   0  0  0  0  0  3  0  0  0  0  0  0
  188.2250  177.4940  144.9520 N   0  0  0  0  0  0  0  0  0  0  0  0
  187.8990  177.6940  142.5990 N   0  0  0  0  0  0  0  0  0  0  0  0
  183.6910  178.2900  142.9530 N   0  0  0  0  0  1  0  0  0  0  0  0
  185.9510  177.9320  143.9880 C   0  0  0  0  0  0  0  0  0  0  0  0
  185.4470  177.9550  145.2280 C   0  0  0  0  0  3  0  0  0  0  0  0
  190.9080  176.4000  146.9330 O   0  0  0  0  0  0  0  0  0  0  0  0
  193.2490  176.4110  146.5260 C   0  0  0  0  0  1  0  0  0  0  0  0
  192.1500  176.3140  147.5630 C   0  0  0  0  0  2  0  0  0  0  0  0
  189.4730  174.7160  142.8170 C   0  0  0  0  0  2  0  0  0  0  0  0
  188.5660  174.4670  140.8230 C   0  0  0  0  0  1  0  0  0  0  0  0
  189.7800  174.7310  141.4560 O   0  0  0  0  0  0  0  0  0  0  0  0
  1  2  1  6  0  0  0
  1  7  1  0  0  0  0
  1 16  1  0  0  0  0
  4  8  1  6  0  0  0
  4  5  1  0  0  0  0
  5 21  1  0  0  0  0
  6  2  1  0  0  0  0
  6  3  1  0  0  0  0
  7  3  1  6  0  0  0
  7  4  1  0  0  0  0
  7  5  1  0  0  0  0
  9 10  1  0  0  0  0
 10 18  1  6  0  0  0
 10 19  1  0  0  0  0
 12 19  1  0  0  0  0
 12 16  1  0  0  0  0
 13  9  2  0  0  0  0
 13 17  1  0  0  0  0
 14  9  1  0  0  0  0
 15 11  2  0  0  0  0
 16 15  1  0  0  0  0
 17 12  2  0  0  0  0
 19 20  2  0  0  0  0
 20 11  1  0  0  0  0
 21 23  1  0  0  0  0
 22 23  1  0  0  0  0
 24  3  1  0  0  0  0
 25 26  1  0  0  0  0
 26 24  1  0  0  0  0
M  END
>  <MODEL>
8

>  <REMARK>
 VINA RESULT:      -5.5      1.853      2.751
  Name = 
  5 active torsions:
  status: ('A' for Active; 'I' for Inactive)
    1  A    between atoms: C_1  and  N_17
    2  A    between atoms: O_5  and  N_19
    3  A    between atoms: O_5  and  C_25
    4  A    between atoms: O_6  and  C_16
    5  A    between atoms: N_11  and  C_16
                            x       y       z     vdW  Elec       q    Type
                         _______ _______ _______ _____ _____    ______ ____

>  <TORSDO>
F 5

$$$$
=
 OpenBabel11072408493D

 26 29  0  0  1  0  0  0  0  0999 V2000
  189.3290  175.2730  144.7230 C   0  0  2  0  0  3  0  0  0  0  0  0
  189.9440  174.0430  145.3570 C   0  0  0  0  0  2  0  0  0  0  0  0
  191.6830  175.0540  143.9770 N   0  0  0  0  0  0  0  0  0  0  0  0
  190.4130  177.1020  143.1390 C   0  0  1  0  0  3  0  0  0  0  0  0
  190.0620  175.8810  142.3910 N   0  0  0  0  0  0  0  0  0  0  0  0
  191.2660  173.8100  144.6240 C   0  0  0  0  0  2  0  0  0  0  0  0
  190.4380  175.8010  143.8260 C   0  0  2  0  0  0  0  0  0  0  0  0
  191.6920  177.5160  142.7620 O   0  0  0  0  0  1  0  0  0  0  0  0
  185.0750  178.1120  145.7090 C   0  0  0  0  0  0  0  0  0  0  0  0
  185.9390  178.4720  146.6670 C   0  0  0  0  0  0  0  0  0  0  0  0
  189.5190  177.5950  147.6610 C   0  0  0  0  0  3  0  0  0  0  0  0
  187.6380  176.8700  145.6840 C   0  0  1  0  0  3  0  0  0  0  0  0
  185.4400  177.1230  144.6250 C   0  0  0  0  0  3  0  0  0  0  0  0
  183.8000  178.6650  145.6870 O   0  0  0  0  0  1  0  0  0  0  0  0
  189.8670  176.6750  146.7560 C   0  0  0  0  0  3  0  0  0  0  0  0
  188.9400  176.2590  145.7340 N   0  0  0  0  0  0  0  0  0  0  0  0
  186.7810  176.5410  144.7630 N   0  0  0  0  0  0  0  0  0  0  0  0
  185.5470  179.4130  147.6650 N   0  0  0  0  0  1  0  0  0  0  0  0
  187.2820  177.8740  146.7010 C   0  0  0  0  0  0  0  0  0  0  0  0
  188.1800  178.2120  147.6340 C   0  0  0  0  0  3  0  0  0  0  0  0
  188.7120  175.9130  142.2490 O   0  0  0  0  0  0  0  0  0  0  0  0
  187.0140  177.1670  141.1560 C   0  0  0  0  0  1  0  0  0  0  0  0
  188.4500  177.1400  141.6370 C   0  0  0  0  0  2  0  0  0  0  0  0
  192.5360  175.7570  144.9300 C   0  0  0  0  0  2  0  0  0  0  0  0
  194.5690  175.7730  145.7820 C   0  0  0  0  0  1  0  0  0  0  0  0
  193.8760  175.5710  144.5890 O   0  0  0  0  0  0  0  0  0  0  0  0
  1  2  1  1  0  0  0
  1 16  1  0  0  0  0
  3  6  1  0  0  0  0
  3 24  1  0  0  0  0
  4  8  1  6  0  0  0
  4  7  1  0  0  0  0
  5  4  1  0  0  0  0
  6  2  1  0  0  0  0
  7  5  1  6  0  0  0
  7  3  1  0  0  0  0
  7  1  1  0  0  0  0
  9 10  2  0  0  0  0
 10 19  1  0  0  0  0
 10 18  1  0  0  0  0
 12 17  1  1  0  0  0
 12 16  1  0  0  0  0
 12 19  1  0  0  0  0
 13 17  2  0  0  0  0
 13  9  1  0  0  0  0
 14  9  1  0  0  0  0
 15 11  2  0  0  0  0
 16 15  1  0  0  0  0
 19 20  2  0  0  0  0
 20 11  1  0  0  0  0
 21  5  1  0  0  0  0
 22 23  1  0  0  0  0
 23 21  1  0  0  0  0
 26 24  1  0  0  0  0
 26 25  1  0  0  0  0
M  END
>  <MODEL>
9

>  <REMARK>
 VINA RESULT:      -5.5      2.108      3.957
  Name = 
  5 active torsions:
  status: ('A' for Active; 'I' for Inactive)
    1  A    between atoms: C_1  and  N_17
    2  A    between atoms: O_5  and  N_19
    3  A    between atoms: O_5  and  C_25
    4  A    between atoms: O_6  and  C_16
    5  A    between atoms: N_11  and  C_16
                            x       y       z     vdW  Elec       q    Type
                         _______ _______ _______ _____ _____    ______ ____

>  <TORSDO>
F 5

$$$$
