=
 OpenBabel11072408383D

 47 51  0  0  1  0  0  0  0  0999 V2000
  194.9360  175.5980  144.3370 C   0  0  0  0  0  0  0  0  0  0  0  0
  194.1930  175.4980  146.8020 C   0  0  0  0  0  2  0  0  0  0  0  0
  192.9370  176.2030  146.3330 C   0  0  0  0  0  0  0  0  0  0  0  0
  195.9850  174.1920  145.9340 O   0  0  0  0  0  0  0  0  0  0  0  0
  195.0810  175.0350  145.6870 C   0  0  0  0  0  0  0  0  0  0  0  0
  193.8940  176.3890  144.0710 C   0  0  0  0  0  3  0  0  0  0  0  0
  192.8700  176.7370  145.0810 C   0  0  0  0  0  0  0  0  0  0  0  0
  195.4090  174.3540  142.1400 C   0  0  1  0  0  3  0  0  0  0  0  0
  196.6310  176.5300  142.7220 C   0  0  0  0  0  2  0  0  0  0  0  0
  194.4840  175.0500  141.2100 N   0  0  0  0  0  0  0  0  0  0  0  0
  195.9490  175.2680  143.2660 C   0  0  1  0  0  3  0  0  0  0  0  0
  196.2680  176.8130  141.2670 C   0  0  0  0  0  2  0  0  0  0  0  0
  194.7950  176.4840  141.0220 C   0  0  0  0  0  2  0  0  0  0  0  0
  195.7320  173.7920  139.6750 F   0  0  0  0  0  0  0  0  0  0  0  0
  194.5050  174.3970  139.8870 C   0  0  0  0  0  0  0  0  0  0  0  0
  193.5080  173.4340  139.7930 F   0  0  0  0  0  0  0  0  0  0  0  0
  194.3200  175.3330  138.8860 F   0  0  0  0  0  0  0  0  0  0  0  0
  194.7740  173.0880  142.7100 C   0  0  0  0  0  2  0  0  0  0  0  0
  195.8560  172.0330  142.9840 C   0  0  1  0  0  3  0  0  0  0  0  0
  195.6060  171.1460  144.0950 N   0  0  0  0  0  0  0  0  0  0  0  0
  195.3310  170.7300  142.7420 N   0  0  0  0  0  2  0  0  0  0  0  0
  194.3070  171.3230  144.7450 C   0  0  0  0  0  1  0  0  0  0  0  0
  191.5500  177.5120  143.1490 C   0  0  0  0  0  2  0  0  0  0  0  0
  191.6900  177.5730  144.6060 C   0  0  1  0  0  3  0  0  0  0  0  0
  190.5480  176.8360  143.9830 N   0  0  0  0  0  0  0  0  0  0  0  0
  190.7480  175.3910  143.8270 C   0  0  0  0  0  2  0  0  0  0  0  0
  189.9260  174.8370  142.6950 C   0  0  0  0  0  0  0  0  0  0  0  0
  190.5330  174.2180  141.4910 C   0  0  2  0  0  3  0  0  0  0  0  0
  188.0950  174.3920  141.3210 C   0  0  0  0  0  3  0  0  0  0  0  0
  189.3500  173.9700  140.5590 C   0  0  0  0  0  3  0  0  0  0  0  0
  188.6120  174.9330  142.6000 C   0  0  0  0  0  0  0  0  0  0  0  0
  191.1720  172.8890  141.8520 C   0  0  0  0  0  1  0  0  0  0  0  0
  187.8120  175.5040  143.5950 O   0  0  0  0  0  0  0  0  0  0  0  0
  186.7650  176.3500  143.2870 N   0  0  0  0  0  2  0  0  0  0  0  0
  187.2180  177.7240  143.4490 C   0  0  2  0  0  3  0  0  0  0  0  0
  186.6070  178.3230  144.7100 C   0  0  0  0  0  2  0  0  0  0  0  0
  185.4010  179.6170  144.2820 S   0  0  0  0  0  0  0  0  0  0  0  0
  184.7050  177.8320  146.2220 C   0  0  0  0  0  1  0  0  0  0  0  0
  184.0900  178.8430  145.2750 C   0  0  0  0  0  2  0  0  0  0  0  0
  186.8250  178.5630  142.2370 C   0  0  0  0  0  2  0  0  0  0  0  0
  187.1640  177.8830  141.0320 O   0  0  0  0  0  0  0  0  0  0  0  0
  186.5990  176.9080  138.8110 C   0  0  0  0  0  1  0  0  0  0  0  0
  184.9980  177.9360  140.2270 O   0  0  0  0  0  0  0  0  0  0  0  0
  186.2020  177.6050  140.0590 C   0  0  0  0  0  0  0  0  0  0  0  0
  191.8330  176.3140  147.3210 C   0  0  0  0  0  0  0  0  0  0  0  0
  190.7510  175.2890  147.3680 C   0  0  0  0  0  1  0  0  0  0  0  0
  191.7750  177.2820  148.1240 O   0  0  0  0  0  0  0  0  0  0  0  0
  1  5  1  0  0  0  0
  3  2  1  0  0  0  0
  3 45  1  0  0  0  0
  5  4  2  0  0  0  0
  5  2  1  0  0  0  0
  6  1  2  0  0  0  0
  6  7  1  0  0  0  0
  7  3  2  0  0  0  0
  8 18  1  1  0  0  0
  8 11  1  0  0  0  0
  9 11  1  0  0  0  0
 10  8  1  0  0  0  0
 11  1  1  1  0  0  0
 12  9  1  0  0  0  0
 13 10  1  0  0  0  0
 13 12  1  0  0  0  0
 14 15  1  0  0  0  0
 15 10  1  0  0  0  0
 16 15  1  0  0  0  0
 17 15  1  0  0  0  0
 19 18  1  1  0  0  0
 19 20  1  0  0  0  0
 20 22  1  0  0  0  0
 21 19  1  0  0  0  0
 21 20  1  0  0  0  0
 23 25  1  0  0  0  0
 23 24  1  0  0  0  0
 24  7  1  6  0  0  0
 25 24  1  0  0  0  0
 26 25  1  0  0  0  0
 27 26  1  0  0  0  0
 28 32  1  1  0  0  0
 28 27  1  0  0  0  0
 29 31  1  0  0  0  0
 30 29  2  0  0  0  0
 30 28  1  0  0  0  0
 31 27  2  0  0  0  0
 31 33  1  0  0  0  0
 34 35  1  0  0  0  0
 34 33  1  0  0  0  0
 35 40  1  6  0  0  0
 35 36  1  0  0  0  0
 37 36  1  0  0  0  0
 37 39  1  0  0  0  0
 39 38  1  0  0  0  0
 41 40  1  0  0  0  0
 42 44  1  0  0  0  0
 44 43  2  0  0  0  0
 44 41  1  0  0  0  0
 45 46  1  0  0  0  0
 45 47  2  0  0  0  0
M  END
>  <MODEL>
1

>  <REMARK>
 VINA RESULT:      -6.4      0.000      0.000
  Name = 
  17 active torsions:
  status: ('A' for Active; 'I' for Inactive)
    1  A    between atoms: C_2  and  C_26
    2  A    between atoms: C_4  and  C_21
    3  A    between atoms: C_6  and  C_26
    4  A    between atoms: O_8  and  C_42
    5  A    between atoms: O_8  and  N_47
    6  A    between atoms: S_9  and  C_16
    7  A    between atoms: S_9  and  C_46
    8  A    between atoms: C_11  and  C_12
    9  A    between atoms: C_11  and  N_25
   10  A    between atoms: C_13  and  C_45
   11  A    between atoms: C_14  and  C_16
   12  A    between atoms: C_14  and  C_35
   13  A    between atoms: C_14  and  N_47
   14  A    between atoms: N_20  and  C_32
   15  A    between atoms: C_24  and  O_41
   16  A    between atoms: C_28  and  C_30
   17  A    between atoms: C_35  and  O_41
                            x       y       z     vdW  Elec       q    Type
                         _______ _______ _______ _____ _____    ______ ____

>  <TORSDO>
F 17

$$$$
=
 OpenBabel11072408383D

 47 51  0  0  1  0  0  0  0  0999 V2000
  194.5010  175.7740  144.5640 C   0  0  0  0  0  0  0  0  0  0  0  0
  193.4570  175.7830  146.9200 C   0  0  0  0  0  2  0  0  0  0  0  0
  192.2200  176.3390  146.2450 C   0  0  0  0  0  0  0  0  0  0  0  0
  195.4430  174.5830  146.3860 O   0  0  0  0  0  0  0  0  0  0  0  0
  194.5150  175.3230  145.9640 C   0  0  0  0  0  0  0  0  0  0  0  0
  193.4420  176.4480  144.1090 C   0  0  0  0  0  3  0  0  0  0  0  0
  192.2720  176.7750  144.9560 C   0  0  0  0  0  0  0  0  0  0  0  0
  195.3620  174.3950  142.5760 C   0  0  1  0  0  3  0  0  0  0  0  0
  196.2840  176.7350  143.0650 C   0  0  0  0  0  2  0  0  0  0  0  0
  194.4950  174.8980  141.4800 N   0  0  0  0  0  0  0  0  0  0  0  0
  195.6660  175.4610  143.6560 C   0  0  1  0  0  3  0  0  0  0  0  0
  196.0780  176.8430  141.5570 C   0  0  0  0  0  2  0  0  0  0  0  0
  194.6860  176.3340  141.1810 C   0  0  0  0  0  2  0  0  0  0  0  0
  196.0840  173.7930  140.1540 F   0  0  0  0  0  0  0  0  0  0  0  0
  194.7440  174.1330  140.2430 C   0  0  0  0  0  0  0  0  0  0  0  0
  193.9840  172.9710  140.2160 F   0  0  0  0  0  0  0  0  0  0  0  0
  194.4310  174.8980  139.1340 F   0  0  0  0  0  0  0  0  0  0  0  0
  194.7870  173.1240  143.1980 C   0  0  0  0  0  2  0  0  0  0  0  0
  195.9240  172.1660  143.5830 C   0  0  1  0  0  3  0  0  0  0  0  0
  195.6860  171.3360  144.7400 N   0  0  0  0  0  0  0  0  0  0  0  0
  195.4980  170.8160  143.4080 N   0  0  0  0  0  2  0  0  0  0  0  0
  194.3500  171.4620  145.3250 C   0  0  0  0  0  1  0  0  0  0  0  0
  191.1280  177.2510  142.8240 C   0  0  0  0  0  2  0  0  0  0  0  0
  191.1010  177.4660  144.2730 C   0  0  1  0  0  3  0  0  0  0  0  0
  190.0860  176.5860  143.6170 N   0  0  0  0  0  0  0  0  0  0  0  0
  190.3960  175.1530  143.6380 C   0  0  0  0  0  2  0  0  0  0  0  0
  190.0560  174.4940  142.3290 C   0  0  0  0  0  0  0  0  0  0  0  0
  191.0400  173.6990  141.5520 C   0  0  2  0  0  3  0  0  0  0  0  0
  188.9070  173.9540  140.3720 C   0  0  0  0  0  3  0  0  0  0  0  0
  190.3190  173.3840  140.2440 C   0  0  0  0  0  3  0  0  0  0  0  0
  188.9080  174.6320  141.6900 C   0  0  0  0  0  0  0  0  0  0  0  0
  191.3530  172.4020  142.2750 C   0  0  0  0  0  1  0  0  0  0  0  0
  187.8300  175.3600  142.2020 O   0  0  0  0  0  0  0  0  0  0  0  0
  187.3450  176.4850  141.5660 N   0  0  0  0  0  2  0  0  0  0  0  0
  186.1820  176.9650  142.2980 C   0  0  2  0  0  3  0  0  0  0  0  0
  185.8300  178.3750  141.8370 C   0  0  0  0  0  2  0  0  0  0  0  0
  184.4600  178.3300  140.6400 S   0  0  0  0  0  0  0  0  0  0  0  0
  181.8340  178.3410  141.3740 C   0  0  0  0  0  1  0  0  0  0  0  0
  183.2160  178.0980  141.9460 C   0  0  0  0  0  2  0  0  0  0  0  0
  186.4580  176.9670  143.7990 C   0  0  0  0  0  2  0  0  0  0  0  0
  185.8960  178.1270  144.4050 O   0  0  0  0  0  0  0  0  0  0  0  0
  185.0290  176.9130  146.3990 C   0  0  0  0  0  1  0  0  0  0  0  0
  184.0220  178.8780  145.5310 O   0  0  0  0  0  0  0  0  0  0  0  0
  184.9470  178.0280  145.4240 C   0  0  0  0  0  0  0  0  0  0  0  0
  190.9930  176.4210  147.0790 C   0  0  0  0  0  0  0  0  0  0  0  0
  190.0580  175.2620  147.1680 C   0  0  0  0  0  1  0  0  0  0  0  0
  190.7050  177.4720  147.7090 O   0  0  0  0  0  0  0  0  0  0  0  0
  1  5  1  0  0  0  0
  3  2  1  0  0  0  0
  3 45  1  0  0  0  0
  5  4  2  0  0  0  0
  5  2  1  0  0  0  0
  6  1  2  0  0  0  0
  6  7  1  0  0  0  0
  7  3  2  0  0  0  0
  8 18  1  1  0  0  0
  8 11  1  0  0  0  0
  9 11  1  0  0  0  0
 10  8  1  0  0  0  0
 11  1  1  6  0  0  0
 12  9  1  0  0  0  0
 13 10  1  0  0  0  0
 13 12  1  0  0  0  0
 14 15  1  0  0  0  0
 15 10  1  0  0  0  0
 16 15  1  0  0  0  0
 17 15  1  0  0  0  0
 19 18  1  1  0  0  0
 19 20  1  0  0  0  0
 20 22  1  0  0  0  0
 21 19  1  0  0  0  0
 21 20  1  0  0  0  0
 23 25  1  0  0  0  0
 23 24  1  0  0  0  0
 24  7  1  1  0  0  0
 25 26  1  0  0  0  0
 25 24  1  0  0  0  0
 27 26  1  0  0  0  0
 28 32  1  1  0  0  0
 28 27  1  0  0  0  0
 29 31  1  0  0  0  0
 30 29  2  0  0  0  0
 30 28  1  0  0  0  0
 31 33  1  0  0  0  0
 31 27  2  0  0  0  0
 34 33  1  0  0  0  0
 34 35  1  0  0  0  0
 35 36  1  6  0  0  0
 35 40  1  0  0  0  0
 37 36  1  0  0  0  0
 37 39  1  0  0  0  0
 38 39  1  0  0  0  0
 40 41  1  0  0  0  0
 41 44  1  0  0  0  0
 44 43  2  0  0  0  0
 44 42  1  0  0  0  0
 45 46  1  0  0  0  0
 45 47  2  0  0  0  0
M  END
>  <MODEL>
2

>  <REMARK>
 VINA RESULT:      -6.3      1.580      2.227
  Name = 
  17 active torsions:
  status: ('A' for Active; 'I' for Inactive)
    1  A    between atoms: C_2  and  C_26
    2  A    between atoms: C_4  and  C_21
    3  A    between atoms: C_6  and  C_26
    4  A    between atoms: O_8  and  C_42
    5  A    between atoms: O_8  and  N_47
    6  A    between atoms: S_9  and  C_16
    7  A    between atoms: S_9  and  C_46
    8  A    between atoms: C_11  and  C_12
    9  A    between atoms: C_11  and  N_25
   10  A    between atoms: C_13  and  C_45
   11  A    between atoms: C_14  and  C_16
   12  A    between atoms: C_14  and  C_35
   13  A    between atoms: C_14  and  N_47
   14  A    between atoms: N_20  and  C_32
   15  A    between atoms: C_24  and  O_41
   16  A    between atoms: C_28  and  C_30
   17  A    between atoms: C_35  and  O_41
                            x       y       z     vdW  Elec       q    Type
                         _______ _______ _______ _____ _____    ______ ____

>  <TORSDO>
F 17

$$$$
=
 OpenBabel11072408383D

 47 51  0  0  1  0  0  0  0  0999 V2000
  193.5270  174.0490  144.8030 C   0  0  0  0  0  0  0  0  0  0  0  0
  194.4880  171.6750  144.5150 C   0  0  0  0  0  2  0  0  0  0  0  0
  193.0730  171.2690  144.1590 C   0  0  0  0  0  0  0  0  0  0  0  0
  195.8540  173.6230  144.6260 O   0  0  0  0  0  0  0  0  0  0  0  0
  194.6840  173.1570  144.6310 C   0  0  0  0  0  0  0  0  0  0  0  0
  192.2960  173.5480  144.6740 C   0  0  0  0  0  3  0  0  0  0  0  0
  192.0340  172.1230  144.3720 C   0  0  0  0  0  0  0  0  0  0  0  0
  192.9870  176.4740  144.1530 C   0  0  1  0  0  3  0  0  0  0  0  0
  193.4810  175.8300  146.5840 C   0  0  0  0  0  2  0  0  0  0  0  0
  191.5230  176.5180  144.3970 N   0  0  0  0  0  0  0  0  0  0  0  0
  193.7390  175.5130  145.1050 C   0  0  1  0  0  3  0  0  0  0  0  0
  192.2530  176.7140  146.7890 C   0  0  0  0  0  2  0  0  0  0  0  0
  191.1480  176.3100  145.8130 C   0  0  0  0  0  2  0  0  0  0  0  0
  190.4040  177.6950  142.7050 F   0  0  0  0  0  0  0  0  0  0  0  0
  190.9730  177.8170  143.9610 C   0  0  0  0  0  0  0  0  0  0  0  0
  190.0070  178.2700  144.8490 F   0  0  0  0  0  0  0  0  0  0  0  0
  191.9820  178.7600  143.8760 F   0  0  0  0  0  0  0  0  0  0  0  0
  193.2960  176.1600  142.6910 C   0  0  0  0  0  2  0  0  0  0  0  0
  194.8090  176.2490  142.4410 C   0  0  1  0  0  3  0  0  0  0  0  0
  195.3800  175.1940  141.6390 N   0  0  0  0  0  0  0  0  0  0  0  0
  195.0570  176.4720  141.0550 N   0  0  0  0  0  2  0  0  0  0  0  0
  194.4120  174.2370  141.0990 C   0  0  0  0  0  1  0  0  0  0  0  0
  189.7030  172.8920  144.1410 C   0  0  0  0  0  2  0  0  0  0  0  0
  190.5810  171.7200  144.1620 C   0  0  1  0  0  3  0  0  0  0  0  0
  189.9350  172.1620  142.8880 N   0  0  0  0  0  0  0  0  0  0  0  0
  190.7650  173.0120  142.0300 C   0  0  0  0  0  2  0  0  0  0  0  0
  190.1750  173.1500  140.6520 C   0  0  0  0  0  0  0  0  0  0  0  0
  190.7800  172.5150  139.4540 C   0  0  2  0  0  3  0  0  0  0  0  0
  188.8630  173.9330  138.8900 C   0  0  0  0  0  3  0  0  0  0  0  0
  189.9630  173.0620  138.2870 C   0  0  0  0  0  3  0  0  0  0  0  0
  189.1440  173.9160  140.3450 C   0  0  0  0  0  0  0  0  0  0  0  0
  190.6110  171.0080  139.5200 C   0  0  0  0  0  1  0  0  0  0  0  0
  188.4210  174.6430  141.2960 O   0  0  0  0  0  0  0  0  0  0  0  0
  187.8920  175.8860  141.0110 N   0  0  0  0  0  2  0  0  0  0  0  0
  187.0530  176.2980  142.1270 C   0  0  2  0  0  3  0  0  0  0  0  0
  186.7390  177.7850  142.0130 C   0  0  0  0  0  2  0  0  0  0  0  0
  185.3990  178.0630  140.8130 S   0  0  0  0  0  0  0  0  0  0  0  0
  182.7620  178.1790  141.4970 C   0  0  0  0  0  1  0  0  0  0  0  0
  184.1430  178.2020  142.1210 C   0  0  0  0  0  2  0  0  0  0  0  0
  187.7510  176.0180  143.4540 C   0  0  0  0  0  2  0  0  0  0  0  0
  187.4590  177.0460  144.3950 O   0  0  0  0  0  0  0  0  0  0  0  0
  187.3140  176.6670  146.8520 C   0  0  0  0  0  1  0  0  0  0  0  0
  185.4200  176.6910  145.4240 O   0  0  0  0  0  0  0  0  0  0  0  0
  186.6720  176.7990  145.5220 C   0  0  0  0  0  0  0  0  0  0  0  0
  192.8950  169.8940  143.6250 C   0  0  0  0  0  0  0  0  0  0  0  0
  192.8580  169.6510  142.1540 C   0  0  0  0  0  1  0  0  0  0  0  0
  192.7510  168.9110  144.3970 O   0  0  0  0  0  0  0  0  0  0  0  0
  2  5  1  0  0  0  0
  3  7  2  0  0  0  0
  3  2  1  0  0  0  0
  4  5  2  0  0  0  0
  5  1  1  0  0  0  0
  6  1  2  0  0  0  0
  7  6  1  0  0  0  0
  8 18  1  6  0  0  0
  8 10  1  0  0  0  0
  8 11  1  0  0  0  0
  9 12  1  0  0  0  0
 10 13  1  0  0  0  0
 11  1  1  6  0  0  0
 11  9  1  0  0  0  0
 13 12  1  0  0  0  0
 14 15  1  0  0  0  0
 15 10  1  0  0  0  0
 15 16  1  0  0  0  0
 17 15  1  0  0  0  0
 19 18  1  6  0  0  0
 20 19  1  0  0  0  0
 21 20  1  0  0  0  0
 21 19  1  0  0  0  0
 22 20  1  0  0  0  0
 23 24  1  0  0  0  0
 24  7  1  6  0  0  0
 25 23  1  0  0  0  0
 25 24  1  0  0  0  0
 26 25  1  0  0  0  0
 27 26  1  0  0  0  0
 28 32  1  1  0  0  0
 28 27  1  0  0  0  0
 29 31  1  0  0  0  0
 30 29  2  0  0  0  0
 30 28  1  0  0  0  0
 31 27  2  0  0  0  0
 31 33  1  0  0  0  0
 34 33  1  0  0  0  0
 34 35  1  0  0  0  0
 35 36  1  6  0  0  0
 35 40  1  0  0  0  0
 37 36  1  0  0  0  0
 37 39  1  0  0  0  0
 38 39  1  0  0  0  0
 40 41  1  0  0  0  0
 41 44  1  0  0  0  0
 43 44  2  0  0  0  0
 44 42  1  0  0  0  0
 45  3  1  0  0  0  0
 45 47  2  0  0  0  0
 46 45  1  0  0  0  0
M  END
>  <MODEL>
3

>  <REMARK>
 VINA RESULT:      -6.3      2.849      4.873
  Name = 
  17 active torsions:
  status: ('A' for Active; 'I' for Inactive)
    1  A    between atoms: C_2  and  C_26
    2  A    between atoms: C_4  and  C_21
    3  A    between atoms: C_6  and  C_26
    4  A    between atoms: O_8  and  C_42
    5  A    between atoms: O_8  and  N_47
    6  A    between atoms: S_9  and  C_16
    7  A    between atoms: S_9  and  C_46
    8  A    between atoms: C_11  and  C_12
    9  A    between atoms: C_11  and  N_25
   10  A    between atoms: C_13  and  C_45
   11  A    between atoms: C_14  and  C_16
   12  A    between atoms: C_14  and  C_35
   13  A    between atoms: C_14  and  N_47
   14  A    between atoms: N_20  and  C_32
   15  A    between atoms: C_24  and  O_41
   16  A    between atoms: C_28  and  C_30
   17  A    between atoms: C_35  and  O_41
                            x       y       z     vdW  Elec       q    Type
                         _______ _______ _______ _____ _____    ______ ____

>  <TORSDO>
F 17

$$$$
=
 OpenBabel11072408383D

 47 51  0  0  1  0  0  0  0  0999 V2000
  192.9500  172.9790  141.4390 C   0  0  0  0  0  0  0  0  0  0  0  0
  190.9540  173.5560  139.9130 C   0  0  0  0  0  2  0  0  0  0  0  0
  190.1030  173.3820  141.1540 C   0  0  0  0  0  0  0  0  0  0  0  0
  193.2190  173.9620  139.2970 O   0  0  0  0  0  0  0  0  0  0  0  0
  192.4290  173.5370  140.1820 C   0  0  0  0  0  0  0  0  0  0  0  0
  192.0930  172.6570  142.4110 C   0  0  0  0  0  3  0  0  0  0  0  0
  190.6280  172.8270  142.2810 C   0  0  0  0  0  0  0  0  0  0  0  0
  195.0420  173.6210  142.7840 C   0  0  1  0  0  3  0  0  0  0  0  0
  194.8160  171.3070  141.7060 C   0  0  0  0  0  2  0  0  0  0  0  0
  194.6910  173.0970  144.1280 N   0  0  0  0  0  0  0  0  0  0  0  0
  194.4360  172.7910  141.6250 C   0  0  1  0  0  3  0  0  0  0  0  0
  195.3290  170.9060  143.0860 C   0  0  0  0  0  2  0  0  0  0  0  0
  194.5300  171.6270  144.1710 C   0  0  0  0  0  2  0  0  0  0  0  0
  195.8810  172.4730  146.0510 F   0  0  0  0  0  0  0  0  0  0  0  0
  195.7280  173.4750  145.1080 C   0  0  0  0  0  0  0  0  0  0  0  0
  196.9480  173.6920  144.4820 F   0  0  0  0  0  0  0  0  0  0  0  0
  195.3580  174.6280  145.7780 F   0  0  0  0  0  0  0  0  0  0  0  0
  194.6820  175.1000  142.6540 C   0  0  0  0  0  2  0  0  0  0  0  0
  195.5370  175.7550  141.5600 C   0  0  1  0  0  3  0  0  0  0  0  0
  196.4960  176.7350  142.0110 N   0  0  0  0  0  0  0  0  0  0  0  0
  196.9030  175.3810  141.7260 N   0  0  0  0  0  2  0  0  0  0  0  0
  196.5790  176.8940  143.4640 C   0  0  0  0  0  1  0  0  0  0  0  0
  190.5920  172.5490  144.7310 C   0  0  0  0  0  2  0  0  0  0  0  0
  189.7870  172.5030  143.5080 C   0  0  1  0  0  3  0  0  0  0  0  0
  189.5930  173.6020  144.5030 N   0  0  0  0  0  0  0  0  0  0  0  0
  190.3190  174.8420  144.2130 C   0  0  0  0  0  2  0  0  0  0  0  0
  190.3470  175.7590  145.4060 C   0  0  0  0  0  0  0  0  0  0  0  0
  191.4790  175.7900  146.3660 C   0  0  2  0  0  3  0  0  0  0  0  0
  189.6300  177.2420  147.0560 C   0  0  0  0  0  3  0  0  0  0  0  0
  191.0000  176.7170  147.4800 C   0  0  0  0  0  3  0  0  0  0  0  0
  189.3510  176.5400  145.7810 C   0  0  0  0  0  0  0  0  0  0  0  0
  192.7070  176.3920  145.7080 C   0  0  0  0  0  1  0  0  0  0  0  0
  188.1610  176.6640  145.0570 O   0  0  0  0  0  0  0  0  0  0  0  0
  188.0250  177.5810  144.0340 N   0  0  0  0  0  2  0  0  0  0  0  0
  186.7810  178.3130  144.2310 C   0  0  2  0  0  3  0  0  0  0  0  0
  185.7370  177.3930  144.8540 C   0  0  0  0  0  2  0  0  0  0  0  0
  184.4410  178.3680  145.6800 S   0  0  0  0  0  0  0  0  0  0  0  0
  186.0140  177.5790  147.7640 C   0  0  0  0  0  1  0  0  0  0  0  0
  185.5450  178.8310  147.0500 C   0  0  0  0  0  2  0  0  0  0  0  0
  186.2640  178.8570  142.9040 C   0  0  0  0  0  2  0  0  0  0  0  0
  185.5770  177.8380  142.1840 O   0  0  0  0  0  0  0  0  0  0  0  0
  183.8640  178.3520  140.4510 C   0  0  0  0  0  1  0  0  0  0  0  0
  186.1220  177.8380  139.9380 O   0  0  0  0  0  0  0  0  0  0  0  0
  185.2510  177.9940  140.8350 C   0  0  0  0  0  0  0  0  0  0  0  0
  188.6820  173.8000  141.0430 C   0  0  0  0  0  0  0  0  0  0  0  0
  188.2950  175.2290  141.2190 C   0  0  0  0  0  1  0  0  0  0  0  0
  187.7730  172.9570  140.8200 O   0  0  0  0  0  0  0  0  0  0  0  0
  1  6  2  0  0  0  0
  2  5  1  0  0  0  0
  2  3  1  0  0  0  0
  3  7  2  0  0  0  0
  4  5  2  0  0  0  0
  5  1  1  0  0  0  0
  7  6  1  0  0  0  0
  8 18  1  1  0  0  0
  8 10  1  0  0  0  0
  9 12  1  0  0  0  0
 10 13  1  0  0  0  0
 10 15  1  0  0  0  0
 11  1  1  1  0  0  0
 11  9  1  0  0  0  0
 11  8  1  0  0  0  0
 12 13  1  0  0  0  0
 15 17  1  0  0  0  0
 15 14  1  0  0  0  0
 16 15  1  0  0  0  0
 19 21  1  0  0  0  0
 19 20  1  0  0  0  0
 19 18  1  1  0  0  0
 20 22  1  0  0  0  0
 21 20  1  0  0  0  0
 24  7  1  6  0  0  0
 24 25  1  0  0  0  0
 24 23  1  0  0  0  0
 25 23  1  0  0  0  0
 26 25  1  0  0  0  0
 26 27  1  0  0  0  0
 27 31  2  0  0  0  0
 27 28  1  0  0  0  0
 28 32  1  6  0  0  0
 28 30  1  0  0  0  0
 29 30  2  0  0  0  0
 31 29  1  0  0  0  0
 33 31  1  0  0  0  0
 34 35  1  0  0  0  0
 34 33  1  0  0  0  0
 35 40  1  6  0  0  0
 35 36  1  0  0  0  0
 36 37  1  0  0  0  0
 37 39  1  0  0  0  0
 39 38  1  0  0  0  0
 41 40  1  0  0  0  0
 42 44  1  0  0  0  0
 43 44  2  0  0  0  0
 44 41  1  0  0  0  0
 45  3  1  0  0  0  0
 45 46  1  0  0  0  0
 47 45  2  0  0  0  0
M  END
>  <MODEL>
4

>  <REMARK>
 VINA RESULT:      -6.3      2.498      4.943
  Name = 
  17 active torsions:
  status: ('A' for Active; 'I' for Inactive)
    1  A    between atoms: C_2  and  C_26
    2  A    between atoms: C_4  and  C_21
    3  A    between atoms: C_6  and  C_26
    4  A    between atoms: O_8  and  C_42
    5  A    between atoms: O_8  and  N_47
    6  A    between atoms: S_9  and  C_16
    7  A    between atoms: S_9  and  C_46
    8  A    between atoms: C_11  and  C_12
    9  A    between atoms: C_11  and  N_25
   10  A    between atoms: C_13  and  C_45
   11  A    between atoms: C_14  and  C_16
   12  A    between atoms: C_14  and  C_35
   13  A    between atoms: C_14  and  N_47
   14  A    between atoms: N_20  and  C_32
   15  A    between atoms: C_24  and  O_41
   16  A    between atoms: C_28  and  C_30
   17  A    between atoms: C_35  and  O_41
                            x       y       z     vdW  Elec       q    Type
                         _______ _______ _______ _____ _____    ______ ____

>  <TORSDO>
F 17

$$$$
=
 OpenBabel11072408383D

 47 51  0  0  1  0  0  0  0  0999 V2000
  193.3240  172.0950  141.2770 C   0  0  0  0  0  0  0  0  0  0  0  0
  191.6210  172.9330  139.5320 C   0  0  0  0  0  2  0  0  0  0  0  0
  190.6070  172.8580  140.6550 C   0  0  0  0  0  0  0  0  0  0  0  0
  193.9780  173.0530  139.2080 O   0  0  0  0  0  0  0  0  0  0  0  0
  193.0370  172.7250  139.9790 C   0  0  0  0  0  0  0  0  0  0  0  0
  192.3190  171.8760  142.1290 C   0  0  0  0  0  3  0  0  0  0  0  0
  190.9150  172.2310  141.8250 C   0  0  0  0  0  0  0  0  0  0  0  0
  195.4460  172.7290  142.5760 C   0  0  1  0  0  3  0  0  0  0  0  0
  194.8310  170.2770  142.1560 C   0  0  0  0  0  2  0  0  0  0  0  0
  194.9530  172.6770  143.9760 N   0  0  0  0  0  0  0  0  0  0  0  0
  194.7410  171.7190  141.6400 C   0  0  1  0  0  3  0  0  0  0  0  0
  195.2070  170.2040  143.6330 C   0  0  0  0  0  2  0  0  0  0  0  0
  194.5170  171.3290  144.4050 C   0  0  0  0  0  2  0  0  0  0  0  0
  197.2560  172.9010  144.3600 F   0  0  0  0  0  0  0  0  0  0  0  0
  196.0040  173.1370  144.9040 C   0  0  0  0  0  0  0  0  0  0  0  0
  195.8770  174.4950  145.1640 F   0  0  0  0  0  0  0  0  0  0  0  0
  195.9280  172.4440  146.0990 F   0  0  0  0  0  0  0  0  0  0  0  0
  195.3750  174.1480  142.0160 C   0  0  0  0  0  2  0  0  0  0  0  0
  196.6040  174.4290  141.1380 C   0  0  1  0  0  3  0  0  0  0  0  0
  196.8800  175.8190  140.8660 N   0  0  0  0  0  0  0  0  0  0  0  0
  197.5950  175.1140  141.9000 N   0  0  0  0  0  2  0  0  0  0  0  0
  195.9990  176.7690  141.5480 C   0  0  0  0  0  1  0  0  0  0  0  0
  190.5360  171.9670  144.2460 C   0  0  0  0  0  2  0  0  0  0  0  0
  189.8930  172.0060  142.9310 C   0  0  1  0  0  3  0  0  0  0  0  0
  189.6960  173.1230  143.9050 N   0  0  0  0  0  0  0  0  0  0  0  0
  190.5850  174.2750  143.7220 C   0  0  0  0  0  2  0  0  0  0  0  0
  191.0750  174.8100  145.0410 C   0  0  0  0  0  0  0  0  0  0  0  0
  192.5150  174.8800  145.3920 C   0  0  2  0  0  3  0  0  0  0  0  0
  191.0680  175.5490  147.2530 C   0  0  0  0  0  3  0  0  0  0  0  0
  192.5230  175.3120  146.8560 C   0  0  0  0  0  3  0  0  0  0  0  0
  190.2960  175.1680  146.0460 C   0  0  0  0  0  0  0  0  0  0  0  0
  193.2070  175.9410  144.5540 C   0  0  0  0  0  1  0  0  0  0  0  0
  188.9000  175.1620  145.9730 O   0  0  0  0  0  0  0  0  0  0  0  0
  188.1210  175.8030  146.9150 N   0  0  0  0  0  2  0  0  0  0  0  0
  187.4620  176.9340  146.2780 C   0  0  2  0  0  3  0  0  0  0  0  0
  186.0240  177.0380  146.7730 C   0  0  0  0  0  2  0  0  0  0  0  0
  185.5500  178.7810  146.9960 S   0  0  0  0  0  0  0  0  0  0  0  0
  184.9160  179.5840  144.4680 C   0  0  0  0  0  1  0  0  0  0  0  0
  184.3850  178.7300  145.6010 C   0  0  0  0  0  2  0  0  0  0  0  0
  187.4750  176.7760  144.7600 C   0  0  0  0  0  2  0  0  0  0  0  0
  188.0630  177.9200  144.1480 O   0  0  0  0  0  0  0  0  0  0  0  0
  190.3200  177.9000  143.0960 C   0  0  0  0  0  1  0  0  0  0  0  0
  188.3080  177.6270  141.8690 O   0  0  0  0  0  0  0  0  0  0  0  0
  188.8430  177.8080  142.9960 C   0  0  0  0  0  0  0  0  0  0  0  0
  189.2740  173.4520  140.3810 C   0  0  0  0  0  0  0  0  0  0  0  0
  188.2500  172.6940  139.6060 C   0  0  0  0  0  1  0  0  0  0  0  0
  188.9860  174.6120  140.7770 O   0  0  0  0  0  0  0  0  0  0  0  0
  1  6  2  0  0  0  0
  2  5  1  0  0  0  0
  2  3  1  0  0  0  0
  3  7  2  0  0  0  0
  4  5  2  0  0  0  0
  5  1  1  0  0  0  0
  7  6  1  0  0  0  0
  8 18  1  6  0  0  0
  8 10  1  0  0  0  0
  9 12  1  0  0  0  0
 10 13  1  0  0  0  0
 10 15  1  0  0  0  0
 11  1  1  1  0  0  0
 11  9  1  0  0  0  0
 11  8  1  0  0  0  0
 12 13  1  0  0  0  0
 14 15  1  0  0  0  0
 15 16  1  0  0  0  0
 15 17  1  0  0  0  0
 19 21  1  0  0  0  0
 19 18  1  1  0  0  0
 20 19  1  0  0  0  0
 20 22  1  0  0  0  0
 20 21  1  0  0  0  0
 24  7  1  6  0  0  0
 24 25  1  0  0  0  0
 24 23  1  0  0  0  0
 25 23  1  0  0  0  0
 26 25  1  0  0  0  0
 26 27  1  0  0  0  0
 27 28  1  0  0  0  0
 27 31  2  0  0  0  0
 28 32  1  6  0  0  0
 28 30  1  0  0  0  0
 30 29  2  0  0  0  0
 31 29  1  0  0  0  0
 33 31  1  0  0  0  0
 33 34  1  0  0  0  0
 35 40  1  6  0  0  0
 35 36  1  0  0  0  0
 35 34  1  0  0  0  0
 36 37  1  0  0  0  0
 38 39  1  0  0  0  0
 39 37  1  0  0  0  0
 41 40  1  0  0  0  0
 43 44  2  0  0  0  0
 44 42  1  0  0  0  0
 44 41  1  0  0  0  0
 45  3  1  0  0  0  0
 45 47  2  0  0  0  0
 46 45  1  0  0  0  0
M  END
>  <MODEL>
5

>  <REMARK>
 VINA RESULT:      -6.1      2.709      5.275
  Name = 
  17 active torsions:
  status: ('A' for Active; 'I' for Inactive)
    1  A    between atoms: C_2  and  C_26
    2  A    between atoms: C_4  and  C_21
    3  A    between atoms: C_6  and  C_26
    4  A    between atoms: O_8  and  C_42
    5  A    between atoms: O_8  and  N_47
    6  A    between atoms: S_9  and  C_16
    7  A    between atoms: S_9  and  C_46
    8  A    between atoms: C_11  and  C_12
    9  A    between atoms: C_11  and  N_25
   10  A    between atoms: C_13  and  C_45
   11  A    between atoms: C_14  and  C_16
   12  A    between atoms: C_14  and  C_35
   13  A    between atoms: C_14  and  N_47
   14  A    between atoms: N_20  and  C_32
   15  A    between atoms: C_24  and  O_41
   16  A    between atoms: C_28  and  C_30
   17  A    between atoms: C_35  and  O_41
                            x       y       z     vdW  Elec       q    Type
                         _______ _______ _______ _____ _____    ______ ____

>  <TORSDO>
F 17

$$$$
=
 OpenBabel11072408383D

 47 51  0  0  1  0  0  0  0  0999 V2000
  193.5390  173.9470  144.7610 C   0  0  0  0  0  0  0  0  0  0  0  0
  194.4400  171.5630  144.3830 C   0  0  0  0  0  2  0  0  0  0  0  0
  193.0020  171.1890  144.0890 C   0  0  0  0  0  0  0  0  0  0  0  0
  195.8460  173.4830  144.4630 O   0  0  0  0  0  0  0  0  0  0  0  0
  194.6690  173.0380  144.5160 C   0  0  0  0  0  0  0  0  0  0  0  0
  192.2930  173.4720  144.6830 C   0  0  0  0  0  3  0  0  0  0  0  0
  191.9910  172.0570  144.3680 C   0  0  0  0  0  0  0  0  0  0  0  0
  193.1190  176.3930  144.0990 C   0  0  1  0  0  3  0  0  0  0  0  0
  193.4820  175.7240  146.5460 C   0  0  0  0  0  2  0  0  0  0  0  0
  191.6490  176.4920  144.2800 N   0  0  0  0  0  0  0  0  0  0  0  0
  193.7920  175.4020  145.0780 C   0  0  1  0  0  3  0  0  0  0  0  0
  192.2810  176.6530  146.7020 C   0  0  0  0  0  2  0  0  0  0  0  0
  191.2050  176.2940  145.6770 C   0  0  0  0  0  2  0  0  0  0  0  0
  190.1180  178.2360  144.6240 F   0  0  0  0  0  0  0  0  0  0  0  0
  191.1680  177.8120  143.8260 C   0  0  0  0  0  0  0  0  0  0  0  0
  192.1840  178.7570  143.8820 F   0  0  0  0  0  0  0  0  0  0  0  0
  190.7020  177.7320  142.5260 F   0  0  0  0  0  0  0  0  0  0  0  0
  193.4790  176.0720  142.6500 C   0  0  0  0  0  2  0  0  0  0  0  0
  195.0040  176.1110  142.4650 C   0  0  1  0  0  3  0  0  0  0  0  0
  195.5230  175.3670  141.3430 N   0  0  0  0  0  0  0  0  0  0  0  0
  195.3260  176.7920  141.2550 N   0  0  0  0  0  2  0  0  0  0  0  0
  194.5070  174.7550  140.4850 C   0  0  0  0  0  1  0  0  0  0  0  0
  189.6680  172.8730  144.2420 C   0  0  0  0  0  2  0  0  0  0  0  0
  190.5220  171.6840  144.2230 C   0  0  1  0  0  3  0  0  0  0  0  0
  189.8290  172.1420  142.9800 N   0  0  0  0  0  0  0  0  0  0  0  0
  190.6380  172.9770  142.0860 C   0  0  0  0  0  2  0  0  0  0  0  0
  189.9440  173.2120  140.7710 C   0  0  0  0  0  0  0  0  0  0  0  0
  190.3820  172.5670  139.5080 C   0  0  2  0  0  3  0  0  0  0  0  0
  188.5590  174.1660  139.1550 C   0  0  0  0  0  3  0  0  0  0  0  0
  189.5180  173.2220  138.4330 C   0  0  0  0  0  3  0  0  0  0  0  0
  188.9640  174.0760  140.5780 C   0  0  0  0  0  0  0  0  0  0  0  0
  190.0830  171.0790  139.5510 C   0  0  0  0  0  1  0  0  0  0  0  0
  188.3960  174.8320  141.6090 O   0  0  0  0  0  0  0  0  0  0  0  0
  187.5810  175.9160  141.3500 N   0  0  0  0  0  2  0  0  0  0  0  0
  187.5800  176.7830  142.5190 C   0  0  2  0  0  3  0  0  0  0  0  0
  186.6620  176.2040  143.5890 C   0  0  0  0  0  2  0  0  0  0  0  0
  187.3600  176.4800  145.2460 S   0  0  0  0  0  0  0  0  0  0  0  0
  185.8720  177.7060  147.1750 C   0  0  0  0  0  1  0  0  0  0  0  0
  185.7240  176.7900  145.9760 C   0  0  0  0  0  2  0  0  0  0  0  0
  187.1160  178.1870  142.1440 C   0  0  0  0  0  2  0  0  0  0  0  0
  185.6950  178.2320  142.0580 O   0  0  0  0  0  0  0  0  0  0  0  0
  185.5660  179.8150  143.9770 C   0  0  0  0  0  1  0  0  0  0  0  0
  183.6910  178.6270  143.1410 O   0  0  0  0  0  0  0  0  0  0  0  0
  184.9260  178.8590  143.0410 C   0  0  0  0  0  0  0  0  0  0  0  0
  192.7720  169.8280  143.5400 C   0  0  0  0  0  0  0  0  0  0  0  0
  192.5820  169.6230  142.0750 C   0  0  0  0  0  1  0  0  0  0  0  0
  192.7130  168.8230  144.2970 O   0  0  0  0  0  0  0  0  0  0  0  0
  2  5  1  0  0  0  0
  3  7  2  0  0  0  0
  3  2  1  0  0  0  0
  4  5  2  0  0  0  0
  5  1  1  0  0  0  0
  6  1  2  0  0  0  0
  7  6  1  0  0  0  0
  8 18  1  6  0  0  0
  8 10  1  0  0  0  0
  8 11  1  0  0  0  0
  9 12  1  0  0  0  0
 10 13  1  0  0  0  0
 11  1  1  6  0  0  0
 11  9  1  0  0  0  0
 13 12  1  0  0  0  0
 15 16  1  0  0  0  0
 15 10  1  0  0  0  0
 15 14  1  0  0  0  0
 17 15  1  0  0  0  0
 19 18  1  6  0  0  0
 20 19  1  0  0  0  0
 21 20  1  0  0  0  0
 21 19  1  0  0  0  0
 22 20  1  0  0  0  0
 24 23  1  0  0  0  0
 24  7  1  6  0  0  0
 25 24  1  0  0  0  0
 25 23  1  0  0  0  0
 26 25  1  0  0  0  0
 27 26  1  0  0  0  0
 28 32  1  1  0  0  0
 28 27  1  0  0  0  0
 29 31  1  0  0  0  0
 30 29  2  0  0  0  0
 30 28  1  0  0  0  0
 31 27  2  0  0  0  0
 31 33  1  0  0  0  0
 34 33  1  0  0  0  0
 34 35  1  0  0  0  0
 35 40  1  6  0  0  0
 35 36  1  0  0  0  0
 36 37  1  0  0  0  0
 37 39  1  0  0  0  0
 39 38  1  0  0  0  0
 41 40  1  0  0  0  0
 41 44  1  0  0  0  0
 44 43  2  0  0  0  0
 44 42  1  0  0  0  0
 45  3  1  0  0  0  0
 45 47  2  0  0  0  0
 46 45  1  0  0  0  0
M  END
>  <MODEL>
6

>  <REMARK>
 VINA RESULT:      -6.0      2.738      4.624
  Name = 
  17 active torsions:
  status: ('A' for Active; 'I' for Inactive)
    1  A    between atoms: C_2  and  C_26
    2  A    between atoms: C_4  and  C_21
    3  A    between atoms: C_6  and  C_26
    4  A    between atoms: O_8  and  C_42
    5  A    between atoms: O_8  and  N_47
    6  A    between atoms: S_9  and  C_16
    7  A    between atoms: S_9  and  C_46
    8  A    between atoms: C_11  and  C_12
    9  A    between atoms: C_11  and  N_25
   10  A    between atoms: C_13  and  C_45
   11  A    between atoms: C_14  and  C_16
   12  A    between atoms: C_14  and  C_35
   13  A    between atoms: C_14  and  N_47
   14  A    between atoms: N_20  and  C_32
   15  A    between atoms: C_24  and  O_41
   16  A    between atoms: C_28  and  C_30
   17  A    between atoms: C_35  and  O_41
                            x       y       z     vdW  Elec       q    Type
                         _______ _______ _______ _____ _____    ______ ____

>  <TORSDO>
F 17

$$$$
=
 OpenBabel11072408383D

 47 51  0  0  1  0  0  0  0  0999 V2000
  193.8170  172.7410  141.3420 C   0  0  0  0  0  0  0  0  0  0  0  0
  191.9470  173.5380  139.7580 C   0  0  0  0  0  2  0  0  0  0  0  0
  191.0000  173.1940  140.8890 C   0  0  0  0  0  0  0  0  0  0  0  0
  194.2510  174.0160  139.3900 O   0  0  0  0  0  0  0  0  0  0  0  0
  193.3960  173.4740  140.1390 C   0  0  0  0  0  0  0  0  0  0  0  0
  192.8880  172.2880  142.1870 C   0  0  0  0  0  3  0  0  0  0  0  0
  191.4370  172.4820  141.9650 C   0  0  0  0  0  0  0  0  0  0  0  0
  195.7910  173.1800  142.9260 C   0  0  1  0  0  3  0  0  0  0  0  0
  195.6660  171.0390  141.5230 C   0  0  0  0  0  2  0  0  0  0  0  0
  195.3380  172.4760  144.1520 N   0  0  0  0  0  0  0  0  0  0  0  0
  195.2860  172.5220  141.6190 C   0  0  1  0  0  3  0  0  0  0  0  0
  196.0700  170.4470  142.8700 C   0  0  0  0  0  2  0  0  0  0  0  0
  195.1830  171.0150  143.9780 C   0  0  0  0  0  2  0  0  0  0  0  0
  195.8930  173.8050  146.0030 F   0  0  0  0  0  0  0  0  0  0  0  0
  196.2910  172.7100  145.2550 C   0  0  0  0  0  0  0  0  0  0  0  0
  196.3690  171.6010  146.0870 F   0  0  0  0  0  0  0  0  0  0  0  0
  197.5510  172.9810  144.7510 F   0  0  0  0  0  0  0  0  0  0  0  0
  195.4340  174.6640  142.9740 C   0  0  0  0  0  2  0  0  0  0  0  0
  196.6970  175.5160  142.7830 C   0  0  1  0  0  3  0  0  0  0  0  0
  196.5900  176.6000  141.8360 N   0  0  0  0  0  0  0  0  0  0  0  0
  196.4610  176.8410  143.2520 N   0  0  0  0  0  2  0  0  0  0  0  0
  195.2570  176.7880  141.2620 C   0  0  0  0  0  1  0  0  0  0  0  0
  191.2280  171.7560  144.3120 C   0  0  0  0  0  2  0  0  0  0  0  0
  190.5020  171.9920  143.0620 C   0  0  1  0  0  3  0  0  0  0  0  0
  190.3050  172.8960  144.2360 N   0  0  0  0  0  0  0  0  0  0  0  0
  191.1150  174.1180  144.2250 C   0  0  0  0  0  2  0  0  0  0  0  0
  191.1500  174.7710  145.5800 C   0  0  0  0  0  0  0  0  0  0  0  0
  192.3900  174.8730  146.3900 C   0  0  2  0  0  3  0  0  0  0  0  0
  190.4220  175.7090  147.5880 C   0  0  0  0  0  3  0  0  0  0  0  0
  191.9190  175.4360  147.7280 C   0  0  0  0  0  3  0  0  0  0  0  0
  190.0900  175.2200  146.2290 C   0  0  0  0  0  0  0  0  0  0  0  0
  193.3550  175.8520  145.7470 C   0  0  0  0  0  1  0  0  0  0  0  0
  188.8000  175.2070  145.6900 O   0  0  0  0  0  0  0  0  0  0  0  0
  187.9840  176.3200  145.7330 N   0  0  0  0  0  2  0  0  0  0  0  0
  187.5130  176.6000  144.3840 C   0  0  2  0  0  3  0  0  0  0  0  0
  187.9560  177.9970  143.9640 C   0  0  0  0  0  2  0  0  0  0  0  0
  188.9890  177.9160  142.4680 S   0  0  0  0  0  0  0  0  0  0  0  0
  191.6150  177.2900  142.8530 C   0  0  0  0  0  1  0  0  0  0  0  0
  190.5220  178.1790  143.4100 C   0  0  0  0  0  2  0  0  0  0  0  0
  185.9930  176.4980  144.3160 C   0  0  0  0  0  2  0  0  0  0  0  0
  185.4200  176.7610  145.5930 O   0  0  0  0  0  0  0  0  0  0  0  0
  185.4000  178.6650  147.1980 C   0  0  0  0  0  1  0  0  0  0  0  0
  184.1590  178.6520  145.1770 O   0  0  0  0  0  0  0  0  0  0  0  0
  184.9530  178.0320  145.9330 C   0  0  0  0  0  0  0  0  0  0  0  0
  189.5890  173.6300  140.7250 C   0  0  0  0  0  0  0  0  0  0  0  0
  188.6690  172.8920  139.8130 C   0  0  0  0  0  1  0  0  0  0  0  0
  189.1460  174.6390  141.3340 O   0  0  0  0  0  0  0  0  0  0  0  0
  1  6  2  0  0  0  0
  2  5  1  0  0  0  0
  2  3  1  0  0  0  0
  3  7  2  0  0  0  0
  4  5  2  0  0  0  0
  5  1  1  0  0  0  0
  7  6  1  0  0  0  0
  8 18  1  1  0  0  0
  8 10  1  0  0  0  0
  9 11  1  0  0  0  0
  9 12  1  0  0  0  0
 10 15  1  0  0  0  0
 11  1  1  1  0  0  0
 11  8  1  0  0  0  0
 12 13  1  0  0  0  0
 13 10  1  0  0  0  0
 15 14  1  0  0  0  0
 15 16  1  0  0  0  0
 17 15  1  0  0  0  0
 19 18  1  6  0  0  0
 19 21  1  0  0  0  0
 20 19  1  0  0  0  0
 20 21  1  0  0  0  0
 22 20  1  0  0  0  0
 24  7  1  6  0  0  0
 24 25  1  0  0  0  0
 24 23  1  0  0  0  0
 25 23  1  0  0  0  0
 26 25  1  0  0  0  0
 26 27  1  0  0  0  0
 27 31  2  0  0  0  0
 27 28  1  0  0  0  0
 28 32  1  6  0  0  0
 28 30  1  0  0  0  0
 29 30  2  0  0  0  0
 31 29  1  0  0  0  0
 33 34  1  0  0  0  0
 33 31  1  0  0  0  0
 35 36  1  1  0  0  0
 35 34  1  0  0  0  0
 37 39  1  0  0  0  0
 37 36  1  0  0  0  0
 38 39  1  0  0  0  0
 40 35  1  0  0  0  0
 40 41  1  0  0  0  0
 41 44  1  0  0  0  0
 43 44  2  0  0  0  0
 44 42  1  0  0  0  0
 45  3  1  0  0  0  0
 45 47  2  0  0  0  0
 46 45  1  0  0  0  0
M  END
>  <MODEL>
7

>  <REMARK>
 VINA RESULT:      -5.9      2.838      5.605
  Name = 
  17 active torsions:
  status: ('A' for Active; 'I' for Inactive)
    1  A    between atoms: C_2  and  C_26
    2  A    between atoms: C_4  and  C_21
    3  A    between atoms: C_6  and  C_26
    4  A    between atoms: O_8  and  C_42
    5  A    between atoms: O_8  and  N_47
    6  A    between atoms: S_9  and  C_16
    7  A    between atoms: S_9  and  C_46
    8  A    between atoms: C_11  and  C_12
    9  A    between atoms: C_11  and  N_25
   10  A    between atoms: C_13  and  C_45
   11  A    between atoms: C_14  and  C_16
   12  A    between atoms: C_14  and  C_35
   13  A    between atoms: C_14  and  N_47
   14  A    between atoms: N_20  and  C_32
   15  A    between atoms: C_24  and  O_41
   16  A    between atoms: C_28  and  C_30
   17  A    between atoms: C_35  and  O_41
                            x       y       z     vdW  Elec       q    Type
                         _______ _______ _______ _____ _____    ______ ____

>  <TORSDO>
F 17

$$$$
=
 OpenBabel11072408383D

 47 51  0  0  1  0  0  0  0  0999 V2000
  188.5530  176.7850  143.4090 C   0  0  0  0  0  0  0  0  0  0  0  0
  188.2360  176.0510  140.9590 C   0  0  0  0  0  2  0  0  0  0  0  0
  188.7460  174.7000  141.4170 C   0  0  0  0  0  0  0  0  0  0  0  0
  187.2730  178.0370  141.8530 O   0  0  0  0  0  0  0  0  0  0  0  0
  187.9670  177.0100  142.0790 C   0  0  0  0  0  0  0  0  0  0  0  0
  189.1740  175.6300  143.6580 C   0  0  0  0  0  3  0  0  0  0  0  0
  189.3120  174.5560  142.6480 C   0  0  0  0  0  0  0  0  0  0  0  0
  187.0830  177.8380  145.2330 C   0  0  1  0  0  3  0  0  0  0  0  0
  189.6380  177.8300  145.4280 C   0  0  0  0  0  2  0  0  0  0  0  0
  186.9460  176.7040  146.1820 N   0  0  0  0  0  0  0  0  0  0  0  0
  188.4340  177.8450  144.4780 C   0  0  1  0  0  3  0  0  0  0  0  0
  189.2650  177.3960  146.8430 C   0  0  0  0  0  2  0  0  0  0  0  0
  188.2260  176.2760  146.7890 C   0  0  0  0  0  2  0  0  0  0  0  0
  186.3180  176.3370  148.4120 F   0  0  0  0  0  0  0  0  0  0  0  0
  186.0160  177.0610  147.2710 C   0  0  0  0  0  0  0  0  0  0  0  0
  186.0940  178.4160  147.5660 F   0  0  0  0  0  0  0  0  0  0  0  0
  184.7160  176.7560  146.9120 F   0  0  0  0  0  0  0  0  0  0  0  0
  185.9050  177.8950  144.2630 C   0  0  0  0  0  2  0  0  0  0  0  0
  185.1650  179.2320  144.4120 C   0  0  1  0  0  3  0  0  0  0  0  0
  184.0510  179.4400  143.5180 N   0  0  0  0  0  0  0  0  0  0  0  0
  183.8360  178.9990  144.8740 N   0  0  0  0  0  2  0  0  0  0  0  0
  183.7300  178.3000  142.6570 C   0  0  0  0  0  1  0  0  0  0  0  0
  191.0180  172.8390  142.1830 C   0  0  0  0  0  2  0  0  0  0  0  0
  189.9630  173.2590  143.1080 C   0  0  1  0  0  3  0  0  0  0  0  0
  191.4000  173.3310  143.5130 N   0  0  0  0  0  0  0  0  0  0  0  0
  192.0340  174.6410  143.3330 C   0  0  0  0  0  2  0  0  0  0  0  0
  192.9690  174.9630  144.4670 C   0  0  0  0  0  0  0  0  0  0  0  0
  192.5300  175.6840  145.6880 C   0  0  2  0  0  3  0  0  0  0  0  0
  194.9440  175.2660  145.6700 C   0  0  0  0  0  3  0  0  0  0  0  0
  193.8220  175.9370  146.4600 C   0  0  0  0  0  3  0  0  0  0  0  0
  194.2710  174.7410  144.4580 C   0  0  0  0  0  0  0  0  0  0  0  0
  191.6160  174.8000  146.5170 C   0  0  0  0  0  1  0  0  0  0  0  0
  194.9320  174.1010  143.4050 O   0  0  0  0  0  0  0  0  0  0  0  0
  196.1430  173.4650  143.5870 N   0  0  0  0  0  2  0  0  0  0  0  0
  196.4320  172.6720  142.4000 C   0  0  2  0  0  3  0  0  0  0  0  0
  195.8640  173.3660  141.1680 C   0  0  0  0  0  2  0  0  0  0  0  0
  197.1010  174.4850  140.4390 S   0  0  0  0  0  0  0  0  0  0  0  0
  195.6710  176.6290  141.3300 C   0  0  0  0  0  1  0  0  0  0  0  0
  195.8610  175.7700  140.0960 C   0  0  0  0  0  2  0  0  0  0  0  0
  195.8320  171.2760  142.5290 C   0  0  0  0  0  2  0  0  0  0  0  0
  195.9650  170.8000  143.8650 O   0  0  0  0  0  0  0  0  0  0  0  0
  194.4300  171.1650  145.7910 C   0  0  0  0  0  1  0  0  0  0  0  0
  194.2060  169.3580  144.2720 O   0  0  0  0  0  0  0  0  0  0  0  0
  194.8550  170.3860  144.6030 C   0  0  0  0  0  0  0  0  0  0  0  0
  188.6380  173.5860  140.4410 C   0  0  0  0  0  0  0  0  0  0  0  0
  189.4680  173.5810  139.2010 C   0  0  0  0  0  1  0  0  0  0  0  0
  187.8330  172.6360  140.6250 O   0  0  0  0  0  0  0  0  0  0  0  0
  1  6  2  0  0  0  0
  2  3  1  0  0  0  0
  2  5  1  0  0  0  0
  3  7  2  0  0  0  0
  4  5  2  0  0  0  0
  5  1  1  0  0  0  0
  7  6  1  0  0  0  0
  8 18  1  6  0  0  0
  8 10  1  0  0  0  0
  9 12  1  0  0  0  0
 10 13  1  0  0  0  0
 10 15  1  0  0  0  0
 11  1  1  6  0  0  0
 11  8  1  0  0  0  0
 11  9  1  0  0  0  0
 13 12  1  0  0  0  0
 15 16  1  0  0  0  0
 15 14  1  0  0  0  0
 17 15  1  0  0  0  0
 19 18  1  6  0  0  0
 19 21  1  0  0  0  0
 20 19  1  0  0  0  0
 20 21  1  0  0  0  0
 22 20  1  0  0  0  0
 23 24  1  0  0  0  0
 23 25  1  0  0  0  0
 24  7  1  6  0  0  0
 24 25  1  0  0  0  0
 26 25  1  0  0  0  0
 26 27  1  0  0  0  0
 27 28  1  0  0  0  0
 28 30  1  0  0  0  0
 28 32  1  1  0  0  0
 29 30  2  0  0  0  0
 31 27  2  0  0  0  0
 31 29  1  0  0  0  0
 33 34  1  0  0  0  0
 33 31  1  0  0  0  0
 35 36  1  6  0  0  0
 35 40  1  0  0  0  0
 35 34  1  0  0  0  0
 37 36  1  0  0  0  0
 39 37  1  0  0  0  0
 39 38  1  0  0  0  0
 40 41  1  0  0  0  0
 41 44  1  0  0  0  0
 43 44  2  0  0  0  0
 44 42  1  0  0  0  0
 45 47  2  0  0  0  0
 45  3  1  0  0  0  0
 46 45  1  0  0  0  0
M  END
>  <MODEL>
8

>  <REMARK>
 VINA RESULT:      -5.8      4.207      9.691
  Name = 
  17 active torsions:
  status: ('A' for Active; 'I' for Inactive)
    1  A    between atoms: C_2  and  C_26
    2  A    between atoms: C_4  and  C_21
    3  A    between atoms: C_6  and  C_26
    4  A    between atoms: O_8  and  C_42
    5  A    between atoms: O_8  and  N_47
    6  A    between atoms: S_9  and  C_16
    7  A    between atoms: S_9  and  C_46
    8  A    between atoms: C_11  and  C_12
    9  A    between atoms: C_11  and  N_25
   10  A    between atoms: C_13  and  C_45
   11  A    between atoms: C_14  and  C_16
   12  A    between atoms: C_14  and  C_35
   13  A    between atoms: C_14  and  N_47
   14  A    between atoms: N_20  and  C_32
   15  A    between atoms: C_24  and  O_41
   16  A    between atoms: C_28  and  C_30
   17  A    between atoms: C_35  and  O_41
                            x       y       z     vdW  Elec       q    Type
                         _______ _______ _______ _____ _____    ______ ____

>  <TORSDO>
F 17

$$$$
=
 OpenBabel11072408383D

 47 51  0  0  1  0  0  0  0  0999 V2000
  188.5370  176.8640  143.3680 C   0  0  0  0  0  0  0  0  0  0  0  0
  188.1130  176.0810  140.9490 C   0  0  0  0  0  2  0  0  0  0  0  0
  188.7660  174.7830  141.3770 C   0  0  0  0  0  0  0  0  0  0  0  0
  187.0510  177.9890  141.9000 O   0  0  0  0  0  0  0  0  0  0  0  0
  187.8430  177.0260  142.0810 C   0  0  0  0  0  0  0  0  0  0  0  0
  189.2680  175.7670  143.5780 C   0  0  0  0  0  3  0  0  0  0  0  0
  189.4250  174.6990  142.5660 C   0  0  0  0  0  0  0  0  0  0  0  0
  187.0570  177.8900  145.2000 C   0  0  1  0  0  3  0  0  0  0  0  0
  189.6130  177.9290  145.3820 C   0  0  0  0  0  2  0  0  0  0  0  0
  186.9450  176.7530  146.1490 N   0  0  0  0  0  0  0  0  0  0  0  0
  188.4040  177.9220  144.4370 C   0  0  1  0  0  3  0  0  0  0  0  0
  189.2550  177.4880  146.7980 C   0  0  0  0  0  2  0  0  0  0  0  0
  188.2360  176.3490  146.7500 C   0  0  0  0  0  2  0  0  0  0  0  0
  186.1040  178.4420  147.5420 F   0  0  0  0  0  0  0  0  0  0  0  0
  186.0150  177.0930  147.2430 C   0  0  0  0  0  0  0  0  0  0  0  0
  184.7050  176.7980  146.8900 F   0  0  0  0  0  0  0  0  0  0  0  0
  186.3400  176.3870  148.3870 F   0  0  0  0  0  0  0  0  0  0  0  0
  185.8730  177.9250  144.2360 C   0  0  0  0  0  2  0  0  0  0  0  0
  185.0980  179.2410  144.4020 C   0  0  1  0  0  3  0  0  0  0  0  0
  183.9750  179.4280  143.5150 N   0  0  0  0  0  0  0  0  0  0  0  0
  183.7780  178.9670  144.8670 N   0  0  0  0  0  2  0  0  0  0  0  0
  183.6800  178.2890  142.6440 C   0  0  0  0  0  1  0  0  0  0  0  0
  191.2710  173.1580  142.0190 C   0  0  0  0  0  2  0  0  0  0  0  0
  190.2130  173.4650  142.9840 C   0  0  1  0  0  3  0  0  0  0  0  0
  191.6500  173.6710  143.3410 N   0  0  0  0  0  0  0  0  0  0  0  0
  192.1500  175.0370  143.1580 C   0  0  0  0  0  2  0  0  0  0  0  0
  192.9850  175.4830  144.3280 C   0  0  0  0  0  0  0  0  0  0  0  0
  192.4050  175.7630  145.6650 C   0  0  2  0  0  3  0  0  0  0  0  0
  194.7960  176.2880  145.5570 C   0  0  0  0  0  3  0  0  0  0  0  0
  193.5690  176.3410  146.4650 C   0  0  0  0  0  3  0  0  0  0  0  0
  194.2720  175.7690  144.2710 C   0  0  0  0  0  0  0  0  0  0  0  0
  191.9440  174.4710  146.3160 C   0  0  0  0  0  1  0  0  0  0  0  0
  195.0400  175.6160  143.1120 O   0  0  0  0  0  0  0  0  0  0  0  0
  196.0520  174.6810  143.0290 N   0  0  0  0  0  2  0  0  0  0  0  0
  195.4650  173.3950  142.6800 C   0  0  2  0  0  3  0  0  0  0  0  0
  196.1030  172.2930  143.5180 C   0  0  0  0  0  2  0  0  0  0  0  0
  195.1040  171.9610  145.0020 S   0  0  0  0  0  0  0  0  0  0  0  0
  197.0230  173.4390  146.2540 C   0  0  0  0  0  1  0  0  0  0  0  0
  196.5570  172.0060  146.0940 C   0  0  0  0  0  2  0  0  0  0  0  0
  195.6680  173.0990  141.1970 C   0  0  0  0  0  2  0  0  0  0  0  0
  196.9130  173.6270  140.7520 O   0  0  0  0  0  0  0  0  0  0  0  0
  197.9300  174.2710  138.5720 C   0  0  0  0  0  1  0  0  0  0  0  0
  196.2470  175.5470  139.6510 O   0  0  0  0  0  0  0  0  0  0  0  0
  196.9830  174.5240  139.6840 C   0  0  0  0  0  0  0  0  0  0  0  0
  188.6840  173.6540  140.4150 C   0  0  0  0  0  0  0  0  0  0  0  0
  189.4900  173.6660  139.1610 C   0  0  0  0  0  1  0  0  0  0  0  0
  187.9200  172.6750  140.6250 O   0  0  0  0  0  0  0  0  0  0  0  0
  1  6  2  0  0  0  0
  2  3  1  0  0  0  0
  2  5  1  0  0  0  0
  3  7  2  0  0  0  0
  4  5  2  0  0  0  0
  5  1  1  0  0  0  0
  7  6  1  0  0  0  0
  8 18  1  6  0  0  0
  8 10  1  0  0  0  0
  9 12  1  0  0  0  0
 10 13  1  0  0  0  0
 10 15  1  0  0  0  0
 11  1  1  6  0  0  0
 11  8  1  0  0  0  0
 11  9  1  0  0  0  0
 13 12  1  0  0  0  0
 15 14  1  0  0  0  0
 15 17  1  0  0  0  0
 16 15  1  0  0  0  0
 19 18  1  6  0  0  0
 19 21  1  0  0  0  0
 20 19  1  0  0  0  0
 20 21  1  0  0  0  0
 22 20  1  0  0  0  0
 23 24  1  0  0  0  0
 23 25  1  0  0  0  0
 24  7  1  6  0  0  0
 24 25  1  0  0  0  0
 26 25  1  0  0  0  0
 26 27  1  0  0  0  0
 27 28  1  0  0  0  0
 28 32  1  1  0  0  0
 28 30  1  0  0  0  0
 29 30  2  0  0  0  0
 31 27  2  0  0  0  0
 31 29  1  0  0  0  0
 33 31  1  0  0  0  0
 34 33  1  0  0  0  0
 35 40  1  6  0  0  0
 35 34  1  0  0  0  0
 35 36  1  0  0  0  0
 36 37  1  0  0  0  0
 37 39  1  0  0  0  0
 39 38  1  0  0  0  0
 41 40  1  0  0  0  0
 42 44  1  0  0  0  0
 43 44  2  0  0  0  0
 44 41  1  0  0  0  0
 45 47  2  0  0  0  0
 45  3  1  0  0  0  0
 46 45  1  0  0  0  0
M  END
>  <MODEL>
9

>  <REMARK>
 VINA RESULT:      -5.8      4.211      9.562
  Name = 
  17 active torsions:
  status: ('A' for Active; 'I' for Inactive)
    1  A    between atoms: C_2  and  C_26
    2  A    between atoms: C_4  and  C_21
    3  A    between atoms: C_6  and  C_26
    4  A    between atoms: O_8  and  C_42
    5  A    between atoms: O_8  and  N_47
    6  A    between atoms: S_9  and  C_16
    7  A    between atoms: S_9  and  C_46
    8  A    between atoms: C_11  and  C_12
    9  A    between atoms: C_11  and  N_25
   10  A    between atoms: C_13  and  C_45
   11  A    between atoms: C_14  and  C_16
   12  A    between atoms: C_14  and  C_35
   13  A    between atoms: C_14  and  N_47
   14  A    between atoms: N_20  and  C_32
   15  A    between atoms: C_24  and  O_41
   16  A    between atoms: C_28  and  C_30
   17  A    between atoms: C_35  and  O_41
                            x       y       z     vdW  Elec       q    Type
                         _______ _______ _______ _____ _____    ______ ____

>  <TORSDO>
F 17

$$$$
