=
 OpenBabel11062419243D

 38 40  0  0  1  0  0  0  0  0999 V2000
  191.0980  173.5100  145.0580 O   0  0  0  0  0  0  0  0  0  0  0  0
  194.0800  176.7500  146.4850 O   0  0  0  0  0  0  0  0  0  0  0  0
  191.5860  174.4710  145.7100 C   0  0  0  0  0  0  0  0  0  0  0  0
  192.8450  175.0570  145.4100 N   0  0  0  0  0  0  0  0  0  0  0  0
  193.1020  175.9560  146.4750 C   0  0  0  0  0  0  0  0  0  0  0  0
  190.9220  175.0830  146.9000 C   0  0  1  0  0  3  0  0  0  0  0  0
  192.0580  175.9120  147.5440 C   0  0  0  0  0  2  0  0  0  0  0  0
  187.6850  177.4000  145.2900 N   0  0  0  0  0  0  0  0  0  0  0  0
  189.7760  175.9560  146.4430 C   0  0  0  0  0  0  0  0  0  0  0  0
  190.0520  177.0520  145.4920 C   0  0  0  0  0  3  0  0  0  0  0  0
  187.3930  176.6880  146.5330 C   0  0  0  0  0  2  0  0  0  0  0  0
  188.5340  175.7870  146.9250 C   0  0  0  0  0  3  0  0  0  0  0  0
  189.0430  177.7360  144.9490 C   0  0  0  0  0  3  0  0  0  0  0  0
  186.5570  177.8040  144.4540 C   0  0  1  0  0  3  0  0  0  0  0  0
  185.5450  179.0900  145.2260 S   0  0  0  0  0  3  0  0  0  0  0  0
  184.1480  178.4890  145.2010 O   0  0  0  0  0  1  0  0  0  0  0  0
  185.4680  180.2960  144.0210 O   0  0  0  0  0  1  0  0  0  0  0  0
  186.9840  178.1720  143.0300 C   0  0  0  0  0  2  0  0  0  0  0  0
  186.3500  177.2930  141.9660 C   0  0  2  0  0  3  0  0  0  0  0  0
  187.0750  177.5110  140.6520 C   0  0  0  0  0  1  0  0  0  0  0  0
  183.2200  178.5220  140.4780 N   0  0  0  0  0  2  0  0  0  0  0  0
  184.4720  178.2470  140.6190 C   0  0  0  0  0  3  0  0  0  0  0  0
  184.9440  177.6430  141.8220 N   0  0  0  0  0  2  0  0  0  0  0  0
  193.5260  175.0910  144.1140 C   0  0  1  0  0  3  0  0  0  0  0  0
  194.0730  173.7270  143.7140 C   0  0  0  0  0  1  0  0  0  0  0  0
  192.6790  175.8010  143.0420 C   0  0  0  0  0  2  0  0  0  0  0  0
  192.5460  175.0440  141.8000 N   0  0  0  0  0  0  0  0  0  0  0  0
  190.2050  174.8290  142.4380 C   0  0  0  0  0  3  0  0  0  0  0  0
  190.7130  170.4780  140.6490 Cl  0  0  0  0  0  0  0  0  0  0  0  0
  190.3800  172.1740  140.9010 C   0  0  0  0  0  0  0  0  0  0  0  0
  188.3870  173.6730  141.2080 C   0  0  0  0  0  3  0  0  0  0  0  0
  188.0430  175.0190  143.2000 F   0  0  0  0  0  0  0  0  0  0  0  0
  191.3840  172.9550  141.3040 C   0  0  0  0  0  3  0  0  0  0  0  0
  189.0210  172.6650  140.5970 C   0  0  0  0  0  3  0  0  0  0  0  0
  191.2630  174.4390  141.4500 C   0  0  2  0  0  3  0  0  0  0  0  0
  188.9190  174.5090  142.3040 C   0  0  0  0  0  0  0  0  0  0  0  0
  193.5990  175.1020  140.8700 C   0  0  0  0  0  0  0  0  0  0  0  0
  194.4660  175.1520  140.1030 N   0  0  0  0  0  0  0  0  0  0  0  0
  1  3  2  0  0  0  0
  3  6  1  0  0  0  0
  4  3  1  0  0  0  0
  4  5  1  0  0  0  0
  5  2  2  0  0  0  0
  5  7  1  0  0  0  0
  6  9  1  6  0  0  0
  6  7  1  0  0  0  0
  8 11  1  0  0  0  0
  9 12  2  0  0  0  0
 10  9  1  0  0  0  0
 11 12  1  0  0  0  0
 13  8  1  0  0  0  0
 13 10  2  0  0  0  0
 14 18  1  6  0  0  0
 14 15  1  0  0  0  0
 14  8  1  0  0  0  0
 16 15  1  0  0  0  0
 17 15  1  0  0  0  0
 19 20  1  6  0  0  0
 19 18  1  0  0  0  0
 21 22  2  0  0  0  0
 22 23  1  0  0  0  0
 23 19  1  0  0  0  0
 24 25  1  6  0  0  0
 24  4  1  0  0  0  0
 26 24  1  0  0  0  0
 27 26  1  0  0  0  0
 29 30  1  0  0  0  0
 30 33  2  0  0  0  0
 31 36  1  0  0  0  0
 33 35  1  0  0  0  0
 34 30  1  0  0  0  0
 34 31  2  0  0  0  0
 35 27  1  1  0  0  0
 35 28  1  0  0  0  0
 36 28  2  0  0  0  0
 36 32  1  0  0  0  0
 37 27  1  0  0  0  0
 38 37  3  0  0  0  0
M  END
>  <MODEL>
1

>  <REMARK>
 VINA RESULT:      -7.0      0.000      0.000
  Name = 
  11 active torsions:
  status: ('A' for Active; 'I' for Inactive)
    1  A    between atoms: C_1  and  C_15
    2  A    between atoms: C_1  and  C_19
    3  A    between atoms: N_3  and  C_15
    4  A    between atoms: S_4  and  C_15
    5  A    between atoms: C_6  and  C_37
    6  A    between atoms: N_11  and  C_14
    7  A    between atoms: N_11  and  C_22
    8  A    between atoms: N_11  and  C_31
    9  A    between atoms: C_12  and  N_29
   10  A    between atoms: C_12  and  C_31
   11  A    between atoms: C_19  and  N_32
                            x       y       z     vdW  Elec       q    Type
                         _______ _______ _______ _____ _____    ______ ____

>  <TORSDO>
F 11

$$$$
=
 OpenBabel11062419243D

 38 40  0  0  1  0  0  0  0  0999 V2000
  193.7370  173.6330  146.1380 O   0  0  0  0  0  0  0  0  0  0  0  0
  196.0620  176.9430  143.8880 O   0  0  0  0  0  0  0  0  0  0  0  0
  194.0800  174.7740  145.7240 C   0  0  0  0  0  0  0  0  0  0  0  0
  195.1080  174.9770  144.7660 N   0  0  0  0  0  0  0  0  0  0  0  0
  195.3060  176.3810  144.7230 C   0  0  0  0  0  0  0  0  0  0  0  0
  193.4770  176.0470  146.2200 C   0  0  1  0  0  3  0  0  0  0  0  0
  194.4720  177.1200  145.7190 C   0  0  0  0  0  2  0  0  0  0  0  0
  189.5040  176.7690  144.7580 N   0  0  0  0  0  0  0  0  0  0  0  0
  192.1040  176.2230  145.6130 C   0  0  0  0  0  0  0  0  0  0  0  0
  190.9440  175.6080  146.2890 C   0  0  0  0  0  3  0  0  0  0  0  0
  190.5820  177.0010  143.7970 C   0  0  0  0  0  2  0  0  0  0  0  0
  191.9320  176.8740  144.4510 C   0  0  0  0  0  3  0  0  0  0  0  0
  189.7060  175.8770  145.8700 C   0  0  0  0  0  3  0  0  0  0  0  0
  188.2190  177.4190  144.5130 C   0  0  1  0  0  3  0  0  0  0  0  0
  187.7310  177.3590  142.7710 S   0  0  0  0  0  3  0  0  0  0  0  0
  186.9780  178.6670  142.5800 O   0  0  0  0  0  1  0  0  0  0  0  0
  186.4870  176.1910  142.7600 O   0  0  0  0  0  1  0  0  0  0  0  0
  187.1170  176.9100  145.4470 C   0  0  0  0  0  2  0  0  0  0  0  0
  186.6500  177.9530  146.4480 C   0  0  2  0  0  3  0  0  0  0  0  0
  186.0290  177.2490  147.6380 C   0  0  0  0  0  1  0  0  0  0  0  0
  183.7200  179.0410  144.5110 N   0  0  0  0  0  2  0  0  0  0  0  0
  184.6110  178.2710  145.0360 C   0  0  0  0  0  3  0  0  0  0  0  0
  185.6680  178.8240  145.8190 N   0  0  0  0  0  2  0  0  0  0  0  0
  195.5610  174.0450  143.7320 C   0  0  1  0  0  3  0  0  0  0  0  0
  196.7140  173.1700  144.2090 C   0  0  0  0  0  1  0  0  0  0  0  0
  194.3840  173.2890  143.0890 C   0  0  0  0  0  2  0  0  0  0  0  0
  193.5930  174.1030  142.1700 N   0  0  0  0  0  0  0  0  0  0  0  0
  191.6750  173.1290  143.3130 C   0  0  0  0  0  3  0  0  0  0  0  0
  189.6990  173.4170  139.0230 Cl  0  0  0  0  0  0  0  0  0  0  0  0
  190.2310  173.7030  140.6630 C   0  0  0  0  0  0  0  0  0  0  0  0
  189.2730  173.6550  142.9850 C   0  0  0  0  0  3  0  0  0  0  0  0
  190.1220  172.1980  144.7320 F   0  0  0  0  0  0  0  0  0  0  0  0
  191.5430  173.7190  140.8990 C   0  0  0  0  0  3  0  0  0  0  0  0
  189.2020  173.9720  141.6870 C   0  0  0  0  0  3  0  0  0  0  0  0
  192.1340  174.0610  142.2310 C   0  0  2  0  0  3  0  0  0  0  0  0
  190.3990  172.9790  143.6630 C   0  0  0  0  0  0  0  0  0  0  0  0
  194.2590  175.0690  141.3950 C   0  0  0  0  0  0  0  0  0  0  0  0
  194.8090  175.8670  140.7590 N   0  0  0  0  0  0  0  0  0  0  0  0
  2  5  2  0  0  0  0
  3  1  2  0  0  0  0
  3  6  1  0  0  0  0
  4  3  1  0  0  0  0
  5  4  1  0  0  0  0
  5  7  1  0  0  0  0
  6  9  1  6  0  0  0
  7  6  1  0  0  0  0
  8 13  1  0  0  0  0
  9 10  1  0  0  0  0
 11 12  1  0  0  0  0
 11  8  1  0  0  0  0
 12  9  2  0  0  0  0
 13 10  2  0  0  0  0
 14  8  1  0  0  0  0
 14 18  1  1  0  0  0
 15 14  1  0  0  0  0
 16 15  1  0  0  0  0
 17 15  1  0  0  0  0
 18 19  1  0  0  0  0
 19 20  1  1  0  0  0
 21 22  2  0  0  0  0
 22 23  1  0  0  0  0
 23 19  1  0  0  0  0
 24 25  1  1  0  0  0
 24  4  1  0  0  0  0
 26 24  1  0  0  0  0
 27 26  1  0  0  0  0
 28 36  2  0  0  0  0
 29 30  1  0  0  0  0
 30 33  2  0  0  0  0
 30 34  1  0  0  0  0
 31 36  1  0  0  0  0
 33 35  1  0  0  0  0
 34 31  2  0  0  0  0
 35 27  1  6  0  0  0
 35 28  1  0  0  0  0
 36 32  1  0  0  0  0
 37 27  1  0  0  0  0
 38 37  3  0  0  0  0
M  END
>  <MODEL>
2

>  <REMARK>
 VINA RESULT:      -7.0      2.319      3.131
  Name = 
  11 active torsions:
  status: ('A' for Active; 'I' for Inactive)
    1  A    between atoms: C_1  and  C_15
    2  A    between atoms: C_1  and  C_19
    3  A    between atoms: N_3  and  C_15
    4  A    between atoms: S_4  and  C_15
    5  A    between atoms: C_6  and  C_37
    6  A    between atoms: N_11  and  C_14
    7  A    between atoms: N_11  and  C_22
    8  A    between atoms: N_11  and  C_31
    9  A    between atoms: C_12  and  N_29
   10  A    between atoms: C_12  and  C_31
   11  A    between atoms: C_19  and  N_32
                            x       y       z     vdW  Elec       q    Type
                         _______ _______ _______ _____ _____    ______ ____

>  <TORSDO>
F 11

$$$$
=
 OpenBabel11062419243D

 38 40  0  0  1  0  0  0  0  0999 V2000
  193.7730  173.2180  145.9970 O   0  0  0  0  0  0  0  0  0  0  0  0
  195.7380  177.0350  144.2690 O   0  0  0  0  0  0  0  0  0  0  0  0
  194.0060  174.4350  145.7680 C   0  0  0  0  0  0  0  0  0  0  0  0
  194.9810  174.8780  144.8350 N   0  0  0  0  0  0  0  0  0  0  0  0
  195.0600  176.2820  145.0160 C   0  0  0  0  0  0  0  0  0  0  0  0
  193.3190  175.5560  146.4770 C   0  0  1  0  0  3  0  0  0  0  0  0
  194.2040  176.7770  146.1370 C   0  0  0  0  0  2  0  0  0  0  0  0
  189.2510  176.1560  145.2360 N   0  0  0  0  0  0  0  0  0  0  0  0
  191.9160  175.7070  145.9360 C   0  0  0  0  0  0  0  0  0  0  0  0
  190.8340  174.8930  146.5260 C   0  0  0  0  0  3  0  0  0  0  0  0
  190.2720  176.6330  144.3040 C   0  0  0  0  0  2  0  0  0  0  0  0
  191.6500  176.5190  144.9000 C   0  0  0  0  0  3  0  0  0  0  0  0
  189.5640  175.1170  146.1820 C   0  0  0  0  0  3  0  0  0  0  0  0
  187.9100  176.7230  145.1270 C   0  0  1  0  0  3  0  0  0  0  0  0
  187.4140  177.6260  146.6160 S   0  0  0  0  0  3  0  0  0  0  0  0
  186.6020  176.5950  147.3870 O   0  0  0  0  0  1  0  0  0  0  0  0
  186.2230  178.7010  146.0360 O   0  0  0  0  0  1  0  0  0  0  0  0
  187.7250  177.5510  143.8520 C   0  0  0  0  0  2  0  0  0  0  0  0
  187.0910  176.7690  142.7140 C   0  0  2  0  0  3  0  0  0  0  0  0
  187.5980  177.3220  141.3970 C   0  0  0  0  0  1  0  0  0  0  0  0
  183.7460  178.2950  142.7280 N   0  0  0  0  0  2  0  0  0  0  0  0
  185.0300  178.1850  142.7040 C   0  0  0  0  0  3  0  0  0  0  0  0
  185.6430  176.8990  142.7840 N   0  0  0  0  0  2  0  0  0  0  0  0
  195.4730  174.1670  143.6530 C   0  0  1  0  0  3  0  0  0  0  0  0
  196.6950  173.3120  143.9620 C   0  0  0  0  0  1  0  0  0  0  0  0
  194.3360  173.4450  142.9070 C   0  0  0  0  0  2  0  0  0  0  0  0
  193.5090  174.3320  142.0930 N   0  0  0  0  0  0  0  0  0  0  0  0
  191.6300  173.1750  143.1250 C   0  0  0  0  0  3  0  0  0  0  0  0
  189.8030  173.4600  138.7700 Cl  0  0  0  0  0  0  0  0  0  0  0  0
  190.2480  173.7290  140.4380 C   0  0  0  0  0  0  0  0  0  0  0  0
  189.2090  173.5280  142.7160 C   0  0  0  0  0  3  0  0  0  0  0  0
  190.1010  172.0800  144.4500 F   0  0  0  0  0  0  0  0  0  0  0  0
  191.5450  173.8360  140.7280 C   0  0  0  0  0  3  0  0  0  0  0  0
  189.1630  173.8830  141.4270 C   0  0  0  0  0  3  0  0  0  0  0  0
  192.0560  174.1760  142.0930 C   0  0  2  0  0  3  0  0  0  0  0  0
  190.3560  172.9160  143.4180 C   0  0  0  0  0  0  0  0  0  0  0  0
  194.1180  175.4500  141.4980 C   0  0  0  0  0  0  0  0  0  0  0  0
  194.6180  176.3750  141.0090 N   0  0  0  0  0  0  0  0  0  0  0  0
  2  5  2  0  0  0  0
  3  1  2  0  0  0  0
  3  6  1  0  0  0  0
  4  5  1  0  0  0  0
  4  3  1  0  0  0  0
  5  7  1  0  0  0  0
  6  9  1  6  0  0  0
  7  6  1  0  0  0  0
  8 13  1  0  0  0  0
  9 10  1  0  0  0  0
 11 12  1  0  0  0  0
 11  8  1  0  0  0  0
 12  9  2  0  0  0  0
 13 10  2  0  0  0  0
 14 18  1  6  0  0  0
 14  8  1  0  0  0  0
 14 15  1  0  0  0  0
 15 16  1  0  0  0  0
 17 15  1  0  0  0  0
 19 20  1  6  0  0  0
 19 23  1  0  0  0  0
 19 18  1  0  0  0  0
 22 21  2  0  0  0  0
 22 23  1  0  0  0  0
 24 25  1  1  0  0  0
 24  4  1  0  0  0  0
 26 24  1  0  0  0  0
 27 26  1  0  0  0  0
 28 36  2  0  0  0  0
 29 30  1  0  0  0  0
 30 33  2  0  0  0  0
 30 34  1  0  0  0  0
 31 36  1  0  0  0  0
 33 35  1  0  0  0  0
 34 31  2  0  0  0  0
 35 27  1  6  0  0  0
 35 28  1  0  0  0  0
 36 32  1  0  0  0  0
 37 27  1  0  0  0  0
 38 37  3  0  0  0  0
M  END
>  <MODEL>
3

>  <REMARK>
 VINA RESULT:      -6.9      1.922      2.406
  Name = 
  11 active torsions:
  status: ('A' for Active; 'I' for Inactive)
    1  A    between atoms: C_1  and  C_15
    2  A    between atoms: C_1  and  C_19
    3  A    between atoms: N_3  and  C_15
    4  A    between atoms: S_4  and  C_15
    5  A    between atoms: C_6  and  C_37
    6  A    between atoms: N_11  and  C_14
    7  A    between atoms: N_11  and  C_22
    8  A    between atoms: N_11  and  C_31
    9  A    between atoms: C_12  and  N_29
   10  A    between atoms: C_12  and  C_31
   11  A    between atoms: C_19  and  N_32
                            x       y       z     vdW  Elec       q    Type
                         _______ _______ _______ _____ _____    ______ ____

>  <TORSDO>
F 11

$$$$
=
 OpenBabel11062419243D

 38 40  0  0  1  0  0  0  0  0999 V2000
  193.1180  173.4750  145.6180 O   0  0  0  0  0  0  0  0  0  0  0  0
  195.8050  176.9470  144.1510 O   0  0  0  0  0  0  0  0  0  0  0  0
  193.6480  174.6160  145.5370 C   0  0  0  0  0  0  0  0  0  0  0  0
  194.5630  174.9790  144.5140 N   0  0  0  0  0  0  0  0  0  0  0  0
  195.0580  176.2540  144.8900 C   0  0  0  0  0  0  0  0  0  0  0  0
  193.4110  175.7090  146.5280 C   0  0  1  0  0  3  0  0  0  0  0  0
  194.5440  176.7130  146.2160 C   0  0  0  0  0  2  0  0  0  0  0  0
  189.4470  177.1290  145.6840 N   0  0  0  0  0  0  0  0  0  0  0  0
  192.0440  176.3100  146.2960 C   0  0  0  0  0  0  0  0  0  0  0  0
  191.7140  176.8290  144.9530 C   0  0  0  0  0  3  0  0  0  0  0  0
  189.8140  177.0870  147.0990 C   0  0  0  0  0  2  0  0  0  0  0  0
  191.1540  176.4300  147.2940 C   0  0  0  0  0  3  0  0  0  0  0  0
  190.4690  177.2190  144.6740 C   0  0  0  0  0  3  0  0  0  0  0  0
  188.0250  177.1390  145.3470 C   0  0  1  0  0  3  0  0  0  0  0  0
  187.0070  177.8660  146.6550 S   0  0  0  0  0  3  0  0  0  0  0  0
  186.2360  176.6700  147.1940 O   0  0  0  0  0  1  0  0  0  0  0  0
  185.8200  178.7300  145.7850 O   0  0  0  0  0  1  0  0  0  0  0  0
  187.7520  177.7660  143.9770 C   0  0  0  0  0  2  0  0  0  0  0  0
  187.1270  176.7970  142.9870 C   0  0  2  0  0  3  0  0  0  0  0  0
  188.1190  176.5240  141.8740 C   0  0  0  0  0  1  0  0  0  0  0  0
  184.7630  178.2430  140.5700 N   0  0  0  0  0  2  0  0  0  0  0  0
  185.8520  177.7620  141.0640 C   0  0  0  0  0  3  0  0  0  0  0  0
  185.9120  177.3810  142.4380 N   0  0  0  0  0  2  0  0  0  0  0  0
  194.6610  174.4180  143.1650 C   0  0  1  0  0  3  0  0  0  0  0  0
  194.8730  172.9100  143.1820 C   0  0  0  0  0  1  0  0  0  0  0  0
  193.5210  174.9120  142.2560 C   0  0  0  0  0  2  0  0  0  0  0  0
  192.9630  173.8740  141.3940 N   0  0  0  0  0  0  0  0  0  0  0  0
  190.6660  173.7930  140.5860 C   0  0  0  0  0  3  0  0  0  0  0  0
  189.6500  173.7080  145.2060 Cl  0  0  0  0  0  0  0  0  0  0  0  0
  189.9990  173.2990  143.5430 C   0  0  0  0  0  0  0  0  0  0  0  0
  188.7670  172.4910  141.5080 C   0  0  0  0  0  3  0  0  0  0  0  0
  188.6740  173.7520  139.4350 F   0  0  0  0  0  0  0  0  0  0  0  0
  191.1510  173.7250  143.0250 C   0  0  0  0  0  3  0  0  0  0  0  0
  189.0280  172.4540  142.8200 C   0  0  0  0  0  3  0  0  0  0  0  0
  191.6220  173.3540  141.6540 C   0  0  2  0  0  3  0  0  0  0  0  0
  189.4030  173.3780  140.5120 C   0  0  0  0  0  0  0  0  0  0  0  0
  193.6460  173.5570  140.2070 C   0  0  0  0  0  0  0  0  0  0  0  0
  194.2100  173.2920  139.2300 N   0  0  0  0  0  0  0  0  0  0  0  0
  2  5  2  0  0  0  0
  3  1  2  0  0  0  0
  3  6  1  0  0  0  0
  4  5  1  0  0  0  0
  4  3  1  0  0  0  0
  5  7  1  0  0  0  0
  6  9  1  6  0  0  0
  7  6  1  0  0  0  0
  8 11  1  0  0  0  0
  9 12  2  0  0  0  0
 10  9  1  0  0  0  0
 11 12  1  0  0  0  0
 13 10  2  0  0  0  0
 13  8  1  0  0  0  0
 14 18  1  6  0  0  0
 14  8  1  0  0  0  0
 14 15  1  0  0  0  0
 15 16  1  0  0  0  0
 17 15  1  0  0  0  0
 19 20  1  6  0  0  0
 19 18  1  0  0  0  0
 21 22  2  0  0  0  0
 22 23  1  0  0  0  0
 23 19  1  0  0  0  0
 24 25  1  1  0  0  0
 24  4  1  0  0  0  0
 26 24  1  0  0  0  0
 27 26  1  0  0  0  0
 28 35  1  0  0  0  0
 30 29  1  0  0  0  0
 31 34  2  0  0  0  0
 32 36  1  0  0  0  0
 33 30  2  0  0  0  0
 34 30  1  0  0  0  0
 35 27  1  6  0  0  0
 35 33  1  0  0  0  0
 36 28  2  0  0  0  0
 36 31  1  0  0  0  0
 37 27  1  0  0  0  0
 38 37  3  0  0  0  0
M  END
>  <MODEL>
4

>  <REMARK>
 VINA RESULT:      -6.6      1.969      2.313
  Name = 
  11 active torsions:
  status: ('A' for Active; 'I' for Inactive)
    1  A    between atoms: C_1  and  C_15
    2  A    between atoms: C_1  and  C_19
    3  A    between atoms: N_3  and  C_15
    4  A    between atoms: S_4  and  C_15
    5  A    between atoms: C_6  and  C_37
    6  A    between atoms: N_11  and  C_14
    7  A    between atoms: N_11  and  C_22
    8  A    between atoms: N_11  and  C_31
    9  A    between atoms: C_12  and  N_29
   10  A    between atoms: C_12  and  C_31
   11  A    between atoms: C_19  and  N_32
                            x       y       z     vdW  Elec       q    Type
                         _______ _______ _______ _____ _____    ______ ____

>  <TORSDO>
F 11

$$$$
=
 OpenBabel11062419243D

 38 40  0  0  1  0  0  0  0  0999 V2000
  193.1360  173.5170  145.6760 O   0  0  0  0  0  0  0  0  0  0  0  0
  196.0320  176.6920  143.9570 O   0  0  0  0  0  0  0  0  0  0  0  0
  193.7210  174.6190  145.4960 C   0  0  0  0  0  0  0  0  0  0  0  0
  194.6870  174.8300  144.4770 N   0  0  0  0  0  0  0  0  0  0  0  0
  195.2280  176.1150  144.7360 C   0  0  0  0  0  0  0  0  0  0  0  0
  193.5010  175.8210  146.3560 C   0  0  1  0  0  3  0  0  0  0  0  0
  194.6910  176.7360  145.9840 C   0  0  0  0  0  2  0  0  0  0  0  0
  189.6660  177.3380  145.1560 N   0  0  0  0  0  0  0  0  0  0  0  0
  192.1730  176.4520  146.0070 C   0  0  0  0  0  0  0  0  0  0  0  0
  192.0000  177.0530  144.6690 C   0  0  0  0  0  3  0  0  0  0  0  0
  189.8700  177.2080  146.5990 C   0  0  0  0  0  2  0  0  0  0  0  0
  191.1760  176.5240  146.9040 C   0  0  0  0  0  3  0  0  0  0  0  0
  190.7970  177.4740  144.2750 C   0  0  0  0  0  3  0  0  0  0  0  0
  188.2920  177.3850  144.6630 C   0  0  1  0  0  3  0  0  0  0  0  0
  188.1270  176.6940  142.9980 S   0  0  0  0  0  3  0  0  0  0  0  0
  187.8280  177.9190  142.1470 O   0  0  0  0  0  1  0  0  0  0  0  0
  186.6230  175.8910  143.0610 O   0  0  0  0  0  1  0  0  0  0  0  0
  187.2940  176.7750  145.6510 C   0  0  0  0  0  2  0  0  0  0  0  0
  186.3200  177.7900  146.2250 C   0  0  2  0  0  3  0  0  0  0  0  0
  185.9570  177.3780  147.6380 C   0  0  0  0  0  1  0  0  0  0  0  0
  183.7650  179.0410  143.8950 N   0  0  0  0  0  2  0  0  0  0  0  0
  184.8050  179.0140  144.6570 C   0  0  0  0  0  3  0  0  0  0  0  0
  185.1230  177.8370  145.3980 N   0  0  0  0  0  2  0  0  0  0  0  0
  194.8060  174.1240  143.2000 C   0  0  1  0  0  3  0  0  0  0  0  0
  194.9530  172.6190  143.3850 C   0  0  0  0  0  1  0  0  0  0  0  0
  193.7190  174.5610  142.2020 C   0  0  0  0  0  2  0  0  0  0  0  0
  193.0820  173.4490  141.5000 N   0  0  0  0  0  0  0  0  0  0  0  0
  190.8290  173.7940  140.6400 C   0  0  0  0  0  3  0  0  0  0  0  0
  189.6920  173.7770  145.2330 Cl  0  0  0  0  0  0  0  0  0  0  0  0
  190.0080  173.3540  143.5680 C   0  0  0  0  0  0  0  0  0  0  0  0
  188.7070  172.8240  141.4840 C   0  0  0  0  0  3  0  0  0  0  0  0
  188.8920  174.1310  139.4460 F   0  0  0  0  0  0  0  0  0  0  0  0
  191.2300  173.5830  143.0860 C   0  0  0  0  0  3  0  0  0  0  0  0
  188.9230  172.7100  142.8000 C   0  0  0  0  0  3  0  0  0  0  0  0
  191.6640  173.1670  141.7160 C   0  0  2  0  0  3  0  0  0  0  0  0
  189.5150  173.6090  140.5270 C   0  0  0  0  0  0  0  0  0  0  0  0
  193.7990  172.8150  140.4700 C   0  0  0  0  0  0  0  0  0  0  0  0
  194.3910  172.2960  139.6210 N   0  0  0  0  0  0  0  0  0  0  0  0
  2  5  2  0  0  0  0
  3  1  2  0  0  0  0
  3  6  1  0  0  0  0
  4  5  1  0  0  0  0
  4  3  1  0  0  0  0
  5  7  1  0  0  0  0
  6  9  1  6  0  0  0
  7  6  1  0  0  0  0
  8 11  1  0  0  0  0
  9 12  2  0  0  0  0
 10  9  1  0  0  0  0
 11 12  1  0  0  0  0
 13 10  2  0  0  0  0
 13  8  1  0  0  0  0
 14  8  1  0  0  0  0
 14 18  1  1  0  0  0
 15 17  1  0  0  0  0
 15 14  1  0  0  0  0
 16 15  1  0  0  0  0
 18 19  1  0  0  0  0
 19 20  1  1  0  0  0
 21 22  2  0  0  0  0
 22 23  1  0  0  0  0
 23 19  1  0  0  0  0
 24 25  1  1  0  0  0
 24  4  1  0  0  0  0
 26 24  1  0  0  0  0
 27 26  1  0  0  0  0
 28 35  1  0  0  0  0
 30 29  1  0  0  0  0
 31 34  2  0  0  0  0
 32 36  1  0  0  0  0
 33 30  2  0  0  0  0
 34 30  1  0  0  0  0
 35 27  1  6  0  0  0
 35 33  1  0  0  0  0
 36 28  2  0  0  0  0
 36 31  1  0  0  0  0
 37 27  1  0  0  0  0
 38 37  3  0  0  0  0
M  END
>  <MODEL>
5

>  <REMARK>
 VINA RESULT:      -6.6      2.525      3.116
  Name = 
  11 active torsions:
  status: ('A' for Active; 'I' for Inactive)
    1  A    between atoms: C_1  and  C_15
    2  A    between atoms: C_1  and  C_19
    3  A    between atoms: N_3  and  C_15
    4  A    between atoms: S_4  and  C_15
    5  A    between atoms: C_6  and  C_37
    6  A    between atoms: N_11  and  C_14
    7  A    between atoms: N_11  and  C_22
    8  A    between atoms: N_11  and  C_31
    9  A    between atoms: C_12  and  N_29
   10  A    between atoms: C_12  and  C_31
   11  A    between atoms: C_19  and  N_32
                            x       y       z     vdW  Elec       q    Type
                         _______ _______ _______ _____ _____    ______ ____

>  <TORSDO>
F 11

$$$$
=
 OpenBabel11062419243D

 38 40  0  0  1  0  0  0  0  0999 V2000
  192.1050  177.0530  144.0660 O   0  0  0  0  0  0  0  0  0  0  0  0
  189.4170  174.1520  146.4710 O   0  0  0  0  0  0  0  0  0  0  0  0
  191.7180  176.2630  144.9690 C   0  0  0  0  0  0  0  0  0  0  0  0
  190.4760  175.5750  144.9230 N   0  0  0  0  0  0  0  0  0  0  0  0
  190.3460  174.9550  146.1910 C   0  0  0  0  0  0  0  0  0  0  0  0
  192.4980  175.9860  146.2120 C   0  0  1  0  0  3  0  0  0  0  0  0
  191.4580  175.2980  147.1280 C   0  0  0  0  0  2  0  0  0  0  0  0
  195.7170  173.4400  144.9470 N   0  0  0  0  0  0  0  0  0  0  0  0
  193.6560  175.0720  145.8860 C   0  0  0  0  0  0  0  0  0  0  0  0
  193.3700  173.7160  145.3740 C   0  0  0  0  0  3  0  0  0  0  0  0
  196.0900  174.5260  145.8520 C   0  0  0  0  0  2  0  0  0  0  0  0
  194.9260  175.4470  146.1070 C   0  0  0  0  0  3  0  0  0  0  0  0
  194.3650  172.9460  144.9290 C   0  0  0  0  0  3  0  0  0  0  0  0
  196.7670  172.8470  144.1230 C   0  0  1  0  0  3  0  0  0  0  0  0
  197.4880  171.3670  144.8740 S   0  0  0  0  0  3  0  0  0  0  0  0
  196.7460  170.2340  144.1800 O   0  0  0  0  0  1  0  0  0  0  0  0
  196.8170  171.3650  146.4430 O   0  0  0  0  0  1  0  0  0  0  0  0
  196.3140  172.6090  142.6790 C   0  0  0  0  0  2  0  0  0  0  0  0
  196.5840  173.7900  141.7620 C   0  0  2  0  0  3  0  0  0  0  0  0
  197.5220  173.3490  140.6560 C   0  0  0  0  0  1  0  0  0  0  0  0
  197.1920  177.1460  143.1380 N   0  0  0  0  0  2  0  0  0  0  0  0
  196.6780  176.1980  142.4310 C   0  0  0  0  0  3  0  0  0  0  0  0
  197.1910  174.8700  142.5270 N   0  0  0  0  0  2  0  0  0  0  0  0
  189.7080  175.1990  143.7340 C   0  0  1  0  0  3  0  0  0  0  0  0
  190.0190  173.7820  143.2720 C   0  0  0  0  0  1  0  0  0  0  0  0
  188.2120  175.5260  143.8940 C   0  0  0  0  0  2  0  0  0  0  0  0
  187.8960  176.9410  143.7220 N   0  0  0  0  0  0  0  0  0  0  0  0
  186.8250  176.7850  145.9040 C   0  0  0  0  0  3  0  0  0  0  0  0
  183.3000  179.0400  143.6970 Cl  0  0  0  0  0  0  0  0  0  0  0  0
  184.7180  178.6200  144.6260 C   0  0  0  0  0  0  0  0  0  0  0  0
  185.4130  178.4810  147.0370 C   0  0  0  0  0  3  0  0  0  0  0  0
  186.1630  176.4190  148.0770 F   0  0  0  0  0  0  0  0  0  0  0  0
  185.6840  177.9330  144.0150 C   0  0  0  0  0  3  0  0  0  0  0  0
  184.7990  179.0980  146.0200 C   0  0  0  0  0  3  0  0  0  0  0  0
  186.9930  177.6050  144.6600 C   0  0  2  0  0  3  0  0  0  0  0  0
  186.1440  177.1990  146.9720 C   0  0  0  0  0  0  0  0  0  0  0  0
  188.6400  177.6800  142.7850 C   0  0  0  0  0  0  0  0  0  0  0  0
  189.2500  178.2900  142.0120 N   0  0  0  0  0  0  0  0  0  0  0  0
  1  3  2  0  0  0  0
  3  6  1  0  0  0  0
  4  3  1  0  0  0  0
  4  5  1  0  0  0  0
  5  2  2  0  0  0  0
  5  7  1  0  0  0  0
  6  9  1  6  0  0  0
  6  7  1  0  0  0  0
  8 11  1  0  0  0  0
  9 12  2  0  0  0  0
 10  9  1  0  0  0  0
 11 12  1  0  0  0  0
 13  8  1  0  0  0  0
 13 10  2  0  0  0  0
 14 18  1  6  0  0  0
 14 15  1  0  0  0  0
 14  8  1  0  0  0  0
 15 17  1  0  0  0  0
 16 15  1  0  0  0  0
 19 20  1  6  0  0  0
 19 23  1  0  0  0  0
 19 18  1  0  0  0  0
 22 23  1  0  0  0  0
 22 21  2  0  0  0  0
 24 25  1  1  0  0  0
 24 26  1  0  0  0  0
 24  4  1  0  0  0  0
 27 26  1  0  0  0  0
 28 36  2  0  0  0  0
 29 30  1  0  0  0  0
 30 34  1  0  0  0  0
 33 30  2  0  0  0  0
 33 35  1  0  0  0  0
 34 31  2  0  0  0  0
 35 27  1  6  0  0  0
 35 28  1  0  0  0  0
 36 31  1  0  0  0  0
 36 32  1  0  0  0  0
 37 27  1  0  0  0  0
 38 37  3  0  0  0  0
M  END
>  <MODEL>
6

>  <REMARK>
 VINA RESULT:      -6.5      4.231      8.500
  Name = 
  11 active torsions:
  status: ('A' for Active; 'I' for Inactive)
    1  A    between atoms: C_1  and  C_15
    2  A    between atoms: C_1  and  C_19
    3  A    between atoms: N_3  and  C_15
    4  A    between atoms: S_4  and  C_15
    5  A    between atoms: C_6  and  C_37
    6  A    between atoms: N_11  and  C_14
    7  A    between atoms: N_11  and  C_22
    8  A    between atoms: N_11  and  C_31
    9  A    between atoms: C_12  and  N_29
   10  A    between atoms: C_12  and  C_31
   11  A    between atoms: C_19  and  N_32
                            x       y       z     vdW  Elec       q    Type
                         _______ _______ _______ _____ _____    ______ ____

>  <TORSDO>
F 11

$$$$
=
 OpenBabel11062419243D

 38 40  0  0  1  0  0  0  0  0999 V2000
  192.1070  173.6180  145.2160 O   0  0  0  0  0  0  0  0  0  0  0  0
  195.1470  177.1070  145.1340 O   0  0  0  0  0  0  0  0  0  0  0  0
  192.6700  174.7110  145.4950 C   0  0  0  0  0  0  0  0  0  0  0  0
  193.8050  175.2020  144.7950 N   0  0  0  0  0  0  0  0  0  0  0  0
  194.2330  176.3370  145.5290 C   0  0  0  0  0  0  0  0  0  0  0  0
  192.2410  175.5990  146.6160 C   0  0  1  0  0  3  0  0  0  0  0  0
  193.4420  176.5600  146.7770 C   0  0  0  0  0  2  0  0  0  0  0  0
  188.6560  177.4930  145.2000 N   0  0  0  0  0  0  0  0  0  0  0  0
  190.9800  176.3320  146.2220 C   0  0  0  0  0  0  0  0  0  0  0  0
  191.0520  177.3480  145.1520 C   0  0  0  0  0  3  0  0  0  0  0  0
  188.5670  176.8860  146.5280 C   0  0  0  0  0  2  0  0  0  0  0  0
  189.8180  176.1180  146.8600 C   0  0  0  0  0  3  0  0  0  0  0  0
  189.9340  177.8960  144.6730 C   0  0  0  0  0  3  0  0  0  0  0  0
  187.4120  177.7250  144.4710 C   0  0  1  0  0  3  0  0  0  0  0  0
  187.5740  177.3970  142.6980 S   0  0  0  0  0  3  0  0  0  0  0  0
  187.0240  178.6650  142.0630 O   0  0  0  0  0  1  0  0  0  0  0  0
  186.3430  176.2520  142.4050 O   0  0  0  0  0  1  0  0  0  0  0  0
  186.2210  176.9910  145.0960 C   0  0  0  0  0  2  0  0  0  0  0  0
  185.0730  177.9150  145.4640 C   0  0  2  0  0  3  0  0  0  0  0  0
  184.4360  178.4400  144.1930 C   0  0  0  0  0  1  0  0  0  0  0  0
  186.3950  179.8050  148.3290 N   0  0  0  0  0  2  0  0  0  0  0  0
  185.9110  178.8310  147.6350 C   0  0  0  0  0  3  0  0  0  0  0  0
  185.5790  179.0240  146.2610 N   0  0  0  0  0  2  0  0  0  0  0  0
  194.1950  174.9140  143.4140 C   0  0  1  0  0  3  0  0  0  0  0  0
  194.4310  173.4270  143.1790 C   0  0  0  0  0  1  0  0  0  0  0  0
  193.2600  175.6000  142.4020 C   0  0  0  0  0  2  0  0  0  0  0  0
  192.8640  174.7400  141.2890 N   0  0  0  0  0  0  0  0  0  0  0  0
  190.7750  174.4550  142.5080 C   0  0  0  0  0  3  0  0  0  0  0  0
  190.4990  170.4760  139.9620 Cl  0  0  0  0  0  0  0  0  0  0  0  0
  190.3560  172.1080  140.5710 C   0  0  0  0  0  0  0  0  0  0  0  0
  188.6210  173.5630  141.6600 C   0  0  0  0  0  3  0  0  0  0  0  0
  188.9160  174.5450  143.8610 F   0  0  0  0  0  0  0  0  0  0  0  0
  191.4790  172.7890  140.8000 C   0  0  0  0  0  3  0  0  0  0  0  0
  189.0000  172.6670  140.7410 C   0  0  0  0  0  3  0  0  0  0  0  0
  191.4980  174.2270  141.2150 C   0  0  2  0  0  3  0  0  0  0  0  0
  189.4820  174.1850  142.6860 C   0  0  0  0  0  0  0  0  0  0  0  0
  193.7490  174.6070  140.2040 C   0  0  0  0  0  0  0  0  0  0  0  0
  194.4810  174.4960  139.3130 N   0  0  0  0  0  0  0  0  0  0  0  0
  1  3  2  0  0  0  0
  2  5  2  0  0  0  0
  3  6  1  0  0  0  0
  4  3  1  0  0  0  0
  4  5  1  0  0  0  0
  5  7  1  0  0  0  0
  6  9  1  6  0  0  0
  6  7  1  0  0  0  0
  8 11  1  0  0  0  0
  9 12  2  0  0  0  0
 10  9  1  0  0  0  0
 11 12  1  0  0  0  0
 13 10  2  0  0  0  0
 13  8  1  0  0  0  0
 14 18  1  1  0  0  0
 14  8  1  0  0  0  0
 15 14  1  0  0  0  0
 16 15  1  0  0  0  0
 17 15  1  0  0  0  0
 18 19  1  0  0  0  0
 19 20  1  6  0  0  0
 19 23  1  0  0  0  0
 22 21  2  0  0  0  0
 23 22  1  0  0  0  0
 24 25  1  1  0  0  0
 24  4  1  0  0  0  0
 26 24  1  0  0  0  0
 27 26  1  0  0  0  0
 28 36  2  0  0  0  0
 29 30  1  0  0  0  0
 30 34  1  0  0  0  0
 30 33  2  0  0  0  0
 31 36  1  0  0  0  0
 33 35  1  0  0  0  0
 34 31  2  0  0  0  0
 35 27  1  1  0  0  0
 35 28  1  0  0  0  0
 36 32  1  0  0  0  0
 37 27  1  0  0  0  0
 38 37  3  0  0  0  0
M  END
>  <MODEL>
7

>  <REMARK>
 VINA RESULT:      -6.5      2.079      2.666
  Name = 
  11 active torsions:
  status: ('A' for Active; 'I' for Inactive)
    1  A    between atoms: C_1  and  C_15
    2  A    between atoms: C_1  and  C_19
    3  A    between atoms: N_3  and  C_15
    4  A    between atoms: S_4  and  C_15
    5  A    between atoms: C_6  and  C_37
    6  A    between atoms: N_11  and  C_14
    7  A    between atoms: N_11  and  C_22
    8  A    between atoms: N_11  and  C_31
    9  A    between atoms: C_12  and  N_29
   10  A    between atoms: C_12  and  C_31
   11  A    between atoms: C_19  and  N_32
                            x       y       z     vdW  Elec       q    Type
                         _______ _______ _______ _____ _____    ______ ____

>  <TORSDO>
F 11

$$$$
=
 OpenBabel11062419243D

 38 40  0  0  1  0  0  0  0  0999 V2000
  193.3630  176.2870  143.3710 O   0  0  0  0  0  0  0  0  0  0  0  0
  191.5580  176.7960  147.6030 O   0  0  0  0  0  0  0  0  0  0  0  0
  193.2720  176.3260  144.6280 C   0  0  0  0  0  0  0  0  0  0  0  0
  192.0470  176.5460  145.3130 N   0  0  0  0  0  0  0  0  0  0  0  0
  192.4050  176.7060  146.6760 C   0  0  0  0  0  0  0  0  0  0  0  0
  194.4420  176.1890  145.5460 C   0  0  1  0  0  3  0  0  0  0  0  0
  193.8830  176.6850  146.8990 C   0  0  0  0  0  2  0  0  0  0  0  0
  195.5650  172.0470  145.3780 N   0  0  0  0  0  0  0  0  0  0  0  0
  194.8660  174.7390  145.6060 C   0  0  0  0  0  0  0  0  0  0  0  0
  193.8250  173.6920  145.5590 C   0  0  0  0  0  3  0  0  0  0  0  0
  196.5880  172.9580  145.8890 C   0  0  0  0  0  2  0  0  0  0  0  0
  196.1540  174.3930  145.7590 C   0  0  0  0  0  3  0  0  0  0  0  0
  194.1730  172.4080  145.4500 C   0  0  0  0  0  3  0  0  0  0  0  0
  196.0010  170.7540  144.8570 C   0  0  1  0  0  3  0  0  0  0  0  0
  194.6450  169.5620  144.7290 S   0  0  0  0  0  3  0  0  0  0  0  0
  194.5910  168.9540  146.1220 O   0  0  0  0  0  1  0  0  0  0  0  0
  195.3190  168.3110  143.7860 O   0  0  0  0  0  1  0  0  0  0  0  0
  196.7890  170.8850  143.5500 C   0  0  0  0  0  2  0  0  0  0  0  0
  196.0220  171.6070  142.4550 C   0  0  2  0  0  3  0  0  0  0  0  0
  196.0830  170.7820  141.1850 C   0  0  0  0  0  1  0  0  0  0  0  0
  196.3220  175.2340  141.9300 N   0  0  0  0  0  2  0  0  0  0  0  0
  195.7910  174.0710  142.0940 C   0  0  0  0  0  3  0  0  0  0  0  0
  196.6180  172.9150  142.2270 N   0  0  0  0  0  2  0  0  0  0  0  0
  190.6950  176.2400  144.8430 C   0  0  1  0  0  3  0  0  0  0  0  0
  190.1120  175.0090  145.5240 C   0  0  0  0  0  1  0  0  0  0  0  0
  189.7910  177.4870  144.8530 C   0  0  0  0  0  2  0  0  0  0  0  0
  188.4930  177.2790  144.2160 N   0  0  0  0  0  0  0  0  0  0  0  0
  186.9970  176.9100  146.1020 C   0  0  0  0  0  3  0  0  0  0  0  0
  183.6920  178.3010  143.0150 Cl  0  0  0  0  0  0  0  0  0  0  0  0
  184.9080  178.2160  144.2670 C   0  0  0  0  0  0  0  0  0  0  0  0
  185.0280  178.2590  146.7770 C   0  0  0  0  0  3  0  0  0  0  0  0
  185.9360  176.4260  148.0860 F   0  0  0  0  0  0  0  0  0  0  0  0
  186.1150  177.7560  143.9350 C   0  0  0  0  0  3  0  0  0  0  0  0
  184.5530  178.7140  145.6110 C   0  0  0  0  0  3  0  0  0  0  0  0
  187.2740  177.7340  144.8810 C   0  0  2  0  0  3  0  0  0  0  0  0
  186.0110  177.1710  146.9590 C   0  0  0  0  0  0  0  0  0  0  0  0
  188.4710  176.8410  142.8800 C   0  0  0  0  0  0  0  0  0  0  0  0
  188.4490  176.4820  141.7790 N   0  0  0  0  0  0  0  0  0  0  0  0
  1  3  2  0  0  0  0
  3  4  1  0  0  0  0
  3  6  1  0  0  0  0
  4  5  1  0  0  0  0
  5  7  1  0  0  0  0
  5  2  2  0  0  0  0
  6  9  1  1  0  0  0
  6  7  1  0  0  0  0
  8 13  1  0  0  0  0
  8 11  1  0  0  0  0
  9 12  2  0  0  0  0
 10  9  1  0  0  0  0
 12 11  1  0  0  0  0
 13 10  2  0  0  0  0
 14 18  1  6  0  0  0
 14  8  1  0  0  0  0
 15 14  1  0  0  0  0
 15 16  1  0  0  0  0
 17 15  1  0  0  0  0
 19 20  1  6  0  0  0
 19 18  1  0  0  0  0
 21 22  2  0  0  0  0
 22 23  1  0  0  0  0
 23 19  1  0  0  0  0
 24 26  1  0  0  0  0
 24  4  1  0  0  0  0
 24 25  1  1  0  0  0
 27 26  1  0  0  0  0
 28 36  2  0  0  0  0
 29 30  1  0  0  0  0
 30 34  1  0  0  0  0
 31 36  1  0  0  0  0
 33 30  2  0  0  0  0
 33 35  1  0  0  0  0
 34 31  2  0  0  0  0
 35 27  1  6  0  0  0
 35 28  1  0  0  0  0
 36 32  1  0  0  0  0
 37 27  1  0  0  0  0
 38 37  3  0  0  0  0
M  END
>  <MODEL>
8

>  <REMARK>
 VINA RESULT:      -6.5      4.338      8.490
  Name = 
  11 active torsions:
  status: ('A' for Active; 'I' for Inactive)
    1  A    between atoms: C_1  and  C_15
    2  A    between atoms: C_1  and  C_19
    3  A    between atoms: N_3  and  C_15
    4  A    between atoms: S_4  and  C_15
    5  A    between atoms: C_6  and  C_37
    6  A    between atoms: N_11  and  C_14
    7  A    between atoms: N_11  and  C_22
    8  A    between atoms: N_11  and  C_31
    9  A    between atoms: C_12  and  N_29
   10  A    between atoms: C_12  and  C_31
   11  A    between atoms: C_19  and  N_32
                            x       y       z     vdW  Elec       q    Type
                         _______ _______ _______ _____ _____    ______ ____

>  <TORSDO>
F 11

$$$$
=
 OpenBabel11062419243D

 38 40  0  0  1  0  0  0  0  0999 V2000
  193.7720  172.7310  145.7650 O   0  0  0  0  0  0  0  0  0  0  0  0
  195.1170  176.4690  143.3900 O   0  0  0  0  0  0  0  0  0  0  0  0
  193.9390  173.9380  145.4430 C   0  0  0  0  0  0  0  0  0  0  0  0
  194.5510  174.3420  144.2260 N   0  0  0  0  0  0  0  0  0  0  0  0
  194.7150  175.7460  144.3390 C   0  0  0  0  0  0  0  0  0  0  0  0
  193.5540  175.0870  146.3160 C   0  0  1  0  0  3  0  0  0  0  0  0
  194.2970  176.2790  145.6710 C   0  0  0  0  0  2  0  0  0  0  0  0
  189.3470  175.8950  146.0190 N   0  0  0  0  0  0  0  0  0  0  0  0
  192.0540  175.2680  146.2760 C   0  0  0  0  0  0  0  0  0  0  0  0
  191.4420  176.3230  147.1100 C   0  0  0  0  0  3  0  0  0  0  0  0
  189.7710  174.5780  145.5460 C   0  0  0  0  0  2  0  0  0  0  0  0
  191.2720  174.4570  145.5460 C   0  0  0  0  0  3  0  0  0  0  0  0
  190.1460  176.6120  146.9780 C   0  0  0  0  0  3  0  0  0  0  0  0
  188.0710  176.4150  145.5340 C   0  0  1  0  0  3  0  0  0  0  0  0
  186.8760  176.6810  146.8680 S   0  0  0  0  0  3  0  0  0  0  0  0
  185.5410  176.6700  146.1400 O   0  0  0  0  0  1  0  0  0  0  0  0
  187.0920  178.3290  147.2560 O   0  0  0  0  0  1  0  0  0  0  0  0
  188.2420  177.6520  144.6470 C   0  0  0  0  0  2  0  0  0  0  0  0
  188.9660  177.3610  143.3440 C   0  0  2  0  0  3  0  0  0  0  0  0
  190.3700  177.9270  143.4250 C   0  0  0  0  0  1  0  0  0  0  0  0
  186.5280  177.8370  140.6320 N   0  0  0  0  0  2  0  0  0  0  0  0
  187.1910  177.2750  141.5850 C   0  0  0  0  0  3  0  0  0  0  0  0
  188.2450  177.9790  142.2400 N   0  0  0  0  0  2  0  0  0  0  0  0
  194.6010  173.6010  142.9640 C   0  0  1  0  0  3  0  0  0  0  0  0
  195.5790  172.4340  143.0190 C   0  0  0  0  0  1  0  0  0  0  0  0
  193.1920  173.2550  142.4490 C   0  0  0  0  0  2  0  0  0  0  0  0
  192.8630  173.8770  141.1690 N   0  0  0  0  0  0  0  0  0  0  0  0
  190.4970  173.9820  141.7380 C   0  0  0  0  0  3  0  0  0  0  0  0
  190.1180  170.7410  138.3120 Cl  0  0  0  0  0  0  0  0  0  0  0  0
  190.1650  172.2170  139.2460 C   0  0  0  0  0  0  0  0  0  0  0  0
  188.5520  173.8880  140.2020 C   0  0  0  0  0  3  0  0  0  0  0  0
  188.3890  174.3530  142.5800 F   0  0  0  0  0  0  0  0  0  0  0  0
  191.2910  172.5070  139.8990 C   0  0  0  0  0  3  0  0  0  0  0  0
  188.9780  173.0950  139.2130 C   0  0  0  0  0  3  0  0  0  0  0  0
  191.5030  173.7870  140.6430 C   0  0  2  0  0  3  0  0  0  0  0  0
  189.1840  174.0580  141.5260 C   0  0  0  0  0  0  0  0  0  0  0  0
  193.8130  174.7310  140.5810 C   0  0  0  0  0  0  0  0  0  0  0  0
  194.5930  175.4380  140.0970 N   0  0  0  0  0  0  0  0  0  0  0  0
  2  5  2  0  0  0  0
  3  1  2  0  0  0  0
  3  6  1  0  0  0  0
  4  5  1  0  0  0  0
  4  3  1  0  0  0  0
  5  7  1  0  0  0  0
  6  9  1  6  0  0  0
  7  6  1  0  0  0  0
  8 13  1  0  0  0  0
  9 10  1  0  0  0  0
 11  8  1  0  0  0  0
 12 11  1  0  0  0  0
 12  9  2  0  0  0  0
 13 10  2  0  0  0  0
 14 18  1  1  0  0  0
 14  8  1  0  0  0  0
 14 15  1  0  0  0  0
 15 17  1  0  0  0  0
 16 15  1  0  0  0  0
 19 20  1  1  0  0  0
 19 18  1  0  0  0  0
 21 22  2  0  0  0  0
 22 23  1  0  0  0  0
 23 19  1  0  0  0  0
 24 25  1  1  0  0  0
 24  4  1  0  0  0  0
 26 24  1  0  0  0  0
 27 26  1  0  0  0  0
 29 30  1  0  0  0  0
 30 33  2  0  0  0  0
 31 36  1  0  0  0  0
 33 35  1  0  0  0  0
 34 30  1  0  0  0  0
 34 31  2  0  0  0  0
 35 27  1  1  0  0  0
 35 28  1  0  0  0  0
 36 28  2  0  0  0  0
 36 32  1  0  0  0  0
 37 27  1  0  0  0  0
 38 37  3  0  0  0  0
M  END
>  <MODEL>
9

>  <REMARK>
 VINA RESULT:      -6.4      1.872      2.499
  Name = 
  11 active torsions:
  status: ('A' for Active; 'I' for Inactive)
    1  A    between atoms: C_1  and  C_15
    2  A    between atoms: C_1  and  C_19
    3  A    between atoms: N_3  and  C_15
    4  A    between atoms: S_4  and  C_15
    5  A    between atoms: C_6  and  C_37
    6  A    between atoms: N_11  and  C_14
    7  A    between atoms: N_11  and  C_22
    8  A    between atoms: N_11  and  C_31
    9  A    between atoms: C_12  and  N_29
   10  A    between atoms: C_12  and  C_31
   11  A    between atoms: C_19  and  N_32
                            x       y       z     vdW  Elec       q    Type
                         _______ _______ _______ _____ _____    ______ ____

>  <TORSDO>
F 11

$$$$
