=
 OpenBabel11062420563D

 31 34  0  0  1  0  0  0  0  0999 V2000
  185.4750  177.1730  142.5420 N   0  0  0  0  0  0  0  0  0  0  0  0
  189.9620  172.1340  142.2840 O   0  0  0  0  0  0  0  0  0  0  0  0
  187.4210  175.2590  142.3760 C   0  0  1  0  0  3  0  0  0  0  0  0
  189.9370  177.5800  145.2180 C   0  0  0  0  0  2  0  0  0  0  0  0
  193.0830  176.3940  146.8880 C   0  0  0  0  0  2  0  0  0  0  0  0
  189.9960  174.1180  141.0450 N   0  0  0  0  0  2  0  0  0  0  0  0
  194.7930  175.6190  145.1510 C   0  0  0  0  0  3  0  0  0  0  0  0
  194.5620  176.3250  146.4700 C   0  0  0  0  0  2  0  0  0  0  0  0
  186.5790  176.5050  142.6360 C   0  0  0  0  0  0  0  0  0  0  0  0
  192.0570  173.2710  142.2730 C   0  0  1  0  0  3  0  0  0  0  0  0
  187.8360  175.2570  140.9160 C   0  0  0  0  0  2  0  0  0  0  0  0
  191.6400  175.4800  143.4390 C   0  0  0  0  0  2  0  0  0  0  0  0
  192.5130  174.7280  142.4270 C   0  0  1  0  0  3  0  0  0  0  0  0
  193.7740  175.2120  144.3820 C   0  0  0  0  0  0  0  0  0  0  0  0
  188.4500  177.2990  145.3510 C   0  0  0  0  0  2  0  0  0  0  0  0
  190.6150  173.1390  141.8870 C   0  0  0  0  0  0  0  0  0  0  0  0
  188.0650  176.0520  144.5670 C   0  0  0  0  0  2  0  0  0  0  0  0
  188.0320  176.3450  143.0750 C   0  0  1  0  0  3  0  0  0  0  0  0
  188.6160  173.9860  140.5970 C   0  0  1  0  0  3  0  0  0  0  0  0
  192.3510  175.3700  144.7730 C   0  0  1  0  0  3  0  0  0  0  0  0
  192.1670  176.5870  145.6790 C   0  0  1  0  0  3  0  0  0  0  0  0
  190.7270  176.6810  146.1530 C   0  0  0  0  0  2  0  0  0  0  0  0
  193.9380  174.7680  142.9780 C   0  0  0  0  0  2  0  0  0  0  0  0
  192.8470  172.6230  141.3200 O   0  0  0  0  0  1  0  0  0  0  0  0
  184.1990  178.8680  143.7740 O   0  0  0  0  0  1  0  0  0  0  0  0
  185.3350  178.4960  143.0630 C   0  0  0  0  0  0  0  0  0  0  0  0
  186.2560  179.3350  142.8820 O   0  0  0  0  0  0  0  0  0  0  0  0
  187.8160  174.6740  138.3180 C   0  0  0  0  0  1  0  0  0  0  0  0
  188.5790  173.6230  139.1090 C   0  0  1  0  0  3  0  0  0  0  0  0
  190.1170  174.1650  137.3560 O   0  0  0  0  0  1  0  0  0  0  0  0
  189.9740  173.4170  138.5260 C   0  0  0  0  0  2  0  0  0  0  0  0
  1  9  2  0  0  0  0
  1 26  1  0  0  0  0
  3 11  1  6  0  0  0
  3  9  1  0  0  0  0
  3 18  1  0  0  0  0
  4 15  1  0  0  0  0
  4 22  1  0  0  0  0
  6 16  1  0  0  0  0
  7  8  1  0  0  0  0
  8  5  1  0  0  0  0
  9 18  1  0  0  0  0
 10 24  1  6  0  0  0
 10 13  1  0  0  0  0
 13 23  1  1  0  0  0
 13 12  1  0  0  0  0
 14 20  1  0  0  0  0
 14  7  2  0  0  0  0
 16 10  1  0  0  0  0
 16  2  2  0  0  0  0
 17 15  1  0  0  0  0
 18 17  1  1  0  0  0
 19 29  1  6  0  0  0
 19 11  1  0  0  0  0
 19  6  1  0  0  0  0
 20 12  1  6  0  0  0
 20 21  1  0  0  0  0
 21 22  1  1  0  0  0
 21  5  1  0  0  0  0
 23 14  1  0  0  0  0
 26 25  1  0  0  0  0
 27 26  2  0  0  0  0
 29 28  1  6  0  0  0
 30 31  1  0  0  0  0
 31 29  1  0  0  0  0
M  END
>  <MODEL>
1

>  <REMARK>
 VINA RESULT:      -7.6      0.000      0.000
  Name = 
  3 active torsions:
  status: ('A' for Active; 'I' for Inactive)
    1  A    between atoms: N_1  and  C_22
    2  A    between atoms: C_21  and  C_28
    3  A    between atoms: C_28  and  C_30
                            x       y       z     vdW  Elec       q    Type
                         _______ _______ _______ _____ _____    ______ ____

>  <TORSDO>
F 3

$$$$
=
 OpenBabel11062420563D

 31 34  0  0  1  0  0  0  0  0999 V2000
  192.5350  173.3060  143.3790 N   0  0  0  0  0  0  0  0  0  0  0  0
  188.0890  177.7690  140.9500 O   0  0  0  0  0  0  0  0  0  0  0  0
  190.5980  175.0170  142.4880 C   0  0  1  0  0  3  0  0  0  0  0  0
  189.5180  175.9780  146.6960 C   0  0  0  0  0  2  0  0  0  0  0  0
  187.2380  178.7330  147.8370 C   0  0  0  0  0  2  0  0  0  0  0  0
  187.6580  175.5710  141.6180 N   0  0  0  0  0  2  0  0  0  0  0  0
  184.9480  178.5360  146.7160 C   0  0  0  0  0  3  0  0  0  0  0  0
  185.7130  178.8780  147.9770 C   0  0  0  0  0  2  0  0  0  0  0  0
  191.5290  174.1150  143.2920 C   0  0  0  0  0  0  0  0  0  0  0  0
  186.2140  177.5140  142.3990 C   0  0  1  0  0  3  0  0  0  0  0  0
  189.6390  174.1410  141.7030 C   0  0  0  0  0  2  0  0  0  0  0  0
  187.1570  176.6660  144.5910 C   0  0  0  0  0  2  0  0  0  0  0  0
  185.9230  176.7270  143.6840 C   0  0  1  0  0  3  0  0  0  0  0  0
  185.5600  178.0360  145.6340 C   0  0  0  0  0  0  0  0  0  0  0  0
  190.9220  175.8800  146.1240 C   0  0  0  0  0  2  0  0  0  0  0  0
  187.3780  176.9740  141.6260 C   0  0  0  0  0  0  0  0  0  0  0  0
  190.9090  176.1140  144.6200 C   0  0  0  0  0  2  0  0  0  0  0  0
  190.3620  174.8960  143.8910 C   0  0  1  0  0  3  0  0  0  0  0  0
  188.7400  175.0050  140.8250 C   0  0  1  0  0  3  0  0  0  0  0  0
  187.0280  177.8250  145.5590 C   0  0  1  0  0  3  0  0  0  0  0  0
  187.6090  177.5480  146.9450 C   0  0  1  0  0  3  0  0  0  0  0  0
  189.1220  177.4330  146.8700 C   0  0  0  0  0  2  0  0  0  0  0  0
  184.8340  177.4380  144.4890 C   0  0  0  0  0  2  0  0  0  0  0  0
  185.0840  177.5220  141.5790 O   0  0  0  0  0  1  0  0  0  0  0  0
  192.9930  171.3240  144.7510 O   0  0  0  0  0  0  0  0  0  0  0  0
  192.9290  172.7070  144.6150 C   0  0  0  0  0  0  0  0  0  0  0  0
  193.2280  173.4410  145.5930 O   0  0  0  0  0  1  0  0  0  0  0  0
  187.7410  175.2030  138.5290 C   0  0  0  0  0  1  0  0  0  0  0  0
  188.1700  174.2420  139.6250 C   0  0  1  0  0  3  0  0  0  0  0  0
  189.9860  173.7880  138.1320 O   0  0  0  0  0  1  0  0  0  0  0  0
  189.1450  173.2020  139.0800 C   0  0  0  0  0  2  0  0  0  0  0  0
  1 26  1  0  0  0  0
  2 16  2  0  0  0  0
  3 11  1  6  0  0  0
  3  9  1  0  0  0  0
  3 18  1  0  0  0  0
  4 22  1  0  0  0  0
  5  8  1  0  0  0  0
  6 16  1  0  0  0  0
  7  8  1  0  0  0  0
  9  1  2  0  0  0  0
  9 18  1  0  0  0  0
 10 24  1  6  0  0  0
 10 13  1  0  0  0  0
 13 23  1  1  0  0  0
 13 12  1  0  0  0  0
 14  7  2  0  0  0  0
 15  4  1  0  0  0  0
 16 10  1  0  0  0  0
 17 15  1  0  0  0  0
 18 17  1  1  0  0  0
 19 29  1  6  0  0  0
 19  6  1  0  0  0  0
 19 11  1  0  0  0  0
 20 12  1  6  0  0  0
 20 14  1  0  0  0  0
 20 21  1  0  0  0  0
 21 22  1  6  0  0  0
 21  5  1  0  0  0  0
 23 14  1  0  0  0  0
 26 25  2  0  0  0  0
 26 27  1  0  0  0  0
 29 28  1  6  0  0  0
 30 31  1  0  0  0  0
 31 29  1  0  0  0  0
M  END
>  <MODEL>
2

>  <REMARK>
 VINA RESULT:      -7.5      2.250      6.248
  Name = 
  3 active torsions:
  status: ('A' for Active; 'I' for Inactive)
    1  A    between atoms: N_1  and  C_22
    2  A    between atoms: C_21  and  C_28
    3  A    between atoms: C_28  and  C_30
                            x       y       z     vdW  Elec       q    Type
                         _______ _______ _______ _____ _____    ______ ____

>  <TORSDO>
F 3

$$$$
=
 OpenBabel11062420563D

 31 34  0  0  1  0  0  0  0  0999 V2000
  190.9780  172.9320  139.1830 N   0  0  0  0  0  0  0  0  0  0  0  0
  189.3860  172.5600  145.7340 O   0  0  0  0  0  0  0  0  0  0  0  0
  190.4000  172.9590  141.8550 C   0  0  1  0  0  3  0  0  0  0  0  0
  187.7850  176.5070  141.2480 C   0  0  0  0  0  2  0  0  0  0  0  0
  185.4130  177.9820  143.7570 C   0  0  0  0  0  2  0  0  0  0  0  0
  191.0150  173.9210  144.7540 N   0  0  0  0  0  2  0  0  0  0  0  0
  186.6380  178.5690  145.9240 C   0  0  0  0  0  3  0  0  0  0  0  0
  185.5640  178.9630  144.9320 C   0  0  0  0  0  2  0  0  0  0  0  0
  190.5630  173.2500  140.3660 C   0  0  0  0  0  0  0  0  0  0  0  0
  189.3160  174.8440  146.4080 C   0  0  1  0  0  3  0  0  0  0  0  0
  191.7370  173.1850  142.5380 C   0  0  0  0  0  2  0  0  0  0  0  0
  188.7560  176.1560  144.3160 C   0  0  0  0  0  2  0  0  0  0  0  0
  189.4210  176.2000  145.6960 C   0  0  1  0  0  3  0  0  0  0  0  0
  187.4490  177.5250  145.7070 C   0  0  0  0  0  0  0  0  0  0  0  0
  187.8310  175.2600  140.3810 C   0  0  0  0  0  2  0  0  0  0  0  0
  189.8880  173.7110  145.6120 C   0  0  0  0  0  0  0  0  0  0  0  0
  188.3680  174.0740  141.1700 C   0  0  0  0  0  2  0  0  0  0  0  0
  189.8730  174.1880  141.3540 C   0  0  1  0  0  3  0  0  0  0  0  0
  191.6360  172.8290  144.0170 C   0  0  1  0  0  3  0  0  0  0  0  0
  187.3350  176.6440  144.5170 C   0  0  1  0  0  3  0  0  0  0  0  0
  186.7650  177.4120  143.3250 C   0  0  1  0  0  3  0  0  0  0  0  0
  186.5590  176.4780  142.1440 C   0  0  0  0  0  2  0  0  0  0  0  0
  188.6740  177.2650  146.4990 C   0  0  0  0  0  2  0  0  0  0  0  0
  189.9620  174.9050  147.6460 O   0  0  0  0  0  1  0  0  0  0  0  0
  191.8860  174.3350  137.3870 O   0  0  0  0  0  0  0  0  0  0  0  0
  190.7950  173.7870  138.0540 C   0  0  0  0  0  0  0  0  0  0  0  0
  189.6300  174.0450  137.6520 O   0  0  0  0  0  1  0  0  0  0  0  0
  193.9370  171.9190  143.5890 C   0  0  0  0  0  1  0  0  0  0  0  0
  192.9920  172.4800  144.6390 C   0  0  1  0  0  3  0  0  0  0  0  0
  194.3940  174.4130  144.4570 O   0  0  0  0  0  1  0  0  0  0  0  0
  193.6270  173.6680  145.3560 C   0  0  0  0  0  2  0  0  0  0  0  0
  1  9  2  0  0  0  0
  3 11  1  1  0  0  0
  4 22  1  0  0  0  0
  5  8  1  0  0  0  0
  6 16  1  0  0  0  0
  8  7  1  0  0  0  0
  9 18  1  0  0  0  0
  9  3  1  0  0  0  0
 10 24  1  1  0  0  0
 11 19  1  0  0  0  0
 13 12  1  6  0  0  0
 13 10  1  0  0  0  0
 13 23  1  0  0  0  0
 14  7  2  0  0  0  0
 14 23  1  0  0  0  0
 15 17  1  0  0  0  0
 15  4  1  0  0  0  0
 16  2  2  0  0  0  0
 16 10  1  0  0  0  0
 18 17  1  6  0  0  0
 18  3  1  0  0  0  0
 19 29  1  1  0  0  0
 19  6  1  0  0  0  0
 20 12  1  6  0  0  0
 20 14  1  0  0  0  0
 21 22  1  6  0  0  0
 21  5  1  0  0  0  0
 21 20  1  0  0  0  0
 25 26  2  0  0  0  0
 26  1  1  0  0  0  0
 27 26  1  0  0  0  0
 29 28  1  6  0  0  0
 29 31  1  0  0  0  0
 30 31  1  0  0  0  0
M  END
>  <MODEL>
3

>  <REMARK>
 VINA RESULT:      -7.3      3.002      6.539
  Name = 
  3 active torsions:
  status: ('A' for Active; 'I' for Inactive)
    1  A    between atoms: N_1  and  C_22
    2  A    between atoms: C_21  and  C_28
    3  A    between atoms: C_28  and  C_30
                            x       y       z     vdW  Elec       q    Type
                         _______ _______ _______ _____ _____    ______ ____

>  <TORSDO>
F 3

$$$$
=
 OpenBabel11062420563D

 31 34  0  0  1  0  0  0  0  0999 V2000
  186.6980  178.1650  146.2770 N   0  0  0  0  0  0  0  0  0  0  0  0
  192.7630  176.9470  143.5710 O   0  0  0  0  0  0  0  0  0  0  0  0
  189.1200  177.4850  145.2050 C   0  0  1  0  0  3  0  0  0  0  0  0
  187.0550  175.0900  142.0750 C   0  0  0  0  0  2  0  0  0  0  0  0
  188.6300  173.5950  139.0130 C   0  0  0  0  0  2  0  0  0  0  0  0
  191.5710  175.5700  145.0380 N   0  0  0  0  0  2  0  0  0  0  0  0
  190.5940  172.0860  139.6500 C   0  0  0  0  0  3  0  0  0  0  0  0
  189.4130  172.3010  138.7280 C   0  0  0  0  0  2  0  0  0  0  0  0
  187.6490  177.6240  145.5860 C   0  0  0  0  0  0  0  0  0  0  0  0
  192.6120  174.6650  142.9000 C   0  0  1  0  0  3  0  0  0  0  0  0
  189.8320  176.7270  146.3090 C   0  0  0  0  0  2  0  0  0  0  0  0
  190.1490  174.2360  142.4920 C   0  0  0  0  0  2  0  0  0  0  0  0
  191.5000  173.6080  142.8560 C   0  0  1  0  0  3  0  0  0  0  0  0
  190.8370  172.9000  140.6870 C   0  0  0  0  0  0  0  0  0  0  0  0
  186.6730  176.4830  142.5450 C   0  0  0  0  0  2  0  0  0  0  0  0
  192.3160  175.7970  143.8370 C   0  0  0  0  0  0  0  0  0  0  0  0
  187.8720  177.1940  143.1550 C   0  0  0  0  0  2  0  0  0  0  0  0
  188.1760  176.6450  144.5400 C   0  0  1  0  0  3  0  0  0  0  0  0
  191.3230  176.6330  146.0020 C   0  0  1  0  0  3  0  0  0  0  0  0
  190.0110  174.0960  140.9890 C   0  0  1  0  0  3  0  0  0  0  0  0
  188.5730  173.8980  140.5110 C   0  0  1  0  0  3  0  0  0  0  0  0
  187.7630  175.1640  140.7340 C   0  0  0  0  0  2  0  0  0  0  0  0
  191.8040  172.5830  141.7640 C   0  0  0  0  0  2  0  0  0  0  0  0
  193.8200  174.0690  143.2700 O   0  0  0  0  0  1  0  0  0  0  0  0
  184.3360  178.7060  145.8950 O   0  0  0  0  0  0  0  0  0  0  0  0
  185.3330  177.7670  146.1400 C   0  0  0  0  0  0  0  0  0  0  0  0
  185.0280  176.5500  146.2370 O   0  0  0  0  0  1  0  0  0  0  0  0
  191.5630  175.3460  148.1450 C   0  0  0  0  0  1  0  0  0  0  0  0
  192.1760  176.4160  147.2560 C   0  0  1  0  0  3  0  0  0  0  0  0
  194.3470  177.2450  146.6810 O   0  0  0  0  0  1  0  0  0  0  0  0
  193.6250  176.0740  146.9230 C   0  0  0  0  0  2  0  0  0  0  0  0
  2 16  2  0  0  0  0
  3  9  1  0  0  0  0
  3 11  1  1  0  0  0
  4 15  1  0  0  0  0
  6 19  1  0  0  0  0
  7 14  2  0  0  0  0
  8  5  1  0  0  0  0
  8  7  1  0  0  0  0
  9  1  2  0  0  0  0
 10 24  1  1  0  0  0
 10 16  1  0  0  0  0
 12 13  1  0  0  0  0
 13 23  1  6  0  0  0
 13 10  1  0  0  0  0
 14 20  1  0  0  0  0
 14 23  1  0  0  0  0
 15 17  1  0  0  0  0
 16  6  1  0  0  0  0
 18 17  1  6  0  0  0
 18  3  1  0  0  0  0
 18  9  1  0  0  0  0
 19 11  1  0  0  0  0
 19 29  1  1  0  0  0
 20 12  1  1  0  0  0
 21  5  1  6  0  0  0
 21 22  1  0  0  0  0
 21 20  1  0  0  0  0
 22  4  1  0  0  0  0
 25 26  2  0  0  0  0
 26 27  1  0  0  0  0
 26  1  1  0  0  0  0
 29 28  1  6  0  0  0
 30 31  1  0  0  0  0
 31 29  1  0  0  0  0
M  END
>  <MODEL>
4

>  <REMARK>
 VINA RESULT:      -7.3      2.341      5.918
  Name = 
  3 active torsions:
  status: ('A' for Active; 'I' for Inactive)
    1  A    between atoms: N_1  and  C_22
    2  A    between atoms: C_21  and  C_28
    3  A    between atoms: C_28  and  C_30
                            x       y       z     vdW  Elec       q    Type
                         _______ _______ _______ _____ _____    ______ ____

>  <TORSDO>
F 3

$$$$
=
 OpenBabel11062420563D

 31 34  0  0  1  0  0  0  0  0999 V2000
  187.7960  175.2000  139.4560 N   0  0  0  0  0  0  0  0  0  0  0  0
  189.6890  173.5120  145.7140 O   0  0  0  0  0  0  0  0  0  0  0  0
  188.6320  174.6930  142.0090 C   0  0  1  0  0  3  0  0  0  0  0  0
  186.1020  178.0380  143.4950 C   0  0  0  0  0  2  0  0  0  0  0  0
  185.3190  178.8150  147.0840 C   0  0  0  0  0  2  0  0  0  0  0  0
  190.6240  175.1710  144.3570 N   0  0  0  0  0  2  0  0  0  0  0  0
  187.4690  179.1120  148.4360 C   0  0  0  0  0  3  0  0  0  0  0  0
  186.0480  179.5780  148.2030 C   0  0  0  0  0  2  0  0  0  0  0  0
  188.0320  175.2610  140.7260 C   0  0  0  0  0  0  0  0  0  0  0  0
  189.9900  175.6220  146.7790 C   0  0  1  0  0  3  0  0  0  0  0  0
  190.1330  174.9140  141.9760 C   0  0  0  0  0  2  0  0  0  0  0  0
  188.4730  177.2320  145.5460 C   0  0  0  0  0  2  0  0  0  0  0  0
  189.7400  177.0870  146.3970 C   0  0  1  0  0  3  0  0  0  0  0  0
  188.0520  178.2030  147.6430 C   0  0  0  0  0  0  0  0  0  0  0  0
  185.6950  176.9770  142.4870 C   0  0  0  0  0  2  0  0  0  0  0  0
  190.0740  174.7080  145.5950 C   0  0  0  0  0  0  0  0  0  0  0  0
  186.5420  175.7230  142.6530 C   0  0  0  0  0  2  0  0  0  0  0  0
  187.9380  175.9390  142.0910 C   0  0  1  0  0  3  0  0  0  0  0  0
  190.7810  174.2910  143.2070 C   0  0  1  0  0  3  0  0  0  0  0  0
  187.3490  177.5440  146.5140 C   0  0  1  0  0  3  0  0  0  0  0  0
  186.2670  178.4580  145.9380 C   0  0  1  0  0  3  0  0  0  0  0  0
  185.4890  177.7370  144.8510 C   0  0  0  0  0  2  0  0  0  0  0  0
  189.5060  177.9180  147.6590 C   0  0  0  0  0  2  0  0  0  0  0  0
  191.1690  175.5190  147.5220 O   0  0  0  0  0  1  0  0  0  0  0  0
  186.8290  177.4530  139.3620 O   0  0  0  0  0  1  0  0  0  0  0  0
  187.0820  176.2240  138.7610 C   0  0  0  0  0  0  0  0  0  0  0  0
  186.6810  176.0150  137.5860 O   0  0  0  0  0  0  0  0  0  0  0  0
  193.1440  175.0800  143.5260 C   0  0  0  0  0  1  0  0  0  0  0  0
  192.2620  173.9610  142.9970 C   0  0  1  0  0  3  0  0  0  0  0  0
  193.0420  172.8130  144.9490 O   0  0  0  0  0  1  0  0  0  0  0  0
  192.6550  172.6250  143.6200 C   0  0  0  0  0  2  0  0  0  0  0  0
  1  9  2  0  0  0  0
  3 11  1  6  0  0  0
  3 18  1  0  0  0  0
  4 22  1  0  0  0  0
  5  8  1  0  0  0  0
  6 16  1  0  0  0  0
  8  7  1  0  0  0  0
  9  3  1  0  0  0  0
  9 18  1  0  0  0  0
 10 24  1  6  0  0  0
 11 19  1  0  0  0  0
 13 12  1  6  0  0  0
 13 10  1  0  0  0  0
 13 23  1  0  0  0  0
 14 23  1  0  0  0  0
 14  7  2  0  0  0  0
 15 17  1  0  0  0  0
 15  4  1  0  0  0  0
 16  2  2  0  0  0  0
 16 10  1  0  0  0  0
 18 17  1  1  0  0  0
 19 29  1  6  0  0  0
 19  6  1  0  0  0  0
 20 12  1  6  0  0  0
 20 14  1  0  0  0  0
 21 22  1  6  0  0  0
 21 20  1  0  0  0  0
 21  5  1  0  0  0  0
 26 25  1  0  0  0  0
 26  1  1  0  0  0  0
 27 26  2  0  0  0  0
 29 28  1  1  0  0  0
 29 31  1  0  0  0  0
 31 30  1  0  0  0  0
M  END
>  <MODEL>
5

>  <REMARK>
 VINA RESULT:      -7.2      2.657      5.596
  Name = 
  3 active torsions:
  status: ('A' for Active; 'I' for Inactive)
    1  A    between atoms: N_1  and  C_22
    2  A    between atoms: C_21  and  C_28
    3  A    between atoms: C_28  and  C_30
                            x       y       z     vdW  Elec       q    Type
                         _______ _______ _______ _____ _____    ______ ____

>  <TORSDO>
F 3

$$$$
=
 OpenBabel11062420563D

 31 34  0  0  1  0  0  0  0  0999 V2000
  185.8990  178.6140  146.9910 N   0  0  0  0  0  0  0  0  0  0  0  0
  187.3110  173.9290  142.3390 O   0  0  0  0  0  0  0  0  0  0  0  0
  186.6130  176.8290  145.0470 C   0  0  1  0  0  3  0  0  0  0  0  0
  190.6870  176.5450  146.8140 C   0  0  0  0  0  2  0  0  0  0  0  0
  193.3380  174.0460  145.9090 C   0  0  0  0  0  2  0  0  0  0  0  0
  187.8010  176.2130  142.2340 N   0  0  0  0  0  2  0  0  0  0  0  0
  193.8330  174.1180  143.4010 C   0  0  0  0  0  3  0  0  0  0  0  0
  194.3970  173.9560  144.7970 C   0  0  0  0  0  2  0  0  0  0  0  0
  186.5520  177.8240  146.2030 C   0  0  0  0  0  0  0  0  0  0  0  0
  189.5520  174.4420  141.7120 C   0  0  1  0  0  3  0  0  0  0  0  0
  186.4680  177.5960  143.7460 C   0  0  0  0  0  2  0  0  0  0  0  0
  190.5750  175.5950  143.7220 C   0  0  0  0  0  2  0  0  0  0  0  0
  190.6280  175.4220  142.1990 C   0  0  1  0  0  3  0  0  0  0  0  0
  192.5470  174.4340  143.1930 C   0  0  0  0  0  0  0  0  0  0  0  0
  189.3710  176.5250  147.5720 C   0  0  0  0  0  2  0  0  0  0  0  0
  188.1660  174.8330  142.1250 C   0  0  0  0  0  0  0  0  0  0  0  0
  188.2350  176.0650  146.6680 C   0  0  0  0  0  2  0  0  0  0  0  0
  187.8370  177.1680  145.7010 C   0  0  1  0  0  3  0  0  0  0  0  0
  186.4460  176.6270  142.5680 C   0  0  1  0  0  3  0  0  0  0  0  0
  191.5650  174.6000  144.2930 C   0  0  1  0  0  3  0  0  0  0  0  0
  192.2560  175.0730  145.5720 C   0  0  1  0  0  3  0  0  0  0  0  0
  191.2590  175.1420  146.7170 C   0  0  0  0  0  2  0  0  0  0  0  0
  192.0160  174.8660  141.8790 C   0  0  0  0  0  2  0  0  0  0  0  0
  189.6020  174.3330  140.3200 O   0  0  0  0  0  1  0  0  0  0  0  0
  186.1970  180.7170  148.2210 O   0  0  0  0  0  0  0  0  0  0  0  0
  186.5440  179.3870  148.0050 C   0  0  0  0  0  0  0  0  0  0  0  0
  187.4340  178.8540  148.7190 O   0  0  0  0  0  1  0  0  0  0  0  0
  184.8070  178.3330  141.7230 C   0  0  0  0  0  1  0  0  0  0  0  0
  185.7550  177.2110  141.3310 C   0  0  1  0  0  3  0  0  0  0  0  0
  186.5360  177.0160  139.0760 O   0  0  0  0  0  1  0  0  0  0  0  0
  186.7520  177.6900  140.2800 C   0  0  0  0  0  2  0  0  0  0  0  0
  1 26  1  0  0  0  0
  3 11  1  6  0  0  0
  3 18  1  0  0  0  0
  3  9  1  0  0  0  0
  4 15  1  0  0  0  0
  6 19  1  0  0  0  0
  7  8  1  0  0  0  0
  8  5  1  0  0  0  0
  9  1  2  0  0  0  0
 10 24  1  6  0  0  0
 10 16  1  0  0  0  0
 10 13  1  0  0  0  0
 13 23  1  1  0  0  0
 13 12  1  0  0  0  0
 14  7  2  0  0  0  0
 14 20  1  0  0  0  0
 16  6  1  0  0  0  0
 16  2  2  0  0  0  0
 17 15  1  0  0  0  0
 18  9  1  0  0  0  0
 18 17  1  1  0  0  0
 19 29  1  6  0  0  0
 19 11  1  0  0  0  0
 20 12  1  6  0  0  0
 20 21  1  0  0  0  0
 21  5  1  1  0  0  0
 21 22  1  0  0  0  0
 22  4  1  0  0  0  0
 23 14  1  0  0  0  0
 26 25  2  0  0  0  0
 26 27  1  0  0  0  0
 29 28  1  1  0  0  0
 30 31  1  0  0  0  0
 31 29  1  0  0  0  0
M  END
>  <MODEL>
6

>  <REMARK>
 VINA RESULT:      -7.1      2.506      3.589
  Name = 
  3 active torsions:
  status: ('A' for Active; 'I' for Inactive)
    1  A    between atoms: N_1  and  C_22
    2  A    between atoms: C_21  and  C_28
    3  A    between atoms: C_28  and  C_30
                            x       y       z     vdW  Elec       q    Type
                         _______ _______ _______ _____ _____    ______ ____

>  <TORSDO>
F 3

$$$$
=
 OpenBabel11062420563D

 31 34  0  0  1  0  0  0  0  0999 V2000
  193.0150  173.5720  139.5900 N   0  0  0  0  0  0  0  0  0  0  0  0
  192.1860  174.0720  146.2730 O   0  0  0  0  0  0  0  0  0  0  0  0
  192.6500  173.9610  142.2720 C   0  0  1  0  0  3  0  0  0  0  0  0
  188.5880  175.5950  141.4760 C   0  0  0  0  0  2  0  0  0  0  0  0
  185.9420  176.3290  144.0350 C   0  0  0  0  0  2  0  0  0  0  0  0
  192.8650  175.7610  144.8060 N   0  0  0  0  0  2  0  0  0  0  0  0
  186.8310  177.9230  145.8260 C   0  0  0  0  0  3  0  0  0  0  0  0
  185.6500  177.5140  144.9720 C   0  0  0  0  0  2  0  0  0  0  0  0
  192.5630  173.9290  140.7490 C   0  0  0  0  0  0  0  0  0  0  0  0
  191.0280  176.1390  146.5240 C   0  0  1  0  0  3  0  0  0  0  0  0
  193.7330  174.9460  142.6710 C   0  0  0  0  0  2  0  0  0  0  0  0
  189.7750  176.4890  144.3520 C   0  0  0  0  0  2  0  0  0  0  0  0
  190.4060  177.1690  145.5720 C   0  0  1  0  0  3  0  0  0  0  0  0
  188.0400  177.3670  145.6700 C   0  0  0  0  0  0  0  0  0  0  0  0
  189.1990  174.3510  140.8540 C   0  0  0  0  0  2  0  0  0  0  0  0
  192.0410  175.2570  145.8620 C   0  0  0  0  0  0  0  0  0  0  0  0
  190.2970  173.7860  141.7430 C   0  0  0  0  0  2  0  0  0  0  0  0
  191.5550  174.6360  141.6510 C   0  0  1  0  0  3  0  0  0  0  0  0
  193.9040  174.9510  144.1860 C   0  0  1  0  0  3  0  0  0  0  0  0
  188.3130  176.2810  144.6950 C   0  0  1  0  0  3  0  0  0  0  0  0
  187.3710  176.3790  143.4950 C   0  0  1  0  0  3  0  0  0  0  0  0
  187.5910  175.2070  142.5530 C   0  0  0  0  0  2  0  0  0  0  0  0
  189.2750  177.9130  146.2820 C   0  0  0  0  0  2  0  0  0  0  0  0
  191.6260  176.7910  147.6060 O   0  0  0  0  0  1  0  0  0  0  0  0
  192.9110  174.9180  137.5410 O   0  0  0  0  0  0  0  0  0  0  0  0
  192.3680  173.9420  138.3710 C   0  0  0  0  0  0  0  0  0  0  0  0
  191.2950  173.3720  138.0400 O   0  0  0  0  0  1  0  0  0  0  0  0
  195.9030  174.4850  145.6350 C   0  0  0  0  0  1  0  0  0  0  0  0
  195.2870  175.4420  144.6260 C   0  0  1  0  0  3  0  0  0  0  0  0
  196.7900  176.9390  143.5150 O   0  0  0  0  0  1  0  0  0  0  0  0
  196.2300  175.6610  143.4470 C   0  0  0  0  0  2  0  0  0  0  0  0
  1  9  2  0  0  0  0
  3 11  1  6  0  0  0
  4 22  1  0  0  0  0
  5  8  1  0  0  0  0
  6 16  1  0  0  0  0
  8  7  1  0  0  0  0
  9 18  1  0  0  0  0
  9  3  1  0  0  0  0
 10 24  1  1  0  0  0
 11 19  1  0  0  0  0
 13 12  1  6  0  0  0
 13 23  1  0  0  0  0
 13 10  1  0  0  0  0
 14  7  2  0  0  0  0
 14 23  1  0  0  0  0
 15  4  1  0  0  0  0
 15 17  1  0  0  0  0
 16  2  2  0  0  0  0
 16 10  1  0  0  0  0
 18 17  1  1  0  0  0
 18  3  1  0  0  0  0
 19 29  1  6  0  0  0
 19  6  1  0  0  0  0
 20 12  1  6  0  0  0
 20 14  1  0  0  0  0
 21 22  1  6  0  0  0
 21  5  1  0  0  0  0
 21 20  1  0  0  0  0
 25 26  2  0  0  0  0
 26  1  1  0  0  0  0
 27 26  1  0  0  0  0
 29 28  1  1  0  0  0
 31 30  1  0  0  0  0
 31 29  1  0  0  0  0
M  END
>  <MODEL>
7

>  <REMARK>
 VINA RESULT:      -6.9      3.052      7.020
  Name = 
  3 active torsions:
  status: ('A' for Active; 'I' for Inactive)
    1  A    between atoms: N_1  and  C_22
    2  A    between atoms: C_21  and  C_28
    3  A    between atoms: C_28  and  C_30
                            x       y       z     vdW  Elec       q    Type
                         _______ _______ _______ _____ _____    ______ ____

>  <TORSDO>
F 3

$$$$
=
 OpenBabel11062420563D

 31 34  0  0  1  0  0  0  0  0999 V2000
  192.1950  173.0950  138.8160 N   0  0  0  0  0  0  0  0  0  0  0  0
  192.1380  173.5830  145.5500 O   0  0  0  0  0  0  0  0  0  0  0  0
  192.1590  173.4820  141.5220 C   0  0  1  0  0  3  0  0  0  0  0  0
  188.2140  175.5110  141.1730 C   0  0  0  0  0  2  0  0  0  0  0  0
  185.9400  176.4630  144.0040 C   0  0  0  0  0  2  0  0  0  0  0  0
  192.8180  175.2180  144.0230 N   0  0  0  0  0  2  0  0  0  0  0  0
  187.1670  177.9400  145.6940 C   0  0  0  0  0  3  0  0  0  0  0  0
  185.8680  177.6580  144.9700 C   0  0  0  0  0  2  0  0  0  0  0  0
  191.9070  173.4790  140.0170 C   0  0  0  0  0  0  0  0  0  0  0  0
  191.2210  175.7500  145.9310 C   0  0  1  0  0  3  0  0  0  0  0  0
  193.3690  174.3520  141.8050 C   0  0  0  0  0  2  0  0  0  0  0  0
  189.7820  176.2470  143.9070 C   0  0  0  0  0  2  0  0  0  0  0  0
  190.6040  176.8480  145.0540 C   0  0  1  0  0  3  0  0  0  0  0  0
  188.2930  177.2720  145.4060 C   0  0  0  0  0  0  0  0  0  0  0  0
  188.6310  174.2220  140.4850 C   0  0  0  0  0  2  0  0  0  0  0  0
  192.0670  174.7820  145.1610 C   0  0  0  0  0  0  0  0  0  0  0  0
  189.7570  173.5420  141.2500 C   0  0  0  0  0  2  0  0  0  0  0  0
  191.0740  174.2680  141.0250 C   0  0  1  0  0  3  0  0  0  0  0  0
  193.7010  174.3200  143.2930 C   0  0  1  0  0  3  0  0  0  0  0  0
  188.3520  176.1780  144.4050 C   0  0  1  0  0  3  0  0  0  0  0  0
  187.3020  176.3820  143.3130 C   0  0  1  0  0  3  0  0  0  0  0  0
  187.3050  175.2070  142.3500 C   0  0  0  0  0  2  0  0  0  0  0  0
  189.6330  177.6880  145.8830 C   0  0  0  0  0  2  0  0  0  0  0  0
  191.9920  176.3260  146.9430 O   0  0  0  0  0  1  0  0  0  0  0  0
  191.9350  174.5820  136.8820 O   0  0  0  0  0  0  0  0  0  0  0  0
  191.4610  173.5410  137.6740 C   0  0  0  0  0  0  0  0  0  0  0  0
  190.3720  172.9820  137.3780 O   0  0  0  0  0  1  0  0  0  0  0  0
  195.3360  176.1700  143.7510 C   0  0  0  0  0  1  0  0  0  0  0  0
  195.1640  174.6690  143.5830 C   0  0  1  0  0  3  0  0  0  0  0  0
  195.6590  174.7480  145.9250 O   0  0  0  0  0  1  0  0  0  0  0  0
  195.7100  173.9250  144.7980 C   0  0  0  0  0  2  0  0  0  0  0  0
  1  9  2  0  0  0  0
  3 11  1  6  0  0  0
  4 22  1  0  0  0  0
  5  8  1  0  0  0  0
  6 16  1  0  0  0  0
  8  7  1  0  0  0  0
  9 18  1  0  0  0  0
  9  3  1  0  0  0  0
 10 24  1  1  0  0  0
 11 19  1  0  0  0  0
 13 12  1  6  0  0  0
 13 23  1  0  0  0  0
 13 10  1  0  0  0  0
 14  7  2  0  0  0  0
 14 23  1  0  0  0  0
 15  4  1  0  0  0  0
 15 17  1  0  0  0  0
 16  2  2  0  0  0  0
 16 10  1  0  0  0  0
 18 17  1  1  0  0  0
 18  3  1  0  0  0  0
 19 29  1  6  0  0  0
 19  6  1  0  0  0  0
 20 12  1  6  0  0  0
 20 14  1  0  0  0  0
 21 22  1  6  0  0  0
 21  5  1  0  0  0  0
 21 20  1  0  0  0  0
 25 26  2  0  0  0  0
 26  1  1  0  0  0  0
 27 26  1  0  0  0  0
 29 28  1  1  0  0  0
 29 31  1  0  0  0  0
 31 30  1  0  0  0  0
M  END
>  <MODEL>
8

>  <REMARK>
 VINA RESULT:      -6.9      3.063      6.781
  Name = 
  3 active torsions:
  status: ('A' for Active; 'I' for Inactive)
    1  A    between atoms: N_1  and  C_22
    2  A    between atoms: C_21  and  C_28
    3  A    between atoms: C_28  and  C_30
                            x       y       z     vdW  Elec       q    Type
                         _______ _______ _______ _____ _____    ______ ____

>  <TORSDO>
F 3

$$$$
=
 OpenBabel11062420563D

 31 34  0  0  1  0  0  0  0  0999 V2000
  192.4960  174.2180  142.5280 N   0  0  0  0  0  0  0  0  0  0  0  0
  187.9850  175.2640  147.4420 O   0  0  0  0  0  0  0  0  0  0  0  0
  190.6740  174.8270  144.4730 C   0  0  1  0  0  3  0  0  0  0  0  0
  187.9610  176.5350  141.3880 C   0  0  0  0  0  2  0  0  0  0  0  0
  184.3830  177.5580  141.8870 C   0  0  0  0  0  2  0  0  0  0  0  0
  189.5120  176.8090  146.5770 N   0  0  0  0  0  2  0  0  0  0  0  0
  184.1840  179.2540  143.7910 C   0  0  0  0  0  3  0  0  0  0  0  0
  183.6910  178.8220  142.4260 C   0  0  0  0  0  2  0  0  0  0  0  0
  191.4840  174.6800  143.1890 C   0  0  0  0  0  0  0  0  0  0  0  0
  187.0520  177.3840  146.8820 C   0  0  1  0  0  3  0  0  0  0  0  0
  191.3940  175.8010  145.3870 C   0  0  0  0  0  2  0  0  0  0  0  0
  187.3210  177.6070  144.3740 C   0  0  0  0  0  2  0  0  0  0  0  0
  187.1760  178.3580  145.7030 C   0  0  1  0  0  3  0  0  0  0  0  0
  185.2150  178.6460  144.3930 C   0  0  0  0  0  0  0  0  0  0  0  0
  188.7260  175.2260  141.2930 C   0  0  0  0  0  2  0  0  0  0  0  0
  188.1930  176.4180  146.9740 C   0  0  0  0  0  0  0  0  0  0  0  0
  189.0580  174.6940  142.6790 C   0  0  0  0  0  2  0  0  0  0  0  0
  190.1950  175.4900  143.3020 C   0  0  1  0  0  3  0  0  0  0  0  0
  190.6540  175.9170  146.7150 C   0  0  1  0  0  3  0  0  0  0  0  0
  185.9210  177.4790  143.8080 C   0  0  1  0  0  3  0  0  0  0  0  0
  185.8600  177.5160  142.2810 C   0  0  1  0  0  3  0  0  0  0  0  0
  186.4980  176.2670  141.6960 C   0  0  0  0  0  2  0  0  0  0  0  0
  185.9010  179.1940  145.5860 C   0  0  0  0  0  2  0  0  0  0  0  0
  186.9590  178.0970  148.0800 O   0  0  0  0  0  1  0  0  0  0  0  0
  193.7710  175.3110  140.7400 O   0  0  0  0  0  1  0  0  0  0  0  0
  192.7060  174.5140  141.1460 C   0  0  0  0  0  0  0  0  0  0  0  0
  191.9190  174.0430  140.2840 O   0  0  0  0  0  0  0  0  0  0  0  0
  192.9810  176.5990  147.3690 C   0  0  0  0  0  1  0  0  0  0  0  0
  191.5570  176.3920  147.8580 C   0  0  1  0  0  3  0  0  0  0  0  0
  191.7520  177.9140  149.6960 O   0  0  0  0  0  1  0  0  0  0  0  0
  191.0290  177.6560  148.5300 C   0  0  0  0  0  2  0  0  0  0  0  0
  1  9  2  0  0  0  0
  3 11  1  1  0  0  0
  4 22  1  0  0  0  0
  5 21  1  0  0  0  0
  5  8  1  0  0  0  0
  6 19  1  0  0  0  0
  6 16  1  0  0  0  0
  7 14  2  0  0  0  0
  8  7  1  0  0  0  0
  9 18  1  0  0  0  0
  9  3  1  0  0  0  0
 10 16  1  0  0  0  0
 10 24  1  1  0  0  0
 11 19  1  0  0  0  0
 13 12  1  6  0  0  0
 13 10  1  0  0  0  0
 14 23  1  0  0  0  0
 15  4  1  0  0  0  0
 15 17  1  0  0  0  0
 16  2  2  0  0  0  0
 18 17  1  6  0  0  0
 18  3  1  0  0  0  0
 19 29  1  1  0  0  0
 20 12  1  6  0  0  0
 20 14  1  0  0  0  0
 21 22  1  6  0  0  0
 21 20  1  0  0  0  0
 23 13  1  0  0  0  0
 25 26  1  0  0  0  0
 26  1  1  0  0  0  0
 27 26  2  0  0  0  0
 29 28  1  6  0  0  0
 29 31  1  0  0  0  0
 31 30  1  0  0  0  0
M  END
>  <MODEL>
9

>  <REMARK>
 VINA RESULT:      -6.8      2.896      8.099
  Name = 
  3 active torsions:
  status: ('A' for Active; 'I' for Inactive)
    1  A    between atoms: N_1  and  C_22
    2  A    between atoms: C_21  and  C_28
    3  A    between atoms: C_28  and  C_30
                            x       y       z     vdW  Elec       q    Type
                         _______ _______ _______ _____ _____    ______ ____

>  <TORSDO>
F 3

$$$$
