=
 OpenBabel11062422393D

 44 50  0  0  1  0  0  0  0  0999 V2000
  192.3470  174.2890  144.4870 O   0  0  0  0  0  0  0  0  0  0  0  0
  191.9240  176.3560  147.0550 C   0  0  1  0  0  3  0  0  0  0  0  0
  193.7200  174.3810  144.9060 C   0  0  2  0  0  3  0  0  0  0  0  0
  194.4120  176.6690  145.9560 C   0  0  0  0  0  1  0  0  0  0  0  0
  187.1480  178.3770  144.3300 C   0  0  0  0  0  2  0  0  0  0  0  0
  190.5180  173.8110  140.3860 C   0  0  0  0  0  3  0  0  0  0  0  0
  186.4670  176.4580  139.0420 O   0  0  0  0  0  0  0  0  0  0  0  0
  186.1180  177.3010  143.9840 C   0  0  2  0  0  0  0  0  0  0  0  0
  192.9930  174.0630  142.1660 C   0  0  0  0  0  0  0  0  0  0  0  0
  190.6450  174.1960  142.8700 C   0  0  0  0  0  3  0  0  0  0  0  0
  192.9470  173.6510  140.8680 C   0  0  0  0  0  0  0  0  0  0  0  0
  188.0730  175.2910  140.2440 N   0  0  0  0  0  2  0  0  0  0  0  0
  186.1130  178.1420  141.5780 C   0  0  2  0  0  3  0  0  0  0  0  0
  188.1710  175.3690  142.5680 O   0  0  0  0  0  0  0  0  0  0  0  0
  189.7690  175.8930  147.6270 C   0  0  0  0  0  2  0  0  0  0  0  0
  185.0500  178.5610  140.5740 C   0  0  0  0  0  1  0  0  0  0  0  0
  188.5250  177.7630  144.5140 C   0  0  0  0  0  2  0  0  0  0  0  0
  191.9450  174.1410  143.1600 C   0  0  0  0  0  0  0  0  0  0  0  0
  193.8330  175.2590  146.1690 C   0  0  1  0  0  3  0  0  0  0  0  0
  189.6710  176.2510  146.1540 C   0  0  1  0  0  3  0  0  0  0  0  0
  187.2420  176.4380  140.0320 C   0  0  0  0  0  0  0  0  0  0  0  0
  191.7750  173.0120  140.2130 C   0  0  0  0  0  2  0  0  0  0  0  0
  194.2670  174.2820  142.4760 N   0  0  0  0  0  0  0  0  0  0  0  0
  191.4830  176.9530  144.7840 O   0  0  0  0  0  0  0  0  0  0  0  0
  188.7760  177.4730  145.9850 C   0  0  0  0  0  2  0  0  0  0  0  0
  194.2150  173.6310  140.4020 N   0  0  0  0  0  0  0  0  0  0  0  0
  194.7250  174.7650  143.7800 C   0  0  2  0  0  3  0  0  0  0  0  0
  191.0730  176.5500  145.8620 C   0  0  0  0  0  0  0  0  0  0  0  0
  191.0340  176.2750  148.1450 O   0  0  0  0  0  0  0  0  0  0  0  0
  192.6710  175.1540  146.9870 O   0  0  0  0  0  0  0  0  0  0  0  0
  194.9970  174.0470  141.3960 N   0  0  0  0  0  0  0  0  0  0  0  0
  187.3960  177.6680  140.8880 C   0  0  0  0  0  2  0  0  0  0  0  0
  185.5640  177.1230  142.5740 C   0  0  2  0  0  3  0  0  0  0  0  0
  184.7540  177.8500  143.6460 C   0  0  0  0  0  2  0  0  0  0  0  0
  188.7100  174.9950  141.4930 C   0  0  0  0  0  0  0  0  0  0  0  0
  189.9940  174.2700  141.5370 C   0  0  0  0  0  0  0  0  0  0  0  0
  186.0340  176.1800  144.8110 O   0  0  0  0  0  1  0  0  0  0  0  0
  196.0990  174.2000  144.1120 C   0  0  0  0  0  2  0  0  0  0  0  0
  195.9660  172.9830  145.0110 C   0  0  2  0  0  3  0  0  0  0  0  0
  196.8380  173.0950  146.0950 O   0  0  0  0  0  1  0  0  0  0  0  0
  196.2850  171.7870  144.2500 N   0  0  0  0  0  2  0  0  0  0  0  0
  195.2680  169.5950  144.3580 C   0  0  0  0  0  2  0  0  0  0  0  0
  194.5880  170.4830  145.3750 C   0  0  0  0  0  2  0  0  0  0  0  0
  195.0430  171.0620  144.0510 C   0  0  0  0  0  3  0  0  0  0  0  0
  2 28  1  6  0  0  0
  2 29  1  0  0  0  0
  3  1  1  6  0  0  0
  3 19  1  0  0  0  0
  5 17  1  0  0  0  0
  6 36  2  0  0  0  0
  7 21  2  0  0  0  0
  8  5  1  0  0  0  0
  8 37  1  1  0  0  0
  9 23  1  0  0  0  0
  9 18  1  0  0  0  0
 10 18  2  0  0  0  0
 11  9  2  0  0  0  0
 12 35  1  0  0  0  0
 13 16  1  6  0  0  0
 13 33  1  0  0  0  0
 15 29  1  0  0  0  0
 17 25  1  0  0  0  0
 18  1  1  0  0  0  0
 19  4  1  6  0  0  0
 19 30  1  0  0  0  0
 20 25  1  1  0  0  0
 20 15  1  0  0  0  0
 21 12  1  0  0  0  0
 21 32  1  0  0  0  0
 22  6  1  0  0  0  0
 22 11  1  0  0  0  0
 23 27  1  0  0  0  0
 24 28  2  0  0  0  0
 26 11  1  0  0  0  0
 26 31  2  0  0  0  0
 27 38  1  1  0  0  0
 27  3  1  0  0  0  0
 28 20  1  0  0  0  0
 30  2  1  0  0  0  0
 31 23  1  0  0  0  0
 32 13  1  0  0  0  0
 33 34  1  1  0  0  0
 33  8  1  0  0  0  0
 34  8  1  0  0  0  0
 35 36  1  0  0  0  0
 35 14  2  0  0  0  0
 36 10  1  0  0  0  0
 38 39  1  0  0  0  0
 39 40  1  1  0  0  0
 41 39  1  0  0  0  0
 42 43  1  0  0  0  0
 44 41  1  0  0  0  0
 44 42  1  0  0  0  0
 44 43  1  0  0  0  0
M  END
>  <MODEL>
1

>  <REMARK>
 VINA RESULT:      -8.6      0.000      0.000
  Name = 
  4 active torsions:
  status: ('A' for Active; 'I' for Inactive)
    1  A    between atoms: C_8  and  C_18
    2  A    between atoms: C_8  and  N_31
    3  A    between atoms: C_18  and  C_33
    4  A    between atoms: N_31  and  C_44
                            x       y       z     vdW  Elec       q    Type
                         _______ _______ _______ _____ _____    ______ ____

>  <TORSDO>
F 4

$$$$
=
 OpenBabel11062422393D

 44 50  0  0  1  0  0  0  0  0999 V2000
  192.7390  173.5490  142.2720 O   0  0  0  0  0  0  0  0  0  0  0  0
  194.3980  175.0100  144.7550 C   0  0  1  0  0  3  0  0  0  0  0  0
  194.0610  173.4730  141.7100 C   0  0  2  0  0  3  0  0  0  0  0  0
  195.6620  175.4310  142.3630 C   0  0  0  0  0  1  0  0  0  0  0  0
  189.4390  177.8330  146.0830 C   0  0  0  0  0  2  0  0  0  0  0  0
  188.7050  174.0950  140.3170 C   0  0  0  0  0  3  0  0  0  0  0  0
  185.2740  177.1810  142.2970 O   0  0  0  0  0  0  0  0  0  0  0  0
  188.2430  176.9150  146.3430 C   0  0  2  0  0  0  0  0  0  0  0  0
  191.7430  173.8130  140.0830 C   0  0  0  0  0  0  0  0  0  0  0  0
  190.4210  173.9070  142.1500 C   0  0  0  0  0  3  0  0  0  0  0  0
  190.8230  173.7050  139.0830 C   0  0  0  0  0  0  0  0  0  0  0  0
  187.0300  175.6930  141.9980 N   0  0  0  0  0  2  0  0  0  0  0  0
  186.8940  178.2720  144.6590 C   0  0  2  0  0  3  0  0  0  0  0  0
  188.5670  175.2450  143.6870 O   0  0  0  0  0  0  0  0  0  0  0  0
  193.0310  174.5420  146.5150 C   0  0  0  0  0  2  0  0  0  0  0  0
  185.5370  178.9590  144.6520 C   0  0  0  0  0  1  0  0  0  0  0  0
  190.4880  177.1230  145.2450 C   0  0  0  0  0  2  0  0  0  0  0  0
  191.5800  173.7220  141.5170 C   0  0  0  0  0  0  0  0  0  0  0  0
  195.0960  174.0410  142.7040 C   0  0  1  0  0  3  0  0  0  0  0  0
  192.1040  175.2250  145.5240 C   0  0  1  0  0  3  0  0  0  0  0  0
  186.4770  176.9000  142.5340 C   0  0  0  0  0  0  0  0  0  0  0  0
  189.4070  173.2900  139.2630 C   0  0  0  0  0  2  0  0  0  0  0  0
  192.9450  173.8920  139.5200 N   0  0  0  0  0  0  0  0  0  0  0  0
  192.7560  176.1200  143.4200 O   0  0  0  0  0  0  0  0  0  0  0  0
  191.5430  176.4980  146.1450 C   0  0  0  0  0  2  0  0  0  0  0  0
  191.4930  173.7240  137.9100 N   0  0  0  0  0  0  0  0  0  0  0  0
  194.1940  174.0470  140.2680 C   0  0  2  0  0  3  0  0  0  0  0  0
  193.0430  175.5090  144.4380 C   0  0  0  0  0  0  0  0  0  0  0  0
  194.3860  174.7340  146.1370 O   0  0  0  0  0  0  0  0  0  0  0  0
  194.7030  173.8160  144.0550 O   0  0  0  0  0  0  0  0  0  0  0  0
  192.7830  173.8670  138.2050 N   0  0  0  0  0  0  0  0  0  0  0  0
  187.3520  177.8980  143.2450 C   0  0  0  0  0  2  0  0  0  0  0  0
  186.9100  177.0860  145.6210 C   0  0  2  0  0  3  0  0  0  0  0  0
  187.0970  177.5960  147.0480 C   0  0  0  0  0  2  0  0  0  0  0  0
  188.2380  175.0940  142.4800 C   0  0  0  0  0  0  0  0  0  0  0  0
  189.1090  174.3120  141.5820 C   0  0  0  0  0  0  0  0  0  0  0  0
  188.4890  175.6440  146.8630 O   0  0  0  0  0  1  0  0  0  0  0  0
  195.3420  173.3520  139.5480 C   0  0  0  0  0  2  0  0  0  0  0  0
  196.3270  174.3770  139.0140 C   0  0  2  0  0  3  0  0  0  0  0  0
  195.8530  175.6660  139.2640 O   0  0  0  0  0  1  0  0  0  0  0  0
  196.4880  174.1870  137.5830 N   0  0  0  0  0  2  0  0  0  0  0  0
  197.9370  174.7390  135.7260 C   0  0  0  0  0  2  0  0  0  0  0  0
  197.0340  175.9230  135.9900 C   0  0  0  0  0  2  0  0  0  0  0  0
  197.5420  175.0860  137.1470 C   0  0  0  0  0  3  0  0  0  0  0  0
  2 30  1  6  0  0  0
  2 29  1  0  0  0  0
  3  1  1  1  0  0  0
  3 19  1  0  0  0  0
  5  8  1  0  0  0  0
  6 36  2  0  0  0  0
  7 21  2  0  0  0  0
  8 37  1  1  0  0  0
  8 34  1  0  0  0  0
  9 18  1  0  0  0  0
 11 22  1  0  0  0  0
 11  9  2  0  0  0  0
 12 35  1  0  0  0  0
 12 21  1  0  0  0  0
 13 16  1  6  0  0  0
 13 33  1  0  0  0  0
 17  5  1  0  0  0  0
 17 25  1  0  0  0  0
 18 10  2  0  0  0  0
 18  1  1  0  0  0  0
 19  4  1  1  0  0  0
 19 30  1  0  0  0  0
 20 25  1  1  0  0  0
 20 15  1  0  0  0  0
 21 32  1  0  0  0  0
 22  6  1  0  0  0  0
 23  9  1  0  0  0  0
 23 27  1  0  0  0  0
 24 28  2  0  0  0  0
 26 31  2  0  0  0  0
 26 11  1  0  0  0  0
 27 38  1  6  0  0  0
 27  3  1  0  0  0  0
 28  2  1  0  0  0  0
 28 20  1  0  0  0  0
 29 15  1  0  0  0  0
 31 23  1  0  0  0  0
 32 13  1  0  0  0  0
 33  8  1  0  0  0  0
 33 34  1  1  0  0  0
 35 14  2  0  0  0  0
 36 10  1  0  0  0  0
 36 35  1  0  0  0  0
 39 40  1  6  0  0  0
 39 38  1  0  0  0  0
 41 39  1  0  0  0  0
 42 43  1  0  0  0  0
 42 44  1  0  0  0  0
 43 44  1  0  0  0  0
 44 41  1  0  0  0  0
M  END
>  <MODEL>
2

>  <REMARK>
 VINA RESULT:      -8.5      2.702      4.272
  Name = 
  4 active torsions:
  status: ('A' for Active; 'I' for Inactive)
    1  A    between atoms: C_8  and  C_18
    2  A    between atoms: C_8  and  N_31
    3  A    between atoms: C_18  and  C_33
    4  A    between atoms: N_31  and  C_44
                            x       y       z     vdW  Elec       q    Type
                         _______ _______ _______ _____ _____    ______ ____

>  <TORSDO>
F 4

$$$$
=
 OpenBabel11062422393D

 44 50  0  0  1  0  0  0  0  0999 V2000
  188.8610  174.8040  144.2100 O   0  0  0  0  0  0  0  0  0  0  0  0
  188.3400  174.4880  140.9420 C   0  0  1  0  0  3  0  0  0  0  0  0
  187.6660  175.5980  144.1140 C   0  0  2  0  0  3  0  0  0  0  0  0
  187.3560  176.8740  141.8560 C   0  0  0  0  0  1  0  0  0  0  0  0
  194.1060  173.6310  140.3500 C   0  0  0  0  0  2  0  0  0  0  0  0
  192.4800  175.1900  146.8840 C   0  0  0  0  0  3  0  0  0  0  0  0
  197.1150  174.5400  145.0650 O   0  0  0  0  0  0  0  0  0  0  0  0
  194.6600  172.4820  141.1920 C   0  0  2  0  0  0  0  0  0  0  0  0
  189.7330  176.1950  145.9870 C   0  0  0  0  0  0  0  0  0  0  0  0
  191.0170  174.3400  145.0200 C   0  0  0  0  0  3  0  0  0  0  0  0
  190.4070  176.5340  147.1210 C   0  0  0  0  0  0  0  0  0  0  0  0
  194.8280  174.4200  145.4420 N   0  0  0  0  0  2  0  0  0  0  0  0
  196.4280  174.0700  142.1150 C   0  0  2  0  0  3  0  0  0  0  0  0
  193.3740  173.4520  143.9040 O   0  0  0  0  0  0  0  0  0  0  0  0
  189.3540  172.4900  140.5380 C   0  0  0  0  0  2  0  0  0  0  0  0
  197.9410  174.0470  142.2620 C   0  0  0  0  0  1  0  0  0  0  0  0
  192.7980  174.1410  140.9320 C   0  0  0  0  0  2  0  0  0  0  0  0
  189.9000  175.0620  145.1040 C   0  0  0  0  0  0  0  0  0  0  0  0
  187.1330  175.5840  142.6660 C   0  0  1  0  0  3  0  0  0  0  0  0
  190.4470  173.3080  141.2030 C   0  0  1  0  0  3  0  0  0  0  0  0
  195.9560  174.5980  144.5790 C   0  0  0  0  0  0  0  0  0  0  0  0
  191.4070  175.6780  147.8120 C   0  0  0  0  0  2  0  0  0  0  0  0
  188.7200  177.0450  145.8490 N   0  0  0  0  0  0  0  0  0  0  0  0
  190.2470  175.5780  141.8830 O   0  0  0  0  0  0  0  0  0  0  0  0
  191.6210  173.4650  140.2440 C   0  0  0  0  0  2  0  0  0  0  0  0
  189.7850  177.6060  147.6610 N   0  0  0  0  0  0  0  0  0  0  0  0
  187.7760  177.0240  144.7300 C   0  0  2  0  0  3  0  0  0  0  0  0
  189.7380  174.5700  141.4170 C   0  0  0  0  0  0  0  0  0  0  0  0
  188.2800  173.3290  140.1430 O   0  0  0  0  0  0  0  0  0  0  0  0
  187.4210  174.3520  142.0120 O   0  0  0  0  0  0  0  0  0  0  0  0
  188.7750  177.9130  146.8490 N   0  0  0  0  0  0  0  0  0  0  0  0
  195.7680  174.9990  143.1390 C   0  0  0  0  0  2  0  0  0  0  0  0
  195.8470  172.6580  142.1350 C   0  0  2  0  0  3  0  0  0  0  0  0
  196.0290  172.0170  140.7600 C   0  0  0  0  0  2  0  0  0  0  0  0
  193.5120  174.1090  144.9700 C   0  0  0  0  0  0  0  0  0  0  0  0
  192.3160  174.5570  145.7080 C   0  0  0  0  0  0  0  0  0  0  0  0
  193.8160  171.4080  141.4790 O   0  0  0  0  0  1  0  0  0  0  0  0
  186.3980  177.4900  145.1800 C   0  0  0  0  0  2  0  0  0  0  0  0
  186.2730  178.9950  145.0190 C   0  0  2  0  0  3  0  0  0  0  0  0
  185.6010  179.5370  146.1170 O   0  0  0  0  0  1  0  0  0  0  0  0
  185.5320  179.2880  143.8040 N   0  0  0  0  0  2  0  0  0  0  0  0
  183.1930  179.0410  143.2400 C   0  0  0  0  0  2  0  0  0  0  0  0
  184.0030  178.1970  142.2810 C   0  0  0  0  0  2  0  0  0  0  0  0
  184.4420  178.3320  143.7260 C   0  0  0  0  0  3  0  0  0  0  0  0
  1 18  1  0  0  0  0
  2 29  1  6  0  0  0
  2 28  1  0  0  0  0
  2 30  1  0  0  0  0
  3  1  1  6  0  0  0
  3 27  1  0  0  0  0
  5 17  1  0  0  0  0
  5  8  1  0  0  0  0
  6 22  1  0  0  0  0
  8 37  1  1  0  0  0
  8 33  1  0  0  0  0
  9 11  2  0  0  0  0
 10 18  2  0  0  0  0
 10 36  1  0  0  0  0
 11 26  1  0  0  0  0
 11 22  1  0  0  0  0
 13 33  1  0  0  0  0
 13 16  1  1  0  0  0
 13 32  1  0  0  0  0
 14 35  2  0  0  0  0
 15 20  1  0  0  0  0
 18  9  1  0  0  0  0
 19  4  1  6  0  0  0
 19  3  1  0  0  0  0
 20 25  1  6  0  0  0
 20 28  1  0  0  0  0
 21  7  2  0  0  0  0
 21 12  1  0  0  0  0
 23  9  1  0  0  0  0
 23 31  1  0  0  0  0
 25 17  1  0  0  0  0
 27 38  1  1  0  0  0
 27 23  1  0  0  0  0
 28 24  2  0  0  0  0
 29 15  1  0  0  0  0
 30 19  1  0  0  0  0
 31 26  2  0  0  0  0
 32 21  1  0  0  0  0
 33 34  1  6  0  0  0
 34  8  1  0  0  0  0
 35 12  1  0  0  0  0
 35 36  1  0  0  0  0
 36  6  2  0  0  0  0
 39 38  1  0  0  0  0
 39 40  1  1  0  0  0
 41 39  1  0  0  0  0
 42 44  1  0  0  0  0
 43 42  1  0  0  0  0
 43 44  1  0  0  0  0
 44 41  1  0  0  0  0
M  END
>  <MODEL>
3

>  <REMARK>
 VINA RESULT:      -8.3      2.719      9.089
  Name = 
  4 active torsions:
  status: ('A' for Active; 'I' for Inactive)
    1  A    between atoms: C_8  and  C_18
    2  A    between atoms: C_8  and  N_31
    3  A    between atoms: C_18  and  C_33
    4  A    between atoms: N_31  and  C_44
                            x       y       z     vdW  Elec       q    Type
                         _______ _______ _______ _____ _____    ______ ____

>  <TORSDO>
F 4

$$$$
=
 OpenBabel11062422393D

 44 50  0  0  1  0  0  0  0  0999 V2000
  192.6640  173.4620  141.9410 O   0  0  0  0  0  0  0  0  0  0  0  0
  194.4710  174.8490  144.3620 C   0  0  1  0  0  3  0  0  0  0  0  0
  193.9520  173.3860  141.3060 C   0  0  2  0  0  3  0  0  0  0  0  0
  195.6070  175.3120  141.9150 C   0  0  0  0  0  1  0  0  0  0  0  0
  189.6230  177.6890  146.0220 C   0  0  0  0  0  2  0  0  0  0  0  0
  188.5350  174.0920  140.2220 C   0  0  0  0  0  3  0  0  0  0  0  0
  185.2510  177.1660  142.4550 O   0  0  0  0  0  0  0  0  0  0  0  0
  188.4330  176.7780  146.3260 C   0  0  2  0  0  0  0  0  0  0  0  0
  191.5530  173.7860  139.8170 C   0  0  0  0  0  0  0  0  0  0  0  0
  190.3460  173.8460  141.9540 C   0  0  0  0  0  3  0  0  0  0  0  0
  190.5790  173.7100  138.8660 C   0  0  0  0  0  0  0  0  0  0  0  0
  186.9720  175.6680  142.0270 N   0  0  0  0  0  2  0  0  0  0  0  0
  187.0090  178.1870  144.7490 C   0  0  2  0  0  3  0  0  0  0  0  0
  188.5940  175.1660  143.6190 O   0  0  0  0  0  0  0  0  0  0  0  0
  193.1970  174.3550  146.1830 C   0  0  0  0  0  2  0  0  0  0  0  0
  185.6620  178.8870  144.8320 C   0  0  0  0  0  1  0  0  0  0  0  0
  190.6170  176.9890  145.1120 C   0  0  0  0  0  2  0  0  0  0  0  0
  191.4670  173.6640  141.2550 C   0  0  0  0  0  0  0  0  0  0  0  0
  195.0450  173.9210  142.2550 C   0  0  1  0  0  3  0  0  0  0  0  0
  192.2250  175.0690  145.2600 C   0  0  1  0  0  3  0  0  0  0  0  0
  186.4620  176.8670  142.6200 C   0  0  0  0  0  0  0  0  0  0  0  0
  189.1700  173.3050  139.1140 C   0  0  0  0  0  2  0  0  0  0  0  0
  192.7230  173.8660  139.1910 N   0  0  0  0  0  0  0  0  0  0  0  0
  192.7710  176.0060  143.1440 O   0  0  0  0  0  0  0  0  0  0  0  0
  191.7120  176.3330  145.9390 C   0  0  0  0  0  2  0  0  0  0  0  0
  191.1840  173.7490  137.6590 N   0  0  0  0  0  0  0  0  0  0  0  0
  194.0120  173.9910  139.8720 C   0  0  2  0  0  3  0  0  0  0  0  0
  193.1060  175.3680  144.1310 C   0  0  0  0  0  0  0  0  0  0  0  0
  194.5300  174.5410  145.7360 O   0  0  0  0  0  0  0  0  0  0  0  0
  194.7240  173.6690  143.6200 O   0  0  0  0  0  0  0  0  0  0  0  0
  192.4900  173.8730  137.8870 N   0  0  0  0  0  0  0  0  0  0  0  0
  187.3860  177.8410  143.3050 C   0  0  0  0  0  2  0  0  0  0  0  0
  187.0650  176.9780  145.6820 C   0  0  2  0  0  3  0  0  0  0  0  0
  187.3340  177.4540  147.1080 C   0  0  0  0  0  2  0  0  0  0  0  0
  188.1980  175.0460  142.4300 C   0  0  0  0  0  0  0  0  0  0  0  0
  189.0100  174.2760  141.4680 C   0  0  0  0  0  0  0  0  0  0  0  0
  188.6930  175.4930  146.8040 O   0  0  0  0  0  1  0  0  0  0  0  0
  195.1120  173.3020  139.0760 C   0  0  0  0  0  2  0  0  0  0  0  0
  195.1940  171.8330  139.4550 C   0  0  2  0  0  3  0  0  0  0  0  0
  196.5300  171.4340  139.5220 O   0  0  0  0  0  1  0  0  0  0  0  0
  194.4990  171.0400  138.4550 N   0  0  0  0  0  2  0  0  0  0  0  0
  192.2240  170.2490  138.2280 C   0  0  0  0  0  2  0  0  0  0  0  0
  193.1310  169.0480  138.3850 C   0  0  0  0  0  2  0  0  0  0  0  0
  193.4340  170.3280  139.1380 C   0  0  0  0  0  3  0  0  0  0  0  0
  2 30  1  6  0  0  0
  2 29  1  0  0  0  0
  3  1  1  1  0  0  0
  3 19  1  0  0  0  0
  5  8  1  0  0  0  0
  6 36  2  0  0  0  0
  7 21  2  0  0  0  0
  8 37  1  1  0  0  0
  8 34  1  0  0  0  0
  9 18  1  0  0  0  0
 11 22  1  0  0  0  0
 11  9  2  0  0  0  0
 12 35  1  0  0  0  0
 12 21  1  0  0  0  0
 13 16  1  6  0  0  0
 13 33  1  0  0  0  0
 17 25  1  0  0  0  0
 17  5  1  0  0  0  0
 18  1  1  0  0  0  0
 18 10  2  0  0  0  0
 19  4  1  1  0  0  0
 19 30  1  0  0  0  0
 20 25  1  1  0  0  0
 20 15  1  0  0  0  0
 21 32  1  0  0  0  0
 22  6  1  0  0  0  0
 23  9  1  0  0  0  0
 23 27  1  0  0  0  0
 24 28  2  0  0  0  0
 26 31  2  0  0  0  0
 26 11  1  0  0  0  0
 27 38  1  6  0  0  0
 27  3  1  0  0  0  0
 28  2  1  0  0  0  0
 28 20  1  0  0  0  0
 29 15  1  0  0  0  0
 31 23  1  0  0  0  0
 32 13  1  0  0  0  0
 33  8  1  0  0  0  0
 33 34  1  1  0  0  0
 35 14  2  0  0  0  0
 36 10  1  0  0  0  0
 36 35  1  0  0  0  0
 38 39  1  0  0  0  0
 39 40  1  6  0  0  0
 41 44  1  0  0  0  0
 41 39  1  0  0  0  0
 42 43  1  0  0  0  0
 42 44  1  0  0  0  0
 43 44  1  0  0  0  0
M  END
>  <MODEL>
4

>  <REMARK>
 VINA RESULT:      -8.3      2.359      3.891
  Name = 
  4 active torsions:
  status: ('A' for Active; 'I' for Inactive)
    1  A    between atoms: C_8  and  C_18
    2  A    between atoms: C_8  and  N_31
    3  A    between atoms: C_18  and  C_33
    4  A    between atoms: N_31  and  C_44
                            x       y       z     vdW  Elec       q    Type
                         _______ _______ _______ _____ _____    ______ ____

>  <TORSDO>
F 4

$$$$
=
 OpenBabel11062422393D

 44 50  0  0  1  0  0  0  0  0999 V2000
  191.3250  174.5960  142.3320 O   0  0  0  0  0  0  0  0  0  0  0  0
  188.8190  173.7920  140.3010 C   0  0  1  0  0  3  0  0  0  0  0  0
  191.8540  173.3550  141.8320 C   0  0  2  0  0  3  0  0  0  0  0  0
  190.0700  171.5440  141.2370 C   0  0  0  0  0  1  0  0  0  0  0  0
  185.3130  176.9570  143.7680 C   0  0  0  0  0  2  0  0  0  0  0  0
  191.7020  176.5750  146.3730 C   0  0  0  0  0  3  0  0  0  0  0  0
  187.7390  178.7410  148.5680 O   0  0  0  0  0  0  0  0  0  0  0  0
  185.7610  178.4070  143.9600 C   0  0  2  0  0  0  0  0  0  0  0  0
  192.3570  174.2520  144.4920 C   0  0  0  0  0  0  0  0  0  0  0  0
  190.8950  176.1680  144.0240 C   0  0  0  0  0  3  0  0  0  0  0  0
  192.9650  174.5560  145.6740 C   0  0  0  0  0  0  0  0  0  0  0  0
  189.2590  177.9160  147.0210 N   0  0  0  0  0  2  0  0  0  0  0  0
  185.5940  178.0760  146.4820 C   0  0  2  0  0  3  0  0  0  0  0  0
  188.7270  177.6970  144.7660 O   0  0  0  0  0  0  0  0  0  0  0  0
  187.9800  175.8540  139.8190 C   0  0  0  0  0  2  0  0  0  0  0  0
  184.9280  178.8120  147.6340 C   0  0  0  0  0  1  0  0  0  0  0  0
  186.4840  176.0850  143.3480 C   0  0  0  0  0  2  0  0  0  0  0  0
  191.5380  175.0700  143.6260 C   0  0  0  0  0  0  0  0  0  0  0  0
  190.8990  172.7560  140.7780 C   0  0  1  0  0  3  0  0  0  0  0  0
  187.9600  175.8140  141.3380 C   0  0  1  0  0  3  0  0  0  0  0  0
  187.9300  178.0470  147.5370 C   0  0  0  0  0  0  0  0  0  0  0  0
  193.0460  175.9150  146.2710 C   0  0  0  0  0  2  0  0  0  0  0  0
  192.7550  173.0350  144.1350 N   0  0  0  0  0  0  0  0  0  0  0  0
  188.6030  173.9560  142.6750 O   0  0  0  0  0  0  0  0  0  0  0  0
  186.5260  175.9590  141.8330 C   0  0  0  0  0  2  0  0  0  0  0  0
  193.7310  173.4980  146.0220 N   0  0  0  0  0  0  0  0  0  0  0  0
  192.2960  172.3420  142.9290 C   0  0  2  0  0  3  0  0  0  0  0  0
  188.4900  174.4700  141.5730 C   0  0  0  0  0  0  0  0  0  0  0  0
  188.1910  174.5520  139.2940 O   0  0  0  0  0  0  0  0  0  0  0  0
  190.2140  173.7720  140.0530 O   0  0  0  0  0  0  0  0  0  0  0  0
  193.5620  172.5740  145.0790 N   0  0  0  0  0  0  0  0  0  0  0  0
  186.7950  177.2490  146.9510 C   0  0  0  0  0  2  0  0  0  0  0  0
  185.9410  179.0300  145.3410 C   0  0  2  0  0  3  0  0  0  0  0  0
  184.6850  179.3070  144.5150 C   0  0  0  0  0  2  0  0  0  0  0  0
  189.5520  177.4710  145.6910 C   0  0  0  0  0  0  0  0  0  0  0  0
  190.7980  176.7410  145.3910 C   0  0  0  0  0  0  0  0  0  0  0  0
  186.4660  179.0210  142.9240 O   0  0  0  0  0  1  0  0  0  0  0  0
  193.3920  171.4410  142.3760 C   0  0  0  0  0  2  0  0  0  0  0  0
  194.2980  172.2260  141.4430 C   0  0  2  0  0  3  0  0  0  0  0  0
  194.6470  171.4370  140.3450 O   0  0  0  0  0  1  0  0  0  0  0  0
  195.4980  172.6200  142.1600 N   0  0  0  0  0  2  0  0  0  0  0  0
  196.1190  174.5780  143.4380 C   0  0  0  0  0  2  0  0  0  0  0  0
  197.0110  174.5050  142.2190 C   0  0  0  0  0  2  0  0  0  0  0  0
  195.5630  174.0700  142.1230 C   0  0  0  0  0  3  0  0  0  0  0  0
  1 18  1  0  0  0  0
  2 29  1  6  0  0  0
  2 28  1  0  0  0  0
  3  1  1  1  0  0  0
  3 27  1  0  0  0  0
  5  8  1  0  0  0  0
  8 37  1  6  0  0  0
  8 34  1  0  0  0  0
  8 33  1  0  0  0  0
  9 11  2  0  0  0  0
 10 36  1  0  0  0  0
 11 26  1  0  0  0  0
 11 22  1  0  0  0  0
 12 21  1  0  0  0  0
 13 32  1  0  0  0  0
 13 16  1  1  0  0  0
 14 35  2  0  0  0  0
 17  5  1  0  0  0  0
 18 10  2  0  0  0  0
 18  9  1  0  0  0  0
 19  4  1  1  0  0  0
 19  3  1  0  0  0  0
 20 15  1  6  0  0  0
 20 28  1  0  0  0  0
 20 25  1  0  0  0  0
 21  7  2  0  0  0  0
 22  6  1  0  0  0  0
 23  9  1  0  0  0  0
 23 31  1  0  0  0  0
 25 17  1  0  0  0  0
 27 38  1  6  0  0  0
 27 23  1  0  0  0  0
 28 24  2  0  0  0  0
 29 15  1  0  0  0  0
 30  2  1  0  0  0  0
 30 19  1  0  0  0  0
 31 26  2  0  0  0  0
 32 21  1  0  0  0  0
 33 34  1  6  0  0  0
 33 13  1  0  0  0  0
 35 12  1  0  0  0  0
 36 35  1  0  0  0  0
 36  6  2  0  0  0  0
 39 40  1  6  0  0  0
 39 41  1  0  0  0  0
 39 38  1  0  0  0  0
 43 42  1  0  0  0  0
 44 41  1  0  0  0  0
 44 43  1  0  0  0  0
 44 42  1  0  0  0  0
M  END
>  <MODEL>
5

>  <REMARK>
 VINA RESULT:      -8.1      2.487      5.381
  Name = 
  4 active torsions:
  status: ('A' for Active; 'I' for Inactive)
    1  A    between atoms: C_8  and  C_18
    2  A    between atoms: C_8  and  N_31
    3  A    between atoms: C_18  and  C_33
    4  A    between atoms: N_31  and  C_44
                            x       y       z     vdW  Elec       q    Type
                         _______ _______ _______ _____ _____    ______ ____

>  <TORSDO>
F 4

$$$$
=
 OpenBabel11062422393D

 44 50  0  0  1  0  0  0  0  0999 V2000
  191.0290  176.2030  144.0190 O   0  0  0  0  0  0  0  0  0  0  0  0
  193.2000  175.5780  146.4580 C   0  0  1  0  0  3  0  0  0  0  0  0
  190.3250  176.8500  145.0940 C   0  0  2  0  0  3  0  0  0  0  0  0
  190.6560  175.7740  147.4500 C   0  0  0  0  0  1  0  0  0  0  0  0
  194.8940  170.8670  143.4130 C   0  0  0  0  0  2  0  0  0  0  0  0
  189.5180  173.9830  140.3890 C   0  0  0  0  0  3  0  0  0  0  0  0
  191.6650  169.6910  138.9080 O   0  0  0  0  0  0  0  0  0  0  0  0
  195.3510  171.1720  141.9860 C   0  0  2  0  0  0  0  0  0  0  0  0
  188.9560  175.5570  142.9520 C   0  0  0  0  0  0  0  0  0  0  0  0
  191.1500  174.8750  142.0850 C   0  0  0  0  0  3  0  0  0  0  0  0
  188.0780  175.2670  141.9500 C   0  0  0  0  0  0  0  0  0  0  0  0
  191.2670  171.7970  139.8000 N   0  0  0  0  0  2  0  0  0  0  0  0
  193.7450  169.3830  141.1380 C   0  0  2  0  0  3  0  0  0  0  0  0
  192.7950  172.8480  141.2060 O   0  0  0  0  0  0  0  0  0  0  0  0
  195.1330  175.3860  145.2700 C   0  0  0  0  0  2  0  0  0  0  0  0
  193.8470  168.1760  140.2190 C   0  0  0  0  0  1  0  0  0  0  0  0
  193.9910  171.9720  143.9350 C   0  0  0  0  0  2  0  0  0  0  0  0
  190.4020  175.5520  142.9570 C   0  0  0  0  0  0  0  0  0  0  0  0
  191.1530  176.7760  146.3930 C   0  0  1  0  0  3  0  0  0  0  0  0
  194.2110  174.3790  144.6020 C   0  0  1  0  0  3  0  0  0  0  0  0
  191.7800  170.4640  139.8940 C   0  0  0  0  0  0  0  0  0  0  0  0
  188.4470  175.0240  140.5310 C   0  0  0  0  0  2  0  0  0  0  0  0
  188.2550  176.0140  143.9840 N   0  0  0  0  0  0  0  0  0  0  0  0
  191.9900  173.8800  145.2890 O   0  0  0  0  0  0  0  0  0  0  0  0
  194.8050  172.9820  144.7290 C   0  0  0  0  0  2  0  0  0  0  0  0
  186.8370  175.5540  142.4010 N   0  0  0  0  0  0  0  0  0  0  0  0
  188.8420  176.4080  145.2660 C   0  0  2  0  0  3  0  0  0  0  0  0
  193.0080  174.5440  145.4180 C   0  0  0  0  0  0  0  0  0  0  0  0
  194.5900  175.8050  146.5120 O   0  0  0  0  0  0  0  0  0  0  0  0
  192.5520  176.7930  146.1260 O   0  0  0  0  0  0  0  0  0  0  0  0
  186.9720  175.9810  143.6540 N   0  0  0  0  0  0  0  0  0  0  0  0
  192.3170  169.9350  141.1990 C   0  0  0  0  0  2  0  0  0  0  0  0
  194.7770  170.4490  140.7720 C   0  0  2  0  0  3  0  0  0  0  0  0
  196.1360  170.0530  141.3470 C   0  0  0  0  0  2  0  0  0  0  0  0
  191.6470  172.8550  140.6870 C   0  0  0  0  0  0  0  0  0  0  0  0
  190.7100  173.9480  141.0110 C   0  0  0  0  0  0  0  0  0  0  0  0
  195.9250  172.4180  141.7300 O   0  0  0  0  0  1  0  0  0  0  0  0
  188.0440  177.5400  145.8990 C   0  0  0  0  0  2  0  0  0  0  0  0
  187.1230  176.9970  146.9770 C   0  0  2  0  0  3  0  0  0  0  0  0
  187.4730  175.6810  147.2830 O   0  0  0  0  0  1  0  0  0  0  0  0
  185.7510  177.0380  146.5000 N   0  0  0  0  0  2  0  0  0  0  0  0
  184.5900  178.2960  144.7910 C   0  0  0  0  0  2  0  0  0  0  0  0
  184.0420  178.7100  146.1390 C   0  0  0  0  0  2  0  0  0  0  0  0
  185.5130  178.3760  145.9900 C   0  0  0  0  0  3  0  0  0  0  0  0
  2 28  1  6  0  0  0
  2 29  1  0  0  0  0
  3  1  1  6  0  0  0
  3 27  1  0  0  0  0
  3 19  1  0  0  0  0
  5 17  1  0  0  0  0
  6 22  1  0  0  0  0
  6 36  2  0  0  0  0
  7 21  2  0  0  0  0
  8 37  1  6  0  0  0
  8  5  1  0  0  0  0
  9 18  1  0  0  0  0
  9 23  1  0  0  0  0
 10 18  2  0  0  0  0
 11 26  1  0  0  0  0
 11  9  2  0  0  0  0
 12 21  1  0  0  0  0
 12 35  1  0  0  0  0
 13 16  1  6  0  0  0
 13 32  1  0  0  0  0
 15 29  1  0  0  0  0
 17 25  1  0  0  0  0
 18  1  1  0  0  0  0
 19  4  1  6  0  0  0
 20 25  1  1  0  0  0
 20 15  1  0  0  0  0
 20 28  1  0  0  0  0
 21 32  1  0  0  0  0
 22 11  1  0  0  0  0
 23 27  1  0  0  0  0
 24 28  2  0  0  0  0
 26 31  2  0  0  0  0
 27 38  1  6  0  0  0
 30 19  1  0  0  0  0
 30  2  1  0  0  0  0
 31 23  1  0  0  0  0
 33 13  1  0  0  0  0
 33 34  1  1  0  0  0
 33  8  1  0  0  0  0
 34  8  1  0  0  0  0
 35 36  1  0  0  0  0
 35 14  2  0  0  0  0
 36 10  1  0  0  0  0
 38 39  1  0  0  0  0
 39 40  1  6  0  0  0
 41 39  1  0  0  0  0
 42 44  1  0  0  0  0
 42 43  1  0  0  0  0
 44 43  1  0  0  0  0
 44 41  1  0  0  0  0
M  END
>  <MODEL>
6

>  <REMARK>
 VINA RESULT:      -8.1      2.674      7.958
  Name = 
  4 active torsions:
  status: ('A' for Active; 'I' for Inactive)
    1  A    between atoms: C_8  and  C_18
    2  A    between atoms: C_8  and  N_31
    3  A    between atoms: C_18  and  C_33
    4  A    between atoms: N_31  and  C_44
                            x       y       z     vdW  Elec       q    Type
                         _______ _______ _______ _____ _____    ______ ____

>  <TORSDO>
F 4

$$$$
=
 OpenBabel11062422393D

 44 50  0  0  1  0  0  0  0  0999 V2000
  192.0180  174.2030  143.9150 O   0  0  0  0  0  0  0  0  0  0  0  0
  192.8570  175.8210  146.6960 C   0  0  1  0  0  3  0  0  0  0  0  0
  193.4470  174.1580  143.7570 C   0  0  2  0  0  3  0  0  0  0  0  0
  194.7410  176.2000  144.7450 C   0  0  0  0  0  1  0  0  0  0  0  0
  187.6520  178.4970  146.4220 C   0  0  0  0  0  2  0  0  0  0  0  0
  188.6980  174.5180  140.8700 C   0  0  0  0  0  3  0  0  0  0  0  0
  184.7630  177.5400  141.6430 O   0  0  0  0  0  0  0  0  0  0  0  0
  186.4570  177.5440  146.3740 C   0  0  2  0  0  0  0  0  0  0  0  0
  191.6820  174.3460  141.5230 C   0  0  0  0  0  0  0  0  0  0  0  0
  189.8220  174.4670  143.1210 C   0  0  0  0  0  3  0  0  0  0  0  0
  191.0900  174.1640  140.3090 C   0  0  0  0  0  0  0  0  0  0  0  0
  186.5700  176.1120  141.9260 N   0  0  0  0  0  2  0  0  0  0  0  0
  185.6110  178.7830  144.3130 C   0  0  2  0  0  3  0  0  0  0  0  0
  187.5720  175.7880  144.0020 O   0  0  0  0  0  0  0  0  0  0  0  0
  191.0570  175.3670  148.0140 C   0  0  0  0  0  2  0  0  0  0  0  0
  184.2950  179.4160  143.8880 C   0  0  0  0  0  1  0  0  0  0  0  0
  188.9160  177.7970  145.9520 C   0  0  0  0  0  2  0  0  0  0  0  0
  191.1180  174.3030  142.8540 C   0  0  0  0  0  0  0  0  0  0  0  0
  194.1380  174.8030  144.9760 C   0  0  1  0  0  3  0  0  0  0  0  0
  190.4340  175.9760  146.7690 C   0  0  1  0  0  3  0  0  0  0  0  0
  185.8550  177.3160  142.2250 C   0  0  0  0  0  0  0  0  0  0  0  0
  189.6930  173.7020  140.0980 C   0  0  0  0  0  2  0  0  0  0  0  0
  192.9920  174.4500  141.3220 N   0  0  0  0  0  0  0  0  0  0  0  0
  191.6370  176.8150  144.8980 O   0  0  0  0  0  0  0  0  0  0  0  0
  189.6860  177.2480  147.1440 C   0  0  0  0  0  2  0  0  0  0  0  0
  192.0670  174.1650  139.3760 N   0  0  0  0  0  0  0  0  0  0  0  0
  193.9710  174.6820  142.3870 C   0  0  2  0  0  3  0  0  0  0  0  0
  191.6370  176.2540  145.9830 C   0  0  0  0  0  0  0  0  0  0  0  0
  192.4580  175.5970  148.0280 O   0  0  0  0  0  0  0  0  0  0  0  0
  193.3810  174.6140  146.1690 O   0  0  0  0  0  0  0  0  0  0  0  0
  193.2140  174.3690  140.0190 N   0  0  0  0  0  0  0  0  0  0  0  0
  186.4640  178.3740  143.1080 C   0  0  0  0  0  2  0  0  0  0  0  0
  185.3830  177.6350  145.2950 C   0  0  2  0  0  3  0  0  0  0  0  0
  185.1390  178.2060  146.6910 C   0  0  0  0  0  2  0  0  0  0  0  0
  187.6060  175.5790  142.7600 C   0  0  0  0  0  0  0  0  0  0  0  0
  188.7170  174.7980  142.1850 C   0  0  0  0  0  0  0  0  0  0  0  0
  186.5780  176.3040  147.0030 O   0  0  0  0  0  1  0  0  0  0  0  0
  195.2950  174.0050  142.0570 C   0  0  0  0  0  2  0  0  0  0  0  0
  196.3530  175.0460  141.7370 C   0  0  2  0  0  3  0  0  0  0  0  0
  195.7430  176.2620  141.4200 O   0  0  0  0  0  1  0  0  0  0  0  0
  197.1460  174.5920  140.6080 N   0  0  0  0  0  2  0  0  0  0  0  0
  197.9410  175.2920  138.4330 C   0  0  0  0  0  2  0  0  0  0  0  0
  196.5500  174.7220  138.2680 C   0  0  0  0  0  2  0  0  0  0  0  0
  196.9010  175.5130  139.5120 C   0  0  0  0  0  3  0  0  0  0  0  0
  2 28  1  6  0  0  0
  2 29  1  0  0  0  0
  3  1  1  1  0  0  0
  3 19  1  0  0  0  0
  6 36  2  0  0  0  0
  7 21  2  0  0  0  0
  8  5  1  0  0  0  0
  8 34  1  0  0  0  0
  8 37  1  1  0  0  0
  9 18  1  0  0  0  0
 11  9  2  0  0  0  0
 12 21  1  0  0  0  0
 12 35  1  0  0  0  0
 13 16  1  6  0  0  0
 13 33  1  0  0  0  0
 15 29  1  0  0  0  0
 17  5  1  0  0  0  0
 17 25  1  0  0  0  0
 18 10  2  0  0  0  0
 18  1  1  0  0  0  0
 19  4  1  6  0  0  0
 19 30  1  0  0  0  0
 20 25  1  1  0  0  0
 20 15  1  0  0  0  0
 21 32  1  0  0  0  0
 22 11  1  0  0  0  0
 22  6  1  0  0  0  0
 23  9  1  0  0  0  0
 23 27  1  0  0  0  0
 24 28  2  0  0  0  0
 26 31  2  0  0  0  0
 26 11  1  0  0  0  0
 27 38  1  6  0  0  0
 27  3  1  0  0  0  0
 28 20  1  0  0  0  0
 30  2  1  0  0  0  0
 31 23  1  0  0  0  0
 32 13  1  0  0  0  0
 33  8  1  0  0  0  0
 33 34  1  1  0  0  0
 35 14  2  0  0  0  0
 36 35  1  0  0  0  0
 36 10  1  0  0  0  0
 39 40  1  6  0  0  0
 39 38  1  0  0  0  0
 41 39  1  0  0  0  0
 42 44  1  0  0  0  0
 43 42  1  0  0  0  0
 43 44  1  0  0  0  0
 44 41  1  0  0  0  0
M  END
>  <MODEL>
7

>  <REMARK>
 VINA RESULT:      -8.1      2.139      3.052
  Name = 
  4 active torsions:
  status: ('A' for Active; 'I' for Inactive)
    1  A    between atoms: C_8  and  C_18
    2  A    between atoms: C_8  and  N_31
    3  A    between atoms: C_18  and  C_33
    4  A    between atoms: N_31  and  C_44
                            x       y       z     vdW  Elec       q    Type
                         _______ _______ _______ _____ _____    ______ ____

>  <TORSDO>
F 4

$$$$
=
 OpenBabel11062422393D

 44 50  0  0  1  0  0  0  0  0999 V2000
  191.6130  174.0050  143.9340 O   0  0  0  0  0  0  0  0  0  0  0  0
  192.5990  175.5890  146.6860 C   0  0  1  0  0  3  0  0  0  0  0  0
  193.0330  173.8490  143.7640 C   0  0  2  0  0  3  0  0  0  0  0  0
  194.4880  175.7980  144.7150 C   0  0  0  0  0  1  0  0  0  0  0  0
  187.6110  178.6500  146.4190 C   0  0  0  0  0  2  0  0  0  0  0  0
  188.2990  174.5330  140.9120 C   0  0  0  0  0  3  0  0  0  0  0  0
  184.6130  177.8560  141.6770 O   0  0  0  0  0  0  0  0  0  0  0  0
  186.3460  177.7910  146.3940 C   0  0  2  0  0  0  0  0  0  0  0  0
  191.2670  174.1430  141.5440 C   0  0  0  0  0  0  0  0  0  0  0  0
  189.4370  174.4250  143.1550 C   0  0  0  0  0  3  0  0  0  0  0  0
  190.6520  173.9910  140.3370 C   0  0  0  0  0  0  0  0  0  0  0  0
  186.3090  176.2980  141.9650 N   0  0  0  0  0  2  0  0  0  0  0  0
  185.5770  179.0640  144.3230 C   0  0  2  0  0  3  0  0  0  0  0  0
  187.3020  175.9250  144.0360 O   0  0  0  0  0  0  0  0  0  0  0  0
  190.7820  175.2910  148.0250 C   0  0  0  0  0  2  0  0  0  0  0  0
  184.3100  179.7900  143.9010 C   0  0  0  0  0  1  0  0  0  0  0  0
  188.8130  177.8500  145.9480 C   0  0  0  0  0  2  0  0  0  0  0  0
  190.7140  174.1590  142.8790 C   0  0  0  0  0  0  0  0  0  0  0  0
  193.7820  174.4550  144.9700 C   0  0  1  0  0  3  0  0  0  0  0  0
  190.1960  175.9290  146.7770 C   0  0  1  0  0  3  0  0  0  0  0  0
  185.6900  177.5560  142.2530 C   0  0  0  0  0  0  0  0  0  0  0  0
  189.2220  173.6330  140.1440 C   0  0  0  0  0  2  0  0  0  0  0  0
  192.5800  174.1440  141.3300 N   0  0  0  0  0  0  0  0  0  0  0  0
  191.4410  176.6510  144.8850 O   0  0  0  0  0  0  0  0  0  0  0  0
  189.5490  177.2600  147.1410 C   0  0  0  0  0  2  0  0  0  0  0  0
  191.6170  173.9050  139.3950 N   0  0  0  0  0  0  0  0  0  0  0  0
  193.5830  174.3140  142.3830 C   0  0  2  0  0  3  0  0  0  0  0  0
  191.4080  176.1050  145.9770 C   0  0  0  0  0  0  0  0  0  0  0  0
  192.1960  175.4130  148.0240 O   0  0  0  0  0  0  0  0  0  0  0  0
  193.0250  174.3390  146.1710 O   0  0  0  0  0  0  0  0  0  0  0  0
  192.7830  174.0290  140.0270 N   0  0  0  0  0  0  0  0  0  0  0  0
  186.3850  178.5760  143.1170 C   0  0  0  0  0  2  0  0  0  0  0  0
  185.2710  177.9500  145.3230 C   0  0  2  0  0  3  0  0  0  0  0  0
  185.0850  178.5550  146.7120 C   0  0  0  0  0  2  0  0  0  0  0  0
  187.3080  175.6980  142.7970 C   0  0  0  0  0  0  0  0  0  0  0  0
  188.3520  174.8270  142.2240 C   0  0  0  0  0  0  0  0  0  0  0  0
  186.3770  176.5530  147.0380 O   0  0  0  0  0  1  0  0  0  0  0  0
  194.8480  173.5340  142.0520 C   0  0  0  0  0  2  0  0  0  0  0  0
  196.0490  174.4630  142.0340 C   0  0  2  0  0  3  0  0  0  0  0  0
  196.3110  174.8760  140.7260 O   0  0  0  0  0  1  0  0  0  0  0  0
  197.2060  173.7610  142.5630 N   0  0  0  0  0  2  0  0  0  0  0  0
  197.9010  172.1210  144.2000 C   0  0  0  0  0  2  0  0  0  0  0  0
  197.2070  173.2510  144.9260 C   0  0  0  0  0  2  0  0  0  0  0  0
  196.7210  172.8210  143.5570 C   0  0  0  0  0  3  0  0  0  0  0  0
  2 28  1  6  0  0  0
  2 29  1  0  0  0  0
  3  1  1  1  0  0  0
  3 19  1  0  0  0  0
  6 36  2  0  0  0  0
  7 21  2  0  0  0  0
  8  5  1  0  0  0  0
  8 34  1  0  0  0  0
  8 37  1  1  0  0  0
  9 18  1  0  0  0  0
 11  9  2  0  0  0  0
 12 21  1  0  0  0  0
 12 35  1  0  0  0  0
 13 16  1  6  0  0  0
 13 33  1  0  0  0  0
 17  5  1  0  0  0  0
 17 25  1  0  0  0  0
 18 10  2  0  0  0  0
 18  1  1  0  0  0  0
 19  4  1  6  0  0  0
 19 30  1  0  0  0  0
 20 25  1  1  0  0  0
 20 15  1  0  0  0  0
 21 32  1  0  0  0  0
 22 11  1  0  0  0  0
 22  6  1  0  0  0  0
 23  9  1  0  0  0  0
 23 27  1  0  0  0  0
 24 28  2  0  0  0  0
 26 31  2  0  0  0  0
 26 11  1  0  0  0  0
 27 38  1  6  0  0  0
 27  3  1  0  0  0  0
 28 20  1  0  0  0  0
 29 15  1  0  0  0  0
 30  2  1  0  0  0  0
 31 23  1  0  0  0  0
 32 13  1  0  0  0  0
 33  8  1  0  0  0  0
 33 34  1  1  0  0  0
 35 14  2  0  0  0  0
 36 35  1  0  0  0  0
 36 10  1  0  0  0  0
 39 40  1  6  0  0  0
 39 38  1  0  0  0  0
 39 41  1  0  0  0  0
 41 44  1  0  0  0  0
 42 43  1  0  0  0  0
 44 42  1  0  0  0  0
 44 43  1  0  0  0  0
M  END
>  <MODEL>
8

>  <REMARK>
 VINA RESULT:      -7.9      1.844      2.427
  Name = 
  4 active torsions:
  status: ('A' for Active; 'I' for Inactive)
    1  A    between atoms: C_8  and  C_18
    2  A    between atoms: C_8  and  N_31
    3  A    between atoms: C_18  and  C_33
    4  A    between atoms: N_31  and  C_44
                            x       y       z     vdW  Elec       q    Type
                         _______ _______ _______ _____ _____    ______ ____

>  <TORSDO>
F 4

$$$$
=
 OpenBabel11062422393D

 44 50  0  0  1  0  0  0  0  0999 V2000
  192.4120  172.5370  141.9480 O   0  0  0  0  0  0  0  0  0  0  0  0
  189.8880  171.7530  139.9310 C   0  0  1  0  0  3  0  0  0  0  0  0
  192.7990  171.1840  141.6480 C   0  0  2  0  0  3  0  0  0  0  0  0
  190.8250  169.5290  141.2240 C   0  0  0  0  0  1  0  0  0  0  0  0
  186.6960  175.7680  142.7640 C   0  0  0  0  0  2  0  0  0  0  0  0
  192.9090  175.0100  145.6930 C   0  0  0  0  0  3  0  0  0  0  0  0
  189.1780  177.9160  147.3820 O   0  0  0  0  0  0  0  0  0  0  0  0
  187.3130  177.1670  142.7760 C   0  0  2  0  0  0  0  0  0  0  0  0
  193.3300  172.3840  144.1810 C   0  0  0  0  0  0  0  0  0  0  0  0
  192.1280  174.3720  143.3870 C   0  0  0  0  0  3  0  0  0  0  0  0
  193.9350  172.7780  145.3370 C   0  0  0  0  0  0  0  0  0  0  0  0
  190.6310  176.7070  146.0360 N   0  0  0  0  0  2  0  0  0  0  0  0
  187.0310  177.2190  145.3090 C   0  0  2  0  0  3  0  0  0  0  0  0
  190.1440  176.2350  143.8090 O   0  0  0  0  0  0  0  0  0  0  0  0
  189.3240  173.8100  139.1330 C   0  0  0  0  0  2  0  0  0  0  0  0
  186.4260  178.1840  146.3170 C   0  0  0  0  0  1  0  0  0  0  0  0
  187.7630  174.7130  142.5230 C   0  0  0  0  0  2  0  0  0  0  0  0
  192.6430  173.1610  143.1730 C   0  0  0  0  0  0  0  0  0  0  0  0
  191.8100  170.5580  140.6430 C   0  0  1  0  0  3  0  0  0  0  0  0
  189.2530  173.9880  140.6400 C   0  0  1  0  0  3  0  0  0  0  0  0
  189.3130  177.0650  146.4660 C   0  0  0  0  0  0  0  0  0  0  0  0
  194.1640  174.1890  145.7460 C   0  0  0  0  0  2  0  0  0  0  0  0
  193.5850  171.0900  144.0130 N   0  0  0  0  0  0  0  0  0  0  0  0
  189.6240  172.2760  142.2480 O   0  0  0  0  0  0  0  0  0  0  0  0
  187.8340  174.3700  141.0430 C   0  0  0  0  0  2  0  0  0  0  0  0
  194.5540  171.6980  145.8620 N   0  0  0  0  0  0  0  0  0  0  0  0
  193.0810  170.2920  142.8930 C   0  0  2  0  0  3  0  0  0  0  0  0
  189.6070  172.6390  141.0820 C   0  0  0  0  0  0  0  0  0  0  0  0
  189.3880  172.4310  138.8020 O   0  0  0  0  0  0  0  0  0  0  0  0
  191.2770  171.5350  139.7540 O   0  0  0  0  0  0  0  0  0  0  0  0
  194.3010  170.6760  145.0470 N   0  0  0  0  0  0  0  0  0  0  0  0
  188.1060  176.3310  145.9430 C   0  0  0  0  0  2  0  0  0  0  0  0
  187.5260  177.9540  144.0650 C   0  0  2  0  0  3  0  0  0  0  0  0
  186.3400  178.2570  143.1520 C   0  0  0  0  0  2  0  0  0  0  0  0
  190.9060  176.0470  144.7950 C   0  0  0  0  0  0  0  0  0  0  0  0
  192.0620  175.1410  144.6560 C   0  0  0  0  0  0  0  0  0  0  0  0
  188.1180  177.5410  141.7000 O   0  0  0  0  0  1  0  0  0  0  0  0
  194.0740  169.1990  142.5210 C   0  0  0  0  0  2  0  0  0  0  0  0
  195.0960  169.7310  141.5320 C   0  0  2  0  0  3  0  0  0  0  0  0
  195.4560  168.7260  140.6330 O   0  0  0  0  0  1  0  0  0  0  0  0
  196.2730  170.1820  142.2540 N   0  0  0  0  0  2  0  0  0  0  0  0
  196.9770  172.3170  143.1470 C   0  0  0  0  0  2  0  0  0  0  0  0
  197.9410  171.9200  142.0520 C   0  0  0  0  0  2  0  0  0  0  0  0
  196.4700  171.5820  141.9230 C   0  0  0  0  0  3  0  0  0  0  0  0
  1 18  1  0  0  0  0
  2 29  1  6  0  0  0
  2 28  1  0  0  0  0
  3  1  1  1  0  0  0
  3 27  1  0  0  0  0
  5  8  1  0  0  0  0
  6 22  1  0  0  0  0
  8 37  1  6  0  0  0
  8 34  1  0  0  0  0
  8 33  1  0  0  0  0
  9 11  2  0  0  0  0
 10 36  1  0  0  0  0
 11 22  1  0  0  0  0
 11 26  1  0  0  0  0
 12 21  1  0  0  0  0
 13 32  1  0  0  0  0
 13 16  1  1  0  0  0
 14 35  2  0  0  0  0
 17  5  1  0  0  0  0
 18 10  2  0  0  0  0
 18  9  1  0  0  0  0
 19  4  1  1  0  0  0
 19  3  1  0  0  0  0
 20 15  1  6  0  0  0
 20 25  1  0  0  0  0
 20 28  1  0  0  0  0
 21  7  2  0  0  0  0
 23  9  1  0  0  0  0
 23 31  1  0  0  0  0
 25 17  1  0  0  0  0
 27 38  1  6  0  0  0
 27 23  1  0  0  0  0
 28 24  2  0  0  0  0
 29 15  1  0  0  0  0
 30  2  1  0  0  0  0
 30 19  1  0  0  0  0
 31 26  2  0  0  0  0
 32 21  1  0  0  0  0
 33 34  1  6  0  0  0
 33 13  1  0  0  0  0
 35 12  1  0  0  0  0
 36 35  1  0  0  0  0
 36  6  2  0  0  0  0
 39 40  1  6  0  0  0
 39 41  1  0  0  0  0
 39 38  1  0  0  0  0
 43 42  1  0  0  0  0
 44 43  1  0  0  0  0
 44 41  1  0  0  0  0
 44 42  1  0  0  0  0
M  END
>  <MODEL>
9

>  <REMARK>
 VINA RESULT:      -7.9      2.693      5.505
  Name = 
  4 active torsions:
  status: ('A' for Active; 'I' for Inactive)
    1  A    between atoms: C_8  and  C_18
    2  A    between atoms: C_8  and  N_31
    3  A    between atoms: C_18  and  C_33
    4  A    between atoms: N_31  and  C_44
                            x       y       z     vdW  Elec       q    Type
                         _______ _______ _______ _____ _____    ______ ____

>  <TORSDO>
F 4

$$$$
