=
 OpenBabel11062419293D

 40 43  0  0  1  0  0  0  0  0999 V2000
  190.3540  175.7490  145.7570 C   0  0  2  0  0  3  0  0  0  0  0  0
  192.3790  174.3980  142.9540 O   0  0  0  0  0  0  0  0  0  0  0  0
  193.0560  174.9230  145.1330 N   0  0  0  0  0  0  0  0  0  0  0  0
  192.7390  175.6200  146.3780 C   0  0  0  0  0  2  0  0  0  0  0  0
  190.5890  175.0150  144.4250 C   0  0  2  0  0  3  0  0  0  0  0  0
  192.0520  174.7910  144.1080 C   0  0  0  0  0  0  0  0  0  0  0  0
  191.3290  175.2830  146.8260 C   0  0  0  0  0  2  0  0  0  0  0  0
  188.9970  175.0100  142.4450 N   0  0  0  0  0  0  0  0  0  0  0  0
  190.1120  176.9520  143.0980 O   0  0  0  0  0  0  0  0  0  0  0  0
  188.7410  173.6770  142.6680 O   0  0  0  0  0  0  0  0  0  0  0  0
  189.8970  175.7240  143.2950 C   0  0  0  0  0  0  0  0  0  0  0  0
  188.4320  175.5920  141.4960 O   0  0  0  0  0  0  0  0  0  0  0  0
  195.2600  175.9310  144.7620 C   0  0  1  0  0  3  0  0  0  0  0  0
  194.4600  174.6400  144.8290 C   0  0  1  0  0  3  0  0  0  0  0  0
  196.4850  174.2460  146.0220 O   0  0  0  0  0  1  0  0  0  0  0  0
  195.3360  175.0420  146.0040 C   0  0  1  0  0  3  0  0  0  0  0  0
  196.4220  175.7470  143.7960 C   0  0  0  0  0  2  0  0  0  0  0  0
  195.0530  176.2580  141.7440 N   0  0  0  0  0  2  0  0  0  0  0  0
  195.6390  173.8260  140.5640 C   0  0  0  0  0  3  0  0  0  0  0  0
  194.5440  175.9210  140.5040 O   0  0  0  0  0  0  0  0  0  0  0  0
  195.9070  175.3490  142.4490 C   0  0  0  0  0  0  0  0  0  0  0  0
  194.8550  174.6900  139.9170 C   0  0  0  0  0  0  0  0  0  0  0  0
  196.1970  174.1590  141.8930 C   0  0  0  0  0  0  0  0  0  0  0  0
  194.1590  174.2590  138.3270 P   0  0  2  0  0  0  0  0  0  0  0  0
  192.6540  174.3320  138.4190 O   0  0  0  0  0  1  0  0  0  0  0  0
  194.6100  172.6820  137.9070 O   0  0  0  0  0  0  0  0  0  0  0  0
  194.6910  175.3510  137.1430 O   0  0  0  0  0  0  0  0  0  0  0  0
  196.0830  175.2400  137.1300 C   0  0  0  0  0  1  0  0  0  0  0  0
  197.0580  173.1860  142.5870 C   0  0  0  0  0  3  0  0  0  0  0  0
  196.5980  172.0490  142.9940 N   0  0  0  0  0  2  0  0  0  0  0  0
  188.9390  175.5050  146.2560 C   0  0  0  0  0  2  0  0  0  0  0  0
  188.3530  176.7890  146.8160 C   0  0  0  0  0  2  0  0  0  0  0  0
  187.8090  177.6510  145.6890 C   0  0  0  0  0  2  0  0  0  0  0  0
  185.3160  179.0010  143.2090 C   0  0  0  0  0  2  0  0  0  0  0  0
  184.0870  178.4930  146.0360 C   0  0  0  0  0  1  0  0  0  0  0  0
  186.1910  177.7720  143.0070 C   0  0  0  0  0  2  0  0  0  0  0  0
  186.3090  177.4390  145.5140 C   0  0  1  0  0  3  0  0  0  0  0  0
  185.5490  178.7570  145.7170 C   0  0  1  0  0  3  0  0  0  0  0  0
  185.6870  179.6990  144.5150 C   0  0  0  0  0  2  0  0  0  0  0  0
  185.9880  176.7920  144.1580 C   0  0  0  0  0  2  0  0  0  0  0  0
  1 31  1  1  0  0  0
  1  7  1  0  0  0  0
  2  6  2  0  0  0  0
  3  4  1  0  0  0  0
  4  7  1  0  0  0  0
  5 11  1  6  0  0  0
  5  1  1  0  0  0  0
  6  5  1  0  0  0  0
  6  3  1  0  0  0  0
  8 10  2  0  0  0  0
  8 11  1  0  0  0  0
  9 11  2  0  0  0  0
 12  8  2  0  0  0  0
 13 17  1  6  0  0  0
 13 14  1  0  0  0  0
 13 16  1  0  0  0  0
 14  3  1  1  0  0  0
 14 16  1  0  0  0  0
 16 15  1  6  0  0  0
 18 21  1  0  0  0  0
 19 23  1  0  0  0  0
 20 18  1  0  0  0  0
 21 17  1  0  0  0  0
 22 20  1  0  0  0  0
 22 19  2  0  0  0  0
 23 21  2  0  0  0  0
 23 29  1  0  0  0  0
 24 26  2  6  0  0  0
 24 25  1  0  0  0  0
 24 22  1  0  0  0  0
 27 24  1  0  0  0  0
 28 27  1  0  0  0  0
 29 30  2  0  0  0  0
 31 32  1  0  0  0  0
 33 32  1  0  0  0  0
 34 39  1  0  0  0  0
 36 34  1  0  0  0  0
 36 40  1  0  0  0  0
 37 33  1  6  0  0  0
 37 38  1  0  0  0  0
 38 35  1  6  0  0  0
 39 38  1  0  0  0  0
 40 37  1  0  0  0  0
M  END
>  <MODEL>
1

>  <REMARK>
 VINA RESULT:      -7.0      0.000      0.000
  Name = 
  11 active torsions:
  status: ('A' for Active; 'I' for Inactive)
    1  A    between atoms: C_2  and  C_34
    2  A    between atoms: P_3  and  O_12
    3  A    between atoms: P_3  and  C_35
    4  A    between atoms: C_6  and  C_19
    5  A    between atoms: C_8  and  N_18
    6  A    between atoms: C_9  and  C_39
    7  A    between atoms: C_10  and  C_29
    8  A    between atoms: C_10  and  C_34
    9  A    between atoms: C_19  and  C_30
   10  A    between atoms: C_21  and  C_27
   11  A    between atoms: C_29  and  C_32
                            x       y       z     vdW  Elec       q    Type
                         _______ _______ _______ _____ _____    ______ ____

>  <TORSDO>
F 11

$$$$
=
 OpenBabel11062419293D

 40 43  0  0  1  0  0  0  0  0999 V2000
  188.2520  175.5610  142.0200 C   0  0  2  0  0  3  0  0  0  0  0  0
  191.7810  174.6840  142.7700 O   0  0  0  0  0  0  0  0  0  0  0  0
  190.3070  173.6720  141.2570 N   0  0  0  0  0  0  0  0  0  0  0  0
  188.9200  173.5090  140.8220 C   0  0  0  0  0  2  0  0  0  0  0  0
  189.6840  175.8200  142.5210 C   0  0  2  0  0  3  0  0  0  0  0  0
  190.6420  174.6860  142.2240 C   0  0  0  0  0  0  0  0  0  0  0  0
  188.2540  174.8640  140.6700 C   0  0  0  0  0  2  0  0  0  0  0  0
  190.2690  177.3800  144.4390 N   0  0  0  0  0  0  0  0  0  0  0  0
  189.1700  175.3570  144.8140 O   0  0  0  0  0  0  0  0  0  0  0  0
  190.8130  178.2660  143.5380 O   0  0  0  0  0  0  0  0  0  0  0  0
  189.6860  176.1560  143.9850 C   0  0  0  0  0  0  0  0  0  0  0  0
  190.2860  177.6560  145.6560 O   0  0  0  0  0  0  0  0  0  0  0  0
  191.1090  171.4420  141.8820 C   0  0  1  0  0  3  0  0  0  0  0  0
  191.2680  172.6180  140.9320 C   0  0  1  0  0  3  0  0  0  0  0  0
  191.3520  170.6480  139.5940 O   0  0  0  0  0  1  0  0  0  0  0  0
  190.5350  171.3710  140.4670 C   0  0  1  0  0  3  0  0  0  0  0  0
  192.4540  170.7450  142.0400 C   0  0  0  0  0  2  0  0  0  0  0  0
  193.0860  171.8580  144.2100 N   0  0  0  0  0  2  0  0  0  0  0  0
  195.3440  173.0300  143.1230 C   0  0  0  0  0  3  0  0  0  0  0  0
  193.9150  172.6620  144.9700 O   0  0  0  0  0  0  0  0  0  0  0  0
  193.3850  171.6070  142.8310 C   0  0  0  0  0  0  0  0  0  0  0  0
  195.0560  173.2420  144.4090 C   0  0  0  0  0  0  0  0  0  0  0  0
  194.4760  172.1750  142.2840 C   0  0  0  0  0  0  0  0  0  0  0  0
  196.0950  174.3060  145.4010 P   0  0  2  0  0  0  0  0  0  0  0  0
  197.0660  175.0230  144.4920 O   0  0  0  0  0  0  0  0  0  0  0  0
  196.9680  173.3820  146.5200 O   0  0  0  0  0  1  0  0  0  0  0  0
  195.1490  175.4570  146.2110 O   0  0  0  0  0  0  0  0  0  0  0  0
  194.3000  175.9930  145.2400 C   0  0  0  0  0  1  0  0  0  0  0  0
  194.8150  171.9590  140.8670 C   0  0  0  0  0  3  0  0  0  0  0  0
  195.7580  172.6270  140.2910 N   0  0  0  0  0  2  0  0  0  0  0  0
  187.4900  176.8700  141.8860 C   0  0  0  0  0  2  0  0  0  0  0  0
  186.0640  176.6980  142.3770 C   0  0  0  0  0  2  0  0  0  0  0  0
  186.0340  176.6630  143.8960 C   0  0  0  0  0  2  0  0  0  0  0  0
  184.5730  178.5340  146.8210 C   0  0  0  0  0  2  0  0  0  0  0  0
  185.4490  180.4050  144.4770 C   0  0  0  0  0  1  0  0  0  0  0  0
  185.7210  177.5360  146.8900 C   0  0  0  0  0  2  0  0  0  0  0  0
  186.3120  178.0430  144.4810 C   0  0  1  0  0  3  0  0  0  0  0  0
  185.0690  178.9370  144.3730 C   0  0  1  0  0  3  0  0  0  0  0  0
  183.9980  178.5720  145.4070 C   0  0  0  0  0  2  0  0  0  0  0  0
  186.8290  177.9470  145.9250 C   0  0  0  0  0  2  0  0  0  0  0  0
  1 31  1  6  0  0  0
  1  5  1  0  0  0  0
  3  6  1  0  0  0  0
  4  3  1  0  0  0  0
  5 11  1  1  0  0  0
  6  5  1  0  0  0  0
  6  2  2  0  0  0  0
  7  4  1  0  0  0  0
  7  1  1  0  0  0  0
  8 12  2  0  0  0  0
 10  8  2  0  0  0  0
 11  8  1  0  0  0  0
 11  9  2  0  0  0  0
 13 17  1  6  0  0  0
 14  3  1  1  0  0  0
 14 13  1  0  0  0  0
 16 15  1  6  0  0  0
 16 14  1  0  0  0  0
 16 13  1  0  0  0  0
 17 21  1  0  0  0  0
 18 20  1  0  0  0  0
 19 22  2  0  0  0  0
 21 18  1  0  0  0  0
 22 20  1  0  0  0  0
 22 24  1  0  0  0  0
 23 21  2  0  0  0  0
 23 19  1  0  0  0  0
 24 25  2  6  0  0  0
 24 27  1  0  0  0  0
 24 26  1  0  0  0  0
 28 27  1  0  0  0  0
 29 23  1  0  0  0  0
 30 29  2  0  0  0  0
 31 32  1  0  0  0  0
 32 33  1  0  0  0  0
 34 36  1  0  0  0  0
 37 33  1  1  0  0  0
 37 40  1  0  0  0  0
 38 35  1  1  0  0  0
 38 37  1  0  0  0  0
 38 39  1  0  0  0  0
 39 34  1  0  0  0  0
 40 36  1  0  0  0  0
M  END
>  <MODEL>
2

>  <REMARK>
 VINA RESULT:      -6.9      2.805      5.175
  Name = 
  11 active torsions:
  status: ('A' for Active; 'I' for Inactive)
    1  A    between atoms: C_2  and  C_34
    2  A    between atoms: P_3  and  O_12
    3  A    between atoms: P_3  and  C_35
    4  A    between atoms: C_6  and  C_19
    5  A    between atoms: C_8  and  N_18
    6  A    between atoms: C_9  and  C_39
    7  A    between atoms: C_10  and  C_29
    8  A    between atoms: C_10  and  C_34
    9  A    between atoms: C_19  and  C_30
   10  A    between atoms: C_21  and  C_27
   11  A    between atoms: C_29  and  C_32
                            x       y       z     vdW  Elec       q    Type
                         _______ _______ _______ _____ _____    ______ ____

>  <TORSDO>
F 11

$$$$
=
 OpenBabel11062419293D

 40 43  0  0  1  0  0  0  0  0999 V2000
  190.9180  177.1020  146.1100 C   0  0  2  0  0  3  0  0  0  0  0  0
  192.1820  175.1580  143.2100 O   0  0  0  0  0  0  0  0  0  0  0  0
  193.1020  175.3610  145.3540 N   0  0  0  0  0  0  0  0  0  0  0  0
  193.1180  176.1030  146.6140 C   0  0  0  0  0  2  0  0  0  0  0  0
  190.8090  176.3580  144.7670 C   0  0  2  0  0  3  0  0  0  0  0  0
  192.0730  175.6220  144.3800 C   0  0  0  0  0  0  0  0  0  0  0  0
  191.7040  176.2950  147.1300 C   0  0  0  0  0  2  0  0  0  0  0  0
  189.2180  176.9840  142.8870 N   0  0  0  0  0  0  0  0  0  0  0  0
  191.0260  178.3460  143.4490 O   0  0  0  0  0  0  0  0  0  0  0  0
  188.4880  175.8460  143.1410 O   0  0  0  0  0  0  0  0  0  0  0  0
  190.3720  177.2910  143.6730 C   0  0  0  0  0  0  0  0  0  0  0  0
  188.8620  177.7480  141.9680 O   0  0  0  0  0  0  0  0  0  0  0  0
  195.3970  175.5190  144.5070 C   0  0  1  0  0  3  0  0  0  0  0  0
  194.2900  174.5920  144.9820 C   0  0  1  0  0  3  0  0  0  0  0  0
  196.3010  173.8310  146.0100 O   0  0  0  0  0  1  0  0  0  0  0  0
  195.4400  174.9280  145.9170 C   0  0  1  0  0  3  0  0  0  0  0  0
  196.2670  174.7810  143.4990 C   0  0  0  0  0  2  0  0  0  0  0  0
  195.0330  175.6830  141.4960 N   0  0  0  0  0  2  0  0  0  0  0  0
  194.4300  173.1570  140.5430 C   0  0  0  0  0  3  0  0  0  0  0  0
  194.3070  175.5090  140.3330 O   0  0  0  0  0  0  0  0  0  0  0  0
  195.4990  174.5490  142.2370 C   0  0  0  0  0  0  0  0  0  0  0  0
  194.0150  174.2260  139.8600 C   0  0  0  0  0  0  0  0  0  0  0  0
  195.2080  173.3130  141.7920 C   0  0  0  0  0  0  0  0  0  0  0  0
  193.0460  174.0240  138.3720 P   0  0  2  0  0  0  0  0  0  0  0  0
  193.5480  172.8110  137.6250 O   0  0  0  0  0  1  0  0  0  0  0  0
  193.2130  175.3880  137.3830 O   0  0  0  0  0  0  0  0  0  0  0  0
  191.4130  173.7890  138.7660 O   0  0  0  0  0  0  0  0  0  0  0  0
  190.7570  173.6010  137.5480 C   0  0  0  0  0  1  0  0  0  0  0  0
  195.6520  172.1160  142.5270 C   0  0  0  0  0  3  0  0  0  0  0  0
  194.8810  171.0910  142.6750 N   0  0  0  0  0  2  0  0  0  0  0  0
  189.5360  177.3820  146.6780 C   0  0  0  0  0  2  0  0  0  0  0  0
  188.7000  176.1140  146.6680 C   0  0  0  0  0  2  0  0  0  0  0  0
  187.2210  176.4630  146.6580 C   0  0  0  0  0  2  0  0  0  0  0  0
  184.1100  178.5190  146.1270 C   0  0  0  0  0  2  0  0  0  0  0  0
  186.3760  179.1620  144.0740 C   0  0  0  0  0  1  0  0  0  0  0  0
  184.8790  178.3960  147.4350 C   0  0  0  0  0  2  0  0  0  0  0  0
  186.9970  177.8810  146.1460 C   0  0  1  0  0  3  0  0  0  0  0  0
  186.1890  177.8640  144.8410 C   0  0  1  0  0  3  0  0  0  0  0  0
  184.7030  177.5770  145.0810 C   0  0  0  0  0  2  0  0  0  0  0  0
  186.3430  178.7680  147.2170 C   0  0  0  0  0  2  0  0  0  0  0  0
  1 31  1  1  0  0  0
  1  7  1  0  0  0  0
  2  6  2  0  0  0  0
  3  4  1  0  0  0  0
  4  7  1  0  0  0  0
  5 11  1  6  0  0  0
  5  1  1  0  0  0  0
  6  5  1  0  0  0  0
  6  3  1  0  0  0  0
  8 10  2  0  0  0  0
  8 11  1  0  0  0  0
  9 11  2  0  0  0  0
 12  8  2  0  0  0  0
 13 17  1  6  0  0  0
 13 14  1  0  0  0  0
 13 16  1  0  0  0  0
 14  3  1  1  0  0  0
 14 16  1  0  0  0  0
 16 15  1  6  0  0  0
 18 21  1  0  0  0  0
 19 23  1  0  0  0  0
 20 18  1  0  0  0  0
 21 17  1  0  0  0  0
 22 20  1  0  0  0  0
 22 19  2  0  0  0  0
 23 21  2  0  0  0  0
 23 29  1  0  0  0  0
 24 26  2  6  0  0  0
 24 27  1  0  0  0  0
 24 22  1  0  0  0  0
 25 24  1  0  0  0  0
 28 27  1  0  0  0  0
 29 30  2  0  0  0  0
 32 31  1  0  0  0  0
 33 32  1  0  0  0  0
 34 36  1  0  0  0  0
 37 33  1  1  0  0  0
 37 40  1  0  0  0  0
 38 35  1  1  0  0  0
 38 39  1  0  0  0  0
 38 37  1  0  0  0  0
 39 34  1  0  0  0  0
 40 36  1  0  0  0  0
M  END
>  <MODEL>
3

>  <REMARK>
 VINA RESULT:      -6.8      1.433      2.091
  Name = 
  11 active torsions:
  status: ('A' for Active; 'I' for Inactive)
    1  A    between atoms: C_2  and  C_34
    2  A    between atoms: P_3  and  O_12
    3  A    between atoms: P_3  and  C_35
    4  A    between atoms: C_6  and  C_19
    5  A    between atoms: C_8  and  N_18
    6  A    between atoms: C_9  and  C_39
    7  A    between atoms: C_10  and  C_29
    8  A    between atoms: C_10  and  C_34
    9  A    between atoms: C_19  and  C_30
   10  A    between atoms: C_21  and  C_27
   11  A    between atoms: C_29  and  C_32
                            x       y       z     vdW  Elec       q    Type
                         _______ _______ _______ _____ _____    ______ ____

>  <TORSDO>
F 11

$$$$
=
 OpenBabel11062419293D

 40 43  0  0  1  0  0  0  0  0999 V2000
  192.8450  173.3070  144.5660 C   0  0  2  0  0  3  0  0  0  0  0  0
  189.6770  175.2240  144.8360 O   0  0  0  0  0  0  0  0  0  0  0  0
  190.2910  173.6220  143.2430 N   0  0  0  0  0  0  0  0  0  0  0  0
  191.3760  172.8540  142.6340 C   0  0  0  0  0  2  0  0  0  0  0  0
  191.7610  174.1270  145.2870 C   0  0  2  0  0  3  0  0  0  0  0  0
  190.5350  174.3870  144.4390 C   0  0  0  0  0  0  0  0  0  0  0  0
  192.2330  172.2110  143.7090 C   0  0  0  0  0  2  0  0  0  0  0  0
  192.0090  175.8430  147.1450 N   0  0  0  0  0  0  0  0  0  0  0  0
  193.0890  176.1110  145.0950 O   0  0  0  0  0  0  0  0  0  0  0  0
  191.1990  175.0750  147.9480 O   0  0  0  0  0  0  0  0  0  0  0  0
  192.3290  175.4120  145.8200 C   0  0  0  0  0  0  0  0  0  0  0  0
  192.4670  176.9180  147.5850 O   0  0  0  0  0  0  0  0  0  0  0  0
  189.3250  174.8190  141.3340 C   0  0  1  0  0  3  0  0  0  0  0  0
  189.0690  173.8380  142.4660 C   0  0  1  0  0  3  0  0  0  0  0  0
  188.0170  172.9310  140.5300 O   0  0  0  0  0  1  0  0  0  0  0  0
  189.2550  173.3190  141.0500 C   0  0  1  0  0  3  0  0  0  0  0  0
  188.0370  175.5700  141.0250 C   0  0  0  0  0  2  0  0  0  0  0  0
  186.3440  175.7140  142.8840 N   0  0  0  0  0  2  0  0  0  0  0  0
  187.5480  177.9350  144.0100 C   0  0  0  0  0  3  0  0  0  0  0  0
  185.8300  176.3100  144.0210 O   0  0  0  0  0  0  0  0  0  0  0  0
  187.5250  176.2350  142.2620 C   0  0  0  0  0  0  0  0  0  0  0  0
  186.4540  177.4280  144.5820 C   0  0  0  0  0  0  0  0  0  0  0  0
  188.1190  177.3190  142.7930 C   0  0  0  0  0  0  0  0  0  0  0  0
  185.7540  178.2040  146.0330 P   0  0  2  0  0  0  0  0  0  0  0  0
  184.3970  177.5990  146.3020 O   0  0  0  0  0  1  0  0  0  0  0  0
  185.5720  179.8670  145.7690 O   0  0  0  0  0  0  0  0  0  0  0  0
  186.7530  177.9360  147.3780 O   0  0  0  0  0  0  0  0  0  0  0  0
  187.1060  176.5860  147.3160 C   0  0  0  0  0  1  0  0  0  0  0  0
  189.3260  177.9000  142.1800 C   0  0  0  0  0  3  0  0  0  0  0  0
  190.4610  177.9010  142.7970 N   0  0  0  0  0  2  0  0  0  0  0  0
  193.7840  172.6630  145.5730 C   0  0  0  0  0  2  0  0  0  0  0  0
  195.1780  172.5410  144.9850 C   0  0  0  0  0  2  0  0  0  0  0  0
  195.8270  173.9110  144.8850 C   0  0  0  0  0  2  0  0  0  0  0  0
  195.6840  176.3960  142.0580 C   0  0  0  0  0  2  0  0  0  0  0  0
  196.5020  173.5260  141.1330 C   0  0  0  0  0  1  0  0  0  0  0  0
  196.4770  176.5630  143.3460 C   0  0  0  0  0  2  0  0  0  0  0  0
  196.6200  174.0470  143.5900 C   0  0  1  0  0  3  0  0  0  0  0  0
  195.7000  173.8850  142.3730 C   0  0  1  0  0  3  0  0  0  0  0  0
  194.8360  175.1270  142.1270 C   0  0  0  0  0  2  0  0  0  0  0  0
  197.4040  175.3680  143.5480 C   0  0  0  0  0  2  0  0  0  0  0  0
  1  5  1  0  0  0  0
  1 31  1  1  0  0  0
  3  6  1  0  0  0  0
  4  3  1  0  0  0  0
  4  7  1  0  0  0  0
  5 11  1  6  0  0  0
  6  2  2  0  0  0  0
  6  5  1  0  0  0  0
  7  1  1  0  0  0  0
  8 12  2  0  0  0  0
  8 10  2  0  0  0  0
  9 11  2  0  0  0  0
 11  8  1  0  0  0  0
 13 17  1  6  0  0  0
 13 14  1  0  0  0  0
 14  3  1  1  0  0  0
 16 15  1  6  0  0  0
 16 13  1  0  0  0  0
 16 14  1  0  0  0  0
 17 21  1  0  0  0  0
 18 20  1  0  0  0  0
 19 22  2  0  0  0  0
 20 22  1  0  0  0  0
 21 23  2  0  0  0  0
 21 18  1  0  0  0  0
 22 24  1  0  0  0  0
 23 19  1  0  0  0  0
 24 26  2  6  0  0  0
 24 25  1  0  0  0  0
 24 27  1  0  0  0  0
 28 27  1  0  0  0  0
 29 23  1  0  0  0  0
 29 30  2  0  0  0  0
 32 31  1  0  0  0  0
 33 32  1  0  0  0  0
 34 39  1  0  0  0  0
 34 36  1  0  0  0  0
 36 40  1  0  0  0  0
 37 33  1  1  0  0  0
 38 35  1  6  0  0  0
 38 37  1  0  0  0  0
 39 38  1  0  0  0  0
 40 37  1  0  0  0  0
M  END
>  <MODEL>
4

>  <REMARK>
 VINA RESULT:      -6.6      3.607      8.911
  Name = 
  11 active torsions:
  status: ('A' for Active; 'I' for Inactive)
    1  A    between atoms: C_2  and  C_34
    2  A    between atoms: P_3  and  O_12
    3  A    between atoms: P_3  and  C_35
    4  A    between atoms: C_6  and  C_19
    5  A    between atoms: C_8  and  N_18
    6  A    between atoms: C_9  and  C_39
    7  A    between atoms: C_10  and  C_29
    8  A    between atoms: C_10  and  C_34
    9  A    between atoms: C_19  and  C_30
   10  A    between atoms: C_21  and  C_27
   11  A    between atoms: C_29  and  C_32
                            x       y       z     vdW  Elec       q    Type
                         _______ _______ _______ _____ _____    ______ ____

>  <TORSDO>
F 11

$$$$
=
 OpenBabel11062419293D

 40 43  0  0  1  0  0  0  0  0999 V2000
  188.8950  176.3500  142.1100 C   0  0  2  0  0  3  0  0  0  0  0  0
  190.0360  173.5120  144.2150 O   0  0  0  0  0  0  0  0  0  0  0  0
  190.9320  175.6690  144.0490 N   0  0  0  0  0  0  0  0  0  0  0  0
  190.9900  176.9150  143.2860 C   0  0  0  0  0  2  0  0  0  0  0  0
  188.7450  175.0190  142.8690 C   0  0  2  0  0  3  0  0  0  0  0  0
  189.9470  174.6700  143.7200 C   0  0  0  0  0  0  0  0  0  0  0  0
  189.5890  177.3990  142.9620 C   0  0  0  0  0  2  0  0  0  0  0  0
  189.3430  173.5120  140.9130 N   0  0  0  0  0  0  0  0  0  0  0  0
  187.3040  173.3020  142.0260 O   0  0  0  0  0  0  0  0  0  0  0  0
  190.5610  174.1440  140.8120 O   0  0  0  0  0  0  0  0  0  0  0  0
  188.4110  173.9000  141.9250 C   0  0  0  0  0  0  0  0  0  0  0  0
  189.0620  172.5920  140.1170 O   0  0  0  0  0  0  0  0  0  0  0  0
  192.8240  176.5900  145.3060 C   0  0  1  0  0  3  0  0  0  0  0  0
  192.0550  175.3350  144.9260 C   0  0  1  0  0  3  0  0  0  0  0  0
  192.4930  175.1800  147.2630 O   0  0  0  0  0  1  0  0  0  0  0  0
  191.8470  175.9560  146.2970 C   0  0  1  0  0  3  0  0  0  0  0  0
  194.2820  176.2250  145.5540 C   0  0  0  0  0  2  0  0  0  0  0  0
  194.7060  176.4110  143.0780 N   0  0  0  0  0  2  0  0  0  0  0  0
  196.1480  174.0510  142.9970 C   0  0  0  0  0  3  0  0  0  0  0  0
  195.2420  175.9370  141.8950 O   0  0  0  0  0  0  0  0  0  0  0  0
  194.8920  175.6860  144.3000 C   0  0  0  0  0  0  0  0  0  0  0  0
  195.9740  174.7460  141.8710 C   0  0  0  0  0  0  0  0  0  0  0  0
  195.5850  174.5330  144.2780 C   0  0  0  0  0  0  0  0  0  0  0  0
  196.6300  174.1340  140.3240 P   0  0  2  0  0  0  0  0  0  0  0  0
  195.5380  174.1750  139.2820 O   0  0  0  0  0  0  0  0  0  0  0  0
  197.1540  172.5340  140.5110 O   0  0  0  0  0  1  0  0  0  0  0  0
  197.9180  175.1100  139.8100 O   0  0  0  0  0  0  0  0  0  0  0  0
  197.7210  175.2970  138.4400 C   0  0  0  0  0  1  0  0  0  0  0  0
  195.7890  173.7460  145.5060 C   0  0  0  0  0  3  0  0  0  0  0  0
  196.9160  173.7630  146.1370 N   0  0  0  0  0  2  0  0  0  0  0  0
  187.5330  176.8850  141.7000 C   0  0  0  0  0  2  0  0  0  0  0  0
  187.5610  178.4020  141.6460 C   0  0  0  0  0  2  0  0  0  0  0  0
  186.6080  178.9820  142.6780 C   0  0  0  0  0  2  0  0  0  0  0  0
  184.1260  179.0380  145.5110 C   0  0  0  0  0  2  0  0  0  0  0  0
  186.1690  176.6830  145.7120 C   0  0  0  0  0  1  0  0  0  0  0  0
  183.7800  179.0450  144.0290 C   0  0  0  0  0  2  0  0  0  0  0  0
  185.9650  177.8760  143.5090 C   0  0  1  0  0  3  0  0  0  0  0  0
  186.3730  178.0010  144.9830 C   0  0  1  0  0  3  0  0  0  0  0  0
  185.6390  179.1420  145.6960 C   0  0  0  0  0  2  0  0  0  0  0  0
  184.4380  177.8580  143.3330 C   0  0  0  0  0  2  0  0  0  0  0  0
  1 31  1  1  0  0  0
  1  5  1  0  0  0  0
  1  7  1  0  0  0  0
  4  3  1  0  0  0  0
  5 11  1  6  0  0  0
  5  6  1  0  0  0  0
  6  3  1  0  0  0  0
  6  2  2  0  0  0  0
  7  4  1  0  0  0  0
  8 11  1  0  0  0  0
 10  8  2  0  0  0  0
 11  9  2  0  0  0  0
 12  8  2  0  0  0  0
 13 17  1  1  0  0  0
 13 16  1  0  0  0  0
 14  3  1  6  0  0  0
 14 13  1  0  0  0  0
 14 16  1  0  0  0  0
 16 15  1  1  0  0  0
 18 21  1  0  0  0  0
 19 23  1  0  0  0  0
 20 18  1  0  0  0  0
 21 17  1  0  0  0  0
 22 20  1  0  0  0  0
 22 19  2  0  0  0  0
 23 21  2  0  0  0  0
 23 29  1  0  0  0  0
 24 25  2  6  0  0  0
 24 26  1  0  0  0  0
 24 22  1  0  0  0  0
 27 24  1  0  0  0  0
 28 27  1  0  0  0  0
 29 30  2  0  0  0  0
 32 31  1  0  0  0  0
 32 33  1  0  0  0  0
 34 39  1  0  0  0  0
 36 34  1  0  0  0  0
 37 33  1  6  0  0  0
 37 38  1  0  0  0  0
 38 39  1  0  0  0  0
 38 35  1  1  0  0  0
 40 37  1  0  0  0  0
 40 36  1  0  0  0  0
M  END
>  <MODEL>
5

>  <REMARK>
 VINA RESULT:      -6.5      2.007      3.115
  Name = 
  11 active torsions:
  status: ('A' for Active; 'I' for Inactive)
    1  A    between atoms: C_2  and  C_34
    2  A    between atoms: P_3  and  O_12
    3  A    between atoms: P_3  and  C_35
    4  A    between atoms: C_6  and  C_19
    5  A    between atoms: C_8  and  N_18
    6  A    between atoms: C_9  and  C_39
    7  A    between atoms: C_10  and  C_29
    8  A    between atoms: C_10  and  C_34
    9  A    between atoms: C_19  and  C_30
   10  A    between atoms: C_21  and  C_27
   11  A    between atoms: C_29  and  C_32
                            x       y       z     vdW  Elec       q    Type
                         _______ _______ _______ _____ _____    ______ ____

>  <TORSDO>
F 11

$$$$
=
 OpenBabel11062419293D

 40 43  0  0  1  0  0  0  0  0999 V2000
  190.7050  176.8950  145.2100 C   0  0  2  0  0  3  0  0  0  0  0  0
  190.7630  174.4910  142.3810 O   0  0  0  0  0  0  0  0  0  0  0  0
  192.2930  174.7280  144.1370 N   0  0  0  0  0  0  0  0  0  0  0  0
  192.7870  175.5700  145.2250 C   0  0  0  0  0  2  0  0  0  0  0  0
  190.0980  176.0590  144.0690 C   0  0  2  0  0  3  0  0  0  0  0  0
  191.0720  175.0750  143.4570 C   0  0  0  0  0  0  0  0  0  0  0  0
  191.6310  176.0600  146.0780 C   0  0  0  0  0  2  0  0  0  0  0  0
  188.2480  176.6020  142.4140 N   0  0  0  0  0  0  0  0  0  0  0  0
  190.0990  177.9990  142.6640 O   0  0  0  0  0  0  0  0  0  0  0  0
  187.5770  175.4680  142.8100 O   0  0  0  0  0  0  0  0  0  0  0  0
  189.4980  176.9470  143.0160 C   0  0  0  0  0  0  0  0  0  0  0  0
  187.7540  177.3290  141.5290 O   0  0  0  0  0  0  0  0  0  0  0  0
  194.1820  174.3820  142.6140 C   0  0  1  0  0  3  0  0  0  0  0  0
  193.1950  173.7270  143.5660 C   0  0  1  0  0  3  0  0  0  0  0  0
  195.3310  172.7860  144.0480 O   0  0  0  0  0  1  0  0  0  0  0  0
  194.6200  173.9890  144.0240 C   0  0  1  0  0  3  0  0  0  0  0  0
  194.5790  173.3780  141.5390 C   0  0  0  0  0  2  0  0  0  0  0  0
  192.6010  171.8930  141.0640 N   0  0  0  0  0  2  0  0  0  0  0  0
  191.8750  173.3280  138.8130 C   0  0  0  0  0  3  0  0  0  0  0  0
  191.5030  171.5320  140.3050 O   0  0  0  0  0  0  0  0  0  0  0  0
  193.3910  173.0320  140.7010 C   0  0  0  0  0  0  0  0  0  0  0  0
  191.1450  172.2710  139.1740 C   0  0  0  0  0  0  0  0  0  0  0  0
  193.0560  173.7380  139.6050 C   0  0  0  0  0  0  0  0  0  0  0  0
  189.7420  171.7670  138.1870 P   0  0  2  0  0  0  0  0  0  0  0  0
  189.5780  170.2700  138.3030 O   0  0  0  0  0  1  0  0  0  0  0  0
  190.0030  172.1680  136.5630 O   0  0  0  0  0  0  0  0  0  0  0  0
  188.3310  172.5200  138.7520 O   0  0  0  0  0  0  0  0  0  0  0  0
  188.2510  173.7310  138.0610 C   0  0  0  0  0  1  0  0  0  0  0  0
  193.8470  174.9070  139.1830 C   0  0  0  0  0  3  0  0  0  0  0  0
  194.2800  175.0260  137.9720 N   0  0  0  0  0  2  0  0  0  0  0  0
  189.6070  177.4700  146.0900 C   0  0  0  0  0  2  0  0  0  0  0  0
  188.9220  176.3580  146.8650 C   0  0  0  0  0  2  0  0  0  0  0  0
  187.4170  176.5680  146.8620 C   0  0  0  0  0  2  0  0  0  0  0  0
  184.1250  178.3140  146.3120 C   0  0  0  0  0  2  0  0  0  0  0  0
  186.2940  179.0830  144.1980 C   0  0  0  0  0  1  0  0  0  0  0  0
  184.9200  178.3090  147.6100 C   0  0  0  0  0  2  0  0  0  0  0  0
  187.0580  177.9410  146.3040 C   0  0  1  0  0  3  0  0  0  0  0  0
  186.2370  177.8020  145.0150 C   0  0  1  0  0  3  0  0  0  0  0  0
  184.7860  177.3920  145.2900 C   0  0  0  0  0  2  0  0  0  0  0  0
  186.3400  178.8030  147.3540 C   0  0  0  0  0  2  0  0  0  0  0  0
  1  7  1  0  0  0  0
  1 31  1  1  0  0  0
  2  6  2  0  0  0  0
  3  4  1  0  0  0  0
  4  7  1  0  0  0  0
  5 11  1  6  0  0  0
  5  1  1  0  0  0  0
  6  5  1  0  0  0  0
  6  3  1  0  0  0  0
  8 10  2  0  0  0  0
  8 11  1  0  0  0  0
  9 11  2  0  0  0  0
 12  8  2  0  0  0  0
 13 17  1  6  0  0  0
 13 14  1  0  0  0  0
 13 16  1  0  0  0  0
 14 16  1  0  0  0  0
 14  3  1  1  0  0  0
 16 15  1  6  0  0  0
 19 22  2  0  0  0  0
 19 23  1  0  0  0  0
 20 18  1  0  0  0  0
 21 18  1  0  0  0  0
 21 17  1  0  0  0  0
 22 20  1  0  0  0  0
 23 21  2  0  0  0  0
 24 26  2  6  0  0  0
 24 25  1  0  0  0  0
 24 27  1  0  0  0  0
 24 22  1  0  0  0  0
 28 27  1  0  0  0  0
 29 23  1  0  0  0  0
 30 29  2  0  0  0  0
 31 32  1  0  0  0  0
 33 32  1  0  0  0  0
 34 36  1  0  0  0  0
 37 33  1  1  0  0  0
 37 40  1  0  0  0  0
 38 35  1  1  0  0  0
 38 39  1  0  0  0  0
 38 37  1  0  0  0  0
 39 34  1  0  0  0  0
 40 36  1  0  0  0  0
M  END
>  <MODEL>
6

>  <REMARK>
 VINA RESULT:      -6.5      2.576      3.595
  Name = 
  11 active torsions:
  status: ('A' for Active; 'I' for Inactive)
    1  A    between atoms: C_2  and  C_34
    2  A    between atoms: P_3  and  O_12
    3  A    between atoms: P_3  and  C_35
    4  A    between atoms: C_6  and  C_19
    5  A    between atoms: C_8  and  N_18
    6  A    between atoms: C_9  and  C_39
    7  A    between atoms: C_10  and  C_29
    8  A    between atoms: C_10  and  C_34
    9  A    between atoms: C_19  and  C_30
   10  A    between atoms: C_21  and  C_27
   11  A    between atoms: C_29  and  C_32
                            x       y       z     vdW  Elec       q    Type
                         _______ _______ _______ _____ _____    ______ ____

>  <TORSDO>
F 11

$$$$
=
 OpenBabel11062419293D

 40 43  0  0  1  0  0  0  0  0999 V2000
  190.0230  176.7480  145.5460 C   0  0  2  0  0  3  0  0  0  0  0  0
  190.6230  174.2370  142.8780 O   0  0  0  0  0  0  0  0  0  0  0  0
  191.7440  174.5090  144.9160 N   0  0  0  0  0  0  0  0  0  0  0  0
  192.0140  175.3820  146.0570 C   0  0  0  0  0  2  0  0  0  0  0  0
  189.6540  175.8810  144.3290 C   0  0  2  0  0  3  0  0  0  0  0  0
  190.7080  174.8550  143.9760 C   0  0  0  0  0  0  0  0  0  0  0  0
  190.7150  175.9280  146.6220 C   0  0  0  0  0  2  0  0  0  0  0  0
  188.2380  176.3820  142.2790 N   0  0  0  0  0  0  0  0  0  0  0  0
  189.9970  177.7800  142.9090 O   0  0  0  0  0  0  0  0  0  0  0  0
  187.4820  175.2630  142.5410 O   0  0  0  0  0  0  0  0  0  0  0  0
  189.3200  176.7400  143.1430 C   0  0  0  0  0  0  0  0  0  0  0  0
  187.9680  177.0850  141.2840 O   0  0  0  0  0  0  0  0  0  0  0  0
  193.9230  174.0720  143.8830 C   0  0  1  0  0  3  0  0  0  0  0  0
  192.7190  173.4690  144.5880 C   0  0  1  0  0  3  0  0  0  0  0  0
  194.6490  172.4760  145.5710 O   0  0  0  0  0  1  0  0  0  0  0  0
  194.0050  173.6990  145.3630 C   0  0  1  0  0  3  0  0  0  0  0  0
  194.5250  173.0320  142.9470 C   0  0  0  0  0  2  0  0  0  0  0  0
  193.3160  173.9200  140.9240 N   0  0  0  0  0  2  0  0  0  0  0  0
  192.1550  171.4730  140.3590 C   0  0  0  0  0  3  0  0  0  0  0  0
  192.4690  173.7590  139.8430 O   0  0  0  0  0  0  0  0  0  0  0  0
  193.6180  172.8110  141.7800 C   0  0  0  0  0  0  0  0  0  0  0  0
  191.8950  172.5150  139.5660 C   0  0  0  0  0  0  0  0  0  0  0  0
  193.0560  171.6150  141.5240 C   0  0  0  0  0  0  0  0  0  0  0  0
  190.7770  172.3370  138.1830 P   0  0  2  0  0  0  0  0  0  0  0  0
  190.4140  173.7100  137.6700 O   0  0  0  0  0  0  0  0  0  0  0  0
  189.3650  171.5440  138.6790 O   0  0  0  0  0  1  0  0  0  0  0  0
  191.5250  171.4640  136.9350 O   0  0  0  0  0  0  0  0  0  0  0  0
  192.3030  172.3950  136.2430 C   0  0  0  0  0  1  0  0  0  0  0  0
  193.3250  170.4510  142.3840 C   0  0  0  0  0  3  0  0  0  0  0  0
  192.5060  170.1010  143.3210 N   0  0  0  0  0  2  0  0  0  0  0  0
  188.7770  177.3790  146.1480 C   0  0  0  0  0  2  0  0  0  0  0  0
  187.7550  176.3050  146.4800 C   0  0  0  0  0  2  0  0  0  0  0  0
  186.3580  176.7850  146.1240 C   0  0  0  0  0  2  0  0  0  0  0  0
  183.6840  179.0280  144.7060 C   0  0  0  0  0  2  0  0  0  0  0  0
  186.4680  179.4160  143.3410 C   0  0  0  0  0  1  0  0  0  0  0  0
  184.0550  178.9110  146.1780 C   0  0  0  0  0  2  0  0  0  0  0  0
  186.3960  178.1910  145.5350 C   0  0  1  0  0  3  0  0  0  0  0  0
  185.9760  178.1710  144.0590 C   0  0  1  0  0  3  0  0  0  0  0  0
  184.4620  178.0000  143.8880 C   0  0  0  0  0  2  0  0  0  0  0  0
  185.5480  179.1690  146.3620 C   0  0  0  0  0  2  0  0  0  0  0  0
  1 31  1  1  0  0  0
  1  7  1  0  0  0  0
  2  6  2  0  0  0  0
  3  4  1  0  0  0  0
  4  7  1  0  0  0  0
  5 11  1  6  0  0  0
  5  1  1  0  0  0  0
  6  5  1  0  0  0  0
  6  3  1  0  0  0  0
  8 10  2  0  0  0  0
  8 11  1  0  0  0  0
  9 11  2  0  0  0  0
 12  8  2  0  0  0  0
 13 17  1  6  0  0  0
 13 14  1  0  0  0  0
 13 16  1  0  0  0  0
 14  3  1  1  0  0  0
 14 16  1  0  0  0  0
 16 15  1  6  0  0  0
 18 21  1  0  0  0  0
 19 23  1  0  0  0  0
 20 18  1  0  0  0  0
 21 17  1  0  0  0  0
 22 20  1  0  0  0  0
 22 19  2  0  0  0  0
 23 21  2  0  0  0  0
 23 29  1  0  0  0  0
 24 25  2  6  0  0  0
 24 26  1  0  0  0  0
 24 22  1  0  0  0  0
 27 24  1  0  0  0  0
 28 27  1  0  0  0  0
 29 30  2  0  0  0  0
 31 32  1  0  0  0  0
 33 32  1  0  0  0  0
 34 36  1  0  0  0  0
 36 40  1  0  0  0  0
 37 33  1  1  0  0  0
 37 40  1  0  0  0  0
 38 35  1  1  0  0  0
 38 37  1  0  0  0  0
 39 38  1  0  0  0  0
 39 34  1  0  0  0  0
M  END
>  <MODEL>
7

>  <REMARK>
 VINA RESULT:      -6.4      2.366      2.898
  Name = 
  11 active torsions:
  status: ('A' for Active; 'I' for Inactive)
    1  A    between atoms: C_2  and  C_34
    2  A    between atoms: P_3  and  O_12
    3  A    between atoms: P_3  and  C_35
    4  A    between atoms: C_6  and  C_19
    5  A    between atoms: C_8  and  N_18
    6  A    between atoms: C_9  and  C_39
    7  A    between atoms: C_10  and  C_29
    8  A    between atoms: C_10  and  C_34
    9  A    between atoms: C_19  and  C_30
   10  A    between atoms: C_21  and  C_27
   11  A    between atoms: C_29  and  C_32
                            x       y       z     vdW  Elec       q    Type
                         _______ _______ _______ _____ _____    ______ ____

>  <TORSDO>
F 11

$$$$
=
 OpenBabel11062419293D

 40 43  0  0  1  0  0  0  0  0999 V2000
  193.2800  174.0200  144.8180 C   0  0  2  0  0  3  0  0  0  0  0  0
  189.7970  175.2360  145.2320 O   0  0  0  0  0  0  0  0  0  0  0  0
  190.7040  173.9440  143.5030 N   0  0  0  0  0  0  0  0  0  0  0  0
  191.9160  173.4670  142.8370 C   0  0  0  0  0  2  0  0  0  0  0  0
  192.0610  174.5380  145.6010 C   0  0  2  0  0  3  0  0  0  0  0  0
  190.8010  174.6270  144.7670 C   0  0  0  0  0  0  0  0  0  0  0  0
  192.8910  172.9090  143.8560 C   0  0  0  0  0  2  0  0  0  0  0  0
  191.8820  176.1310  147.5720 N   0  0  0  0  0  0  0  0  0  0  0  0
  193.0520  176.7180  145.6420 O   0  0  0  0  0  0  0  0  0  0  0  0
  191.1530  175.1850  148.2560 O   0  0  0  0  0  0  0  0  0  0  0  0
  192.3670  175.8550  146.2560 C   0  0  0  0  0  0  0  0  0  0  0  0
  192.1210  177.2290  148.1140 O   0  0  0  0  0  0  0  0  0  0  0  0
  189.6170  174.8660  141.5090 C   0  0  1  0  0  3  0  0  0  0  0  0
  189.4580  173.9850  142.7370 C   0  0  1  0  0  3  0  0  0  0  0  0
  188.4540  172.8100  140.9230 O   0  0  0  0  0  1  0  0  0  0  0  0
  189.6630  173.3440  141.3740 C   0  0  1  0  0  3  0  0  0  0  0  0
  188.2670  175.4780  141.1570 C   0  0  0  0  0  2  0  0  0  0  0  0
  186.4280  175.6630  142.8670 N   0  0  0  0  0  2  0  0  0  0  0  0
  187.6250  177.8080  144.1410 C   0  0  0  0  0  3  0  0  0  0  0  0
  185.8440  176.2610  143.9690 O   0  0  0  0  0  0  0  0  0  0  0  0
  187.6790  176.1420  142.3600 C   0  0  0  0  0  0  0  0  0  0  0  0
  186.4650  177.3400  144.6060 C   0  0  0  0  0  0  0  0  0  0  0  0
  188.2720  177.1890  142.9630 C   0  0  0  0  0  0  0  0  0  0  0  0
  185.6770  178.1200  146.0090 P   0  0  2  0  0  0  0  0  0  0  0  0
  186.7130  178.3500  147.0830 O   0  0  0  0  0  1  0  0  0  0  0  0
  184.4610  177.1140  146.6220 O   0  0  0  0  0  0  0  0  0  0  0  0
  185.0180  179.6150  145.5520 O   0  0  0  0  0  0  0  0  0  0  0  0
  184.5050  179.4200  144.2680 C   0  0  0  0  0  1  0  0  0  0  0  0
  189.5520  177.7260  142.4680 C   0  0  0  0  0  3  0  0  0  0  0  0
  190.4290  178.2260  143.2740 N   0  0  0  0  0  2  0  0  0  0  0  0
  194.3370  173.4850  145.7710 C   0  0  0  0  0  2  0  0  0  0  0  0
  195.5460  172.9980  144.9920 C   0  0  0  0  0  2  0  0  0  0  0  0
  196.3320  171.9940  145.8190 C   0  0  0  0  0  2  0  0  0  0  0  0
  195.5920  168.5450  147.1400 C   0  0  0  0  0  2  0  0  0  0  0  0
  197.7280  168.5570  144.8600 C   0  0  0  0  0  1  0  0  0  0  0  0
  194.5590  169.5380  146.6260 C   0  0  0  0  0  2  0  0  0  0  0  0
  196.3200  170.6170  145.1620 C   0  0  1  0  0  3  0  0  0  0  0  0
  197.3870  169.7100  145.7890 C   0  0  1  0  0  3  0  0  0  0  0  0
  196.9730  169.1960  147.1720 C   0  0  0  0  0  2  0  0  0  0  0  0
  194.9220  169.9830  145.2120 C   0  0  0  0  0  2  0  0  0  0  0  0
  1  5  1  0  0  0  0
  1 31  1  1  0  0  0
  3  6  1  0  0  0  0
  4  3  1  0  0  0  0
  4  7  1  0  0  0  0
  5 11  1  6  0  0  0
  6  2  2  0  0  0  0
  6  5  1  0  0  0  0
  7  1  1  0  0  0  0
  8 12  2  0  0  0  0
  8 10  2  0  0  0  0
  9 11  2  0  0  0  0
 11  8  1  0  0  0  0
 13 17  1  6  0  0  0
 13 14  1  0  0  0  0
 14  3  1  1  0  0  0
 16 15  1  6  0  0  0
 16 13  1  0  0  0  0
 16 14  1  0  0  0  0
 17 21  1  0  0  0  0
 18 20  1  0  0  0  0
 19 22  2  0  0  0  0
 20 22  1  0  0  0  0
 21 18  1  0  0  0  0
 21 23  2  0  0  0  0
 22 24  1  0  0  0  0
 23 19  1  0  0  0  0
 24 26  2  1  0  0  0
 24 25  1  0  0  0  0
 27 24  1  0  0  0  0
 28 27  1  0  0  0  0
 29 23  1  0  0  0  0
 29 30  2  0  0  0  0
 32 31  1  0  0  0  0
 32 33  1  0  0  0  0
 34 39  1  0  0  0  0
 36 34  1  0  0  0  0
 37 40  1  0  0  0  0
 37 38  1  0  0  0  0
 37 33  1  1  0  0  0
 38 35  1  6  0  0  0
 38 39  1  0  0  0  0
 40 36  1  0  0  0  0
M  END
>  <MODEL>
8

>  <REMARK>
 VINA RESULT:      -6.4      4.054      9.564
  Name = 
  11 active torsions:
  status: ('A' for Active; 'I' for Inactive)
    1  A    between atoms: C_2  and  C_34
    2  A    between atoms: P_3  and  O_12
    3  A    between atoms: P_3  and  C_35
    4  A    between atoms: C_6  and  C_19
    5  A    between atoms: C_8  and  N_18
    6  A    between atoms: C_9  and  C_39
    7  A    between atoms: C_10  and  C_29
    8  A    between atoms: C_10  and  C_34
    9  A    between atoms: C_19  and  C_30
   10  A    between atoms: C_21  and  C_27
   11  A    between atoms: C_29  and  C_32
                            x       y       z     vdW  Elec       q    Type
                         _______ _______ _______ _____ _____    ______ ____

>  <TORSDO>
F 11

$$$$
=
 OpenBabel11062419293D

 40 43  0  0  1  0  0  0  0  0999 V2000
  191.5220  176.0740  144.7150 C   0  0  2  0  0  3  0  0  0  0  0  0
  192.9620  172.6880  144.2140 O   0  0  0  0  0  0  0  0  0  0  0  0
  194.0600  174.6840  144.7560 N   0  0  0  0  0  0  0  0  0  0  0  0
  193.9870  176.1440  144.8180 C   0  0  0  0  0  2  0  0  0  0  0  0
  191.4980  174.5360  144.6520 C   0  0  2  0  0  3  0  0  0  0  0  0
  192.8700  173.9160  144.4940 C   0  0  0  0  0  0  0  0  0  0  0  0
  192.7110  176.5780  145.5160 C   0  0  0  0  0  2  0  0  0  0  0  0
  189.6750  172.9710  143.8270 N   0  0  0  0  0  0  0  0  0  0  0  0
  190.5690  174.6240  142.4460 O   0  0  0  0  0  0  0  0  0  0  0  0
  189.6500  172.3670  145.0630 O   0  0  0  0  0  0  0  0  0  0  0  0
  190.5650  174.0600  143.5750 C   0  0  0  0  0  0  0  0  0  0  0  0
  188.9090  172.5630  142.9300 O   0  0  0  0  0  0  0  0  0  0  0  0
  196.4510  175.1030  144.4160 C   0  0  1  0  0  3  0  0  0  0  0  0
  195.3780  174.0550  144.6620 C   0  0  1  0  0  3  0  0  0  0  0  0
  197.1930  173.5230  146.1110 O   0  0  0  0  0  1  0  0  0  0  0  0
  196.2570  174.5160  145.8140 C   0  0  1  0  0  3  0  0  0  0  0  0
  197.5930  174.4710  143.6310 C   0  0  0  0  0  2  0  0  0  0  0  0
  197.1830  175.7790  141.5180 N   0  0  0  0  0  2  0  0  0  0  0  0
  196.7670  173.4980  140.0090 C   0  0  0  0  0  3  0  0  0  0  0  0
  196.8870  175.8540  140.1700 O   0  0  0  0  0  0  0  0  0  0  0  0
  197.2880  174.5070  142.1680 C   0  0  0  0  0  0  0  0  0  0  0  0
  196.6860  174.6920  139.4190 C   0  0  0  0  0  0  0  0  0  0  0  0
  197.0810  173.3870  141.4510 C   0  0  0  0  0  0  0  0  0  0  0  0
  196.2710  174.8120  137.6840 P   0  0  2  0  0  0  0  0  0  0  0  0
  196.1800  173.4190  137.1080 O   0  0  0  0  0  1  0  0  0  0  0  0
  197.4740  175.6720  136.8600 O   0  0  0  0  0  0  0  0  0  0  0  0
  194.7720  175.5840  137.4940 O   0  0  0  0  0  0  0  0  0  0  0  0
  193.8590  174.8090  138.2110 C   0  0  0  0  0  1  0  0  0  0  0  0
  197.1630  172.0570  142.0790 C   0  0  0  0  0  3  0  0  0  0  0  0
  196.0990  171.3890  142.3830 N   0  0  0  0  0  2  0  0  0  0  0  0
  190.2500  176.6000  145.3590 C   0  0  0  0  0  2  0  0  0  0  0  0
  189.8010  177.8750  144.6670 C   0  0  0  0  0  2  0  0  0  0  0  0
  188.7610  177.5570  143.6050 C   0  0  0  0  0  2  0  0  0  0  0  0
  185.0410  178.0240  143.2420 C   0  0  0  0  0  2  0  0  0  0  0  0
  185.8820  176.9980  146.0710 C   0  0  0  0  0  1  0  0  0  0  0  0
  185.9260  177.1980  142.3180 C   0  0  0  0  0  2  0  0  0  0  0  0
  187.5660  176.8300  144.2120 C   0  0  1  0  0  3  0  0  0  0  0  0
  186.7470  177.7800  145.0950 C   0  0  1  0  0  3  0  0  0  0  0  0
  185.9000  178.7560  144.2710 C   0  0  0  0  0  2  0  0  0  0  0  0
  186.7040  176.1650  143.1270 C   0  0  0  0  0  2  0  0  0  0  0  0
  1 31  1  1  0  0  0
  1  7  1  0  0  0  0
  2  6  2  0  0  0  0
  3  4  1  0  0  0  0
  4  7  1  0  0  0  0
  5 11  1  6  0  0  0
  5  1  1  0  0  0  0
  6  5  1  0  0  0  0
  6  3  1  0  0  0  0
  8 10  2  0  0  0  0
  9 11  2  0  0  0  0
 11  8  1  0  0  0  0
 12  8  2  0  0  0  0
 13 17  1  6  0  0  0
 13 14  1  0  0  0  0
 13 16  1  0  0  0  0
 14  3  1  1  0  0  0
 14 16  1  0  0  0  0
 16 15  1  6  0  0  0
 18 21  1  0  0  0  0
 19 23  1  0  0  0  0
 20 18  1  0  0  0  0
 21 17  1  0  0  0  0
 22 19  2  0  0  0  0
 22 20  1  0  0  0  0
 23 29  1  0  0  0  0
 23 21  2  0  0  0  0
 24 26  2  6  0  0  0
 24 22  1  0  0  0  0
 25 24  1  0  0  0  0
 27 24  1  0  0  0  0
 27 28  1  0  0  0  0
 29 30  2  0  0  0  0
 32 31  1  0  0  0  0
 33 32  1  0  0  0  0
 34 39  1  0  0  0  0
 36 40  1  0  0  0  0
 36 34  1  0  0  0  0
 37 33  1  6  0  0  0
 37 38  1  0  0  0  0
 38 35  1  1  0  0  0
 39 38  1  0  0  0  0
 40 37  1  0  0  0  0
M  END
>  <MODEL>
9

>  <REMARK>
 VINA RESULT:      -6.3      1.671      2.039
  Name = 
  11 active torsions:
  status: ('A' for Active; 'I' for Inactive)
    1  A    between atoms: C_2  and  C_34
    2  A    between atoms: P_3  and  O_12
    3  A    between atoms: P_3  and  C_35
    4  A    between atoms: C_6  and  C_19
    5  A    between atoms: C_8  and  N_18
    6  A    between atoms: C_9  and  C_39
    7  A    between atoms: C_10  and  C_29
    8  A    between atoms: C_10  and  C_34
    9  A    between atoms: C_19  and  C_30
   10  A    between atoms: C_21  and  C_27
   11  A    between atoms: C_29  and  C_32
                            x       y       z     vdW  Elec       q    Type
                         _______ _______ _______ _____ _____    ______ ____

>  <TORSDO>
F 11

$$$$
