=
 OpenBabel11062422433D

 29 33  0  0  1  0  0  0  0  0999 V2000
  188.0070  173.3190  141.9500 C   0  0  0  0  0  3  0  0  0  0  0  0
  190.9180  172.7470  143.8440 N   0  0  0  0  0  0  0  0  0  0  0  0
  187.6190  174.7090  142.3650 C   0  0  0  0  0  2  0  0  0  0  0  0
  192.9440  173.3890  145.1770 C   0  0  0  0  0  3  0  0  0  0  0  0
  193.8980  174.3960  145.4040 C   0  0  0  0  0  3  0  0  0  0  0  0
  192.8360  175.8210  143.7300 C   0  0  0  0  0  3  0  0  0  0  0  0
  190.7580  174.7420  142.5830 C   0  0  2  0  0  3  0  0  0  0  0  0
  188.6010  175.7690  141.8750 C   0  0  2  0  0  3  0  0  0  0  0  0
  189.7470  175.8370  142.8750 C   0  0  0  0  0  2  0  0  0  0  0  0
  190.2150  173.3790  142.9540 C   0  0  0  0  0  0  0  0  0  0  0  0
  193.8490  175.6130  144.6860 C   0  0  0  0  0  0  0  0  0  0  0  0
  191.9540  173.6310  144.2270 C   0  0  0  0  0  0  0  0  0  0  0  0
  191.8970  174.8090  143.5320 C   0  0  0  0  0  0  0  0  0  0  0  0
  189.1300  172.7450  142.2710 N   0  0  0  0  0  0  0  0  0  0  0  0
  194.7480  177.4890  146.0400 O   0  0  0  0  0  1  0  0  0  0  0  0
  194.8540  176.6610  144.9290 C   0  0  0  0  0  0  0  0  0  0  0  0
  195.8180  176.8160  144.1330 O   0  0  0  0  0  0  0  0  0  0  0  0
  188.9340  178.2340  141.9070 C   0  0  0  0  0  1  0  0  0  0  0  0
  187.8900  177.1270  141.7110 C   0  0  2  0  0  3  0  0  0  0  0  0
  186.0550  177.6580  144.8210 C   0  0  1  0  0  3  0  0  0  0  0  0
  185.6530  177.9050  141.9010 C   0  0  0  0  0  2  0  0  0  0  0  0
  184.5100  179.2470  143.6850 N   0  0  0  0  0  2  0  0  0  0  0  0
  187.0210  178.1540  143.7520 C   0  0  1  0  0  3  0  0  0  0  0  0
  187.5470  177.6220  145.0650 C   0  0  0  0  0  2  0  0  0  0  0  0
  184.3640  178.1190  142.7400 C   0  0  0  0  0  2  0  0  0  0  0  0
  186.7470  177.2430  142.6450 N   0  0  0  0  0  0  0  0  0  0  0  0
  185.1560  178.8790  144.9710 C   0  0  1  0  0  3  0  0  0  0  0  0
  184.0870  178.6200  146.0190 C   0  0  0  0  0  2  0  0  0  0  0  0
  184.7220  178.3650  147.3740 C   0  0  0  0  0  1  0  0  0  0  0  0
  1 14  2  0  0  0  0
  1  3  1  0  0  0  0
  2 12  1  0  0  0  0
  4  5  1  0  0  0  0
  6 11  1  0  0  0  0
  7  9  1  1  0  0  0
  7 10  1  0  0  0  0
  7 13  1  0  0  0  0
  8 19  1  1  0  0  0
  8  3  1  0  0  0  0
  8  9  1  0  0  0  0
 10  2  2  0  0  0  0
 11 16  1  0  0  0  0
 11  5  2  0  0  0  0
 12  4  2  0  0  0  0
 13  6  2  0  0  0  0
 13 12  1  0  0  0  0
 14 10  1  0  0  0  0
 16 15  1  0  0  0  0
 17 16  2  0  0  0  0
 19 18  1  1  0  0  0
 19 26  1  0  0  0  0
 20 27  1  0  0  0  0
 20 24  1  1  0  0  0
 21 26  1  0  0  0  0
 21 25  1  0  0  0  0
 22 27  1  0  0  0  0
 23 20  1  0  0  0  0
 23 24  1  1  0  0  0
 25 22  1  0  0  0  0
 26 23  1  0  0  0  0
 27 28  1  1  0  0  0
 28 29  1  0  0  0  0
M  END
>  <MODEL>
1

>  <REMARK>
 VINA RESULT:      -7.9      0.000      0.000
  Name = 
  4 active torsions:
  status: ('A' for Active; 'I' for Inactive)
    1  A    between atoms: C_13  and  C_27
    2  A    between atoms: C_16  and  C_17
    3  A    between atoms: C_24  and  C_28
    4  A    between atoms: N_25  and  C_27
                            x       y       z     vdW  Elec       q    Type
                         _______ _______ _______ _____ _____    ______ ____

>  <TORSDO>
F 4

$$$$
=
 OpenBabel11062422433D

 29 33  0  0  1  0  0  0  0  0999 V2000
  189.2440  174.7220  141.1590 C   0  0  0  0  0  3  0  0  0  0  0  0
  187.0420  177.3850  141.8280 N   0  0  0  0  0  0  0  0  0  0  0  0
  190.2350  174.8330  142.2820 C   0  0  0  0  0  2  0  0  0  0  0  0
  185.9080  179.1160  143.2460 C   0  0  0  0  0  3  0  0  0  0  0  0
  185.5230  179.4570  144.5540 C   0  0  0  0  0  3  0  0  0  0  0  0
  186.4940  177.3880  145.4120 C   0  0  0  0  0  3  0  0  0  0  0  0
  187.5640  175.8770  143.5750 C   0  0  2  0  0  3  0  0  0  0  0  0
  189.6310  174.4900  143.6400 C   0  0  2  0  0  3  0  0  0  0  0  0
  188.9510  175.7420  144.1760 C   0  0  0  0  0  2  0  0  0  0  0  0
  187.6320  176.2650  142.1140 C   0  0  0  0  0  0  0  0  0  0  0  0
  185.8130  178.5990  145.6400 C   0  0  0  0  0  0  0  0  0  0  0  0
  186.5840  177.9130  143.0590 C   0  0  0  0  0  0  0  0  0  0  0  0
  186.8740  177.0800  144.1050 C   0  0  0  0  0  0  0  0  0  0  0  0
  188.1380  175.4050  141.0890 N   0  0  0  0  0  0  0  0  0  0  0  0
  186.1780  179.8360  147.7620 O   0  0  0  0  0  1  0  0  0  0  0  0
  185.4030  178.9630  147.0060 C   0  0  0  0  0  0  0  0  0  0  0  0
  184.3480  178.4870  147.5030 O   0  0  0  0  0  0  0  0  0  0  0  0
  190.4230  174.5120  145.9990 C   0  0  0  0  0  1  0  0  0  0  0  0
  190.7210  173.9640  144.5970 C   0  0  2  0  0  3  0  0  0  0  0  0
  193.6590  176.0060  143.8750 C   0  0  1  0  0  3  0  0  0  0  0  0
  192.9570  173.1830  144.4120 C   0  0  0  0  0  2  0  0  0  0  0  0
  195.1490  174.2970  144.9060 N   0  0  0  0  0  2  0  0  0  0  0  0
  192.6570  175.4330  144.8700 C   0  0  1  0  0  3  0  0  0  0  0  0
  192.5130  176.8540  144.3780 C   0  0  0  0  0  2  0  0  0  0  0  0
  194.4320  173.3990  143.9750 C   0  0  0  0  0  2  0  0  0  0  0  0
  192.0720  174.3300  144.1130 N   0  0  0  0  0  0  0  0  0  0  0  0
  194.9650  175.7410  144.6150 C   0  0  1  0  0  3  0  0  0  0  0  0
  196.1430  176.2480  143.8000 C   0  0  0  0  0  2  0  0  0  0  0  0
  195.7550  176.3960  142.3410 C   0  0  0  0  0  1  0  0  0  0  0  0
  1  3  1  0  0  0  0
  2 10  2  0  0  0  0
  2 12  1  0  0  0  0
  3  8  1  0  0  0  0
  4  5  1  0  0  0  0
  5 11  2  0  0  0  0
  6 11  1  0  0  0  0
  7 13  1  0  0  0  0
  7  9  1  1  0  0  0
  8  9  1  0  0  0  0
  8 19  1  1  0  0  0
 10  7  1  0  0  0  0
 11 16  1  0  0  0  0
 12  4  2  0  0  0  0
 12 13  1  0  0  0  0
 13  6  2  0  0  0  0
 14  1  2  0  0  0  0
 14 10  1  0  0  0  0
 16 17  2  0  0  0  0
 16 15  1  0  0  0  0
 19 18  1  1  0  0  0
 20 24  1  1  0  0  0
 20 27  1  0  0  0  0
 20 23  1  0  0  0  0
 23 24  1  6  0  0  0
 25 21  1  0  0  0  0
 25 22  1  0  0  0  0
 26 21  1  0  0  0  0
 26 19  1  0  0  0  0
 26 23  1  0  0  0  0
 27 28  1  6  0  0  0
 27 22  1  0  0  0  0
 29 28  1  0  0  0  0
M  END
>  <MODEL>
2

>  <REMARK>
 VINA RESULT:      -7.7      3.067      7.858
  Name = 
  4 active torsions:
  status: ('A' for Active; 'I' for Inactive)
    1  A    between atoms: C_13  and  C_27
    2  A    between atoms: C_16  and  C_17
    3  A    between atoms: C_24  and  C_28
    4  A    between atoms: N_25  and  C_27
                            x       y       z     vdW  Elec       q    Type
                         _______ _______ _______ _____ _____    ______ ____

>  <TORSDO>
F 4

$$$$
=
 OpenBabel11062422433D

 29 33  0  0  1  0  0  0  0  0999 V2000
  191.5600  176.7630  147.8590 C   0  0  0  0  0  3  0  0  0  0  0  0
  188.2120  176.9670  146.7920 N   0  0  0  0  0  0  0  0  0  0  0  0
  192.1970  175.9490  146.7690 C   0  0  0  0  0  2  0  0  0  0  0  0
  186.3310  176.9030  145.1350 C   0  0  0  0  0  3  0  0  0  0  0  0
  185.9860  177.0630  143.7820 C   0  0  0  0  0  3  0  0  0  0  0  0
  188.3090  177.5540  143.2160 C   0  0  0  0  0  3  0  0  0  0  0  0
  189.9280  177.5210  145.2600 C   0  0  2  0  0  3  0  0  0  0  0  0
  192.2710  176.6950  145.4400 C   0  0  2  0  0  3  0  0  0  0  0  0
  190.9350  176.5150  144.7330 C   0  0  0  0  0  2  0  0  0  0  0  0
  189.4880  177.1750  146.6660 C   0  0  0  0  0  0  0  0  0  0  0  0
  186.9680  177.3870  142.8180 C   0  0  0  0  0  0  0  0  0  0  0  0
  187.6660  177.0710  145.4910 C   0  0  0  0  0  0  0  0  0  0  0  0
  188.6250  177.3790  144.5640 C   0  0  0  0  0  0  0  0  0  0  0  0
  190.3500  177.2400  147.8050 N   0  0  0  0  0  0  0  0  0  0  0  0
  185.5370  178.3810  141.0510 O   0  0  0  0  0  1  0  0  0  0  0  0
  186.5980  177.5550  141.4040 C   0  0  0  0  0  0  0  0  0  0  0  0
  187.2380  176.9530  140.5010 O   0  0  0  0  0  0  0  0  0  0  0  0
  192.9320  175.8930  143.1790 C   0  0  0  0  0  1  0  0  0  0  0  0
  193.4520  176.1740  144.5950 C   0  0  2  0  0  3  0  0  0  0  0  0
  194.0080  172.6840  145.5040 C   0  0  1  0  0  3  0  0  0  0  0  0
  195.5350  175.1970  145.1860 C   0  0  0  0  0  2  0  0  0  0  0  0
  196.4160  172.8670  144.8930 N   0  0  0  0  0  2  0  0  0  0  0  0
  193.8690  173.7700  144.4450 C   0  0  1  0  0  3  0  0  0  0  0  0
  192.7080  172.8520  144.7510 C   0  0  0  0  0  2  0  0  0  0  0  0
  196.3530  174.0300  145.8030 C   0  0  0  0  0  2  0  0  0  0  0  0
  194.0710  174.9870  145.2260 N   0  0  0  0  0  0  0  0  0  0  0  0
  195.2470  171.9560  144.9940 C   0  0  1  0  0  3  0  0  0  0  0  0
  195.5880  170.7930  145.9090 C   0  0  0  0  0  2  0  0  0  0  0  0
  197.0600  170.4420  145.7960 C   0  0  0  0  0  1  0  0  0  0  0  0
  3  1  1  0  0  0  0
  4 12  1  0  0  0  0
  5  4  2  0  0  0  0
  6 13  1  0  0  0  0
  7  9  1  6  0  0  0
  7 10  1  0  0  0  0
  8 19  1  6  0  0  0
  8  3  1  0  0  0  0
  9  8  1  0  0  0  0
 10  2  2  0  0  0  0
 10 14  1  0  0  0  0
 11  6  2  0  0  0  0
 11  5  1  0  0  0  0
 12  2  1  0  0  0  0
 13  7  1  0  0  0  0
 13 12  2  0  0  0  0
 14  1  2  0  0  0  0
 15 16  1  0  0  0  0
 16 11  1  0  0  0  0
 17 16  2  0  0  0  0
 19 18  1  6  0  0  0
 19 26  1  0  0  0  0
 20 24  1  6  0  0  0
 21 26  1  0  0  0  0
 21 25  1  0  0  0  0
 22 27  1  0  0  0  0
 22 25  1  0  0  0  0
 23 24  1  1  0  0  0
 23 26  1  0  0  0  0
 23 20  1  0  0  0  0
 27 20  1  0  0  0  0
 27 28  1  1  0  0  0
 29 28  1  0  0  0  0
M  END
>  <MODEL>
3

>  <REMARK>
 VINA RESULT:      -7.5      3.789      8.636
  Name = 
  4 active torsions:
  status: ('A' for Active; 'I' for Inactive)
    1  A    between atoms: C_13  and  C_27
    2  A    between atoms: C_16  and  C_17
    3  A    between atoms: C_24  and  C_28
    4  A    between atoms: N_25  and  C_27
                            x       y       z     vdW  Elec       q    Type
                         _______ _______ _______ _____ _____    ______ ____

>  <TORSDO>
F 4

$$$$
=
 OpenBabel11062422433D

 29 33  0  0  1  0  0  0  0  0999 V2000
  189.2990  176.5550  147.2600 C   0  0  0  0  0  3  0  0  0  0  0  0
  186.3320  178.0680  146.1220 N   0  0  0  0  0  0  0  0  0  0  0  0
  189.3770  175.3190  146.4110 C   0  0  0  0  0  2  0  0  0  0  0  0
  184.4760  178.5320  144.5000 C   0  0  0  0  0  3  0  0  0  0  0  0
  184.1100  178.5320  143.1430 C   0  0  0  0  0  3  0  0  0  0  0  0
  186.3290  177.7330  142.5130 C   0  0  0  0  0  3  0  0  0  0  0  0
  187.9470  177.3960  144.5300 C   0  0  2  0  0  3  0  0  0  0  0  0
  189.6520  175.6270  144.9420 C   0  0  2  0  0  3  0  0  0  0  0  0
  188.3200  175.9460  144.2780 C   0  0  0  0  0  2  0  0  0  0  0  0
  187.5400  177.6180  145.9700 C   0  0  0  0  0  0  0  0  0  0  0  0
  185.0290  178.1330  142.1450 C   0  0  0  0  0  0  0  0  0  0  0  0
  185.7670  178.1260  144.8260 C   0  0  0  0  0  0  0  0  0  0  0  0
  186.6620  177.7330  143.8670 C   0  0  0  0  0  0  0  0  0  0  0  0
  188.4450  177.5190  147.0730 N   0  0  0  0  0  0  0  0  0  0  0  0
  185.5370  177.7270  139.7500 O   0  0  0  0  0  0  0  0  0  0  0  0
  184.6380  178.1390  140.7270 C   0  0  0  0  0  0  0  0  0  0  0  0
  183.4850  178.5150  140.3850 O   0  0  0  0  0  1  0  0  0  0  0  0
  189.9700  173.1610  145.0130 C   0  0  0  0  0  1  0  0  0  0  0  0
  190.3700  174.4410  144.2680 C   0  0  2  0  0  3  0  0  0  0  0  0
  193.7860  174.8800  145.4750 C   0  0  1  0  0  3  0  0  0  0  0  0
  192.3550  173.8950  143.0810 C   0  0  0  0  0  2  0  0  0  0  0  0
  194.6140  173.1550  143.8800 N   0  0  0  0  0  2  0  0  0  0  0  0
  192.5090  174.0530  145.3860 C   0  0  1  0  0  3  0  0  0  0  0  0
  192.7980  174.8780  146.6190 C   0  0  0  0  0  2  0  0  0  0  0  0
  193.8940  174.0000  142.9020 C   0  0  0  0  0  2  0  0  0  0  0  0
  191.8350  174.6550  144.2390 N   0  0  0  0  0  0  0  0  0  0  0  0
  194.8320  173.8060  145.1970 C   0  0  1  0  0  3  0  0  0  0  0  0
  196.2270  174.4060  145.2410 C   0  0  0  0  0  2  0  0  0  0  0  0
  197.1440  173.5540  146.0990 C   0  0  0  0  0  1  0  0  0  0  0  0
  3  1  1  0  0  0  0
  4 12  1  0  0  0  0
  5  4  2  0  0  0  0
  6 13  1  0  0  0  0
  7  9  1  1  0  0  0
  7 10  1  0  0  0  0
  8 19  1  6  0  0  0
  8  3  1  0  0  0  0
  9  8  1  0  0  0  0
 10  2  2  0  0  0  0
 10 14  1  0  0  0  0
 11  6  2  0  0  0  0
 11  5  1  0  0  0  0
 12  2  1  0  0  0  0
 13  7  1  0  0  0  0
 13 12  2  0  0  0  0
 14  1  2  0  0  0  0
 15 16  2  0  0  0  0
 16 11  1  0  0  0  0
 17 16  1  0  0  0  0
 19 18  1  1  0  0  0
 20 24  1  1  0  0  0
 21 26  1  0  0  0  0
 22 27  1  0  0  0  0
 23 20  1  0  0  0  0
 23 24  1  1  0  0  0
 25 21  1  0  0  0  0
 25 22  1  0  0  0  0
 26 19  1  0  0  0  0
 26 23  1  0  0  0  0
 27 28  1  6  0  0  0
 27 20  1  0  0  0  0
 28 29  1  0  0  0  0
M  END
>  <MODEL>
4

>  <REMARK>
 VINA RESULT:      -7.5      3.745      8.542
  Name = 
  4 active torsions:
  status: ('A' for Active; 'I' for Inactive)
    1  A    between atoms: C_13  and  C_27
    2  A    between atoms: C_16  and  C_17
    3  A    between atoms: C_24  and  C_28
    4  A    between atoms: N_25  and  C_27
                            x       y       z     vdW  Elec       q    Type
                         _______ _______ _______ _____ _____    ______ ____

>  <TORSDO>
F 4

$$$$
=
 OpenBabel11062422433D

 29 33  0  0  1  0  0  0  0  0999 V2000
  189.7600  173.9760  140.5180 C   0  0  0  0  0  3  0  0  0  0  0  0
  187.2120  176.4010  140.4000 N   0  0  0  0  0  0  0  0  0  0  0  0
  190.5020  174.3480  141.7700 C   0  0  0  0  0  2  0  0  0  0  0  0
  185.6580  178.1350  141.3330 C   0  0  0  0  0  3  0  0  0  0  0  0
  184.9970  178.5820  142.4900 C   0  0  0  0  0  3  0  0  0  0  0  0
  185.9920  176.7740  143.7940 C   0  0  0  0  0  3  0  0  0  0  0  0
  187.5410  175.1970  142.4100 C   0  0  2  0  0  3  0  0  0  0  0  0
  189.6880  174.1000  143.0360 C   0  0  2  0  0  3  0  0  0  0  0  0
  188.7950  175.3120  143.2580 C   0  0  0  0  0  2  0  0  0  0  0  0
  187.8470  175.4080  140.9430 C   0  0  0  0  0  0  0  0  0  0  0  0
  185.1610  177.9080  143.7230 C   0  0  0  0  0  0  0  0  0  0  0  0
  186.4760  177.0140  141.4430 C   0  0  0  0  0  0  0  0  0  0  0  0
  186.6440  176.3580  142.6330 C   0  0  0  0  0  0  0  0  0  0  0  0
  188.6250  174.4990  140.1570 N   0  0  0  0  0  0  0  0  0  0  0  0
  184.5850  177.6880  146.1270 O   0  0  0  0  0  1  0  0  0  0  0  0
  184.4630  178.3810  144.9280 C   0  0  0  0  0  0  0  0  0  0  0  0
  183.7490  179.4190  144.8860 O   0  0  0  0  0  0  0  0  0  0  0  0
  190.0290  172.6850  145.0540 C   0  0  0  0  0  1  0  0  0  0  0  0
  190.6230  173.8380  144.2350 C   0  0  2  0  0  3  0  0  0  0  0  0
  190.1600  176.3060  146.8830 C   0  0  1  0  0  3  0  0  0  0  0  0
  192.2730  175.3390  145.0540 C   0  0  0  0  0  2  0  0  0  0  0  0
  192.6110  176.3550  147.3210 N   0  0  0  0  0  2  0  0  0  0  0  0
  190.4760  174.8830  146.4400 C   0  0  1  0  0  3  0  0  0  0  0  0
  189.0940  175.2360  146.9410 C   0  0  0  0  0  2  0  0  0  0  0  0
  192.6650  176.6040  145.8650 C   0  0  0  0  0  2  0  0  0  0  0  0
  190.8190  175.0690  145.0330 N   0  0  0  0  0  0  0  0  0  0  0  0
  191.2610  176.5260  147.9140 C   0  0  1  0  0  3  0  0  0  0  0  0
  191.1450  177.9150  148.5190 C   0  0  0  0  0  2  0  0  0  0  0  0
  191.5670  177.8970  149.9770 C   0  0  0  0  0  1  0  0  0  0  0  0
  1  3  1  0  0  0  0
  2 10  2  0  0  0  0
  2 12  1  0  0  0  0
  3  8  1  0  0  0  0
  4 12  2  0  0  0  0
  4  5  1  0  0  0  0
  5 11  2  0  0  0  0
  7 13  1  0  0  0  0
  7  9  1  1  0  0  0
  8  9  1  0  0  0  0
  8 19  1  1  0  0  0
 10  7  1  0  0  0  0
 11  6  1  0  0  0  0
 11 16  1  0  0  0  0
 12 13  1  0  0  0  0
 13  6  2  0  0  0  0
 14  1  2  0  0  0  0
 14 10  1  0  0  0  0
 16 15  1  0  0  0  0
 17 16  2  0  0  0  0
 19 26  1  0  0  0  0
 19 18  1  1  0  0  0
 20 24  1  1  0  0  0
 20 27  1  0  0  0  0
 21 25  1  0  0  0  0
 22 27  1  0  0  0  0
 23 20  1  0  0  0  0
 23 24  1  6  0  0  0
 25 22  1  0  0  0  0
 26 21  1  0  0  0  0
 26 23  1  0  0  0  0
 27 28  1  6  0  0  0
 28 29  1  0  0  0  0
M  END
>  <MODEL>
5

>  <REMARK>
 VINA RESULT:      -7.5      3.823      6.980
  Name = 
  4 active torsions:
  status: ('A' for Active; 'I' for Inactive)
    1  A    between atoms: C_13  and  C_27
    2  A    between atoms: C_16  and  C_17
    3  A    between atoms: C_24  and  C_28
    4  A    between atoms: N_25  and  C_27
                            x       y       z     vdW  Elec       q    Type
                         _______ _______ _______ _____ _____    ______ ____

>  <TORSDO>
F 4

$$$$
=
 OpenBabel11062422433D

 29 33  0  0  1  0  0  0  0  0999 V2000
  190.9620  176.4760  147.7120 C   0  0  0  0  0  3  0  0  0  0  0  0
  187.7580  177.8670  147.2820 N   0  0  0  0  0  0  0  0  0  0  0  0
  190.8880  175.2290  146.8780 C   0  0  0  0  0  2  0  0  0  0  0  0
  185.5610  178.2390  146.1300 C   0  0  0  0  0  3  0  0  0  0  0  0
  184.8900  178.2030  144.8960 C   0  0  0  0  0  3  0  0  0  0  0  0
  186.9310  177.4710  143.7740 C   0  0  0  0  0  3  0  0  0  0  0  0
  188.9840  177.2230  145.3630 C   0  0  2  0  0  3  0  0  0  0  0  0
  190.8030  175.5220  145.3830 C   0  0  2  0  0  3  0  0  0  0  0  0
  189.3420  175.7830  145.0440 C   0  0  0  0  0  2  0  0  0  0  0  0
  188.9140  177.4560  146.8570 C   0  0  0  0  0  0  0  0  0  0  0  0
  185.5680  177.8200  143.7160 C   0  0  0  0  0  0  0  0  0  0  0  0
  186.9070  177.8830  146.1510 C   0  0  0  0  0  0  0  0  0  0  0  0
  187.5690  177.5050  145.0140 C   0  0  0  0  0  0  0  0  0  0  0  0
  190.0530  177.4070  147.7210 N   0  0  0  0  0  0  0  0  0  0  0  0
  185.5380  177.4560  141.2600 O   0  0  0  0  0  0  0  0  0  0  0  0
  184.8580  177.7880  142.4270 C   0  0  0  0  0  0  0  0  0  0  0  0
  183.6290  178.0600  142.3680 O   0  0  0  0  0  1  0  0  0  0  0  0
  192.6660  174.8450  143.8790 C   0  0  0  0  0  1  0  0  0  0  0  0
  191.3890  174.3490  144.5710 C   0  0  2  0  0  3  0  0  0  0  0  0
  189.2260  174.1460  141.6380 C   0  0  1  0  0  3  0  0  0  0  0  0
  190.6190  172.3550  143.5350 C   0  0  0  0  0  2  0  0  0  0  0  0
  190.0370  171.8430  141.1500 N   0  0  0  0  0  2  0  0  0  0  0  0
  190.6130  174.2830  142.2530 C   0  0  1  0  0  3  0  0  0  0  0  0
  189.8850  175.5030  141.7380 C   0  0  0  0  0  2  0  0  0  0  0  0
  189.6550  171.6230  142.5620 C   0  0  0  0  0  2  0  0  0  0  0  0
  190.3900  173.8140  143.6180 N   0  0  0  0  0  0  0  0  0  0  0  0
  189.5000  173.0980  140.5660 C   0  0  1  0  0  3  0  0  0  0  0  0
  188.2290  172.7930  139.7910 C   0  0  0  0  0  2  0  0  0  0  0  0
  188.3700  173.2300  138.3450 C   0  0  0  0  0  1  0  0  0  0  0  0
  1 14  2  0  0  0  0
  3  1  1  0  0  0  0
  4 12  1  0  0  0  0
  5  4  2  0  0  0  0
  6 13  1  0  0  0  0
  7  9  1  1  0  0  0
  7 10  1  0  0  0  0
  8 19  1  6  0  0  0
  8  3  1  0  0  0  0
  9  8  1  0  0  0  0
 10  2  2  0  0  0  0
 10 14  1  0  0  0  0
 11  6  2  0  0  0  0
 11  5  1  0  0  0  0
 12  2  1  0  0  0  0
 13  7  1  0  0  0  0
 13 12  2  0  0  0  0
 15 16  2  0  0  0  0
 16 11  1  0  0  0  0
 17 16  1  0  0  0  0
 19 18  1  6  0  0  0
 20 24  1  6  0  0  0
 20 23  1  0  0  0  0
 21 26  1  0  0  0  0
 22 25  1  0  0  0  0
 23 24  1  1  0  0  0
 23 26  1  0  0  0  0
 25 21  1  0  0  0  0
 26 19  1  0  0  0  0
 27 28  1  1  0  0  0
 27 22  1  0  0  0  0
 27 20  1  0  0  0  0
 29 28  1  0  0  0  0
M  END
>  <MODEL>
6

>  <REMARK>
 VINA RESULT:      -7.1      3.690      7.559
  Name = 
  4 active torsions:
  status: ('A' for Active; 'I' for Inactive)
    1  A    between atoms: C_13  and  C_27
    2  A    between atoms: C_16  and  C_17
    3  A    between atoms: C_24  and  C_28
    4  A    between atoms: N_25  and  C_27
                            x       y       z     vdW  Elec       q    Type
                         _______ _______ _______ _____ _____    ______ ____

>  <TORSDO>
F 4

$$$$
=
 OpenBabel11062422433D

 29 33  0  0  1  0  0  0  0  0999 V2000
  192.9930  177.1030  144.9670 C   0  0  0  0  0  3  0  0  0  0  0  0
  195.6700  174.9000  145.5710 N   0  0  0  0  0  0  0  0  0  0  0  0
  192.1760  176.3500  143.9560 C   0  0  0  0  0  2  0  0  0  0  0  0
  196.8410  172.6820  145.6250 C   0  0  0  0  0  3  0  0  0  0  0  0
  196.6620  171.2900  145.6950 C   0  0  0  0  0  3  0  0  0  0  0  0
  194.2380  171.5750  145.7630 C   0  0  0  0  0  3  0  0  0  0  0  0
  193.4600  174.0630  145.6930 C   0  0  2  0  0  3  0  0  0  0  0  0
  191.5140  175.1050  144.5400 C   0  0  2  0  0  3  0  0  0  0  0  0
  192.5320  173.9750  144.4950 C   0  0  0  0  0  2  0  0  0  0  0  0
  194.4140  175.2300  145.5660 C   0  0  0  0  0  0  0  0  0  0  0  0
  195.3650  170.7300  145.7630 C   0  0  0  0  0  0  0  0  0  0  0  0
  195.7040  173.4860  145.6220 C   0  0  0  0  0  0  0  0  0  0  0  0
  194.4440  172.9520  145.6810 C   0  0  0  0  0  0  0  0  0  0  0  0
  194.0020  176.5990  145.6150 N   0  0  0  0  0  0  0  0  0  0  0  0
  195.5240  168.4660  144.7570 O   0  0  0  0  0  0  0  0  0  0  0  0
  195.1870  169.2720  145.8390 C   0  0  0  0  0  0  0  0  0  0  0  0
  194.7290  168.7390  146.8850 O   0  0  0  0  0  1  0  0  0  0  0  0
  190.3520  175.3690  142.3560 C   0  0  0  0  0  1  0  0  0  0  0  0
  190.2280  174.7630  143.7600 C   0  0  2  0  0  3  0  0  0  0  0  0
  188.0730  175.7260  146.5430 C   0  0  1  0  0  3  0  0  0  0  0  0
  188.4280  176.3100  143.6650 C   0  0  0  0  0  2  0  0  0  0  0  0
  187.4770  177.8550  145.3960 N   0  0  0  0  0  2  0  0  0  0  0  0
  189.3590  175.8960  145.7440 C   0  0  1  0  0  3  0  0  0  0  0  0
  189.3640  175.1140  147.0370 C   0  0  0  0  0  2  0  0  0  0  0  0
  187.1490  176.9340  144.2870 C   0  0  0  0  0  2  0  0  0  0  0  0
  189.0270  175.2350  144.4850 N   0  0  0  0  0  0  0  0  0  0  0  0
  187.6550  177.1830  146.7080 C   0  0  1  0  0  3  0  0  0  0  0  0
  186.3630  177.2720  147.5030 C   0  0  0  0  0  2  0  0  0  0  0  0
  185.7480  178.6520  147.3640 C   0  0  0  0  0  1  0  0  0  0  0  0
  1 14  2  0  0  0  0
  2 12  1  0  0  0  0
  3  8  1  0  0  0  0
  3  1  1  0  0  0  0
  4  5  1  0  0  0  0
  5 11  2  0  0  0  0
  7  9  1  6  0  0  0
  8 19  1  6  0  0  0
  9  8  1  0  0  0  0
 10  2  2  0  0  0  0
 10 14  1  0  0  0  0
 10  7  1  0  0  0  0
 11  6  1  0  0  0  0
 11 16  1  0  0  0  0
 12  4  2  0  0  0  0
 12 13  1  0  0  0  0
 13  7  1  0  0  0  0
 13  6  2  0  0  0  0
 15 16  2  0  0  0  0
 16 17  1  0  0  0  0
 19 18  1  6  0  0  0
 19 26  1  0  0  0  0
 20 27  1  0  0  0  0
 20 24  1  1  0  0  0
 21 25  1  0  0  0  0
 21 26  1  0  0  0  0
 22 27  1  0  0  0  0
 23 20  1  0  0  0  0
 23 24  1  1  0  0  0
 25 22  1  0  0  0  0
 26 23  1  0  0  0  0
 27 28  1  6  0  0  0
 29 28  1  0  0  0  0
M  END
>  <MODEL>
7

>  <REMARK>
 VINA RESULT:      -6.9      3.446      4.899
  Name = 
  4 active torsions:
  status: ('A' for Active; 'I' for Inactive)
    1  A    between atoms: C_13  and  C_27
    2  A    between atoms: C_16  and  C_17
    3  A    between atoms: C_24  and  C_28
    4  A    between atoms: N_25  and  C_27
                            x       y       z     vdW  Elec       q    Type
                         _______ _______ _______ _____ _____    ______ ____

>  <TORSDO>
F 4

$$$$
=
 OpenBabel11062422433D

 29 33  0  0  1  0  0  0  0  0999 V2000
  191.4660  176.4960  147.8400 C   0  0  0  0  0  3  0  0  0  0  0  0
  188.2160  177.4850  146.9200 N   0  0  0  0  0  0  0  0  0  0  0  0
  191.7910  175.4520  146.8090 C   0  0  0  0  0  2  0  0  0  0  0  0
  186.2670  177.7780  145.3690 C   0  0  0  0  0  3  0  0  0  0  0  0
  185.8770  177.9070  144.0250 C   0  0  0  0  0  3  0  0  0  0  0  0
  188.2010  177.7170  143.3020 C   0  0  0  0  0  3  0  0  0  0  0  0
  189.9010  177.4330  145.2590 C   0  0  2  0  0  3  0  0  0  0  0  0
  191.9570  176.0360  145.4090 C   0  0  2  0  0  3  0  0  0  0  0  0
  190.5730  176.1560  144.7890 C   0  0  0  0  0  2  0  0  0  0  0  0
  189.4890  177.3370  146.7120 C   0  0  0  0  0  0  0  0  0  0  0  0
  186.8370  177.8770  142.9880 C   0  0  0  0  0  0  0  0  0  0  0  0
  187.6230  177.6170  145.6420 C   0  0  0  0  0  0  0  0  0  0  0  0
  188.5590  177.5810  144.6430 C   0  0  0  0  0  0  0  0  0  0  0  0
  190.4200  177.2680  147.7960 N   0  0  0  0  0  0  0  0  0  0  0  0
  187.3010  177.6950  140.5560 O   0  0  0  0  0  0  0  0  0  0  0  0
  186.4210  178.0160  141.5830 C   0  0  0  0  0  0  0  0  0  0  0  0
  185.2630  178.4250  141.2990 O   0  0  0  0  0  1  0  0  0  0  0  0
  193.4750  176.0170  143.4380 C   0  0  0  0  0  1  0  0  0  0  0  0
  192.8990  175.1520  144.5660 C   0  0  2  0  0  3  0  0  0  0  0  0
  191.0690  172.9600  142.2940 C   0  0  1  0  0  3  0  0  0  0  0  0
  192.9200  172.7760  144.5930 C   0  0  0  0  0  2  0  0  0  0  0  0
  192.6550  171.0950  142.7520 N   0  0  0  0  0  2  0  0  0  0  0  0
  192.2940  173.8070  142.6170 C   0  0  1  0  0  3  0  0  0  0  0  0
  191.2080  174.3510  141.7190 C   0  0  0  0  0  2  0  0  0  0  0  0
  192.3150  171.4150  144.1550 C   0  0  0  0  0  2  0  0  0  0  0  0
  192.1920  173.9510  144.0660 N   0  0  0  0  0  0  0  0  0  0  0  0
  191.7370  171.7010  141.7540 C   0  0  1  0  0  3  0  0  0  0  0  0
  190.6870  170.6820  141.3460 C   0  0  0  0  0  2  0  0  0  0  0  0
  190.7270  170.4480  139.8470 C   0  0  0  0  0  1  0  0  0  0  0  0
  3  1  1  0  0  0  0
  4 12  1  0  0  0  0
  5  4  2  0  0  0  0
  6 13  1  0  0  0  0
  7  9  1  6  0  0  0
  7 10  1  0  0  0  0
  8 19  1  6  0  0  0
  8  3  1  0  0  0  0
  9  8  1  0  0  0  0
 10  2  2  0  0  0  0
 10 14  1  0  0  0  0
 11  6  2  0  0  0  0
 11  5  1  0  0  0  0
 12  2  1  0  0  0  0
 13  7  1  0  0  0  0
 13 12  2  0  0  0  0
 14  1  2  0  0  0  0
 15 16  2  0  0  0  0
 16 11  1  0  0  0  0
 17 16  1  0  0  0  0
 19 18  1  6  0  0  0
 20 24  1  6  0  0  0
 20 23  1  0  0  0  0
 22 25  1  0  0  0  0
 23 24  1  6  0  0  0
 23 26  1  0  0  0  0
 25 21  1  0  0  0  0
 26 19  1  0  0  0  0
 26 21  1  0  0  0  0
 27 28  1  1  0  0  0
 27 20  1  0  0  0  0
 27 22  1  0  0  0  0
 29 28  1  0  0  0  0
M  END
>  <MODEL>
8

>  <REMARK>
 VINA RESULT:      -6.8      3.536      7.872
  Name = 
  4 active torsions:
  status: ('A' for Active; 'I' for Inactive)
    1  A    between atoms: C_13  and  C_27
    2  A    between atoms: C_16  and  C_17
    3  A    between atoms: C_24  and  C_28
    4  A    between atoms: N_25  and  C_27
                            x       y       z     vdW  Elec       q    Type
                         _______ _______ _______ _____ _____    ______ ____

>  <TORSDO>
F 4

$$$$
=
 OpenBabel11062422433D

 29 33  0  0  1  0  0  0  0  0999 V2000
  191.3550  176.5180  147.2590 C   0  0  0  0  0  3  0  0  0  0  0  0
  187.9130  177.1680  146.9080 N   0  0  0  0  0  0  0  0  0  0  0  0
  191.6440  175.6550  146.0640 C   0  0  0  0  0  2  0  0  0  0  0  0
  185.7390  177.3800  145.6770 C   0  0  0  0  0  3  0  0  0  0  0  0
  185.1460  177.6140  144.4240 C   0  0  0  0  0  3  0  0  0  0  0  0
  187.3470  177.8200  143.3870 C   0  0  0  0  0  3  0  0  0  0  0  0
  189.3340  177.5360  145.0520 C   0  0  2  0  0  3  0  0  0  0  0  0
  191.5370  176.4160  144.7460 C   0  0  2  0  0  3  0  0  0  0  0  0
  190.0730  176.4230  144.3310 C   0  0  0  0  0  2  0  0  0  0  0  0
  189.1510  177.2160  146.5190 C   0  0  0  0  0  0  0  0  0  0  0  0
  185.9430  177.8330  143.2760 C   0  0  0  0  0  0  0  0  0  0  0  0
  187.1290  177.3700  145.7470 C   0  0  0  0  0  0  0  0  0  0  0  0
  187.9080  177.5750  144.6410 C   0  0  0  0  0  0  0  0  0  0  0  0
  190.2310  177.1450  147.4550 N   0  0  0  0  0  0  0  0  0  0  0  0
  183.9290  178.1160  141.8530 O   0  0  0  0  0  1  0  0  0  0  0  0
  185.3140  178.0790  141.9690 C   0  0  0  0  0  0  0  0  0  0  0  0
  186.0230  178.2590  140.9430 O   0  0  0  0  0  0  0  0  0  0  0  0
  191.5610  175.3840  142.4810 C   0  0  0  0  0  1  0  0  0  0  0  0
  192.4420  175.7690  143.6770 C   0  0  2  0  0  3  0  0  0  0  0  0
  193.1780  172.3430  144.6940 C   0  0  1  0  0  3  0  0  0  0  0  0
  194.6020  174.7940  143.8500 C   0  0  0  0  0  2  0  0  0  0  0  0
  195.3840  172.4320  143.5400 N   0  0  0  0  0  2  0  0  0  0  0  0
  192.8050  173.3520  143.6160 C   0  0  1  0  0  3  0  0  0  0  0  0
  191.7420  172.4830  144.2460 C   0  0  0  0  0  2  0  0  0  0  0  0
  195.5350  173.6590  144.3510 C   0  0  0  0  0  2  0  0  0  0  0  0
  193.1850  174.6180  144.2370 N   0  0  0  0  0  0  0  0  0  0  0  0
  194.2650  171.5550  143.9720 C   0  0  1  0  0  3  0  0  0  0  0  0
  194.8020  170.4540  144.8700 C   0  0  0  0  0  2  0  0  0  0  0  0
  194.3120  169.0970  144.3990 C   0  0  0  0  0  1  0  0  0  0  0  0
  1 14  2  0  0  0  0
  3  1  1  0  0  0  0
  4 12  1  0  0  0  0
  5  4  2  0  0  0  0
  6 13  1  0  0  0  0
  7  9  1  6  0  0  0
  7 10  1  0  0  0  0
  8 19  1  6  0  0  0
  8  3  1  0  0  0  0
  9  8  1  0  0  0  0
 10  2  2  0  0  0  0
 10 14  1  0  0  0  0
 11  6  2  0  0  0  0
 11  5  1  0  0  0  0
 12  2  1  0  0  0  0
 13  7  1  0  0  0  0
 13 12  2  0  0  0  0
 15 16  1  0  0  0  0
 16 11  1  0  0  0  0
 17 16  2  0  0  0  0
 19 18  1  6  0  0  0
 19 26  1  0  0  0  0
 20 24  1  6  0  0  0
 21 26  1  0  0  0  0
 21 25  1  0  0  0  0
 22 27  1  0  0  0  0
 22 25  1  0  0  0  0
 23 26  1  0  0  0  0
 23 24  1  1  0  0  0
 23 20  1  0  0  0  0
 27 20  1  0  0  0  0
 27 28  1  1  0  0  0
 29 28  1  0  0  0  0
M  END
>  <MODEL>
9

>  <REMARK>
 VINA RESULT:      -6.8      3.756      8.479
  Name = 
  4 active torsions:
  status: ('A' for Active; 'I' for Inactive)
    1  A    between atoms: C_13  and  C_27
    2  A    between atoms: C_16  and  C_17
    3  A    between atoms: C_24  and  C_28
    4  A    between atoms: N_25  and  C_27
                            x       y       z     vdW  Elec       q    Type
                         _______ _______ _______ _____ _____    ______ ____

>  <TORSDO>
F 4

$$$$
