=
 OpenBabel11062422193D

 41 46  0  0  1  0  0  0  0  0999 V2000
  189.5190  176.2760  144.4680 C   0  0  0  0  0  0  0  0  0  0  0  0
  187.3740  177.1120  145.2940 C   0  0  0  0  0  0  0  0  0  0  0  0
  189.4320  177.3540  146.6410 C   0  0  0  0  0  2  0  0  0  0  0  0
  186.0680  177.1860  145.1940 C   0  0  0  0  0  0  0  0  0  0  0  0
  189.2720  173.1780  142.2670 C   0  0  0  0  0  1  0  0  0  0  0  0
  188.6720  177.0350  145.3880 C   0  0  0  0  0  0  0  0  0  0  0  0
  192.8800  175.5590  146.8130 C   0  0  0  0  0  2  0  0  0  0  0  0
  191.2920  174.1930  143.4420 C   0  0  1  0  0  3  0  0  0  0  0  0
  193.0690  173.5560  145.5610 O   0  0  0  0  0  0  0  0  0  0  0  0
  191.7970  175.2440  144.4640 C   0  0  1  0  0  3  0  0  0  0  0  0
  190.7230  176.1540  144.9910 C   0  0  0  0  0  0  0  0  0  0  0  0
  189.7480  174.0860  143.3860 C   0  0  1  0  0  3  0  0  0  0  0  0
  192.5840  174.6750  145.6210 C   0  0  0  0  0  0  0  0  0  0  0  0
  189.0830  175.4630  143.2920 C   0  0  0  0  0  2  0  0  0  0  0  0
  190.7460  176.7200  146.3280 C   0  0  0  0  0  0  0  0  0  0  0  0
  191.6820  176.3880  147.2180 C   0  0  0  0  0  3  0  0  0  0  0  0
  184.2390  178.4770  144.0240 C   0  0  0  0  0  2  0  0  0  0  0  0
  185.5220  177.7320  141.5630 C   0  0  0  0  0  0  0  0  0  0  0  0
  183.4170  178.3010  140.3690 O   0  0  0  0  0  1  0  0  0  0  0  0
  186.1300  177.4550  142.7150 C   0  0  0  0  0  3  0  0  0  0  0  0
  184.1210  178.1990  141.5630 C   0  0  0  0  0  0  0  0  0  0  0  0
  183.5110  178.5040  142.7080 C   0  0  0  0  0  3  0  0  0  0  0  0
  185.4590  177.6540  143.9720 N   0  0  0  0  0  0  0  0  0  0  0  0
  186.7800  177.3280  139.3300 N   0  0  0  0  0  0  0  0  0  0  0  0
  186.2190  177.5080  140.3260 C   0  0  0  0  0  0  0  0  0  0  0  0
  185.3720  178.0770  147.3910 C   0  0  0  0  0  2  0  0  0  0  0  0
  186.0890  176.8800  147.5510 O   0  0  0  0  0  0  0  0  0  0  0  0
  185.2400  176.9550  146.4290 C   0  0  2  0  0  3  0  0  0  0  0  0
  191.8320  174.5110  142.1250 N   0  0  0  0  0  2  0  0  0  0  0  0
  193.2560  174.2170  142.1550 C   0  0  1  0  0  3  0  0  0  0  0  0
  195.2610  172.6810  141.4370 C   0  0  0  0  0  1  0  0  0  0  0  0
  193.5130  172.4400  141.8640 S   0  0  0  0  0  0  0  0  0  0  0  0
  193.9600  175.0220  141.0780 C   0  0  0  0  0  2  0  0  0  0  0  0
  194.4000  176.3660  141.6330 C   0  0  0  0  0  2  0  0  0  0  0  0
  195.8880  176.5720  141.3980 C   0  0  0  0  0  2  0  0  0  0  0  0
  197.6360  173.3980  144.6900 S   0  0  0  0  0  0  0  0  0  0  0  0
  197.5890  175.4480  142.8560 C   0  0  0  0  0  2  0  0  0  0  0  0
  197.0540  174.7900  144.0680 C   0  0  0  0  0  0  0  0  0  0  0  0
  195.9260  175.4560  144.5940 N   0  0  0  0  0  0  0  0  0  0  0  0
  196.6480  176.6450  142.7160 C   0  0  2  0  0  3  0  0  0  0  0  0
  195.6890  176.4860  143.8570 C   0  0  0  0  0  3  0  0  0  0  0  0
  1 11  2  0  0  0  0
  1  6  1  0  0  0  0
  2  6  2  0  0  0  0
  4  2  2  0  0  0  0
  6  3  1  0  0  0  0
  7 16  1  0  0  0  0
  8 29  1  6  0  0  0
  8 10  1  0  0  0  0
  9 13  2  0  0  0  0
 10 11  1  1  0  0  0
 10 13  1  0  0  0  0
 11 15  1  0  0  0  0
 12  5  1  6  0  0  0
 12  8  1  0  0  0  0
 13  7  1  0  0  0  0
 14 12  1  0  0  0  0
 14  1  1  0  0  0  0
 15  3  1  0  0  0  0
 15 16  2  0  0  0  0
 18 20  2  0  0  0  0
 19 21  1  0  0  0  0
 20 23  1  0  0  0  0
 21 18  1  0  0  0  0
 21 22  2  0  0  0  0
 22 17  1  0  0  0  0
 23 17  1  0  0  0  0
 23  4  1  0  0  0  0
 24 25  3  0  0  0  0
 25 18  1  0  0  0  0
 26 27  1  0  0  0  0
 28  4  1  6  0  0  0
 28 26  1  0  0  0  0
 28 27  1  0  0  0  0
 29 30  1  0  0  0  0
 30 33  1  6  0  0  0
 31 32  1  0  0  0  0
 32 30  1  0  0  0  0
 33 34  1  0  0  0  0
 35 34  1  0  0  0  0
 37 38  1  0  0  0  0
 38 39  1  0  0  0  0
 38 36  2  0  0  0  0
 40 35  1  6  0  0  0
 40 37  1  0  0  0  0
 40 41  1  0  0  0  0
 41 39  2  0  0  0  0
M  END
>  <MODEL>
1

>  <REMARK>
 VINA RESULT:      -8.2      0.000      0.000
  Name = 
  10 active torsions:
  status: ('A' for Active; 'I' for Inactive)
    1  A    between atoms: C_1  and  C_6
    2  A    between atoms: C_1  and  C_37
    3  A    between atoms: C_6  and  C_29
    4  A    between atoms: C_7  and  N_33
    5  A    between atoms: C_7  and  C_38
    6  A    between atoms: S_10  and  C_29
    7  A    between atoms: C_16  and  C_41
    8  A    between atoms: C_19  and  N_22
    9  A    between atoms: N_22  and  C_29
   10  A    between atoms: C_25  and  C_37
                            x       y       z     vdW  Elec       q    Type
                         _______ _______ _______ _____ _____    ______ ____

>  <TORSDO>
F 10

$$$$
=
 OpenBabel11062422193D

 41 46  0  0  1  0  0  0  0  0999 V2000
  189.5060  176.1350  144.4010 C   0  0  0  0  0  0  0  0  0  0  0  0
  187.4400  177.0790  145.3090 C   0  0  0  0  0  0  0  0  0  0  0  0
  189.5710  177.2670  146.5470 C   0  0  0  0  0  2  0  0  0  0  0  0
  186.1350  177.2050  145.2700 C   0  0  0  0  0  0  0  0  0  0  0  0
  189.0250  172.9980  142.2950 C   0  0  0  0  0  1  0  0  0  0  0  0
  188.7380  176.9500  145.3410 C   0  0  0  0  0  0  0  0  0  0  0  0
  192.9480  175.3340  146.5960 C   0  0  0  0  0  2  0  0  0  0  0  0
  191.1390  173.9560  143.3430 C   0  0  1  0  0  3  0  0  0  0  0  0
  192.9930  173.2960  145.3880 O   0  0  0  0  0  0  0  0  0  0  0  0
  191.7370  175.0090  144.3110 C   0  0  1  0  0  3  0  0  0  0  0  0
  190.7280  175.9750  144.8670 C   0  0  0  0  0  0  0  0  0  0  0  0
  189.5920  173.9120  143.3660 C   0  0  1  0  0  3  0  0  0  0  0  0
  192.5580  174.4350  145.4430 C   0  0  0  0  0  0  0  0  0  0  0  0
  188.9790  175.3130  143.2680 C   0  0  0  0  0  2  0  0  0  0  0  0
  190.8410  176.5710  146.1860 C   0  0  0  0  0  0  0  0  0  0  0  0
  191.8060  176.2210  147.0370 C   0  0  0  0  0  3  0  0  0  0  0  0
  184.2550  178.4730  144.1570 C   0  0  0  0  0  2  0  0  0  0  0  0
  185.4800  177.7590  141.6580 C   0  0  0  0  0  0  0  0  0  0  0  0
  183.3350  178.3000  140.5260 O   0  0  0  0  0  1  0  0  0  0  0  0
  186.1250  177.4860  142.7910 C   0  0  0  0  0  3  0  0  0  0  0  0
  184.0740  178.2040  141.6990 C   0  0  0  0  0  0  0  0  0  0  0  0
  183.4900  178.4940  142.8620 C   0  0  0  0  0  3  0  0  0  0  0  0
  185.4850  177.6690  144.0670 N   0  0  0  0  0  0  0  0  0  0  0  0
  186.6820  177.3830  139.3890 N   0  0  0  0  0  0  0  0  0  0  0  0
  186.1460  177.5500  140.4020 C   0  0  0  0  0  0  0  0  0  0  0  0
  185.6790  178.1130  147.5230 C   0  0  0  0  0  2  0  0  0  0  0  0
  186.2610  176.8380  147.6150 O   0  0  0  0  0  0  0  0  0  0  0  0
  185.3610  177.0380  146.5490 C   0  0  2  0  0  3  0  0  0  0  0  0
  191.6260  174.2200  141.9930 N   0  0  0  0  0  2  0  0  0  0  0  0
  192.8440  173.4450  141.8100 C   0  0  1  0  0  3  0  0  0  0  0  0
  191.6940  172.7940  139.5410 C   0  0  0  0  0  1  0  0  0  0  0  0
  192.4530  171.9030  140.9290 S   0  0  0  0  0  0  0  0  0  0  0  0
  193.8410  174.2590  141.0050 C   0  0  0  0  0  2  0  0  0  0  0  0
  195.2340  174.1090  141.5930 C   0  0  0  0  0  2  0  0  0  0  0  0
  195.3190  174.8170  142.9350 C   0  0  0  0  0  2  0  0  0  0  0  0
  196.5100  171.0490  145.8250 S   0  0  0  0  0  0  0  0  0  0  0  0
  196.6300  172.8380  143.7370 C   0  0  0  0  0  2  0  0  0  0  0  0
  196.5280  172.5510  145.1850 C   0  0  0  0  0  0  0  0  0  0  0  0
  196.3690  173.7200  145.9600 N   0  0  0  0  0  0  0  0  0  0  0  0
  196.5420  174.3640  143.7200 C   0  0  2  0  0  3  0  0  0  0  0  0
  196.3760  174.7330  145.1640 C   0  0  0  0  0  3  0  0  0  0  0  0
  1 11  2  0  0  0  0
  1  6  1  0  0  0  0
  2  6  2  0  0  0  0
  4  2  2  0  0  0  0
  6  3  1  0  0  0  0
  7 16  1  0  0  0  0
  8 29  1  6  0  0  0
  8 12  1  0  0  0  0
  8 10  1  0  0  0  0
  9 13  2  0  0  0  0
 10 11  1  1  0  0  0
 10 13  1  0  0  0  0
 11 15  1  0  0  0  0
 12  5  1  6  0  0  0
 13  7  1  0  0  0  0
 14 12  1  0  0  0  0
 14  1  1  0  0  0  0
 15  3  1  0  0  0  0
 15 16  2  0  0  0  0
 18 21  1  0  0  0  0
 18 20  2  0  0  0  0
 19 21  1  0  0  0  0
 20 23  1  0  0  0  0
 21 22  2  0  0  0  0
 22 17  1  0  0  0  0
 23 17  1  0  0  0  0
 23  4  1  0  0  0  0
 24 25  3  0  0  0  0
 25 18  1  0  0  0  0
 26 27  1  0  0  0  0
 28  4  1  6  0  0  0
 28 26  1  0  0  0  0
 28 27  1  0  0  0  0
 30 33  1  6  0  0  0
 30 29  1  0  0  0  0
 31 32  1  0  0  0  0
 32 30  1  0  0  0  0
 33 34  1  0  0  0  0
 34 35  1  0  0  0  0
 37 38  1  0  0  0  0
 38 36  2  0  0  0  0
 38 39  1  0  0  0  0
 40 35  1  6  0  0  0
 40 37  1  0  0  0  0
 40 41  1  0  0  0  0
 41 39  2  0  0  0  0
M  END
>  <MODEL>
2

>  <REMARK>
 VINA RESULT:      -7.8      1.086      1.332
  Name = 
  10 active torsions:
  status: ('A' for Active; 'I' for Inactive)
    1  A    between atoms: C_1  and  C_6
    2  A    between atoms: C_1  and  C_37
    3  A    between atoms: C_6  and  C_29
    4  A    between atoms: C_7  and  N_33
    5  A    between atoms: C_7  and  C_38
    6  A    between atoms: S_10  and  C_29
    7  A    between atoms: C_16  and  C_41
    8  A    between atoms: C_19  and  N_22
    9  A    between atoms: N_22  and  C_29
   10  A    between atoms: C_25  and  C_37
                            x       y       z     vdW  Elec       q    Type
                         _______ _______ _______ _____ _____    ______ ____

>  <TORSDO>
F 10

$$$$
=
 OpenBabel11062422193D

 41 46  0  0  1  0  0  0  0  0999 V2000
  189.4540  176.0860  144.4410 C   0  0  0  0  0  0  0  0  0  0  0  0
  187.3970  177.0780  145.3200 C   0  0  0  0  0  0  0  0  0  0  0  0
  189.5230  177.2490  146.5710 C   0  0  0  0  0  2  0  0  0  0  0  0
  186.0950  177.2250  145.2710 C   0  0  0  0  0  0  0  0  0  0  0  0
  188.9330  172.9260  142.3790 C   0  0  0  0  0  1  0  0  0  0  0  0
  188.6920  176.9270  145.3640 C   0  0  0  0  0  0  0  0  0  0  0  0
  192.8660  175.2600  146.6730 C   0  0  0  0  0  2  0  0  0  0  0  0
  191.0570  173.8640  143.4280 C   0  0  1  0  0  3  0  0  0  0  0  0
  192.8850  173.2030  145.4960 O   0  0  0  0  0  0  0  0  0  0  0  0
  191.6660  174.9210  144.3850 C   0  0  1  0  0  3  0  0  0  0  0  0
  190.6690  175.9120  144.9180 C   0  0  0  0  0  0  0  0  0  0  0  0
  189.5080  173.8460  143.4410 C   0  0  1  0  0  3  0  0  0  0  0  0
  192.4690  174.3500  145.5310 C   0  0  0  0  0  0  0  0  0  0  0  0
  188.9210  175.2550  143.3170 C   0  0  0  0  0  2  0  0  0  0  0  0
  190.7840  176.5260  146.2290 C   0  0  0  0  0  0  0  0  0  0  0  0
  191.7360  176.1730  147.0930 C   0  0  0  0  0  3  0  0  0  0  0  0
  184.2300  178.4870  144.1250 C   0  0  0  0  0  2  0  0  0  0  0  0
  185.4880  177.7560  141.6480 C   0  0  0  0  0  0  0  0  0  0  0  0
  183.3580  178.2910  140.4830 O   0  0  0  0  0  1  0  0  0  0  0  0
  186.1180  177.4900  142.7910 C   0  0  0  0  0  3  0  0  0  0  0  0
  184.0810  178.2020  141.6670 C   0  0  0  0  0  0  0  0  0  0  0  0
  183.4830  178.5000  142.8200 C   0  0  0  0  0  3  0  0  0  0  0  0
  185.4610  177.6820  144.0570 N   0  0  0  0  0  0  0  0  0  0  0  0
  186.7200  177.3640  139.3970 N   0  0  0  0  0  0  0  0  0  0  0  0
  186.1700  177.5390  140.4010 C   0  0  0  0  0  0  0  0  0  0  0  0
  185.6210  178.1880  147.4970 C   0  0  0  0  0  2  0  0  0  0  0  0
  186.2000  176.9150  147.6250 O   0  0  0  0  0  0  0  0  0  0  0  0
  185.3100  177.0910  146.5470 C   0  0  2  0  0  3  0  0  0  0  0  0
  191.5570  174.0990  142.0780 N   0  0  0  0  0  2  0  0  0  0  0  0
  192.7120  173.2360  141.8850 C   0  0  1  0  0  3  0  0  0  0  0  0
  191.9040  170.7410  141.7460 C   0  0  0  0  0  1  0  0  0  0  0  0
  192.3580  172.0400  140.5610 S   0  0  0  0  0  0  0  0  0  0  0  0
  193.9150  174.0820  141.5060 C   0  0  0  0  0  2  0  0  0  0  0  0
  194.8080  174.2910  142.7170 C   0  0  0  0  0  2  0  0  0  0  0  0
  194.9940  175.7760  142.9840 C   0  0  0  0  0  2  0  0  0  0  0  0
  197.9390  175.4270  139.0890 S   0  0  0  0  0  0  0  0  0  0  0  0
  196.4720  176.5650  141.1200 C   0  0  0  0  0  2  0  0  0  0  0  0
  197.4760  175.5870  140.6470 C   0  0  0  0  0  0  0  0  0  0  0  0
  197.9410  174.7430  141.6790 N   0  0  0  0  0  0  0  0  0  0  0  0
  196.3980  176.2310  142.6110 C   0  0  2  0  0  3  0  0  0  0  0  0
  197.3550  175.0880  142.7720 C   0  0  0  0  0  3  0  0  0  0  0  0
  1 11  2  0  0  0  0
  1  6  1  0  0  0  0
  2  6  2  0  0  0  0
  4  2  2  0  0  0  0
  6  3  1  0  0  0  0
  7 16  1  0  0  0  0
  8 29  1  6  0  0  0
  8 12  1  0  0  0  0
  8 10  1  0  0  0  0
  9 13  2  0  0  0  0
 10 11  1  1  0  0  0
 10 13  1  0  0  0  0
 11 15  1  0  0  0  0
 12  5  1  6  0  0  0
 13  7  1  0  0  0  0
 14 12  1  0  0  0  0
 14  1  1  0  0  0  0
 15  3  1  0  0  0  0
 15 16  2  0  0  0  0
 18 21  1  0  0  0  0
 18 20  2  0  0  0  0
 19 21  1  0  0  0  0
 20 23  1  0  0  0  0
 21 22  2  0  0  0  0
 22 17  1  0  0  0  0
 23 17  1  0  0  0  0
 23  4  1  0  0  0  0
 24 25  3  0  0  0  0
 25 18  1  0  0  0  0
 26 27  1  0  0  0  0
 28  4  1  6  0  0  0
 28 26  1  0  0  0  0
 28 27  1  0  0  0  0
 30 33  1  6  0  0  0
 30 29  1  0  0  0  0
 32 31  1  0  0  0  0
 32 30  1  0  0  0  0
 33 34  1  0  0  0  0
 34 35  1  0  0  0  0
 36 38  2  0  0  0  0
 37 40  1  0  0  0  0
 38 37  1  0  0  0  0
 38 39  1  0  0  0  0
 39 41  2  0  0  0  0
 40 41  1  0  0  0  0
 40 35  1  6  0  0  0
M  END
>  <MODEL>
3

>  <REMARK>
 VINA RESULT:      -7.7      1.383      1.600
  Name = 
  10 active torsions:
  status: ('A' for Active; 'I' for Inactive)
    1  A    between atoms: C_1  and  C_6
    2  A    between atoms: C_1  and  C_37
    3  A    between atoms: C_6  and  C_29
    4  A    between atoms: C_7  and  N_33
    5  A    between atoms: C_7  and  C_38
    6  A    between atoms: S_10  and  C_29
    7  A    between atoms: C_16  and  C_41
    8  A    between atoms: C_19  and  N_22
    9  A    between atoms: N_22  and  C_29
   10  A    between atoms: C_25  and  C_37
                            x       y       z     vdW  Elec       q    Type
                         _______ _______ _______ _____ _____    ______ ____

>  <TORSDO>
F 10

$$$$
=
 OpenBabel11062422193D

 41 46  0  0  1  0  0  0  0  0999 V2000
  189.3880  176.2200  144.4640 C   0  0  0  0  0  0  0  0  0  0  0  0
  187.2840  177.1490  145.2980 C   0  0  0  0  0  0  0  0  0  0  0  0
  189.3700  177.3640  146.6050 C   0  0  0  0  0  2  0  0  0  0  0  0
  185.9800  177.2620  145.2150 C   0  0  0  0  0  0  0  0  0  0  0  0
  189.0070  173.0680  142.3610 C   0  0  0  0  0  1  0  0  0  0  0  0
  188.5810  177.0330  145.3740 C   0  0  0  0  0  0  0  0  0  0  0  0
  192.7620  175.4640  146.7770 C   0  0  0  0  0  2  0  0  0  0  0  0
  191.0760  174.0520  143.4730 C   0  0  1  0  0  3  0  0  0  0  0  0
  192.8670  173.4200  145.5830 O   0  0  0  0  0  0  0  0  0  0  0  0
  191.6320  175.1150  144.4550 C   0  0  1  0  0  3  0  0  0  0  0  0
  190.5950  176.0740  144.9720 C   0  0  0  0  0  0  0  0  0  0  0  0
  189.5290  173.9930  143.4450 C   0  0  1  0  0  3  0  0  0  0  0  0
  192.4190  174.5550  145.6170 C   0  0  0  0  0  0  0  0  0  0  0  0
  188.9070  175.3870  143.3190 C   0  0  0  0  0  2  0  0  0  0  0  0
  190.6590  176.6780  146.2900 C   0  0  0  0  0  0  0  0  0  0  0  0
  191.5980  176.3430  147.1750 C   0  0  0  0  0  3  0  0  0  0  0  0
  184.1350  178.5210  144.0340 C   0  0  0  0  0  2  0  0  0  0  0  0
  185.4310  177.7750  141.5800 C   0  0  0  0  0  0  0  0  0  0  0  0
  183.3200  178.3080  140.3790 O   0  0  0  0  0  1  0  0  0  0  0  0
  186.0420  177.5140  142.7340 C   0  0  0  0  0  3  0  0  0  0  0  0
  184.0240  178.2240  141.5750 C   0  0  0  0  0  0  0  0  0  0  0  0
  183.4080  178.5290  142.7170 C   0  0  0  0  0  3  0  0  0  0  0  0
  185.3660  177.7130  143.9890 N   0  0  0  0  0  0  0  0  0  0  0  0
  186.6960  177.3700  139.3510 N   0  0  0  0  0  0  0  0  0  0  0  0
  186.1320  177.5510  140.3450 C   0  0  0  0  0  0  0  0  0  0  0  0
  185.3540  178.2360  147.3980 C   0  0  0  0  0  2  0  0  0  0  0  0
  186.0300  177.0180  147.5790 O   0  0  0  0  0  0  0  0  0  0  0  0
  185.1660  177.0940  146.4690 C   0  0  2  0  0  3  0  0  0  0  0  0
  191.6050  174.3130  142.1390 N   0  0  0  0  0  2  0  0  0  0  0  0
  192.8540  173.5780  142.0140 C   0  0  1  0  0  3  0  0  0  0  0  0
  194.2660  171.5730  142.9510 C   0  0  0  0  0  1  0  0  0  0  0  0
  192.5620  171.8210  142.3790 S   0  0  0  0  0  0  0  0  0  0  0  0
  193.3870  173.7280  140.6000 C   0  0  0  0  0  2  0  0  0  0  0  0
  192.2350  173.8100  139.6130 C   0  0  0  0  0  2  0  0  0  0  0  0
  192.3190  172.6730  138.6080 C   0  0  0  0  0  2  0  0  0  0  0  0
  189.1990  174.8330  135.5160 S   0  0  0  0  0  0  0  0  0  0  0  0
  190.8520  172.9140  136.5910 C   0  0  0  0  0  2  0  0  0  0  0  0
  189.7380  173.8780  136.7260 C   0  0  0  0  0  0  0  0  0  0  0  0
  189.2340  173.9450  138.0420 N   0  0  0  0  0  0  0  0  0  0  0  0
  190.9530  172.3610  138.0130 C   0  0  2  0  0  3  0  0  0  0  0  0
  189.8950  173.1100  138.7670 C   0  0  0  0  0  3  0  0  0  0  0  0
  1 11  2  0  0  0  0
  1  6  1  0  0  0  0
  2  6  2  0  0  0  0
  4  2  2  0  0  0  0
  6  3  1  0  0  0  0
  7 16  1  0  0  0  0
  8 29  1  6  0  0  0
  8 10  1  0  0  0  0
  9 13  2  0  0  0  0
 10 11  1  1  0  0  0
 10 13  1  0  0  0  0
 11 15  1  0  0  0  0
 12  5  1  6  0  0  0
 12  8  1  0  0  0  0
 13  7  1  0  0  0  0
 14 12  1  0  0  0  0
 14  1  1  0  0  0  0
 15  3  1  0  0  0  0
 15 16  2  0  0  0  0
 18 20  2  0  0  0  0
 19 21  1  0  0  0  0
 20 23  1  0  0  0  0
 21 18  1  0  0  0  0
 21 22  2  0  0  0  0
 22 17  1  0  0  0  0
 23 17  1  0  0  0  0
 23  4  1  0  0  0  0
 24 25  3  0  0  0  0
 25 18  1  0  0  0  0
 26 27  1  0  0  0  0
 28  4  1  6  0  0  0
 28 26  1  0  0  0  0
 28 27  1  0  0  0  0
 30 33  1  6  0  0  0
 30 29  1  0  0  0  0
 30 32  1  0  0  0  0
 32 31  1  0  0  0  0
 34 33  1  0  0  0  0
 35 34  1  0  0  0  0
 36 38  2  0  0  0  0
 37 38  1  0  0  0  0
 37 40  1  0  0  0  0
 38 39  1  0  0  0  0
 39 41  2  0  0  0  0
 40 35  1  1  0  0  0
 40 41  1  0  0  0  0
M  END
>  <MODEL>
4

>  <REMARK>
 VINA RESULT:      -7.4      2.286      3.985
  Name = 
  10 active torsions:
  status: ('A' for Active; 'I' for Inactive)
    1  A    between atoms: C_1  and  C_6
    2  A    between atoms: C_1  and  C_37
    3  A    between atoms: C_6  and  C_29
    4  A    between atoms: C_7  and  N_33
    5  A    between atoms: C_7  and  C_38
    6  A    between atoms: S_10  and  C_29
    7  A    between atoms: C_16  and  C_41
    8  A    between atoms: C_19  and  N_22
    9  A    between atoms: N_22  and  C_29
   10  A    between atoms: C_25  and  C_37
                            x       y       z     vdW  Elec       q    Type
                         _______ _______ _______ _____ _____    ______ ____

>  <TORSDO>
F 10

$$$$
=
 OpenBabel11062422193D

 41 46  0  0  1  0  0  0  0  0999 V2000
  189.7610  175.8430  143.8530 C   0  0  0  0  0  0  0  0  0  0  0  0
  188.0500  177.2730  144.8600 C   0  0  0  0  0  0  0  0  0  0  0  0
  190.3920  177.3550  145.6440 C   0  0  0  0  0  2  0  0  0  0  0  0
  186.7890  177.5990  145.0160 C   0  0  0  0  0  0  0  0  0  0  0  0
  188.4860  172.4700  142.6270 C   0  0  0  0  0  1  0  0  0  0  0  0
  189.3020  176.9430  144.7000 C   0  0  0  0  0  0  0  0  0  0  0  0
  193.4490  174.9470  145.5570 C   0  0  0  0  0  2  0  0  0  0  0  0
  190.8690  173.2600  143.0560 C   0  0  1  0  0  3  0  0  0  0  0  0
  193.0010  172.7290  144.8530 O   0  0  0  0  0  0  0  0  0  0  0  0
  191.7740  174.3740  143.6450 C   0  0  1  0  0  3  0  0  0  0  0  0
  191.0220  175.5820  144.1290 C   0  0  0  0  0  0  0  0  0  0  0  0
  189.3640  173.4740  143.3500 C   0  0  1  0  0  3  0  0  0  0  0  0
  192.7280  173.9120  144.7210 C   0  0  0  0  0  0  0  0  0  0  0  0
  188.9210  174.9080  143.0430 C   0  0  0  0  0  2  0  0  0  0  0  0
  191.4700  176.4030  145.2400 C   0  0  0  0  0  0  0  0  0  0  0  0
  192.5350  176.0790  145.9730 C   0  0  0  0  0  3  0  0  0  0  0  0
  184.7050  178.6420  144.0400 C   0  0  0  0  0  2  0  0  0  0  0  0
  185.6840  177.7890  141.4770 C   0  0  0  0  0  0  0  0  0  0  0  0
  183.3880  178.0910  140.5720 O   0  0  0  0  0  1  0  0  0  0  0  0
  186.4730  177.6580  142.5420 C   0  0  0  0  0  3  0  0  0  0  0  0
  184.2620  178.1460  141.6520 C   0  0  0  0  0  0  0  0  0  0  0  0
  183.7970  178.5010  142.8500 C   0  0  0  0  0  3  0  0  0  0  0  0
  185.9730  177.9130  143.8670 N   0  0  0  0  0  0  0  0  0  0  0  0
  186.6410  177.2900  139.1170 N   0  0  0  0  0  0  0  0  0  0  0  0
  186.2140  177.5130  140.1700 C   0  0  0  0  0  0  0  0  0  0  0  0
  186.5210  176.6400  147.2770 C   0  0  0  0  0  2  0  0  0  0  0  0
  185.2660  176.8740  146.6900 O   0  0  0  0  0  0  0  0  0  0  0  0
  186.2730  177.8200  146.4110 C   0  0  2  0  0  3  0  0  0  0  0  0
  191.1040  173.1660  141.6200 N   0  0  0  0  0  2  0  0  0  0  0  0
  192.1770  172.2060  141.4150 C   0  0  1  0  0  3  0  0  0  0  0  0
  190.4100  171.3000  139.6980 C   0  0  0  0  0  1  0  0  0  0  0  0
  191.4680  170.5870  140.9890 S   0  0  0  0  0  0  0  0  0  0  0  0
  193.0750  172.6880  140.2890 C   0  0  0  0  0  2  0  0  0  0  0  0
  192.7990  174.1510  139.9890 C   0  0  0  0  0  2  0  0  0  0  0  0
  194.0930  174.8730  139.6500 C   0  0  0  0  0  2  0  0  0  0  0  0
  196.8610  176.7630  143.2180 S   0  0  0  0  0  0  0  0  0  0  0  0
  195.1450  175.0490  141.9170 C   0  0  0  0  0  2  0  0  0  0  0  0
  196.4150  175.8070  141.9720 C   0  0  0  0  0  0  0  0  0  0  0  0
  197.1770  175.6770  140.7910 N   0  0  0  0  0  0  0  0  0  0  0  0
  195.2360  174.3990  140.5360 C   0  0  2  0  0  3  0  0  0  0  0  0
  196.5380  174.9000  139.9860 C   0  0  0  0  0  3  0  0  0  0  0  0
  1 11  2  0  0  0  0
  1  6  1  0  0  0  0
  2  4  2  0  0  0  0
  6  2  2  0  0  0  0
  6  3  1  0  0  0  0
  7 16  1  0  0  0  0
  8 29  1  6  0  0  0
  8 12  1  0  0  0  0
  8 10  1  0  0  0  0
 10 11  1  1  0  0  0
 10 13  1  0  0  0  0
 11 15  1  0  0  0  0
 12  5  1  6  0  0  0
 13  9  2  0  0  0  0
 13  7  1  0  0  0  0
 14 12  1  0  0  0  0
 14  1  1  0  0  0  0
 15  3  1  0  0  0  0
 15 16  2  0  0  0  0
 18 21  1  0  0  0  0
 18 20  2  0  0  0  0
 19 21  1  0  0  0  0
 20 23  1  0  0  0  0
 21 22  2  0  0  0  0
 22 17  1  0  0  0  0
 23 17  1  0  0  0  0
 23  4  1  0  0  0  0
 24 25  3  0  0  0  0
 25 18  1  0  0  0  0
 27 26  1  0  0  0  0
 28  4  1  6  0  0  0
 28 27  1  0  0  0  0
 28 26  1  0  0  0  0
 30 33  1  6  0  0  0
 30 29  1  0  0  0  0
 31 32  1  0  0  0  0
 32 30  1  0  0  0  0
 34 33  1  0  0  0  0
 35 34  1  0  0  0  0
 37 38  1  0  0  0  0
 38 36  2  0  0  0  0
 39 38  1  0  0  0  0
 40 35  1  6  0  0  0
 40 37  1  0  0  0  0
 41 40  1  0  0  0  0
 41 39  2  0  0  0  0
M  END
>  <MODEL>
5

>  <REMARK>
 VINA RESULT:      -7.2      1.565      2.048
  Name = 
  10 active torsions:
  status: ('A' for Active; 'I' for Inactive)
    1  A    between atoms: C_1  and  C_6
    2  A    between atoms: C_1  and  C_37
    3  A    between atoms: C_6  and  C_29
    4  A    between atoms: C_7  and  N_33
    5  A    between atoms: C_7  and  C_38
    6  A    between atoms: S_10  and  C_29
    7  A    between atoms: C_16  and  C_41
    8  A    between atoms: C_19  and  N_22
    9  A    between atoms: N_22  and  C_29
   10  A    between atoms: C_25  and  C_37
                            x       y       z     vdW  Elec       q    Type
                         _______ _______ _______ _____ _____    ______ ____

>  <TORSDO>
F 10

$$$$
=
 OpenBabel11062422193D

 41 46  0  0  1  0  0  0  0  0999 V2000
  189.5440  176.1240  144.3730 C   0  0  0  0  0  0  0  0  0  0  0  0
  187.5290  177.1620  145.2940 C   0  0  0  0  0  0  0  0  0  0  0  0
  189.6910  177.3150  146.4820 C   0  0  0  0  0  2  0  0  0  0  0  0
  186.2290  177.3300  145.2780 C   0  0  0  0  0  0  0  0  0  0  0  0
  188.9160  172.9450  142.3710 C   0  0  0  0  0  1  0  0  0  0  0  0
  188.8230  176.9910  145.3030 C   0  0  0  0  0  0  0  0  0  0  0  0
  193.0040  175.2730  146.5200 C   0  0  0  0  0  2  0  0  0  0  0  0
  191.0820  173.8620  143.3470 C   0  0  1  0  0  3  0  0  0  0  0  0
  192.9570  173.2000  145.3730 O   0  0  0  0  0  0  0  0  0  0  0  0
  191.7350  174.9220  144.2710 C   0  0  1  0  0  3  0  0  0  0  0  0
  190.7700  175.9360  144.8180 C   0  0  0  0  0  0  0  0  0  0  0  0
  189.5350  173.8700  143.4030 C   0  0  1  0  0  3  0  0  0  0  0  0
  192.5600  174.3540  145.4030 C   0  0  0  0  0  0  0  0  0  0  0  0
  188.9670  175.2870  143.2760 C   0  0  0  0  0  2  0  0  0  0  0  0
  190.9300  176.5670  146.1170 C   0  0  0  0  0  0  0  0  0  0  0  0
  191.9010  176.2100  146.9580 C   0  0  0  0  0  3  0  0  0  0  0  0
  184.3540  178.6080  144.1660 C   0  0  0  0  0  2  0  0  0  0  0  0
  185.5290  177.8190  141.6650 C   0  0  0  0  0  0  0  0  0  0  0  0
  183.3760  178.3750  140.5530 O   0  0  0  0  0  1  0  0  0  0  0  0
  186.1860  177.5580  142.7940 C   0  0  0  0  0  3  0  0  0  0  0  0
  184.1310  178.2900  141.7180 C   0  0  0  0  0  0  0  0  0  0  0  0
  183.5710  178.6160  142.8830 C   0  0  0  0  0  3  0  0  0  0  0  0
  185.5690  177.7800  144.0750 N   0  0  0  0  0  0  0  0  0  0  0  0
  186.6890  177.3730  139.3880 N   0  0  0  0  0  0  0  0  0  0  0  0
  186.1710  177.5710  140.4040 C   0  0  0  0  0  0  0  0  0  0  0  0
  185.8280  178.3350  147.5000 C   0  0  0  0  0  2  0  0  0  0  0  0
  186.3950  177.0560  147.6330 O   0  0  0  0  0  0  0  0  0  0  0  0
  185.4770  177.2260  146.5770 C   0  0  2  0  0  3  0  0  0  0  0  0
  191.5490  174.0700  141.9810 N   0  0  0  0  0  2  0  0  0  0  0  0
  192.5040  173.0150  141.6810 C   0  0  1  0  0  3  0  0  0  0  0  0
  193.8740  175.1780  141.1020 C   0  0  0  0  0  1  0  0  0  0  0  0
  194.1910  173.6220  141.9820 S   0  0  0  0  0  0  0  0  0  0  0  0
  192.2230  171.8140  142.5670 C   0  0  0  0  0  2  0  0  0  0  0  0
  192.2200  170.5410  141.7380 C   0  0  0  0  0  2  0  0  0  0  0  0
  190.8200  170.2500  141.2230 C   0  0  0  0  0  2  0  0  0  0  0  0
  193.2800  172.3010  137.5210 S   0  0  0  0  0  0  0  0  0  0  0  0
  192.2070  170.3510  139.1380 C   0  0  0  0  0  2  0  0  0  0  0  0
  192.0600  171.5840  138.3350 C   0  0  0  0  0  0  0  0  0  0  0  0
  190.7580  172.1270  138.4070 N   0  0  0  0  0  0  0  0  0  0  0  0
  190.7960  170.1820  139.7020 C   0  0  2  0  0  3  0  0  0  0  0  0
  190.0470  171.3620  139.1600 C   0  0  0  0  0  3  0  0  0  0  0  0
  1 11  2  0  0  0  0
  1  6  1  0  0  0  0
  2  6  2  0  0  0  0
  4  2  2  0  0  0  0
  6  3  1  0  0  0  0
  7 16  1  0  0  0  0
  8 29  1  6  0  0  0
  8 12  1  0  0  0  0
  8 10  1  0  0  0  0
  9 13  2  0  0  0  0
 10 11  1  1  0  0  0
 10 13  1  0  0  0  0
 11 15  1  0  0  0  0
 12  5  1  6  0  0  0
 13  7  1  0  0  0  0
 14 12  1  0  0  0  0
 14  1  1  0  0  0  0
 15  3  1  0  0  0  0
 15 16  2  0  0  0  0
 18 21  1  0  0  0  0
 18 20  2  0  0  0  0
 19 21  1  0  0  0  0
 20 23  1  0  0  0  0
 21 22  2  0  0  0  0
 22 17  1  0  0  0  0
 23 17  1  0  0  0  0
 23  4  1  0  0  0  0
 24 25  3  0  0  0  0
 25 18  1  0  0  0  0
 26 27  1  0  0  0  0
 28  4  1  6  0  0  0
 28 26  1  0  0  0  0
 28 27  1  0  0  0  0
 30 29  1  0  0  0  0
 30 32  1  0  0  0  0
 30 33  1  1  0  0  0
 31 32  1  0  0  0  0
 34 33  1  0  0  0  0
 35 34  1  0  0  0  0
 36 38  2  0  0  0  0
 37 40  1  0  0  0  0
 38 39  1  0  0  0  0
 38 37  1  0  0  0  0
 39 41  2  0  0  0  0
 40 35  1  1  0  0  0
 41 40  1  0  0  0  0
M  END
>  <MODEL>
6

>  <REMARK>
 VINA RESULT:      -7.2      1.926      3.777
  Name = 
  10 active torsions:
  status: ('A' for Active; 'I' for Inactive)
    1  A    between atoms: C_1  and  C_6
    2  A    between atoms: C_1  and  C_37
    3  A    between atoms: C_6  and  C_29
    4  A    between atoms: C_7  and  N_33
    5  A    between atoms: C_7  and  C_38
    6  A    between atoms: S_10  and  C_29
    7  A    between atoms: C_16  and  C_41
    8  A    between atoms: C_19  and  N_22
    9  A    between atoms: N_22  and  C_29
   10  A    between atoms: C_25  and  C_37
                            x       y       z     vdW  Elec       q    Type
                         _______ _______ _______ _____ _____    ______ ____

>  <TORSDO>
F 10

$$$$
=
 OpenBabel11062422193D

 41 46  0  0  1  0  0  0  0  0999 V2000
  189.3910  175.3920  142.3740 C   0  0  0  0  0  0  0  0  0  0  0  0
  187.3290  176.2770  141.3980 C   0  0  0  0  0  0  0  0  0  0  0  0
  188.5460  174.4150  140.3190 C   0  0  0  0  0  2  0  0  0  0  0  0
  186.3930  177.1940  141.3590 C   0  0  0  0  0  0  0  0  0  0  0  0
  191.5000  177.9680  144.2250 C   0  0  0  0  0  1  0  0  0  0  0  0
  188.2640  175.3670  141.4430 C   0  0  0  0  0  0  0  0  0  0  0  0
  192.2000  173.0750  140.3620 C   0  0  0  0  0  2  0  0  0  0  0  0
  192.1200  175.6440  143.3870 C   0  0  1  0  0  3  0  0  0  0  0  0
  193.7990  174.4600  141.4290 O   0  0  0  0  0  0  0  0  0  0  0  0
  191.6900  174.4220  142.5340 C   0  0  1  0  0  3  0  0  0  0  0  0
  190.2960  174.5200  141.9800 C   0  0  0  0  0  0  0  0  0  0  0  0
  191.1560  176.8490  143.2590 C   0  0  1  0  0  3  0  0  0  0  0  0
  192.6470  174.0570  141.4230 C   0  0  0  0  0  0  0  0  0  0  0  0
  189.6920  176.4280  143.4110 C   0  0  0  0  0  2  0  0  0  0  0  0
  189.9000  173.9270  140.7150 C   0  0  0  0  0  0  0  0  0  0  0  0
  190.7810  173.3350  139.9080 C   0  0  0  0  0  3  0  0  0  0  0  0
  184.3010  178.1270  142.4250 C   0  0  0  0  0  2  0  0  0  0  0  0
  185.5020  177.4730  144.9510 C   0  0  0  0  0  0  0  0  0  0  0  0
  183.8860  179.0140  146.0440 O   0  0  0  0  0  1  0  0  0  0  0  0
  186.0980  177.0650  143.8320 C   0  0  0  0  0  3  0  0  0  0  0  0
  184.3830  178.4320  144.8830 C   0  0  0  0  0  0  0  0  0  0  0  0
  183.8520  178.7700  143.7070 C   0  0  0  0  0  3  0  0  0  0  0  0
  185.6310  177.5060  142.5440 N   0  0  0  0  0  0  0  0  0  0  0  0
  186.4090  176.6590  147.2430 N   0  0  0  0  0  0  0  0  0  0  0  0
  186.0050  177.0230  146.2210 C   0  0  0  0  0  0  0  0  0  0  0  0
  185.9390  176.7190  138.9760 C   0  0  0  0  0  2  0  0  0  0  0  0
  187.0590  177.5560  139.1060 O   0  0  0  0  0  0  0  0  0  0  0  0
  186.0100  177.7700  140.0230 C   0  0  2  0  0  3  0  0  0  0  0  0
  192.2440  175.2320  144.7810 N   0  0  0  0  0  2  0  0  0  0  0  0
  193.6420  174.9040  145.0150 C   0  0  1  0  0  3  0  0  0  0  0  0
  192.8510  176.3510  147.0590 C   0  0  0  0  0  1  0  0  0  0  0  0
  194.3830  176.1590  146.1030 S   0  0  0  0  0  0  0  0  0  0  0  0
  193.7360  173.5360  145.6680 C   0  0  0  0  0  2  0  0  0  0  0  0
  194.6010  172.6140  144.8260 C   0  0  0  0  0  2  0  0  0  0  0  0
  195.8930  172.2900  145.5580 C   0  0  0  0  0  2  0  0  0  0  0  0
  197.3020  176.2690  143.0780 S   0  0  0  0  0  0  0  0  0  0  0  0
  197.3570  174.2190  144.9130 C   0  0  0  0  0  2  0  0  0  0  0  0
  197.1990  174.7010  143.5240 C   0  0  0  0  0  0  0  0  0  0  0  0
  196.8690  173.6650  142.6230 N   0  0  0  0  0  0  0  0  0  0  0  0
  197.1090  172.7190  144.7470 C   0  0  2  0  0  3  0  0  0  0  0  0
  196.8160  172.5610  143.2850 C   0  0  0  0  0  3  0  0  0  0  0  0
  1 14  1  0  0  0  0
  2  6  2  0  0  0  0
  3 15  1  0  0  0  0
  3  6  1  0  0  0  0
  4  2  2  0  0  0  0
  4 23  1  0  0  0  0
  6  1  1  0  0  0  0
  7 13  1  0  0  0  0
  8 29  1  1  0  0  0
 10 13  1  6  0  0  0
 10  8  1  0  0  0  0
 11  1  2  0  0  0  0
 11 10  1  0  0  0  0
 12  8  1  0  0  0  0
 12 14  1  0  0  0  0
 12  5  1  1  0  0  0
 13  9  2  0  0  0  0
 15 11  1  0  0  0  0
 16  7  1  0  0  0  0
 16 15  2  0  0  0  0
 17 23  1  0  0  0  0
 17 22  1  0  0  0  0
 18 25  1  0  0  0  0
 20 18  2  0  0  0  0
 21 18  1  0  0  0  0
 21 19  1  0  0  0  0
 22 21  2  0  0  0  0
 23 20  1  0  0  0  0
 25 24  3  0  0  0  0
 26 27  1  0  0  0  0
 26 28  1  0  0  0  0
 27 28  1  0  0  0  0
 28  4  1  1  0  0  0
 29 30  1  0  0  0  0
 30 33  1  1  0  0  0
 30 32  1  0  0  0  0
 32 31  1  0  0  0  0
 34 35  1  0  0  0  0
 34 33  1  0  0  0  0
 36 38  2  0  0  0  0
 38 37  1  0  0  0  0
 39 41  2  0  0  0  0
 39 38  1  0  0  0  0
 40 37  1  0  0  0  0
 40 35  1  1  0  0  0
 41 40  1  0  0  0  0
M  END
>  <MODEL>
7

>  <REMARK>
 VINA RESULT:      -7.0      2.239      4.809
  Name = 
  10 active torsions:
  status: ('A' for Active; 'I' for Inactive)
    1  A    between atoms: C_1  and  C_6
    2  A    between atoms: C_1  and  C_37
    3  A    between atoms: C_6  and  C_29
    4  A    between atoms: C_7  and  N_33
    5  A    between atoms: C_7  and  C_38
    6  A    between atoms: S_10  and  C_29
    7  A    between atoms: C_16  and  C_41
    8  A    between atoms: C_19  and  N_22
    9  A    between atoms: N_22  and  C_29
   10  A    between atoms: C_25  and  C_37
                            x       y       z     vdW  Elec       q    Type
                         _______ _______ _______ _____ _____    ______ ____

>  <TORSDO>
F 10

$$$$
=
 OpenBabel11062422193D

 41 46  0  0  1  0  0  0  0  0999 V2000
  189.9120  175.9850  144.3680 C   0  0  0  0  0  0  0  0  0  0  0  0
  187.7580  176.9190  145.0550 C   0  0  0  0  0  0  0  0  0  0  0  0
  189.8040  177.3510  146.3710 C   0  0  0  0  0  2  0  0  0  0  0  0
  186.4530  176.9740  144.9350 C   0  0  0  0  0  0  0  0  0  0  0  0
  189.6900  172.6130  142.6110 C   0  0  0  0  0  1  0  0  0  0  0  0
  189.0560  176.8600  145.1680 C   0  0  0  0  0  0  0  0  0  0  0  0
  193.2560  175.6090  146.8140 C   0  0  0  0  0  2  0  0  0  0  0  0
  191.6980  173.7870  143.6500 C   0  0  1  0  0  3  0  0  0  0  0  0
  193.4600  173.4530  145.8500 O   0  0  0  0  0  0  0  0  0  0  0  0
  192.1920  174.9700  144.5220 C   0  0  1  0  0  3  0  0  0  0  0  0
  191.1110  175.9400  144.9110 C   0  0  0  0  0  0  0  0  0  0  0  0
  190.1540  173.6680  143.5980 C   0  0  1  0  0  3  0  0  0  0  0  0
  192.9720  174.5680  145.7520 C   0  0  0  0  0  0  0  0  0  0  0  0
  189.4870  175.0160  143.3100 C   0  0  0  0  0  2  0  0  0  0  0  0
  191.1230  176.6840  146.1580 C   0  0  0  0  0  0  0  0  0  0  0  0
  192.0520  176.4810  147.0920 C   0  0  0  0  0  3  0  0  0  0  0  0
  186.5550  176.9120  142.4110 C   0  0  0  0  0  2  0  0  0  0  0  0
  183.9800  178.1860  142.4460 C   0  0  0  0  0  0  0  0  0  0  0  0
  184.3410  178.8360  140.0740 O   0  0  0  0  0  1  0  0  0  0  0  0
  184.5010  177.7580  143.5950 C   0  0  0  0  0  3  0  0  0  0  0  0
  184.8090  178.2110  141.2250 C   0  0  0  0  0  0  0  0  0  0  0  0
  186.0220  177.6580  141.2200 C   0  0  0  0  0  3  0  0  0  0  0  0
  185.8520  177.2670  143.6560 N   0  0  0  0  0  0  0  0  0  0  0  0
  181.5440  179.0810  142.4100 N   0  0  0  0  0  0  0  0  0  0  0  0
  182.6310  178.6820  142.4260 C   0  0  0  0  0  0  0  0  0  0  0  0
  185.7620  178.1430  147.0000 C   0  0  0  0  0  2  0  0  0  0  0  0
  186.4590  176.9640  147.3120 O   0  0  0  0  0  0  0  0  0  0  0  0
  185.6160  176.9120  146.1840 C   0  0  2  0  0  3  0  0  0  0  0  0
  192.2480  173.9230  142.3060 N   0  0  0  0  0  2  0  0  0  0  0  0
  193.5350  173.2470  142.2920 C   0  0  1  0  0  3  0  0  0  0  0  0
  192.2760  172.8880  140.0160 C   0  0  0  0  0  1  0  0  0  0  0  0
  193.5540  172.0100  140.9590 S   0  0  0  0  0  0  0  0  0  0  0  0
  194.6370  174.2670  142.0630 C   0  0  0  0  0  2  0  0  0  0  0  0
  195.6150  174.2500  143.2250 C   0  0  0  0  0  2  0  0  0  0  0  0
  196.9690  173.7330  142.7670 C   0  0  0  0  0  2  0  0  0  0  0  0
  196.6300  170.2850  146.2260 S   0  0  0  0  0  0  0  0  0  0  0  0
  197.6580  171.7500  144.1360 C   0  0  0  0  0  2  0  0  0  0  0  0
  197.0680  171.6750  145.4910 C   0  0  0  0  0  0  0  0  0  0  0  0
  196.8490  172.9490  146.0580 N   0  0  0  0  0  0  0  0  0  0  0  0
  197.8060  173.2600  143.9490 C   0  0  2  0  0  3  0  0  0  0  0  0
  197.2520  173.8370  145.2170 C   0  0  0  0  0  3  0  0  0  0  0  0
  1 11  2  0  0  0  0
  1  6  1  0  0  0  0
  2  6  2  0  0  0  0
  4  2  2  0  0  0  0
  6  3  1  0  0  0  0
  7 16  1  0  0  0  0
  8 29  1  6  0  0  0
  8 10  1  0  0  0  0
 10 11  1  1  0  0  0
 10 13  1  0  0  0  0
 11 15  1  0  0  0  0
 12  5  1  6  0  0  0
 12  8  1  0  0  0  0
 13  9  2  0  0  0  0
 13  7  1  0  0  0  0
 14 12  1  0  0  0  0
 14  1  1  0  0  0  0
 15  3  1  0  0  0  0
 15 16  2  0  0  0  0
 17 23  1  0  0  0  0
 18 20  2  0  0  0  0
 19 21  1  0  0  0  0
 20 23  1  0  0  0  0
 21 18  1  0  0  0  0
 22 21  2  0  0  0  0
 22 17  1  0  0  0  0
 23  4  1  0  0  0  0
 24 25  3  0  0  0  0
 25 18  1  0  0  0  0
 26 27  1  0  0  0  0
 28  4  1  6  0  0  0
 28 26  1  0  0  0  0
 28 27  1  0  0  0  0
 30 33  1  6  0  0  0
 30 29  1  0  0  0  0
 31 32  1  0  0  0  0
 32 30  1  0  0  0  0
 33 34  1  0  0  0  0
 35 34  1  0  0  0  0
 37 38  1  0  0  0  0
 38 39  1  0  0  0  0
 38 36  2  0  0  0  0
 40 35  1  6  0  0  0
 40 37  1  0  0  0  0
 40 41  1  0  0  0  0
 41 39  2  0  0  0  0
M  END
>  <MODEL>
8

>  <REMARK>
 VINA RESULT:      -7.0      1.535      2.223
  Name = 
  10 active torsions:
  status: ('A' for Active; 'I' for Inactive)
    1  A    between atoms: C_1  and  C_6
    2  A    between atoms: C_1  and  C_37
    3  A    between atoms: C_6  and  C_29
    4  A    between atoms: C_7  and  N_33
    5  A    between atoms: C_7  and  C_38
    6  A    between atoms: S_10  and  C_29
    7  A    between atoms: C_16  and  C_41
    8  A    between atoms: C_19  and  N_22
    9  A    between atoms: N_22  and  C_29
   10  A    between atoms: C_25  and  C_37
                            x       y       z     vdW  Elec       q    Type
                         _______ _______ _______ _____ _____    ______ ____

>  <TORSDO>
F 10

$$$$
=
 OpenBabel11062422193D

 41 46  0  0  1  0  0  0  0  0999 V2000
  189.6310  176.1250  144.3920 C   0  0  0  0  0  0  0  0  0  0  0  0
  187.5900  177.0790  145.3440 C   0  0  0  0  0  0  0  0  0  0  0  0
  189.7380  177.2120  146.5590 C   0  0  0  0  0  2  0  0  0  0  0  0
  186.2870  177.2240  145.3240 C   0  0  0  0  0  0  0  0  0  0  0  0
  189.0790  173.0380  142.2290 C   0  0  0  0  0  1  0  0  0  0  0  0
  188.8860  176.9310  145.3570 C   0  0  0  0  0  0  0  0  0  0  0  0
  193.0870  175.2300  146.5280 C   0  0  0  0  0  2  0  0  0  0  0  0
  191.2200  173.9440  143.2700 C   0  0  1  0  0  3  0  0  0  0  0  0
  193.0890  173.2160  145.2790 O   0  0  0  0  0  0  0  0  0  0  0  0
  191.8450  174.9690  144.2520 C   0  0  1  0  0  3  0  0  0  0  0  0
  190.8560  175.9370  144.8390 C   0  0  0  0  0  0  0  0  0  0  0  0
  189.6720  173.9220  143.3110 C   0  0  1  0  0  3  0  0  0  0  0  0
  192.6700  174.3600  145.3620 C   0  0  0  0  0  0  0  0  0  0  0  0
  189.0790  175.3330  143.2490 C   0  0  0  0  0  2  0  0  0  0  0  0
  190.9940  176.5050  146.1690 C   0  0  0  0  0  0  0  0  0  0  0  0
  191.9630  176.1250  147.0010 C   0  0  0  0  0  3  0  0  0  0  0  0
  184.4390  178.5800  144.2610 C   0  0  0  0  0  2  0  0  0  0  0  0
  185.5690  177.8210  141.7310 C   0  0  0  0  0  0  0  0  0  0  0  0
  183.4230  178.4630  140.6530 O   0  0  0  0  0  1  0  0  0  0  0  0
  186.2280  177.5140  142.8470 C   0  0  0  0  0  3  0  0  0  0  0  0
  184.1850  178.3290  141.8080 C   0  0  0  0  0  0  0  0  0  0  0  0
  183.6450  178.6410  142.9850 C   0  0  0  0  0  3  0  0  0  0  0  0
  185.6290  177.7220  144.1390 N   0  0  0  0  0  0  0  0  0  0  0  0
  186.6970  177.3990  139.4320 N   0  0  0  0  0  0  0  0  0  0  0  0
  186.1940  177.5870  140.4580 C   0  0  0  0  0  0  0  0  0  0  0  0
  185.8620  178.0990  147.5960 C   0  0  0  0  0  2  0  0  0  0  0  0
  186.4360  176.8190  147.6610 O   0  0  0  0  0  0  0  0  0  0  0  0
  185.5260  177.0430  146.6090 C   0  0  2  0  0  3  0  0  0  0  0  0
  191.6940  174.2280  141.9200 N   0  0  0  0  0  2  0  0  0  0  0  0
  192.9890  173.5840  141.7690 C   0  0  1  0  0  3  0  0  0  0  0  0
  192.9350  171.5550  140.1030 C   0  0  0  0  0  1  0  0  0  0  0  0
  192.7880  171.7820  141.8980 S   0  0  0  0  0  0  0  0  0  0  0  0
  193.5740  173.9410  140.4130 C   0  0  0  0  0  2  0  0  0  0  0  0
  194.9120  174.6370  140.5880 C   0  0  0  0  0  2  0  0  0  0  0  0
  196.0350  173.6150  140.6440 C   0  0  0  0  0  2  0  0  0  0  0  0
  196.1880  175.4270  136.0990 S   0  0  0  0  0  0  0  0  0  0  0  0
  196.7220  175.1480  138.7840 C   0  0  0  0  0  2  0  0  0  0  0  0
  196.6270  174.5780  137.4220 C   0  0  0  0  0  0  0  0  0  0  0  0
  196.8850  173.1900  137.3950 N   0  0  0  0  0  0  0  0  0  0  0  0
  197.1070  173.9170  139.6050 C   0  0  2  0  0  3  0  0  0  0  0  0
  197.1520  172.8090  138.5960 C   0  0  0  0  0  3  0  0  0  0  0  0
  1 11  2  0  0  0  0
  1  6  1  0  0  0  0
  2  6  2  0  0  0  0
  4  2  2  0  0  0  0
  6  3  1  0  0  0  0
  7 16  1  0  0  0  0
  8 29  1  6  0  0  0
  8 12  1  0  0  0  0
  8 10  1  0  0  0  0
  9 13  2  0  0  0  0
 10 11  1  1  0  0  0
 10 13  1  0  0  0  0
 11 15  1  0  0  0  0
 12  5  1  6  0  0  0
 13  7  1  0  0  0  0
 14 12  1  0  0  0  0
 14  1  1  0  0  0  0
 15  3  1  0  0  0  0
 15 16  2  0  0  0  0
 18 21  1  0  0  0  0
 18 20  2  0  0  0  0
 19 21  1  0  0  0  0
 20 23  1  0  0  0  0
 21 22  2  0  0  0  0
 22 17  1  0  0  0  0
 23 17  1  0  0  0  0
 23  4  1  0  0  0  0
 24 25  3  0  0  0  0
 25 18  1  0  0  0  0
 26 27  1  0  0  0  0
 28  4  1  6  0  0  0
 28 26  1  0  0  0  0
 28 27  1  0  0  0  0
 30 33  1  6  0  0  0
 30 32  1  0  0  0  0
 30 29  1  0  0  0  0
 31 32  1  0  0  0  0
 33 34  1  0  0  0  0
 34 35  1  0  0  0  0
 36 38  2  0  0  0  0
 37 40  1  0  0  0  0
 38 37  1  0  0  0  0
 39 38  1  0  0  0  0
 39 41  2  0  0  0  0
 40 35  1  1  0  0  0
 41 40  1  0  0  0  0
M  END
>  <MODEL>
9

>  <REMARK>
 VINA RESULT:      -6.9      2.018      2.654
  Name = 
  10 active torsions:
  status: ('A' for Active; 'I' for Inactive)
    1  A    between atoms: C_1  and  C_6
    2  A    between atoms: C_1  and  C_37
    3  A    between atoms: C_6  and  C_29
    4  A    between atoms: C_7  and  N_33
    5  A    between atoms: C_7  and  C_38
    6  A    between atoms: S_10  and  C_29
    7  A    between atoms: C_16  and  C_41
    8  A    between atoms: C_19  and  N_22
    9  A    between atoms: N_22  and  C_29
   10  A    between atoms: C_25  and  C_37
                            x       y       z     vdW  Elec       q    Type
                         _______ _______ _______ _____ _____    ______ ____

>  <TORSDO>
F 10

$$$$
