=
 OpenBabel11062420273D

 49 58  0  0  1  0  0  0  0  0999 V2000
  195.7660  175.2030  144.4780 C   0  0  1  0  0  3  0  0  0  0  0  0
  191.9390  172.2890  141.8910 C   0  0  1  0  0  3  0  0  0  0  0  0
  194.6960  171.2530  138.8270 O   0  0  0  0  0  0  0  0  0  0  0  0
  191.9730  174.3300  136.9940 O   0  0  0  0  0  1  0  0  0  0  0  0
  195.7750  174.8630  142.9960 C   0  0  0  0  0  2  0  0  0  0  0  0
  192.4740  175.4280  145.6940 N   0  0  2  0  0  0  0  0  0  0  0  0
  190.3750  173.4930  138.5350 C   0  0  0  0  0  2  0  0  0  0  0  0
  190.0790  175.9370  143.4880 C   0  0  0  0  0  2  0  0  0  0  0  0
  188.8820  172.3540  140.2720 N   0  0  0  0  0  0  0  0  0  0  0  0
  190.7180  176.7120  144.6200 C   0  0  0  0  0  0  0  0  0  0  0  0
  191.3400  172.0020  140.4980 C   0  0  2  0  0  3  0  0  0  0  0  0
  193.8840  175.4670  146.0760 C   0  0  0  0  0  2  0  0  0  0  0  0
  187.6810  175.4230  142.6030 C   0  0  2  0  0  3  0  0  0  0  0  0
  191.9650  174.6480  141.6540 O   0  0  0  0  0  0  0  0  0  0  0  0
  187.9650  172.6340  139.2460 N   0  0  0  0  0  1  0  0  0  0  0  0
  187.9250  176.9260  144.3540 C   0  0  0  0  0  0  0  0  0  0  0  0
  192.5410  173.6600  142.0800 C   0  0  0  0  0  0  0  0  0  0  0  0
  188.6350  176.1290  143.4450 N   0  0  0  0  0  0  0  0  0  0  0  0
  194.4790  175.0010  142.4980 O   0  0  0  0  0  0  0  0  0  0  0  0
  187.9530  175.6920  141.1560 C   0  0  0  0  0  3  0  0  0  0  0  0
  188.5350  177.5990  145.3260 C   0  0  0  0  0  3  0  0  0  0  0  0
  189.9990  177.4830  145.4540 C   0  0  0  0  0  3  0  0  0  0  0  0
  192.2780  174.2100  144.9180 C   0  0  0  0  0  2  0  0  0  0  0  0
  193.8250  171.7210  139.8160 C   0  0  2  0  0  3  0  0  0  0  0  0
  192.3600  171.4850  139.4460 C   0  0  2  0  0  3  0  0  0  0  0  0
  193.6230  173.7180  144.4120 C   0  0  2  0  0  3  0  0  0  0  0  0
  186.5290  176.8850  144.1430 N   0  0  0  0  0  0  0  0  0  0  0  0
  194.0460  172.4710  138.5460 C   0  0  2  0  0  0  0  0  0  0  0  0
  190.2160  172.9280  139.9610 C   0  0  1  0  0  0  0  0  0  0  0  0
  186.3010  175.9940  143.0050 C   0  0  0  0  0  3  0  0  0  0  0  0
  188.7090  174.8880  140.4010 C   0  0  0  0  0  3  0  0  0  0  0  0
  192.1930  176.5710  144.8320 C   0  0  0  0  0  2  0  0  0  0  0  0
  191.8420  173.7080  138.2380 C   0  0  1  0  0  3  0  0  0  0  0  0
  194.6640  174.4610  145.2460 C   0  0  1  0  0  3  0  0  0  0  0  0
  193.8120  173.8240  142.8740 C   0  0  1  0  0  3  0  0  0  0  0  0
  189.3380  173.6130  140.9280 C   0  0  1  0  0  3  0  0  0  0  0  0
  192.5590  172.3560  138.2040 C   0  0  2  0  0  3  0  0  0  0  0  0
  196.6340  175.2880  138.8660 C   0  0  0  0  0  1  0  0  0  0  0  0
  194.7420  173.7440  138.9300 C   0  0  0  0  0  3  0  0  0  0  0  0
  195.9620  174.0150  138.4790 C   0  0  0  0  0  3  0  0  0  0  0  0
  191.0770  171.8280  143.0320 C   0  0  0  0  0  0  0  0  0  0  0  0
  190.0460  172.4140  143.3200 O   0  0  0  0  0  0  0  0  0  0  0  0
  191.5260  170.6710  143.8660 C   0  0  0  0  0  1  0  0  0  0  0  0
  197.0100  174.8950  145.0320 O   0  0  0  0  0  0  0  0  0  0  0  0
  197.4620  173.7840  144.3120 C   0  0  0  0  0  2  0  0  0  0  0  0
  197.3580  172.5040  145.1270 C   0  0  2  0  0  0  0  0  0  0  0  0
  197.1290  172.5630  146.4860 F   0  0  0  0  0  0  0  0  0  0  0  0
  197.9410  171.2580  144.6030 C   0  0  0  0  0  2  0  0  0  0  0  0
  196.5570  171.5310  144.5120 O   0  0  0  0  0  0  0  0  0  0  0  0
  1 44  1  1  0  0  0
  1 34  1  0  0  0  0
  2 17  1  0  0  0  0
  2 41  1  1  0  0  0
  3 24  1  0  0  0  0
  4 33  1  0  0  0  0
  5  1  1  0  0  0  0
  6 32  1  6  0  0  0
  6 12  1  0  0  0  0
  7 29  1  0  0  0  0
  8 10  1  0  0  0  0
  9 36  1  0  0  0  0
 10 32  1  0  0  0  0
 10 22  2  0  0  0  0
 11  2  1  0  0  0  0
 13 30  1  0  0  0  0
 13 18  1  0  0  0  0
 14 17  2  0  0  0  0
 15  9  1  0  0  0  0
 16 21  2  0  0  0  0
 17 35  1  0  0  0  0
 18  8  1  0  0  0  0
 18 16  1  0  0  0  0
 19 35  1  0  0  0  0
 19  5  1  0  0  0  0
 20 13  1  0  0  0  0
 21 22  1  0  0  0  0
 23  6  1  0  0  0  0
 25 24  1  0  0  0  0
 25 11  1  0  0  0  0
 26 23  1  0  0  0  0
 26 34  1  0  0  0  0
 27 16  1  0  0  0  0
 28  3  1  0  0  0  0
 28 39  1  0  0  0  0
 28 24  1  0  0  0  0
 29  9  1  0  0  0  0
 29 11  1  0  0  0  0
 29 36  1  0  0  0  0
 30 27  2  0  0  0  0
 31 36  1  0  0  0  0
 31 20  2  0  0  0  0
 33  7  1  0  0  0  0
 34 12  1  0  0  0  0
 35 26  1  0  0  0  0
 37 33  1  0  0  0  0
 37 28  1  0  0  0  0
 37 25  1  0  0  0  0
 40 38  1  0  0  0  0
 40 39  2  0  0  0  0
 41 42  2  0  0  0  0
 41 43  1  0  0  0  0
 45 44  1  0  0  0  0
 45 46  1  0  0  0  0
 46 47  1  0  0  0  0
 48 46  1  0  0  0  0
 49 48  1  0  0  0  0
 49 46  1  0  0  0  0
M  END
>  <MODEL>
1

>  <REMARK>
 VINA RESULT:      -7.9      0.000      0.000
  Name = 
  5 active torsions:
  status: ('A' for Active; 'I' for Inactive)
    1  A    between atoms: C_1  and  C_47
    2  A    between atoms: C_2  and  O_34
    3  A    between atoms: C_3  and  C_25
    4  A    between atoms: C_11  and  C_37
    5  A    between atoms: O_34  and  C_47
                            x       y       z     vdW  Elec       q    Type
                         _______ _______ _______ _____ _____    ______ ____

>  <TORSDO>
F 5

$$$$
=
 OpenBabel11062420273D

 49 58  0  0  1  0  0  0  0  0999 V2000
  190.0370  173.8070  145.1130 C   0  0  1  0  0  3  0  0  0  0  0  0
  194.6500  171.2850  143.6350 C   0  0  1  0  0  3  0  0  0  0  0  0
  196.8730  173.5220  146.4840 O   0  0  0  0  0  0  0  0  0  0  0  0
  197.9120  175.3090  142.4870 O   0  0  0  0  0  1  0  0  0  0  0  0
  191.4400  174.3580  145.3120 C   0  0  0  0  0  2  0  0  0  0  0  0
  189.8970  171.7200  142.2860 N   0  0  2  0  0  0  0  0  0  0  0  0
  197.4470  173.1350  141.6580 C   0  0  0  0  0  2  0  0  0  0  0  0
  192.2690  172.0760  140.0260 C   0  0  0  0  0  2  0  0  0  0  0  0
  196.9160  170.6990  141.0860 N   0  0  0  0  0  0  0  0  0  0  0  0
  190.7790  172.3280  140.1090 C   0  0  0  0  0  0  0  0  0  0  0  0
  196.1370  171.5290  143.3050 C   0  0  2  0  0  3  0  0  0  0  0  0
  189.1320  172.2320  143.4210 C   0  0  0  0  0  2  0  0  0  0  0  0
  193.9650  171.0190  138.3500 C   0  0  2  0  0  3  0  0  0  0  0  0
  193.8190  173.0640  142.3070 O   0  0  0  0  0  0  0  0  0  0  0  0
  197.9410  170.9890  140.1730 N   0  0  0  0  0  1  0  0  0  0  0  0
  191.7520  171.2600  137.6940 C   0  0  0  0  0  0  0  0  0  0  0  0
  193.7130  172.4320  143.3460 C   0  0  0  0  0  0  0  0  0  0  0  0
  192.6570  171.5310  138.7310 N   0  0  0  0  0  0  0  0  0  0  0  0
  192.1930  174.0870  144.1690 O   0  0  0  0  0  0  0  0  0  0  0  0
  194.9950  172.1040  138.4170 C   0  0  0  0  0  3  0  0  0  0  0  0
  190.4510  171.5120  137.8120 C   0  0  0  0  0  3  0  0  0  0  0  0
  189.9530  172.0740  139.0800 C   0  0  0  0  0  3  0  0  0  0  0  0
  191.1440  171.1880  142.8200 C   0  0  0  0  0  2  0  0  0  0  0  0
  196.0910  172.9030  145.5030 C   0  0  2  0  0  3  0  0  0  0  0  0
  196.9480  172.2220  144.4350 C   0  0  2  0  0  3  0  0  0  0  0  0
  191.3830  171.7660  144.2040 C   0  0  2  0  0  3  0  0  0  0  0  0
  192.3690  170.6640  136.5720 N   0  0  0  0  0  0  0  0  0  0  0  0
  196.7770  174.2020  145.2540 C   0  0  2  0  0  0  0  0  0  0  0  0
  196.5300  171.9110  141.8530 C   0  0  1  0  0  0  0  0  0  0  0  0
  193.7910  170.5330  136.8930 C   0  0  0  0  0  3  0  0  0  0  0  0
  195.7580  172.3100  139.4960 C   0  0  0  0  0  3  0  0  0  0  0  0
  190.2160  172.8350  141.4000 C   0  0  0  0  0  2  0  0  0  0  0  0
  197.1640  174.1540  142.7370 C   0  0  1  0  0  3  0  0  0  0  0  0
  190.0380  172.3490  144.6350 C   0  0  1  0  0  3  0  0  0  0  0  0
  192.5860  172.7450  144.2960 C   0  0  1  0  0  3  0  0  0  0  0  0
  195.6750  171.4500  140.7420 C   0  0  1  0  0  3  0  0  0  0  0  0
  197.5650  173.5800  144.0980 C   0  0  2  0  0  3  0  0  0  0  0  0
  193.9500  176.6960  145.9800 C   0  0  0  0  0  1  0  0  0  0  0  0
  195.6890  175.2240  145.0970 C   0  0  0  0  0  3  0  0  0  0  0  0
  195.0230  175.6760  146.1550 C   0  0  0  0  0  3  0  0  0  0  0  0
  194.1410  169.9420  143.1930 C   0  0  0  0  0  0  0  0  0  0  0  0
  193.8280  169.7370  142.0310 O   0  0  0  0  0  0  0  0  0  0  0  0
  193.9540  168.8600  144.2090 C   0  0  0  0  0  1  0  0  0  0  0  0
  189.3260  173.9050  146.3110 O   0  0  0  0  0  0  0  0  0  0  0  0
  189.6950  175.1420  146.8510 C   0  0  0  0  0  2  0  0  0  0  0  0
  188.6210  176.1970  146.6300 C   0  0  2  0  0  0  0  0  0  0  0  0
  187.3220  175.9570  147.0280 F   0  0  0  0  0  0  0  0  0  0  0  0
  188.8240  177.2410  145.6130 C   0  0  0  0  0  2  0  0  0  0  0  0
  189.0410  177.4850  146.9890 O   0  0  0  0  0  0  0  0  0  0  0  0
  1  5  1  0  0  0  0
  1 44  1  1  0  0  0
  2 41  1  6  0  0  0
  4 33  1  0  0  0  0
  6 32  1  6  0  0  0
  6 23  1  0  0  0  0
  6 12  1  0  0  0  0
  7 29  1  0  0  0  0
  7 33  1  0  0  0  0
  8 10  1  0  0  0  0
  9 29  1  0  0  0  0
 10 32  1  0  0  0  0
 11  2  1  0  0  0  0
 11 25  1  0  0  0  0
 12 34  1  0  0  0  0
 13 20  1  0  0  0  0
 13 18  1  0  0  0  0
 14 17  2  0  0  0  0
 15  9  1  0  0  0  0
 16 21  2  0  0  0  0
 16 18  1  0  0  0  0
 17  2  1  0  0  0  0
 17 35  1  0  0  0  0
 18  8  1  0  0  0  0
 19 35  1  0  0  0  0
 19  5  1  0  0  0  0
 20 31  2  0  0  0  0
 21 22  1  0  0  0  0
 22 10  2  0  0  0  0
 23 26  1  0  0  0  0
 24  3  1  0  0  0  0
 25 24  1  0  0  0  0
 26 35  1  0  0  0  0
 26 34  1  0  0  0  0
 27 30  2  0  0  0  0
 27 16  1  0  0  0  0
 28 24  1  0  0  0  0
 28  3  1  0  0  0  0
 29 11  1  0  0  0  0
 30 13  1  0  0  0  0
 31 36  1  0  0  0  0
 33 37  1  0  0  0  0
 34  1  1  0  0  0  0
 36  9  1  0  0  0  0
 36 29  1  0  0  0  0
 37 25  1  0  0  0  0
 37 28  1  0  0  0  0
 38 40  1  0  0  0  0
 39 28  1  0  0  0  0
 39 40  2  0  0  0  0
 41 43  1  0  0  0  0
 42 41  2  0  0  0  0
 44 45  1  0  0  0  0
 46 45  1  0  0  0  0
 46 49  1  0  0  0  0
 46 47  1  0  0  0  0
 48 46  1  0  0  0  0
 48 49  1  0  0  0  0
M  END
>  <MODEL>
2

>  <REMARK>
 VINA RESULT:      -7.0      3.219      7.268
  Name = 
  5 active torsions:
  status: ('A' for Active; 'I' for Inactive)
    1  A    between atoms: C_1  and  C_47
    2  A    between atoms: C_2  and  O_34
    3  A    between atoms: C_3  and  C_25
    4  A    between atoms: C_11  and  C_37
    5  A    between atoms: O_34  and  C_47
                            x       y       z     vdW  Elec       q    Type
                         _______ _______ _______ _____ _____    ______ ____

>  <TORSDO>
F 5

$$$$
=
 OpenBabel11062420273D

 49 58  0  0  1  0  0  0  0  0999 V2000
  188.3090  174.8340  141.7810 C   0  0  1  0  0  3  0  0  0  0  0  0
  193.0310  172.6420  143.4300 C   0  0  1  0  0  3  0  0  0  0  0  0
  193.2940  175.4320  146.6260 O   0  0  0  0  0  0  0  0  0  0  0  0
  196.3090  176.8120  143.5830 O   0  0  0  0  0  1  0  0  0  0  0  0
  189.3650  175.5470  142.6100 C   0  0  0  0  0  2  0  0  0  0  0  0
  189.7760  172.4120  139.6950 N   0  0  2  0  0  0  0  0  0  0  0  0
  196.4160  174.5170  142.9940 C   0  0  0  0  0  2  0  0  0  0  0  0
  192.9900  172.7320  139.0360 C   0  0  0  0  0  2  0  0  0  0  0  0
  196.3330  171.9860  142.6250 N   0  0  0  0  0  0  0  0  0  0  0  0
  191.6910  172.8350  138.2670 C   0  0  0  0  0  0  0  0  0  0  0  0
  194.4530  172.9970  143.9150 C   0  0  2  0  0  3  0  0  0  0  0  0
  188.5050  172.9770  140.1450 C   0  0  0  0  0  2  0  0  0  0  0  0
  195.3460  171.6590  138.7240 C   0  0  2  0  0  3  0  0  0  0  0  0
  193.0230  174.1490  141.6000 O   0  0  0  0  0  0  0  0  0  0  0  0
  197.6840  172.2670  142.3700 N   0  0  0  0  0  1  0  0  0  0  0  0
  193.8450  171.5860  136.9570 C   0  0  0  0  0  0  0  0  0  0  0  0
  192.3810  173.6410  142.5050 C   0  0  0  0  0  0  0  0  0  0  0  0
  194.0320  172.0740  138.2570 N   0  0  0  0  0  0  0  0  0  0  0  0
  190.6240  175.2180  142.1090 O   0  0  0  0  0  0  0  0  0  0  0  0
  196.1500  172.8450  139.1590 C   0  0  0  0  0  3  0  0  0  0  0  0
  192.6850  171.7130  136.3170 C   0  0  0  0  0  3  0  0  0  0  0  0
  191.5650  172.3720  137.0110 C   0  0  0  0  0  3  0  0  0  0  0  0
  190.5400  172.0820  140.8920 C   0  0  0  0  0  2  0  0  0  0  0  0
  193.1870  174.6190  145.4930 C   0  0  2  0  0  3  0  0  0  0  0  0
  194.5020  173.9040  145.1760 C   0  0  2  0  0  3  0  0  0  0  0  0
  189.9740  172.8480  142.0740 C   0  0  2  0  0  3  0  0  0  0  0  0
  194.9860  170.9240  136.4520 N   0  0  0  0  0  0  0  0  0  0  0  0
  193.8720  175.9420  145.4460 C   0  0  2  0  0  0  0  0  0  0  0  0
  195.5660  173.2370  142.8600 C   0  0  1  0  0  0  0  0  0  0  0  0
  196.0050  170.9820  137.5000 C   0  0  0  0  0  3  0  0  0  0  0  0
  196.1970  173.2600  140.4290 C   0  0  0  0  0  3  0  0  0  0  0  0
  190.5050  173.4360  138.9540 C   0  0  0  0  0  2  0  0  0  0  0  0
  195.5700  175.6260  143.5750 C   0  0  1  0  0  3  0  0  0  0  0  0
  188.6010  173.3360  141.6180 C   0  0  1  0  0  3  0  0  0  0  0  0
  190.9120  173.9500  142.6390 C   0  0  1  0  0  3  0  0  0  0  0  0
  195.4650  172.5560  141.5540 C   0  0  1  0  0  3  0  0  0  0  0  0
  195.1740  175.2680  145.0100 C   0  0  2  0  0  3  0  0  0  0  0  0
  191.0190  178.1360  144.1070 C   0  0  0  0  0  1  0  0  0  0  0  0
  193.0240  176.8180  144.5700 C   0  0  0  0  0  3  0  0  0  0  0  0
  191.8440  177.2610  144.9900 C   0  0  0  0  0  3  0  0  0  0  0  0
  192.8740  171.2090  143.0050 C   0  0  0  0  0  0  0  0  0  0  0  0
  193.1250  170.8580  141.8640 O   0  0  0  0  0  0  0  0  0  0  0  0
  192.3370  170.2120  143.9830 C   0  0  0  0  0  1  0  0  0  0  0  0
  187.0580  175.0040  142.3780 O   0  0  0  0  0  0  0  0  0  0  0  0
  186.7290  176.3450  142.1530 C   0  0  0  0  0  2  0  0  0  0  0  0
  185.8970  176.9200  143.2900 C   0  0  2  0  0  0  0  0  0  0  0  0
  185.9070  176.3160  144.5300 F   0  0  0  0  0  0  0  0  0  0  0  0
  184.7560  177.7970  142.9850 C   0  0  0  0  0  2  0  0  0  0  0  0
  186.0080  178.3130  143.3940 O   0  0  0  0  0  0  0  0  0  0  0  0
  1 44  1  1  0  0  0
  1  5  1  0  0  0  0
  2 41  1  6  0  0  0
  2 11  1  0  0  0  0
  6 32  1  6  0  0  0
  6 12  1  0  0  0  0
  6 23  1  0  0  0  0
  7 33  1  0  0  0  0
  9 29  1  0  0  0  0
 10 32  1  0  0  0  0
 10  8  1  0  0  0  0
 11 25  1  0  0  0  0
 12 34  1  0  0  0  0
 13 20  1  0  0  0  0
 14 17  2  0  0  0  0
 15  9  1  0  0  0  0
 16 18  1  0  0  0  0
 17 35  1  0  0  0  0
 17  2  1  0  0  0  0
 18 13  1  0  0  0  0
 18  8  1  0  0  0  0
 19  5  1  0  0  0  0
 19 35  1  0  0  0  0
 20 31  2  0  0  0  0
 21 16  2  0  0  0  0
 21 22  1  0  0  0  0
 22 10  2  0  0  0  0
 23 26  1  0  0  0  0
 24  3  1  0  0  0  0
 25 24  1  0  0  0  0
 26 35  1  0  0  0  0
 27 16  1  0  0  0  0
 27 30  2  0  0  0  0
 28 24  1  0  0  0  0
 28  3  1  0  0  0  0
 29  7  1  0  0  0  0
 29 11  1  0  0  0  0
 30 13  1  0  0  0  0
 31 36  1  0  0  0  0
 33  4  1  0  0  0  0
 33 37  1  0  0  0  0
 34  1  1  0  0  0  0
 34 26  1  0  0  0  0
 36  9  1  0  0  0  0
 36 29  1  0  0  0  0
 37 25  1  0  0  0  0
 37 28  1  0  0  0  0
 38 40  1  0  0  0  0
 39 40  2  0  0  0  0
 39 28  1  0  0  0  0
 41 43  1  0  0  0  0
 42 41  2  0  0  0  0
 45 44  1  0  0  0  0
 45 46  1  0  0  0  0
 46 49  1  0  0  0  0
 46 47  1  0  0  0  0
 48 46  1  0  0  0  0
 48 49  1  0  0  0  0
M  END
>  <MODEL>
3

>  <REMARK>
 VINA RESULT:      -7.0      3.168      8.192
  Name = 
  5 active torsions:
  status: ('A' for Active; 'I' for Inactive)
    1  A    between atoms: C_1  and  C_47
    2  A    between atoms: C_2  and  O_34
    3  A    between atoms: C_3  and  C_25
    4  A    between atoms: C_11  and  C_37
    5  A    between atoms: O_34  and  C_47
                            x       y       z     vdW  Elec       q    Type
                         _______ _______ _______ _____ _____    ______ ____

>  <TORSDO>
F 5

$$$$
=
 OpenBabel11062420273D

 49 58  0  0  1  0  0  0  0  0999 V2000
  186.5340  176.3720  138.9200 C   0  0  1  0  0  3  0  0  0  0  0  0
  190.2780  176.5400  142.8930 C   0  0  1  0  0  3  0  0  0  0  0  0
  192.4340  173.3490  141.0950 O   0  0  0  0  0  0  0  0  0  0  0  0
  190.3800  171.5410  144.6670 O   0  0  0  0  0  1  0  0  0  0  0  0
  187.4410  175.2200  139.3190 C   0  0  0  0  0  2  0  0  0  0  0  0
  185.8690  178.4580  141.6730 N   0  0  2  0  0  0  0  0  0  0  0  0
  190.5410  173.7280  145.5720 C   0  0  0  0  0  2  0  0  0  0  0  0
  186.3130  177.1800  144.6790 C   0  0  0  0  0  2  0  0  0  0  0  0
  190.8980  176.1620  146.2760 N   0  0  0  0  0  0  0  0  0  0  0  0
  185.1420  177.6470  143.8410 C   0  0  0  0  0  0  0  0  0  0  0  0
  191.1070  175.6520  143.8440 C   0  0  2  0  0  3  0  0  0  0  0  0
  185.6670  178.2910  140.2350 C   0  0  0  0  0  2  0  0  0  0  0  0
  187.1610  177.4280  147.1320 C   0  0  2  0  0  3  0  0  0  0  0  0
  188.2140  175.4410  143.2830 O   0  0  0  0  0  0  0  0  0  0  0  0
  191.0640  175.4850  147.4940 N   0  0  0  0  0  1  0  0  0  0  0  0
  185.0790  178.2890  146.5810 C   0  0  0  0  0  0  0  0  0  0  0  0
  188.9410  175.9830  142.4670 C   0  0  0  0  0  0  0  0  0  0  0  0
  186.1680  177.5620  146.0780 N   0  0  0  0  0  0  0  0  0  0  0  0
  187.5270  175.1800  140.7110 O   0  0  0  0  0  0  0  0  0  0  0  0
  187.4960  175.9860  147.3610 C   0  0  0  0  0  3  0  0  0  0  0  0
  184.0660  178.6660  145.8050 C   0  0  0  0  0  3  0  0  0  0  0  0
  184.1070  178.3220  144.3720 C   0  0  0  0  0  3  0  0  0  0  0  0
  187.2980  178.3120  141.9200 C   0  0  0  0  0  2  0  0  0  0  0  0
  191.6150  174.3230  141.6770 C   0  0  2  0  0  3  0  0  0  0  0  0
  191.9940  174.5910  143.1340 C   0  0  2  0  0  3  0  0  0  0  0  0
  187.9390  177.6030  140.7400 C   0  0  2  0  0  3  0  0  0  0  0  0
  185.2140  178.5980  147.9520 N   0  0  0  0  0  0  0  0  0  0  0  0
  191.4380  172.8710  141.9690 C   0  0  2  0  0  0  0  0  0  0  0  0
  190.4860  175.2230  145.2000 C   0  0  1  0  0  0  0  0  0  0  0  0
  186.4900  178.0300  148.3880 C   0  0  0  0  0  3  0  0  0  0  0  0
  188.5290  175.3800  146.7660 C   0  0  0  0  0  3  0  0  0  0  0  0
  185.1720  177.3810  142.3690 C   0  0  0  0  0  2  0  0  0  0  0  0
  190.4500  172.8920  144.3160 C   0  0  1  0  0  3  0  0  0  0  0  0
  186.9140  177.6890  139.6120 C   0  0  1  0  0  3  0  0  0  0  0  0
  188.4600  176.1730  141.0510 C   0  0  1  0  0  3  0  0  0  0  0  0
  189.4780  176.0990  145.8280 C   0  0  1  0  0  3  0  0  0  0  0  0
  191.6950  173.1260  143.4560 C   0  0  2  0  0  3  0  0  0  0  0  0
  188.6510  171.9160  139.5080 C   0  0  0  0  0  1  0  0  0  0  0  0
  190.1110  172.4870  141.3810 C   0  0  0  0  0  3  0  0  0  0  0  0
  189.9760  172.3040  140.0720 C   0  0  0  0  0  3  0  0  0  0  0  0
  190.2480  177.9910  143.2850 C   0  0  0  0  0  0  0  0  0  0  0  0
  189.2180  178.5190  143.6700 O   0  0  0  0  0  0  0  0  0  0  0  0
  191.4900  178.8120  143.1390 C   0  0  0  0  0  1  0  0  0  0  0  0
  186.5810  176.5420  137.5350 O   0  0  0  0  0  0  0  0  0  0  0  0
  187.4590  175.5530  137.0790 C   0  0  0  0  0  2  0  0  0  0  0  0
  187.7080  175.6660  135.5830 C   0  0  2  0  0  0  0  0  0  0  0  0
  186.6450  175.7410  134.7070 F   0  0  0  0  0  0  0  0  0  0  0  0
  189.0010  175.2380  135.0250 C   0  0  0  0  0  2  0  0  0  0  0  0
  188.7040  176.6000  135.2650 O   0  0  0  0  0  0  0  0  0  0  0  0
  1 44  1  6  0  0  0
  1  5  1  0  0  0  0
  1 34  1  0  0  0  0
  2 41  1  1  0  0  0
  2 11  1  0  0  0  0
  3 24  1  0  0  0  0
  3 28  1  0  0  0  0
  5 19  1  0  0  0  0
  6 12  1  6  0  0  0
  6 23  1  0  0  0  0
  6 32  1  0  0  0  0
  8 18  1  0  0  0  0
  9 15  1  0  0  0  0
 10 22  2  0  0  0  0
 10  8  1  0  0  0  0
 11 29  1  0  0  0  0
 13 20  1  0  0  0  0
 13 30  1  0  0  0  0
 16 27  1  0  0  0  0
 17  2  1  0  0  0  0
 17 14  2  0  0  0  0
 18 16  1  0  0  0  0
 18 13  1  0  0  0  0
 19 35  1  0  0  0  0
 21 16  2  0  0  0  0
 22 21  1  0  0  0  0
 24 28  1  0  0  0  0
 24 25  1  0  0  0  0
 25 37  1  0  0  0  0
 25 11  1  0  0  0  0
 26 35  1  0  0  0  0
 26 23  1  0  0  0  0
 27 30  2  0  0  0  0
 28 37  1  0  0  0  0
 29  7  1  0  0  0  0
 29 36  1  0  0  0  0
 29  9  1  0  0  0  0
 31 20  2  0  0  0  0
 32 10  1  0  0  0  0
 33  4  1  0  0  0  0
 33  7  1  0  0  0  0
 34 12  1  0  0  0  0
 34 26  1  0  0  0  0
 35 17  1  0  0  0  0
 36  9  1  0  0  0  0
 36 31  1  0  0  0  0
 37 33  1  0  0  0  0
 38 40  1  0  0  0  0
 39 28  1  0  0  0  0
 40 39  2  0  0  0  0
 41 42  2  0  0  0  0
 43 41  1  0  0  0  0
 45 44  1  0  0  0  0
 46 45  1  0  0  0  0
 47 46  1  0  0  0  0
 48 49  1  0  0  0  0
 48 46  1  0  0  0  0
 49 46  1  0  0  0  0
M  END
>  <MODEL>
4

>  <REMARK>
 VINA RESULT:      -6.7      4.155      7.829
  Name = 
  5 active torsions:
  status: ('A' for Active; 'I' for Inactive)
    1  A    between atoms: C_1  and  C_47
    2  A    between atoms: C_2  and  O_34
    3  A    between atoms: C_3  and  C_25
    4  A    between atoms: C_11  and  C_37
    5  A    between atoms: O_34  and  C_47
                            x       y       z     vdW  Elec       q    Type
                         _______ _______ _______ _____ _____    ______ ____

>  <TORSDO>
F 5

$$$$
=
 OpenBabel11062420273D

 49 58  0  0  1  0  0  0  0  0999 V2000
  191.0280  175.5150  145.2370 C   0  0  1  0  0  3  0  0  0  0  0  0
  193.8760  171.4150  143.0220 C   0  0  1  0  0  3  0  0  0  0  0  0
  197.4230  172.7380  144.9530 O   0  0  0  0  0  0  0  0  0  0  0  0
  197.9110  173.9000  140.6340 O   0  0  0  0  0  1  0  0  0  0  0  0
  192.5340  175.5070  145.0230 C   0  0  0  0  0  2  0  0  0  0  0  0
  189.4070  173.5550  142.8070 N   0  0  2  0  0  0  0  0  0  0  0  0
  196.5050  172.0350  140.2170 C   0  0  0  0  0  2  0  0  0  0  0  0
  191.0520  172.9390  140.0180 C   0  0  0  0  0  2  0  0  0  0  0  0
  195.0160  169.9570  140.0970 N   0  0  0  0  0  0  0  0  0  0  0  0
  189.8280  173.7300  140.4240 C   0  0  0  0  0  0  0  0  0  0  0  0
  195.2070  171.0780  142.3170 C   0  0  2  0  0  3  0  0  0  0  0  0
  189.2070  174.3450  144.0200 C   0  0  0  0  0  2  0  0  0  0  0  0
  191.7490  171.2810  138.1300 C   0  0  2  0  0  3  0  0  0  0  0  0
  193.4020  173.3390  141.7210 O   0  0  0  0  0  0  0  0  0  0  0  0
  195.7920  169.8200  138.9360 N   0  0  0  0  0  1  0  0  0  0  0  0
  189.6740  172.3120  137.9990 C   0  0  0  0  0  0  0  0  0  0  0  0
  193.3630  172.8200  142.8250 C   0  0  0  0  0  0  0  0  0  0  0  0
  190.8590  172.2530  138.7470 N   0  0  0  0  0  0  0  0  0  0  0  0
  192.8050  174.9450  143.7760 O   0  0  0  0  0  0  0  0  0  0  0  0
  193.0730  171.9040  137.8130 C   0  0  0  0  0  3  0  0  0  0  0  0
  188.6290  173.0330  138.3930 C   0  0  0  0  0  3  0  0  0  0  0  0
  188.7200  173.7760  139.6630 C   0  0  0  0  0  3  0  0  0  0  0  0
  190.4810  172.6100  143.0900 C   0  0  0  0  0  2  0  0  0  0  0  0
  196.2410  172.4280  144.2730 C   0  0  2  0  0  3  0  0  0  0  0  0
  196.4820  171.4480  143.1250 C   0  0  2  0  0  3  0  0  0  0  0  0
  191.2700  173.0950  144.2920 C   0  0  2  0  0  3  0  0  0  0  0  0
  189.7150  171.4990  136.8450 N   0  0  0  0  0  0  0  0  0  0  0  0
  197.2470  173.3710  143.7070 C   0  0  2  0  0  0  0  0  0  0  0  0
  195.3030  171.2460  140.7770 C   0  0  1  0  0  0  0  0  0  0  0  0
  191.0300  170.8560  136.8290 C   0  0  0  0  0  3  0  0  0  0  0  0
  194.1190  171.8400  138.6430 C   0  0  0  0  0  3  0  0  0  0  0  0
  189.8480  174.4460  141.7390 C   0  0  0  0  0  2  0  0  0  0  0  0
  196.9010  173.1140  141.1970 C   0  0  1  0  0  3  0  0  0  0  0  0
  190.3870  174.1490  144.9570 C   0  0  1  0  0  3  0  0  0  0  0  0
  192.7190  173.5570  143.9710 C   0  0  1  0  0  3  0  0  0  0  0  0
  194.0760  171.1080  139.9690 C   0  0  1  0  0  3  0  0  0  0  0  0
  197.4230  172.4690  142.4830 C   0  0  2  0  0  3  0  0  0  0  0  0
  196.6360  177.1560  143.4950 C   0  0  0  0  0  1  0  0  0  0  0  0
  196.5900  174.7210  143.6900 C   0  0  0  0  0  3  0  0  0  0  0  0
  197.3080  175.8250  143.5160 C   0  0  0  0  0  3  0  0  0  0  0  0
  192.8280  170.3470  142.8850 C   0  0  0  0  0  0  0  0  0  0  0  0
  192.0200  170.3700  141.9700 O   0  0  0  0  0  0  0  0  0  0  0  0
  192.7350  169.2770  143.9250 C   0  0  0  0  0  1  0  0  0  0  0  0
  190.7470  175.9030  146.5480 O   0  0  0  0  0  0  0  0  0  0  0  0
  189.9810  177.0670  146.4250 C   0  0  0  0  0  2  0  0  0  0  0  0
  188.5040  176.7990  146.6710 C   0  0  2  0  0  0  0  0  0  0  0  0
  188.1060  175.6330  147.2920 F   0  0  0  0  0  0  0  0  0  0  0  0
  187.4920  177.5070  145.8710 C   0  0  0  0  0  2  0  0  0  0  0  0
  187.8260  177.9140  147.1840 O   0  0  0  0  0  0  0  0  0  0  0  0
  1 44  1  1  0  0  0
  2 41  1  6  0  0  0
  4 33  1  0  0  0  0
  5  1  1  0  0  0  0
  6 32  1  6  0  0  0
  6 23  1  0  0  0  0
  6 12  1  0  0  0  0
  7 29  1  0  0  0  0
  7 33  1  0  0  0  0
  8 10  1  0  0  0  0
  9 29  1  0  0  0  0
 10 32  1  0  0  0  0
 11  2  1  0  0  0  0
 11 25  1  0  0  0  0
 12 34  1  0  0  0  0
 13 18  1  0  0  0  0
 14 17  2  0  0  0  0
 15  9  1  0  0  0  0
 16 21  2  0  0  0  0
 16 18  1  0  0  0  0
 17  2  1  0  0  0  0
 17 35  1  0  0  0  0
 18  8  1  0  0  0  0
 19 35  1  0  0  0  0
 19  5  1  0  0  0  0
 20 13  1  0  0  0  0
 20 31  2  0  0  0  0
 21 22  1  0  0  0  0
 22 10  2  0  0  0  0
 23 26  1  0  0  0  0
 24  3  1  0  0  0  0
 25 24  1  0  0  0  0
 26 34  1  0  0  0  0
 27 16  1  0  0  0  0
 28 24  1  0  0  0  0
 28  3  1  0  0  0  0
 29 11  1  0  0  0  0
 30 27  2  0  0  0  0
 30 13  1  0  0  0  0
 31 36  1  0  0  0  0
 33 37  1  0  0  0  0
 34  1  1  0  0  0  0
 35 26  1  0  0  0  0
 36  9  1  0  0  0  0
 36 29  1  0  0  0  0
 37 25  1  0  0  0  0
 37 28  1  0  0  0  0
 38 40  1  0  0  0  0
 39 28  1  0  0  0  0
 40 39  2  0  0  0  0
 41 43  1  0  0  0  0
 42 41  2  0  0  0  0
 45 44  1  0  0  0  0
 45 46  1  0  0  0  0
 46 49  1  0  0  0  0
 46 47  1  0  0  0  0
 48 46  1  0  0  0  0
 48 49  1  0  0  0  0
M  END
>  <MODEL>
5

>  <REMARK>
 VINA RESULT:      -6.5      2.952      6.289
  Name = 
  5 active torsions:
  status: ('A' for Active; 'I' for Inactive)
    1  A    between atoms: C_1  and  C_47
    2  A    between atoms: C_2  and  O_34
    3  A    between atoms: C_3  and  C_25
    4  A    between atoms: C_11  and  C_37
    5  A    between atoms: O_34  and  C_47
                            x       y       z     vdW  Elec       q    Type
                         _______ _______ _______ _____ _____    ______ ____

>  <TORSDO>
F 5

$$$$
=
 OpenBabel11062420273D

 49 58  0  0  1  0  0  0  0  0999 V2000
  188.7300  172.6690  139.9550 C   0  0  1  0  0  3  0  0  0  0  0  0
  193.4770  174.0150  142.2960 C   0  0  1  0  0  3  0  0  0  0  0  0
  195.1980  170.3160  141.1040 O   0  0  0  0  0  0  0  0  0  0  0  0
  194.4390  169.9130  145.5200 O   0  0  0  0  0  1  0  0  0  0  0  0
  189.7900  171.6820  140.4200 C   0  0  0  0  0  2  0  0  0  0  0  0
  188.7900  175.5900  141.9130 N   0  0  2  0  0  0  0  0  0  0  0  0
  194.7210  172.2680  145.5460 C   0  0  0  0  0  2  0  0  0  0  0  0
  190.2020  175.3890  144.8840 C   0  0  0  0  0  2  0  0  0  0  0  0
  195.1120  174.7790  145.2490 N   0  0  0  0  0  0  0  0  0  0  0  0
  188.8050  175.5940  144.3390 C   0  0  0  0  0  0  0  0  0  0  0  0
  194.6110  173.4670  143.1880 C   0  0  2  0  0  3  0  0  0  0  0  0
  188.1750  174.9550  140.7490 C   0  0  0  0  0  2  0  0  0  0  0  0
  191.7320  176.4170  146.7290 C   0  0  2  0  0  3  0  0  0  0  0  0
  191.7040  173.2010  143.6430 O   0  0  0  0  0  0  0  0  0  0  0  0
  195.6810  174.5490  146.5110 N   0  0  0  0  0  1  0  0  0  0  0  0
  189.5280  177.1270  146.5850 C   0  0  0  0  0  0  0  0  0  0  0  0
  192.1150  173.4040  142.5110 C   0  0  0  0  0  0  0  0  0  0  0  0
  190.4600  176.2280  146.0470 N   0  0  0  0  0  0  0  0  0  0  0  0
  190.2940  172.1130  141.6470 O   0  0  0  0  0  0  0  0  0  0  0  0
  192.2140  175.1250  147.3140 C   0  0  0  0  0  3  0  0  0  0  0  0
  188.3060  177.2610  146.0760 C   0  0  0  0  0  3  0  0  0  0  0  0
  187.9360  176.4510  144.9020 C   0  0  0  0  0  3  0  0  0  0  0  0
  190.2340  175.4760  141.7450 C   0  0  0  0  0  2  0  0  0  0  0  0
  194.5300  171.4620  141.5460 C   0  0  2  0  0  3  0  0  0  0  0  0
  195.3110  172.1920  142.6400 C   0  0  2  0  0  3  0  0  0  0  0  0
  190.5350  174.3830  140.7350 C   0  0  2  0  0  3  0  0  0  0  0  0
  190.0490  177.8770  147.6620 N   0  0  0  0  0  0  0  0  0  0  0  0
  194.5450  170.2040  142.3470 C   0  0  2  0  0  0  0  0  0  0  0  0
  194.4580  173.5500  144.7300 C   0  0  1  0  0  0  0  0  0  0  0  0
  191.4320  177.4370  147.8510 C   0  0  0  0  0  3  0  0  0  0  0  0
  193.0570  174.3110  146.6710 C   0  0  0  0  0  3  0  0  0  0  0  0
  188.4070  174.8430  143.1070 C   0  0  0  0  0  2  0  0  0  0  0  0
  194.3110  171.0610  144.7340 C   0  0  1  0  0  3  0  0  0  0  0  0
  189.2140  174.1240  140.0140 C   0  0  1  0  0  3  0  0  0  0  0  0
  191.2180  173.1220  141.3330 C   0  0  1  0  0  3  0  0  0  0  0  0
  193.6300  174.6280  145.3040 C   0  0  1  0  0  3  0  0  0  0  0  0
  195.2200  170.9370  143.5090 C   0  0  2  0  0  3  0  0  0  0  0  0
  191.3460  168.2300  141.5710 C   0  0  0  0  0  1  0  0  0  0  0  0
  193.1310  169.7000  142.3570 C   0  0  0  0  0  3  0  0  0  0  0  0
  192.7530  168.7220  141.5410 C   0  0  0  0  0  3  0  0  0  0  0  0
  193.4720  175.5120  142.1680 C   0  0  0  0  0  0  0  0  0  0  0  0
  192.7500  176.2020  142.8700 O   0  0  0  0  0  0  0  0  0  0  0  0
  194.3200  176.1590  141.1200 C   0  0  0  0  0  1  0  0  0  0  0  0
  188.3470  172.3570  138.6490 O   0  0  0  0  0  0  0  0  0  0  0  0
  189.4570  171.7150  138.0890 C   0  0  0  0  0  2  0  0  0  0  0  0
  189.6650  172.1130  136.6360 C   0  0  2  0  0  0  0  0  0  0  0  0
  188.9450  171.4920  135.6370 F   0  0  0  0  0  0  0  0  0  0  0  0
  190.9090  172.7910  136.2370 C   0  0  0  0  0  2  0  0  0  0  0  0
  189.7060  173.5030  136.4530 O   0  0  0  0  0  0  0  0  0  0  0  0
  1 44  1  6  0  0  0
  1 34  1  0  0  0  0
  1  5  1  0  0  0  0
  2 41  1  1  0  0  0
  2 17  1  0  0  0  0
  2 11  1  0  0  0  0
  3 24  1  0  0  0  0
  3 28  1  0  0  0  0
  5 19  1  0  0  0  0
  6 12  1  6  0  0  0
  6 32  1  0  0  0  0
  8 18  1  0  0  0  0
  9 36  1  0  0  0  0
  9 15  1  0  0  0  0
 10  8  1  0  0  0  0
 10 22  2  0  0  0  0
 11 29  1  0  0  0  0
 13 20  1  0  0  0  0
 13 30  1  0  0  0  0
 16 27  1  0  0  0  0
 17 14  2  0  0  0  0
 18 16  1  0  0  0  0
 18 13  1  0  0  0  0
 21 16  2  0  0  0  0
 22 21  1  0  0  0  0
 23  6  1  0  0  0  0
 24 28  1  0  0  0  0
 24 25  1  0  0  0  0
 25 11  1  0  0  0  0
 25 37  1  0  0  0  0
 26 35  1  0  0  0  0
 26 23  1  0  0  0  0
 27 30  2  0  0  0  0
 28 39  1  0  0  0  0
 28 37  1  0  0  0  0
 29  9  1  0  0  0  0
 29 36  1  0  0  0  0
 29  7  1  0  0  0  0
 31 20  2  0  0  0  0
 32 10  1  0  0  0  0
 33  4  1  0  0  0  0
 33  7  1  0  0  0  0
 34 26  1  0  0  0  0
 34 12  1  0  0  0  0
 35 19  1  0  0  0  0
 35 17  1  0  0  0  0
 36 31  1  0  0  0  0
 37 33  1  0  0  0  0
 40 38  1  0  0  0  0
 40 39  2  0  0  0  0
 41 42  2  0  0  0  0
 43 41  1  0  0  0  0
 45 44  1  0  0  0  0
 46 45  1  0  0  0  0
 47 46  1  0  0  0  0
 48 49  1  0  0  0  0
 48 46  1  0  0  0  0
 49 46  1  0  0  0  0
M  END
>  <MODEL>
6

>  <REMARK>
 VINA RESULT:      -6.4      2.999      6.808
  Name = 
  5 active torsions:
  status: ('A' for Active; 'I' for Inactive)
    1  A    between atoms: C_1  and  C_47
    2  A    between atoms: C_2  and  O_34
    3  A    between atoms: C_3  and  C_25
    4  A    between atoms: C_11  and  C_37
    5  A    between atoms: O_34  and  C_47
                            x       y       z     vdW  Elec       q    Type
                         _______ _______ _______ _____ _____    ______ ____

>  <TORSDO>
F 5

$$$$
=
 OpenBabel11062420273D

 49 58  0  0  1  0  0  0  0  0999 V2000
  190.2810  170.2310  139.3800 C   0  0  1  0  0  3  0  0  0  0  0  0
  193.9330  173.6360  141.5940 C   0  0  1  0  0  3  0  0  0  0  0  0
  196.6980  170.4500  142.1130 O   0  0  0  0  0  0  0  0  0  0  0  0
  195.0910  171.3190  146.2250 O   0  0  0  0  0  1  0  0  0  0  0  0
  191.4130  169.8210  140.3090 C   0  0  0  0  0  2  0  0  0  0  0  0
  189.2130  173.5090  140.0760 N   0  0  2  0  0  0  0  0  0  0  0  0
  194.7960  173.5200  145.3890 C   0  0  0  0  0  2  0  0  0  0  0  0
  189.9330  174.7340  143.0500 C   0  0  0  0  0  2  0  0  0  0  0  0
  194.6400  175.7860  144.2120 N   0  0  0  0  0  0  0  0  0  0  0  0
  188.6850  174.3170  142.3020 C   0  0  0  0  0  0  0  0  0  0  0  0
  194.9350  173.7810  142.7580 C   0  0  2  0  0  3  0  0  0  0  0  0
  189.0400  172.3720  139.1740 C   0  0  0  0  0  2  0  0  0  0  0  0
  190.7270  176.7230  144.5380 C   0  0  2  0  0  3  0  0  0  0  0  0
  192.1470  172.8190  142.9230 O   0  0  0  0  0  0  0  0  0  0  0  0
  194.9510  176.1680  145.5260 N   0  0  0  0  0  1  0  0  0  0  0  0
  188.5070  176.6480  143.8690 C   0  0  0  0  0  0  0  0  0  0  0  0
  192.7400  172.7500  141.8580 C   0  0  0  0  0  0  0  0  0  0  0  0
  189.7200  175.9470  143.8290 N   0  0  0  0  0  0  0  0  0  0  0  0
  191.5140  170.7630  141.3330 O   0  0  0  0  0  0  0  0  0  0  0  0
  191.3570  175.9060  145.6220 C   0  0  0  0  0  3  0  0  0  0  0  0
  187.4330  176.2330  143.2020 C   0  0  0  0  0  3  0  0  0  0  0  0
  187.5360  175.0090  142.3880 C   0  0  0  0  0  3  0  0  0  0  0  0
  190.6420  173.7860  140.1400 C   0  0  0  0  0  2  0  0  0  0  0  0
  195.6970  171.4210  142.0030 C   0  0  2  0  0  3  0  0  0  0  0  0
  196.0200  172.6700  142.8240 C   0  0  2  0  0  3  0  0  0  0  0  0
  191.4100  172.5650  139.6660 C   0  0  2  0  0  3  0  0  0  0  0  0
  188.5830  177.8310  144.6360 N   0  0  0  0  0  0  0  0  0  0  0  0
  195.8300  170.5650  143.2160 C   0  0  2  0  0  0  0  0  0  0  0  0
  194.4270  174.3190  144.1230 C   0  0  1  0  0  0  0  0  0  0  0  0
  189.9530  177.9160  145.1440 C   0  0  0  0  0  3  0  0  0  0  0  0
  192.4900  175.2190  145.4450 C   0  0  0  0  0  3  0  0  0  0  0  0
  188.7610  173.1200  141.4080 C   0  0  0  0  0  2  0  0  0  0  0  0
  194.8740  172.0490  145.0520 C   0  0  1  0  0  3  0  0  0  0  0  0
  190.3820  171.6990  138.9420 C   0  0  1  0  0  3  0  0  0  0  0  0
  192.2210  171.8400  140.7750 C   0  0  1  0  0  3  0  0  0  0  0  0
  193.2610  175.2240  144.1400 C   0  0  1  0  0  3  0  0  0  0  0  0
  196.0360  171.8070  144.0860 C   0  0  2  0  0  3  0  0  0  0  0  0
  193.0520  168.1730  144.3570 C   0  0  0  0  0  1  0  0  0  0  0  0
  194.6090  169.6920  143.2450 C   0  0  0  0  0  3  0  0  0  0  0  0
  194.2720  169.0300  144.3470 C   0  0  0  0  0  3  0  0  0  0  0  0
  193.6030  174.9320  140.9090 C   0  0  0  0  0  0  0  0  0  0  0  0
  192.8340  175.7340  141.4130 O   0  0  0  0  0  0  0  0  0  0  0  0
  194.1790  175.2120  139.5580 C   0  0  0  0  0  1  0  0  0  0  0  0
  190.2830  169.4060  138.2540 O   0  0  0  0  0  0  0  0  0  0  0  0
  191.5770  169.5090  137.7310 C   0  0  0  0  0  2  0  0  0  0  0  0
  191.5700  169.5450  136.2110 C   0  0  2  0  0  0  0  0  0  0  0  0
  191.6120  168.3710  135.4890 F   0  0  0  0  0  0  0  0  0  0  0  0
  191.9800  170.7730  135.5100 C   0  0  0  0  0  2  0  0  0  0  0  0
  190.6180  170.4340  135.6920 O   0  0  0  0  0  0  0  0  0  0  0  0
  1 44  1  6  0  0  0
  1  5  1  0  0  0  0
  2 41  1  1  0  0  0
  2 17  1  0  0  0  0
  2 11  1  0  0  0  0
  3 28  1  0  0  0  0
  5 19  1  0  0  0  0
  6 12  1  6  0  0  0
  6 23  1  0  0  0  0
  6 32  1  0  0  0  0
  8 18  1  0  0  0  0
  9 15  1  0  0  0  0
 10 22  2  0  0  0  0
 10  8  1  0  0  0  0
 11 25  1  0  0  0  0
 11 29  1  0  0  0  0
 13 30  1  0  0  0  0
 13 20  1  0  0  0  0
 16 27  1  0  0  0  0
 17 14  2  0  0  0  0
 18 16  1  0  0  0  0
 18 13  1  0  0  0  0
 21 16  2  0  0  0  0
 22 21  1  0  0  0  0
 24  3  1  0  0  0  0
 24 25  1  0  0  0  0
 24 28  1  0  0  0  0
 25 37  1  0  0  0  0
 26 23  1  0  0  0  0
 26 35  1  0  0  0  0
 27 30  2  0  0  0  0
 28 39  1  0  0  0  0
 28 37  1  0  0  0  0
 29 36  1  0  0  0  0
 29  9  1  0  0  0  0
 29  7  1  0  0  0  0
 31 20  2  0  0  0  0
 32 10  1  0  0  0  0
 33  7  1  0  0  0  0
 33  4  1  0  0  0  0
 34 12  1  0  0  0  0
 34  1  1  0  0  0  0
 34 26  1  0  0  0  0
 35 19  1  0  0  0  0
 35 17  1  0  0  0  0
 36  9  1  0  0  0  0
 36 31  1  0  0  0  0
 37 33  1  0  0  0  0
 39 40  2  0  0  0  0
 40 38  1  0  0  0  0
 41 42  2  0  0  0  0
 43 41  1  0  0  0  0
 45 44  1  0  0  0  0
 46 45  1  0  0  0  0
 47 46  1  0  0  0  0
 48 49  1  0  0  0  0
 48 46  1  0  0  0  0
 49 46  1  0  0  0  0
M  END
>  <MODEL>
7

>  <REMARK>
 VINA RESULT:      -6.3      2.826      6.776
  Name = 
  5 active torsions:
  status: ('A' for Active; 'I' for Inactive)
    1  A    between atoms: C_1  and  C_47
    2  A    between atoms: C_2  and  O_34
    3  A    between atoms: C_3  and  C_25
    4  A    between atoms: C_11  and  C_37
    5  A    between atoms: O_34  and  C_47
                            x       y       z     vdW  Elec       q    Type
                         _______ _______ _______ _____ _____    ______ ____

>  <TORSDO>
F 5

$$$$
=
 OpenBabel11062420273D

 49 58  0  0  1  0  0  0  0  0999 V2000
  191.9040  176.3020  144.0640 C   0  0  1  0  0  3  0  0  0  0  0  0
  193.8950  173.4630  139.8450 C   0  0  1  0  0  3  0  0  0  0  0  0
  190.2670  173.9770  137.6920 O   0  0  0  0  0  0  0  0  0  0  0  0
  190.2320  169.6990  139.0870 O   0  0  0  0  0  1  0  0  0  0  0  0
  191.0680  175.5830  143.0170 C   0  0  0  0  0  2  0  0  0  0  0  0
  194.9970  174.6910  144.5220 N   0  0  2  0  0  0  0  0  0  0  0  0
  192.5950  169.8940  138.9880 C   0  0  0  0  0  2  0  0  0  0  0  0
  195.2160  171.5420  143.5710 C   0  0  0  0  0  2  0  0  0  0  0  0
  195.0890  170.4070  138.7430 N   0  0  0  0  0  0  0  0  0  0  0  0
  195.2400  172.3030  144.8790 C   0  0  0  0  0  0  0  0  0  0  0  0
  193.5420  172.3610  138.8230 C   0  0  2  0  0  3  0  0  0  0  0  0
  194.1980  175.8540  144.9020 C   0  0  0  0  0  2  0  0  0  0  0  0
  196.5540  169.6210  142.4220 C   0  0  2  0  0  3  0  0  0  0  0  0
  193.0610  172.3050  141.7380 O   0  0  0  0  0  0  0  0  0  0  0  0
  195.0360  169.0580  138.3590 N   0  0  0  0  0  1  0  0  0  0  0  0
  197.0450  170.1590  144.6250 C   0  0  0  0  0  0  0  0  0  0  0  0
  193.1880  173.3800  141.1750 C   0  0  0  0  0  0  0  0  0  0  0  0
  196.1860  170.4540  143.5570 N   0  0  0  0  0  0  0  0  0  0  0  0
  191.6600  174.3510  142.7410 O   0  0  0  0  0  0  0  0  0  0  0  0
  195.3750  168.8340  141.9410 C   0  0  0  0  0  3  0  0  0  0  0  0
  197.0180  170.8510  145.7610 C   0  0  0  0  0  3  0  0  0  0  0  0
  196.0670  171.9700  145.8850 C   0  0  0  0  0  3  0  0  0  0  0  0
  194.9980  174.6350  143.0650 C   0  0  0  0  0  2  0  0  0  0  0  0
  191.3860  173.7650  138.5030 C   0  0  2  0  0  3  0  0  0  0  0  0
  192.2870  172.6580  137.9550 C   0  0  2  0  0  3  0  0  0  0  0  0
  193.8420  175.4630  142.5320 C   0  0  2  0  0  3  0  0  0  0  0  0
  197.9410  169.1080  144.3320 N   0  0  0  0  0  0  0  0  0  0  0  0
  190.2200  172.8370  138.5170 C   0  0  2  0  0  0  0  0  0  0  0  0
  193.7620  170.8760  139.2170 C   0  0  1  0  0  0  0  0  0  0  0  0
  197.6470  168.6730  142.9660 C   0  0  0  0  0  3  0  0  0  0  0  0
  194.5800  169.2530  140.9510 C   0  0  0  0  0  3  0  0  0  0  0  0
  194.3400  173.4900  145.0270 C   0  0  0  0  0  2  0  0  0  0  0  0
  191.2820  170.6180  139.1780 C   0  0  1  0  0  3  0  0  0  0  0  0
  193.3960  176.3340  143.7040 C   0  0  1  0  0  3  0  0  0  0  0  0
  192.7130  174.6370  141.8570 C   0  0  1  0  0  3  0  0  0  0  0  0
  194.8120  170.5500  140.2010 C   0  0  1  0  0  3  0  0  0  0  0  0
  191.1210  171.6770  138.0850 C   0  0  2  0  0  3  0  0  0  0  0  0
  187.6820  172.9540  141.3960 C   0  0  0  0  0  1  0  0  0  0  0  0
  189.5940  172.9760  139.8750 C   0  0  0  0  0  3  0  0  0  0  0  0
  188.2850  172.8190  140.0390 C   0  0  0  0  0  3  0  0  0  0  0  0
  195.3660  173.7540  139.9410 C   0  0  0  0  0  0  0  0  0  0  0  0
  196.1110  173.0320  140.5840 O   0  0  0  0  0  0  0  0  0  0  0  0
  195.9120  174.9850  139.2910 C   0  0  0  0  0  1  0  0  0  0  0  0
  191.4330  177.6070  144.2180 O   0  0  0  0  0  0  0  0  0  0  0  0
  190.0380  177.4900  144.2190 C   0  0  0  0  0  2  0  0  0  0  0  0
  189.4920  177.2690  145.6210 C   0  0  2  0  0  0  0  0  0  0  0  0
  190.1550  177.7870  146.7130 F   0  0  0  0  0  0  0  0  0  0  0  0
  188.5610  176.1570  145.8720 C   0  0  0  0  0  2  0  0  0  0  0  0
  188.1090  177.4870  145.7070 O   0  0  0  0  0  0  0  0  0  0  0  0
  1 44  1  6  0  0  0
  2 41  1  1  0  0  0
  2 17  1  0  0  0  0
  3 24  1  0  0  0  0
  3 28  1  0  0  0  0
  4 33  1  0  0  0  0
  5  1  1  0  0  0  0
  6 23  1  6  0  0  0
  6 12  1  0  0  0  0
  6 32  1  0  0  0  0
  7 33  1  0  0  0  0
  7 29  1  0  0  0  0
  8 10  1  0  0  0  0
  9 29  1  0  0  0  0
  9 36  1  0  0  0  0
 10 32  1  0  0  0  0
 10 22  2  0  0  0  0
 11 29  1  0  0  0  0
 11  2  1  0  0  0  0
 13 30  1  0  0  0  0
 13 18  1  0  0  0  0
 15  9  1  0  0  0  0
 16 21  2  0  0  0  0
 17 14  2  0  0  0  0
 17 35  1  0  0  0  0
 18  8  1  0  0  0  0
 18 16  1  0  0  0  0
 19  5  1  0  0  0  0
 20 13  1  0  0  0  0
 21 22  1  0  0  0  0
 24 28  1  0  0  0  0
 25 37  1  0  0  0  0
 25 24  1  0  0  0  0
 25 11  1  0  0  0  0
 26 23  1  0  0  0  0
 26 34  1  0  0  0  0
 27 16  1  0  0  0  0
 28 39  1  0  0  0  0
 29 36  1  0  0  0  0
 30 27  2  0  0  0  0
 31 20  2  0  0  0  0
 34  1  1  0  0  0  0
 34 12  1  0  0  0  0
 35 26  1  0  0  0  0
 35 19  1  0  0  0  0
 36 31  1  0  0  0  0
 37 28  1  0  0  0  0
 37 33  1  0  0  0  0
 39 40  2  0  0  0  0
 40 38  1  0  0  0  0
 41 42  2  0  0  0  0
 43 41  1  0  0  0  0
 44 45  1  0  0  0  0
 45 46  1  0  0  0  0
 46 49  1  0  0  0  0
 46 48  1  0  0  0  0
 46 47  1  0  0  0  0
 49 48  1  0  0  0  0
M  END
>  <MODEL>
8

>  <REMARK>
 VINA RESULT:      -6.3      3.162      6.942
  Name = 
  5 active torsions:
  status: ('A' for Active; 'I' for Inactive)
    1  A    between atoms: C_1  and  C_47
    2  A    between atoms: C_2  and  O_34
    3  A    between atoms: C_3  and  C_25
    4  A    between atoms: C_11  and  C_37
    5  A    between atoms: O_34  and  C_47
                            x       y       z     vdW  Elec       q    Type
                         _______ _______ _______ _____ _____    ______ ____

>  <TORSDO>
F 5

$$$$
=
 OpenBabel11062420273D

 49 58  0  0  1  0  0  0  0  0999 V2000
  188.4680  174.6400  141.6230 C   0  0  1  0  0  3  0  0  0  0  0  0
  192.7760  171.3080  142.0280 C   0  0  1  0  0  3  0  0  0  0  0  0
  193.7850  172.9520  145.8150 O   0  0  0  0  0  0  0  0  0  0  0  0
  196.8010  174.6430  142.9360 O   0  0  0  0  0  1  0  0  0  0  0  0
  189.6950  174.8930  142.4850 C   0  0  0  0  0  2  0  0  0  0  0  0
  189.2970  172.7280  138.7900 N   0  0  2  0  0  0  0  0  0  0  0  0
  196.4230  172.6370  141.7270 C   0  0  0  0  0  2  0  0  0  0  0  0
  192.4610  172.6880  137.8670 C   0  0  0  0  0  2  0  0  0  0  0  0
  195.8270  170.3770  140.6850 N   0  0  0  0  0  0  0  0  0  0  0  0
  191.1590  173.2280  137.3170 C   0  0  0  0  0  0  0  0  0  0  0  0
  194.2680  171.2630  142.4190 C   0  0  2  0  0  3  0  0  0  0  0  0
  188.1930  173.3390  139.5270 C   0  0  0  0  0  2  0  0  0  0  0  0
  194.5390  171.3780  136.9930 C   0  0  2  0  0  3  0  0  0  0  0  0
  192.9380  173.2640  140.7000 O   0  0  0  0  0  0  0  0  0  0  0  0
  197.1870  170.4920  140.3600 N   0  0  0  0  0  1  0  0  0  0  0  0
  192.9390  172.0770  135.4650 C   0  0  0  0  0  0  0  0  0  0  0  0
  192.2710  172.6280  141.4990 C   0  0  0  0  0  0  0  0  0  0  0  0
  193.3020  172.1250  136.8190 N   0  0  0  0  0  0  0  0  0  0  0  0
  190.8310  174.5200  141.7660 O   0  0  0  0  0  0  0  0  0  0  0  0
  195.5850  172.2330  137.6390 C   0  0  0  0  0  3  0  0  0  0  0  0
  191.7860  172.5780  135.0290 C   0  0  0  0  0  3  0  0  0  0  0  0
  190.8630  173.1820  136.0060 C   0  0  0  0  0  3  0  0  0  0  0  0
  190.0610  171.9390  139.7490 C   0  0  0  0  0  2  0  0  0  0  0  0
  193.4470  172.5370  144.5220 C   0  0  2  0  0  3  0  0  0  0  0  0
  194.5750  171.7390  143.8660 C   0  0  2  0  0  3  0  0  0  0  0  0
  189.7330  172.4070  141.1560 C   0  0  2  0  0  3  0  0  0  0  0  0
  193.8940  171.4130  134.6650 N   0  0  0  0  0  0  0  0  0  0  0  0
  194.3700  173.6830  144.7620 C   0  0  2  0  0  0  0  0  0  0  0  0
  195.3340  171.6130  141.3470 C   0  0  1  0  0  0  0  0  0  0  0  0
  194.9720  170.9910  135.5600 C   0  0  0  0  0  3  0  0  0  0  0  0
  195.7950  172.2440  138.9590 C   0  0  0  0  0  3  0  0  0  0  0  0
  190.1600  173.7890  138.2790 C   0  0  0  0  0  2  0  0  0  0  0  0
  195.8470  173.6520  142.6880 C   0  0  1  0  0  3  0  0  0  0  0  0
  188.4530  173.2290  141.0190 C   0  0  1  0  0  3  0  0  0  0  0  0
  190.9020  173.1230  141.8870 C   0  0  1  0  0  3  0  0  0  0  0  0
  195.0170  171.3720  139.9250 C   0  0  1  0  0  3  0  0  0  0  0  0
  195.4860  172.9590  144.0040 C   0  0  2  0  0  3  0  0  0  0  0  0
  192.7500  177.1570  144.5590 C   0  0  0  0  0  1  0  0  0  0  0  0
  193.6520  174.9060  144.2700 C   0  0  0  0  0  3  0  0  0  0  0  0
  193.4590  175.9490  145.0690 C   0  0  0  0  0  3  0  0  0  0  0  0
  192.3160  170.1100  141.2460 C   0  0  0  0  0  0  0  0  0  0  0  0
  192.5310  170.0180  140.0480 O   0  0  0  0  0  0  0  0  0  0  0  0
  191.5250  169.0450  141.9380 C   0  0  0  0  0  1  0  0  0  0  0  0
  187.3160  174.8330  142.3880 O   0  0  0  0  0  0  0  0  0  0  0  0
  187.5550  176.0050  143.1140 C   0  0  0  0  0  2  0  0  0  0  0  0
  186.5380  177.0880  142.7880 C   0  0  2  0  0  0  0  0  0  0  0  0
  185.1920  176.7910  142.7650 F   0  0  0  0  0  0  0  0  0  0  0  0
  186.9660  178.2930  142.0590 C   0  0  0  0  0  2  0  0  0  0  0  0
  186.7890  178.2910  143.4630 O   0  0  0  0  0  0  0  0  0  0  0  0
  1 44  1  1  0  0  0
  1  5  1  0  0  0  0
  2 41  1  6  0  0  0
  2 11  1  0  0  0  0
  6 32  1  1  0  0  0
  6 12  1  0  0  0  0
  6 23  1  0  0  0  0
  7 33  1  0  0  0  0
  9 29  1  0  0  0  0
 10  8  1  0  0  0  0
 10 32  1  0  0  0  0
 11 25  1  0  0  0  0
 12 34  1  0  0  0  0
 13 20  1  0  0  0  0
 14 17  2  0  0  0  0
 15  9  1  0  0  0  0
 16 18  1  0  0  0  0
 17 35  1  0  0  0  0
 17  2  1  0  0  0  0
 18 13  1  0  0  0  0
 18  8  1  0  0  0  0
 19 35  1  0  0  0  0
 19  5  1  0  0  0  0
 20 31  2  0  0  0  0
 21 16  2  0  0  0  0
 21 22  1  0  0  0  0
 22 10  2  0  0  0  0
 23 26  1  0  0  0  0
 24 28  1  0  0  0  0
 24  3  1  0  0  0  0
 25 37  1  0  0  0  0
 25 24  1  0  0  0  0
 26 35  1  0  0  0  0
 27 16  1  0  0  0  0
 27 30  2  0  0  0  0
 28  3  1  0  0  0  0
 29  7  1  0  0  0  0
 29 11  1  0  0  0  0
 30 13  1  0  0  0  0
 31 36  1  0  0  0  0
 33  4  1  0  0  0  0
 33 37  1  0  0  0  0
 34 26  1  0  0  0  0
 34  1  1  0  0  0  0
 36  9  1  0  0  0  0
 36 29  1  0  0  0  0
 37 28  1  0  0  0  0
 38 40  1  0  0  0  0
 39 28  1  0  0  0  0
 39 40  2  0  0  0  0
 41 43  1  0  0  0  0
 42 41  2  0  0  0  0
 44 45  1  0  0  0  0
 46 45  1  0  0  0  0
 46 49  1  0  0  0  0
 47 46  1  0  0  0  0
 48 46  1  0  0  0  0
 48 49  1  0  0  0  0
M  END
>  <MODEL>
9

>  <REMARK>
 VINA RESULT:      -6.1      3.489      8.023
  Name = 
  5 active torsions:
  status: ('A' for Active; 'I' for Inactive)
    1  A    between atoms: C_1  and  C_47
    2  A    between atoms: C_2  and  O_34
    3  A    between atoms: C_3  and  C_25
    4  A    between atoms: C_11  and  C_37
    5  A    between atoms: O_34  and  C_47
                            x       y       z     vdW  Elec       q    Type
                         _______ _______ _______ _____ _____    ______ ____

>  <TORSDO>
F 5

$$$$
