=
 OpenBabel11062419013D

 51 56  0  0  1  0  0  0  0  0999 V2000
  193.9710  173.8070  145.5760 C   0  0  0  0  0  0  0  0  0  0  0  0
  191.8190  174.7740  146.0530 C   0  0  0  0  0  0  0  0  0  0  0  0
  190.4090  174.8380  146.1680 N   0  0  0  0  0  0  0  0  0  0  0  0
  194.4110  177.3150  146.8220 N   0  0  0  0  0  1  0  0  0  0  0  0
  190.1430  176.0310  146.6120 C   0  0  0  0  0  0  0  0  0  0  0  0
  194.5790  175.0150  145.9790 C   0  0  0  0  0  3  0  0  0  0  0  0
  191.3510  176.9030  146.8400 C   0  0  0  0  0  2  0  0  0  0  0  0
  193.7970  176.0950  146.4200 C   0  0  0  0  0  0  0  0  0  0  0  0
  192.4120  175.9430  146.4410 C   0  0  0  0  0  0  0  0  0  0  0  0
  192.5640  173.6880  145.5990 C   0  0  0  0  0  3  0  0  0  0  0  0
  195.2450  171.2390  142.9950 C   0  0  1  0  0  3  0  0  0  0  0  0
  197.9360  168.8530  143.6900 N   0  0  0  0  0  2  0  0  0  0  0  0
  197.5460  169.2950  144.9730 C   0  0  0  0  0  0  0  0  0  0  0  0
  197.2500  169.6650  142.6990 C   0  0  0  0  0  2  0  0  0  0  0  0
  194.8450  172.6990  145.0660 C   0  0  2  0  0  3  0  0  0  0  0  0
  196.5940  170.4220  144.9330 C   0  0  2  0  0  3  0  0  0  0  0  0
  197.9260  168.7300  146.0300 O   0  0  0  0  0  0  0  0  0  0  0  0
  196.6490  170.8520  143.4680 C   0  0  2  0  0  3  0  0  0  0  0  0
  196.9880  171.5600  145.8750 C   0  0  0  0  0  2  0  0  0  0  0  0
  196.2740  172.8840  145.5800 C   0  0  0  0  0  2  0  0  0  0  0  0
  194.8520  172.6200  143.5320 C   0  0  0  0  0  2  0  0  0  0  0  0
  195.2030  171.2690  141.5870 O   0  0  0  0  0  0  0  0  0  0  0  0
  194.0040  170.4760  139.5910 C   0  0  0  0  0  1  0  0  0  0  0  0
  193.9980  170.6940  141.1060 C   0  0  0  0  0  0  0  0  0  0  0  0
  193.7190  169.3620  141.7920 C   0  0  0  0  0  1  0  0  0  0  0  0
  192.8400  171.6230  141.4630 C   0  0  0  0  0  2  0  0  0  0  0  0
  191.5840  170.8810  141.9260 C   0  0  0  0  0  2  0  0  0  0  0  0
  190.9520  171.5470  143.1380 C   0  0  0  0  0  2  0  0  0  0  0  0
  189.5380  171.9930  142.8160 C   0  0  0  0  0  2  0  0  0  0  0  0
  189.4500  173.5010  142.9060 C   0  0  0  0  0  2  0  0  0  0  0  0
  188.1600  173.9670  142.2700 C   0  0  0  0  0  1  0  0  0  0  0  0
  188.8420  176.4710  146.8570 O   0  0  0  0  0  0  0  0  0  0  0  0
  184.7600  177.4940  146.6040 C   0  0  2  0  0  3  0  0  0  0  0  0
  187.7590  176.8640  144.7020 C   0  0  1  0  0  3  0  0  0  0  0  0
  187.1390  178.0720  146.7410 O   0  0  0  0  0  0  0  0  0  0  0  0
  188.2100  177.4600  146.0480 C   0  0  1  0  0  3  0  0  0  0  0  0
  186.2410  176.9140  144.5370 C   0  0  0  0  0  2  0  0  0  0  0  0
  186.1670  177.0930  147.0610 C   0  0  2  0  0  3  0  0  0  0  0  0
  185.5480  176.4340  145.8200 C   0  0  1  0  0  3  0  0  0  0  0  0
  183.6990  179.0340  144.8780 N   0  0  0  0  0  1  0  0  0  0  0  0
  184.6410  178.8370  145.9280 C   0  0  0  0  0  0  0  0  0  0  0  0
  185.4430  179.7620  146.2230 O   0  0  0  0  0  0  0  0  0  0  0  0
  188.4700  177.5200  143.5220 C   0  0  0  0  0  2  0  0  0  0  0  0
  189.9500  177.7480  143.7900 C   0  0  0  0  0  2  0  0  0  0  0  0
  190.7560  176.7070  143.0370 C   0  0  0  0  0  2  0  0  0  0  0  0
  192.2370  177.0510  143.0600 C   0  0  0  0  0  2  0  0  0  0  0  0
  193.0740  175.9250  142.4840 C   0  0  0  0  0  2  0  0  0  0  0  0
  194.2400  176.4610  141.8040 N   0  0  0  0  0  2  0  0  0  0  0  0
  196.0430  174.8230  140.7700 S   0  0  0  0  0  0  0  0  0  0  0  0
  195.5280  175.8550  141.9220 C   0  0  0  0  0  0  0  0  0  0  0  0
  196.3790  176.1650  143.0200 N   0  0  0  0  0  1  0  0  0  0  0  0
  1 10  2  0  0  0  0
  1  6  1  0  0  0  0
  2  3  1  0  0  0  0
  2  9  2  0  0  0  0
  3  5  2  0  0  0  0
  5  7  1  0  0  0  0
  5 32  1  0  0  0  0
  6  8  2  0  0  0  0
  8  9  1  0  0  0  0
  8  4  1  0  0  0  0
  9  7  1  0  0  0  0
 10  2  1  0  0  0  0
 11 22  1  6  0  0  0
 11 18  1  0  0  0  0
 11 21  1  0  0  0  0
 12 13  1  0  0  0  0
 13 17  2  0  0  0  0
 14 12  1  0  0  0  0
 15  1  1  6  0  0  0
 15 20  1  0  0  0  0
 16 13  1  0  0  0  0
 16 19  1  1  0  0  0
 18 14  1  6  0  0  0
 18 16  1  0  0  0  0
 20 19  1  0  0  0  0
 21 15  1  0  0  0  0
 23 24  1  0  0  0  0
 24 26  1  0  0  0  0
 24 22  1  0  0  0  0
 24 25  1  0  0  0  0
 26 27  1  0  0  0  0
 27 28  1  0  0  0  0
 29 30  1  0  0  0  0
 29 28  1  0  0  0  0
 31 30  1  0  0  0  0
 33 41  1  6  0  0  0
 33 38  1  0  0  0  0
 34 43  1  6  0  0  0
 34 36  1  0  0  0  0
 36 35  1  0  0  0  0
 36 32  1  1  0  0  0
 37 34  1  0  0  0  0
 38 35  1  6  0  0  0
 39 37  1  6  0  0  0
 39 33  1  0  0  0  0
 39 38  1  0  0  0  0
 40 41  1  0  0  0  0
 41 42  2  0  0  0  0
 43 44  1  0  0  0  0
 45 46  1  0  0  0  0
 45 44  1  0  0  0  0
 47 46  1  0  0  0  0
 48 50  1  0  0  0  0
 48 47  1  0  0  0  0
 49 50  2  0  0  0  0
 50 51  1  0  0  0  0
M  END
>  <MODEL>
1

>  <REMARK>
 VINA RESULT:      -6.5      0.000      0.000
  Name = 
  18 active torsions:
  status: ('A' for Active; 'I' for Inactive)
    1  A    between atoms: C_1  and  N_5
    2  A    between atoms: C_1  and  C_23
    3  A    between atoms: C_2  and  C_25
    4  A    between atoms: C_4  and  C_24
    5  A    between atoms: N_5  and  C_14
    6  A    between atoms: C_8  and  C_20
    7  A    between atoms: C_8  and  C_39
    8  A    between atoms: C_9  and  O_15
    9  A    between atoms: C_10  and  C_36
   10  A    between atoms: O_13  and  C_18
   11  A    between atoms: O_13  and  C_32
   12  A    between atoms: O_15  and  C_21
   13  A    between atoms: C_21  and  C_28
   14  A    between atoms: C_23  and  C_49
   15  A    between atoms: C_28  and  C_33
   16  A    between atoms: C_33  and  C_42
   17  A    between atoms: C_36  and  C_42
   18  A    between atoms: C_39  and  C_49
                            x       y       z     vdW  Elec       q    Type
                         _______ _______ _______ _____ _____    ______ ____

>  <TORSDO>
F 18

$$$$
=
 OpenBabel11062419013D

 51 56  0  0  1  0  0  0  0  0999 V2000
  188.8260  176.0740  142.1870 C   0  0  0  0  0  0  0  0  0  0  0  0
  190.1070  174.1870  141.4140 C   0  0  0  0  0  0  0  0  0  0  0  0
  190.3550  172.9410  140.7910 N   0  0  0  0  0  0  0  0  0  0  0  0
  192.4410  176.5630  143.0500 N   0  0  0  0  0  1  0  0  0  0  0  0
  191.6350  172.7360  140.9030 C   0  0  0  0  0  0  0  0  0  0  0  0
  190.0150  176.6480  142.6860 C   0  0  0  0  0  3  0  0  0  0  0  0
  192.3880  173.8280  141.6200 C   0  0  0  0  0  2  0  0  0  0  0  0
  191.2440  175.9850  142.5410 C   0  0  0  0  0  0  0  0  0  0  0  0
  191.2560  174.7470  141.9000 C   0  0  0  0  0  0  0  0  0  0  0  0
  188.8710  174.8130  141.5520 C   0  0  0  0  0  3  0  0  0  0  0  0
  186.1590  177.9540  144.2420 C   0  0  1  0  0  3  0  0  0  0  0  0
  182.9870  179.1240  142.8320 N   0  0  0  0  0  2  0  0  0  0  0  0
  183.4470  178.1870  141.8810 C   0  0  0  0  0  0  0  0  0  0  0  0
  184.0410  179.3370  143.8090 C   0  0  0  0  0  2  0  0  0  0  0  0
  187.5310  176.7960  142.4110 C   0  0  2  0  0  3  0  0  0  0  0  0
  184.8230  177.7210  142.1450 C   0  0  2  0  0  3  0  0  0  0  0  0
  182.7200  177.7510  140.9500 O   0  0  0  0  0  0  0  0  0  0  0  0
  185.3070  178.7000  143.2130 C   0  0  2  0  0  3  0  0  0  0  0  0
  185.7050  177.7580  140.8970 C   0  0  0  0  0  2  0  0  0  0  0  0
  187.2060  177.6710  141.1980 C   0  0  0  0  0  2  0  0  0  0  0  0
  187.5550  177.6590  143.6810 C   0  0  0  0  0  2  0  0  0  0  0  0
  186.2930  178.7320  145.4100 O   0  0  0  0  0  0  0  0  0  0  0  0
  184.9540  178.6680  147.4720 C   0  0  0  0  0  1  0  0  0  0  0  0
  185.9690  177.9710  146.5630 C   0  0  0  0  0  0  0  0  0  0  0  0
  185.4230  176.6020  146.1760 C   0  0  0  0  0  1  0  0  0  0  0  0
  187.2500  177.7240  147.3570 C   0  0  0  0  0  2  0  0  0  0  0  0
  187.9690  176.4310  146.9660 C   0  0  0  0  0  2  0  0  0  0  0  0
  189.4010  176.6950  146.5270 C   0  0  0  0  0  2  0  0  0  0  0  0
  190.2660  175.4760  146.7920 C   0  0  0  0  0  2  0  0  0  0  0  0
  189.4700  174.2200  146.5130 C   0  0  0  0  0  2  0  0  0  0  0  0
  189.8210  173.6980  145.1380 C   0  0  0  0  0  1  0  0  0  0  0  0
  192.2630  171.5960  140.4010 O   0  0  0  0  0  0  0  0  0  0  0  0
  195.2480  169.6780  138.1250 C   0  0  2  0  0  3  0  0  0  0  0  0
  193.6230  169.7970  141.3430 C   0  0  1  0  0  3  0  0  0  0  0  0
  194.4860  171.3970  139.6990 O   0  0  0  0  0  0  0  0  0  0  0  0
  193.5870  171.2300  140.7800 C   0  0  1  0  0  3  0  0  0  0  0  0
  194.4750  168.8680  140.4800 C   0  0  0  0  0  2  0  0  0  0  0  0
  194.0960  170.5540  138.6300 C   0  0  2  0  0  3  0  0  0  0  0  0
  194.1420  169.0620  138.9940 C   0  0  1  0  0  3  0  0  0  0  0  0
  197.1890  171.1520  138.8550 N   0  0  0  0  0  1  0  0  0  0  0  0
  196.5760  169.8680  138.8140 C   0  0  0  0  0  0  0  0  0  0  0  0
  197.1950  168.8700  139.2690 O   0  0  0  0  0  0  0  0  0  0  0  0
  194.0710  169.7700  142.8000 C   0  0  0  0  0  2  0  0  0  0  0  0
  194.2880  171.1650  143.3670 C   0  0  0  0  0  2  0  0  0  0  0  0
  193.3180  171.3920  144.5110 C   0  0  0  0  0  2  0  0  0  0  0  0
  193.8710  172.4140  145.4920 C   0  0  0  0  0  2  0  0  0  0  0  0
  193.4910  173.8270  145.0900 C   0  0  0  0  0  2  0  0  0  0  0  0
  193.8110  174.7570  146.1580 N   0  0  0  0  0  2  0  0  0  0  0  0
  195.6380  176.0100  144.7100 S   0  0  0  0  0  0  0  0  0  0  0  0
  194.5440  175.9590  145.9170 C   0  0  0  0  0  0  0  0  0  0  0  0
  194.3090  177.1240  146.7020 N   0  0  0  0  0  1  0  0  0  0  0  0
  1  6  1  0  0  0  0
  2 10  1  0  0  0  0
  2  9  2  0  0  0  0
  3  5  2  0  0  0  0
  3  2  1  0  0  0  0
  5  7  1  0  0  0  0
  7  9  1  0  0  0  0
  8  6  2  0  0  0  0
  8  4  1  0  0  0  0
  9  8  1  0  0  0  0
 10  1  2  0  0  0  0
 11 22  1  1  0  0  0
 12 14  1  0  0  0  0
 13 16  1  0  0  0  0
 13 12  1  0  0  0  0
 15  1  1  6  0  0  0
 15 21  1  0  0  0  0
 16 19  1  6  0  0  0
 16 18  1  0  0  0  0
 17 13  2  0  0  0  0
 18 14  1  1  0  0  0
 18 11  1  0  0  0  0
 19 20  1  0  0  0  0
 20 15  1  0  0  0  0
 21 11  1  0  0  0  0
 22 24  1  0  0  0  0
 24 26  1  0  0  0  0
 24 23  1  0  0  0  0
 25 24  1  0  0  0  0
 27 26  1  0  0  0  0
 28 29  1  0  0  0  0
 28 27  1  0  0  0  0
 30 29  1  0  0  0  0
 31 30  1  0  0  0  0
 32  5  1  0  0  0  0
 33 38  1  0  0  0  0
 33 41  1  1  0  0  0
 33 39  1  0  0  0  0
 34 43  1  1  0  0  0
 35 36  1  0  0  0  0
 36 32  1  6  0  0  0
 36 34  1  0  0  0  0
 37 34  1  0  0  0  0
 38 39  1  0  0  0  0
 38 35  1  1  0  0  0
 39 37  1  1  0  0  0
 41 40  1  0  0  0  0
 41 42  2  0  0  0  0
 43 44  1  0  0  0  0
 44 45  1  0  0  0  0
 45 46  1  0  0  0  0
 47 46  1  0  0  0  0
 47 48  1  0  0  0  0
 49 50  2  0  0  0  0
 50 48  1  0  0  0  0
 50 51  1  0  0  0  0
M  END
>  <MODEL>
2

>  <REMARK>
 VINA RESULT:      -6.1      2.399     10.635
  Name = 
  18 active torsions:
  status: ('A' for Active; 'I' for Inactive)
    1  A    between atoms: C_1  and  N_5
    2  A    between atoms: C_1  and  C_23
    3  A    between atoms: C_2  and  C_25
    4  A    between atoms: C_4  and  C_24
    5  A    between atoms: N_5  and  C_14
    6  A    between atoms: C_8  and  C_20
    7  A    between atoms: C_8  and  C_39
    8  A    between atoms: C_9  and  O_15
    9  A    between atoms: C_10  and  C_36
   10  A    between atoms: O_13  and  C_18
   11  A    between atoms: O_13  and  C_32
   12  A    between atoms: O_15  and  C_21
   13  A    between atoms: C_21  and  C_28
   14  A    between atoms: C_23  and  C_49
   15  A    between atoms: C_28  and  C_33
   16  A    between atoms: C_33  and  C_42
   17  A    between atoms: C_36  and  C_42
   18  A    between atoms: C_39  and  C_49
                            x       y       z     vdW  Elec       q    Type
                         _______ _______ _______ _____ _____    ______ ____

>  <TORSDO>
F 18

$$$$
=
 OpenBabel11062419013D

 51 56  0  0  1  0  0  0  0  0999 V2000
  188.9400  175.5860  142.0730 C   0  0  0  0  0  0  0  0  0  0  0  0
  191.2860  175.0520  142.1570 C   0  0  0  0  0  0  0  0  0  0  0  0
  192.6400  175.1620  142.5560 N   0  0  0  0  0  0  0  0  0  0  0  0
  189.6460  172.6460  139.8570 N   0  0  0  0  0  1  0  0  0  0  0  0
  193.2740  174.2160  141.9270 C   0  0  0  0  0  0  0  0  0  0  0  0
  188.7520  174.5170  141.1710 C   0  0  0  0  0  3  0  0  0  0  0  0
  192.4090  173.3660  141.0310 C   0  0  0  0  0  2  0  0  0  0  0  0
  189.8370  173.7210  140.7710 C   0  0  0  0  0  0  0  0  0  0  0  0
  191.0990  174.0180  141.2820 C   0  0  0  0  0  0  0  0  0  0  0  0
  190.2340  175.8680  142.5650 C   0  0  0  0  0  3  0  0  0  0  0  0
  186.7400  177.7500  144.3860 C   0  0  1  0  0  3  0  0  0  0  0  0
  183.5560  179.2240  143.3340 N   0  0  0  0  0  2  0  0  0  0  0  0
  183.8020  178.2340  142.3560 C   0  0  0  0  0  0  0  0  0  0  0  0
  184.7350  179.3380  144.1750 C   0  0  0  0  0  2  0  0  0  0  0  0
  187.7590  176.4390  142.4320 C   0  0  2  0  0  3  0  0  0  0  0  0
  185.1460  177.6330  142.4670 C   0  0  2  0  0  3  0  0  0  0  0  0
  182.9290  177.8660  141.5290 O   0  0  0  0  0  0  0  0  0  0  0  0
  185.8500  178.5690  143.4480 C   0  0  2  0  0  3  0  0  0  0  0  0
  185.8720  177.5670  141.1230 C   0  0  0  0  0  2  0  0  0  0  0  0
  187.3820  177.3300  141.2470 C   0  0  0  0  0  2  0  0  0  0  0  0
  188.0220  177.3070  143.6710 C   0  0  0  0  0  2  0  0  0  0  0  0
  187.0900  178.5210  145.5120 O   0  0  0  0  0  0  0  0  0  0  0  0
  186.5420  178.6300  147.9070 C   0  0  0  0  0  1  0  0  0  0  0  0
  186.9400  177.7690  146.7060 C   0  0  0  0  0  0  0  0  0  0  0  0
  185.9040  176.6670  146.5280 C   0  0  0  0  0  1  0  0  0  0  0  0
  188.2670  177.0800  147.0150 C   0  0  0  0  0  2  0  0  0  0  0  0
  188.1790  175.5530  146.9920 C   0  0  0  0  0  2  0  0  0  0  0  0
  189.5380  174.9070  147.2160 C   0  0  0  0  0  2  0  0  0  0  0  0
  190.4240  175.1110  146.0000 C   0  0  0  0  0  2  0  0  0  0  0  0
  190.9600  173.7740  145.5350 C   0  0  0  0  0  2  0  0  0  0  0  0
  189.8460  172.9870  144.8810 C   0  0  0  0  0  1  0  0  0  0  0  0
  194.6450  174.0040  142.0680 O   0  0  0  0  0  0  0  0  0  0  0  0
  196.9100  172.7770  145.4050 C   0  0  2  0  0  3  0  0  0  0  0  0
  196.6210  172.5890  141.8150 C   0  0  1  0  0  3  0  0  0  0  0  0
  195.1270  172.4530  143.7530 O   0  0  0  0  0  0  0  0  0  0  0  0
  195.1880  172.7210  142.3640 C   0  0  1  0  0  3  0  0  0  0  0  0
  197.6430  172.3900  142.9330 C   0  0  0  0  0  2  0  0  0  0  0  0
  195.8960  173.4160  144.4500 C   0  0  2  0  0  3  0  0  0  0  0  0
  197.3850  173.3810  144.0760 C   0  0  1  0  0  3  0  0  0  0  0  0
  195.7840  170.5710  145.9890 N   0  0  0  0  0  1  0  0  0  0  0  0
  196.9070  171.2690  145.4620 C   0  0  0  0  0  0  0  0  0  0  0  0
  197.9390  170.6270  145.1340 O   0  0  0  0  0  0  0  0  0  0  0  0
  196.7270  171.4910  140.7610 C   0  0  0  0  0  2  0  0  0  0  0  0
  196.0810  171.8890  139.4420 C   0  0  0  0  0  2  0  0  0  0  0  0
  195.0400  170.8510  139.0670 C   0  0  0  0  0  2  0  0  0  0  0  0
  195.1090  169.6550  140.0020 C   0  0  0  0  0  2  0  0  0  0  0  0
  193.7270  169.1050  140.2990 C   0  0  0  0  0  2  0  0  0  0  0  0
  192.7080  169.9910  139.7650 N   0  0  0  0  0  2  0  0  0  0  0  0
  191.1470  169.8530  137.6330 S   0  0  0  0  0  0  0  0  0  0  0  0
  191.5030  169.4930  139.1830 C   0  0  0  0  0  0  0  0  0  0  0  0
  190.6230  168.6600  139.9310 N   0  0  0  0  0  1  0  0  0  0  0  0
  1 10  1  0  0  0  0
  2  3  1  0  0  0  0
  2 10  2  0  0  0  0
  4  8  1  0  0  0  0
  5 32  1  0  0  0  0
  5  3  2  0  0  0  0
  6  1  2  0  0  0  0
  7  9  1  0  0  0  0
  7  5  1  0  0  0  0
  8  6  1  0  0  0  0
  8  9  2  0  0  0  0
  9  2  1  0  0  0  0
 11 22  1  1  0  0  0
 12 14  1  0  0  0  0
 13 16  1  0  0  0  0
 13 12  1  0  0  0  0
 15  1  1  6  0  0  0
 15 21  1  0  0  0  0
 16 19  1  6  0  0  0
 16 18  1  0  0  0  0
 17 13  2  0  0  0  0
 18 14  1  1  0  0  0
 18 11  1  0  0  0  0
 19 20  1  0  0  0  0
 20 15  1  0  0  0  0
 21 11  1  0  0  0  0
 22 24  1  0  0  0  0
 24 26  1  0  0  0  0
 24 23  1  0  0  0  0
 25 24  1  0  0  0  0
 27 26  1  0  0  0  0
 27 28  1  0  0  0  0
 29 28  1  0  0  0  0
 30 29  1  0  0  0  0
 31 30  1  0  0  0  0
 33 41  1  6  0  0  0
 34 43  1  6  0  0  0
 34 36  1  0  0  0  0
 34 37  1  0  0  0  0
 36 32  1  1  0  0  0
 36 35  1  0  0  0  0
 38 35  1  6  0  0  0
 38 33  1  0  0  0  0
 39 37  1  6  0  0  0
 39 38  1  0  0  0  0
 39 33  1  0  0  0  0
 41 40  1  0  0  0  0
 42 41  2  0  0  0  0
 44 43  1  0  0  0  0
 45 44  1  0  0  0  0
 45 46  1  0  0  0  0
 46 47  1  0  0  0  0
 48 47  1  0  0  0  0
 49 50  2  0  0  0  0
 50 48  1  0  0  0  0
 50 51  1  0  0  0  0
M  END
>  <MODEL>
3

>  <REMARK>
 VINA RESULT:      -6.0      2.872     10.470
  Name = 
  18 active torsions:
  status: ('A' for Active; 'I' for Inactive)
    1  A    between atoms: C_1  and  N_5
    2  A    between atoms: C_1  and  C_23
    3  A    between atoms: C_2  and  C_25
    4  A    between atoms: C_4  and  C_24
    5  A    between atoms: N_5  and  C_14
    6  A    between atoms: C_8  and  C_20
    7  A    between atoms: C_8  and  C_39
    8  A    between atoms: C_9  and  O_15
    9  A    between atoms: C_10  and  C_36
   10  A    between atoms: O_13  and  C_18
   11  A    between atoms: O_13  and  C_32
   12  A    between atoms: O_15  and  C_21
   13  A    between atoms: C_21  and  C_28
   14  A    between atoms: C_23  and  C_49
   15  A    between atoms: C_28  and  C_33
   16  A    between atoms: C_33  and  C_42
   17  A    between atoms: C_36  and  C_42
   18  A    between atoms: C_39  and  C_49
                            x       y       z     vdW  Elec       q    Type
                         _______ _______ _______ _____ _____    ______ ____

>  <TORSDO>
F 18

$$$$
=
 OpenBabel11062419013D

 51 56  0  0  1  0  0  0  0  0999 V2000
  192.0020  172.7640  140.2070 C   0  0  0  0  0  0  0  0  0  0  0  0
  190.0850  173.8010  141.2300 C   0  0  0  0  0  0  0  0  0  0  0  0
  189.2750  174.3180  142.2700 N   0  0  0  0  0  0  0  0  0  0  0  0
  189.5010  173.6770  137.5670 N   0  0  0  0  0  1  0  0  0  0  0  0
  188.2000  174.7680  141.6940 C   0  0  0  0  0  0  0  0  0  0  0  0
  191.3870  172.9220  138.9470 C   0  0  0  0  0  3  0  0  0  0  0  0
  188.1700  174.5980  140.1960 C   0  0  0  0  0  2  0  0  0  0  0  0
  190.1230  173.5230  138.8390 C   0  0  0  0  0  0  0  0  0  0  0  0
  189.4920  173.9510  140.0070 C   0  0  0  0  0  0  0  0  0  0  0  0
  191.3320  173.1990  141.3730 C   0  0  0  0  0  3  0  0  0  0  0  0
  194.9430  170.9660  141.9370 C   0  0  1  0  0  3  0  0  0  0  0  0
  197.9390  169.8390  140.1570 N   0  0  0  0  0  2  0  0  0  0  0  0
  197.3450  170.7540  139.2590 C   0  0  0  0  0  0  0  0  0  0  0  0
  197.0200  169.6200  141.2600 C   0  0  0  0  0  2  0  0  0  0  0  0
  193.3300  172.0700  140.2760 C   0  0  2  0  0  3  0  0  0  0  0  0
  196.0030  171.1960  139.6860 C   0  0  2  0  0  3  0  0  0  0  0  0
  197.9410  171.1900  138.2410 O   0  0  0  0  0  0  0  0  0  0  0  0
  195.6770  170.2230  140.8180 C   0  0  2  0  0  3  0  0  0  0  0  0
  194.9730  171.1230  138.5590 C   0  0  0  0  0  2  0  0  0  0  0  0
  193.5200  171.1850  139.0430 C   0  0  0  0  0  2  0  0  0  0  0  0
  193.4820  171.2260  141.5500 C   0  0  0  0  0  2  0  0  0  0  0  0
  194.9720  170.2040  143.1210 O   0  0  0  0  0  0  0  0  0  0  0  0
  196.3230  170.4360  145.1630 C   0  0  0  0  0  1  0  0  0  0  0  0
  195.2500  171.0250  144.2440 C   0  0  0  0  0  0  0  0  0  0  0  0
  195.6890  172.4170  143.8050 C   0  0  0  0  0  1  0  0  0  0  0  0
  193.9620  171.2040  145.0460 C   0  0  0  0  0  2  0  0  0  0  0  0
  193.4540  172.6460  145.0680 C   0  0  0  0  0  2  0  0  0  0  0  0
  191.9820  172.7300  144.6940 C   0  0  0  0  0  2  0  0  0  0  0  0
  191.3370  173.9330  145.3570 C   0  0  0  0  0  2  0  0  0  0  0  0
  189.8770  173.6420  145.6260 C   0  0  0  0  0  2  0  0  0  0  0  0
  189.3190  174.6930  146.5590 C   0  0  0  0  0  1  0  0  0  0  0  0
  187.1550  175.3590  142.4030 O   0  0  0  0  0  0  0  0  0  0  0  0
  184.4730  178.5260  143.1460 C   0  0  2  0  0  3  0  0  0  0  0  0
  187.8870  177.6900  142.3380 C   0  0  1  0  0  3  0  0  0  0  0  0
  186.1470  176.8850  143.8640 O   0  0  0  0  0  0  0  0  0  0  0  0
  187.3420  176.5310  143.1930 C   0  0  1  0  0  3  0  0  0  0  0  0
  186.9080  178.8620  142.2770 C   0  0  0  0  0  2  0  0  0  0  0  0
  185.1390  177.1650  142.9100 C   0  0  2  0  0  3  0  0  0  0  0  0
  185.4850  178.3560  142.0040 C   0  0  1  0  0  3  0  0  0  0  0  0
  184.7080  178.8550  145.6580 N   0  0  0  0  0  1  0  0  0  0  0  0
  184.9690  179.3100  144.3350 C   0  0  0  0  0  0  0  0  0  0  0  0
  185.5320  180.4230  144.1610 O   0  0  0  0  0  0  0  0  0  0  0  0
  189.2670  178.1410  142.8040 C   0  0  0  0  0  2  0  0  0  0  0  0
  189.6250  177.5900  144.1760 C   0  0  0  0  0  2  0  0  0  0  0  0
  191.1290  177.4100  144.2620 C   0  0  0  0  0  2  0  0  0  0  0  0
  191.7070  177.0440  142.9050 C   0  0  0  0  0  2  0  0  0  0  0  0
  193.0050  176.2710  143.0480 C   0  0  0  0  0  2  0  0  0  0  0  0
  193.5530  176.4510  144.3810 N   0  0  0  0  0  2  0  0  0  0  0  0
  196.0780  176.3330  143.5960 S   0  0  0  0  0  0  0  0  0  0  0  0
  194.8990  176.0950  144.6980 C   0  0  0  0  0  0  0  0  0  0  0  0
  195.2290  175.5620  145.9760 N   0  0  0  0  0  1  0  0  0  0  0  0
  1 10  1  0  0  0  0
  2 10  2  0  0  0  0
  2  3  1  0  0  0  0
  4  8  1  0  0  0  0
  5  3  2  0  0  0  0
  5 32  1  0  0  0  0
  6  1  2  0  0  0  0
  7  5  1  0  0  0  0
  8  6  1  0  0  0  0
  8  9  2  0  0  0  0
  9  7  1  0  0  0  0
  9  2  1  0  0  0  0
 11 22  1  1  0  0  0
 12 14  1  0  0  0  0
 13 16  1  0  0  0  0
 13 12  1  0  0  0  0
 15  1  1  6  0  0  0
 15 21  1  0  0  0  0
 16 19  1  6  0  0  0
 16 18  1  0  0  0  0
 17 13  2  0  0  0  0
 18 14  1  1  0  0  0
 18 11  1  0  0  0  0
 19 20  1  0  0  0  0
 20 15  1  0  0  0  0
 21 11  1  0  0  0  0
 22 24  1  0  0  0  0
 24 26  1  0  0  0  0
 24 23  1  0  0  0  0
 25 24  1  0  0  0  0
 26 27  1  0  0  0  0
 28 27  1  0  0  0  0
 28 29  1  0  0  0  0
 29 30  1  0  0  0  0
 30 31  1  0  0  0  0
 33 41  1  1  0  0  0
 34 43  1  1  0  0  0
 34 36  1  0  0  0  0
 36 32  1  6  0  0  0
 36 35  1  0  0  0  0
 37 34  1  0  0  0  0
 38 33  1  0  0  0  0
 38 35  1  1  0  0  0
 39 37  1  1  0  0  0
 39 38  1  0  0  0  0
 39 33  1  0  0  0  0
 41 40  1  0  0  0  0
 42 41  2  0  0  0  0
 43 44  1  0  0  0  0
 44 45  1  0  0  0  0
 46 47  1  0  0  0  0
 46 45  1  0  0  0  0
 47 48  1  0  0  0  0
 48 50  1  0  0  0  0
 49 50  2  0  0  0  0
 50 51  1  0  0  0  0
M  END
>  <MODEL>
4

>  <REMARK>
 VINA RESULT:      -6.0      2.430      4.665
  Name = 
  18 active torsions:
  status: ('A' for Active; 'I' for Inactive)
    1  A    between atoms: C_1  and  N_5
    2  A    between atoms: C_1  and  C_23
    3  A    between atoms: C_2  and  C_25
    4  A    between atoms: C_4  and  C_24
    5  A    between atoms: N_5  and  C_14
    6  A    between atoms: C_8  and  C_20
    7  A    between atoms: C_8  and  C_39
    8  A    between atoms: C_9  and  O_15
    9  A    between atoms: C_10  and  C_36
   10  A    between atoms: O_13  and  C_18
   11  A    between atoms: O_13  and  C_32
   12  A    between atoms: O_15  and  C_21
   13  A    between atoms: C_21  and  C_28
   14  A    between atoms: C_23  and  C_49
   15  A    between atoms: C_28  and  C_33
   16  A    between atoms: C_33  and  C_42
   17  A    between atoms: C_36  and  C_42
   18  A    between atoms: C_39  and  C_49
                            x       y       z     vdW  Elec       q    Type
                         _______ _______ _______ _____ _____    ______ ____

>  <TORSDO>
F 18

$$$$
=
 OpenBabel11062419013D

 51 56  0  0  1  0  0  0  0  0999 V2000
  188.7750  176.0530  142.2390 C   0  0  0  0  0  0  0  0  0  0  0  0
  190.0040  174.1390  141.4500 C   0  0  0  0  0  0  0  0  0  0  0  0
  190.2170  172.8890  140.8230 N   0  0  0  0  0  0  0  0  0  0  0  0
  192.4080  176.4570  143.0690 N   0  0  0  0  0  1  0  0  0  0  0  0
  191.4930  172.6540  140.9230 C   0  0  0  0  0  0  0  0  0  0  0  0
  189.9810  176.5990  142.7280 C   0  0  0  0  0  3  0  0  0  0  0  0
  192.2770  173.7260  141.6340 C   0  0  0  0  0  2  0  0  0  0  0  0
  191.1930  175.9080  142.5710 C   0  0  0  0  0  0  0  0  0  0  0  0
  191.1700  174.6710  141.9270 C   0  0  0  0  0  0  0  0  0  0  0  0
  188.7840  174.7930  141.6000 C   0  0  0  0  0  3  0  0  0  0  0  0
  186.1710  177.9920  144.3220 C   0  0  1  0  0  3  0  0  0  0  0  0
  183.0140  179.2380  142.9430 N   0  0  0  0  0  2  0  0  0  0  0  0
  183.4430  178.2910  141.9860 C   0  0  0  0  0  0  0  0  0  0  0  0
  184.0820  179.4240  143.9100 C   0  0  0  0  0  2  0  0  0  0  0  0
  187.4980  176.8060  142.4750 C   0  0  2  0  0  3  0  0  0  0  0  0
  184.8100  177.7930  142.2360 C   0  0  2  0  0  3  0  0  0  0  0  0
  182.6980  177.8750  141.0620 O   0  0  0  0  0  0  0  0  0  0  0  0
  185.3270  178.7590  143.3010 C   0  0  2  0  0  3  0  0  0  0  0  0
  185.6820  177.8120  140.9810 C   0  0  0  0  0  2  0  0  0  0  0  0
  187.1830  177.6890  141.2670 C   0  0  0  0  0  2  0  0  0  0  0  0
  187.5540  177.6650  143.7470 C   0  0  0  0  0  2  0  0  0  0  0  0
  186.3340  178.7640  145.4890 O   0  0  0  0  0  0  0  0  0  0  0  0
  185.2080  178.8030  147.6750 C   0  0  0  0  0  1  0  0  0  0  0  0
  186.0120  178.0070  146.6450 C   0  0  0  0  0  0  0  0  0  0  0  0
  185.2280  176.7540  146.2720 C   0  0  0  0  0  1  0  0  0  0  0  0
  187.3110  177.5350  147.2940 C   0  0  0  0  0  2  0  0  0  0  0  0
  187.5850  176.0430  147.0940 C   0  0  0  0  0  2  0  0  0  0  0  0
  188.9190  175.8030  146.4040 C   0  0  0  0  0  2  0  0  0  0  0  0
  189.3460  174.3560  146.5700 C   0  0  0  0  0  2  0  0  0  0  0  0
  190.1900  173.9380  145.3870 C   0  0  0  0  0  2  0  0  0  0  0  0
  189.6870  172.6140  144.8550 C   0  0  0  0  0  1  0  0  0  0  0  0
  192.0890  171.5010  140.4130 O   0  0  0  0  0  0  0  0  0  0  0  0
  191.0480  168.7730  137.3710 C   0  0  2  0  0  3  0  0  0  0  0  0
  193.7860  170.4860  138.9760 C   0  0  1  0  0  3  0  0  0  0  0  0
  191.5310  171.0340  138.1890 O   0  0  0  0  0  0  0  0  0  0  0  0
  192.5660  171.4220  139.0720 C   0  0  1  0  0  3  0  0  0  0  0  0
  193.5030  169.2710  138.0950 C   0  0  0  0  0  2  0  0  0  0  0  0
  191.0600  169.7500  138.5530 C   0  0  2  0  0  3  0  0  0  0  0  0
  192.1390  168.6620  138.4460 C   0  0  1  0  0  3  0  0  0  0  0  0
  190.8530  170.4630  135.4790 N   0  0  0  0  0  1  0  0  0  0  0  0
  191.5040  169.3310  136.0460 C   0  0  0  0  0  0  0  0  0  0  0  0
  192.3990  168.7370  135.3900 O   0  0  0  0  0  0  0  0  0  0  0  0
  195.0370  171.2290  138.5170 C   0  0  0  0  0  2  0  0  0  0  0  0
  195.7340  171.9540  139.6580 C   0  0  0  0  0  2  0  0  0  0  0  0
  195.5820  173.4500  139.4620 C   0  0  0  0  0  2  0  0  0  0  0  0
  196.0650  174.2070  140.6890 C   0  0  0  0  0  2  0  0  0  0  0  0
  197.1240  173.4230  141.4400 C   0  0  0  0  0  2  0  0  0  0  0  0
  196.9560  173.5940  142.8730 N   0  0  0  0  0  2  0  0  0  0  0  0
  195.0170  174.3110  144.5240 S   0  0  0  0  0  0  0  0  0  0  0  0
  195.7450  173.2350  143.5390 C   0  0  0  0  0  0  0  0  0  0  0  0
  195.1500  171.9580  143.3310 N   0  0  0  0  0  1  0  0  0  0  0  0
  1  6  1  0  0  0  0
  2 10  1  0  0  0  0
  2  9  2  0  0  0  0
  3  5  2  0  0  0  0
  3  2  1  0  0  0  0
  5  7  1  0  0  0  0
  7  9  1  0  0  0  0
  8  6  2  0  0  0  0
  8  4  1  0  0  0  0
  9  8  1  0  0  0  0
 10  1  2  0  0  0  0
 11 22  1  1  0  0  0
 12 14  1  0  0  0  0
 13 16  1  0  0  0  0
 13 12  1  0  0  0  0
 15  1  1  6  0  0  0
 15 21  1  0  0  0  0
 16 19  1  6  0  0  0
 16 18  1  0  0  0  0
 17 13  2  0  0  0  0
 18 14  1  1  0  0  0
 18 11  1  0  0  0  0
 19 20  1  0  0  0  0
 20 15  1  0  0  0  0
 21 11  1  0  0  0  0
 22 24  1  0  0  0  0
 24 26  1  0  0  0  0
 24 23  1  0  0  0  0
 25 24  1  0  0  0  0
 27 26  1  0  0  0  0
 28 29  1  0  0  0  0
 28 27  1  0  0  0  0
 30 29  1  0  0  0  0
 31 30  1  0  0  0  0
 32  5  1  0  0  0  0
 33 41  1  6  0  0  0
 33 39  1  0  0  0  0
 33 38  1  0  0  0  0
 34 43  1  6  0  0  0
 34 36  1  0  0  0  0
 35 36  1  0  0  0  0
 36 32  1  1  0  0  0
 37 34  1  0  0  0  0
 38 35  1  6  0  0  0
 39 37  1  6  0  0  0
 39 38  1  0  0  0  0
 40 41  1  0  0  0  0
 42 41  2  0  0  0  0
 43 44  1  0  0  0  0
 45 44  1  0  0  0  0
 45 46  1  0  0  0  0
 46 47  1  0  0  0  0
 47 48  1  0  0  0  0
 48 50  1  0  0  0  0
 50 49  2  0  0  0  0
 51 50  1  0  0  0  0
M  END
>  <MODEL>
5

>  <REMARK>
 VINA RESULT:      -5.9      3.124     10.492
  Name = 
  18 active torsions:
  status: ('A' for Active; 'I' for Inactive)
    1  A    between atoms: C_1  and  N_5
    2  A    between atoms: C_1  and  C_23
    3  A    between atoms: C_2  and  C_25
    4  A    between atoms: C_4  and  C_24
    5  A    between atoms: N_5  and  C_14
    6  A    between atoms: C_8  and  C_20
    7  A    between atoms: C_8  and  C_39
    8  A    between atoms: C_9  and  O_15
    9  A    between atoms: C_10  and  C_36
   10  A    between atoms: O_13  and  C_18
   11  A    between atoms: O_13  and  C_32
   12  A    between atoms: O_15  and  C_21
   13  A    between atoms: C_21  and  C_28
   14  A    between atoms: C_23  and  C_49
   15  A    between atoms: C_28  and  C_33
   16  A    between atoms: C_33  and  C_42
   17  A    between atoms: C_36  and  C_42
   18  A    between atoms: C_39  and  C_49
                            x       y       z     vdW  Elec       q    Type
                         _______ _______ _______ _____ _____    ______ ____

>  <TORSDO>
F 18

$$$$
=
 OpenBabel11062419013D

 51 56  0  0  1  0  0  0  0  0999 V2000
  190.4370  175.8050  145.5240 C   0  0  0  0  0  0  0  0  0  0  0  0
  191.9680  173.9770  145.1900 C   0  0  0  0  0  0  0  0  0  0  0  0
  192.4100  172.7020  144.7650 N   0  0  0  0  0  0  0  0  0  0  0  0
  193.8090  176.7180  146.8840 N   0  0  0  0  0  1  0  0  0  0  0  0
  193.6640  172.6300  145.1010 C   0  0  0  0  0  0  0  0  0  0  0  0
  191.4780  176.5370  146.1340 C   0  0  0  0  0  3  0  0  0  0  0  0
  194.2020  173.8560  145.7950 C   0  0  0  0  0  2  0  0  0  0  0  0
  192.7600  175.9810  146.2640 C   0  0  0  0  0  0  0  0  0  0  0  0
  192.9730  174.6900  145.7830 C   0  0  0  0  0  0  0  0  0  0  0  0
  190.6820  174.4950  145.0550 C   0  0  0  0  0  3  0  0  0  0  0  0
  187.2360  177.0680  143.7810 C   0  0  1  0  0  3  0  0  0  0  0  0
  184.4650  178.6600  145.5710 N   0  0  0  0  0  2  0  0  0  0  0  0
  185.5340  178.7250  146.4920 C   0  0  0  0  0  0  0  0  0  0  0  0
  184.8810  177.8420  144.4450 C   0  0  0  0  0  2  0  0  0  0  0  0
  189.0710  176.4230  145.4530 C   0  0  2  0  0  3  0  0  0  0  0  0
  186.7200  177.9600  146.0570 C   0  0  2  0  0  3  0  0  0  0  0  0
  185.4900  179.4260  147.5350 O   0  0  0  0  0  0  0  0  0  0  0  0
  186.1770  177.1440  144.8850 C   0  0  2  0  0  3  0  0  0  0  0  0
  187.2800  177.0660  147.1620 C   0  0  0  0  0  2  0  0  0  0  0  0
  188.2360  175.9800  146.6560 C   0  0  0  0  0  2  0  0  0  0  0  0
  188.3370  176.0670  144.1510 C   0  0  0  0  0  2  0  0  0  0  0  0
  186.6400  176.6620  142.5710 O   0  0  0  0  0  0  0  0  0  0  0  0
  186.6890  177.1800  140.1670 C   0  0  0  0  0  1  0  0  0  0  0  0
  187.4730  176.9810  141.4660 C   0  0  0  0  0  0  0  0  0  0  0  0
  188.2880  178.2380  141.7450 C   0  0  0  0  0  1  0  0  0  0  0  0
  188.4720  175.8440  141.2680 C   0  0  0  0  0  2  0  0  0  0  0  0
  188.0810  174.8770  140.1490 C   0  0  0  0  0  2  0  0  0  0  0  0
  188.8720  173.5810  140.2230 C   0  0  0  0  0  2  0  0  0  0  0  0
  189.1440  173.2110  141.6700 C   0  0  0  0  0  2  0  0  0  0  0  0
  190.5270  172.6110  141.7880 C   0  0  0  0  0  2  0  0  0  0  0  0
  191.5620  173.6700  141.4770 C   0  0  0  0  0  1  0  0  0  0  0  0
  194.4510  171.5080  144.8430 O   0  0  0  0  0  0  0  0  0  0  0  0
  195.8830  168.3080  142.5020 C   0  0  2  0  0  3  0  0  0  0  0  0
  196.8430  171.1820  144.4570 C   0  0  1  0  0  3  0  0  0  0  0  0
  195.1380  170.6270  142.7870 O   0  0  0  0  0  0  0  0  0  0  0  0
  195.4680  171.5080  143.8440 C   0  0  1  0  0  3  0  0  0  0  0  0
  197.4200  169.8820  143.9020 C   0  0  0  0  0  2  0  0  0  0  0  0
  195.0310  169.3080  143.2910 C   0  0  2  0  0  3  0  0  0  0  0  0
  196.3470  168.7840  143.8860 C   0  0  1  0  0  3  0  0  0  0  0  0
  196.0130  169.7180  140.3880 N   0  0  0  0  0  1  0  0  0  0  0  0
  196.6560  168.8720  141.3350 C   0  0  0  0  0  0  0  0  0  0  0  0
  197.8480  168.5150  141.1410 O   0  0  0  0  0  0  0  0  0  0  0  0
  197.8240  172.3400  144.3000 C   0  0  0  0  0  2  0  0  0  0  0  0
  197.2630  173.4630  143.4420 C   0  0  0  0  0  2  0  0  0  0  0  0
  197.2480  174.7460  144.2510 C   0  0  0  0  0  2  0  0  0  0  0  0
  196.9740  175.9450  143.3580 C   0  0  0  0  0  2  0  0  0  0  0  0
  195.5600  175.9120  142.8070 C   0  0  0  0  0  2  0  0  0  0  0  0
  195.5310  176.4540  141.4610 N   0  0  0  0  0  2  0  0  0  0  0  0
  194.7670  174.9110  139.4520 S   0  0  0  0  0  0  0  0  0  0  0  0
  195.9110  175.6770  140.3250 C   0  0  0  0  0  0  0  0  0  0  0  0
  197.2750  175.5860  139.9290 N   0  0  0  0  0  1  0  0  0  0  0  0
  1  6  1  0  0  0  0
  2  9  2  0  0  0  0
  3  5  2  0  0  0  0
  3  2  1  0  0  0  0
  5  7  1  0  0  0  0
  6  8  2  0  0  0  0
  8  4  1  0  0  0  0
  9  7  1  0  0  0  0
  9  8  1  0  0  0  0
 10  2  1  0  0  0  0
 10  1  2  0  0  0  0
 11 22  1  6  0  0  0
 11 21  1  0  0  0  0
 11 18  1  0  0  0  0
 12 13  1  0  0  0  0
 13 17  2  0  0  0  0
 14 12  1  0  0  0  0
 15  1  1  6  0  0  0
 15 20  1  0  0  0  0
 16 13  1  0  0  0  0
 16 19  1  1  0  0  0
 18 14  1  6  0  0  0
 18 16  1  0  0  0  0
 20 19  1  0  0  0  0
 21 15  1  0  0  0  0
 23 24  1  0  0  0  0
 24 25  1  0  0  0  0
 24 22  1  0  0  0  0
 26 24  1  0  0  0  0
 27 28  1  0  0  0  0
 27 26  1  0  0  0  0
 28 29  1  0  0  0  0
 29 30  1  0  0  0  0
 31 30  1  0  0  0  0
 32  5  1  0  0  0  0
 33 41  1  6  0  0  0
 33 38  1  0  0  0  0
 33 39  1  0  0  0  0
 34 43  1  6  0  0  0
 35 36  1  0  0  0  0
 36 34  1  0  0  0  0
 36 32  1  1  0  0  0
 37 34  1  0  0  0  0
 38 35  1  6  0  0  0
 38 39  1  0  0  0  0
 39 37  1  6  0  0  0
 40 41  1  0  0  0  0
 42 41  2  0  0  0  0
 44 45  1  0  0  0  0
 44 43  1  0  0  0  0
 46 45  1  0  0  0  0
 47 46  1  0  0  0  0
 48 47  1  0  0  0  0
 49 50  2  0  0  0  0
 50 48  1  0  0  0  0
 51 50  1  0  0  0  0
M  END
>  <MODEL>
6

>  <REMARK>
 VINA RESULT:      -5.8      2.000      9.454
  Name = 
  18 active torsions:
  status: ('A' for Active; 'I' for Inactive)
    1  A    between atoms: C_1  and  N_5
    2  A    between atoms: C_1  and  C_23
    3  A    between atoms: C_2  and  C_25
    4  A    between atoms: C_4  and  C_24
    5  A    between atoms: N_5  and  C_14
    6  A    between atoms: C_8  and  C_20
    7  A    between atoms: C_8  and  C_39
    8  A    between atoms: C_9  and  O_15
    9  A    between atoms: C_10  and  C_36
   10  A    between atoms: O_13  and  C_18
   11  A    between atoms: O_13  and  C_32
   12  A    between atoms: O_15  and  C_21
   13  A    between atoms: C_21  and  C_28
   14  A    between atoms: C_23  and  C_49
   15  A    between atoms: C_28  and  C_33
   16  A    between atoms: C_33  and  C_42
   17  A    between atoms: C_36  and  C_42
   18  A    between atoms: C_39  and  C_49
                            x       y       z     vdW  Elec       q    Type
                         _______ _______ _______ _____ _____    ______ ____

>  <TORSDO>
F 18

$$$$
=
 OpenBabel11062419013D

 51 56  0  0  1  0  0  0  0  0999 V2000
  192.2400  172.2250  140.8170 C   0  0  0  0  0  0  0  0  0  0  0  0
  190.4000  173.4090  141.8230 C   0  0  0  0  0  0  0  0  0  0  0  0
  189.6380  174.0100  142.8530 N   0  0  0  0  0  0  0  0  0  0  0  0
  189.7560  173.1790  138.1760 N   0  0  0  0  0  1  0  0  0  0  0  0
  188.5810  174.4990  142.2730 C   0  0  0  0  0  0  0  0  0  0  0  0
  191.6160  172.3690  139.5590 C   0  0  0  0  0  3  0  0  0  0  0  0
  188.5190  174.2740  140.7840 C   0  0  0  0  0  2  0  0  0  0  0  0
  190.3870  173.0380  139.4440 C   0  0  0  0  0  0  0  0  0  0  0  0
  189.7990  173.5450  140.6020 C   0  0  0  0  0  0  0  0  0  0  0  0
  191.6140  172.7420  141.9730 C   0  0  0  0  0  3  0  0  0  0  0  0
  195.3620  170.7660  142.5490 C   0  0  1  0  0  3  0  0  0  0  0  0
  197.9390  168.8590  140.7770 N   0  0  0  0  0  2  0  0  0  0  0  0
  197.2350  169.5080  139.7390 C   0  0  0  0  0  0  0  0  0  0  0  0
  197.2240  169.0800  142.0220 C   0  0  0  0  0  2  0  0  0  0  0  0
  193.5280  171.4600  140.8950 C   0  0  2  0  0  3  0  0  0  0  0  0
  196.0110  170.1890  140.2070 C   0  0  2  0  0  3  0  0  0  0  0  0
  197.6570  169.5490  138.5550 O   0  0  0  0  0  0  0  0  0  0  0  0
  195.8510  169.6470  141.6260 C   0  0  2  0  0  3  0  0  0  0  0  0
  194.7940  169.8750  139.3370 C   0  0  0  0  0  2  0  0  0  0  0  0
  193.4550  170.2240  139.9960 C   0  0  0  0  0  2  0  0  0  0  0  0
  193.8680  171.0370  142.3320 C   0  0  0  0  0  2  0  0  0  0  0  0
  195.5680  170.4050  143.8950 O   0  0  0  0  0  0  0  0  0  0  0  0
  194.7130  172.1130  145.4440 C   0  0  0  0  0  1  0  0  0  0  0  0
  195.9060  171.5400  144.6760 C   0  0  0  0  0  0  0  0  0  0  0  0
  197.0140  171.2070  145.6680 C   0  0  0  0  0  1  0  0  0  0  0  0
  196.4580  172.6210  143.7490 C   0  0  0  0  0  2  0  0  0  0  0  0
  196.6010  173.9870  144.4230 C   0  0  0  0  0  2  0  0  0  0  0  0
  195.9990  175.0980  143.5760 C   0  0  0  0  0  2  0  0  0  0  0  0
  195.1190  174.5120  142.4860 C   0  0  0  0  0  2  0  0  0  0  0  0
  194.6630  175.6150  141.5570 C   0  0  0  0  0  2  0  0  0  0  0  0
  195.8080  176.5730  141.3140 C   0  0  0  0  0  1  0  0  0  0  0  0
  187.5820  175.1760  142.9730 O   0  0  0  0  0  0  0  0  0  0  0  0
  184.7630  178.2790  143.4120 C   0  0  2  0  0  3  0  0  0  0  0  0
  188.1090  177.4750  142.3320 C   0  0  1  0  0  3  0  0  0  0  0  0
  186.6410  176.9220  144.2140 O   0  0  0  0  0  0  0  0  0  0  0  0
  187.7690  176.4980  143.4720 C   0  0  1  0  0  3  0  0  0  0  0  0
  187.0380  178.5520  142.1670 C   0  0  0  0  0  2  0  0  0  0  0  0
  185.5040  176.9380  143.3710 C   0  0  2  0  0  3  0  0  0  0  0  0
  185.6380  177.9240  142.2010 C   0  0  1  0  0  3  0  0  0  0  0  0
  185.4610  179.0640  145.7290 N   0  0  0  0  0  1  0  0  0  0  0  0
  185.3360  179.3250  144.3350 C   0  0  0  0  0  0  0  0  0  0  0  0
  185.6150  180.4690  143.8910 O   0  0  0  0  0  0  0  0  0  0  0  0
  189.4950  178.0880  142.5020 C   0  0  0  0  0  2  0  0  0  0  0  0
  190.1730  177.6410  143.7890 C   0  0  0  0  0  2  0  0  0  0  0  0
  191.5430  177.0810  143.4590 C   0  0  0  0  0  2  0  0  0  0  0  0
  192.2950  176.7120  144.7280 C   0  0  0  0  0  2  0  0  0  0  0  0
  192.4080  175.2070  144.8840 C   0  0  0  0  0  2  0  0  0  0  0  0
  192.0320  174.8120  146.2300 N   0  0  0  0  0  2  0  0  0  0  0  0
  189.4370  175.0170  146.7070 S   0  0  0  0  0  0  0  0  0  0  0  0
  190.9850  175.4690  146.9460 C   0  0  0  0  0  0  0  0  0  0  0  0
  191.2800  176.4950  147.8870 N   0  0  0  0  0  1  0  0  0  0  0  0
  1 10  1  0  0  0  0
  2 10  2  0  0  0  0
  2  3  1  0  0  0  0
  4  8  1  0  0  0  0
  5  3  2  0  0  0  0
  5 32  1  0  0  0  0
  6  1  2  0  0  0  0
  7  5  1  0  0  0  0
  8  6  1  0  0  0  0
  8  9  2  0  0  0  0
  9  7  1  0  0  0  0
  9  2  1  0  0  0  0
 11 22  1  1  0  0  0
 12 14  1  0  0  0  0
 13 16  1  0  0  0  0
 13 12  1  0  0  0  0
 15  1  1  1  0  0  0
 15 21  1  0  0  0  0
 16 19  1  6  0  0  0
 16 18  1  0  0  0  0
 17 13  2  0  0  0  0
 18 14  1  1  0  0  0
 18 11  1  0  0  0  0
 19 20  1  0  0  0  0
 20 15  1  0  0  0  0
 21 11  1  0  0  0  0
 22 24  1  0  0  0  0
 24 23  1  0  0  0  0
 24 25  1  0  0  0  0
 26 27  1  0  0  0  0
 26 24  1  0  0  0  0
 28 27  1  0  0  0  0
 29 28  1  0  0  0  0
 30 29  1  0  0  0  0
 31 30  1  0  0  0  0
 33 41  1  1  0  0  0
 34 43  1  1  0  0  0
 34 36  1  0  0  0  0
 36 32  1  6  0  0  0
 36 35  1  0  0  0  0
 37 34  1  0  0  0  0
 38 33  1  0  0  0  0
 38 35  1  1  0  0  0
 39 37  1  1  0  0  0
 39 38  1  0  0  0  0
 39 33  1  0  0  0  0
 41 40  1  0  0  0  0
 42 41  2  0  0  0  0
 43 44  1  0  0  0  0
 45 44  1  0  0  0  0
 45 46  1  0  0  0  0
 46 47  1  0  0  0  0
 47 48  1  0  0  0  0
 48 50  1  0  0  0  0
 49 50  2  0  0  0  0
 50 51  1  0  0  0  0
M  END
>  <MODEL>
7

>  <REMARK>
 VINA RESULT:      -5.8      2.497      5.101
  Name = 
  18 active torsions:
  status: ('A' for Active; 'I' for Inactive)
    1  A    between atoms: C_1  and  N_5
    2  A    between atoms: C_1  and  C_23
    3  A    between atoms: C_2  and  C_25
    4  A    between atoms: C_4  and  C_24
    5  A    between atoms: N_5  and  C_14
    6  A    between atoms: C_8  and  C_20
    7  A    between atoms: C_8  and  C_39
    8  A    between atoms: C_9  and  O_15
    9  A    between atoms: C_10  and  C_36
   10  A    between atoms: O_13  and  C_18
   11  A    between atoms: O_13  and  C_32
   12  A    between atoms: O_15  and  C_21
   13  A    between atoms: C_21  and  C_28
   14  A    between atoms: C_23  and  C_49
   15  A    between atoms: C_28  and  C_33
   16  A    between atoms: C_33  and  C_42
   17  A    between atoms: C_36  and  C_42
   18  A    between atoms: C_39  and  C_49
                            x       y       z     vdW  Elec       q    Type
                         _______ _______ _______ _____ _____    ______ ____

>  <TORSDO>
F 18

$$$$
=
 OpenBabel11062419013D

 51 56  0  0  1  0  0  0  0  0999 V2000
  190.2560  175.5460  145.6890 C   0  0  0  0  0  0  0  0  0  0  0  0
  191.6840  173.6700  145.2000 C   0  0  0  0  0  0  0  0  0  0  0  0
  192.0460  172.3960  144.6990 N   0  0  0  0  0  0  0  0  0  0  0  0
  193.7300  176.2500  146.9090 N   0  0  0  0  0  1  0  0  0  0  0  0
  193.3110  172.2550  144.9660 C   0  0  0  0  0  0  0  0  0  0  0  0
  191.3590  176.2040  146.2740 C   0  0  0  0  0  3  0  0  0  0  0  0
  193.9380  173.4250  145.6820 C   0  0  0  0  0  2  0  0  0  0  0  0
  192.6200  175.5870  146.3140 C   0  0  0  0  0  0  0  0  0  0  0  0
  192.7490  174.3110  145.7690 C   0  0  0  0  0  0  0  0  0  0  0  0
  190.4180  174.2480  145.1550 C   0  0  0  0  0  3  0  0  0  0  0  0
  186.9970  176.9500  144.1800 C   0  0  1  0  0  3  0  0  0  0  0  0
  184.4390  178.6680  146.1620 N   0  0  0  0  0  2  0  0  0  0  0  0
  185.5750  178.6860  147.0010 C   0  0  0  0  0  0  0  0  0  0  0  0
  184.7340  177.8310  145.0110 C   0  0  0  0  0  2  0  0  0  0  0  0
  188.9180  176.2240  145.7160 C   0  0  2  0  0  3  0  0  0  0  0  0
  186.6890  177.8670  146.4840 C   0  0  2  0  0  3  0  0  0  0  0  0
  185.6380  179.3880  148.0420 O   0  0  0  0  0  0  0  0  0  0  0  0
  186.0260  177.0750  145.3580 C   0  0  2  0  0  3  0  0  0  0  0  0
  187.2880  176.9490  147.5490 C   0  0  0  0  0  2  0  0  0  0  0  0
  188.1550  175.8210  146.9790 C   0  0  0  0  0  2  0  0  0  0  0  0
  188.0750  175.9010  144.4740 C   0  0  0  0  0  2  0  0  0  0  0  0
  186.2960  176.5700  143.0180 O   0  0  0  0  0  0  0  0  0  0  0  0
  187.5590  176.2240  140.9370 C   0  0  0  0  0  1  0  0  0  0  0  0
  186.8420  177.2020  141.8700 C   0  0  0  0  0  0  0  0  0  0  0  0
  185.7590  177.9290  141.0830 C   0  0  0  0  0  1  0  0  0  0  0  0
  187.8400  178.2630  142.3290 C   0  0  0  0  0  2  0  0  0  0  0  0
  189.2940  177.9110  142.0100 C   0  0  0  0  0  2  0  0  0  0  0  0
  190.2350  178.3460  143.1230 C   0  0  0  0  0  2  0  0  0  0  0  0
  191.5270  177.5520  143.0600 C   0  0  0  0  0  2  0  0  0  0  0  0
  191.2670  176.2120  142.4070 C   0  0  0  0  0  2  0  0  0  0  0  0
  192.5800  175.4870  142.2090 C   0  0  0  0  0  1  0  0  0  0  0  0
  194.0320  171.1130  144.6200 O   0  0  0  0  0  0  0  0  0  0  0  0
  197.5250  172.3220  142.5920 C   0  0  2  0  0  3  0  0  0  0  0  0
  193.9470  171.9550  142.3270 C   0  0  1  0  0  3  0  0  0  0  0  0
  195.8320  170.6540  143.1970 O   0  0  0  0  0  0  0  0  0  0  0  0
  194.4320  170.8450  143.2790 C   0  0  1  0  0  3  0  0  0  0  0  0
  195.1120  172.6960  141.6760 C   0  0  0  0  0  2  0  0  0  0  0  0
  196.4920  171.8340  143.6150 C   0  0  2  0  0  3  0  0  0  0  0  0
  196.1780  173.0460  142.7250 C   0  0  1  0  0  3  0  0  0  0  0  0
  197.6580  170.0540  141.4450 N   0  0  0  0  0  1  0  0  0  0  0  0
  197.6810  171.4750  141.3540 C   0  0  0  0  0  0  0  0  0  0  0  0
  197.9310  172.0210  140.2480 O   0  0  0  0  0  0  0  0  0  0  0  0
  192.9720  171.4210  141.2820 C   0  0  0  0  0  2  0  0  0  0  0  0
  191.5340  171.8260  141.5700 C   0  0  0  0  0  2  0  0  0  0  0  0
  190.8450  172.1740  140.2640 C   0  0  0  0  0  2  0  0  0  0  0  0
  191.7010  173.1220  139.4390 C   0  0  0  0  0  2  0  0  0  0  0  0
  191.5090  172.8860  137.9530 C   0  0  0  0  0  2  0  0  0  0  0  0
  190.7240  173.9600  137.3700 N   0  0  0  0  0  2  0  0  0  0  0  0
  190.4570  172.5410  135.1520 S   0  0  0  0  0  0  0  0  0  0  0  0
  190.1370  173.8480  136.0730 C   0  0  0  0  0  0  0  0  0  0  0  0
  189.2530  174.8520  135.5850 N   0  0  0  0  0  1  0  0  0  0  0  0
  1  6  1  0  0  0  0
  2  9  2  0  0  0  0
  3  5  2  0  0  0  0
  3  2  1  0  0  0  0
  5  7  1  0  0  0  0
  6  8  2  0  0  0  0
  7  9  1  0  0  0  0
  8  4  1  0  0  0  0
  9  8  1  0  0  0  0
 10  2  1  0  0  0  0
 10  1  2  0  0  0  0
 11 22  1  6  0  0  0
 11 21  1  0  0  0  0
 11 18  1  0  0  0  0
 12 13  1  0  0  0  0
 13 17  2  0  0  0  0
 14 12  1  0  0  0  0
 15  1  1  6  0  0  0
 15 20  1  0  0  0  0
 16 13  1  0  0  0  0
 16 19  1  1  0  0  0
 18 14  1  6  0  0  0
 18 16  1  0  0  0  0
 20 19  1  0  0  0  0
 21 15  1  0  0  0  0
 23 24  1  0  0  0  0
 24 26  1  0  0  0  0
 24 22  1  0  0  0  0
 25 24  1  0  0  0  0
 27 26  1  0  0  0  0
 27 28  1  0  0  0  0
 29 28  1  0  0  0  0
 30 29  1  0  0  0  0
 31 30  1  0  0  0  0
 32  5  1  0  0  0  0
 33 41  1  6  0  0  0
 33 39  1  0  0  0  0
 33 38  1  0  0  0  0
 34 43  1  6  0  0  0
 34 36  1  0  0  0  0
 35 36  1  0  0  0  0
 36 32  1  1  0  0  0
 37 34  1  0  0  0  0
 38 35  1  6  0  0  0
 39 37  1  6  0  0  0
 39 38  1  0  0  0  0
 41 40  1  0  0  0  0
 42 41  2  0  0  0  0
 43 44  1  0  0  0  0
 45 44  1  0  0  0  0
 46 45  1  0  0  0  0
 47 46  1  0  0  0  0
 48 47  1  0  0  0  0
 49 50  2  0  0  0  0
 50 48  1  0  0  0  0
 51 50  1  0  0  0  0
M  END
>  <MODEL>
8

>  <REMARK>
 VINA RESULT:      -5.7      2.738      9.607
  Name = 
  18 active torsions:
  status: ('A' for Active; 'I' for Inactive)
    1  A    between atoms: C_1  and  N_5
    2  A    between atoms: C_1  and  C_23
    3  A    between atoms: C_2  and  C_25
    4  A    between atoms: C_4  and  C_24
    5  A    between atoms: N_5  and  C_14
    6  A    between atoms: C_8  and  C_20
    7  A    between atoms: C_8  and  C_39
    8  A    between atoms: C_9  and  O_15
    9  A    between atoms: C_10  and  C_36
   10  A    between atoms: O_13  and  C_18
   11  A    between atoms: O_13  and  C_32
   12  A    between atoms: O_15  and  C_21
   13  A    between atoms: C_21  and  C_28
   14  A    between atoms: C_23  and  C_49
   15  A    between atoms: C_28  and  C_33
   16  A    between atoms: C_33  and  C_42
   17  A    between atoms: C_36  and  C_42
   18  A    between atoms: C_39  and  C_49
                            x       y       z     vdW  Elec       q    Type
                         _______ _______ _______ _____ _____    ______ ____

>  <TORSDO>
F 18

$$$$
=
 OpenBabel11062419013D

 51 56  0  0  1  0  0  0  0  0999 V2000
  188.6080  175.6530  142.0440 C   0  0  0  0  0  0  0  0  0  0  0  0
  189.5820  173.6950  141.0350 C   0  0  0  0  0  0  0  0  0  0  0  0
  189.6260  172.4850  140.3040 N   0  0  0  0  0  0  0  0  0  0  0  0
  192.3050  175.6210  142.6610 N   0  0  0  0  0  1  0  0  0  0  0  0
  190.8730  172.1160  140.3020 C   0  0  0  0  0  0  0  0  0  0  0  0
  189.8910  176.0330  142.4920 C   0  0  0  0  0  3  0  0  0  0  0  0
  191.8060  173.0430  141.0380 C   0  0  0  0  0  2  0  0  0  0  0  0
  191.0120  175.2390  142.2040 C   0  0  0  0  0  0  0  0  0  0  0  0
  190.8230  174.0670  141.4730 C   0  0  0  0  0  0  0  0  0  0  0  0
  188.4480  174.4540  141.3140 C   0  0  0  0  0  3  0  0  0  0  0  0
  186.4540  177.8350  144.3830 C   0  0  1  0  0  3  0  0  0  0  0  0
  183.2440  179.2920  143.3860 N   0  0  0  0  0  2  0  0  0  0  0  0
  183.4710  178.2940  142.4120 C   0  0  0  0  0  0  0  0  0  0  0  0
  184.4410  179.4160  144.2000 C   0  0  0  0  0  2  0  0  0  0  0  0
  187.4330  176.5070  142.4200 C   0  0  2  0  0  3  0  0  0  0  0  0
  184.8190  177.6970  142.4990 C   0  0  2  0  0  3  0  0  0  0  0  0
  182.5820  177.9160  141.6070 O   0  0  0  0  0  0  0  0  0  0  0  0
  185.5410  178.6430  143.4570 C   0  0  2  0  0  3  0  0  0  0  0  0
  185.5160  177.6190  141.1410 C   0  0  0  0  0  2  0  0  0  0  0  0
  187.0290  177.3860  141.2340 C   0  0  0  0  0  2  0  0  0  0  0  0
  187.7200  177.3880  143.6450 C   0  0  0  0  0  2  0  0  0  0  0  0
  186.8260  178.6180  145.4940 O   0  0  0  0  0  0  0  0  0  0  0  0
  186.3130  178.7630  147.8950 C   0  0  0  0  0  1  0  0  0  0  0  0
  186.6850  177.8830  146.7000 C   0  0  0  0  0  0  0  0  0  0  0  0
  185.6340  176.7890  146.5500 C   0  0  0  0  0  1  0  0  0  0  0  0
  188.0080  177.1820  146.9990 C   0  0  0  0  0  2  0  0  0  0  0  0
  187.9290  175.6590  146.8890 C   0  0  0  0  0  2  0  0  0  0  0  0
  189.2370  174.9970  147.2940 C   0  0  0  0  0  2  0  0  0  0  0  0
  189.9990  174.5380  146.0630 C   0  0  0  0  0  2  0  0  0  0  0  0
  191.2760  175.3390  145.9310 C   0  0  0  0  0  2  0  0  0  0  0  0
  191.9780  175.3870  147.2690 C   0  0  0  0  0  1  0  0  0  0  0  0
  191.3150  170.9540  139.6690 O   0  0  0  0  0  0  0  0  0  0  0  0
  192.0390  168.4640  136.3450 C   0  0  2  0  0  3  0  0  0  0  0  0
  193.5230  169.9930  139.2540 C   0  0  1  0  0  3  0  0  0  0  0  0
  191.9990  170.6520  137.4520 O   0  0  0  0  0  0  0  0  0  0  0  0
  192.4200  170.9520  138.7690 C   0  0  1  0  0  3  0  0  0  0  0  0
  193.7540  168.8480  138.2710 C   0  0  0  0  0  2  0  0  0  0  0  0
  191.4230  169.3590  137.4270 C   0  0  2  0  0  3  0  0  0  0  0  0
  192.4140  168.2520  137.8180 C   0  0  1  0  0  3  0  0  0  0  0  0
  192.8290  170.2660  134.7310 N   0  0  0  0  0  1  0  0  0  0  0  0
  193.1110  169.0970  135.4930 C   0  0  0  0  0  0  0  0  0  0  0  0
  194.2310  168.5350  135.3750 O   0  0  0  0  0  0  0  0  0  0  0  0
  194.8220  170.7310  139.5650 C   0  0  0  0  0  2  0  0  0  0  0  0
  195.0380  170.9200  141.0590 C   0  0  0  0  0  2  0  0  0  0  0  0
  196.0690  172.0110  141.2770 C   0  0  0  0  0  2  0  0  0  0  0  0
  195.7760  173.2150  140.3960 C   0  0  0  0  0  2  0  0  0  0  0  0
  195.2790  174.3900  141.2170 C   0  0  0  0  0  2  0  0  0  0  0  0
  195.5820  174.1880  142.6220 N   0  0  0  0  0  2  0  0  0  0  0  0
  197.0240  176.3990  142.8090 S   0  0  0  0  0  0  0  0  0  0  0  0
  196.0670  175.2450  143.4500 C   0  0  0  0  0  0  0  0  0  0  0  0
  195.7010  175.3200  144.8240 N   0  0  0  0  0  1  0  0  0  0  0  0
  1  6  1  0  0  0  0
  2 10  1  0  0  0  0
  2  9  2  0  0  0  0
  3  2  1  0  0  0  0
  5  3  2  0  0  0  0
  5  7  1  0  0  0  0
  7  9  1  0  0  0  0
  8  6  2  0  0  0  0
  8  4  1  0  0  0  0
  9  8  1  0  0  0  0
 10  1  2  0  0  0  0
 11 22  1  1  0  0  0
 12 14  1  0  0  0  0
 13 16  1  0  0  0  0
 13 12  1  0  0  0  0
 15  1  1  6  0  0  0
 15 21  1  0  0  0  0
 16 19  1  6  0  0  0
 16 18  1  0  0  0  0
 17 13  2  0  0  0  0
 18 14  1  1  0  0  0
 18 11  1  0  0  0  0
 19 20  1  0  0  0  0
 20 15  1  0  0  0  0
 21 11  1  0  0  0  0
 22 24  1  0  0  0  0
 24 26  1  0  0  0  0
 24 23  1  0  0  0  0
 25 24  1  0  0  0  0
 27 26  1  0  0  0  0
 27 28  1  0  0  0  0
 29 28  1  0  0  0  0
 30 29  1  0  0  0  0
 30 31  1  0  0  0  0
 32  5  1  0  0  0  0
 33 41  1  6  0  0  0
 33 38  1  0  0  0  0
 33 39  1  0  0  0  0
 34 43  1  6  0  0  0
 35 36  1  0  0  0  0
 36 34  1  0  0  0  0
 36 32  1  1  0  0  0
 37 34  1  0  0  0  0
 38 35  1  6  0  0  0
 38 39  1  0  0  0  0
 39 37  1  6  0  0  0
 40 41  1  0  0  0  0
 42 41  2  0  0  0  0
 43 44  1  0  0  0  0
 44 45  1  0  0  0  0
 46 47  1  0  0  0  0
 46 45  1  0  0  0  0
 47 48  1  0  0  0  0
 48 50  1  0  0  0  0
 49 50  2  0  0  0  0
 50 51  1  0  0  0  0
M  END
>  <MODEL>
9

>  <REMARK>
 VINA RESULT:      -5.7      3.030     10.682
  Name = 
  18 active torsions:
  status: ('A' for Active; 'I' for Inactive)
    1  A    between atoms: C_1  and  N_5
    2  A    between atoms: C_1  and  C_23
    3  A    between atoms: C_2  and  C_25
    4  A    between atoms: C_4  and  C_24
    5  A    between atoms: N_5  and  C_14
    6  A    between atoms: C_8  and  C_20
    7  A    between atoms: C_8  and  C_39
    8  A    between atoms: C_9  and  O_15
    9  A    between atoms: C_10  and  C_36
   10  A    between atoms: O_13  and  C_18
   11  A    between atoms: O_13  and  C_32
   12  A    between atoms: O_15  and  C_21
   13  A    between atoms: C_21  and  C_28
   14  A    between atoms: C_23  and  C_49
   15  A    between atoms: C_28  and  C_33
   16  A    between atoms: C_33  and  C_42
   17  A    between atoms: C_36  and  C_42
   18  A    between atoms: C_39  and  C_49
                            x       y       z     vdW  Elec       q    Type
                         _______ _______ _______ _____ _____    ______ ____

>  <TORSDO>
F 18

$$$$
