=
 OpenBabel11062422563D

 29 31  0  0  1  0  0  0  0  0999 V2000
  189.6190  175.6060  145.0280 C   0  0  0  0  0  0  0  0  0  0  0  0
  191.4060  174.0320  144.2480 S   0  0  0  0  0  0  0  0  0  0  0  0
  191.6100  175.7350  146.4120 C   0  0  0  0  0  3  0  0  0  0  0  0
  189.6770  177.0780  146.8920 N   0  0  0  0  0  0  0  0  0  0  0  0
  190.9100  175.2120  145.3320 C   0  0  0  0  0  0  0  0  0  0  0  0
  189.0590  174.9570  143.9740 N   0  0  0  0  0  0  0  0  0  0  0  0
  188.9870  176.5750  145.8230 C   0  0  0  0  0  0  0  0  0  0  0  0
  190.9510  176.6880  147.1970 C   0  0  0  0  0  3  0  0  0  0  0  0
  189.9210  174.0630  143.4320 C   0  0  0  0  0  0  0  0  0  0  0  0
  187.3680  178.1640  144.5350 C   0  0  2  0  0  3  0  0  0  0  0  0
  185.1330  178.5110  145.5820 C   0  0  0  0  0  0  0  0  0  0  0  0
  184.0130  179.2540  145.7600 F   0  0  0  0  0  0  0  0  0  0  0  0
  185.2930  177.2290  146.2810 C   0  0  0  0  0  0  0  0  0  0  0  0
  186.6240  176.6140  146.3360 C   0  0  0  0  0  3  0  0  0  0  0  0
  184.3260  176.7030  146.8890 O   0  0  0  0  0  0  0  0  0  0  0  0
  187.6190  177.0690  145.5630 C   0  0  0  0  0  0  0  0  0  0  0  0
  186.1310  178.9830  144.8330 C   0  0  0  0  0  3  0  0  0  0  0  0
  187.2240  177.5670  143.1430 C   0  0  0  0  0  2  0  0  0  0  0  0
  186.7300  178.6210  142.1680 C   0  0  0  0  0  2  0  0  0  0  0  0
  185.5800  178.0930  141.3850 C   0  0  0  0  0  0  0  0  0  0  0  0
  184.3530  177.8860  142.0010 O   0  0  0  0  0  1  0  0  0  0  0  0
  185.7210  177.8300  140.1620 O   0  0  0  0  0  0  0  0  0  0  0  0
  189.8480  173.6670  140.9580 N   0  0  0  0  0  2  0  0  0  0  0  0
  189.5790  173.2150  142.2870 C   0  0  0  0  0  0  0  0  0  0  0  0
  189.0500  172.0870  142.4800 O   0  0  0  0  0  0  0  0  0  0  0  0
  187.9640  172.5390  139.4800 O   0  0  0  0  0  0  0  0  0  0  0  0
  190.0390  173.5500  138.0960 C   0  0  0  0  0  1  0  0  0  0  0  0
  190.1140  171.3830  139.6650 O   0  0  0  0  0  0  0  0  0  0  0  0
  189.4520  172.7280  139.5590 S   0  0  0  0  0  0  0  0  0  0  0  0
  1  5  2  0  0  0  0
  1  7  1  0  0  0  0
  2  5  1  0  0  0  0
  3  8  2  0  0  0  0
  4  8  1  0  0  0  0
  5  3  1  0  0  0  0
  6  1  1  0  0  0  0
  7  4  2  0  0  0  0
  9  6  2  0  0  0  0
  9  2  1  0  0  0  0
 10 18  1  6  0  0  0
 10 17  1  0  0  0  0
 10 16  1  0  0  0  0
 11 12  1  0  0  0  0
 11 13  1  0  0  0  0
 13 14  1  0  0  0  0
 13 15  2  0  0  0  0
 16  7  1  0  0  0  0
 16 14  2  0  0  0  0
 17 11  2  0  0  0  0
 19 18  1  0  0  0  0
 20 21  1  0  0  0  0
 20 19  1  0  0  0  0
 22 20  2  0  0  0  0
 23 24  1  0  0  0  0
 24 25  2  0  0  0  0
 24  9  1  0  0  0  0
 26 29  2  0  0  0  0
 27 29  1  0  0  0  0
 29 28  2  0  0  0  0
 29 23  1  0  0  0  0
M  END
>  <MODEL>
1

>  <REMARK>
 VINA RESULT:      -7.1      0.000      0.000
  Name = 
  6 active torsions:
  status: ('A' for Active; 'I' for Inactive)
    1  A    between atoms: N_1  and  S_22
    2  A    between atoms: C_2  and  C_5
    3  A    between atoms: C_2  and  C_26
    4  A    between atoms: C_7  and  C_26
    5  A    between atoms: C_17  and  C_28
    6  A    between atoms: C_18  and  C_21
                            x       y       z     vdW  Elec       q    Type
                         _______ _______ _______ _____ _____    ______ ____

>  <TORSDO>
F 6

$$$$
=
 OpenBabel11062422563D

 29 31  0  0  1  0  0  0  0  0999 V2000
  187.7300  177.3570  145.1940 C   0  0  0  0  0  0  0  0  0  0  0  0
  189.4190  177.4970  147.0390 S   0  0  0  0  0  0  0  0  0  0  0  0
  186.6790  177.6020  147.3680 C   0  0  0  0  0  3  0  0  0  0  0  0
  185.3610  177.3960  145.3710 N   0  0  0  0  0  0  0  0  0  0  0  0
  187.8090  177.5050  146.5670 C   0  0  0  0  0  0  0  0  0  0  0  0
  188.9270  177.2210  144.5650 N   0  0  0  0  0  0  0  0  0  0  0  0
  186.4710  177.3120  144.5750 C   0  0  0  0  0  0  0  0  0  0  0  0
  185.4360  177.5400  146.7280 C   0  0  0  0  0  3  0  0  0  0  0  0
  189.9550  177.2840  145.4460 C   0  0  0  0  0  0  0  0  0  0  0  0
  187.3300  176.4590  142.2650 C   0  0  2  0  0  3  0  0  0  0  0  0
  186.3090  177.5410  140.2640 C   0  0  0  0  0  0  0  0  0  0  0  0
  186.3580  177.8930  138.9570 F   0  0  0  0  0  0  0  0  0  0  0  0
  185.1420  177.8890  141.0850 C   0  0  0  0  0  0  0  0  0  0  0  0
  185.2500  177.7980  142.5450 C   0  0  0  0  0  3  0  0  0  0  0  0
  184.0920  178.3340  140.5530 O   0  0  0  0  0  0  0  0  0  0  0  0
  186.2900  177.1750  143.1150 C   0  0  0  0  0  0  0  0  0  0  0  0
  187.3600  176.9460  140.8320 C   0  0  0  0  0  3  0  0  0  0  0  0
  187.0740  174.9590  142.2560 C   0  0  0  0  0  2  0  0  0  0  0  0
  188.2660  174.2250  141.6690 C   0  0  0  0  0  2  0  0  0  0  0  0
  189.4260  174.3130  142.5960 C   0  0  0  0  0  0  0  0  0  0  0  0
  189.3900  173.6620  143.8210 O   0  0  0  0  0  1  0  0  0  0  0  0
  190.4410  174.9820  142.2700 O   0  0  0  0  0  0  0  0  0  0  0  0
  192.2630  176.3890  145.8420 N   0  0  0  0  0  2  0  0  0  0  0  0
  191.3590  177.1600  145.0470 C   0  0  0  0  0  0  0  0  0  0  0  0
  191.7640  177.7330  143.9990 O   0  0  0  0  0  0  0  0  0  0  0  0
  194.6300  175.4050  146.5000 O   0  0  0  0  0  0  0  0  0  0  0  0
  194.1010  175.4200  143.8610 C   0  0  0  0  0  1  0  0  0  0  0  0
  194.5700  177.5780  145.3730 O   0  0  0  0  0  0  0  0  0  0  0  0
  193.9380  176.2160  145.4420 S   0  0  0  0  0  0  0  0  0  0  0  0
  1  5  1  0  0  0  0
  4  8  2  0  0  0  0
  5  2  1  0  0  0  0
  5  3  2  0  0  0  0
  6  1  1  0  0  0  0
  6  9  2  0  0  0  0
  7  1  2  0  0  0  0
  7  4  1  0  0  0  0
  8  3  1  0  0  0  0
  9  2  1  0  0  0  0
 10 18  1  6  0  0  0
 10 16  1  0  0  0  0
 11 17  2  0  0  0  0
 11 13  1  0  0  0  0
 12 11  1  0  0  0  0
 13 14  1  0  0  0  0
 14 16  2  0  0  0  0
 15 13  2  0  0  0  0
 16  7  1  0  0  0  0
 17 10  1  0  0  0  0
 19 18  1  0  0  0  0
 19 20  1  0  0  0  0
 20 21  1  0  0  0  0
 22 20  2  0  0  0  0
 24  9  1  0  0  0  0
 24 23  1  0  0  0  0
 25 24  2  0  0  0  0
 27 29  1  0  0  0  0
 28 29  2  0  0  0  0
 29 23  1  0  0  0  0
 29 26  2  0  0  0  0
M  END
>  <MODEL>
2

>  <REMARK>
 VINA RESULT:      -6.7      3.511      5.649
  Name = 
  6 active torsions:
  status: ('A' for Active; 'I' for Inactive)
    1  A    between atoms: N_1  and  S_22
    2  A    between atoms: C_2  and  C_5
    3  A    between atoms: C_2  and  C_26
    4  A    between atoms: C_7  and  C_26
    5  A    between atoms: C_17  and  C_28
    6  A    between atoms: C_18  and  C_21
                            x       y       z     vdW  Elec       q    Type
                         _______ _______ _______ _____ _____    ______ ____

>  <TORSDO>
F 6

$$$$
=
 OpenBabel11062422563D

 29 31  0  0  1  0  0  0  0  0999 V2000
  187.6090  175.9100  142.2600 C   0  0  0  0  0  0  0  0  0  0  0  0
  188.4940  174.4490  140.4260 S   0  0  0  0  0  0  0  0  0  0  0  0
  187.1350  176.8260  140.0620 C   0  0  0  0  0  3  0  0  0  0  0  0
  186.4680  177.9840  142.0580 N   0  0  0  0  0  0  0  0  0  0  0  0
  187.6680  175.8380  140.8790 C   0  0  0  0  0  0  0  0  0  0  0  0
  188.2280  174.8910  142.9110 N   0  0  0  0  0  0  0  0  0  0  0  0
  186.9820  177.0080  142.8680 C   0  0  0  0  0  0  0  0  0  0  0  0
  186.5270  177.9170  140.6940 C   0  0  0  0  0  3  0  0  0  0  0  0
  188.7590  174.0000  142.0390 C   0  0  0  0  0  0  0  0  0  0  0  0
  187.9880  176.7450  145.2600 C   0  0  2  0  0  3  0  0  0  0  0  0
  186.3450  176.7730  147.1350 C   0  0  0  0  0  0  0  0  0  0  0  0
  185.9920  176.4500  148.4020 F   0  0  0  0  0  0  0  0  0  0  0  0
  185.4160  177.5140  146.2700 C   0  0  0  0  0  0  0  0  0  0  0  0
  185.6760  177.5610  144.8270 C   0  0  0  0  0  3  0  0  0  0  0  0
  184.3730  178.0340  146.7440 O   0  0  0  0  0  0  0  0  0  0  0  0
  186.8550  177.1600  144.3320 C   0  0  0  0  0  0  0  0  0  0  0  0
  187.5080  176.3470  146.6400 C   0  0  0  0  0  3  0  0  0  0  0  0
  188.9970  177.8740  145.4120 C   0  0  0  0  0  2  0  0  0  0  0  0
  190.2290  177.5950  144.5700 C   0  0  0  0  0  2  0  0  0  0  0  0
  191.0160  176.4840  145.1690 C   0  0  0  0  0  0  0  0  0  0  0  0
  191.3490  175.3740  144.4060 O   0  0  0  0  0  0  0  0  0  0  0  0
  191.3760  176.5490  146.3740 O   0  0  0  0  0  1  0  0  0  0  0  0
  190.8520  172.6200  142.0640 N   0  0  0  0  0  2  0  0  0  0  0  0
  189.4920  172.8040  142.4620 C   0  0  0  0  0  0  0  0  0  0  0  0
  188.9180  171.9410  143.1800 O   0  0  0  0  0  0  0  0  0  0  0  0
  191.0800  169.9840  142.0180 O   0  0  0  0  0  0  0  0  0  0  0  0
  193.4030  171.3270  141.8120 C   0  0  0  0  0  1  0  0  0  0  0  0
  191.8810  171.1650  144.0070 O   0  0  0  0  0  0  0  0  0  0  0  0
  191.7710  171.2230  142.5100 S   0  0  0  0  0  0  0  0  0  0  0  0
  1  7  1  0  0  0  0
  1  6  1  0  0  0  0
  2  5  1  0  0  0  0
  2  9  1  0  0  0  0
  3  8  2  0  0  0  0
  3  5  1  0  0  0  0
  4  7  2  0  0  0  0
  5  1  2  0  0  0  0
  7 16  1  0  0  0  0
  8  4  1  0  0  0  0
  9 24  1  0  0  0  0
  9  6  2  0  0  0  0
 10 18  1  1  0  0  0
 10 17  1  0  0  0  0
 11 12  1  0  0  0  0
 13 15  2  0  0  0  0
 13 11  1  0  0  0  0
 14 13  1  0  0  0  0
 16 14  2  0  0  0  0
 16 10  1  0  0  0  0
 17 11  2  0  0  0  0
 19 20  1  0  0  0  0
 19 18  1  0  0  0  0
 20 22  1  0  0  0  0
 21 20  2  0  0  0  0
 23 24  1  0  0  0  0
 23 29  1  0  0  0  0
 24 25  2  0  0  0  0
 26 29  2  0  0  0  0
 27 29  1  0  0  0  0
 29 28  2  0  0  0  0
M  END
>  <MODEL>
3

>  <REMARK>
 VINA RESULT:      -6.6      2.621      4.527
  Name = 
  6 active torsions:
  status: ('A' for Active; 'I' for Inactive)
    1  A    between atoms: N_1  and  S_22
    2  A    between atoms: C_2  and  C_5
    3  A    between atoms: C_2  and  C_26
    4  A    between atoms: C_7  and  C_26
    5  A    between atoms: C_17  and  C_28
    6  A    between atoms: C_18  and  C_21
                            x       y       z     vdW  Elec       q    Type
                         _______ _______ _______ _____ _____    ______ ____

>  <TORSDO>
F 6

$$$$
=
 OpenBabel11062422563D

 29 31  0  0  1  0  0  0  0  0999 V2000
  189.9240  175.2690  145.4640 C   0  0  0  0  0  0  0  0  0  0  0  0
  191.7030  173.5760  144.9650 S   0  0  0  0  0  0  0  0  0  0  0  0
  191.7630  175.3920  147.0450 C   0  0  0  0  0  3  0  0  0  0  0  0
  189.8580  176.8420  147.2440 N   0  0  0  0  0  0  0  0  0  0  0  0
  191.1550  174.8380  145.9260 C   0  0  0  0  0  0  0  0  0  0  0  0
  189.4450  174.5850  144.3930 N   0  0  0  0  0  0  0  0  0  0  0  0
  189.2600  176.3080  146.1350 C   0  0  0  0  0  0  0  0  0  0  0  0
  191.0730  176.4170  147.7030 C   0  0  0  0  0  3  0  0  0  0  0  0
  190.3140  173.6240  143.9950 C   0  0  0  0  0  0  0  0  0  0  0  0
  187.8680  177.9290  144.6390 C   0  0  2  0  0  3  0  0  0  0  0  0
  185.5370  178.3730  145.4030 C   0  0  0  0  0  0  0  0  0  0  0  0
  184.4320  179.1570  145.4340 F   0  0  0  0  0  0  0  0  0  0  0  0
  185.5650  177.0980  146.1330 C   0  0  0  0  0  0  0  0  0  0  0  0
  186.8560  176.4390  146.3580 C   0  0  0  0  0  3  0  0  0  0  0  0
  184.5120  176.6180  146.6270 O   0  0  0  0  0  0  0  0  0  0  0  0
  187.9530  176.8450  145.7050 C   0  0  0  0  0  0  0  0  0  0  0  0
  186.6350  178.7960  144.7740 C   0  0  0  0  0  3  0  0  0  0  0  0
  187.8700  177.3130  143.2480 C   0  0  0  0  0  2  0  0  0  0  0  0
  188.8770  178.0230  142.3590 C   0  0  0  0  0  2  0  0  0  0  0  0
  190.2590  177.7490  142.8350 C   0  0  0  0  0  0  0  0  0  0  0  0
  190.8970  178.6470  143.6800 O   0  0  0  0  0  1  0  0  0  0  0  0
  190.8540  176.7020  142.4670 O   0  0  0  0  0  0  0  0  0  0  0  0
  190.6040  173.0160  141.5800 N   0  0  0  0  0  2  0  0  0  0  0  0
  190.0530  172.7270  142.8660 C   0  0  0  0  0  0  0  0  0  0  0  0
  189.3420  171.6990  143.0360 O   0  0  0  0  0  0  0  0  0  0  0  0
  188.8850  172.1360  139.7700 O   0  0  0  0  0  0  0  0  0  0  0  0
  191.3950  172.4990  138.8690 C   0  0  0  0  0  1  0  0  0  0  0  0
  190.6040  170.5830  140.5630 O   0  0  0  0  0  0  0  0  0  0  0  0
  190.3190  172.0130  140.1990 S   0  0  0  0  0  0  0  0  0  0  0  0
  1  5  2  0  0  0  0
  1  7  1  0  0  0  0
  2  5  1  0  0  0  0
  3  8  2  0  0  0  0
  4  8  1  0  0  0  0
  5  3  1  0  0  0  0
  6  1  1  0  0  0  0
  7  4  2  0  0  0  0
  9  6  2  0  0  0  0
  9  2  1  0  0  0  0
 10 18  1  6  0  0  0
 10 17  1  0  0  0  0
 10 16  1  0  0  0  0
 11 12  1  0  0  0  0
 11 13  1  0  0  0  0
 13 14  1  0  0  0  0
 13 15  2  0  0  0  0
 16  7  1  0  0  0  0
 16 14  2  0  0  0  0
 17 11  2  0  0  0  0
 19 20  1  0  0  0  0
 19 18  1  0  0  0  0
 20 21  1  0  0  0  0
 22 20  2  0  0  0  0
 23 24  1  0  0  0  0
 24 25  2  0  0  0  0
 24  9  1  0  0  0  0
 26 29  2  0  0  0  0
 27 29  1  0  0  0  0
 29 28  2  0  0  0  0
 29 23  1  0  0  0  0
M  END
>  <MODEL>
4

>  <REMARK>
 VINA RESULT:      -6.6      1.803      2.079
  Name = 
  6 active torsions:
  status: ('A' for Active; 'I' for Inactive)
    1  A    between atoms: N_1  and  S_22
    2  A    between atoms: C_2  and  C_5
    3  A    between atoms: C_2  and  C_26
    4  A    between atoms: C_7  and  C_26
    5  A    between atoms: C_17  and  C_28
    6  A    between atoms: C_18  and  C_21
                            x       y       z     vdW  Elec       q    Type
                         _______ _______ _______ _____ _____    ______ ____

>  <TORSDO>
F 6

$$$$
=
 OpenBabel11062422563D

 29 31  0  0  1  0  0  0  0  0999 V2000
  190.0340  174.0140  143.3940 C   0  0  0  0  0  0  0  0  0  0  0  0
  188.2140  173.9350  141.6740 S   0  0  0  0  0  0  0  0  0  0  0  0
  189.6920  171.7680  142.5380 C   0  0  0  0  0  3  0  0  0  0  0  0
  191.3340  172.2110  144.2350 N   0  0  0  0  0  0  0  0  0  0  0  0
  189.3870  173.1220  142.5580 C   0  0  0  0  0  0  0  0  0  0  0  0
  189.5770  175.2920  143.3300 N   0  0  0  0  0  0  0  0  0  0  0  0
  191.0450  173.5490  144.2500 C   0  0  0  0  0  0  0  0  0  0  0  0
  190.6940  171.3280  143.4120 C   0  0  0  0  0  3  0  0  0  0  0  0
  188.5790  175.4120  142.4210 C   0  0  0  0  0  0  0  0  0  0  0  0
  191.1260  175.6090  145.8480 C   0  0  2  0  0  3  0  0  0  0  0  0
  193.3970  176.5210  146.3230 C   0  0  0  0  0  0  0  0  0  0  0  0
  194.2070  177.5410  146.6950 F   0  0  0  0  0  0  0  0  0  0  0  0
  193.9620  175.2070  145.9880 C   0  0  0  0  0  0  0  0  0  0  0  0
  193.1220  174.2340  145.2810 C   0  0  0  0  0  3  0  0  0  0  0  0
  195.1690  174.9450  146.2300 O   0  0  0  0  0  0  0  0  0  0  0  0
  191.8020  174.4290  145.1630 C   0  0  0  0  0  0  0  0  0  0  0  0
  192.0870  176.7300  146.1820 C   0  0  0  0  0  3  0  0  0  0  0  0
  190.4450  175.1630  147.1330 C   0  0  0  0  0  2  0  0  0  0  0  0
  188.9500  175.0100  146.9110 C   0  0  0  0  0  2  0  0  0  0  0  0
  188.3430  176.3320  146.6010 C   0  0  0  0  0  0  0  0  0  0  0  0
  188.7790  177.4730  147.2610 O   0  0  0  0  0  1  0  0  0  0  0  0
  187.4270  176.4160  145.7410 O   0  0  0  0  0  0  0  0  0  0  0  0
  186.4960  176.8070  142.4220 N   0  0  0  0  0  2  0  0  0  0  0  0
  187.8930  176.6770  142.1480 C   0  0  0  0  0  0  0  0  0  0  0  0
  188.5400  177.6490  141.6730 O   0  0  0  0  0  0  0  0  0  0  0  0
  185.5630  178.5110  140.6240 O   0  0  0  0  0  0  0  0  0  0  0  0
  183.9710  178.1310  142.7610 C   0  0  0  0  0  1  0  0  0  0  0  0
  186.3190  179.4160  142.7700 O   0  0  0  0  0  0  0  0  0  0  0  0
  185.6180  178.2650  142.1050 S   0  0  0  0  0  0  0  0  0  0  0  0
  1  7  1  0  0  0  0
  2  9  1  0  0  0  0
  2  5  1  0  0  0  0
  3  5  1  0  0  0  0
  3  8  2  0  0  0  0
  4  7  2  0  0  0  0
  5  1  2  0  0  0  0
  6  1  1  0  0  0  0
  7 16  1  0  0  0  0
  8  4  1  0  0  0  0
  9  6  2  0  0  0  0
 10 17  1  0  0  0  0
 10 18  1  1  0  0  0
 11 12  1  0  0  0  0
 13 15  2  0  0  0  0
 13 11  1  0  0  0  0
 14 13  1  0  0  0  0
 16 14  2  0  0  0  0
 16 10  1  0  0  0  0
 17 11  2  0  0  0  0
 19 18  1  0  0  0  0
 20 19  1  0  0  0  0
 20 21  1  0  0  0  0
 22 20  2  0  0  0  0
 24  9  1  0  0  0  0
 24 23  1  0  0  0  0
 25 24  2  0  0  0  0
 26 29  2  0  0  0  0
 29 23  1  0  0  0  0
 29 27  1  0  0  0  0
 29 28  2  0  0  0  0
M  END
>  <MODEL>
5

>  <REMARK>
 VINA RESULT:      -6.5      3.543      6.472
  Name = 
  6 active torsions:
  status: ('A' for Active; 'I' for Inactive)
    1  A    between atoms: N_1  and  S_22
    2  A    between atoms: C_2  and  C_5
    3  A    between atoms: C_2  and  C_26
    4  A    between atoms: C_7  and  C_26
    5  A    between atoms: C_17  and  C_28
    6  A    between atoms: C_18  and  C_21
                            x       y       z     vdW  Elec       q    Type
                         _______ _______ _______ _____ _____    ______ ____

>  <TORSDO>
F 6

$$$$
=
 OpenBabel11062422563D

 29 31  0  0  1  0  0  0  0  0999 V2000
  190.5820  174.4960  142.2170 C   0  0  0  0  0  0  0  0  0  0  0  0
  192.2950  173.8800  140.4940 S   0  0  0  0  0  0  0  0  0  0  0  0
  189.6410  173.1150  140.4540 C   0  0  0  0  0  3  0  0  0  0  0  0
  188.2750  173.9270  142.2550 N   0  0  0  0  0  0  0  0  0  0  0  0
  190.7130  173.7720  141.0440 C   0  0  0  0  0  0  0  0  0  0  0  0
  191.7130  175.1240  142.6290 N   0  0  0  0  0  0  0  0  0  0  0  0
  189.3300  174.5670  142.8470 C   0  0  0  0  0  0  0  0  0  0  0  0
  188.4010  173.2140  141.0960 C   0  0  0  0  0  3  0  0  0  0  0  0
  192.7480  174.8760  141.7890 C   0  0  0  0  0  0  0  0  0  0  0  0
  188.5520  176.7200  144.0980 C   0  0  2  0  0  3  0  0  0  0  0  0
  189.3400  176.9480  146.4520 C   0  0  0  0  0  0  0  0  0  0  0  0
  189.6380  177.7130  147.5300 F   0  0  0  0  0  0  0  0  0  0  0  0
  189.5010  175.4890  146.5080 C   0  0  0  0  0  0  0  0  0  0  0  0
  189.4930  174.7270  145.2550 C   0  0  0  0  0  3  0  0  0  0  0  0
  189.7210  174.9080  147.6020 O   0  0  0  0  0  0  0  0  0  0  0  0
  189.0990  175.2990  144.1090 C   0  0  0  0  0  0  0  0  0  0  0  0
  188.9740  177.5270  145.3070 C   0  0  0  0  0  3  0  0  0  0  0  0
  187.0320  176.7080  144.0370 C   0  0  0  0  0  2  0  0  0  0  0  0
  186.4720  178.0040  144.5970 C   0  0  0  0  0  2  0  0  0  0  0  0
  185.2500  177.7280  145.3980 C   0  0  0  0  0  0  0  0  0  0  0  0
  185.2230  176.6610  146.2860 O   0  0  0  0  0  1  0  0  0  0  0  0
  184.2350  178.4610  145.2680 O   0  0  0  0  0  0  0  0  0  0  0  0
  194.9380  174.9070  143.0080 N   0  0  0  0  0  2  0  0  0  0  0  0
  194.0890  175.4320  141.9850 C   0  0  0  0  0  0  0  0  0  0  0  0
  194.4890  176.3730  141.2480 O   0  0  0  0  0  0  0  0  0  0  0  0
  197.1340  174.8170  144.4830 O   0  0  0  0  0  0  0  0  0  0  0  0
  197.5420  175.3070  141.8680 C   0  0  0  0  0  1  0  0  0  0  0  0
  196.4280  176.9960  143.6190 O   0  0  0  0  0  0  0  0  0  0  0  0
  196.5250  175.5290  143.3090 S   0  0  0  0  0  0  0  0  0  0  0  0
  1  6  1  0  0  0  0
  1  7  1  0  0  0  0
  2  5  1  0  0  0  0
  2  9  1  0  0  0  0
  3  5  1  0  0  0  0
  3  8  2  0  0  0  0
  4  7  2  0  0  0  0
  5  1  2  0  0  0  0
  7 16  1  0  0  0  0
  8  4  1  0  0  0  0
  9 24  1  0  0  0  0
  9  6  2  0  0  0  0
 10 18  1  1  0  0  0
 10 16  1  0  0  0  0
 10 17  1  0  0  0  0
 11 13  1  0  0  0  0
 11 12  1  0  0  0  0
 13 15  2  0  0  0  0
 14 13  1  0  0  0  0
 16 14  2  0  0  0  0
 17 11  2  0  0  0  0
 18 19  1  0  0  0  0
 19 20  1  0  0  0  0
 20 21  1  0  0  0  0
 22 20  2  0  0  0  0
 23 29  1  0  0  0  0
 24 23  1  0  0  0  0
 25 24  2  0  0  0  0
 27 29  1  0  0  0  0
 29 28  2  0  0  0  0
 29 26  2  0  0  0  0
M  END
>  <MODEL>
6

>  <REMARK>
 VINA RESULT:      -6.5      4.056      5.531
  Name = 
  6 active torsions:
  status: ('A' for Active; 'I' for Inactive)
    1  A    between atoms: N_1  and  S_22
    2  A    between atoms: C_2  and  C_5
    3  A    between atoms: C_2  and  C_26
    4  A    between atoms: C_7  and  C_26
    5  A    between atoms: C_17  and  C_28
    6  A    between atoms: C_18  and  C_21
                            x       y       z     vdW  Elec       q    Type
                         _______ _______ _______ _____ _____    ______ ____

>  <TORSDO>
F 6

$$$$
=
 OpenBabel11062422563D

 29 31  0  0  1  0  0  0  0  0999 V2000
  190.9280  175.2190  144.9730 C   0  0  0  0  0  0  0  0  0  0  0  0
  192.7530  173.5150  145.1770 S   0  0  0  0  0  0  0  0  0  0  0  0
  192.1590  175.4530  147.0520 C   0  0  0  0  0  3  0  0  0  0  0  0
  190.3090  176.8960  146.5390 N   0  0  0  0  0  0  0  0  0  0  0  0
  191.9390  174.8270  145.8320 C   0  0  0  0  0  0  0  0  0  0  0  0
  190.8130  174.4680  143.8470 N   0  0  0  0  0  0  0  0  0  0  0  0
  190.0950  176.2910  145.3300 C   0  0  0  0  0  0  0  0  0  0  0  0
  191.3060  176.5090  147.3900 C   0  0  0  0  0  3  0  0  0  0  0  0
  191.7530  173.4920  143.8090 C   0  0  0  0  0  0  0  0  0  0  0  0
  187.5580  176.3890  144.7320 C   0  0  2  0  0  3  0  0  0  0  0  0
  187.0200  177.1470  142.4190 C   0  0  0  0  0  0  0  0  0  0  0  0
  186.1850  177.1900  141.3530 F   0  0  0  0  0  0  0  0  0  0  0  0
  188.3180  177.8350  142.3750 C   0  0  0  0  0  0  0  0  0  0  0  0
  189.3290  177.5060  143.3850 C   0  0  0  0  0  3  0  0  0  0  0  0
  188.5890  178.6350  141.4420 O   0  0  0  0  0  0  0  0  0  0  0  0
  189.0030  176.7900  144.4690 C   0  0  0  0  0  0  0  0  0  0  0  0
  186.7020  176.4090  143.4830 C   0  0  0  0  0  3  0  0  0  0  0  0
  186.9250  177.3130  145.7620 C   0  0  0  0  0  2  0  0  0  0  0  0
  185.4960  176.8840  146.0450 C   0  0  0  0  0  2  0  0  0  0  0  0
  184.6540  178.0760  146.3370 C   0  0  0  0  0  0  0  0  0  0  0  0
  184.0160  178.7490  145.3040 O   0  0  0  0  0  0  0  0  0  0  0  0
  184.5250  178.4780  147.5230 O   0  0  0  0  0  1  0  0  0  0  0  0
  190.8610  172.4910  141.6910 N   0  0  0  0  0  2  0  0  0  0  0  0
  191.8600  172.5260  142.7120 C   0  0  0  0  0  0  0  0  0  0  0  0
  192.8370  171.7300  142.6740 O   0  0  0  0  0  0  0  0  0  0  0  0
  190.7270  169.9680  140.9020 O   0  0  0  0  0  0  0  0  0  0  0  0
  189.6360  171.7480  139.2030 C   0  0  0  0  0  1  0  0  0  0  0  0
  192.2500  171.4600  139.6990 O   0  0  0  0  0  0  0  0  0  0  0  0
  190.9130  171.3640  140.3780 S   0  0  0  0  0  0  0  0  0  0  0  0
  1  7  2  0  0  0  0
  1  5  1  0  0  0  0
  2  5  1  0  0  0  0
  3  8  1  0  0  0  0
  4  8  2  0  0  0  0
  5  3  2  0  0  0  0
  6  1  1  0  0  0  0
  7  4  1  0  0  0  0
  9  6  2  0  0  0  0
  9  2  1  0  0  0  0
 10 18  1  1  0  0  0
 11 17  2  0  0  0  0
 12 11  1  0  0  0  0
 13 11  1  0  0  0  0
 13 14  1  0  0  0  0
 14 16  2  0  0  0  0
 15 13  2  0  0  0  0
 16 10  1  0  0  0  0
 16  7  1  0  0  0  0
 17 10  1  0  0  0  0
 18 19  1  0  0  0  0
 19 20  1  0  0  0  0
 20 22  1  0  0  0  0
 21 20  2  0  0  0  0
 23 24  1  0  0  0  0
 24  9  1  0  0  0  0
 25 24  2  0  0  0  0
 27 29  1  0  0  0  0
 28 29  2  0  0  0  0
 29 26  2  0  0  0  0
 29 23  1  0  0  0  0
M  END
>  <MODEL>
7

>  <REMARK>
 VINA RESULT:      -6.4      2.141      3.434
  Name = 
  6 active torsions:
  status: ('A' for Active; 'I' for Inactive)
    1  A    between atoms: N_1  and  S_22
    2  A    between atoms: C_2  and  C_5
    3  A    between atoms: C_2  and  C_26
    4  A    between atoms: C_7  and  C_26
    5  A    between atoms: C_17  and  C_28
    6  A    between atoms: C_18  and  C_21
                            x       y       z     vdW  Elec       q    Type
                         _______ _______ _______ _____ _____    ______ ____

>  <TORSDO>
F 6

$$$$
=
 OpenBabel11062422563D

 29 31  0  0  1  0  0  0  0  0999 V2000
  191.5890  175.1360  145.4340 C   0  0  0  0  0  0  0  0  0  0  0  0
  193.5810  176.0420  146.6530 S   0  0  0  0  0  0  0  0  0  0  0  0
  191.1300  175.4790  147.7930 C   0  0  0  0  0  3  0  0  0  0  0  0
  189.4560  174.5810  146.3230 N   0  0  0  0  0  0  0  0  0  0  0  0
  191.9800  175.5420  146.6970 C   0  0  0  0  0  0  0  0  0  0  0  0
  192.5580  175.2100  144.4850 N   0  0  0  0  0  0  0  0  0  0  0  0
  190.2860  174.6510  145.2370 C   0  0  0  0  0  0  0  0  0  0  0  0
  189.8410  174.9790  147.5720 C   0  0  0  0  0  3  0  0  0  0  0  0
  193.7130  175.6980  144.9990 C   0  0  0  0  0  0  0  0  0  0  0  0
  188.8660  175.1160  143.0990 C   0  0  2  0  0  3  0  0  0  0  0  0
  188.2250  173.1070  141.7680 C   0  0  0  0  0  0  0  0  0  0  0  0
  187.4060  172.4860  140.8860 F   0  0  0  0  0  0  0  0  0  0  0  0
  189.3720  172.3940  142.3470 C   0  0  0  0  0  0  0  0  0  0  0  0
  190.0350  172.9600  143.5270 C   0  0  0  0  0  3  0  0  0  0  0  0
  189.7320  171.2790  141.8910 O   0  0  0  0  0  0  0  0  0  0  0  0
  189.7750  174.2130  143.9220 C   0  0  0  0  0  0  0  0  0  0  0  0
  187.9440  174.3460  142.1780 C   0  0  0  0  0  3  0  0  0  0  0  0
  189.6890  176.0790  142.2560 C   0  0  0  0  0  2  0  0  0  0  0  0
  189.3520  177.5150  142.6180 C   0  0  0  0  0  2  0  0  0  0  0  0
  190.2490  177.9910  143.7050 C   0  0  0  0  0  0  0  0  0  0  0  0
  189.7820  178.0750  145.0090 O   0  0  0  0  0  1  0  0  0  0  0  0
  191.4340  178.3240  143.4400 O   0  0  0  0  0  0  0  0  0  0  0  0
  195.3180  174.8830  143.2540 N   0  0  0  0  0  2  0  0  0  0  0  0
  194.9300  175.8780  144.2030 C   0  0  0  0  0  0  0  0  0  0  0  0
  195.6300  176.9150  144.3580 O   0  0  0  0  0  0  0  0  0  0  0  0
  197.0180  173.7200  141.5900 O   0  0  0  0  0  0  0  0  0  0  0  0
  196.5600  176.3290  141.1080 C   0  0  0  0  0  1  0  0  0  0  0  0
  197.9150  175.3400  143.1930 O   0  0  0  0  0  0  0  0  0  0  0  0
  196.7530  175.0200  142.2960 S   0  0  0  0  0  0  0  0  0  0  0  0
  1  5  1  0  0  0  0
  2  5  1  0  0  0  0
  4  8  2  0  0  0  0
  5  3  2  0  0  0  0
  6  9  2  0  0  0  0
  6  1  1  0  0  0  0
  7  1  2  0  0  0  0
  7  4  1  0  0  0  0
  8  3  1  0  0  0  0
  9  2  1  0  0  0  0
 10 18  1  6  0  0  0
 10 16  1  0  0  0  0
 11 17  2  0  0  0  0
 11 13  1  0  0  0  0
 12 11  1  0  0  0  0
 13 14  1  0  0  0  0
 14 16  2  0  0  0  0
 15 13  2  0  0  0  0
 16  7  1  0  0  0  0
 17 10  1  0  0  0  0
 18 19  1  0  0  0  0
 19 20  1  0  0  0  0
 20 21  1  0  0  0  0
 22 20  2  0  0  0  0
 23 24  1  0  0  0  0
 24 25  2  0  0  0  0
 24  9  1  0  0  0  0
 26 29  2  0  0  0  0
 27 29  1  0  0  0  0
 29 28  2  0  0  0  0
 29 23  1  0  0  0  0
M  END
>  <MODEL>
8

>  <REMARK>
 VINA RESULT:      -6.4      4.511      5.917
  Name = 
  6 active torsions:
  status: ('A' for Active; 'I' for Inactive)
    1  A    between atoms: N_1  and  S_22
    2  A    between atoms: C_2  and  C_5
    3  A    between atoms: C_2  and  C_26
    4  A    between atoms: C_7  and  C_26
    5  A    between atoms: C_17  and  C_28
    6  A    between atoms: C_18  and  C_21
                            x       y       z     vdW  Elec       q    Type
                         _______ _______ _______ _____ _____    ______ ____

>  <TORSDO>
F 6

$$$$
=
 OpenBabel11062422563D

 29 31  0  0  1  0  0  0  0  0999 V2000
  191.4290  176.3240  145.0860 C   0  0  0  0  0  0  0  0  0  0  0  0
  193.7920  175.5010  145.2060 S   0  0  0  0  0  0  0  0  0  0  0  0
  192.2590  176.2790  147.3670 C   0  0  0  0  0  3  0  0  0  0  0  0
  190.0130  176.9770  146.8800 N   0  0  0  0  0  0  0  0  0  0  0  0
  192.4360  176.0820  146.0040 C   0  0  0  0  0  0  0  0  0  0  0  0
  191.7470  176.0280  143.7990 N   0  0  0  0  0  0  0  0  0  0  0  0
  190.1850  176.7960  145.5340 C   0  0  0  0  0  0  0  0  0  0  0  0
  191.0050  176.7360  147.7880 C   0  0  0  0  0  3  0  0  0  0  0  0
  193.0180  175.5690  143.7000 C   0  0  0  0  0  0  0  0  0  0  0  0
  187.6660  176.5510  144.9020 C   0  0  2  0  0  3  0  0  0  0  0  0
  187.0900  177.0720  142.5330 C   0  0  0  0  0  0  0  0  0  0  0  0
  186.2760  176.9400  141.4580 F   0  0  0  0  0  0  0  0  0  0  0  0
  188.2980  177.9040  142.4540 C   0  0  0  0  0  0  0  0  0  0  0  0
  189.3210  177.7700  143.4960 C   0  0  0  0  0  3  0  0  0  0  0  0
  188.4930  178.6620  141.4680 O   0  0  0  0  0  0  0  0  0  0  0  0
  189.0590  177.0990  144.6270 C   0  0  0  0  0  0  0  0  0  0  0  0
  186.8380  176.3800  143.6460 C   0  0  0  0  0  3  0  0  0  0  0  0
  186.9090  177.4650  145.8540 C   0  0  0  0  0  2  0  0  0  0  0  0
  185.4500  177.0500  145.9330 C   0  0  0  0  0  2  0  0  0  0  0  0
  184.6080  178.2180  146.3090 C   0  0  0  0  0  0  0  0  0  0  0  0
  184.5740  178.6580  147.6250 O   0  0  0  0  0  1  0  0  0  0  0  0
  183.9220  178.8050  145.4330 O   0  0  0  0  0  0  0  0  0  0  0  0
  192.8080  174.6540  141.3760 N   0  0  0  0  0  2  0  0  0  0  0  0
  193.6260  175.1650  142.4300 C   0  0  0  0  0  0  0  0  0  0  0  0
  194.8730  175.2720  142.2710 O   0  0  0  0  0  0  0  0  0  0  0  0
  194.4200  173.0040  140.0780 O   0  0  0  0  0  0  0  0  0  0  0  0
  192.1450  173.6220  138.7800 C   0  0  0  0  0  1  0  0  0  0  0  0
  194.1930  175.2870  139.2220 O   0  0  0  0  0  0  0  0  0  0  0  0
  193.4610  174.1390  139.8580 S   0  0  0  0  0  0  0  0  0  0  0  0
  1  7  2  0  0  0  0
  1  5  1  0  0  0  0
  2  5  1  0  0  0  0
  3  8  1  0  0  0  0
  4  8  2  0  0  0  0
  5  3  2  0  0  0  0
  6  1  1  0  0  0  0
  7  4  1  0  0  0  0
  9  6  2  0  0  0  0
  9  2  1  0  0  0  0
 10 18  1  1  0  0  0
 11 17  2  0  0  0  0
 12 11  1  0  0  0  0
 13 11  1  0  0  0  0
 13 14  1  0  0  0  0
 14 16  2  0  0  0  0
 15 13  2  0  0  0  0
 16 10  1  0  0  0  0
 16  7  1  0  0  0  0
 17 10  1  0  0  0  0
 18 19  1  0  0  0  0
 19 20  1  0  0  0  0
 20 21  1  0  0  0  0
 22 20  2  0  0  0  0
 23 24  1  0  0  0  0
 24  9  1  0  0  0  0
 25 24  2  0  0  0  0
 27 29  1  0  0  0  0
 28 29  2  0  0  0  0
 29 26  2  0  0  0  0
 29 23  1  0  0  0  0
M  END
>  <MODEL>
9

>  <REMARK>
 VINA RESULT:      -6.2      2.982      4.055
  Name = 
  6 active torsions:
  status: ('A' for Active; 'I' for Inactive)
    1  A    between atoms: N_1  and  S_22
    2  A    between atoms: C_2  and  C_5
    3  A    between atoms: C_2  and  C_26
    4  A    between atoms: C_7  and  C_26
    5  A    between atoms: C_17  and  C_28
    6  A    between atoms: C_18  and  C_21
                            x       y       z     vdW  Elec       q    Type
                         _______ _______ _______ _____ _____    ______ ____

>  <TORSDO>
F 6

$$$$
