=
 OpenBabel11062422423D

 29 33  0  0  1  0  0  0  0  0999 V2000
  185.3890  177.8430  144.2820 C   0  0  1  0  0  3  0  0  0  0  0  0
  186.8240  177.4210  141.4940 C   0  0  0  0  0  2  0  0  0  0  0  0
  188.7670  176.8370  142.8450 N   0  0  2  0  0  0  0  0  0  0  0  0
  183.9340  178.8260  146.1340 N   0  0  0  0  0  0  0  0  0  0  0  0
  190.3880  177.0030  144.6880 C   0  0  0  0  0  2  0  0  0  0  0  0
  186.3380  178.8030  143.5690 C   0  0  0  0  0  2  0  0  0  0  0  0
  189.9930  177.4960  143.2900 C   0  0  0  0  0  2  0  0  0  0  0  0
  188.9030  175.3750  142.6710 C   0  0  2  0  0  3  0  0  0  0  0  0
  188.3750  176.2080  147.1130 O   0  0  0  0  0  0  0  0  0  0  0  0
  189.3520  174.7100  143.9790 C   0  0  2  0  0  3  0  0  0  0  0  0
  188.3470  177.4230  141.5820 C   0  0  0  0  0  2  0  0  0  0  0  0
  186.1350  177.1920  145.4210 C   0  0  0  0  0  0  0  0  0  0  0  0
  184.1580  178.5780  144.7410 C   0  0  0  0  0  0  0  0  0  0  0  0
  185.8340  177.4530  146.7000 C   0  0  0  0  0  3  0  0  0  0  0  0
  188.4030  176.0590  145.8610 C   0  0  0  0  0  0  0  0  0  0  0  0
  184.7010  178.3220  147.0510 C   0  0  0  0  0  3  0  0  0  0  0  0
  189.6920  175.6900  145.1450 C   0  0  2  0  0  0  0  0  0  0  0  0
  183.3270  178.9950  143.8930 O   0  0  0  0  0  0  0  0  0  0  0  0
  190.3180  174.8030  142.8060 C   0  0  0  0  0  2  0  0  0  0  0  0
  187.2470  176.3640  145.0730 N   0  0  0  0  0  2  0  0  0  0  0  0
  186.2120  178.7050  142.0530 C   0  0  0  0  0  2  0  0  0  0  0  0
  190.6380  174.9120  146.0760 C   0  0  0  0  0  2  0  0  0  0  0  0
  191.8390  175.7200  146.5640 C   0  0  0  0  0  2  0  0  0  0  0  0
  194.3210  175.8010  146.4310 C   0  0  0  0  0  2  0  0  0  0  0  0
  193.1000  174.8750  146.5140 C   0  0  0  0  0  3  0  0  0  0  0  0
  195.5150  175.0850  145.8080 C   0  0  0  0  0  2  0  0  0  0  0  0
  195.2150  174.6470  144.3680 C   0  0  0  0  0  2  0  0  0  0  0  0
  193.7270  174.3770  144.1050 C   0  0  0  0  0  2  0  0  0  0  0  0
  193.0280  173.8580  145.3600 C   0  0  0  0  0  2  0  0  0  0  0  0
  1  6  1  1  0  0  0
  1 13  1  0  0  0  0
  1 12  1  0  0  0  0
  2 11  1  0  0  0  0
  2 21  1  0  0  0  0
  3 11  1  6  0  0  0
  3  7  1  0  0  0  0
  4 16  2  0  0  0  0
  5 17  1  0  0  0  0
  7  5  1  0  0  0  0
  8 19  1  6  0  0  0
  8  3  1  0  0  0  0
  8 10  1  0  0  0  0
 10 19  1  6  0  0  0
 10 17  1  0  0  0  0
 12 14  2  0  0  0  0
 13  4  1  0  0  0  0
 14 16  1  0  0  0  0
 15  9  2  0  0  0  0
 17 15  1  0  0  0  0
 17 22  1  1  0  0  0
 18 13  2  0  0  0  0
 20 12  1  0  0  0  0
 20 15  1  0  0  0  0
 21  6  1  0  0  0  0
 22 23  1  0  0  0  0
 24 25  1  0  0  0  0
 25 23  1  0  0  0  0
 26 24  1  0  0  0  0
 27 26  1  0  0  0  0
 28 27  1  0  0  0  0
 28 29  1  0  0  0  0
 29 25  1  0  0  0  0
M  END
>  <MODEL>
1

>  <REMARK>
 VINA RESULT:      -8.7      0.000      0.000
  Name = 
  3 active torsions:
  status: ('A' for Active; 'I' for Inactive)
    1  A    between atoms: C_7  and  C_11
    2  A    between atoms: C_11  and  C_28
    3  A    between atoms: C_23  and  C_28
                            x       y       z     vdW  Elec       q    Type
                         _______ _______ _______ _____ _____    ______ ____

>  <TORSDO>
F 3

$$$$
=
 OpenBabel11062422423D

 29 33  0  0  1  0  0  0  0  0999 V2000
  185.7380  178.2100  144.1620 C   0  0  1  0  0  3  0  0  0  0  0  0
  186.3300  177.9440  147.2590 C   0  0  0  0  0  2  0  0  0  0  0  0
  188.2340  176.5990  146.5430 N   0  0  2  0  0  0  0  0  0  0  0  0
  184.5020  178.3160  141.9320 N   0  0  0  0  0  0  0  0  0  0  0  0
  189.4700  174.9250  145.2320 C   0  0  0  0  0  2  0  0  0  0  0  0
  185.4150  177.0290  145.0740 C   0  0  0  0  0  2  0  0  0  0  0  0
  188.5550  175.1780  146.4370 C   0  0  0  0  0  2  0  0  0  0  0  0
  189.4060  177.4590  146.8120 C   0  0  2  0  0  3  0  0  0  0  0  0
  189.3920  176.4660  142.3710 O   0  0  0  0  0  0  0  0  0  0  0  0
  190.4670  177.2920  145.7150 C   0  0  2  0  0  3  0  0  0  0  0  0
  187.2610  176.7860  147.6080 C   0  0  0  0  0  2  0  0  0  0  0  0
  186.9300  177.8450  143.3110 C   0  0  0  0  0  0  0  0  0  0  0  0
  184.5310  178.5750  143.3400 C   0  0  0  0  0  0  0  0  0  0  0  0
  186.8200  177.6560  141.9900 C   0  0  0  0  0  3  0  0  0  0  0  0
  189.2580  176.7810  143.5850 C   0  0  0  0  0  0  0  0  0  0  0  0
  185.5460  177.8840  141.2930 C   0  0  0  0  0  3  0  0  0  0  0  0
  190.1630  176.1900  144.6530 C   0  0  2  0  0  0  0  0  0  0  0  0
  183.5300  179.0960  143.8980 O   0  0  0  0  0  0  0  0  0  0  0  0
  190.7250  176.7380  147.1100 C   0  0  0  0  0  2  0  0  0  0  0  0
  188.1620  177.6060  143.9970 N   0  0  0  0  0  2  0  0  0  0  0  0
  185.0920  177.4790  146.4940 C   0  0  0  0  0  2  0  0  0  0  0  0
  191.5280  175.7960  144.0640 C   0  0  0  0  0  2  0  0  0  0  0  0
  192.4860  176.9690  143.8660 C   0  0  0  0  0  2  0  0  0  0  0  0
  193.9790  174.9800  143.8430 C   0  0  0  0  0  2  0  0  0  0  0  0
  193.9260  176.5050  144.0050 C   0  0  0  0  0  3  0  0  0  0  0  0
  195.2140  174.3970  144.5230 C   0  0  0  0  0  2  0  0  0  0  0  0
  195.1980  174.6630  146.0340 C   0  0  0  0  0  2  0  0  0  0  0  0
  194.4350  175.9360  146.4260 C   0  0  0  0  0  2  0  0  0  0  0  0
  194.5310  176.9980  145.3330 C   0  0  0  0  0  2  0  0  0  0  0  0
  1  6  1  1  0  0  0
  2 11  1  0  0  0  0
  3  7  1  1  0  0  0
  3  8  1  0  0  0  0
  3 11  1  0  0  0  0
  4 13  1  0  0  0  0
  5  7  1  0  0  0  0
  6 21  1  0  0  0  0
  8 19  1  1  0  0  0
  9 15  2  0  0  0  0
 10  8  1  0  0  0  0
 10 19  1  1  0  0  0
 12 20  1  0  0  0  0
 12  1  1  0  0  0  0
 13 18  2  0  0  0  0
 13  1  1  0  0  0  0
 14 12  2  0  0  0  0
 15 20  1  0  0  0  0
 15 17  1  0  0  0  0
 16  4  2  0  0  0  0
 16 14  1  0  0  0  0
 17 22  1  6  0  0  0
 17  5  1  0  0  0  0
 17 10  1  0  0  0  0
 21  2  1  0  0  0  0
 23 25  1  0  0  0  0
 23 22  1  0  0  0  0
 24 25  1  0  0  0  0
 24 26  1  0  0  0  0
 25 29  1  0  0  0  0
 26 27  1  0  0  0  0
 27 28  1  0  0  0  0
 29 28  1  0  0  0  0
M  END
>  <MODEL>
2

>  <REMARK>
 VINA RESULT:      -8.3      1.723      3.560
  Name = 
  3 active torsions:
  status: ('A' for Active; 'I' for Inactive)
    1  A    between atoms: C_7  and  C_11
    2  A    between atoms: C_11  and  C_28
    3  A    between atoms: C_23  and  C_28
                            x       y       z     vdW  Elec       q    Type
                         _______ _______ _______ _____ _____    ______ ____

>  <TORSDO>
F 3

$$$$
=
 OpenBabel11062422423D

 29 33  0  0  1  0  0  0  0  0999 V2000
  185.8430  178.1770  144.0380 C   0  0  1  0  0  3  0  0  0  0  0  0
  186.3180  178.1010  147.1660 C   0  0  0  0  0  2  0  0  0  0  0  0
  188.2090  176.6660  146.6100 N   0  0  2  0  0  0  0  0  0  0  0  0
  184.6900  178.1670  141.7620 N   0  0  0  0  0  0  0  0  0  0  0  0
  189.4450  174.8790  145.4560 C   0  0  0  0  0  2  0  0  0  0  0  0
  185.4560  177.0670  145.0120 C   0  0  0  0  0  2  0  0  0  0  0  0
  188.4950  175.2330  146.6080 C   0  0  0  0  0  2  0  0  0  0  0  0
  189.3940  177.5130  146.8650 C   0  0  2  0  0  3  0  0  0  0  0  0
  189.5100  176.2300  142.5010 O   0  0  0  0  0  0  0  0  0  0  0  0
  190.4870  177.2480  145.8220 C   0  0  2  0  0  3  0  0  0  0  0  0
  187.2040  176.9460  147.6240 C   0  0  0  0  0  2  0  0  0  0  0  0
  187.0540  177.7280  143.2580 C   0  0  0  0  0  0  0  0  0  0  0  0
  184.6760  178.5170  143.1510 C   0  0  0  0  0  0  0  0  0  0  0  0
  186.9860  177.4550  141.9490 C   0  0  0  0  0  3  0  0  0  0  0  0
  189.3410  176.6280  143.6860 C   0  0  0  0  0  0  0  0  0  0  0  0
  185.7430  177.6680  141.1920 C   0  0  0  0  0  3  0  0  0  0  0  0
  190.1920  176.0860  144.8230 C   0  0  2  0  0  0  0  0  0  0  0  0
  183.6700  179.0980  143.6360 O   0  0  0  0  0  0  0  0  0  0  0  0
  190.6810  176.7800  147.2580 C   0  0  0  0  0  2  0  0  0  0  0  0
  188.2540  177.5040  144.0030 N   0  0  0  0  0  2  0  0  0  0  0  0
  185.0950  177.6170  146.3870 C   0  0  0  0  0  2  0  0  0  0  0  0
  191.5660  175.6200  144.3110 C   0  0  0  0  0  2  0  0  0  0  0  0
  191.9090  174.1750  144.6670 C   0  0  0  0  0  2  0  0  0  0  0  0
  193.8040  175.4510  145.6510 C   0  0  0  0  0  2  0  0  0  0  0  0
  193.0160  174.1350  145.7060 C   0  0  0  0  0  3  0  0  0  0  0  0
  195.2150  175.2720  146.2010 C   0  0  0  0  0  2  0  0  0  0  0  0
  196.0160  174.2620  145.3700 C   0  0  0  0  0  2  0  0  0  0  0  0
  195.1440  173.2010  144.6850 C   0  0  0  0  0  2  0  0  0  0  0  0
  193.8990  172.8880  145.5120 C   0  0  0  0  0  2  0  0  0  0  0  0
  1  6  1  1  0  0  0
  2 11  1  0  0  0  0
  3  7  1  1  0  0  0
  3  8  1  0  0  0  0
  3 11  1  0  0  0  0
  4 13  1  0  0  0  0
  5  7  1  0  0  0  0
  6 21  1  0  0  0  0
  8 19  1  1  0  0  0
  9 15  2  0  0  0  0
 10  8  1  0  0  0  0
 10 19  1  1  0  0  0
 12 20  1  0  0  0  0
 12  1  1  0  0  0  0
 13 18  2  0  0  0  0
 13  1  1  0  0  0  0
 14 12  2  0  0  0  0
 15 20  1  0  0  0  0
 15 17  1  0  0  0  0
 16  4  2  0  0  0  0
 16 14  1  0  0  0  0
 17 22  1  6  0  0  0
 17  5  1  0  0  0  0
 17 10  1  0  0  0  0
 21  2  1  0  0  0  0
 22 23  1  0  0  0  0
 23 25  1  0  0  0  0
 24 25  1  0  0  0  0
 24 26  1  0  0  0  0
 27 26  1  0  0  0  0
 28 27  1  0  0  0  0
 28 29  1  0  0  0  0
 29 25  1  0  0  0  0
M  END
>  <MODEL>
3

>  <REMARK>
 VINA RESULT:      -8.1      1.711      3.404
  Name = 
  3 active torsions:
  status: ('A' for Active; 'I' for Inactive)
    1  A    between atoms: C_7  and  C_11
    2  A    between atoms: C_11  and  C_28
    3  A    between atoms: C_23  and  C_28
                            x       y       z     vdW  Elec       q    Type
                         _______ _______ _______ _____ _____    ______ ____

>  <TORSDO>
F 3

$$$$
=
 OpenBabel11062422423D

 29 33  0  0  1  0  0  0  0  0999 V2000
  193.9290  175.6070  144.2030 C   0  0  1  0  0  3  0  0  0  0  0  0
  193.1520  175.7350  147.2680 C   0  0  0  0  0  2  0  0  0  0  0  0
  190.9460  176.3660  146.4430 N   0  0  2  0  0  0  0  0  0  0  0  0
  195.2260  175.8610  142.0200 N   0  0  0  0  0  0  0  0  0  0  0  0
  189.2880  177.5130  145.0340 C   0  0  0  0  0  2  0  0  0  0  0  0
  193.8110  176.8500  145.0830 C   0  0  0  0  0  2  0  0  0  0  0  0
  190.1840  177.6010  146.2760 C   0  0  0  0  0  2  0  0  0  0  0  0
  190.1080  175.1760  146.7040 C   0  0  2  0  0  3  0  0  0  0  0  0
  189.9850  176.0180  142.2340 O   0  0  0  0  0  0  0  0  0  0  0  0
  189.0980  174.9620  145.5680 C   0  0  2  0  0  3  0  0  0  0  0  0
  191.8810  176.5330  147.5460 C   0  0  0  0  0  2  0  0  0  0  0  0
  192.7200  175.5430  143.3020 C   0  0  0  0  0  0  0  0  0  0  0  0
  195.2230  175.6380  143.4350 C   0  0  0  0  0  0  0  0  0  0  0  0
  192.8180  175.7270  141.9790 C   0  0  0  0  0  3  0  0  0  0  0  0
  190.1640  175.7920  143.4610 C   0  0  0  0  0  0  0  0  0  0  0  0
  194.1260  175.9130  141.3330 C   0  0  0  0  0  3  0  0  0  0  0  0
  189.0710  176.0780  144.4790 C   0  0  2  0  0  0  0  0  0  0  0  0
  196.3150  175.4870  144.0430 O   0  0  0  0  0  0  0  0  0  0  0  0
  188.6150  175.4330  146.9330 C   0  0  0  0  0  2  0  0  0  0  0  0
  191.4500  175.3810  143.9380 N   0  0  0  0  0  2  0  0  0  0  0  0
  194.2020  176.5620  146.5270 C   0  0  0  0  0  2  0  0  0  0  0  0
  187.6780  175.9900  143.8310 C   0  0  0  0  0  2  0  0  0  0  0  0
  187.0150  177.3450  143.5880 C   0  0  0  0  0  2  0  0  0  0  0  0
  185.1290  178.8120  144.2780 C   0  0  0  0  0  2  0  0  0  0  0  0
  185.6120  177.3590  144.1710 C   0  0  0  0  0  3  0  0  0  0  0  0
  184.0450  178.9550  145.3420 C   0  0  0  0  0  2  0  0  0  0  0  0
  184.5740  178.5790  146.7320 C   0  0  0  0  0  2  0  0  0  0  0  0
  185.7150  177.5530  146.7000 C   0  0  0  0  0  2  0  0  0  0  0  0
  185.5730  176.6040  145.5120 C   0  0  0  0  0  2  0  0  0  0  0  0
  1  6  1  6  0  0  0
  2 11  1  0  0  0  0
  3  7  1  1  0  0  0
  3  8  1  0  0  0  0
  3 11  1  0  0  0  0
  4 13  1  0  0  0  0
  5  7  1  0  0  0  0
  6 21  1  0  0  0  0
  8 19  1  1  0  0  0
  9 15  2  0  0  0  0
 10  8  1  0  0  0  0
 10 19  1  1  0  0  0
 12 20  1  0  0  0  0
 12  1  1  0  0  0  0
 13 18  2  0  0  0  0
 13  1  1  0  0  0  0
 14 12  2  0  0  0  0
 15 20  1  0  0  0  0
 15 17  1  0  0  0  0
 16 14  1  0  0  0  0
 16  4  2  0  0  0  0
 17 22  1  6  0  0  0
 17  5  1  0  0  0  0
 17 10  1  0  0  0  0
 21  2  1  0  0  0  0
 23 22  1  0  0  0  0
 23 25  1  0  0  0  0
 24 26  1  0  0  0  0
 25 24  1  0  0  0  0
 25 29  1  0  0  0  0
 26 27  1  0  0  0  0
 28 27  1  0  0  0  0
 29 28  1  0  0  0  0
M  END
>  <MODEL>
4

>  <REMARK>
 VINA RESULT:      -8.0      2.743      7.963
  Name = 
  3 active torsions:
  status: ('A' for Active; 'I' for Inactive)
    1  A    between atoms: C_7  and  C_11
    2  A    between atoms: C_11  and  C_28
    3  A    between atoms: C_23  and  C_28
                            x       y       z     vdW  Elec       q    Type
                         _______ _______ _______ _____ _____    ______ ____

>  <TORSDO>
F 3

$$$$
=
 OpenBabel11062422423D

 29 33  0  0  1  0  0  0  0  0999 V2000
  187.1540  177.9440  144.0290 C   0  0  1  0  0  3  0  0  0  0  0  0
  187.0690  177.0590  147.0660 C   0  0  0  0  0  2  0  0  0  0  0  0
  189.1580  175.9120  146.5480 N   0  0  2  0  0  0  0  0  0  0  0  0
  186.4300  178.4880  141.6430 N   0  0  0  0  0  0  0  0  0  0  0  0
  190.7450  174.5560  145.2470 C   0  0  0  0  0  2  0  0  0  0  0  0
  186.7070  176.5980  144.5950 C   0  0  0  0  0  2  0  0  0  0  0  0
  189.5760  174.5470  146.2400 C   0  0  0  0  0  2  0  0  0  0  0  0
  190.1920  176.7140  147.2380 C   0  0  2  0  0  3  0  0  0  0  0  0
  191.2050  176.6470  142.8020 O   0  0  0  0  0  0  0  0  0  0  0  0
  191.4730  176.7870  146.3980 C   0  0  2  0  0  3  0  0  0  0  0  0
  187.9660  175.8650  147.3820 C   0  0  0  0  0  2  0  0  0  0  0  0
  188.5220  177.7750  143.4140 C   0  0  0  0  0  0  0  0  0  0  0  0
  186.1360  178.4550  143.0440 C   0  0  0  0  0  0  0  0  0  0  0  0
  188.7140  177.8580  142.0920 C   0  0  0  0  0  3  0  0  0  0  0  0
  190.7910  176.7060  143.9920 C   0  0  0  0  0  0  0  0  0  0  0  0
  187.6110  178.2080  141.1840 C   0  0  0  0  0  3  0  0  0  0  0  0
  191.4730  175.9210  145.1000 C   0  0  2  0  0  0  0  0  0  0  0  0
  185.0090  178.8390  143.4530 O   0  0  0  0  0  0  0  0  0  0  0  0
  191.4520  175.9630  147.6780 C   0  0  0  0  0  2  0  0  0  0  0  0
  189.5850  177.4160  144.3000 N   0  0  0  0  0  2  0  0  0  0  0  0
  186.0570  176.7450  145.9650 C   0  0  0  0  0  2  0  0  0  0  0  0
  192.9540  175.6720  144.7670 C   0  0  0  0  0  2  0  0  0  0  0  0
  193.3220  174.1970  144.6170 C   0  0  0  0  0  2  0  0  0  0  0  0
  195.6060  174.5540  145.5330 C   0  0  0  0  0  2  0  0  0  0  0  0
  194.2930  173.7800  145.7080 C   0  0  0  0  0  3  0  0  0  0  0  0
  196.7740  173.8100  146.1730 C   0  0  0  0  0  2  0  0  0  0  0  0
  196.9950  172.4430  145.5120 C   0  0  0  0  0  2  0  0  0  0  0  0
  195.7180  171.8340  144.9170 C   0  0  0  0  0  2  0  0  0  0  0  0
  194.4830  172.2520  145.7120 C   0  0  0  0  0  2  0  0  0  0  0  0
  1  6  1  6  0  0  0
  2 11  1  0  0  0  0
  3  7  1  1  0  0  0
  3  8  1  0  0  0  0
  3 11  1  0  0  0  0
  4 13  1  0  0  0  0
  5  7  1  0  0  0  0
  6 21  1  0  0  0  0
  8 19  1  1  0  0  0
  9 15  2  0  0  0  0
 10  8  1  0  0  0  0
 10 19  1  1  0  0  0
 12  1  1  0  0  0  0
 12 20  1  0  0  0  0
 13 18  2  0  0  0  0
 13  1  1  0  0  0  0
 14 12  2  0  0  0  0
 15 20  1  0  0  0  0
 15 17  1  0  0  0  0
 16  4  2  0  0  0  0
 16 14  1  0  0  0  0
 17 22  1  6  0  0  0
 17  5  1  0  0  0  0
 17 10  1  0  0  0  0
 21  2  1  0  0  0  0
 23 22  1  0  0  0  0
 23 25  1  0  0  0  0
 24 25  1  0  0  0  0
 24 26  1  0  0  0  0
 25 29  1  0  0  0  0
 27 26  1  0  0  0  0
 28 27  1  0  0  0  0
 28 29  1  0  0  0  0
M  END
>  <MODEL>
5

>  <REMARK>
 VINA RESULT:      -7.9      2.038      3.795
  Name = 
  3 active torsions:
  status: ('A' for Active; 'I' for Inactive)
    1  A    between atoms: C_7  and  C_11
    2  A    between atoms: C_11  and  C_28
    3  A    between atoms: C_23  and  C_28
                            x       y       z     vdW  Elec       q    Type
                         _______ _______ _______ _____ _____    ______ ____

>  <TORSDO>
F 3

$$$$
=
 OpenBabel11062422423D

 29 33  0  0  1  0  0  0  0  0999 V2000
  191.2880  173.3750  141.4250 C   0  0  1  0  0  3  0  0  0  0  0  0
  192.7810  174.6040  143.9300 C   0  0  0  0  0  2  0  0  0  0  0  0
  191.0660  176.3330  143.8100 N   0  0  2  0  0  0  0  0  0  0  0  0
  190.8530  172.2670  139.1670 N   0  0  0  0  0  0  0  0  0  0  0  0
  189.5490  177.9620  142.7640 C   0  0  0  0  0  2  0  0  0  0  0  0
  192.2760  174.5400  141.4410 C   0  0  0  0  0  2  0  0  0  0  0  0
  190.9620  177.6970  143.2980 C   0  0  0  0  0  2  0  0  0  0  0  0
  190.1980  176.0640  144.9770 C   0  0  2  0  0  3  0  0  0  0  0  0
  187.6170  175.8410  141.2370 O   0  0  0  0  0  0  0  0  0  0  0  0
  188.7270  176.3330  144.6340 C   0  0  2  0  0  3  0  0  0  0  0  0
  192.4480  176.0720  144.1820 C   0  0  0  0  0  2  0  0  0  0  0  0
  189.8960  173.9310  141.2500 C   0  0  0  0  0  0  0  0  0  0  0  0
  191.6610  172.3960  140.3430 C   0  0  0  0  0  0  0  0  0  0  0  0
  189.1940  173.7300  140.1280 C   0  0  0  0  0  3  0  0  0  0  0  0
  188.4230  175.8120  142.2060 C   0  0  0  0  0  0  0  0  0  0  0  0
  189.7160  172.8800  139.0470 C   0  0  0  0  0  3  0  0  0  0  0  0
  188.4690  176.9420  143.2210 C   0  0  2  0  0  0  0  0  0  0  0  0
  192.7020  171.6990  140.4630 O   0  0  0  0  0  0  0  0  0  0  0  0
  189.4700  177.2720  145.5750 C   0  0  0  0  0  2  0  0  0  0  0  0
  189.4020  174.7710  142.2960 N   0  0  0  0  0  2  0  0  0  0  0  0
  193.3340  174.3710  142.5250 C   0  0  0  0  0  2  0  0  0  0  0  0
  187.1090  177.6530  143.3190 C   0  0  0  0  0  2  0  0  0  0  0  0
  185.9930  176.7910  143.9060 C   0  0  0  0  0  2  0  0  0  0  0  0
  185.9660  178.8900  145.2390 C   0  0  0  0  0  2  0  0  0  0  0  0
  185.2710  177.5410  145.0110 C   0  0  0  0  0  3  0  0  0  0  0  0
  185.7010  179.4160  146.6460 C   0  0  0  0  0  2  0  0  0  0  0  0
  186.2580  178.4650  147.7130 C   0  0  0  0  0  2  0  0  0  0  0  0
  186.3100  176.9980  147.2630 C   0  0  0  0  0  2  0  0  0  0  0  0
  185.1820  176.6790  146.2850 C   0  0  0  0  0  2  0  0  0  0  0  0
  1  6  1  6  0  0  0
  2 11  1  0  0  0  0
  3  7  1  1  0  0  0
  3 11  1  0  0  0  0
  3  8  1  0  0  0  0
  4 13  1  0  0  0  0
  5 17  1  0  0  0  0
  5  7  1  0  0  0  0
  6 21  1  0  0  0  0
  8 19  1  1  0  0  0
  9 15  2  0  0  0  0
 10  8  1  0  0  0  0
 10 19  1  1  0  0  0
 12  1  1  0  0  0  0
 12 20  1  0  0  0  0
 13 18  2  0  0  0  0
 13  1  1  0  0  0  0
 14 12  2  0  0  0  0
 15 20  1  0  0  0  0
 15 17  1  0  0  0  0
 16  4  2  0  0  0  0
 16 14  1  0  0  0  0
 17 22  1  1  0  0  0
 17 10  1  0  0  0  0
 21  2  1  0  0  0  0
 22 23  1  0  0  0  0
 23 25  1  0  0  0  0
 24 26  1  0  0  0  0
 25 24  1  0  0  0  0
 25 29  1  0  0  0  0
 26 27  1  0  0  0  0
 28 27  1  0  0  0  0
 29 28  1  0  0  0  0
M  END
>  <MODEL>
6

>  <REMARK>
 VINA RESULT:      -7.9      2.958      7.416
  Name = 
  3 active torsions:
  status: ('A' for Active; 'I' for Inactive)
    1  A    between atoms: C_7  and  C_11
    2  A    between atoms: C_11  and  C_28
    3  A    between atoms: C_23  and  C_28
                            x       y       z     vdW  Elec       q    Type
                         _______ _______ _______ _____ _____    ______ ____

>  <TORSDO>
F 3

$$$$
=
 OpenBabel11062422423D

 29 33  0  0  1  0  0  0  0  0999 V2000
  191.6750  175.1830  143.4550 C   0  0  1  0  0  3  0  0  0  0  0  0
  190.2240  174.2160  140.8140 C   0  0  0  0  0  2  0  0  0  0  0  0
  188.2740  175.3400  141.7520 N   0  0  2  0  0  0  0  0  0  0  0  0
  193.1540  175.2120  145.5350 N   0  0  0  0  0  0  0  0  0  0  0  0
  186.6630  176.0410  143.4740 C   0  0  0  0  0  2  0  0  0  0  0  0
  190.7420  173.9860  143.2900 C   0  0  0  0  0  2  0  0  0  0  0  0
  187.0630  174.9520  142.4700 C   0  0  0  0  0  2  0  0  0  0  0  0
  188.1110  176.5450  140.9100 C   0  0  2  0  0  3  0  0  0  0  0  0
  188.6690  177.9160  145.2130 O   0  0  0  0  0  0  0  0  0  0  0  0
  187.6540  177.7410  141.7550 C   0  0  2  0  0  3  0  0  0  0  0  0
  188.7010  174.2330  140.9100 C   0  0  0  0  0  2  0  0  0  0  0  0
  190.9210  176.2830  144.1600 C   0  0  0  0  0  0  0  0  0  0  0  0
  192.9210  174.7700  144.1930 C   0  0  0  0  0  0  0  0  0  0  0  0
  191.2300  176.6610  145.4070 C   0  0  0  0  0  3  0  0  0  0  0  0
  188.6330  177.4550  144.0390 C   0  0  0  0  0  0  0  0  0  0  0  0
  192.3810  176.0780  146.1140 C   0  0  0  0  0  3  0  0  0  0  0  0
  187.3360  177.4230  143.2480 C   0  0  2  0  0  0  0  0  0  0  0  0
  193.7570  174.0140  143.6330 O   0  0  0  0  0  0  0  0  0  0  0  0
  186.6860  177.0920  140.7750 C   0  0  0  0  0  2  0  0  0  0  0  0
  189.7930  176.8320  143.4750 N   0  0  0  0  0  2  0  0  0  0  0  0
  190.8620  173.3580  141.9060 C   0  0  0  0  0  2  0  0  0  0  0  0
  186.3780  178.5350  143.7130 C   0  0  0  0  0  2  0  0  0  0  0  0
  185.0000  178.0350  144.1400 C   0  0  0  0  0  2  0  0  0  0  0  0
  185.7360  179.4490  146.0480 C   0  0  0  0  0  2  0  0  0  0  0  0
  184.7440  178.3680  145.5990 C   0  0  0  0  0  3  0  0  0  0  0  0
  185.9410  179.4160  147.5590 C   0  0  0  0  0  2  0  0  0  0  0  0
  186.5380  178.0770  148.0130 C   0  0  0  0  0  2  0  0  0  0  0  0
  186.1740  176.9000  147.0980 C   0  0  0  0  0  2  0  0  0  0  0  0
  184.7980  177.0960  146.4650 C   0  0  0  0  0  2  0  0  0  0  0  0
  1  6  1  1  0  0  0
  1 12  1  0  0  0  0
  1 13  1  0  0  0  0
  2 11  1  0  0  0  0
  2 21  1  0  0  0  0
  3 11  1  6  0  0  0
  3  7  1  0  0  0  0
  4 16  2  0  0  0  0
  7  5  1  0  0  0  0
  8 19  1  6  0  0  0
  8  3  1  0  0  0  0
  8 10  1  0  0  0  0
 10 19  1  6  0  0  0
 10 17  1  0  0  0  0
 12 14  2  0  0  0  0
 13  4  1  0  0  0  0
 14 16  1  0  0  0  0
 15  9  2  0  0  0  0
 17  5  1  0  0  0  0
 17 22  1  1  0  0  0
 17 15  1  0  0  0  0
 18 13  2  0  0  0  0
 20 15  1  0  0  0  0
 20 12  1  0  0  0  0
 21  6  1  0  0  0  0
 22 23  1  0  0  0  0
 23 25  1  0  0  0  0
 24 26  1  0  0  0  0
 25 24  1  0  0  0  0
 25 29  1  0  0  0  0
 26 27  1  0  0  0  0
 28 27  1  0  0  0  0
 29 28  1  0  0  0  0
M  END
>  <MODEL>
7

>  <REMARK>
 VINA RESULT:      -7.8      2.293      6.855
  Name = 
  3 active torsions:
  status: ('A' for Active; 'I' for Inactive)
    1  A    between atoms: C_7  and  C_11
    2  A    between atoms: C_11  and  C_28
    3  A    between atoms: C_23  and  C_28
                            x       y       z     vdW  Elec       q    Type
                         _______ _______ _______ _____ _____    ______ ____

>  <TORSDO>
F 3

$$$$
=
 OpenBabel11062422423D

 29 33  0  0  1  0  0  0  0  0999 V2000
  191.6410  172.4660  143.3570 C   0  0  1  0  0  3  0  0  0  0  0  0
  193.5080  173.4130  145.7310 C   0  0  0  0  0  2  0  0  0  0  0  0
  192.1170  175.4150  145.7180 N   0  0  2  0  0  0  0  0  0  0  0  0
  190.8520  171.4540  141.1520 N   0  0  0  0  0  0  0  0  0  0  0  0
  190.8340  177.2860  144.7660 C   0  0  0  0  0  2  0  0  0  0  0  0
  192.8150  173.4410  143.2880 C   0  0  0  0  0  2  0  0  0  0  0  0
  192.2150  176.7770  145.1980 C   0  0  0  0  0  2  0  0  0  0  0  0
  191.3050  175.3010  146.9480 C   0  0  2  0  0  3  0  0  0  0  0  0
  188.4530  175.5370  143.4110 O   0  0  0  0  0  0  0  0  0  0  0  0
  189.8820  175.8230  146.7120 C   0  0  2  0  0  3  0  0  0  0  0  0
  193.4560  174.9160  145.9900 C   0  0  0  0  0  2  0  0  0  0  0  0
  190.3580  173.2580  143.2790 C   0  0  0  0  0  0  0  0  0  0  0  0
  191.7560  171.4390  142.2630 C   0  0  0  0  0  0  0  0  0  0  0  0
  189.5500  173.1840  142.2140 C   0  0  0  0  0  3  0  0  0  0  0  0
  189.3110  175.3660  144.3190 C   0  0  0  0  0  0  0  0  0  0  0  0
  189.8340  172.2570  141.1080 C   0  0  0  0  0  3  0  0  0  0  0  0
  189.6300  176.4700  145.3140 C   0  0  2  0  0  0  0  0  0  0  0  0
  192.6650  170.5700  142.3140 O   0  0  0  0  0  0  0  0  0  0  0  0
  190.8450  176.6170  147.5840 C   0  0  0  0  0  2  0  0  0  0  0  0
  190.0980  174.1700  144.3490 N   0  0  0  0  0  2  0  0  0  0  0  0
  193.9060  173.0890  144.2920 C   0  0  0  0  0  2  0  0  0  0  0  0
  188.4250  177.4080  145.5030 C   0  0  0  0  0  2  0  0  0  0  0  0
  187.3060  176.8230  146.3610 C   0  0  0  0  0  2  0  0  0  0  0  0
  186.1200  177.7500  144.3820 C   0  0  0  0  0  2  0  0  0  0  0  0
  185.9980  176.8090  145.5880 C   0  0  0  0  0  3  0  0  0  0  0  0
  184.7490  178.2350  143.9210 C   0  0  0  0  0  2  0  0  0  0  0  0
  184.0430  179.0420  145.0190 C   0  0  0  0  0  2  0  0  0  0  0  0
  184.4570  178.6380  146.4410 C   0  0  0  0  0  2  0  0  0  0  0  0
  184.8160  177.1560  146.5130 C   0  0  0  0  0  2  0  0  0  0  0  0
  1  6  1  6  0  0  0
  2 11  1  0  0  0  0
  3  7  1  1  0  0  0
  3 11  1  0  0  0  0
  3  8  1  0  0  0  0
  4 13  1  0  0  0  0
  5  7  1  0  0  0  0
  5 17  1  0  0  0  0
  6 21  1  0  0  0  0
  8 19  1  1  0  0  0
  9 15  2  0  0  0  0
 10  8  1  0  0  0  0
 10 19  1  1  0  0  0
 12  1  1  0  0  0  0
 12 20  1  0  0  0  0
 13 18  2  0  0  0  0
 13  1  1  0  0  0  0
 14 12  2  0  0  0  0
 15 20  1  0  0  0  0
 15 17  1  0  0  0  0
 16  4  2  0  0  0  0
 16 14  1  0  0  0  0
 17 22  1  1  0  0  0
 17 10  1  0  0  0  0
 21  2  1  0  0  0  0
 22 23  1  0  0  0  0
 24 25  1  0  0  0  0
 25 23  1  0  0  0  0
 25 29  1  0  0  0  0
 26 24  1  0  0  0  0
 26 27  1  0  0  0  0
 27 28  1  0  0  0  0
 28 29  1  0  0  0  0
M  END
>  <MODEL>
8

>  <REMARK>
 VINA RESULT:      -7.7      2.726      7.670
  Name = 
  3 active torsions:
  status: ('A' for Active; 'I' for Inactive)
    1  A    between atoms: C_7  and  C_11
    2  A    between atoms: C_11  and  C_28
    3  A    between atoms: C_23  and  C_28
                            x       y       z     vdW  Elec       q    Type
                         _______ _______ _______ _____ _____    ______ ____

>  <TORSDO>
F 3

$$$$
=
 OpenBabel11062422423D

 29 33  0  0  1  0  0  0  0  0999 V2000
  193.9530  175.5130  142.6560 C   0  0  1  0  0  3  0  0  0  0  0  0
  192.1030  173.8630  140.6890 C   0  0  0  0  0  2  0  0  0  0  0  0
  190.4330  174.0780  142.4530 N   0  0  2  0  0  0  0  0  0  0  0  0
  195.9890  176.3000  143.9780 N   0  0  0  0  0  0  0  0  0  0  0  0
  189.5340  174.1040  144.7430 C   0  0  0  0  0  2  0  0  0  0  0  0
  193.6300  174.0210  142.7130 C   0  0  0  0  0  2  0  0  0  0  0  0
  189.9050  173.2430  143.5290 C   0  0  0  0  0  2  0  0  0  0  0  0
  189.4520  175.0420  141.9080 C   0  0  2  0  0  3  0  0  0  0  0  0
  191.0870  176.7600  145.7910 O   0  0  0  0  0  0  0  0  0  0  0  0
  188.9250  175.9660  143.0130 C   0  0  2  0  0  3  0  0  0  0  0  0
  190.8990  173.2210  141.3740 C   0  0  0  0  0  2  0  0  0  0  0  0
  193.1680  176.2140  143.7380 C   0  0  0  0  0  0  0  0  0  0  0  0
  195.4380  175.7250  142.7880 C   0  0  0  0  0  0  0  0  0  0  0  0
  193.7700  176.7580  144.8030 C   0  0  0  0  0  3  0  0  0  0  0  0
  190.7720  176.2650  144.6750 C   0  0  0  0  0  0  0  0  0  0  0  0
  195.2360  176.7740  144.9220 C   0  0  0  0  0  3  0  0  0  0  0  0
  189.4100  175.6270  144.4570 C   0  0  2  0  0  0  0  0  0  0  0  0
  196.2040  175.3780  141.8520 O   0  0  0  0  0  0  0  0  0  0  0  0
  188.0120  174.9060  142.4130 C   0  0  0  0  0  2  0  0  0  0  0  0
  191.7440  176.1770  143.6260 N   0  0  0  0  0  2  0  0  0  0  0  0
  193.4250  173.4310  141.3230 C   0  0  0  0  0  2  0  0  0  0  0  0
  188.3580  176.2350  145.4000 C   0  0  0  0  0  2  0  0  0  0  0  0
  187.8810  177.6270  144.9910 C   0  0  0  0  0  2  0  0  0  0  0  0
  185.8960  179.0360  144.4810 C   0  0  0  0  0  2  0  0  0  0  0  0
  186.4060  177.5960  144.6290 C   0  0  0  0  0  3  0  0  0  0  0  0
  184.3880  179.1120  144.7010 C   0  0  0  0  0  2  0  0  0  0  0  0
  184.0070  178.6700  146.1200 C   0  0  0  0  0  2  0  0  0  0  0  0
  184.9860  177.6600  146.7330 C   0  0  0  0  0  2  0  0  0  0  0  0
  185.6110  176.7720  145.6590 C   0  0  0  0  0  2  0  0  0  0  0  0
  1  6  1  1  0  0  0
  1 13  1  0  0  0  0
  1 12  1  0  0  0  0
  2 21  1  0  0  0  0
  2 11  1  0  0  0  0
  3 11  1  6  0  0  0
  3  7  1  0  0  0  0
  4 16  2  0  0  0  0
  7  5  1  0  0  0  0
  8 19  1  1  0  0  0
  8  3  1  0  0  0  0
  8 10  1  0  0  0  0
 10 19  1  1  0  0  0
 10 17  1  0  0  0  0
 12 14  2  0  0  0  0
 13  4  1  0  0  0  0
 14 16  1  0  0  0  0
 15  9  2  0  0  0  0
 17 15  1  0  0  0  0
 17  5  1  0  0  0  0
 17 22  1  1  0  0  0
 18 13  2  0  0  0  0
 20 12  1  0  0  0  0
 20 15  1  0  0  0  0
 21  6  1  0  0  0  0
 23 22  1  0  0  0  0
 24 25  1  0  0  0  0
 24 26  1  0  0  0  0
 25 23  1  0  0  0  0
 25 29  1  0  0  0  0
 26 27  1  0  0  0  0
 27 28  1  0  0  0  0
 29 28  1  0  0  0  0
M  END
>  <MODEL>
9

>  <REMARK>
 VINA RESULT:      -7.6      2.953      7.704
  Name = 
  3 active torsions:
  status: ('A' for Active; 'I' for Inactive)
    1  A    between atoms: C_7  and  C_11
    2  A    between atoms: C_11  and  C_28
    3  A    between atoms: C_23  and  C_28
                            x       y       z     vdW  Elec       q    Type
                         _______ _______ _______ _____ _____    ______ ____

>  <TORSDO>
F 3

$$$$
