=
 OpenBabel11062421443D

 41 47  0  0  1  0  0  0  0  0999 V2000
  194.0180  171.5000  144.7770 C   0  0  0  0  0  3  0  0  0  0  0  0
  191.5600  170.8710  143.1300 C   0  0  0  0  0  2  0  0  0  0  0  0
  192.8680  172.3950  144.5940 C   0  0  0  0  0  0  0  0  0  0  0  0
  191.5380  175.9360  146.2070 C   0  0  0  0  0  0  0  0  0  0  0  0
  190.8670  173.0700  143.9700 N   0  0  0  0  0  0  0  0  0  0  0  0
  192.6330  173.5840  145.2390 C   0  0  0  0  0  0  0  0  0  0  0  0
  189.2210  177.0810  145.0420 C   0  0  1  0  0  3  0  0  0  0  0  0
  191.0020  177.1320  146.6930 O   0  0  0  0  0  0  0  0  0  0  0  0
  191.3890  173.9810  144.8160 C   0  0  0  0  0  0  0  0  0  0  0  0
  191.7820  172.1160  143.8420 N   0  0  0  0  0  0  0  0  0  0  0  0
  192.6620  170.6380  142.1510 C   0  0  0  0  0  3  0  0  0  0  0  0
  194.4910  170.6390  143.8600 C   0  0  0  0  0  0  0  0  0  0  0  0
  193.3840  174.3230  146.1480 C   0  0  0  0  0  3  0  0  0  0  0  0
  189.6440  177.5010  146.4500 C   0  0  0  0  0  2  0  0  0  0  0  0
  193.9660  170.5320  142.4570 C   0  0  0  0  0  0  0  0  0  0  0  0
  192.8200  175.5190  146.6310 C   0  0  0  0  0  3  0  0  0  0  0  0
  189.4280  175.5760  144.8490 C   0  0  0  0  0  2  0  0  0  0  0  0
  190.8060  175.1610  145.2740 C   0  0  0  0  0  0  0  0  0  0  0  0
  187.7270  177.3760  142.3200 C   0  0  0  0  0  3  0  0  0  0  0  0
  187.1390  177.9050  147.1960 C   0  0  0  0  0  2  0  0  0  0  0  0
  185.7050  178.1090  145.1310 C   0  0  0  0  0  0  0  0  0  0  0  0
  184.6460  178.2310  147.3570 C   0  0  0  0  0  3  0  0  0  0  0  0
  185.8200  177.9070  147.9410 C   0  0  0  0  0  3  0  0  0  0  0  0
  187.8310  177.4490  144.7860 N   0  0  0  0  0  0  0  0  0  0  0  0
  186.8800  177.5980  141.2200 C   0  0  0  0  0  3  0  0  0  0  0  0
  185.8970  177.9870  143.7740 C   0  0  0  0  0  0  0  0  0  0  0  0
  184.5290  178.6240  145.8980 C   0  0  0  0  0  2  0  0  0  0  0  0
  185.5390  178.0190  141.4050 C   0  0  0  0  0  0  0  0  0  0  0  0
  186.9090  177.7760  145.7200 C   0  0  0  0  0  0  0  0  0  0  0  0
  187.2000  177.5770  143.5950 C   0  0  0  0  0  0  0  0  0  0  0  0
  185.0390  178.2220  142.7040 C   0  0  0  0  0  3  0  0  0  0  0  0
  184.6730  178.2450  140.2890 N   0  0  0  0  0  2  0  0  0  0  0  0
  182.1200  178.1540  140.4630 N   0  0  0  0  0  0  0  0  0  0  0  0
  183.2740  178.1950  140.3840 C   0  0  0  0  0  0  0  0  0  0  0  0
  195.8880  171.2940  140.8880 C   0  0  0  0  0  1  0  0  0  0  0  0
  194.8290  169.1930  140.6850 O   0  0  0  0  0  0  0  0  0  0  0  0
  194.8940  170.2760  141.3270 C   0  0  0  0  0  0  0  0  0  0  0  0
  195.5960  169.7120  144.2850 C   0  0  0  0  0  2  0  0  0  0  0  0
  196.7730  170.4380  144.8560 C   0  0  0  0  0  0  0  0  0  0  0  0
  197.1290  170.2360  146.0460 O   0  0  0  0  0  1  0  0  0  0  0  0
  197.4940  171.3190  144.0600 O   0  0  0  0  0  0  0  0  0  0  0  0
  2 10  1  0  0  0  0
  3  1  1  0  0  0  0
  3  6  2  0  0  0  0
  4 16  1  0  0  0  0
  4  8  1  0  0  0  0
  5  9  2  0  0  0  0
  6 13  1  0  0  0  0
  7 24  1  1  0  0  0
  7 14  1  0  0  0  0
  9  6  1  0  0  0  0
  9 18  1  0  0  0  0
 10  5  1  0  0  0  0
 10  3  1  0  0  0  0
 11 15  2  0  0  0  0
 11  2  1  0  0  0  0
 12 38  1  0  0  0  0
 12  1  2  0  0  0  0
 13 16  2  0  0  0  0
 14  8  1  0  0  0  0
 15 12  1  0  0  0  0
 17  7  1  0  0  0  0
 17 18  1  0  0  0  0
 18  4  2  0  0  0  0
 19 30  1  0  0  0  0
 20 23  1  0  0  0  0
 21 29  2  0  0  0  0
 21 27  1  0  0  0  0
 22 23  2  0  0  0  0
 24 29  1  0  0  0  0
 25 28  1  0  0  0  0
 25 19  2  0  0  0  0
 26 21  1  0  0  0  0
 27 22  1  0  0  0  0
 28 31  2  0  0  0  0
 29 20  1  0  0  0  0
 30 26  2  0  0  0  0
 30 24  1  0  0  0  0
 31 26  1  0  0  0  0
 32 34  1  0  0  0  0
 32 28  1  0  0  0  0
 34 33  3  0  0  0  0
 35 37  1  0  0  0  0
 36 37  2  0  0  0  0
 37 15  1  0  0  0  0
 38 39  1  0  0  0  0
 39 40  1  0  0  0  0
 41 39  2  0  0  0  0
M  END
>  <MODEL>
1

>  <REMARK>
 VINA RESULT:      -8.6      0.000      0.000
  Name = 
  6 active torsions:
  status: ('A' for Active; 'I' for Inactive)
    1  A    between atoms: N_11  and  C_19
    2  A    between atoms: N_15  and  C_23
    3  A    between atoms: N_15  and  C_41
    4  A    between atoms: C_20  and  C_25
    5  A    between atoms: C_20  and  C_30
    6  A    between atoms: C_22  and  C_34
                            x       y       z     vdW  Elec       q    Type
                         _______ _______ _______ _____ _____    ______ ____

>  <TORSDO>
F 6

$$$$
=
 OpenBabel11062421443D

 41 47  0  0  1  0  0  0  0  0999 V2000
  195.3690  173.6160  143.2610 C   0  0  0  0  0  3  0  0  0  0  0  0
  193.2690  173.5150  141.0870 C   0  0  0  0  0  2  0  0  0  0  0  0
  194.0670  174.2940  143.3080 C   0  0  0  0  0  0  0  0  0  0  0  0
  191.8360  176.3100  146.1130 C   0  0  0  0  0  0  0  0  0  0  0  0
  192.0260  174.8680  142.7130 N   0  0  0  0  0  0  0  0  0  0  0  0
  193.5140  174.9520  144.3790 C   0  0  0  0  0  0  0  0  0  0  0  0
  189.4290  177.5060  145.2120 C   0  0  1  0  0  3  0  0  0  0  0  0
  191.0040  177.0070  146.9930 O   0  0  0  0  0  0  0  0  0  0  0  0
  192.2540  175.3080  143.9670 C   0  0  0  0  0  0  0  0  0  0  0  0
  193.1410  174.2600  142.3260 N   0  0  0  0  0  0  0  0  0  0  0  0
  194.4750  173.9730  140.3370 C   0  0  0  0  0  3  0  0  0  0  0  0
  196.1030  173.4100  142.1530 C   0  0  0  0  0  0  0  0  0  0  0  0
  193.9970  175.2480  145.6500 C   0  0  0  0  0  3  0  0  0  0  0  0
  189.6230  177.2320  146.7030 C   0  0  0  0  0  2  0  0  0  0  0  0
  195.7380  173.9330  140.7940 C   0  0  0  0  0  0  0  0  0  0  0  0
  193.1380  175.9420  146.5220 C   0  0  0  0  0  3  0  0  0  0  0  0
  189.9870  176.3490  144.3790 C   0  0  0  0  0  2  0  0  0  0  0  0
  191.3820  175.9980  144.8080 C   0  0  0  0  0  0  0  0  0  0  0  0
  188.0190  177.6950  142.4360 C   0  0  0  0  0  3  0  0  0  0  0  0
  187.1900  178.0670  147.2910 C   0  0  0  0  0  2  0  0  0  0  0  0
  185.8230  178.1600  145.1730 C   0  0  0  0  0  0  0  0  0  0  0  0
  184.6710  178.1280  147.3560 C   0  0  0  0  0  3  0  0  0  0  0  0
  185.8490  177.9180  147.9810 C   0  0  0  0  0  3  0  0  0  0  0  0
  188.0190  177.7320  144.9040 N   0  0  0  0  0  0  0  0  0  0  0  0
  187.1970  177.8480  141.3060 C   0  0  0  0  0  3  0  0  0  0  0  0
  186.0800  178.0840  143.8230 C   0  0  0  0  0  0  0  0  0  0  0  0
  184.5710  178.5340  145.8990 C   0  0  0  0  0  2  0  0  0  0  0  0
  185.8130  178.1230  141.4420 C   0  0  0  0  0  0  0  0  0  0  0  0
  187.0320  177.9430  145.8050 C   0  0  0  0  0  0  0  0  0  0  0  0
  187.4240  177.8160  143.6910 C   0  0  0  0  0  0  0  0  0  0  0  0
  185.2440  178.2490  142.7220 C   0  0  0  0  0  3  0  0  0  0  0  0
  184.9730  178.2790  140.2950 N   0  0  0  0  0  2  0  0  0  0  0  0
  182.4190  178.1310  140.4070 N   0  0  0  0  0  0  0  0  0  0  0  0
  183.5730  178.1990  140.3560 C   0  0  0  0  0  0  0  0  0  0  0  0
  197.5610  175.6660  140.1490 C   0  0  0  0  0  1  0  0  0  0  0  0
  197.0350  173.8000  138.7990 O   0  0  0  0  0  0  0  0  0  0  0  0
  196.7930  174.4200  139.8710 C   0  0  0  0  0  0  0  0  0  0  0  0
  197.3480  172.5790  142.2920 C   0  0  0  0  0  2  0  0  0  0  0  0
  197.1800  171.1910  141.7590 C   0  0  0  0  0  0  0  0  0  0  0  0
  197.9350  170.7630  140.8490 O   0  0  0  0  0  0  0  0  0  0  0  0
  196.2030  170.3600  142.2930 O   0  0  0  0  0  1  0  0  0  0  0  0
  1  3  1  0  0  0  0
  2 10  1  0  0  0  0
  3  6  2  0  0  0  0
  4 16  1  0  0  0  0
  4  8  1  0  0  0  0
  5  9  2  0  0  0  0
  6 13  1  0  0  0  0
  7 17  1  6  0  0  0
  7 14  1  0  0  0  0
  9  6  1  0  0  0  0
  9 18  1  0  0  0  0
 10  5  1  0  0  0  0
 10  3  1  0  0  0  0
 11 15  2  0  0  0  0
 11  2  1  0  0  0  0
 12 38  1  0  0  0  0
 12  1  2  0  0  0  0
 13 16  2  0  0  0  0
 14  8  1  0  0  0  0
 15 12  1  0  0  0  0
 17 18  1  0  0  0  0
 18  4  2  0  0  0  0
 19 30  1  0  0  0  0
 20 23  1  0  0  0  0
 21 29  2  0  0  0  0
 21 27  1  0  0  0  0
 22 23  2  0  0  0  0
 24  7  1  0  0  0  0
 24 29  1  0  0  0  0
 25 28  1  0  0  0  0
 25 19  2  0  0  0  0
 26 21  1  0  0  0  0
 27 22  1  0  0  0  0
 28 31  2  0  0  0  0
 29 20  1  0  0  0  0
 30 26  2  0  0  0  0
 30 24  1  0  0  0  0
 31 26  1  0  0  0  0
 32 34  1  0  0  0  0
 32 28  1  0  0  0  0
 34 33  3  0  0  0  0
 36 37  2  0  0  0  0
 37 35  1  0  0  0  0
 37 15  1  0  0  0  0
 39 38  1  0  0  0  0
 39 41  1  0  0  0  0
 40 39  2  0  0  0  0
M  END
>  <MODEL>
2

>  <REMARK>
 VINA RESULT:      -8.4      1.996      2.417
  Name = 
  6 active torsions:
  status: ('A' for Active; 'I' for Inactive)
    1  A    between atoms: N_11  and  C_19
    2  A    between atoms: N_15  and  C_23
    3  A    between atoms: N_15  and  C_41
    4  A    between atoms: C_20  and  C_25
    5  A    between atoms: C_20  and  C_30
    6  A    between atoms: C_22  and  C_34
                            x       y       z     vdW  Elec       q    Type
                         _______ _______ _______ _____ _____    ______ ____

>  <TORSDO>
F 6

$$$$
=
 OpenBabel11062421443D

 41 47  0  0  1  0  0  0  0  0999 V2000
  187.5190  178.2570  144.7760 C   0  0  0  0  0  3  0  0  0  0  0  0
  188.8390  178.5510  142.0710 C   0  0  0  0  0  2  0  0  0  0  0  0
  188.7020  177.5140  144.3250 C   0  0  0  0  0  0  0  0  0  0  0  0
  191.4960  175.0140  146.0150 C   0  0  0  0  0  0  0  0  0  0  0  0
  190.3930  176.9220  143.0460 N   0  0  0  0  0  0  0  0  0  0  0  0
  189.4960  176.6850  145.0790 C   0  0  0  0  0  0  0  0  0  0  0  0
  193.3800  173.8310  144.2590 C   0  0  1  0  0  3  0  0  0  0  0  0
  192.4920  174.1590  146.4950 O   0  0  0  0  0  0  0  0  0  0  0  0
  190.5270  176.3250  144.2470 C   0  0  0  0  0  0  0  0  0  0  0  0
  189.2750  177.6350  143.1090 N   0  0  0  0  0  0  0  0  0  0  0  0
  187.4220  178.2650  141.7000 C   0  0  0  0  0  3  0  0  0  0  0  0
  186.5000  178.6540  143.9940 C   0  0  0  0  0  0  0  0  0  0  0  0
  189.4070  176.2410  146.3940 C   0  0  0  0  0  3  0  0  0  0  0  0
  193.6860  173.9050  145.7550 C   0  0  0  0  0  2  0  0  0  0  0  0
  186.3740  178.3060  142.5380 C   0  0  0  0  0  0  0  0  0  0  0  0
  190.4260  175.3880  146.8590 C   0  0  0  0  0  3  0  0  0  0  0  0
  192.7020  175.1200  143.7870 C   0  0  0  0  0  2  0  0  0  0  0  0
  191.5490  175.4810  144.6780 C   0  0  0  0  0  0  0  0  0  0  0  0
  194.2660  171.2410  142.7630 C   0  0  0  0  0  3  0  0  0  0  0  0
  195.7550  175.8070  143.9210 C   0  0  0  0  0  2  0  0  0  0  0  0
  196.6310  173.8680  142.5660 C   0  0  0  0  0  0  0  0  0  0  0  0
  197.8020  176.0390  142.4700 C   0  0  0  0  0  3  0  0  0  0  0  0
  196.8180  176.6090  143.1990 C   0  0  0  0  0  3  0  0  0  0  0  0
  194.5980  173.5770  143.4920 N   0  0  0  0  0  0  0  0  0  0  0  0
  194.8700  170.1830  142.0620 C   0  0  0  0  0  3  0  0  0  0  0  0
  196.2130  172.5880  142.2810 C   0  0  0  0  0  0  0  0  0  0  0  0
  197.9400  174.5390  142.2990 C   0  0  0  0  0  2  0  0  0  0  0  0
  196.1510  170.3330  141.4730 C   0  0  0  0  0  0  0  0  0  0  0  0
  195.6200  174.4440  143.3110 C   0  0  0  0  0  0  0  0  0  0  0  0
  194.9680  172.4420  142.8520 C   0  0  0  0  0  0  0  0  0  0  0  0
  196.8380  171.5550  141.5880 C   0  0  0  0  0  3  0  0  0  0  0  0
  196.7680  169.2590  140.7580 N   0  0  0  0  0  2  0  0  0  0  0  0
  197.7200  169.5210  138.3960 N   0  0  0  0  0  0  0  0  0  0  0  0
  197.2890  169.4030  139.4640 C   0  0  0  0  0  0  0  0  0  0  0  0
  184.7380  178.2910  140.5220 C   0  0  0  0  0  1  0  0  0  0  0  0
  184.1200  177.5420  142.6750 O   0  0  0  0  0  0  0  0  0  0  0  0
  185.0430  178.0080  141.9520 C   0  0  0  0  0  0  0  0  0  0  0  0
  185.4420  179.5210  144.6190 C   0  0  0  0  0  2  0  0  0  0  0  0
  184.9680  178.9960  145.9370 C   0  0  0  0  0  0  0  0  0  0  0  0
  184.0400  178.1480  145.9870 O   0  0  0  0  0  0  0  0  0  0  0  0
  185.5770  179.4230  147.1110 O   0  0  0  0  0  1  0  0  0  0  0  0
  2 10  1  0  0  0  0
  3  1  1  0  0  0  0
  3  6  2  0  0  0  0
  4  8  1  0  0  0  0
  4 16  1  0  0  0  0
  5 10  1  0  0  0  0
  5  9  2  0  0  0  0
  6 13  1  0  0  0  0
  7 24  1  6  0  0  0
  7 14  1  0  0  0  0
  9 18  1  0  0  0  0
  9  6  1  0  0  0  0
 10  3  1  0  0  0  0
 11  2  1  0  0  0  0
 11 15  2  0  0  0  0
 12 38  1  0  0  0  0
 12  1  2  0  0  0  0
 13 16  2  0  0  0  0
 14  8  1  0  0  0  0
 15 12  1  0  0  0  0
 17  7  1  0  0  0  0
 17 18  1  0  0  0  0
 18  4  2  0  0  0  0
 19 30  1  0  0  0  0
 21 29  2  0  0  0  0
 22 23  2  0  0  0  0
 23 20  1  0  0  0  0
 25 19  2  0  0  0  0
 26 21  1  0  0  0  0
 26 30  2  0  0  0  0
 27 22  1  0  0  0  0
 27 21  1  0  0  0  0
 28 31  2  0  0  0  0
 28 25  1  0  0  0  0
 29 24  1  0  0  0  0
 29 20  1  0  0  0  0
 30 24  1  0  0  0  0
 31 26  1  0  0  0  0
 32 28  1  0  0  0  0
 33 34  3  0  0  0  0
 34 32  1  0  0  0  0
 35 37  1  0  0  0  0
 37 15  1  0  0  0  0
 37 36  2  0  0  0  0
 38 39  1  0  0  0  0
 39 40  2  0  0  0  0
 39 41  1  0  0  0  0
M  END
>  <MODEL>
3

>  <REMARK>
 VINA RESULT:      -7.8      3.324     10.653
  Name = 
  6 active torsions:
  status: ('A' for Active; 'I' for Inactive)
    1  A    between atoms: N_11  and  C_19
    2  A    between atoms: N_15  and  C_23
    3  A    between atoms: N_15  and  C_41
    4  A    between atoms: C_20  and  C_25
    5  A    between atoms: C_20  and  C_30
    6  A    between atoms: C_22  and  C_34
                            x       y       z     vdW  Elec       q    Type
                         _______ _______ _______ _____ _____    ______ ____

>  <TORSDO>
F 6

$$$$
=
 OpenBabel11062421443D

 41 47  0  0  1  0  0  0  0  0999 V2000
  187.3210  177.9140  144.6510 C   0  0  0  0  0  3  0  0  0  0  0  0
  188.1870  178.3210  141.7820 C   0  0  0  0  0  2  0  0  0  0  0  0
  188.2860  177.0740  143.9300 C   0  0  0  0  0  0  0  0  0  0  0  0
  190.9260  174.0630  144.8630 C   0  0  0  0  0  0  0  0  0  0  0  0
  189.6270  176.4070  142.3160 N   0  0  0  0  0  0  0  0  0  0  0  0
  189.0660  176.0720  144.4530 C   0  0  0  0  0  0  0  0  0  0  0  0
  192.2850  172.8390  142.6980 C   0  0  1  0  0  3  0  0  0  0  0  0
  191.8510  173.0380  145.0800 O   0  0  0  0  0  0  0  0  0  0  0  0
  189.8740  175.6720  143.4190 C   0  0  0  0  0  0  0  0  0  0  0  0
  188.6540  177.2500  142.6430 N   0  0  0  0  0  0  0  0  0  0  0  0
  186.7010  178.2640  141.6560 C   0  0  0  0  0  3  0  0  0  0  0  0
  186.2540  178.5220  144.1050 C   0  0  0  0  0  0  0  0  0  0  0  0
  189.1380  175.5050  145.7210 C   0  0  0  0  0  3  0  0  0  0  0  0
  192.8510  172.7110  144.1130 C   0  0  0  0  0  2  0  0  0  0  0  0
  185.8300  178.3530  142.6740 C   0  0  0  0  0  0  0  0  0  0  0  0
  190.0840  174.4810  145.9190 C   0  0  0  0  0  3  0  0  0  0  0  0
  191.7350  174.2480  142.4680 C   0  0  0  0  0  2  0  0  0  0  0  0
  190.8180  174.6590  143.5830 C   0  0  0  0  0  0  0  0  0  0  0  0
  194.7430  174.5150  141.7610 C   0  0  0  0  0  3  0  0  0  0  0  0
  192.3240  170.2900  140.9200 C   0  0  0  0  0  2  0  0  0  0  0  0
  194.4190  171.4160  140.0800 C   0  0  0  0  0  0  0  0  0  0  0  0
  193.9470  169.0870  139.4140 C   0  0  0  0  0  3  0  0  0  0  0  0
  192.8950  169.0520  140.2590 C   0  0  0  0  0  3  0  0  0  0  0  0
  193.3020  172.5110  141.7010 N   0  0  0  0  0  0  0  0  0  0  0  0
  195.8750  175.1070  141.1740 C   0  0  0  0  0  3  0  0  0  0  0  0
  195.0610  172.6130  140.3050 C   0  0  0  0  0  0  0  0  0  0  0  0
  194.6650  170.3690  139.0420 C   0  0  0  0  0  2  0  0  0  0  0  0
  196.5960  174.4470  140.1470 C   0  0  0  0  0  0  0  0  0  0  0  0
  193.3450  171.3880  140.9480 C   0  0  0  0  0  0  0  0  0  0  0  0
  194.3610  173.2540  141.3030 C   0  0  0  0  0  0  0  0  0  0  0  0
  196.1790  173.1790  139.7010 C   0  0  0  0  0  3  0  0  0  0  0  0
  197.7470  175.0460  139.5480 N   0  0  0  0  0  2  0  0  0  0  0  0
  197.9410  175.4840  137.0320 N   0  0  0  0  0  0  0  0  0  0  0  0
  197.8540  175.2860  138.1690 C   0  0  0  0  0  0  0  0  0  0  0  0
  183.9320  178.2950  140.9040 C   0  0  0  0  0  1  0  0  0  0  0  0
  183.5130  178.2910  143.2290 O   0  0  0  0  0  0  0  0  0  0  0  0
  184.3890  178.2970  142.3220 C   0  0  0  0  0  0  0  0  0  0  0  0
  185.4590  179.4490  144.9840 C   0  0  0  0  0  2  0  0  0  0  0  0
  185.2100  178.8820  146.3460 C   0  0  0  0  0  0  0  0  0  0  0  0
  185.7440  179.4030  147.3590 O   0  0  0  0  0  1  0  0  0  0  0  0
  184.3620  177.7920  146.4970 O   0  0  0  0  0  0  0  0  0  0  0  0
  2 10  1  0  0  0  0
  3  6  2  0  0  0  0
  3  1  1  0  0  0  0
  4  8  1  0  0  0  0
  4 16  1  0  0  0  0
  5 10  1  0  0  0  0
  5  9  2  0  0  0  0
  6 13  1  0  0  0  0
  7 24  1  6  0  0  0
  7 14  1  0  0  0  0
  9 18  1  0  0  0  0
  9  6  1  0  0  0  0
 10  3  1  0  0  0  0
 11  2  1  0  0  0  0
 11 15  2  0  0  0  0
 12  1  2  0  0  0  0
 12 38  1  0  0  0  0
 13 16  2  0  0  0  0
 14  8  1  0  0  0  0
 15 12  1  0  0  0  0
 17  7  1  0  0  0  0
 17 18  1  0  0  0  0
 18  4  2  0  0  0  0
 20 29  1  0  0  0  0
 21 26  1  0  0  0  0
 21 29  2  0  0  0  0
 22 23  2  0  0  0  0
 23 20  1  0  0  0  0
 25 19  2  0  0  0  0
 26 30  2  0  0  0  0
 27 22  1  0  0  0  0
 27 21  1  0  0  0  0
 28 25  1  0  0  0  0
 29 24  1  0  0  0  0
 30 24  1  0  0  0  0
 30 19  1  0  0  0  0
 31 28  2  0  0  0  0
 31 26  1  0  0  0  0
 32 28  1  0  0  0  0
 33 34  3  0  0  0  0
 34 32  1  0  0  0  0
 35 37  1  0  0  0  0
 37 15  1  0  0  0  0
 37 36  2  0  0  0  0
 38 39  1  0  0  0  0
 39 41  2  0  0  0  0
 39 40  1  0  0  0  0
M  END
>  <MODEL>
4

>  <REMARK>
 VINA RESULT:      -7.7      3.421     10.583
  Name = 
  6 active torsions:
  status: ('A' for Active; 'I' for Inactive)
    1  A    between atoms: N_11  and  C_19
    2  A    between atoms: N_15  and  C_23
    3  A    between atoms: N_15  and  C_41
    4  A    between atoms: C_20  and  C_25
    5  A    between atoms: C_20  and  C_30
    6  A    between atoms: C_22  and  C_34
                            x       y       z     vdW  Elec       q    Type
                         _______ _______ _______ _____ _____    ______ ____

>  <TORSDO>
F 6

$$$$
=
 OpenBabel11062421443D

 41 47  0  0  1  0  0  0  0  0999 V2000
  187.5690  178.2950  144.5820 C   0  0  0  0  0  3  0  0  0  0  0  0
  188.6760  178.2890  141.7680 C   0  0  0  0  0  2  0  0  0  0  0  0
  188.6530  177.4300  144.0990 C   0  0  0  0  0  0  0  0  0  0  0  0
  191.3890  174.8450  145.7550 C   0  0  0  0  0  0  0  0  0  0  0  0
  190.1840  176.6170  142.7420 N   0  0  0  0  0  0  0  0  0  0  0  0
  189.4450  176.5970  144.8510 C   0  0  0  0  0  0  0  0  0  0  0  0
  193.0300  173.3950  143.9550 C   0  0  1  0  0  3  0  0  0  0  0  0
  192.3570  173.9510  146.2220 O   0  0  0  0  0  0  0  0  0  0  0  0
  190.3740  176.0990  143.9720 C   0  0  0  0  0  0  0  0  0  0  0  0
  189.1300  177.4190  142.8360 N   0  0  0  0  0  0  0  0  0  0  0  0
  187.2160  178.0890  141.5310 C   0  0  0  0  0  3  0  0  0  0  0  0
  186.5200  178.7130  143.8530 C   0  0  0  0  0  0  0  0  0  0  0  0
  189.4340  176.2560  146.2000 C   0  0  0  0  0  3  0  0  0  0  0  0
  193.4640  173.5520  145.4130 C   0  0  0  0  0  2  0  0  0  0  0  0
  186.2470  178.2730  142.4430 C   0  0  0  0  0  0  0  0  0  0  0  0
  190.4240  175.3620  146.6490 C   0  0  0  0  0  3  0  0  0  0  0  0
  192.4100  174.6970  143.4390 C   0  0  0  0  0  2  0  0  0  0  0  0
  191.3650  175.2100  144.3870 C   0  0  0  0  0  0  0  0  0  0  0  0
  195.0030  175.1680  142.3140 C   0  0  0  0  0  3  0  0  0  0  0  0
  193.8600  170.4690  143.3210 C   0  0  0  0  0  2  0  0  0  0  0  0
  195.6250  171.6970  142.0020 C   0  0  0  0  0  0  0  0  0  0  0  0
  195.8350  169.2600  142.3280 C   0  0  0  0  0  3  0  0  0  0  0  0
  194.7800  169.2750  143.1710 C   0  0  0  0  0  3  0  0  0  0  0  0
  194.1570  172.9920  143.1180 N   0  0  0  0  0  0  0  0  0  0  0  0
  195.9700  175.7660  141.4860 C   0  0  0  0  0  3  0  0  0  0  0  0
  195.9080  173.0110  141.7080 C   0  0  0  0  0  0  0  0  0  0  0  0
  196.2060  170.4360  141.4480 C   0  0  0  0  0  2  0  0  0  0  0  0
  196.9030  174.9780  140.7670 C   0  0  0  0  0  0  0  0  0  0  0  0
  194.5460  171.7210  142.8640 C   0  0  0  0  0  0  0  0  0  0  0  0
  195.0020  173.7770  142.4070 C   0  0  0  0  0  0  0  0  0  0  0  0
  196.8700  173.5750  140.8750 C   0  0  0  0  0  3  0  0  0  0  0  0
  197.8880  175.5820  139.9240 N   0  0  0  0  0  2  0  0  0  0  0  0
  197.7880  175.4790  137.3670 N   0  0  0  0  0  0  0  0  0  0  0  0
  197.8330  175.5260  138.5230 C   0  0  0  0  0  0  0  0  0  0  0  0
  184.4270  178.3450  140.5930 C   0  0  0  0  0  1  0  0  0  0  0  0
  183.9850  177.6100  142.7940 O   0  0  0  0  0  0  0  0  0  0  0  0
  184.8540  178.0390  141.9870 C   0  0  0  0  0  0  0  0  0  0  0  0
  185.5840  179.7030  144.4890 C   0  0  0  0  0  2  0  0  0  0  0  0
  185.0350  179.2230  145.7950 C   0  0  0  0  0  0  0  0  0  0  0  0
  185.7050  179.3510  146.8530 O   0  0  0  0  0  1  0  0  0  0  0  0
  183.7660  178.6590  145.8460 O   0  0  0  0  0  0  0  0  0  0  0  0
  2 10  1  0  0  0  0
  3  1  1  0  0  0  0
  3  6  2  0  0  0  0
  4  8  1  0  0  0  0
  4 16  1  0  0  0  0
  5 10  1  0  0  0  0
  5  9  2  0  0  0  0
  6 13  1  0  0  0  0
  7 24  1  6  0  0  0
  7 14  1  0  0  0  0
  9 18  1  0  0  0  0
  9  6  1  0  0  0  0
 10  3  1  0  0  0  0
 11  2  1  0  0  0  0
 11 15  2  0  0  0  0
 12 38  1  0  0  0  0
 12  1  2  0  0  0  0
 13 16  2  0  0  0  0
 14  8  1  0  0  0  0
 15 12  1  0  0  0  0
 17  7  1  0  0  0  0
 17 18  1  0  0  0  0
 18  4  2  0  0  0  0
 19 30  1  0  0  0  0
 21 29  2  0  0  0  0
 22 23  2  0  0  0  0
 23 20  1  0  0  0  0
 25 19  2  0  0  0  0
 26 21  1  0  0  0  0
 26 30  2  0  0  0  0
 27 21  1  0  0  0  0
 27 22  1  0  0  0  0
 28 31  2  0  0  0  0
 28 25  1  0  0  0  0
 29 24  1  0  0  0  0
 29 20  1  0  0  0  0
 30 24  1  0  0  0  0
 31 26  1  0  0  0  0
 32 28  1  0  0  0  0
 33 34  3  0  0  0  0
 34 32  1  0  0  0  0
 35 37  1  0  0  0  0
 37 15  1  0  0  0  0
 37 36  2  0  0  0  0
 38 39  1  0  0  0  0
 39 41  2  0  0  0  0
 39 40  1  0  0  0  0
M  END
>  <MODEL>
5

>  <REMARK>
 VINA RESULT:      -7.7      3.410     10.491
  Name = 
  6 active torsions:
  status: ('A' for Active; 'I' for Inactive)
    1  A    between atoms: N_11  and  C_19
    2  A    between atoms: N_15  and  C_23
    3  A    between atoms: N_15  and  C_41
    4  A    between atoms: C_20  and  C_25
    5  A    between atoms: C_20  and  C_30
    6  A    between atoms: C_22  and  C_34
                            x       y       z     vdW  Elec       q    Type
                         _______ _______ _______ _____ _____    ______ ____

>  <TORSDO>
F 6

$$$$
=
 OpenBabel11062421443D

 41 47  0  0  1  0  0  0  0  0999 V2000
  187.3280  177.7880  144.9300 C   0  0  0  0  0  3  0  0  0  0  0  0
  187.9420  178.2910  142.0110 C   0  0  0  0  0  2  0  0  0  0  0  0
  188.1360  176.9130  144.0700 C   0  0  0  0  0  0  0  0  0  0  0  0
  190.5680  173.6360  144.5710 C   0  0  0  0  0  0  0  0  0  0  0  0
  189.2450  176.2320  142.2940 N   0  0  0  0  0  0  0  0  0  0  0  0
  188.8690  175.8180  144.4580 C   0  0  0  0  0  0  0  0  0  0  0  0
  191.5910  172.4320  142.2170 C   0  0  1  0  0  3  0  0  0  0  0  0
  191.4130  172.5230  144.6380 O   0  0  0  0  0  0  0  0  0  0  0  0
  189.5320  175.4130  143.3270 C   0  0  0  0  0  0  0  0  0  0  0  0
  188.3910  177.1330  142.7630 N   0  0  0  0  0  0  0  0  0  0  0  0
  186.4520  178.3700  142.0370 C   0  0  0  0  0  3  0  0  0  0  0  0
  186.2720  178.5170  144.5290 C   0  0  0  0  0  0  0  0  0  0  0  0
  189.0130  175.1710  145.6820 C   0  0  0  0  0  3  0  0  0  0  0  0
  192.2780  172.1710  143.5580 C   0  0  0  0  0  2  0  0  0  0  0  0
  185.6960  178.4710  143.1420 C   0  0  0  0  0  0  0  0  0  0  0  0
  189.8760  174.0610  145.7270 C   0  0  0  0  0  3  0  0  0  0  0  0
  191.1520  173.8950  142.1170 C   0  0  0  0  0  2  0  0  0  0  0  0
  190.3900  174.3150  143.3410 C   0  0  0  0  0  0  0  0  0  0  0  0
  194.3200  173.6910  141.3820 C   0  0  0  0  0  3  0  0  0  0  0  0
  190.9970  170.2870  140.0470 C   0  0  0  0  0  2  0  0  0  0  0  0
  193.2540  171.0780  139.2450 C   0  0  0  0  0  0  0  0  0  0  0  0
  192.2540  169.0560  138.2440 C   0  0  0  0  0  3  0  0  0  0  0  0
  191.2540  169.0940  139.1500 C   0  0  0  0  0  3  0  0  0  0  0  0
  192.4710  172.0780  141.1050 N   0  0  0  0  0  0  0  0  0  0  0  0
  195.5310  174.1260  140.8150 C   0  0  0  0  0  3  0  0  0  0  0  0
  194.1530  172.0520  139.6140 C   0  0  0  0  0  0  0  0  0  0  0  0
  193.2220  170.2030  138.0330 C   0  0  0  0  0  2  0  0  0  0  0  0
  196.0470  173.5200  139.6420 C   0  0  0  0  0  0  0  0  0  0  0  0
  192.2350  171.1230  140.1760 C   0  0  0  0  0  0  0  0  0  0  0  0
  193.6520  172.6400  140.7540 C   0  0  0  0  0  0  0  0  0  0  0  0
  195.3440  172.4680  139.0270 C   0  0  0  0  0  3  0  0  0  0  0  0
  197.2790  173.9600  139.0630 N   0  0  0  0  0  2  0  0  0  0  0  0
  197.3890  175.6360  137.1300 N   0  0  0  0  0  0  0  0  0  0  0  0
  197.3400  174.8780  138.0040 C   0  0  0  0  0  0  0  0  0  0  0  0
  183.6070  178.2900  141.6120 C   0  0  0  0  0  1  0  0  0  0  0  0
  183.4750  178.9100  143.8870 O   0  0  0  0  0  0  0  0  0  0  0  0
  184.2290  178.5600  142.9380 C   0  0  0  0  0  0  0  0  0  0  0  0
  185.6560  179.4540  145.5310 C   0  0  0  0  0  2  0  0  0  0  0  0
  185.3550  178.7870  146.8370 C   0  0  0  0  0  0  0  0  0  0  0  0
  184.4260  177.9440  146.9210 O   0  0  0  0  0  0  0  0  0  0  0  0
  186.1260  179.0790  147.9550 O   0  0  0  0  0  1  0  0  0  0  0  0
  2 11  1  0  0  0  0
  2 10  1  0  0  0  0
  3  6  2  0  0  0  0
  3  1  1  0  0  0  0
  4  8  1  0  0  0  0
  4 16  1  0  0  0  0
  5 10  1  0  0  0  0
  5  9  2  0  0  0  0
  6 13  1  0  0  0  0
  7 24  1  6  0  0  0
  7 14  1  0  0  0  0
  9 18  1  0  0  0  0
  9  6  1  0  0  0  0
 10  3  1  0  0  0  0
 11 15  2  0  0  0  0
 12  1  2  0  0  0  0
 12 38  1  0  0  0  0
 13 16  2  0  0  0  0
 14  8  1  0  0  0  0
 15 12  1  0  0  0  0
 17  7  1  0  0  0  0
 17 18  1  0  0  0  0
 18  4  2  0  0  0  0
 20 29  1  0  0  0  0
 21 26  1  0  0  0  0
 21 29  2  0  0  0  0
 22 23  2  0  0  0  0
 23 20  1  0  0  0  0
 25 19  1  0  0  0  0
 26 30  1  0  0  0  0
 27 22  1  0  0  0  0
 27 21  1  0  0  0  0
 28 25  2  0  0  0  0
 29 24  1  0  0  0  0
 30 24  1  0  0  0  0
 30 19  2  0  0  0  0
 31 26  2  0  0  0  0
 31 28  1  0  0  0  0
 32 28  1  0  0  0  0
 33 34  3  0  0  0  0
 34 32  1  0  0  0  0
 35 37  1  0  0  0  0
 37 15  1  0  0  0  0
 37 36  2  0  0  0  0
 38 39  1  0  0  0  0
 39 40  2  0  0  0  0
 39 41  1  0  0  0  0
M  END
>  <MODEL>
6

>  <REMARK>
 VINA RESULT:      -7.7      3.478     10.553
  Name = 
  6 active torsions:
  status: ('A' for Active; 'I' for Inactive)
    1  A    between atoms: N_11  and  C_19
    2  A    between atoms: N_15  and  C_23
    3  A    between atoms: N_15  and  C_41
    4  A    between atoms: C_20  and  C_25
    5  A    between atoms: C_20  and  C_30
    6  A    between atoms: C_22  and  C_34
                            x       y       z     vdW  Elec       q    Type
                         _______ _______ _______ _____ _____    ______ ____

>  <TORSDO>
F 6

$$$$
=
 OpenBabel11062421443D

 41 47  0  0  1  0  0  0  0  0999 V2000
  187.2840  177.8550  144.8020 C   0  0  0  0  0  3  0  0  0  0  0  0
  187.9450  178.2060  141.8720 C   0  0  0  0  0  2  0  0  0  0  0  0
  188.1220  176.9480  144.0080 C   0  0  0  0  0  0  0  0  0  0  0  0
  190.5970  173.7450  144.7350 C   0  0  0  0  0  0  0  0  0  0  0  0
  189.2760  176.1880  142.2930 N   0  0  0  0  0  0  0  0  0  0  0  0
  188.8650  175.8890  144.4700 C   0  0  0  0  0  0  0  0  0  0  0  0
  191.6840  172.4310  142.4700 C   0  0  1  0  0  3  0  0  0  0  0  0
  191.4580  172.6530  144.8790 O   0  0  0  0  0  0  0  0  0  0  0  0
  189.5560  175.4330  143.3750 C   0  0  0  0  0  0  0  0  0  0  0  0
  188.3990  177.1000  142.6950 N   0  0  0  0  0  0  0  0  0  0  0  0
  186.4540  178.2610  141.8660 C   0  0  0  0  0  3  0  0  0  0  0  0
  186.2240  178.5430  144.3420 C   0  0  0  0  0  0  0  0  0  0  0  0
  188.9960  175.3130  145.7300 C   0  0  0  0  0  3  0  0  0  0  0  0
  192.3490  172.2560  143.8360 C   0  0  0  0  0  2  0  0  0  0  0  0
  185.6760  178.4100  142.9500 C   0  0  0  0  0  0  0  0  0  0  0  0
  189.8750  174.2220  145.8530 C   0  0  0  0  0  3  0  0  0  0  0  0
  191.2230  173.8780  142.2820 C   0  0  0  0  0  2  0  0  0  0  0  0
  190.4320  174.3530  143.4650 C   0  0  0  0  0  0  0  0  0  0  0  0
  191.3330  170.2020  140.3170 C   0  0  0  0  0  3  0  0  0  0  0  0
  194.5220  173.5930  141.9700 C   0  0  0  0  0  2  0  0  0  0  0  0
  194.4170  171.9220  140.0830 C   0  0  0  0  0  0  0  0  0  0  0  0
  196.2570  173.5670  140.1420 C   0  0  0  0  0  3  0  0  0  0  0  0
  195.6720  174.1920  141.1870 C   0  0  0  0  0  3  0  0  0  0  0  0
  192.5900  172.0320  141.3960 N   0  0  0  0  0  0  0  0  0  0  0  0
  191.3970  169.2400  139.2930 C   0  0  0  0  0  3  0  0  0  0  0  0
  193.5290  170.9610  139.6570 C   0  0  0  0  0  0  0  0  0  0  0  0
  195.8190  172.2030  139.6460 C   0  0  0  0  0  2  0  0  0  0  0  0
  192.5350  169.1420  138.4540 C   0  0  0  0  0  0  0  0  0  0  0  0
  193.8130  172.5560  141.1510 C   0  0  0  0  0  0  0  0  0  0  0  0
  192.4230  171.0560  140.4720 C   0  0  0  0  0  0  0  0  0  0  0  0
  193.6230  170.0140  138.6420 C   0  0  0  0  0  3  0  0  0  0  0  0
  192.6040  168.1660  137.4110 N   0  0  0  0  0  2  0  0  0  0  0  0
  192.9360  168.7800  134.9470 N   0  0  0  0  0  0  0  0  0  0  0  0
  192.7860  168.5030  136.0610 C   0  0  0  0  0  0  0  0  0  0  0  0
  183.6330  178.2900  141.3530 C   0  0  0  0  0  1  0  0  0  0  0  0
  183.4220  178.6980  143.6700 O   0  0  0  0  0  0  0  0  0  0  0  0
  184.2110  178.4630  142.7150 C   0  0  0  0  0  0  0  0  0  0  0  0
  185.5740  179.5230  145.2800 C   0  0  0  0  0  2  0  0  0  0  0  0
  185.3240  178.9460  146.6370 C   0  0  0  0  0  0  0  0  0  0  0  0
  185.9570  179.3750  147.6370 O   0  0  0  0  0  1  0  0  0  0  0  0
  184.3690  177.9510  146.8000 O   0  0  0  0  0  0  0  0  0  0  0  0
  2 10  1  0  0  0  0
  3  6  2  0  0  0  0
  3  1  1  0  0  0  0
  4  8  1  0  0  0  0
  4 16  1  0  0  0  0
  5 10  1  0  0  0  0
  5  9  2  0  0  0  0
  6 13  1  0  0  0  0
  7 24  1  6  0  0  0
  7 14  1  0  0  0  0
  9 18  1  0  0  0  0
  9  6  1  0  0  0  0
 10  3  1  0  0  0  0
 11  2  1  0  0  0  0
 11 15  2  0  0  0  0
 12  1  2  0  0  0  0
 12 38  1  0  0  0  0
 13 16  2  0  0  0  0
 14  8  1  0  0  0  0
 15 12  1  0  0  0  0
 17  7  1  0  0  0  0
 17 18  1  0  0  0  0
 18  4  2  0  0  0  0
 19 30  1  0  0  0  0
 21 29  2  0  0  0  0
 22 23  2  0  0  0  0
 23 20  1  0  0  0  0
 25 19  2  0  0  0  0
 26 21  1  0  0  0  0
 26 30  2  0  0  0  0
 27 21  1  0  0  0  0
 27 22  1  0  0  0  0
 28 31  2  0  0  0  0
 28 25  1  0  0  0  0
 29 24  1  0  0  0  0
 29 20  1  0  0  0  0
 30 24  1  0  0  0  0
 31 26  1  0  0  0  0
 32 28  1  0  0  0  0
 33 34  3  0  0  0  0
 34 32  1  0  0  0  0
 35 37  1  0  0  0  0
 37 15  1  0  0  0  0
 37 36  2  0  0  0  0
 38 39  1  0  0  0  0
 39 41  2  0  0  0  0
 39 40  1  0  0  0  0
M  END
>  <MODEL>
7

>  <REMARK>
 VINA RESULT:      -7.3      3.451     10.462
  Name = 
  6 active torsions:
  status: ('A' for Active; 'I' for Inactive)
    1  A    between atoms: N_11  and  C_19
    2  A    between atoms: N_15  and  C_23
    3  A    between atoms: N_15  and  C_41
    4  A    between atoms: C_20  and  C_25
    5  A    between atoms: C_20  and  C_30
    6  A    between atoms: C_22  and  C_34
                            x       y       z     vdW  Elec       q    Type
                         _______ _______ _______ _____ _____    ______ ____

>  <TORSDO>
F 6

$$$$
=
 OpenBabel11062421443D

 41 47  0  0  1  0  0  0  0  0999 V2000
  188.5370  176.4780  145.2640 C   0  0  0  0  0  3  0  0  0  0  0  0
  189.2690  177.7440  142.6170 C   0  0  0  0  0  2  0  0  0  0  0  0
  189.1490  175.7750  144.1290 C   0  0  0  0  0  0  0  0  0  0  0  0
  190.8280  172.0850  143.4400 C   0  0  0  0  0  0  0  0  0  0  0  0
  190.1050  175.4810  142.1680 N   0  0  0  0  0  0  0  0  0  0  0  0
  189.6300  174.4890  144.1130 C   0  0  0  0  0  0  0  0  0  0  0  0
  191.5940  171.5080  140.7730 C   0  0  1  0  0  3  0  0  0  0  0  0
  191.4170  170.8620  143.1080 O   0  0  0  0  0  0  0  0  0  0  0  0
  190.2020  174.3370  142.8750 C   0  0  0  0  0  0  0  0  0  0  0  0
  189.4570  176.3420  142.9430 N   0  0  0  0  0  0  0  0  0  0  0  0
  187.8300  178.1120  142.7530 C   0  0  0  0  0  3  0  0  0  0  0  0
  187.6630  177.4950  145.1730 C   0  0  0  0  0  0  0  0  0  0  0  0
  189.6220  173.4730  145.0640 C   0  0  0  0  0  3  0  0  0  0  0  0
  192.1980  170.7010  141.9230 C   0  0  0  0  0  2  0  0  0  0  0  0
  187.1030  178.0090  143.8780 C   0  0  0  0  0  0  0  0  0  0  0  0
  190.2300  172.2530  144.7100 C   0  0  0  0  0  3  0  0  0  0  0  0
  191.4750  172.9840  141.1600 C   0  0  0  0  0  2  0  0  0  0  0  0
  190.8090  173.1410  142.4960 C   0  0  0  0  0  0  0  0  0  0  0  0
  194.4850  172.5070  140.1650 C   0  0  0  0  0  3  0  0  0  0  0  0
  190.6240  170.1960  138.1280 C   0  0  0  0  0  2  0  0  0  0  0  0
  192.9720  170.8170  137.4480 C   0  0  0  0  0  0  0  0  0  0  0  0
  191.6360  169.3500  135.9810 C   0  0  0  0  0  3  0  0  0  0  0  0
  190.6660  169.2840  136.9190 C   0  0  0  0  0  3  0  0  0  0  0  0
  192.3890  171.3540  139.5570 N   0  0  0  0  0  0  0  0  0  0  0  0
  195.7450  172.8910  139.6730 C   0  0  0  0  0  3  0  0  0  0  0  0
  194.0260  171.4920  138.0220 C   0  0  0  0  0  0  0  0  0  0  0  0
  192.7800  170.3420  136.0440 C   0  0  0  0  0  2  0  0  0  0  0  0
  196.1390  172.5730  138.3490 C   0  0  0  0  0  0  0  0  0  0  0  0
  191.9860  170.7540  138.4130 C   0  0  0  0  0  0  0  0  0  0  0  0
  193.6430  171.8000  139.3090 C   0  0  0  0  0  0  0  0  0  0  0  0
  195.2630  171.8650  137.5060 C   0  0  0  0  0  3  0  0  0  0  0  0
  197.4200  172.9600  137.8440 N   0  0  0  0  0  2  0  0  0  0  0  0
  197.9410  173.1300  135.3430 N   0  0  0  0  0  0  0  0  0  0  0  0
  197.7060  173.0530  136.4740 C   0  0  0  0  0  0  0  0  0  0  0  0
  185.3050  179.8760  144.0280 C   0  0  0  0  0  1  0  0  0  0  0  0
  184.7720  177.6210  143.5700 O   0  0  0  0  0  0  0  0  0  0  0  0
  185.6890  178.4560  143.7980 C   0  0  0  0  0  0  0  0  0  0  0  0
  187.2500  178.1710  146.4520 C   0  0  0  0  0  2  0  0  0  0  0  0
  186.1010  177.4860  147.1230 C   0  0  0  0  0  0  0  0  0  0  0  0
  186.2780  176.4020  147.7370 O   0  0  0  0  0  1  0  0  0  0  0  0
  184.8390  178.0640  147.0920 O   0  0  0  0  0  0  0  0  0  0  0  0
  2 11  1  0  0  0  0
  2 10  1  0  0  0  0
  3  1  1  0  0  0  0
  4 16  1  0  0  0  0
  5  9  2  0  0  0  0
  5 10  1  0  0  0  0
  6  3  2  0  0  0  0
  6 13  1  0  0  0  0
  7 24  1  6  0  0  0
  7 17  1  0  0  0  0
  7 14  1  0  0  0  0
  8  4  1  0  0  0  0
  9  6  1  0  0  0  0
 10  3  1  0  0  0  0
 11 15  2  0  0  0  0
 12  1  2  0  0  0  0
 12 38  1  0  0  0  0
 14  8  1  0  0  0  0
 15 12  1  0  0  0  0
 16 13  2  0  0  0  0
 17 18  1  0  0  0  0
 18  9  1  0  0  0  0
 18  4  2  0  0  0  0
 20 29  1  0  0  0  0
 21 26  1  0  0  0  0
 21 29  2  0  0  0  0
 22 27  1  0  0  0  0
 22 23  2  0  0  0  0
 23 20  1  0  0  0  0
 25 19  1  0  0  0  0
 26 30  1  0  0  0  0
 27 21  1  0  0  0  0
 28 25  2  0  0  0  0
 29 24  1  0  0  0  0
 30 24  1  0  0  0  0
 30 19  2  0  0  0  0
 31 26  2  0  0  0  0
 31 28  1  0  0  0  0
 32 28  1  0  0  0  0
 33 34  3  0  0  0  0
 34 32  1  0  0  0  0
 36 37  2  0  0  0  0
 37 15  1  0  0  0  0
 37 35  1  0  0  0  0
 38 39  1  0  0  0  0
 39 40  1  0  0  0  0
 41 39  2  0  0  0  0
M  END
>  <MODEL>
8

>  <REMARK>
 VINA RESULT:      -7.3      3.914     10.693
  Name = 
  6 active torsions:
  status: ('A' for Active; 'I' for Inactive)
    1  A    between atoms: N_11  and  C_19
    2  A    between atoms: N_15  and  C_23
    3  A    between atoms: N_15  and  C_41
    4  A    between atoms: C_20  and  C_25
    5  A    between atoms: C_20  and  C_30
    6  A    between atoms: C_22  and  C_34
                            x       y       z     vdW  Elec       q    Type
                         _______ _______ _______ _____ _____    ______ ____

>  <TORSDO>
F 6

$$$$
=
 OpenBabel11062421443D

 41 47  0  0  1  0  0  0  0  0999 V2000
  193.6310  171.8600  136.9250 C   0  0  0  0  0  3  0  0  0  0  0  0
  193.8950  174.8150  137.5110 C   0  0  0  0  0  2  0  0  0  0  0  0
  193.0950  172.5400  138.1110 C   0  0  0  0  0  0  0  0  0  0  0  0
  190.5820  171.6000  141.2270 C   0  0  0  0  0  0  0  0  0  0  0  0
  192.5390  174.1910  139.4580 N   0  0  0  0  0  0  0  0  0  0  0  0
  192.2680  172.0070  139.0690 C   0  0  0  0  0  0  0  0  0  0  0  0
  190.2700  173.5590  143.2530 C   0  0  1  0  0  3  0  0  0  0  0  0
  189.7410  171.3790  142.3220 O   0  0  0  0  0  0  0  0  0  0  0  0
  191.9560  173.0570  139.8970 C   0  0  0  0  0  0  0  0  0  0  0  0
  193.2330  173.8570  138.3760 N   0  0  0  0  0  0  0  0  0  0  0  0
  195.3140  174.4110  137.2920 C   0  0  0  0  0  3  0  0  0  0  0  0
  194.7660  172.1860  136.2840 C   0  0  0  0  0  0  0  0  0  0  0  0
  191.7680  170.7240  139.2680 C   0  0  0  0  0  3  0  0  0  0  0  0
  189.2210  172.4570  143.1010 C   0  0  0  0  0  2  0  0  0  0  0  0
  195.7180  173.2510  136.7490 C   0  0  0  0  0  0  0  0  0  0  0  0
  190.9150  170.5270  140.3700 C   0  0  0  0  0  3  0  0  0  0  0  0
  190.7370  174.0460  141.8790 C   0  0  0  0  0  2  0  0  0  0  0  0
  191.1170  172.8920  140.9970 C   0  0  0  0  0  0  0  0  0  0  0  0
  187.7230  175.2950  142.7740 C   0  0  0  0  0  3  0  0  0  0  0  0
  191.6260  174.7940  145.7620 C   0  0  0  0  0  2  0  0  0  0  0  0
  189.5740  176.2560  145.6340 C   0  0  0  0  0  0  0  0  0  0  0  0
  191.0100  176.3580  147.6390 C   0  0  0  0  0  3  0  0  0  0  0  0
  191.7370  175.3170  147.1800 C   0  0  0  0  0  3  0  0  0  0  0  0
  189.7460  174.6690  144.0450 N   0  0  0  0  0  0  0  0  0  0  0  0
  186.6570  176.2100  142.7320 C   0  0  0  0  0  3  0  0  0  0  0  0
  188.5110  176.4010  144.7720 C   0  0  0  0  0  0  0  0  0  0  0  0
  190.0080  177.1080  146.7840 C   0  0  0  0  0  2  0  0  0  0  0  0
  186.5240  177.2230  143.7140 C   0  0  0  0  0  0  0  0  0  0  0  0
  190.3120  175.1900  145.1580 C   0  0  0  0  0  0  0  0  0  0  0  0
  188.6390  175.4160  143.8180 C   0  0  0  0  0  0  0  0  0  0  0  0
  187.4700  177.3250  144.7500 C   0  0  0  0  0  3  0  0  0  0  0  0
  185.4400  178.1550  143.6750 N   0  0  0  0  0  2  0  0  0  0  0  0
  184.0680  178.7850  145.7430 N   0  0  0  0  0  0  0  0  0  0  0  0
  184.6880  178.5010  144.8080 C   0  0  0  0  0  0  0  0  0  0  0  0
  197.9410  173.6820  135.4790 C   0  0  0  0  0  1  0  0  0  0  0  0
  197.8140  172.3290  137.4100 O   0  0  0  0  0  0  0  0  0  0  0  0
  197.1830  173.0610  136.6010 C   0  0  0  0  0  0  0  0  0  0  0  0
  195.0770  171.4530  135.0080 C   0  0  0  0  0  2  0  0  0  0  0  0
  195.3710  170.0030  135.2320 C   0  0  0  0  0  0  0  0  0  0  0  0
  194.5840  169.1210  134.8020 O   0  0  0  0  0  0  0  0  0  0  0  0
  196.5340  169.6280  135.8920 O   0  0  0  0  0  1  0  0  0  0  0  0
  1  3  1  0  0  0  0
  2 10  1  0  0  0  0
  3 10  1  0  0  0  0
  3  6  2  0  0  0  0
  4  8  1  0  0  0  0
  5  9  2  0  0  0  0
  6 13  1  0  0  0  0
  6  9  1  0  0  0  0
  7 17  1  6  0  0  0
  7 24  1  0  0  0  0
  8 14  1  0  0  0  0
  9 18  1  0  0  0  0
 10  5  1  0  0  0  0
 11  2  1  0  0  0  0
 12 15  1  0  0  0  0
 12  1  2  0  0  0  0
 13 16  2  0  0  0  0
 14  7  1  0  0  0  0
 15 11  2  0  0  0  0
 16  4  1  0  0  0  0
 18  4  2  0  0  0  0
 18 17  1  0  0  0  0
 19 30  1  0  0  0  0
 20 23  1  0  0  0  0
 21 27  1  0  0  0  0
 23 22  2  0  0  0  0
 24 29  1  0  0  0  0
 25 19  2  0  0  0  0
 25 28  1  0  0  0  0
 26 21  1  0  0  0  0
 27 22  1  0  0  0  0
 28 31  2  0  0  0  0
 29 21  2  0  0  0  0
 29 20  1  0  0  0  0
 30 24  1  0  0  0  0
 30 26  2  0  0  0  0
 31 26  1  0  0  0  0
 32 28  1  0  0  0  0
 32 34  1  0  0  0  0
 34 33  3  0  0  0  0
 35 37  1  0  0  0  0
 37 15  1  0  0  0  0
 37 36  2  0  0  0  0
 38 39  1  0  0  0  0
 38 12  1  0  0  0  0
 39 41  1  0  0  0  0
 40 39  2  0  0  0  0
M  END
>  <MODEL>
9

>  <REMARK>
 VINA RESULT:      -7.3      3.724      6.152
  Name = 
  6 active torsions:
  status: ('A' for Active; 'I' for Inactive)
    1  A    between atoms: N_11  and  C_19
    2  A    between atoms: N_15  and  C_23
    3  A    between atoms: N_15  and  C_41
    4  A    between atoms: C_20  and  C_25
    5  A    between atoms: C_20  and  C_30
    6  A    between atoms: C_22  and  C_34
                            x       y       z     vdW  Elec       q    Type
                         _______ _______ _______ _____ _____    ______ ____

>  <TORSDO>
F 6

$$$$
