=
 OpenBabel11062418193D

 49 55  0  0  1  0  0  0  0  0999 V2000
  187.8960  173.5950  140.8010 C   0  0  0  0  0  2  0  0  0  0  0  0
  188.8570  172.4610  140.4000 C   0  0  0  0  0  2  0  0  0  0  0  0
  191.8180  173.4550  142.7310 C   0  0  2  0  0  3  0  0  0  0  0  0
  188.6530  174.8680  141.2100 C   0  0  2  0  0  3  0  0  0  0  0  0
  189.9090  172.1970  141.4850 C   0  0  0  0  0  2  0  0  0  0  0  0
  189.6490  174.4960  142.3070 C   0  0  1  0  0  3  0  0  0  0  0  0
  190.6560  173.5000  141.7500 C   0  0  1  0  0  3  0  0  0  0  0  0
  190.2620  175.6420  143.0040 N   0  0  0  0  0  2  0  0  0  0  0  0
  192.5200  174.8500  142.7680 C   0  0  2  0  0  3  0  0  0  0  0  0
  191.5460  175.9350  142.4850 N   0  0  0  0  0  0  0  0  0  0  0  0
  193.5770  170.3400  144.0960 C   0  0  0  0  0  0  0  0  0  0  0  0
  194.1890  169.8620  142.9320 C   0  0  0  0  0  3  0  0  0  0  0  0
  194.0390  170.5450  141.7220 C   0  0  0  0  0  3  0  0  0  0  0  0
  192.6560  172.2060  142.8250 C   0  0  0  0  0  0  0  0  0  0  0  0
  192.8130  171.5130  144.0350 C   0  0  0  0  0  3  0  0  0  0  0  0
  193.2730  171.7140  141.6700 C   0  0  0  0  0  3  0  0  0  0  0  0
  194.8770  169.6580  146.1980 C   0  0  0  0  0  0  0  0  0  0  0  0
  194.8920  168.8050  147.4150 C   0  0  0  0  0  1  0  0  0  0  0  0
  193.7450  169.6090  145.3190 N   0  0  0  0  0  2  0  0  0  0  0  0
  195.8560  170.4160  145.9660 O   0  0  0  0  0  0  0  0  0  0  0  0
  186.9240  178.3240  141.5170 C   0  0  0  0  0  2  0  0  0  0  0  0
  187.6880  175.9260  141.6430 C   0  0  0  0  0  0  0  0  0  0  0  0
  186.7750  175.6650  142.5350 N   0  0  0  0  0  0  0  0  0  0  0  0
  187.8400  177.2550  141.1290 N   0  0  0  0  0  2  0  0  0  0  0  0
  186.3740  178.0820  142.9220 C   0  0  1  0  0  3  0  0  0  0  0  0
  185.8060  176.6620  142.9960 C   0  0  0  0  0  2  0  0  0  0  0  0
  187.4490  178.2890  143.9800 C   0  0  0  0  0  2  0  0  0  0  0  0
  186.8360  178.7510  145.2200 N   0  0  0  0  0  0  0  0  0  0  0  0
  186.7450  178.0510  146.3130 C   0  0  0  0  0  0  0  0  0  0  0  0
  192.1290  177.0500  147.6420 C   0  0  0  0  0  2  0  0  0  0  0  0
  188.9390  175.0070  147.2960 C   0  0  0  0  0  2  0  0  0  0  0  0
  186.4650  175.7120  146.0360 O   0  0  0  0  0  0  0  0  0  0  0  0
  188.5520  176.3430  146.8640 N   0  0  0  0  0  0  0  0  0  0  0  0
  192.6770  174.8970  146.5140 C   0  0  0  0  0  2  0  0  0  0  0  0
  187.2340  176.6500  146.3840 C   0  0  0  0  0  0  0  0  0  0  0  0
  190.6760  176.5880  147.8180 C   0  0  2  0  0  3  0  0  0  0  0  0
  190.4220  175.0860  147.6290 C   0  0  2  0  0  3  0  0  0  0  0  0
  191.2050  174.5140  146.4450 C   0  0  0  0  0  2  0  0  0  0  0  0
  190.1020  177.6550  145.7300 O   0  0  0  0  0  1  0  0  0  0  0  0
  189.6190  177.3170  147.0000 C   0  0  1  0  0  3  0  0  0  0  0  0
  192.7990  176.4110  146.4310 C   0  0  0  0  0  2  0  0  0  0  0  0
  186.0820  178.6620  147.4830 C   0  0  0  0  0  0  0  0  0  0  0  0
  184.8410  178.5200  147.6490 O   0  0  0  0  0  0  0  0  0  0  0  0
  186.8360  179.3860  148.4520 N   0  0  0  0  0  1  0  0  0  0  0  0
  195.0690  174.5820  142.4060 C   0  0  0  0  0  2  0  0  0  0  0  0
  193.7560  175.1050  141.8640 C   0  0  0  0  0  3  0  0  0  0  0  0
  194.7620  176.0690  142.4530 C   0  0  0  0  0  2  0  0  0  0  0  0
  191.9980  177.1870  143.1040 C   0  0  0  0  0  2  0  0  0  0  0  0
  190.9870  178.3230  142.9410 C   0  0  0  0  0  1  0  0  0  0  0  0
  1  4  1  0  0  0  0
  2  1  1  0  0  0  0
  2  5  1  0  0  0  0
  3  9  1  0  0  0  0
  3 14  1  6  0  0  0
  4 22  1  1  0  0  0
  4  6  1  0  0  0  0
  6  8  1  6  0  0  0
  7  5  1  1  0  0  0
  7  6  1  0  0  0  0
  7  3  1  0  0  0  0
  9 46  1  6  0  0  0
 10  9  1  0  0  0  0
 10  8  1  0  0  0  0
 10 48  1  0  0  0  0
 11 19  1  0  0  0  0
 12 11  2  0  0  0  0
 13 12  1  0  0  0  0
 14 15  2  0  0  0  0
 15 11  1  0  0  0  0
 16 13  2  0  0  0  0
 16 14  1  0  0  0  0
 17 18  1  0  0  0  0
 19 17  1  0  0  0  0
 20 17  2  0  0  0  0
 21 25  1  0  0  0  0
 22 23  2  0  0  0  0
 23 26  1  0  0  0  0
 24 21  1  0  0  0  0
 24 22  1  0  0  0  0
 25 26  1  0  0  0  0
 25 27  1  1  0  0  0
 27 28  1  0  0  0  0
 28 29  2  0  0  0  0
 29 35  1  0  0  0  0
 29 42  1  0  0  0  0
 31 37  1  0  0  0  0
 32 35  2  0  0  0  0
 33 40  1  0  0  0  0
 33 31  1  0  0  0  0
 35 33  1  0  0  0  0
 36 30  1  6  0  0  0
 37 38  1  6  0  0  0
 37 36  1  0  0  0  0
 38 34  1  0  0  0  0
 40 39  1  6  0  0  0
 40 36  1  0  0  0  0
 41 34  1  0  0  0  0
 41 30  1  0  0  0  0
 42 43  2  0  0  0  0
 42 44  1  0  0  0  0
 45 47  1  0  0  0  0
 46 45  1  0  0  0  0
 46 47  1  0  0  0  0
 49 48  1  0  0  0  0
M  END
>  <MODEL>
1

>  <REMARK>
 VINA RESULT:      -7.5      0.000      0.000
  Name = 
  9 active torsions:
  status: ('A' for Active; 'I' for Inactive)
    1  A    between atoms: C_1  and  N_27
    2  A    between atoms: C_4  and  N_44
    3  A    between atoms: N_6  and  C_29
    4  A    between atoms: C_7  and  C_21
    5  A    between atoms: C_19  and  C_26
    6  A    between atoms: C_20  and  C_42
    7  A    between atoms: C_24  and  C_42
    8  A    between atoms: C_29  and  C_32
    9  A    between atoms: C_39  and  C_43
                            x       y       z     vdW  Elec       q    Type
                         _______ _______ _______ _____ _____    ______ ____

>  <TORSDO>
F 9

$$$$
=
 OpenBabel11062418193D

 49 55  0  0  1  0  0  0  0  0999 V2000
  191.2080  171.7550  143.7910 C   0  0  0  0  0  2  0  0  0  0  0  0
  189.7560  172.2400  143.6370 C   0  0  0  0  0  2  0  0  0  0  0  0
  190.4390  176.0480  144.1110 C   0  0  2  0  0  3  0  0  0  0  0  0
  192.0190  172.6640  144.7270 C   0  0  2  0  0  3  0  0  0  0  0  0
  189.6910  173.7170  143.2250 C   0  0  0  0  0  2  0  0  0  0  0  0
  191.9070  174.0980  144.2110 C   0  0  1  0  0  3  0  0  0  0  0  0
  190.4500  174.5350  144.2650 C   0  0  1  0  0  3  0  0  0  0  0  0
  192.8420  175.0560  144.8290 N   0  0  0  0  0  2  0  0  0  0  0  0
  191.1610  176.6990  145.3320 C   0  0  2  0  0  3  0  0  0  0  0  0
  192.2170  175.7960  145.8600 N   0  0  0  0  0  0  0  0  0  0  0  0
  186.9080  177.4720  143.7000 C   0  0  0  0  0  0  0  0  0  0  0  0
  187.0040  178.0240  142.4180 C   0  0  0  0  0  3  0  0  0  0  0  0
  188.1950  177.9290  141.6930 C   0  0  0  0  0  3  0  0  0  0  0  0
  189.2220  176.7210  143.5300 C   0  0  0  0  0  0  0  0  0  0  0  0
  188.0210  176.8210  144.2490 C   0  0  0  0  0  3  0  0  0  0  0  0
  189.3010  177.2790  142.2500 C   0  0  0  0  0  3  0  0  0  0  0  0
  185.2430  178.7240  145.1940 C   0  0  0  0  0  0  0  0  0  0  0  0
  183.9360  178.6660  145.9000 C   0  0  0  0  0  1  0  0  0  0  0  0
  185.6730  177.5960  144.4190 N   0  0  0  0  0  2  0  0  0  0  0  0
  185.9450  179.7660  145.2820 O   0  0  0  0  0  0  0  0  0  0  0  0
  195.8380  172.6790  145.3950 C   0  0  0  0  0  2  0  0  0  0  0  0
  193.4360  172.1910  144.8080 C   0  0  0  0  0  0  0  0  0  0  0  0
  193.7660  171.0090  144.3700 N   0  0  0  0  0  0  0  0  0  0  0  0
  194.4400  173.0910  145.2920 N   0  0  0  0  0  2  0  0  0  0  0  0
  196.1700  171.6240  144.3400 C   0  0  1  0  0  3  0  0  0  0  0  0
  195.1370  170.4960  144.4240 C   0  0  0  0  0  2  0  0  0  0  0  0
  196.1970  172.2270  142.9430 C   0  0  0  0  0  2  0  0  0  0  0  0
  196.3700  173.6720  143.0340 N   0  0  0  0  0  0  0  0  0  0  0  0
  196.3480  174.4910  142.0230 C   0  0  0  0  0  0  0  0  0  0  0  0
  191.1700  173.6600  139.9610 C   0  0  0  0  0  2  0  0  0  0  0  0
  194.7090  173.8150  138.5730 C   0  0  0  0  0  2  0  0  0  0  0  0
  197.2070  173.6780  139.9670 O   0  0  0  0  0  0  0  0  0  0  0  0
  194.8890  173.9240  140.0140 N   0  0  0  0  0  0  0  0  0  0  0  0
  191.4410  171.8610  138.2580 C   0  0  0  0  0  2  0  0  0  0  0  0
  196.1840  174.0050  140.6290 C   0  0  0  0  0  0  0  0  0  0  0  0
  192.5880  174.1620  139.6540 C   0  0  2  0  0  3  0  0  0  0  0  0
  193.2120  173.6550  138.3480 C   0  0  2  0  0  3  0  0  0  0  0  0
  192.9240  172.1710  138.1100 C   0  0  0  0  0  2  0  0  0  0  0  0
  193.4470  172.7620  141.4220 O   0  0  0  0  0  1  0  0  0  0  0  0
  193.6340  173.9710  140.7440 C   0  0  1  0  0  3  0  0  0  0  0  0
  191.0100  172.1690  139.6840 C   0  0  0  0  0  2  0  0  0  0  0  0
  196.5530  175.9300  142.2830 C   0  0  0  0  0  0  0  0  0  0  0  0
  196.9720  176.3140  143.4080 O   0  0  0  0  0  0  0  0  0  0  0  0
  196.3130  176.8970  141.2640 N   0  0  0  0  0  1  0  0  0  0  0  0
  190.8160  176.6900  147.8980 C   0  0  0  0  0  2  0  0  0  0  0  0
  190.3230  177.1720  146.5500 C   0  0  0  0  0  3  0  0  0  0  0  0
  189.5890  176.0590  147.2640 C   0  0  0  0  0  2  0  0  0  0  0  0
  193.2580  176.5830  146.5320 C   0  0  0  0  0  2  0  0  0  0  0  0
  194.4560  176.8700  145.6270 C   0  0  0  0  0  1  0  0  0  0  0  0
  1  4  1  0  0  0  0
  2  1  1  0  0  0  0
  3 14  1  1  0  0  0
  3  7  1  0  0  0  0
  3  9  1  0  0  0  0
  4 22  1  6  0  0  0
  5  2  1  0  0  0  0
  6  7  1  0  0  0  0
  6  4  1  0  0  0  0
  6  8  1  1  0  0  0
  7  5  1  6  0  0  0
  8 10  1  0  0  0  0
  9 10  1  0  0  0  0
  9 46  1  1  0  0  0
 10 48  1  0  0  0  0
 11 15  1  0  0  0  0
 11 19  1  0  0  0  0
 12 11  2  0  0  0  0
 13 16  2  0  0  0  0
 13 12  1  0  0  0  0
 14 15  2  0  0  0  0
 16 14  1  0  0  0  0
 17 20  2  0  0  0  0
 17 18  1  0  0  0  0
 19 17  1  0  0  0  0
 22 24  1  0  0  0  0
 23 26  1  0  0  0  0
 23 22  2  0  0  0  0
 24 21  1  0  0  0  0
 25 27  1  6  0  0  0
 25 26  1  0  0  0  0
 25 21  1  0  0  0  0
 27 28  1  0  0  0  0
 29 42  1  0  0  0  0
 29 28  2  0  0  0  0
 31 33  1  0  0  0  0
 32 35  2  0  0  0  0
 33 35  1  0  0  0  0
 33 40  1  0  0  0  0
 34 41  1  0  0  0  0
 35 29  1  0  0  0  0
 36 30  1  1  0  0  0
 36 40  1  0  0  0  0
 37 38  1  1  0  0  0
 37 31  1  0  0  0  0
 37 36  1  0  0  0  0
 38 34  1  0  0  0  0
 40 39  1  6  0  0  0
 41 30  1  0  0  0  0
 42 43  2  0  0  0  0
 44 42  1  0  0  0  0
 46 47  1  0  0  0  0
 46 45  1  0  0  0  0
 47 45  1  0  0  0  0
 49 48  1  0  0  0  0
M  END
>  <MODEL>
2

>  <REMARK>
 VINA RESULT:      -6.8      2.914      8.968
  Name = 
  9 active torsions:
  status: ('A' for Active; 'I' for Inactive)
    1  A    between atoms: C_1  and  N_27
    2  A    between atoms: C_4  and  N_44
    3  A    between atoms: N_6  and  C_29
    4  A    between atoms: C_7  and  C_21
    5  A    between atoms: C_19  and  C_26
    6  A    between atoms: C_20  and  C_42
    7  A    between atoms: C_24  and  C_42
    8  A    between atoms: C_29  and  C_32
    9  A    between atoms: C_39  and  C_43
                            x       y       z     vdW  Elec       q    Type
                         _______ _______ _______ _____ _____    ______ ____

>  <TORSDO>
F 9

$$$$
=
 OpenBabel11062418193D

 49 55  0  0  1  0  0  0  0  0999 V2000
  192.7250  177.4170  144.2540 C   0  0  0  0  0  2  0  0  0  0  0  0
  191.5200  178.3240  143.9460 C   0  0  0  0  0  2  0  0  0  0  0  0
  188.7320  175.6380  144.3950 C   0  0  2  0  0  3  0  0  0  0  0  0
  192.4630  175.9600  143.8430 C   0  0  2  0  0  3  0  0  0  0  0  0
  190.2220  177.7680  144.5460 C   0  0  0  0  0  2  0  0  0  0  0  0
  191.1690  175.5020  144.5140 C   0  0  1  0  0  3  0  0  0  0  0  0
  190.0150  176.3560  144.0060 C   0  0  1  0  0  3  0  0  0  0  0  0
  190.9140  174.0520  144.4490 N   0  0  0  0  0  2  0  0  0  0  0  0
  188.6570  174.2690  143.6480 C   0  0  2  0  0  3  0  0  0  0  0  0
  190.0200  173.7310  143.4000 N   0  0  0  0  0  0  0  0  0  0  0  0
  185.4250  177.4540  143.7420 C   0  0  0  0  0  0  0  0  0  0  0  0
  185.1150  177.8910  145.0340 C   0  0  0  0  0  3  0  0  0  0  0  0
  185.9710  177.6070  146.1010 C   0  0  0  0  0  3  0  0  0  0  0  0
  187.4710  176.4380  144.5950 C   0  0  0  0  0  0  0  0  0  0  0  0
  186.6050  176.7290  143.5290 C   0  0  0  0  0  3  0  0  0  0  0  0
  187.1450  176.8810  145.8810 C   0  0  0  0  0  3  0  0  0  0  0  0
  184.8700  178.2040  141.3530 C   0  0  0  0  0  0  0  0  0  0  0  0
  183.7910  178.4980  140.3740 C   0  0  0  0  0  1  0  0  0  0  0  0
  184.5200  177.7560  142.6700 N   0  0  0  0  0  2  0  0  0  0  0  0
  186.0720  178.3460  141.0070 O   0  0  0  0  0  0  0  0  0  0  0  0
  195.8110  174.8460  145.4510 C   0  0  0  0  0  2  0  0  0  0  0  0
  193.6330  175.1020  144.2080 C   0  0  0  0  0  0  0  0  0  0  0  0
  193.7680  173.9120  143.6950 N   0  0  0  0  0  0  0  0  0  0  0  0
  194.6500  175.6410  145.0610 N   0  0  0  0  0  2  0  0  0  0  0  0
  196.1540  173.8230  144.3680 C   0  0  1  0  0  3  0  0  0  0  0  0
  194.8920  173.0290  144.0160 C   0  0  0  0  0  2  0  0  0  0  0  0
  196.7280  174.4990  143.1310 C   0  0  0  0  0  2  0  0  0  0  0  0
  197.2840  173.4930  142.2340 N   0  0  0  0  0  0  0  0  0  0  0  0
  196.9530  173.3440  140.9840 C   0  0  0  0  0  0  0  0  0  0  0  0
  191.7640  171.2630  140.2710 C   0  0  0  0  0  2  0  0  0  0  0  0
  193.4380  174.6710  140.0190 C   0  0  0  0  0  2  0  0  0  0  0  0
  196.2250  175.3120  139.8780 O   0  0  0  0  0  0  0  0  0  0  0  0
  194.5380  173.7540  140.2850 N   0  0  0  0  0  0  0  0  0  0  0  0
  190.8700  172.4470  138.2690 C   0  0  0  0  0  2  0  0  0  0  0  0
  195.9070  174.1860  140.3490 C   0  0  0  0  0  0  0  0  0  0  0  0
  192.5900  172.5050  140.6350 C   0  0  2  0  0  3  0  0  0  0  0  0
  192.1850  173.8090  139.9350 C   0  0  2  0  0  3  0  0  0  0  0  0
  191.8570  173.5920  138.4570 C   0  0  0  0  0  2  0  0  0  0  0  0
  194.4570  171.6050  139.3980 O   0  0  0  0  0  1  0  0  0  0  0  0
  194.1020  172.3870  140.5030 C   0  0  1  0  0  3  0  0  0  0  0  0
  191.5040  171.1590  138.7720 C   0  0  0  0  0  2  0  0  0  0  0  0
  197.6020  172.2650  140.2120 C   0  0  0  0  0  0  0  0  0  0  0  0
  197.9410  171.1960  140.7860 O   0  0  0  0  0  0  0  0  0  0  0  0
  197.8220  172.4030  138.8100 N   0  0  0  0  0  1  0  0  0  0  0  0
  188.6670  173.5870  141.1510 C   0  0  0  0  0  2  0  0  0  0  0  0
  187.8840  174.1740  142.3050 C   0  0  0  0  0  3  0  0  0  0  0  0
  188.4180  175.0840  141.2200 C   0  0  0  0  0  2  0  0  0  0  0  0
  189.9690  172.2680  143.2940 C   0  0  0  0  0  2  0  0  0  0  0  0
  191.1450  171.5850  143.9940 C   0  0  0  0  0  1  0  0  0  0  0  0
  2  1  1  0  0  0  0
  2  5  1  0  0  0  0
  3 14  1  6  0  0  0
  4 22  1  1  0  0  0
  4  1  1  0  0  0  0
  4  6  1  0  0  0  0
  6  8  1  6  0  0  0
  7  3  1  0  0  0  0
  7  6  1  0  0  0  0
  7  5  1  1  0  0  0
  9 46  1  6  0  0  0
  9  3  1  0  0  0  0
 10  9  1  0  0  0  0
 10  8  1  0  0  0  0
 11 12  1  0  0  0  0
 12 13  2  0  0  0  0
 14 16  2  0  0  0  0
 15 11  2  0  0  0  0
 15 14  1  0  0  0  0
 16 13  1  0  0  0  0
 17 19  1  0  0  0  0
 18 17  1  0  0  0  0
 19 11  1  0  0  0  0
 20 17  2  0  0  0  0
 22 24  1  0  0  0  0
 23 26  1  0  0  0  0
 23 22  2  0  0  0  0
 24 21  1  0  0  0  0
 25 27  1  6  0  0  0
 25 21  1  0  0  0  0
 26 25  1  0  0  0  0
 28 27  1  0  0  0  0
 29 28  2  0  0  0  0
 31 33  1  0  0  0  0
 32 35  2  0  0  0  0
 33 35  1  0  0  0  0
 33 40  1  0  0  0  0
 34 38  1  0  0  0  0
 34 41  1  0  0  0  0
 35 29  1  0  0  0  0
 36 30  1  6  0  0  0
 37 38  1  6  0  0  0
 37 31  1  0  0  0  0
 37 36  1  0  0  0  0
 40 39  1  6  0  0  0
 40 36  1  0  0  0  0
 41 30  1  0  0  0  0
 42 43  2  0  0  0  0
 42 29  1  0  0  0  0
 44 42  1  0  0  0  0
 45 47  1  0  0  0  0
 45 46  1  0  0  0  0
 47 46  1  0  0  0  0
 48 10  1  0  0  0  0
 48 49  1  0  0  0  0
M  END
>  <MODEL>
3

>  <REMARK>
 VINA RESULT:      -6.7      3.222      9.609
  Name = 
  9 active torsions:
  status: ('A' for Active; 'I' for Inactive)
    1  A    between atoms: C_1  and  N_27
    2  A    between atoms: C_4  and  N_44
    3  A    between atoms: N_6  and  C_29
    4  A    between atoms: C_7  and  C_21
    5  A    between atoms: C_19  and  C_26
    6  A    between atoms: C_20  and  C_42
    7  A    between atoms: C_24  and  C_42
    8  A    between atoms: C_29  and  C_32
    9  A    between atoms: C_39  and  C_43
                            x       y       z     vdW  Elec       q    Type
                         _______ _______ _______ _____ _____    ______ ____

>  <TORSDO>
F 9

$$$$
=
 OpenBabel11062418193D

 49 55  0  0  1  0  0  0  0  0999 V2000
  193.9260  175.9320  142.1100 C   0  0  0  0  0  2  0  0  0  0  0  0
  193.2320  176.7810  143.1900 C   0  0  0  0  0  2  0  0  0  0  0  0
  190.0240  174.6000  143.5660 C   0  0  2  0  0  3  0  0  0  0  0  0
  192.9120  175.2240  141.2000 C   0  0  2  0  0  3  0  0  0  0  0  0
  192.2030  175.9620  143.9810 C   0  0  0  0  0  2  0  0  0  0  0  0
  191.9590  174.4220  142.0850 C   0  0  1  0  0  3  0  0  0  0  0  0
  191.1990  175.3780  142.9930 C   0  0  1  0  0  3  0  0  0  0  0  0
  191.0960  173.4680  141.3640 N   0  0  0  0  0  2  0  0  0  0  0  0
  189.0560  174.1960  142.4080 C   0  0  2  0  0  3  0  0  0  0  0  0
  189.8060  174.0050  141.1400 N   0  0  0  0  0  0  0  0  0  0  0  0
  188.1160  176.5050  146.2850 C   0  0  0  0  0  0  0  0  0  0  0  0
  188.3690  175.6890  147.3920 C   0  0  0  0  0  3  0  0  0  0  0  0
  189.1540  174.5410  147.2610 C   0  0  0  0  0  3  0  0  0  0  0  0
  189.4490  175.0060  144.8980 C   0  0  0  0  0  0  0  0  0  0  0  0
  188.6600  176.1580  145.0410 C   0  0  0  0  0  3  0  0  0  0  0  0
  189.6920  174.2010  146.0160 C   0  0  0  0  0  3  0  0  0  0  0  0
  185.8670  177.7310  146.3910 C   0  0  0  0  0  0  0  0  0  0  0  0
  185.1840  179.0400  146.5620 C   0  0  0  0  0  1  0  0  0  0  0  0
  187.2980  177.6720  146.4530 N   0  0  0  0  0  2  0  0  0  0  0  0
  185.1750  176.6950  146.2030 O   0  0  0  0  0  0  0  0  0  0  0  0
  193.5180  172.5400  138.4680 C   0  0  0  0  0  2  0  0  0  0  0  0
  193.6230  174.3690  140.1990 C   0  0  0  0  0  0  0  0  0  0  0  0
  194.9160  174.4480  140.0600 N   0  0  0  0  0  0  0  0  0  0  0  0
  192.8740  173.3980  139.4590 N   0  0  0  0  0  2  0  0  0  0  0  0
  194.9800  172.2910  138.8380 C   0  0  1  0  0  3  0  0  0  0  0  0
  195.6640  173.6360  139.0970 C   0  0  0  0  0  2  0  0  0  0  0  0
  195.0960  171.3830  140.0540 C   0  0  0  0  0  2  0  0  0  0  0  0
  193.7930  170.8060  140.3640 N   0  0  0  0  0  0  0  0  0  0  0  0
  193.5170  170.1170  141.4320 C   0  0  0  0  0  0  0  0  0  0  0  0
  194.4220  173.7190  145.6710 C   0  0  0  0  0  2  0  0  0  0  0  0
  195.4400  170.1580  144.8010 C   0  0  0  0  0  2  0  0  0  0  0  0
  195.2940  168.7970  142.2850 O   0  0  0  0  0  0  0  0  0  0  0  0
  194.7150  170.6170  143.6250 N   0  0  0  0  0  0  0  0  0  0  0  0
  196.8160  173.4000  146.2810 C   0  0  0  0  0  2  0  0  0  0  0  0
  194.5550  169.8070  142.4490 C   0  0  0  0  0  0  0  0  0  0  0  0
  194.3290  172.2410  145.2650 C   0  0  2  0  0  3  0  0  0  0  0  0
  195.4630  171.3360  145.7660 C   0  0  2  0  0  3  0  0  0  0  0  0
  196.8310  172.0120  145.6570 C   0  0  0  0  0  2  0  0  0  0  0  0
  194.8810  172.8500  142.9950 O   0  0  0  0  0  1  0  0  0  0  0  0
  194.1560  171.9470  143.7810 C   0  0  1  0  0  3  0  0  0  0  0  0
  195.8330  174.2760  145.5190 C   0  0  0  0  0  2  0  0  0  0  0  0
  192.1470  169.5900  141.5910 C   0  0  0  0  0  0  0  0  0  0  0  0
  191.8660  168.8510  142.5730 O   0  0  0  0  0  0  0  0  0  0  0  0
  191.1210  169.9330  140.6630 N   0  0  0  0  0  1  0  0  0  0  0  0
  187.8160  175.6670  140.6770 C   0  0  0  0  0  2  0  0  0  0  0  0
  187.8390  175.1020  142.0810 C   0  0  0  0  0  3  0  0  0  0  0  0
  188.1950  176.5540  141.8510 C   0  0  0  0  0  2  0  0  0  0  0  0
  189.0840  173.0720  140.2670 C   0  0  0  0  0  2  0  0  0  0  0  0
  189.5710  173.1220  138.8190 C   0  0  0  0  0  1  0  0  0  0  0  0
  1  2  1  0  0  0  0
  2  5  1  0  0  0  0
  3 14  1  1  0  0  0
  4 22  1  6  0  0  0
  4  6  1  0  0  0  0
  4  1  1  0  0  0  0
  6  8  1  6  0  0  0
  6  7  1  0  0  0  0
  7  3  1  0  0  0  0
  7  5  1  1  0  0  0
  9 46  1  6  0  0  0
  9  3  1  0  0  0  0
 10  8  1  0  0  0  0
 10  9  1  0  0  0  0
 11 19  1  0  0  0  0
 11 12  1  0  0  0  0
 13 12  2  0  0  0  0
 14 15  1  0  0  0  0
 14 16  2  0  0  0  0
 15 11  2  0  0  0  0
 16 13  1  0  0  0  0
 17 19  1  0  0  0  0
 17 18  1  0  0  0  0
 20 17  2  0  0  0  0
 21 25  1  0  0  0  0
 21 24  1  0  0  0  0
 23 22  2  0  0  0  0
 24 22  1  0  0  0  0
 25 26  1  0  0  0  0
 25 27  1  1  0  0  0
 26 23  1  0  0  0  0
 27 28  1  0  0  0  0
 28 29  2  0  0  0  0
 29 42  1  0  0  0  0
 29 35  1  0  0  0  0
 32 35  2  0  0  0  0
 33 40  1  0  0  0  0
 33 31  1  0  0  0  0
 35 33  1  0  0  0  0
 36 30  1  6  0  0  0
 36 37  1  0  0  0  0
 37 31  1  6  0  0  0
 38 37  1  0  0  0  0
 38 34  1  0  0  0  0
 40 39  1  6  0  0  0
 40 36  1  0  0  0  0
 41 30  1  0  0  0  0
 41 34  1  0  0  0  0
 42 43  2  0  0  0  0
 44 42  1  0  0  0  0
 45 47  1  0  0  0  0
 45 46  1  0  0  0  0
 47 46  1  0  0  0  0
 48 10  1  0  0  0  0
 49 48  1  0  0  0  0
M  END
>  <MODEL>
4

>  <REMARK>
 VINA RESULT:      -6.5      2.537      8.327
  Name = 
  9 active torsions:
  status: ('A' for Active; 'I' for Inactive)
    1  A    between atoms: C_1  and  N_27
    2  A    between atoms: C_4  and  N_44
    3  A    between atoms: N_6  and  C_29
    4  A    between atoms: C_7  and  C_21
    5  A    between atoms: C_19  and  C_26
    6  A    between atoms: C_20  and  C_42
    7  A    between atoms: C_24  and  C_42
    8  A    between atoms: C_29  and  C_32
    9  A    between atoms: C_39  and  C_43
                            x       y       z     vdW  Elec       q    Type
                         _______ _______ _______ _____ _____    ______ ____

>  <TORSDO>
F 9

$$$$
=
 OpenBabel11062418193D

 49 55  0  0  1  0  0  0  0  0999 V2000
  189.2980  173.2320  138.9950 C   0  0  0  0  0  2  0  0  0  0  0  0
  188.2350  173.8520  139.9190 C   0  0  0  0  0  2  0  0  0  0  0  0
  190.6370  174.9720  142.7770 C   0  0  2  0  0  3  0  0  0  0  0  0
  190.4790  172.6540  139.7880 C   0  0  2  0  0  3  0  0  0  0  0  0
  188.8490  174.8720  140.8870 C   0  0  0  0  0  2  0  0  0  0  0  0
  191.0280  173.7560  140.6940 C   0  0  1  0  0  3  0  0  0  0  0  0
  189.9470  174.1730  141.6820 C   0  0  1  0  0  3  0  0  0  0  0  0
  192.3280  173.4560  141.3200 N   0  0  0  0  0  2  0  0  0  0  0  0
  191.6330  174.0460  143.5450 C   0  0  2  0  0  3  0  0  0  0  0  0
  192.1670  172.9900  142.6460 N   0  0  0  0  0  0  0  0  0  0  0  0
  187.7520  177.1090  144.1060 C   0  0  0  0  0  0  0  0  0  0  0  0
  188.4340  177.9130  145.0260 C   0  0  0  0  0  3  0  0  0  0  0  0
  189.8120  177.7680  145.2080 C   0  0  0  0  0  3  0  0  0  0  0  0
  189.8520  176.0050  143.5420 C   0  0  0  0  0  0  0  0  0  0  0  0
  188.4680  176.1580  143.3670 C   0  0  0  0  0  3  0  0  0  0  0  0
  190.5180  176.8160  144.4670 C   0  0  0  0  0  3  0  0  0  0  0  0
  185.6740  178.2410  143.1200 C   0  0  0  0  0  0  0  0  0  0  0  0
  184.1880  178.2920  143.1060 C   0  0  0  0  0  1  0  0  0  0  0  0
  186.3360  177.2780  143.9510 N   0  0  0  0  0  2  0  0  0  0  0  0
  186.3240  179.0400  142.3950 O   0  0  0  0  0  0  0  0  0  0  0  0
  193.0840  170.2400  138.2320 C   0  0  0  0  0  2  0  0  0  0  0  0
  191.5140  172.1110  138.8530 C   0  0  0  0  0  0  0  0  0  0  0  0
  191.9580  172.8340  137.8640 N   0  0  0  0  0  0  0  0  0  0  0  0
  192.0740  170.8190  139.1140 N   0  0  0  0  0  2  0  0  0  0  0  0
  193.9150  171.3380  137.5670 C   0  0  1  0  0  3  0  0  0  0  0  0
  192.9690  172.3530  136.9190 C   0  0  0  0  0  2  0  0  0  0  0  0
  194.8330  172.0210  138.5710 C   0  0  0  0  0  2  0  0  0  0  0  0
  195.9030  172.7160  137.8660 N   0  0  0  0  0  0  0  0  0  0  0  0
  196.1870  173.9780  137.9990 C   0  0  0  0  0  0  0  0  0  0  0  0
  197.9390  174.9850  143.2600 C   0  0  0  0  0  2  0  0  0  0  0  0
  195.3190  176.4080  140.8960 C   0  0  0  0  0  2  0  0  0  0  0  0
  194.2710  175.2950  138.4740 O   0  0  0  0  0  0  0  0  0  0  0  0
  195.8720  175.2730  140.1700 N   0  0  0  0  0  0  0  0  0  0  0  0
  195.8570  175.4370  144.5520 C   0  0  0  0  0  2  0  0  0  0  0  0
  195.3870  174.8680  138.8800 C   0  0  0  0  0  0  0  0  0  0  0  0
  197.2900  175.5880  142.0050 C   0  0  2  0  0  3  0  0  0  0  0  0
  196.0310  176.4330  142.2410 C   0  0  2  0  0  3  0  0  0  0  0  0
  195.1020  175.8050  143.2820 C   0  0  0  0  0  2  0  0  0  0  0  0
  196.5360  173.3880  141.3600 O   0  0  0  0  0  1  0  0  0  0  0  0
  196.9670  174.6260  140.8700 C   0  0  1  0  0  3  0  0  0  0  0  0
  196.9110  174.3920  144.2170 C   0  0  0  0  0  2  0  0  0  0  0  0
  197.2980  174.5350  137.2010 C   0  0  0  0  0  0  0  0  0  0  0  0
  197.7760  175.6650  137.4880 O   0  0  0  0  0  0  0  0  0  0  0  0
  197.8640  173.7930  136.1230 N   0  0  0  0  0  1  0  0  0  0  0  0
  190.2340  172.1660  144.6420 C   0  0  0  0  0  2  0  0  0  0  0  0
  191.1680  173.3390  144.8460 C   0  0  0  0  0  3  0  0  0  0  0  0
  189.6920  173.4950  145.1380 C   0  0  0  0  0  2  0  0  0  0  0  0
  193.4840  172.5470  143.1220 C   0  0  0  0  0  2  0  0  0  0  0  0
  193.9790  171.2920  142.4020 C   0  0  0  0  0  1  0  0  0  0  0  0
  1  4  1  0  0  0  0
  1  2  1  0  0  0  0
  2  5  1  0  0  0  0
  3 14  1  1  0  0  0
  3  9  1  0  0  0  0
  4 22  1  6  0  0  0
  4  6  1  0  0  0  0
  6  8  1  1  0  0  0
  6  7  1  0  0  0  0
  7  5  1  6  0  0  0
  7  3  1  0  0  0  0
  8 10  1  0  0  0  0
  9 46  1  1  0  0  0
 10 48  1  0  0  0  0
 10  9  1  0  0  0  0
 11 12  1  0  0  0  0
 12 13  2  0  0  0  0
 14 16  2  0  0  0  0
 15 14  1  0  0  0  0
 15 11  2  0  0  0  0
 16 13  1  0  0  0  0
 17 19  1  0  0  0  0
 18 17  1  0  0  0  0
 19 11  1  0  0  0  0
 20 17  2  0  0  0  0
 21 24  1  0  0  0  0
 22 24  1  0  0  0  0
 23 22  2  0  0  0  0
 25 21  1  0  0  0  0
 25 27  1  1  0  0  0
 26 25  1  0  0  0  0
 26 23  1  0  0  0  0
 28 29  2  0  0  0  0
 28 27  1  0  0  0  0
 29 35  1  0  0  0  0
 30 41  1  0  0  0  0
 32 35  2  0  0  0  0
 33 40  1  0  0  0  0
 33 31  1  0  0  0  0
 35 33  1  0  0  0  0
 36 37  1  0  0  0  0
 36 30  1  1  0  0  0
 37 31  1  6  0  0  0
 37 38  1  0  0  0  0
 38 34  1  0  0  0  0
 40 39  1  1  0  0  0
 40 36  1  0  0  0  0
 41 34  1  0  0  0  0
 42 43  2  0  0  0  0
 42 29  1  0  0  0  0
 44 42  1  0  0  0  0
 45 46  1  0  0  0  0
 45 47  1  0  0  0  0
 46 47  1  0  0  0  0
 49 48  1  0  0  0  0
M  END
>  <MODEL>
5

>  <REMARK>
 VINA RESULT:      -6.5      3.826      9.001
  Name = 
  9 active torsions:
  status: ('A' for Active; 'I' for Inactive)
    1  A    between atoms: C_1  and  N_27
    2  A    between atoms: C_4  and  N_44
    3  A    between atoms: N_6  and  C_29
    4  A    between atoms: C_7  and  C_21
    5  A    between atoms: C_19  and  C_26
    6  A    between atoms: C_20  and  C_42
    7  A    between atoms: C_24  and  C_42
    8  A    between atoms: C_29  and  C_32
    9  A    between atoms: C_39  and  C_43
                            x       y       z     vdW  Elec       q    Type
                         _______ _______ _______ _____ _____    ______ ____

>  <TORSDO>
F 9

$$$$
=
 OpenBabel11062418193D

 49 55  0  0  1  0  0  0  0  0999 V2000
  190.5600  171.1360  142.8830 C   0  0  0  0  0  2  0  0  0  0  0  0
  191.7180  170.5750  143.7260 C   0  0  0  0  0  2  0  0  0  0  0  0
  194.2660  173.4500  143.0670 C   0  0  2  0  0  3  0  0  0  0  0  0
  191.0680  171.9640  141.6930 C   0  0  2  0  0  3  0  0  0  0  0  0
  192.6980  171.6770  144.1520 C   0  0  0  0  0  2  0  0  0  0  0  0
  192.0070  173.0420  142.2310 C   0  0  1  0  0  3  0  0  0  0  0  0
  193.2040  172.3750  142.8930 C   0  0  1  0  0  3  0  0  0  0  0  0
  192.3680  174.0930  141.2610 N   0  0  0  0  0  2  0  0  0  0  0  0
  194.7340  173.9490  141.6630 C   0  0  2  0  0  3  0  0  0  0  0  0
  193.6310  173.8410  140.6740 N   0  0  0  0  0  0  0  0  0  0  0  0
  196.7860  171.9710  145.5420 C   0  0  0  0  0  0  0  0  0  0  0  0
  197.1900  173.1280  146.2160 C   0  0  0  0  0  3  0  0  0  0  0  0
  196.6470  174.3700  145.8780 C   0  0  0  0  0  3  0  0  0  0  0  0
  195.2780  173.3150  144.1760 C   0  0  0  0  0  0  0  0  0  0  0  0
  195.8280  172.0710  144.5240 C   0  0  0  0  0  3  0  0  0  0  0  0
  195.6940  174.4620  144.8590 C   0  0  0  0  0  3  0  0  0  0  0  0
  196.7060  169.6140  146.5500 C   0  0  0  0  0  0  0  0  0  0  0  0
  197.4810  168.3910  146.8850 C   0  0  0  0  0  1  0  0  0  0  0  0
  197.3700  170.7130  145.9100 N   0  0  0  0  0  2  0  0  0  0  0  0
  195.4790  169.6610  146.8270 O   0  0  0  0  0  0  0  0  0  0  0  0
  189.0400  173.5810  138.8100 C   0  0  0  0  0  2  0  0  0  0  0  0
  189.9140  172.5360  140.9310 C   0  0  0  0  0  0  0  0  0  0  0  0
  188.7470  172.6690  141.4960 N   0  0  0  0  0  0  0  0  0  0  0  0
  190.1320  173.0170  139.6000 N   0  0  0  0  0  2  0  0  0  0  0  0
  187.9940  174.2280  139.7190 C   0  0  1  0  0  3  0  0  0  0  0  0
  187.5840  173.2220  140.7980 C   0  0  0  0  0  2  0  0  0  0  0  0
  188.5240  175.5080  140.3490 C   0  0  0  0  0  2  0  0  0  0  0  0
  187.4160  176.2870  140.8870 N   0  0  0  0  0  0  0  0  0  0  0  0
  187.5300  177.2350  141.7710 C   0  0  0  0  0  0  0  0  0  0  0  0
  189.7040  173.9890  145.8340 C   0  0  0  0  0  2  0  0  0  0  0  0
  190.9200  176.8290  143.6130 C   0  0  0  0  0  2  0  0  0  0  0  0
  189.3980  178.6730  142.0360 O   0  0  0  0  0  0  0  0  0  0  0  0
  189.5040  176.7120  143.2940 N   0  0  0  0  0  0  0  0  0  0  0  0
  191.1060  175.5300  147.2010 C   0  0  0  0  0  2  0  0  0  0  0  0
  188.8430  177.5890  142.3680 C   0  0  0  0  0  0  0  0  0  0  0  0
  190.0100  174.8240  144.5810 C   0  0  2  0  0  3  0  0  0  0  0  0
  191.1940  175.7930  144.6940 C   0  0  2  0  0  3  0  0  0  0  0  0
  191.2240  176.5130  146.0440 C   0  0  0  0  0  2  0  0  0  0  0  0
  188.0130  176.1200  144.9800 O   0  0  0  0  0  1  0  0  0  0  0  0
  188.8530  175.6120  143.9820 C   0  0  1  0  0  3  0  0  0  0  0  0
  189.7640  174.8180  147.1120 C   0  0  0  0  0  2  0  0  0  0  0  0
  186.3030  177.9220  142.2240 C   0  0  0  0  0  0  0  0  0  0  0  0
  186.2570  178.4350  143.3740 O   0  0  0  0  0  0  0  0  0  0  0  0
  185.1750  178.0430  141.3620 N   0  0  0  0  0  1  0  0  0  0  0  0
  195.7130  172.4090  139.8270 C   0  0  0  0  0  2  0  0  0  0  0  0
  195.9900  173.3140  141.0090 C   0  0  0  0  0  3  0  0  0  0  0  0
  196.0810  171.8130  141.1750 C   0  0  0  0  0  2  0  0  0  0  0  0
  193.8230  174.8260  139.6020 C   0  0  0  0  0  2  0  0  0  0  0  0
  193.0230  174.4890  138.3430 C   0  0  0  0  0  1  0  0  0  0  0  0
  1  2  1  0  0  0  0
  2  5  1  0  0  0  0
  3 14  1  6  0  0  0
  4 22  1  1  0  0  0
  4  6  1  0  0  0  0
  4  1  1  0  0  0  0
  6  8  1  6  0  0  0
  6  7  1  0  0  0  0
  7  3  1  0  0  0  0
  7  5  1  1  0  0  0
  9 46  1  6  0  0  0
  9  3  1  0  0  0  0
 10  8  1  0  0  0  0
 10  9  1  0  0  0  0
 11 19  1  0  0  0  0
 11 12  1  0  0  0  0
 13 12  2  0  0  0  0
 14 15  1  0  0  0  0
 14 16  2  0  0  0  0
 15 11  2  0  0  0  0
 16 13  1  0  0  0  0
 17 20  2  0  0  0  0
 17 18  1  0  0  0  0
 19 17  1  0  0  0  0
 21 24  1  0  0  0  0
 21 25  1  0  0  0  0
 22 23  2  0  0  0  0
 24 22  1  0  0  0  0
 25 27  1  1  0  0  0
 25 26  1  0  0  0  0
 26 23  1  0  0  0  0
 27 28  1  0  0  0  0
 28 29  2  0  0  0  0
 29 42  1  0  0  0  0
 29 35  1  0  0  0  0
 30 41  1  0  0  0  0
 32 35  2  0  0  0  0
 33 31  1  0  0  0  0
 33 40  1  0  0  0  0
 35 33  1  0  0  0  0
 36 37  1  0  0  0  0
 36 30  1  1  0  0  0
 37 31  1  6  0  0  0
 37 38  1  0  0  0  0
 38 34  1  0  0  0  0
 40 36  1  0  0  0  0
 40 39  1  1  0  0  0
 41 34  1  0  0  0  0
 42 43  2  0  0  0  0
 44 42  1  0  0  0  0
 45 46  1  0  0  0  0
 45 47  1  0  0  0  0
 46 47  1  0  0  0  0
 48 10  1  0  0  0  0
 49 48  1  0  0  0  0
M  END
>  <MODEL>
6

>  <REMARK>
 VINA RESULT:      -6.4      2.341      4.188
  Name = 
  9 active torsions:
  status: ('A' for Active; 'I' for Inactive)
    1  A    between atoms: C_1  and  N_27
    2  A    between atoms: C_4  and  N_44
    3  A    between atoms: N_6  and  C_29
    4  A    between atoms: C_7  and  C_21
    5  A    between atoms: C_19  and  C_26
    6  A    between atoms: C_20  and  C_42
    7  A    between atoms: C_24  and  C_42
    8  A    between atoms: C_29  and  C_32
    9  A    between atoms: C_39  and  C_43
                            x       y       z     vdW  Elec       q    Type
                         _______ _______ _______ _____ _____    ______ ____

>  <TORSDO>
F 9

$$$$
=
 OpenBabel11062418193D

 49 55  0  0  1  0  0  0  0  0999 V2000
  194.3420  175.4090  142.7510 C   0  0  0  0  0  2  0  0  0  0  0  0
  193.3500  176.4920  143.2100 C   0  0  0  0  0  2  0  0  0  0  0  0
  190.4160  174.1140  144.1750 C   0  0  2  0  0  3  0  0  0  0  0  0
  193.6230  174.1840  142.1660 C   0  0  2  0  0  3  0  0  0  0  0  0
  192.2890  175.9220  144.1620 C   0  0  0  0  0  2  0  0  0  0  0  0
  192.6150  173.6870  143.2010 C   0  0  1  0  0  3  0  0  0  0  0  0
  191.5800  174.7740  143.4520 C   0  0  1  0  0  3  0  0  0  0  0  0
  192.0350  172.3610  142.9160 N   0  0  0  0  0  2  0  0  0  0  0  0
  189.7550  173.0550  143.2370 C   0  0  2  0  0  3  0  0  0  0  0  0
  190.7610  172.4750  142.3100 N   0  0  0  0  0  0  0  0  0  0  0  0
  188.0560  176.8410  145.4630 C   0  0  0  0  0  0  0  0  0  0  0  0
  187.8920  176.4290  146.7910 C   0  0  0  0  0  3  0  0  0  0  0  0
  188.5450  175.2880  147.2640 C   0  0  0  0  0  3  0  0  0  0  0  0
  189.5420  174.9460  145.0780 C   0  0  0  0  0  0  0  0  0  0  0  0
  188.8830  176.0950  144.6130 C   0  0  0  0  0  3  0  0  0  0  0  0
  189.3670  174.5480  146.4080 C   0  0  0  0  0  3  0  0  0  0  0  0
  186.1510  178.0480  144.2450 C   0  0  0  0  0  0  0  0  0  0  0  0
  185.5880  179.3610  143.8330 C   0  0  0  0  0  1  0  0  0  0  0  0
  187.3640  178.0120  145.0090 N   0  0  0  0  0  2  0  0  0  0  0  0
  185.5470  176.9910  143.9220 O   0  0  0  0  0  0  0  0  0  0  0  0
  196.9820  172.2690  141.8860 C   0  0  0  0  0  2  0  0  0  0  0  0
  194.6170  173.1350  141.7810 C   0  0  0  0  0  0  0  0  0  0  0  0
  194.2780  172.1600  140.9860 N   0  0  0  0  0  0  0  0  0  0  0  0
  195.9720  173.2670  142.2290 N   0  0  0  0  0  2  0  0  0  0  0  0
  196.6570  171.6090  140.5460 C   0  0  1  0  0  3  0  0  0  0  0  0
  195.2100  171.1060  140.5770 C   0  0  0  0  0  2  0  0  0  0  0  0
  196.8670  172.5750  139.3880 C   0  0  0  0  0  2  0  0  0  0  0  0
  196.7680  171.8550  138.1230 N   0  0  0  0  0  0  0  0  0  0  0  0
  195.9500  172.1560  137.1570 C   0  0  0  0  0  0  0  0  0  0  0  0
  190.5360  171.0160  138.2280 C   0  0  0  0  0  2  0  0  0  0  0  0
  192.7560  174.1050  138.1810 C   0  0  0  0  0  2  0  0  0  0  0  0
  195.3550  174.4490  137.0280 O   0  0  0  0  0  0  0  0  0  0  0  0
  193.6230  173.0390  137.6980 N   0  0  0  0  0  0  0  0  0  0  0  0
  189.2700  172.8960  137.1930 C   0  0  0  0  0  2  0  0  0  0  0  0
  194.9770  173.2710  137.2780 C   0  0  0  0  0  0  0  0  0  0  0  0
  191.7090  171.9650  138.5130 C   0  0  2  0  0  3  0  0  0  0  0  0
  191.3970  173.4640  138.4230 C   0  0  2  0  0  3  0  0  0  0  0  0
  190.4980  173.7950  137.2300 C   0  0  0  0  0  2  0  0  0  0  0  0
  192.7040  171.3370  136.4060 O   0  0  0  0  0  1  0  0  0  0  0  0
  192.9870  171.7340  137.7180 C   0  0  1  0  0  3  0  0  0  0  0  0
  189.7180  171.4520  137.0180 C   0  0  0  0  0  2  0  0  0  0  0  0
  195.9650  171.3180  135.9410 C   0  0  0  0  0  0  0  0  0  0  0  0
  196.1100  170.0700  136.0380 O   0  0  0  0  0  0  0  0  0  0  0  0
  195.7820  171.8990  134.6520 N   0  0  0  0  0  1  0  0  0  0  0  0
  188.6160  173.0810  140.9140 C   0  0  0  0  0  2  0  0  0  0  0  0
  188.5280  173.4590  142.3760 C   0  0  0  0  0  3  0  0  0  0  0  0
  188.8240  174.5230  141.3420 C   0  0  0  0  0  2  0  0  0  0  0  0
  190.3450  171.1280  141.9000 C   0  0  0  0  0  2  0  0  0  0  0  0
  191.4790  170.1070  141.9960 C   0  0  0  0  0  1  0  0  0  0  0  0
  1  2  1  0  0  0  0
  2  5  1  0  0  0  0
  3 14  1  6  0  0  0
  4 22  1  1  0  0  0
  4  1  1  0  0  0  0
  4  6  1  0  0  0  0
  6  8  1  6  0  0  0
  6  7  1  0  0  0  0
  7  5  1  1  0  0  0
  7  3  1  0  0  0  0
  9 46  1  6  0  0  0
  9  3  1  0  0  0  0
 10  8  1  0  0  0  0
 10  9  1  0  0  0  0
 11 12  1  0  0  0  0
 12 13  2  0  0  0  0
 14 16  2  0  0  0  0
 15 14  1  0  0  0  0
 15 11  2  0  0  0  0
 16 13  1  0  0  0  0
 17 19  1  0  0  0  0
 18 17  1  0  0  0  0
 19 11  1  0  0  0  0
 20 17  2  0  0  0  0
 21 24  1  0  0  0  0
 22 24  1  0  0  0  0
 23 22  2  0  0  0  0
 25 27  1  6  0  0  0
 25 26  1  0  0  0  0
 25 21  1  0  0  0  0
 26 23  1  0  0  0  0
 28 27  1  0  0  0  0
 29 35  1  0  0  0  0
 29 28  2  0  0  0  0
 31 37  1  0  0  0  0
 32 35  2  0  0  0  0
 33 40  1  0  0  0  0
 33 31  1  0  0  0  0
 34 38  1  0  0  0  0
 35 33  1  0  0  0  0
 36 30  1  6  0  0  0
 37 38  1  6  0  0  0
 37 36  1  0  0  0  0
 40 39  1  6  0  0  0
 40 36  1  0  0  0  0
 41 34  1  0  0  0  0
 41 30  1  0  0  0  0
 42 43  2  0  0  0  0
 42 29  1  0  0  0  0
 44 42  1  0  0  0  0
 45 47  1  0  0  0  0
 45 46  1  0  0  0  0
 47 46  1  0  0  0  0
 48 49  1  0  0  0  0
 48 10  1  0  0  0  0
M  END
>  <MODEL>
7

>  <REMARK>
 VINA RESULT:      -6.3      4.172     10.063
  Name = 
  9 active torsions:
  status: ('A' for Active; 'I' for Inactive)
    1  A    between atoms: C_1  and  N_27
    2  A    between atoms: C_4  and  N_44
    3  A    between atoms: N_6  and  C_29
    4  A    between atoms: C_7  and  C_21
    5  A    between atoms: C_19  and  C_26
    6  A    between atoms: C_20  and  C_42
    7  A    between atoms: C_24  and  C_42
    8  A    between atoms: C_29  and  C_32
    9  A    between atoms: C_39  and  C_43
                            x       y       z     vdW  Elec       q    Type
                         _______ _______ _______ _____ _____    ______ ____

>  <TORSDO>
F 9

$$$$
=
 OpenBabel11062418193D

 49 55  0  0  1  0  0  0  0  0999 V2000
  189.0110  172.3970  139.4690 C   0  0  0  0  0  2  0  0  0  0  0  0
  188.2130  173.2130  140.5020 C   0  0  0  0  0  2  0  0  0  0  0  0
  191.2470  174.5150  142.5730 C   0  0  2  0  0  3  0  0  0  0  0  0
  190.3140  171.8410  140.0620 C   0  0  2  0  0  3  0  0  0  0  0  0
  189.0750  174.3020  141.1540 C   0  0  0  0  0  2  0  0  0  0  0  0
  191.1010  173.0080  140.6560 C   0  0  1  0  0  3  0  0  0  0  0  0
  190.2920  173.6330  141.7840 C   0  0  1  0  0  3  0  0  0  0  0  0
  192.4950  172.6950  141.0210 N   0  0  0  0  0  2  0  0  0  0  0  0
  192.3490  173.6260  143.2330 C   0  0  2  0  0  3  0  0  0  0  0  0
  192.6180  172.4230  142.4040 N   0  0  0  0  0  0  0  0  0  0  0  0
  189.0570  176.7080  144.8210 C   0  0  0  0  0  0  0  0  0  0  0  0
  189.7590  177.9170  144.7600 C   0  0  0  0  0  3  0  0  0  0  0  0
  190.9220  178.0210  143.9930 C   0  0  0  0  0  3  0  0  0  0  0  0
  190.7020  175.6970  143.3320 C   0  0  0  0  0  0  0  0  0  0  0  0
  189.5340  175.6030  144.1040 C   0  0  0  0  0  3  0  0  0  0  0  0
  191.3920  176.9130  143.2820 C   0  0  0  0  0  3  0  0  0  0  0  0
  186.5260  176.8830  145.1930 C   0  0  0  0  0  0  0  0  0  0  0  0
  185.4160  176.7870  146.1770 C   0  0  0  0  0  1  0  0  0  0  0  0
  187.8710  176.6340  145.6250 N   0  0  0  0  0  2  0  0  0  0  0  0
  186.2650  177.1730  143.9960 O   0  0  0  0  0  0  0  0  0  0  0  0
  192.5180  169.1250  138.3900 C   0  0  0  0  0  2  0  0  0  0  0  0
  191.0850  171.1010  139.0140 C   0  0  0  0  0  0  0  0  0  0  0  0
  191.2120  171.5930  137.8150 N   0  0  0  0  0  0  0  0  0  0  0  0
  191.7550  169.8880  139.3740 N   0  0  0  0  0  2  0  0  0  0  0  0
  193.0870  170.0490  137.3130 C   0  0  1  0  0  3  0  0  0  0  0  0
  191.9550  170.9140  136.7510 C   0  0  0  0  0  2  0  0  0  0  0  0
  194.2070  170.9190  137.8660 C   0  0  0  0  0  2  0  0  0  0  0  0
  194.5400  171.9630  136.9040 N   0  0  0  0  0  0  0  0  0  0  0  0
  195.6180  172.6910  136.9360 C   0  0  0  0  0  0  0  0  0  0  0  0
  195.1570  175.8610  141.5730 C   0  0  0  0  0  2  0  0  0  0  0  0
  197.1930  172.8380  140.4780 C   0  0  0  0  0  2  0  0  0  0  0  0
  197.6230  171.8050  137.8420 O   0  0  0  0  0  0  0  0  0  0  0  0
  196.4590  173.2240  139.2810 N   0  0  0  0  0  0  0  0  0  0  0  0
  197.4920  176.1270  142.4000 C   0  0  0  0  0  2  0  0  0  0  0  0
  196.6210  172.5500  138.0230 C   0  0  0  0  0  0  0  0  0  0  0  0
  195.5120  174.4730  141.0190 C   0  0  2  0  0  3  0  0  0  0  0  0
  196.8120  173.8520  141.5480 C   0  0  2  0  0  3  0  0  0  0  0  0
  197.9410  174.8800  141.6510 C   0  0  0  0  0  2  0  0  0  0  0  0
  196.0420  175.4790  138.8900 O   0  0  0  0  0  1  0  0  0  0  0  0
  195.5400  174.3260  139.5040 C   0  0  1  0  0  3  0  0  0  0  0  0
  196.3640  176.7910  141.6260 C   0  0  0  0  0  2  0  0  0  0  0  0
  195.8010  173.7190  135.8910 C   0  0  0  0  0  0  0  0  0  0  0  0
  196.8550  174.4080  135.8640 O   0  0  0  0  0  0  0  0  0  0  0  0
  194.8100  173.9220  134.8870 N   0  0  0  0  0  1  0  0  0  0  0  0
  192.4590  174.1620  145.7630 C   0  0  0  0  0  2  0  0  0  0  0  0
  192.1580  173.1350  144.6930 C   0  0  0  0  0  3  0  0  0  0  0  0
  193.4440  173.0400  145.4850 C   0  0  0  0  0  2  0  0  0  0  0  0
  193.9870  171.9480  142.6410 C   0  0  0  0  0  2  0  0  0  0  0  0
  194.3030  170.6590  141.8810 C   0  0  0  0  0  1  0  0  0  0  0  0
  1  4  1  0  0  0  0
  1  2  1  0  0  0  0
  2  5  1  0  0  0  0
  3  9  1  0  0  0  0
  3 14  1  1  0  0  0
  4 22  1  6  0  0  0
  4  6  1  0  0  0  0
  6  8  1  1  0  0  0
  6  7  1  0  0  0  0
  7  5  1  6  0  0  0
  7  3  1  0  0  0  0
  8 10  1  0  0  0  0
  9 46  1  1  0  0  0
 10 48  1  0  0  0  0
 10  9  1  0  0  0  0
 11 19  1  0  0  0  0
 12 11  1  0  0  0  0
 13 12  2  0  0  0  0
 14 15  1  0  0  0  0
 15 11  2  0  0  0  0
 16 14  2  0  0  0  0
 16 13  1  0  0  0  0
 17 19  1  0  0  0  0
 17 18  1  0  0  0  0
 20 17  2  0  0  0  0
 21 24  1  0  0  0  0
 22 24  1  0  0  0  0
 23 22  2  0  0  0  0
 25 27  1  1  0  0  0
 25 21  1  0  0  0  0
 26 25  1  0  0  0  0
 26 23  1  0  0  0  0
 28 29  2  0  0  0  0
 28 27  1  0  0  0  0
 29 35  1  0  0  0  0
 30 41  1  0  0  0  0
 32 35  2  0  0  0  0
 33 40  1  0  0  0  0
 33 31  1  0  0  0  0
 35 33  1  0  0  0  0
 36 37  1  0  0  0  0
 36 30  1  6  0  0  0
 37 31  1  6  0  0  0
 37 38  1  0  0  0  0
 38 34  1  0  0  0  0
 40 39  1  6  0  0  0
 40 36  1  0  0  0  0
 41 34  1  0  0  0  0
 42 29  1  0  0  0  0
 43 42  2  0  0  0  0
 44 42  1  0  0  0  0
 46 47  1  0  0  0  0
 46 45  1  0  0  0  0
 47 45  1  0  0  0  0
 49 48  1  0  0  0  0
M  END
>  <MODEL>
8

>  <REMARK>
 VINA RESULT:      -6.3      4.099      9.118
  Name = 
  9 active torsions:
  status: ('A' for Active; 'I' for Inactive)
    1  A    between atoms: C_1  and  N_27
    2  A    between atoms: C_4  and  N_44
    3  A    between atoms: N_6  and  C_29
    4  A    between atoms: C_7  and  C_21
    5  A    between atoms: C_19  and  C_26
    6  A    between atoms: C_20  and  C_42
    7  A    between atoms: C_24  and  C_42
    8  A    between atoms: C_29  and  C_32
    9  A    between atoms: C_39  and  C_43
                            x       y       z     vdW  Elec       q    Type
                         _______ _______ _______ _____ _____    ______ ____

>  <TORSDO>
F 9

$$$$
=
 OpenBabel11062418193D

 49 55  0  0  1  0  0  0  0  0999 V2000
  192.4940  178.0270  144.1490 C   0  0  0  0  0  2  0  0  0  0  0  0
  191.1920  178.8040  143.8850 C   0  0  0  0  0  2  0  0  0  0  0  0
  188.7160  175.8460  144.4480 C   0  0  2  0  0  3  0  0  0  0  0  0
  192.3700  176.5490  143.7520 C   0  0  2  0  0  3  0  0  0  0  0  0
  189.9820  178.1200  144.5360 C   0  0  0  0  0  2  0  0  0  0  0  0
  191.1560  175.9640  144.4740 C   0  0  1  0  0  3  0  0  0  0  0  0
  189.9020  176.6910  144.0080 C   0  0  1  0  0  3  0  0  0  0  0  0
  191.0500  174.4950  144.4220 N   0  0  0  0  0  2  0  0  0  0  0  0
  188.7550  174.4720  143.7080 C   0  0  2  0  0  3  0  0  0  0  0  0
  190.1560  174.0770  143.4090 N   0  0  0  0  0  0  0  0  0  0  0  0
  185.3120  177.5080  143.8900 C   0  0  0  0  0  0  0  0  0  0  0  0
  184.9060  177.7070  145.2140 C   0  0  0  0  0  3  0  0  0  0  0  0
  185.7280  177.3150  146.2730 C   0  0  0  0  0  3  0  0  0  0  0  0
  187.3870  176.5130  144.6950 C   0  0  0  0  0  0  0  0  0  0  0  0
  186.5540  176.9110  143.6380 C   0  0  0  0  0  3  0  0  0  0  0  0
  186.9660  176.7190  146.0130 C   0  0  0  0  0  3  0  0  0  0  0  0
  184.8180  178.2310  141.4800 C   0  0  0  0  0  0  0  0  0  0  0  0
  183.7770  178.6650  140.5130 C   0  0  0  0  0  1  0  0  0  0  0  0
  184.4390  177.9140  142.8260 N   0  0  0  0  0  2  0  0  0  0  0  0
  186.0150  178.1420  141.0980 O   0  0  0  0  0  0  0  0  0  0  0  0
  195.6600  174.5580  143.2580 C   0  0  0  0  0  2  0  0  0  0  0  0
  193.6360  175.8180  144.0740 C   0  0  0  0  0  0  0  0  0  0  0  0
  193.9840  175.6090  145.3120 N   0  0  0  0  0  0  0  0  0  0  0  0
  194.4140  175.2760  143.0010 N   0  0  0  0  0  2  0  0  0  0  0  0
  195.6160  173.8720  144.6240 C   0  0  1  0  0  3  0  0  0  0  0  0
  195.2110  174.9010  145.6840 C   0  0  0  0  0  2  0  0  0  0  0  0
  194.6530  172.6930  144.6210 C   0  0  0  0  0  2  0  0  0  0  0  0
  195.4050  171.4440  144.5890 N   0  0  0  0  0  0  0  0  0  0  0  0
  194.9320  170.3000  144.1890 C   0  0  0  0  0  0  0  0  0  0  0  0
  193.6260  170.7960  138.7300 C   0  0  0  0  0  2  0  0  0  0  0  0
  191.8810  169.6080  141.8960 C   0  0  0  0  0  2  0  0  0  0  0  0
  192.6180  170.0220  144.6320 O   0  0  0  0  0  0  0  0  0  0  0  0
  193.1630  170.1150  142.3660 N   0  0  0  0  0  0  0  0  0  0  0  0
  191.2760  171.6250  138.7080 C   0  0  0  0  0  2  0  0  0  0  0  0
  193.5190  170.1480  143.7580 C   0  0  0  0  0  0  0  0  0  0  0  0
  193.3440  170.0360  140.0340 C   0  0  2  0  0  3  0  0  0  0  0  0
  191.8650  169.8420  140.3910 C   0  0  2  0  0  3  0  0  0  0  0  0
  191.0350  171.0980  140.1150 C   0  0  0  0  0  2  0  0  0  0  0  0
  194.1160  171.9460  141.2930 O   0  0  0  0  0  1  0  0  0  0  0  0
  194.0350  170.5490  141.2900 C   0  0  1  0  0  3  0  0  0  0  0  0
  192.7380  172.0250  138.5710 C   0  0  0  0  0  2  0  0  0  0  0  0
  195.8220  169.1220  144.2300 C   0  0  0  0  0  0  0  0  0  0  0  0
  196.5730  168.8650  143.2510 O   0  0  0  0  0  0  0  0  0  0  0  0
  195.8690  168.2830  145.3820 N   0  0  0  0  0  1  0  0  0  0  0  0
  188.7230  173.7120  141.2340 C   0  0  0  0  0  2  0  0  0  0  0  0
  187.9450  174.2890  142.3970 C   0  0  0  0  0  3  0  0  0  0  0  0
  188.3870  175.1930  141.2670 C   0  0  0  0  0  2  0  0  0  0  0  0
  190.2530  172.6150  143.3100 C   0  0  0  0  0  2  0  0  0  0  0  0
  189.6960  171.9020  144.5430 C   0  0  0  0  0  1  0  0  0  0  0  0
  2  1  1  0  0  0  0
  2  5  1  0  0  0  0
  3 14  1  6  0  0  0
  4 22  1  1  0  0  0
  4  1  1  0  0  0  0
  4  6  1  0  0  0  0
  6  8  1  6  0  0  0
  7  3  1  0  0  0  0
  7  6  1  0  0  0  0
  7  5  1  1  0  0  0
  9 46  1  6  0  0  0
  9  3  1  0  0  0  0
 10  9  1  0  0  0  0
 10  8  1  0  0  0  0
 11 12  1  0  0  0  0
 12 13  2  0  0  0  0
 14 16  2  0  0  0  0
 15 11  2  0  0  0  0
 15 14  1  0  0  0  0
 16 13  1  0  0  0  0
 17 19  1  0  0  0  0
 18 17  1  0  0  0  0
 19 11  1  0  0  0  0
 20 17  2  0  0  0  0
 21 25  1  0  0  0  0
 22 23  2  0  0  0  0
 23 26  1  0  0  0  0
 24 21  1  0  0  0  0
 24 22  1  0  0  0  0
 25 27  1  6  0  0  0
 25 26  1  0  0  0  0
 28 27  1  0  0  0  0
 29 42  1  0  0  0  0
 29 28  2  0  0  0  0
 31 33  1  0  0  0  0
 33 35  1  0  0  0  0
 34 38  1  0  0  0  0
 35 29  1  0  0  0  0
 35 32  2  0  0  0  0
 36 30  1  6  0  0  0
 36 37  1  0  0  0  0
 36 40  1  0  0  0  0
 37 38  1  1  0  0  0
 37 31  1  0  0  0  0
 40 39  1  6  0  0  0
 40 33  1  0  0  0  0
 41 34  1  0  0  0  0
 41 30  1  0  0  0  0
 42 44  1  0  0  0  0
 43 42  2  0  0  0  0
 45 47  1  0  0  0  0
 45 46  1  0  0  0  0
 47 46  1  0  0  0  0
 48 10  1  0  0  0  0
 48 49  1  0  0  0  0
M  END
>  <MODEL>
9

>  <REMARK>
 VINA RESULT:      -6.3      2.779      9.368
  Name = 
  9 active torsions:
  status: ('A' for Active; 'I' for Inactive)
    1  A    between atoms: C_1  and  N_27
    2  A    between atoms: C_4  and  N_44
    3  A    between atoms: N_6  and  C_29
    4  A    between atoms: C_7  and  C_21
    5  A    between atoms: C_19  and  C_26
    6  A    between atoms: C_20  and  C_42
    7  A    between atoms: C_24  and  C_42
    8  A    between atoms: C_29  and  C_32
    9  A    between atoms: C_39  and  C_43
                            x       y       z     vdW  Elec       q    Type
                         _______ _______ _______ _____ _____    ______ ____

>  <TORSDO>
F 9

$$$$
