=
 OpenBabel11062421363D

 52 57  0  0  1  0  0  0  0  0999 V2000
  185.4950  176.7460  142.4330 O   0  0  0  0  0  1  0  0  0  0  0  0
  186.4290  176.6120  138.2020 N   0  0  0  0  0  2  0  0  0  0  0  0
  186.4030  177.5150  141.6900 C   0  0  1  0  0  0  0  0  0  0  0  0
  187.7360  176.7550  141.4880 C   0  0  2  0  0  3  0  0  0  0  0  0
  185.8390  177.7360  140.2810 C   0  0  0  0  0  2  0  0  0  0  0  0
  187.6830  176.1750  140.1580 N   0  0  0  0  0  2  0  0  0  0  0  0
  186.6050  176.7700  139.4680 C   0  0  0  0  0  0  0  0  0  0  0  0
  188.0250  175.6780  142.5300 C   0  0  0  0  0  2  0  0  0  0  0  0
  188.8680  174.5710  141.9220 C   0  0  0  0  0  2  0  0  0  0  0  0
  189.6960  173.8650  142.9800 C   0  0  0  0  0  2  0  0  0  0  0  0
  189.7330  172.3470  142.7790 C   0  0  2  0  0  3  0  0  0  0  0  0
  188.5580  171.7600  143.2530 O   0  0  0  0  0  1  0  0  0  0  0  0
  190.8420  171.7870  143.4340 O   0  0  0  0  0  0  0  0  0  0  0  0
  191.7650  171.3140  142.4700 C   0  0  2  0  0  3  0  0  0  0  0  0
  194.0460  171.7870  143.6660 C   0  0  1  0  0  0  0  0  0  0  0  0
  195.5850  173.8760  143.6060 C   0  0  0  0  0  3  0  0  0  0  0  0
  197.1440  174.0460  145.4610 C   0  0  0  0  0  3  0  0  0  0  0  0
  193.1850  173.3340  141.9590 O   0  0  0  0  0  1  0  0  0  0  0  0
  193.1210  172.0420  142.4880 C   0  0  2  0  0  0  0  0  0  0  0  0
  193.9550  170.6980  144.6800 C   0  0  0  0  0  0  0  0  0  0  0  0
  196.6570  172.8480  146.0030 C   0  0  0  0  0  3  0  0  0  0  0  0
  194.3700  171.2110  142.2870 C   0  0  0  0  0  2  0  0  0  0  0  0
  195.1240  172.6760  144.1470 C   0  0  0  0  0  0  0  0  0  0  0  0
  194.9740  170.9010  145.7680 C   0  0  2  0  0  3  0  0  0  0  0  0
  195.6430  172.1730  145.3270 C   0  0  0  0  0  0  0  0  0  0  0  0
  195.8930  169.8520  145.7450 O   0  0  0  0  0  1  0  0  0  0  0  0
  193.1540  169.7790  144.6510 O   0  0  0  0  0  0  0  0  0  0  0  0
  196.6120  174.5650  144.2620 C   0  0  0  0  0  0  0  0  0  0  0  0
  197.0810  175.7590  143.7090 O   0  0  0  0  0  0  0  0  0  0  0  0
  196.3600  176.4850  142.7300 C   0  0  0  0  0  1  0  0  0  0  0  0
  190.9610  169.7540  140.7180 C   0  0  0  0  0  2  0  0  0  0  0  0
  191.1530  171.2110  141.0760 C   0  0  0  0  0  3  0  0  0  0  0  0
  192.1280  170.5260  140.1460 C   0  0  0  0  0  2  0  0  0  0  0  0
  186.6730  178.7900  142.3570 N   0  0  0  0  0  2  0  0  0  0  0  0
  185.5080  179.2380  143.1060 C   0  0  0  0  0  2  0  0  0  0  0  0
  185.9250  179.5770  144.5250 C   0  0  0  0  0  2  0  0  0  0  0  0
  184.3210  178.3690  145.7670 C   0  0  0  0  0  1  0  0  0  0  0  0
  185.7240  178.4190  145.3880 N   0  0  0  0  0  0  0  0  0  0  0  0
  186.5720  178.5060  146.5870 C   0  0  0  0  0  2  0  0  0  0  0  0
  186.2000  176.6260  148.0650 N   0  0  0  0  0  2  0  0  0  0  0  0
  186.9590  177.1720  147.1730 C   0  0  0  0  0  0  0  0  0  0  0  0
  188.2900  175.2300  146.9080 O   0  0  0  0  0  0  0  0  0  0  0  0
  189.1710  177.1800  145.9720 N   0  0  0  0  0  2  0  0  0  0  0  0
  188.1590  176.4650  146.6910 C   0  0  0  0  0  0  0  0  0  0  0  0
  190.8430  177.1100  144.1550 C   0  0  1  0  0  3  0  0  0  0  0  0
  193.1200  176.0690  144.7940 C   0  0  0  0  0  3  0  0  0  0  0  0
  190.8980  178.6320  144.1460 C   0  0  0  0  0  1  0  0  0  0  0  0
  192.1830  176.5470  143.7660 C   0  0  0  0  0  0  0  0  0  0  0  0
  192.5040  176.4930  142.5510 O   0  0  0  0  0  0  0  0  0  0  0  0
  191.5160  176.7350  146.5610 C   0  0  0  0  0  2  0  0  0  0  0  0
  192.8040  176.1240  146.0920 C   0  0  0  0  0  3  0  0  0  0  0  0
  190.4080  176.5510  145.5200 C   0  0  1  0  0  3  0  0  0  0  0  0
  2  7  2  0  0  0  0
  3 34  1  0  0  0  0
  3  1  1  1  0  0  0
  4  3  1  0  0  0  0
  4  8  1  1  0  0  0
  5  3  1  0  0  0  0
  6  4  1  0  0  0  0
  7  6  1  0  0  0  0
  7  5  1  0  0  0  0
  9  8  1  0  0  0  0
  9 10  1  0  0  0  0
 11 10  1  0  0  0  0
 11 12  1  1  0  0  0
 11 13  1  0  0  0  0
 14 19  1  0  0  0  0
 14 13  1  1  0  0  0
 15 22  1  6  0  0  0
 15 23  1  0  0  0  0
 15 20  1  0  0  0  0
 16 23  2  0  0  0  0
 16 28  1  0  0  0  0
 17 21  1  0  0  0  0
 19 18  1  6  0  0  0
 19 15  1  0  0  0  0
 20 24  1  0  0  0  0
 22 19  1  0  0  0  0
 23 25  1  0  0  0  0
 24 26  1  6  0  0  0
 25 24  1  0  0  0  0
 25 21  2  0  0  0  0
 27 20  2  0  0  0  0
 28 17  2  0  0  0  0
 29 28  1  0  0  0  0
 30 29  1  0  0  0  0
 31 32  1  0  0  0  0
 32 14  1  0  0  0  0
 33 31  1  0  0  0  0
 33 32  1  0  0  0  0
 34 35  1  0  0  0  0
 35 36  1  0  0  0  0
 36 38  1  0  0  0  0
 38 37  1  0  0  0  0
 38 39  1  0  0  0  0
 39 41  1  0  0  0  0
 41 40  2  0  0  0  0
 43 44  1  0  0  0  0
 44 42  2  0  0  0  0
 44 41  1  0  0  0  0
 45 47  1  1  0  0  0
 45 52  1  0  0  0  0
 46 51  2  0  0  0  0
 48 45  1  0  0  0  0
 48 46  1  0  0  0  0
 49 48  2  0  0  0  0
 51 50  1  0  0  0  0
 52 43  1  1  0  0  0
 52 50  1  0  0  0  0
M  END
>  <MODEL>
1

>  <REMARK>
 VINA RESULT:      -6.7      0.000      0.000
  Name = 
  17 active torsions:
  status: ('A' for Active; 'I' for Inactive)
    1  A    between atoms: C_1  and  C_5
    2  A    between atoms: C_1  and  N_26
    3  A    between atoms: C_3  and  C_24
    4  A    between atoms: C_3  and  O_51
    5  A    between atoms: C_5  and  C_31
    6  A    between atoms: C_13  and  C_17
    7  A    between atoms: C_13  and  C_18
    8  A    between atoms: C_13  and  O_51
    9  A    between atoms: C_15  and  N_22
   10  A    between atoms: C_15  and  C_27
   11  A    between atoms: C_16  and  N_22
   12  A    between atoms: C_23  and  C_35
   13  A    between atoms: C_24  and  C_28
   14  A    between atoms: N_25  and  C_50
   15  A    between atoms: N_26  and  C_27
   16  A    between atoms: C_28  and  C_35
   17  A    between atoms: O_34  and  C_52
                            x       y       z     vdW  Elec       q    Type
                         _______ _______ _______ _____ _____    ______ ____

>  <TORSDO>
F 17

$$$$
=
 OpenBabel11062421363D

 52 57  0  0  1  0  0  0  0  0999 V2000
  191.1460  174.1460  140.9680 O   0  0  0  0  0  1  0  0  0  0  0  0
  188.2440  174.0120  137.7490 N   0  0  0  0  0  2  0  0  0  0  0  0
  190.6030  173.0420  140.2940 C   0  0  1  0  0  0  0  0  0  0  0  0
  189.2190  172.6650  140.8740 C   0  0  2  0  0  3  0  0  0  0  0  0
  190.3460  173.4230  138.8310 C   0  0  0  0  0  2  0  0  0  0  0  0
  188.2280  173.2460  139.9860 N   0  0  0  0  0  2  0  0  0  0  0  0
  188.8870  173.6500  138.8060 C   0  0  0  0  0  0  0  0  0  0  0  0
  188.9800  173.1190  142.3110 C   0  0  0  0  0  2  0  0  0  0  0  0
  189.2500  171.9760  143.2750 C   0  0  0  0  0  2  0  0  0  0  0  0
  190.6730  172.0230  143.7990 C   0  0  0  0  0  2  0  0  0  0  0  0
  190.8700  173.1030  144.8670 C   0  0  2  0  0  3  0  0  0  0  0  0
  189.6810  173.3300  145.5620 O   0  0  0  0  0  1  0  0  0  0  0  0
  191.3170  174.3010  144.2850 O   0  0  0  0  0  0  0  0  0  0  0  0
  190.9440  175.3900  145.1100 C   0  0  2  0  0  3  0  0  0  0  0  0
  188.6770  176.7010  145.0470 C   0  0  1  0  0  0  0  0  0  0  0  0
  187.3470  177.6810  143.0470 C   0  0  0  0  0  3  0  0  0  0  0  0
  184.9990  178.1110  143.4970 C   0  0  0  0  0  3  0  0  0  0  0  0
  190.0590  176.4930  143.0230 O   0  0  0  0  0  1  0  0  0  0  0  0
  190.0320  176.4180  144.4180 C   0  0  2  0  0  0  0  0  0  0  0  0
  188.2120  176.3360  146.4150 C   0  0  0  0  0  0  0  0  0  0  0  0
  185.1490  177.6490  144.8130 C   0  0  0  0  0  3  0  0  0  0  0  0
  189.7990  177.7390  145.1200 C   0  0  0  0  0  2  0  0  0  0  0  0
  187.4850  177.2420  144.3620 C   0  0  0  0  0  0  0  0  0  0  0  0
  186.7530  176.6600  146.5820 C   0  0  2  0  0  3  0  0  0  0  0  0
  186.4070  177.2180  145.2300 C   0  0  0  0  0  0  0  0  0  0  0  0
  186.6060  177.6500  147.5530 O   0  0  0  0  0  1  0  0  0  0  0  0
  188.9060  175.8240  147.2780 O   0  0  0  0  0  0  0  0  0  0  0  0
  186.0950  178.1300  142.6090 C   0  0  0  0  0  0  0  0  0  0  0  0
  185.9640  178.5830  141.2940 O   0  0  0  0  0  0  0  0  0  0  0  0
  185.2440  177.8680  140.3060 C   0  0  0  0  0  1  0  0  0  0  0  0
  193.0210  174.9320  146.3850 C   0  0  0  0  0  2  0  0  0  0  0  0
  192.1370  176.0220  145.8200 C   0  0  0  0  0  3  0  0  0  0  0  0
  192.0810  175.6920  147.2930 C   0  0  0  0  0  2  0  0  0  0  0  0
  191.4960  171.8850  140.3900 N   0  0  0  0  0  2  0  0  0  0  0  0
  190.8380  170.6820  139.9030 C   0  0  0  0  0  2  0  0  0  0  0  0
  191.2830  169.4950  140.7360 C   0  0  0  0  0  2  0  0  0  0  0  0
  193.0990  168.8710  139.3620 C   0  0  0  0  0  1  0  0  0  0  0  0
  192.7350  169.3700  140.6790 N   0  0  0  0  0  0  0  0  0  0  0  0
  193.2230  168.4540  141.7230 C   0  0  0  0  0  2  0  0  0  0  0  0
  192.7290  168.9030  144.0490 N   0  0  0  0  0  2  0  0  0  0  0  0
  193.5140  169.1170  143.0450 C   0  0  0  0  0  0  0  0  0  0  0  0
  195.7940  169.6240  142.6450 O   0  0  0  0  0  0  0  0  0  0  0  0
  194.6580  171.1410  144.0080 N   0  0  0  0  0  2  0  0  0  0  0  0
  194.7160  169.9540  143.2110 C   0  0  0  0  0  0  0  0  0  0  0  0
  195.9040  173.1330  143.2450 C   0  0  1  0  0  3  0  0  0  0  0  0
  197.5290  174.1470  144.9800 C   0  0  0  0  0  3  0  0  0  0  0  0
  194.6020  173.9170  143.1620 C   0  0  0  0  0  1  0  0  0  0  0  0
  197.0380  174.0590  143.5960 C   0  0  0  0  0  0  0  0  0  0  0  0
  197.5610  174.7660  142.6980 O   0  0  0  0  0  0  0  0  0  0  0  0
  195.8040  172.5170  145.6930 C   0  0  0  0  0  2  0  0  0  0  0  0
  196.9810  173.4100  145.9520 C   0  0  0  0  0  3  0  0  0  0  0  0
  195.8260  171.9800  144.2590 C   0  0  1  0  0  3  0  0  0  0  0  0
  2  7  2  0  0  0  0
  3 34  1  0  0  0  0
  3  4  1  0  0  0  0
  3  1  1  1  0  0  0
  4  8  1  1  0  0  0
  5  3  1  0  0  0  0
  6  4  1  0  0  0  0
  7  5  1  0  0  0  0
  7  6  1  0  0  0  0
  8  9  1  0  0  0  0
  9 10  1  0  0  0  0
 10 11  1  0  0  0  0
 11 12  1  6  0  0  0
 13 11  1  0  0  0  0
 14 13  1  6  0  0  0
 14 32  1  0  0  0  0
 15 22  1  1  0  0  0
 15 20  1  0  0  0  0
 16 23  1  0  0  0  0
 17 21  2  0  0  0  0
 19 18  1  6  0  0  0
 19 15  1  0  0  0  0
 19 14  1  0  0  0  0
 19 22  1  0  0  0  0
 20 24  1  0  0  0  0
 20 27  2  0  0  0  0
 21 25  1  0  0  0  0
 23 15  1  0  0  0  0
 23 25  2  0  0  0  0
 24 26  1  1  0  0  0
 25 24  1  0  0  0  0
 28 16  2  0  0  0  0
 28 17  1  0  0  0  0
 29 28  1  0  0  0  0
 30 29  1  0  0  0  0
 31 33  1  0  0  0  0
 32 31  1  0  0  0  0
 32 33  1  0  0  0  0
 35 34  1  0  0  0  0
 35 36  1  0  0  0  0
 37 38  1  0  0  0  0
 38 36  1  0  0  0  0
 38 39  1  0  0  0  0
 39 41  1  0  0  0  0
 41 44  1  0  0  0  0
 41 40  2  0  0  0  0
 42 44  2  0  0  0  0
 44 43  1  0  0  0  0
 45 47  1  1  0  0  0
 45 48  1  0  0  0  0
 45 52  1  0  0  0  0
 46 51  2  0  0  0  0
 48 46  1  0  0  0  0
 49 48  2  0  0  0  0
 50 51  1  0  0  0  0
 52 43  1  6  0  0  0
 52 50  1  0  0  0  0
M  END
>  <MODEL>
2

>  <REMARK>
 VINA RESULT:      -6.6      2.873      8.363
  Name = 
  17 active torsions:
  status: ('A' for Active; 'I' for Inactive)
    1  A    between atoms: C_1  and  C_5
    2  A    between atoms: C_1  and  N_26
    3  A    between atoms: C_3  and  C_24
    4  A    between atoms: C_3  and  O_51
    5  A    between atoms: C_5  and  C_31
    6  A    between atoms: C_13  and  C_17
    7  A    between atoms: C_13  and  C_18
    8  A    between atoms: C_13  and  O_51
    9  A    between atoms: C_15  and  N_22
   10  A    between atoms: C_15  and  C_27
   11  A    between atoms: C_16  and  N_22
   12  A    between atoms: C_23  and  C_35
   13  A    between atoms: C_24  and  C_28
   14  A    between atoms: N_25  and  C_50
   15  A    between atoms: N_26  and  C_27
   16  A    between atoms: C_28  and  C_35
   17  A    between atoms: O_34  and  C_52
                            x       y       z     vdW  Elec       q    Type
                         _______ _______ _______ _____ _____    ______ ____

>  <TORSDO>
F 17

$$$$
=
 OpenBabel11062421363D

 52 57  0  0  1  0  0  0  0  0999 V2000
  188.4650  173.1590  138.1040 O   0  0  0  0  0  1  0  0  0  0  0  0
  190.0380  169.1260  137.8640 N   0  0  0  0  0  2  0  0  0  0  0  0
  189.7890  172.7060  138.1930 C   0  0  1  0  0  0  0  0  0  0  0  0
  190.1070  172.1990  139.6200 C   0  0  2  0  0  3  0  0  0  0  0  0
  189.9660  171.4900  137.2760 C   0  0  0  0  0  2  0  0  0  0  0  0
  189.9880  170.7530  139.5800 N   0  0  0  0  0  2  0  0  0  0  0  0
  189.9370  170.3590  138.2260 C   0  0  0  0  0  0  0  0  0  0  0  0
  189.2200  172.7790  140.7180 C   0  0  0  0  0  2  0  0  0  0  0  0
  189.7350  172.3610  142.0850 C   0  0  0  0  0  2  0  0  0  0  0  0
  190.8710  173.2580  142.5430 C   0  0  0  0  0  2  0  0  0  0  0  0
  190.9710  173.3430  144.0700 C   0  0  2  0  0  3  0  0  0  0  0  0
  191.4380  172.1390  144.6000 O   0  0  0  0  0  1  0  0  0  0  0  0
  189.7220  173.6580  144.6320 O   0  0  0  0  0  0  0  0  0  0  0  0
  189.8000  174.9230  145.2640 C   0  0  2  0  0  3  0  0  0  0  0  0
  187.8090  176.6210  145.1630 C   0  0  1  0  0  0  0  0  0  0  0  0
  186.5850  177.6720  143.1300 C   0  0  0  0  0  3  0  0  0  0  0  0
  184.3780  178.5610  143.6180 C   0  0  0  0  0  3  0  0  0  0  0  0
  189.0330  176.0060  143.1210 O   0  0  0  0  0  1  0  0  0  0  0  0
  189.0580  176.0450  144.5170 C   0  0  2  0  0  0  0  0  0  0  0  0
  187.3490  176.4550  146.5720 C   0  0  0  0  0  0  0  0  0  0  0  0
  184.5040  178.1830  144.9630 C   0  0  0  0  0  3  0  0  0  0  0  0
  189.1020  177.4360  145.1120 C   0  0  0  0  0  2  0  0  0  0  0  0
  186.7030  177.3180  144.4740 C   0  0  0  0  0  0  0  0  0  0  0  0
  185.9830  177.0540  146.7570 C   0  0  2  0  0  3  0  0  0  0  0  0
  185.6810  177.5610  145.3740 C   0  0  0  0  0  0  0  0  0  0  0  0
  186.0630  178.1270  147.6450 O   0  0  0  0  0  1  0  0  0  0  0  0
  187.9790  175.8920  147.4520 O   0  0  0  0  0  0  0  0  0  0  0  0
  185.4160  178.3090  142.6970 C   0  0  0  0  0  0  0  0  0  0  0  0
  185.3080  178.6750  141.3540 O   0  0  0  0  0  0  0  0  0  0  0  0
  184.2120  178.2930  140.5410 C   0  0  0  0  0  1  0  0  0  0  0  0
  191.4410  175.0080  147.1210 C   0  0  0  0  0  2  0  0  0  0  0  0
  191.2280  175.2960  145.6520 C   0  0  0  0  0  3  0  0  0  0  0  0
  191.2000  176.4260  146.6550 C   0  0  0  0  0  2  0  0  0  0  0  0
  190.7280  173.7740  137.8410 N   0  0  0  0  0  2  0  0  0  0  0  0
  192.0660  173.4650  138.3210 C   0  0  0  0  0  2  0  0  0  0  0  0
  193.0870  174.1870  137.4620 C   0  0  0  0  0  2  0  0  0  0  0  0
  194.4240  172.8590  138.8830 C   0  0  0  0  0  1  0  0  0  0  0  0
  194.4130  174.0530  138.0530 N   0  0  0  0  0  0  0  0  0  0  0  0
  194.7480  175.2370  138.8600 C   0  0  0  0  0  2  0  0  0  0  0  0
  197.1550  175.2060  138.6100 N   0  0  0  0  0  2  0  0  0  0  0  0
  196.1480  175.2310  139.4190 C   0  0  0  0  0  0  0  0  0  0  0  0
  197.5320  175.5170  141.3210 O   0  0  0  0  0  0  0  0  0  0  0  0
  195.2690  175.1710  141.7770 N   0  0  0  0  0  2  0  0  0  0  0  0
  196.3700  175.3150  140.8740 C   0  0  0  0  0  0  0  0  0  0  0  0
  194.7100  176.3900  143.8510 C   0  0  1  0  0  3  0  0  0  0  0  0
  194.9560  175.0250  146.0310 C   0  0  0  0  0  3  0  0  0  0  0  0
  193.2570  176.4870  143.4040 C   0  0  0  0  0  1  0  0  0  0  0  0
  194.7790  176.3180  145.3530 C   0  0  0  0  0  0  0  0  0  0  0  0
  194.6770  177.3730  146.0290 O   0  0  0  0  0  0  0  0  0  0  0  0
  194.9290  173.8740  143.8370 C   0  0  0  0  0  2  0  0  0  0  0  0
  195.0570  173.8900  145.3320 C   0  0  0  0  0  3  0  0  0  0  0  0
  195.4320  175.1850  143.2270 C   0  0  1  0  0  3  0  0  0  0  0  0
  2  7  2  0  0  0  0
  3  1  1  6  0  0  0
  3  4  1  0  0  0  0
  4  8  1  1  0  0  0
  5  3  1  0  0  0  0
  5  7  1  0  0  0  0
  6  4  1  0  0  0  0
  7  6  1  0  0  0  0
  8  9  1  0  0  0  0
  9 10  1  0  0  0  0
 10 11  1  0  0  0  0
 11 12  1  1  0  0  0
 11 13  1  0  0  0  0
 14 13  1  6  0  0  0
 14 32  1  0  0  0  0
 15 22  1  1  0  0  0
 15 20  1  0  0  0  0
 16 23  1  0  0  0  0
 17 21  2  0  0  0  0
 19 18  1  6  0  0  0
 19 22  1  0  0  0  0
 19 15  1  0  0  0  0
 19 14  1  0  0  0  0
 20 24  1  0  0  0  0
 20 27  2  0  0  0  0
 21 25  1  0  0  0  0
 23 15  1  0  0  0  0
 23 25  2  0  0  0  0
 24 26  1  1  0  0  0
 25 24  1  0  0  0  0
 28 16  2  0  0  0  0
 28 17  1  0  0  0  0
 29 28  1  0  0  0  0
 30 29  1  0  0  0  0
 32 33  1  0  0  0  0
 32 31  1  0  0  0  0
 33 31  1  0  0  0  0
 34  3  1  0  0  0  0
 34 35  1  0  0  0  0
 36 38  1  0  0  0  0
 36 35  1  0  0  0  0
 38 39  1  0  0  0  0
 38 37  1  0  0  0  0
 39 41  1  0  0  0  0
 40 41  2  0  0  0  0
 41 44  1  0  0  0  0
 44 42  2  0  0  0  0
 44 43  1  0  0  0  0
 45 47  1  1  0  0  0
 45 48  1  0  0  0  0
 48 49  2  0  0  0  0
 48 46  1  0  0  0  0
 50 51  1  0  0  0  0
 51 46  2  0  0  0  0
 52 43  1  6  0  0  0
 52 50  1  0  0  0  0
 52 45  1  0  0  0  0
M  END
>  <MODEL>
3

>  <REMARK>
 VINA RESULT:      -6.6      3.445      8.646
  Name = 
  17 active torsions:
  status: ('A' for Active; 'I' for Inactive)
    1  A    between atoms: C_1  and  C_5
    2  A    between atoms: C_1  and  N_26
    3  A    between atoms: C_3  and  C_24
    4  A    between atoms: C_3  and  O_51
    5  A    between atoms: C_5  and  C_31
    6  A    between atoms: C_13  and  C_17
    7  A    between atoms: C_13  and  C_18
    8  A    between atoms: C_13  and  O_51
    9  A    between atoms: C_15  and  N_22
   10  A    between atoms: C_15  and  C_27
   11  A    between atoms: C_16  and  N_22
   12  A    between atoms: C_23  and  C_35
   13  A    between atoms: C_24  and  C_28
   14  A    between atoms: N_25  and  C_50
   15  A    between atoms: N_26  and  C_27
   16  A    between atoms: C_28  and  C_35
   17  A    between atoms: O_34  and  C_52
                            x       y       z     vdW  Elec       q    Type
                         _______ _______ _______ _____ _____    ______ ____

>  <TORSDO>
F 17

$$$$
=
 OpenBabel11062421363D

 52 57  0  0  1  0  0  0  0  0999 V2000
  191.2890  173.8250  140.5650 O   0  0  0  0  0  1  0  0  0  0  0  0
  188.2240  174.2620  137.5300 N   0  0  0  0  0  2  0  0  0  0  0  0
  190.5060  172.8470  139.9330 C   0  0  1  0  0  0  0  0  0  0  0  0
  189.1130  172.7380  140.5990 C   0  0  2  0  0  3  0  0  0  0  0  0
  190.2370  173.2770  138.4860 C   0  0  0  0  0  2  0  0  0  0  0  0
  188.1990  173.5020  139.7690 N   0  0  0  0  0  2  0  0  0  0  0  0
  188.8490  173.7780  138.5480 C   0  0  0  0  0  0  0  0  0  0  0  0
  189.0540  173.2220  142.0450 C   0  0  0  0  0  2  0  0  0  0  0  0
  189.2070  172.0500  142.9980 C   0  0  0  0  0  2  0  0  0  0  0  0
  190.6290  171.9430  143.5160 C   0  0  0  0  0  2  0  0  0  0  0  0
  190.9440  172.9950  144.5850 C   0  0  2  0  0  3  0  0  0  0  0  0
  189.8040  173.2890  145.3360 O   0  0  0  0  0  1  0  0  0  0  0  0
  191.4410  174.1690  143.9950 O   0  0  0  0  0  0  0  0  0  0  0  0
  191.1460  175.2740  144.8300 C   0  0  2  0  0  3  0  0  0  0  0  0
  188.8830  176.5920  144.8890 C   0  0  1  0  0  0  0  0  0  0  0  0
  187.4570  177.5890  142.9640 C   0  0  0  0  0  3  0  0  0  0  0  0
  185.1370  178.0230  143.5350 C   0  0  0  0  0  3  0  0  0  0  0  0
  190.1610  176.3940  142.7970 O   0  0  0  0  0  1  0  0  0  0  0  0
  190.2040  176.3090  144.1910 C   0  0  2  0  0  0  0  0  0  0  0  0
  188.4860  176.2190  146.2770 C   0  0  0  0  0  0  0  0  0  0  0  0
  185.3510  177.5520  144.8380 C   0  0  0  0  0  3  0  0  0  0  0  0
  190.0100  177.6260  144.9130 C   0  0  0  0  0  2  0  0  0  0  0  0
  187.6600  177.1400  144.2690 C   0  0  0  0  0  0  0  0  0  0  0  0
  187.0380  176.5460  146.5190 C   0  0  2  0  0  3  0  0  0  0  0  0
  186.6270  177.1140  145.1890 C   0  0  0  0  0  0  0  0  0  0  0  0
  186.9430  177.5300  147.5020 O   0  0  0  0  0  1  0  0  0  0  0  0
  189.2200  175.6990  147.1000 O   0  0  0  0  0  0  0  0  0  0  0  0
  186.1860  178.0450  142.5930 C   0  0  0  0  0  0  0  0  0  0  0  0
  185.9920  178.5060  141.2900 O   0  0  0  0  0  0  0  0  0  0  0  0
  184.8280  178.2120  140.5380 C   0  0  0  0  0  1  0  0  0  0  0  0
  193.1040  174.8610  146.2950 C   0  0  0  0  0  2  0  0  0  0  0  0
  192.3970  175.8930  145.4450 C   0  0  0  0  0  3  0  0  0  0  0  0
  192.2570  175.9290  146.9490 C   0  0  0  0  0  2  0  0  0  0  0  0
  191.1660  171.5410  139.9820 N   0  0  0  0  0  2  0  0  0  0  0  0
  192.0490  171.3640  138.8380 C   0  0  0  0  0  2  0  0  0  0  0  0
  193.4910  171.4510  139.3010 C   0  0  0  0  0  2  0  0  0  0  0  0
  194.8150  171.5490  137.3480 C   0  0  0  0  0  1  0  0  0  0  0  0
  194.2380  172.3430  138.4210 N   0  0  0  0  0  0  0  0  0  0  0  0
  195.2990  173.0430  139.1630 C   0  0  0  0  0  2  0  0  0  0  0  0
  194.3120  175.2420  139.3840 N   0  0  0  0  0  2  0  0  0  0  0  0
  194.8170  174.2130  139.9820 C   0  0  0  0  0  0  0  0  0  0  0  0
  194.1310  174.9330  142.1320 O   0  0  0  0  0  0  0  0  0  0  0  0
  195.7340  173.2360  142.1120 N   0  0  0  0  0  2  0  0  0  0  0  0
  194.8630  174.1620  141.4540 C   0  0  0  0  0  0  0  0  0  0  0  0
  196.0710  171.7290  144.0410 C   0  0  1  0  0  3  0  0  0  0  0  0
  196.9040  172.8760  146.2010 C   0  0  0  0  0  3  0  0  0  0  0  0
  197.2010  171.0300  143.2980 C   0  0  0  0  0  1  0  0  0  0  0  0
  196.3360  171.7010  145.5220 C   0  0  0  0  0  0  0  0  0  0  0  0
  196.0770  170.6610  146.1780 O   0  0  0  0  0  0  0  0  0  0  0  0
  197.0220  174.0690  144.0330 C   0  0  0  0  0  2  0  0  0  0  0  0
  197.1940  173.9900  145.5220 C   0  0  0  0  0  3  0  0  0  0  0  0
  195.8690  173.1770  143.5640 C   0  0  1  0  0  3  0  0  0  0  0  0
  2  7  2  0  0  0  0
  3 34  1  0  0  0  0
  3  1  1  1  0  0  0
  3  4  1  0  0  0  0
  4  8  1  1  0  0  0
  5  7  1  0  0  0  0
  5  3  1  0  0  0  0
  6  4  1  0  0  0  0
  7  6  1  0  0  0  0
  8  9  1  0  0  0  0
  9 10  1  0  0  0  0
 10 11  1  0  0  0  0
 11 12  1  6  0  0  0
 13 11  1  0  0  0  0
 14 13  1  6  0  0  0
 14 32  1  0  0  0  0
 15 22  1  1  0  0  0
 15 20  1  0  0  0  0
 16 23  1  0  0  0  0
 17 21  2  0  0  0  0
 19 18  1  6  0  0  0
 19 14  1  0  0  0  0
 19 15  1  0  0  0  0
 19 22  1  0  0  0  0
 20 24  1  0  0  0  0
 20 27  2  0  0  0  0
 21 25  1  0  0  0  0
 23 15  1  0  0  0  0
 23 25  2  0  0  0  0
 24 26  1  1  0  0  0
 25 24  1  0  0  0  0
 28 16  2  0  0  0  0
 28 17  1  0  0  0  0
 29 28  1  0  0  0  0
 30 29  1  0  0  0  0
 31 33  1  0  0  0  0
 32 31  1  0  0  0  0
 32 33  1  0  0  0  0
 35 36  1  0  0  0  0
 35 34  1  0  0  0  0
 37 38  1  0  0  0  0
 38 39  1  0  0  0  0
 38 36  1  0  0  0  0
 39 41  1  0  0  0  0
 40 41  2  0  0  0  0
 41 44  1  0  0  0  0
 44 43  1  0  0  0  0
 44 42  2  0  0  0  0
 45 47  1  6  0  0  0
 45 48  1  0  0  0  0
 48 49  2  0  0  0  0
 48 46  1  0  0  0  0
 50 51  1  0  0  0  0
 51 46  2  0  0  0  0
 52 43  1  6  0  0  0
 52 50  1  0  0  0  0
 52 45  1  0  0  0  0
M  END
>  <MODEL>
4

>  <REMARK>
 VINA RESULT:      -6.5      2.815      8.427
  Name = 
  17 active torsions:
  status: ('A' for Active; 'I' for Inactive)
    1  A    between atoms: C_1  and  C_5
    2  A    between atoms: C_1  and  N_26
    3  A    between atoms: C_3  and  C_24
    4  A    between atoms: C_3  and  O_51
    5  A    between atoms: C_5  and  C_31
    6  A    between atoms: C_13  and  C_17
    7  A    between atoms: C_13  and  C_18
    8  A    between atoms: C_13  and  O_51
    9  A    between atoms: C_15  and  N_22
   10  A    between atoms: C_15  and  C_27
   11  A    between atoms: C_16  and  N_22
   12  A    between atoms: C_23  and  C_35
   13  A    between atoms: C_24  and  C_28
   14  A    between atoms: N_25  and  C_50
   15  A    between atoms: N_26  and  C_27
   16  A    between atoms: C_28  and  C_35
   17  A    between atoms: O_34  and  C_52
                            x       y       z     vdW  Elec       q    Type
                         _______ _______ _______ _____ _____    ______ ____

>  <TORSDO>
F 17

$$$$
=
 OpenBabel11062421363D

 52 57  0  0  1  0  0  0  0  0999 V2000
  185.6970  176.3430  143.5410 O   0  0  0  0  0  1  0  0  0  0  0  0
  184.0260  178.5000  140.1720 N   0  0  0  0  0  2  0  0  0  0  0  0
  185.3260  177.6920  143.4340 C   0  0  1  0  0  0  0  0  0  0  0  0
  186.4440  178.5210  142.7570 C   0  0  2  0  0  3  0  0  0  0  0  0
  184.1110  177.8060  142.5060 C   0  0  0  0  0  2  0  0  0  0  0  0
  186.0600  178.6710  141.3650 N   0  0  0  0  0  2  0  0  0  0  0  0
  184.7090  178.2830  141.2430 C   0  0  0  0  0  0  0  0  0  0  0  0
  187.8430  177.9210  142.8640 C   0  0  0  0  0  2  0  0  0  0  0  0
  188.0800  176.9350  141.7340 C   0  0  0  0  0  2  0  0  0  0  0  0
  189.0510  175.8450  142.1480 C   0  0  0  0  0  2  0  0  0  0  0  0
  188.7150  174.4890  141.5190 C   0  0  2  0  0  3  0  0  0  0  0  0
  187.4310  174.0820  141.8850 O   0  0  0  0  0  1  0  0  0  0  0  0
  189.6520  173.5170  141.9060 O   0  0  0  0  0  0  0  0  0  0  0  0
  190.2590  172.9660  140.7510 C   0  0  2  0  0  3  0  0  0  0  0  0
  192.3680  171.8600  141.8400 C   0  0  1  0  0  0  0  0  0  0  0  0
  194.7710  172.7760  142.1800 C   0  0  0  0  0  3  0  0  0  0  0  0
  196.0660  171.6320  143.8870 C   0  0  0  0  0  3  0  0  0  0  0  0
  192.5540  174.0030  140.6490 O   0  0  0  0  0  1  0  0  0  0  0  0
  191.7900  172.8490  140.8420 C   0  0  2  0  0  0  0  0  0  0  0  0
  191.6560  170.7610  142.5530 C   0  0  0  0  0  0  0  0  0  0  0  0
  194.9910  170.7700  144.1500 C   0  0  0  0  0  3  0  0  0  0  0  0
  192.4310  171.5730  140.3390 C   0  0  0  0  0  2  0  0  0  0  0  0
  193.7180  171.9010  142.4390 C   0  0  0  0  0  0  0  0  0  0  0  0
  192.5570  170.1190  143.5710 C   0  0  2  0  0  3  0  0  0  0  0  0
  193.8200  170.9190  143.4100 C   0  0  0  0  0  0  0  0  0  0  0  0
  192.7920  168.7920  143.2120 O   0  0  0  0  0  1  0  0  0  0  0  0
  190.4960  170.4370  142.3600 O   0  0  0  0  0  0  0  0  0  0  0  0
  195.9630  172.6360  142.9030 C   0  0  0  0  0  0  0  0  0  0  0  0
  197.0210  173.5070  142.6300 O   0  0  0  0  0  0  0  0  0  0  0  0
  197.1640  174.1740  141.3890 C   0  0  0  0  0  1  0  0  0  0  0  0
  188.8640  172.6820  138.7200 C   0  0  0  0  0  2  0  0  0  0  0  0
  189.7780  173.6300  139.4640 C   0  0  0  0  0  3  0  0  0  0  0  0
  190.2980  172.8600  138.2730 C   0  0  0  0  0  2  0  0  0  0  0  0
  185.0390  178.2580  144.7540 N   0  0  0  0  0  2  0  0  0  0  0  0
  184.9950  177.2130  145.7660 C   0  0  0  0  0  2  0  0  0  0  0  0
  185.2930  177.8200  147.1250 C   0  0  0  0  0  2  0  0  0  0  0  0
  187.2140  178.7700  148.1140 C   0  0  0  0  0  1  0  0  0  0  0  0
  186.6850  177.5720  147.4810 N   0  0  0  0  0  0  0  0  0  0  0  0
  187.4780  177.2340  146.2880 C   0  0  0  0  0  2  0  0  0  0  0  0
  188.5670  175.3070  147.2680 N   0  0  0  0  0  2  0  0  0  0  0  0
  188.6930  176.3880  146.5700 C   0  0  0  0  0  0  0  0  0  0  0  0
  190.1860  177.9120  145.5410 O   0  0  0  0  0  0  0  0  0  0  0  0
  191.0700  175.7980  145.9910 N   0  0  0  0  0  2  0  0  0  0  0  0
  190.0050  176.7540  146.0060 C   0  0  0  0  0  0  0  0  0  0  0  0
  193.4360  175.0920  145.9000 C   0  0  1  0  0  3  0  0  0  0  0  0
  194.7560  175.9270  143.8420 C   0  0  0  0  0  3  0  0  0  0  0  0
  192.9980  173.6420  145.7430 C   0  0  0  0  0  1  0  0  0  0  0  0
  194.7380  175.3150  145.1800 C   0  0  0  0  0  0  0  0  0  0  0  0
  195.8160  174.9670  145.7260 O   0  0  0  0  0  0  0  0  0  0  0  0
  192.2810  176.0450  143.8660 C   0  0  0  0  0  2  0  0  0  0  0  0
  193.6220  176.2970  143.2400 C   0  0  0  0  0  3  0  0  0  0  0  0
  192.3720  176.0800  145.3940 C   0  0  1  0  0  3  0  0  0  0  0  0
  2  7  2  0  0  0  0
  3  1  1  1  0  0  0
  3 34  1  0  0  0  0
  4  8  1  6  0  0  0
  4  3  1  0  0  0  0
  5  3  1  0  0  0  0
  6  4  1  0  0  0  0
  7  6  1  0  0  0  0
  7  5  1  0  0  0  0
  9 10  1  0  0  0  0
  9  8  1  0  0  0  0
 11 12  1  1  0  0  0
 11 13  1  0  0  0  0
 11 10  1  0  0  0  0
 14 19  1  0  0  0  0
 14 13  1  1  0  0  0
 15 22  1  6  0  0  0
 15 23  1  0  0  0  0
 15 20  1  0  0  0  0
 16 23  2  0  0  0  0
 16 28  1  0  0  0  0
 17 21  1  0  0  0  0
 19 18  1  6  0  0  0
 19 15  1  0  0  0  0
 20 24  1  0  0  0  0
 22 19  1  0  0  0  0
 23 25  1  0  0  0  0
 24 26  1  6  0  0  0
 25 24  1  0  0  0  0
 25 21  2  0  0  0  0
 27 20  2  0  0  0  0
 28 17  2  0  0  0  0
 29 28  1  0  0  0  0
 30 29  1  0  0  0  0
 31 32  1  0  0  0  0
 32 14  1  0  0  0  0
 33 31  1  0  0  0  0
 33 32  1  0  0  0  0
 34 35  1  0  0  0  0
 35 36  1  0  0  0  0
 36 38  1  0  0  0  0
 38 37  1  0  0  0  0
 39 41  1  0  0  0  0
 39 38  1  0  0  0  0
 41 40  2  0  0  0  0
 42 44  2  0  0  0  0
 43 44  1  0  0  0  0
 44 41  1  0  0  0  0
 45 47  1  6  0  0  0
 46 48  1  0  0  0  0
 48 49  2  0  0  0  0
 48 45  1  0  0  0  0
 50 52  1  0  0  0  0
 51 46  2  0  0  0  0
 51 50  1  0  0  0  0
 52 45  1  0  0  0  0
 52 43  1  1  0  0  0
M  END
>  <MODEL>
5

>  <REMARK>
 VINA RESULT:      -6.1      1.906      2.976
  Name = 
  17 active torsions:
  status: ('A' for Active; 'I' for Inactive)
    1  A    between atoms: C_1  and  C_5
    2  A    between atoms: C_1  and  N_26
    3  A    between atoms: C_3  and  C_24
    4  A    between atoms: C_3  and  O_51
    5  A    between atoms: C_5  and  C_31
    6  A    between atoms: C_13  and  C_17
    7  A    between atoms: C_13  and  C_18
    8  A    between atoms: C_13  and  O_51
    9  A    between atoms: C_15  and  N_22
   10  A    between atoms: C_15  and  C_27
   11  A    between atoms: C_16  and  N_22
   12  A    between atoms: C_23  and  C_35
   13  A    between atoms: C_24  and  C_28
   14  A    between atoms: N_25  and  C_50
   15  A    between atoms: N_26  and  C_27
   16  A    between atoms: C_28  and  C_35
   17  A    between atoms: O_34  and  C_52
                            x       y       z     vdW  Elec       q    Type
                         _______ _______ _______ _____ _____    ______ ____

>  <TORSDO>
F 17

$$$$
=
 OpenBabel11062421363D

 52 57  0  0  1  0  0  0  0  0999 V2000
  194.9550  175.0200  146.3160 O   0  0  0  0  0  1  0  0  0  0  0  0
  191.5010  176.6110  148.3970 N   0  0  0  0  0  2  0  0  0  0  0  0
  193.8740  175.7630  145.8210 C   0  0  1  0  0  0  0  0  0  0  0  0
  192.6530  174.8520  145.5500 C   0  0  2  0  0  3  0  0  0  0  0  0
  193.4140  176.7560  146.8950 C   0  0  0  0  0  2  0  0  0  0  0  0
  191.7710  174.9930  146.6930 N   0  0  0  0  0  2  0  0  0  0  0  0
  192.2040  176.1090  147.4400 C   0  0  0  0  0  0  0  0  0  0  0  0
  192.9900  173.3820  145.3130 C   0  0  0  0  0  2  0  0  0  0  0  0
  192.2600  172.8670  144.0850 C   0  0  0  0  0  2  0  0  0  0  0  0
  190.7580  172.8600  144.3010 C   0  0  0  0  0  2  0  0  0  0  0  0
  189.9770  172.7660  142.9860 C   0  0  2  0  0  3  0  0  0  0  0  0
  189.8170  171.4330  142.6030 O   0  0  0  0  0  1  0  0  0  0  0  0
  190.6320  173.4780  141.9680 O   0  0  0  0  0  0  0  0  0  0  0  0
  189.6750  174.1910  141.2050 C   0  0  2  0  0  3  0  0  0  0  0  0
  189.2250  176.0030  143.0410 C   0  0  1  0  0  0  0  0  0  0  0  0
  187.2480  176.2740  144.7000 C   0  0  0  0  0  3  0  0  0  0  0  0
  187.7240  177.6640  146.6340 C   0  0  0  0  0  3  0  0  0  0  0  0
  187.4910  174.3610  142.4530 O   0  0  0  0  0  1  0  0  0  0  0  0
  188.6700  174.9930  142.0500 C   0  0  2  0  0  0  0  0  0  0  0  0
  190.6120  176.5460  143.1130 C   0  0  0  0  0  0  0  0  0  0  0  0
  189.0300  177.8860  146.1750 C   0  0  0  0  0  3  0  0  0  0  0  0
  188.5300  176.4730  141.7620 C   0  0  0  0  0  2  0  0  0  0  0  0
  188.5430  176.5190  144.2460 C   0  0  0  0  0  0  0  0  0  0  0  0
  190.7840  177.3990  144.3390 C   0  0  2  0  0  3  0  0  0  0  0  0
  189.4230  177.3040  144.9710 C   0  0  0  0  0  0  0  0  0  0  0  0
  191.0350  178.7160  143.9560 O   0  0  0  0  0  1  0  0  0  0  0  0
  191.4960  176.3150  142.3060 O   0  0  0  0  0  0  0  0  0  0  0  0
  186.8270  176.8590  145.9010 C   0  0  0  0  0  0  0  0  0  0  0  0
  185.5240  176.6230  146.3440 O   0  0  0  0  0  0  0  0  0  0  0  0
  184.4950  177.5910  146.2490 C   0  0  0  0  0  1  0  0  0  0  0  0
  189.7500  173.4830  138.8290 C   0  0  0  0  0  2  0  0  0  0  0  0
  189.0120  173.3230  140.1400 C   0  0  0  0  0  3  0  0  0  0  0  0
  188.4390  174.2040  139.0540 C   0  0  0  0  0  2  0  0  0  0  0  0
  194.2420  176.4560  144.5840 N   0  0  0  0  0  2  0  0  0  0  0  0
  195.5870  176.0880  144.1660 C   0  0  0  0  0  2  0  0  0  0  0  0
  195.5050  175.2190  142.9250 C   0  0  0  0  0  2  0  0  0  0  0  0
  197.6250  176.2550  142.8430 C   0  0  0  0  0  1  0  0  0  0  0  0
  196.6870  175.4310  142.0980 N   0  0  0  0  0  0  0  0  0  0  0  0
  196.3290  176.0870  140.8300 C   0  0  0  0  0  2  0  0  0  0  0  0
  197.2780  174.8740  138.9630 N   0  0  0  0  0  2  0  0  0  0  0  0
  196.2210  175.1500  139.6540 C   0  0  0  0  0  0  0  0  0  0  0  0
  193.9440  175.2130  139.0040 O   0  0  0  0  0  0  0  0  0  0  0  0
  194.8160  173.0800  139.3790 N   0  0  0  0  0  2  0  0  0  0  0  0
  194.9360  174.5060  139.3300 C   0  0  0  0  0  0  0  0  0  0  0  0
  193.5960  171.6500  137.7770 C   0  0  1  0  0  3  0  0  0  0  0  0
  191.5730  170.3760  138.7570 C   0  0  0  0  0  3  0  0  0  0  0  0
  194.8190  170.7540  137.6430 C   0  0  0  0  0  1  0  0  0  0  0  0
  192.3430  170.8370  137.5920 C   0  0  0  0  0  0  0  0  0  0  0  0
  191.9590  170.5450  136.4300 O   0  0  0  0  0  0  0  0  0  0  0  0
  193.2410  171.4140  140.2670 C   0  0  0  0  0  2  0  0  0  0  0  0
  191.9670  170.6670  140.0010 C   0  0  0  0  0  3  0  0  0  0  0  0
  193.5580  172.3860  139.1260 C   0  0  1  0  0  3  0  0  0  0  0  0
  3  1  1  1  0  0  0
  3  5  1  0  0  0  0
  4  8  1  1  0  0  0
  4  3  1  0  0  0  0
  4  6  1  0  0  0  0
  5  7  1  0  0  0  0
  6  7  1  0  0  0  0
  7  2  2  0  0  0  0
  9 10  1  0  0  0  0
  9  8  1  0  0  0  0
 11 12  1  6  0  0  0
 11 10  1  0  0  0  0
 13 11  1  0  0  0  0
 14 13  1  1  0  0  0
 14 19  1  0  0  0  0
 15 22  1  6  0  0  0
 15 20  1  0  0  0  0
 15 23  1  0  0  0  0
 16 28  1  0  0  0  0
 19 18  1  1  0  0  0
 19 15  1  0  0  0  0
 20 24  1  0  0  0  0
 21 17  1  0  0  0  0
 22 19  1  0  0  0  0
 23 16  2  0  0  0  0
 23 25  1  0  0  0  0
 24 26  1  6  0  0  0
 24 25  1  0  0  0  0
 25 21  2  0  0  0  0
 27 20  2  0  0  0  0
 28 29  1  0  0  0  0
 28 17  2  0  0  0  0
 30 29  1  0  0  0  0
 31 33  1  0  0  0  0
 31 32  1  0  0  0  0
 32 14  1  0  0  0  0
 33 32  1  0  0  0  0
 34  3  1  0  0  0  0
 35 34  1  0  0  0  0
 36 35  1  0  0  0  0
 38 37  1  0  0  0  0
 38 36  1  0  0  0  0
 39 38  1  0  0  0  0
 40 41  2  0  0  0  0
 41 39  1  0  0  0  0
 42 44  2  0  0  0  0
 44 43  1  0  0  0  0
 44 41  1  0  0  0  0
 45 47  1  1  0  0  0
 45 52  1  0  0  0  0
 46 51  2  0  0  0  0
 48 45  1  0  0  0  0
 48 46  1  0  0  0  0
 49 48  2  0  0  0  0
 51 50  1  0  0  0  0
 52 43  1  1  0  0  0
 52 50  1  0  0  0  0
M  END
>  <MODEL>
6

>  <REMARK>
 VINA RESULT:      -6.1      3.205      8.766
  Name = 
  17 active torsions:
  status: ('A' for Active; 'I' for Inactive)
    1  A    between atoms: C_1  and  C_5
    2  A    between atoms: C_1  and  N_26
    3  A    between atoms: C_3  and  C_24
    4  A    between atoms: C_3  and  O_51
    5  A    between atoms: C_5  and  C_31
    6  A    between atoms: C_13  and  C_17
    7  A    between atoms: C_13  and  C_18
    8  A    between atoms: C_13  and  O_51
    9  A    between atoms: C_15  and  N_22
   10  A    between atoms: C_15  and  C_27
   11  A    between atoms: C_16  and  N_22
   12  A    between atoms: C_23  and  C_35
   13  A    between atoms: C_24  and  C_28
   14  A    between atoms: N_25  and  C_50
   15  A    between atoms: N_26  and  C_27
   16  A    between atoms: C_28  and  C_35
   17  A    between atoms: O_34  and  C_52
                            x       y       z     vdW  Elec       q    Type
                         _______ _______ _______ _____ _____    ______ ____

>  <TORSDO>
F 17

$$$$
=
 OpenBabel11062421363D

 52 57  0  0  1  0  0  0  0  0999 V2000
  188.9140  172.4130  143.0510 O   0  0  0  0  0  1  0  0  0  0  0  0
  188.1900  174.4120  139.2730 N   0  0  0  0  0  2  0  0  0  0  0  0
  189.7000  173.3530  142.3680 C   0  0  1  0  0  0  0  0  0  0  0  0
  190.5430  172.6710  141.2630 C   0  0  2  0  0  3  0  0  0  0  0  0
  188.7820  174.3380  141.6350 C   0  0  0  0  0  2  0  0  0  0  0  0
  189.8330  172.8820  140.0150 N   0  0  0  0  0  2  0  0  0  0  0  0
  188.8450  173.8630  140.2380 C   0  0  0  0  0  0  0  0  0  0  0  0
  190.8070  171.1840  141.4840 C   0  0  0  0  0  2  0  0  0  0  0  0
  192.2470  170.8490  141.1380 C   0  0  0  0  0  2  0  0  0  0  0  0
  192.9400  172.0220  140.4690 C   0  0  0  0  0  2  0  0  0  0  0  0
  194.3870  171.7040  140.0790 C   0  0  2  0  0  3  0  0  0  0  0  0
  194.5080  170.3700  139.6860 O   0  0  0  0  0  1  0  0  0  0  0  0
  195.2580  171.9660  141.1490 O   0  0  0  0  0  0  0  0  0  0  0  0
  195.9820  173.1540  140.8820 C   0  0  2  0  0  3  0  0  0  0  0  0
  195.3880  174.3890  143.1140 C   0  0  1  0  0  0  0  0  0  0  0  0
  193.5960  176.1960  143.6210 C   0  0  0  0  0  3  0  0  0  0  0  0
  193.0040  176.4140  145.9660 C   0  0  0  0  0  3  0  0  0  0  0  0
  194.3860  175.1020  140.9850 O   0  0  0  0  0  1  0  0  0  0  0  0
  195.4290  174.4000  141.5950 C   0  0  2  0  0  0  0  0  0  0  0  0
  196.0820  173.4480  144.0390 C   0  0  0  0  0  0  0  0  0  0  0  0
  193.9110  175.4010  146.3070 C   0  0  0  0  0  3  0  0  0  0  0  0
  196.4030  175.2590  142.3720 C   0  0  0  0  0  2  0  0  0  0  0  0
  194.5070  175.2030  143.9770 C   0  0  0  0  0  0  0  0  0  0  0  0
  195.6490  173.6850  145.4600 C   0  0  2  0  0  3  0  0  0  0  0  0
  194.6590  174.8050  145.2940 C   0  0  0  0  0  0  0  0  0  0  0  0
  196.7390  174.1270  146.2100 O   0  0  0  0  0  1  0  0  0  0  0  0
  196.8760  172.5870  143.6970 O   0  0  0  0  0  0  0  0  0  0  0  0
  192.8420  176.8170  144.6240 C   0  0  0  0  0  0  0  0  0  0  0  0
  191.9410  177.8210  144.2640 O   0  0  0  0  0  0  0  0  0  0  0  0
  191.0770  177.7110  143.1470 C   0  0  0  0  0  1  0  0  0  0  0  0
  197.6270  172.9180  139.0410 C   0  0  0  0  0  2  0  0  0  0  0  0
  196.2260  173.3680  139.3920 C   0  0  0  0  0  3  0  0  0  0  0  0
  197.3220  174.3910  139.2010 C   0  0  0  0  0  2  0  0  0  0  0  0
  190.5940  174.0530  143.2930 N   0  0  0  0  0  2  0  0  0  0  0  0
  190.0870  173.9830  144.6550 C   0  0  0  0  0  2  0  0  0  0  0  0
  189.3150  175.2500  144.9680 C   0  0  0  0  0  2  0  0  0  0  0  0
  188.9440  174.8880  147.2710 C   0  0  0  0  0  1  0  0  0  0  0  0
  189.6530  175.7160  146.3080 N   0  0  0  0  0  0  0  0  0  0  0  0
  189.2810  177.1290  146.4810 C   0  0  0  0  0  2  0  0  0  0  0  0
  187.3840  177.7710  147.8400 N   0  0  0  0  0  2  0  0  0  0  0  0
  187.8060  177.3620  146.6890 C   0  0  0  0  0  0  0  0  0  0  0  0
  185.8670  176.4170  145.7100 O   0  0  0  0  0  0  0  0  0  0  0  0
  187.0600  177.8870  144.3430 N   0  0  0  0  0  2  0  0  0  0  0  0
  186.8580  177.1850  145.5740 C   0  0  0  0  0  0  0  0  0  0  0  0
  184.8130  178.3460  143.4250 C   0  0  1  0  0  3  0  0  0  0  0  0
  184.6170  178.1690  140.8550 C   0  0  0  0  0  3  0  0  0  0  0  0
  184.9180  179.7920  143.8880 C   0  0  0  0  0  1  0  0  0  0  0  0
  183.9770  178.2670  142.1760 C   0  0  0  0  0  0  0  0  0  0  0  0
  182.7240  178.2930  142.2670 O   0  0  0  0  0  0  0  0  0  0  0  0
  186.8470  178.2920  141.9280 C   0  0  0  0  0  2  0  0  0  0  0  0
  185.9480  178.1490  140.7350 C   0  0  0  0  0  3  0  0  0  0  0  0
  186.1920  177.7100  143.1840 C   0  0  1  0  0  3  0  0  0  0  0  0
  2  7  2  0  0  0  0
  3  1  1  1  0  0  0
  3 34  1  0  0  0  0
  4  8  1  1  0  0  0
  4  3  1  0  0  0  0
  5  3  1  0  0  0  0
  6  7  1  0  0  0  0
  6  4  1  0  0  0  0
  7  5  1  0  0  0  0
  9  8  1  0  0  0  0
 10  9  1  0  0  0  0
 11 12  1  1  0  0  0
 11 10  1  0  0  0  0
 11 13  1  0  0  0  0
 14 13  1  6  0  0  0
 14 19  1  0  0  0  0
 15 22  1  1  0  0  0
 15 23  1  0  0  0  0
 15 20  1  0  0  0  0
 16 23  2  0  0  0  0
 16 28  1  0  0  0  0
 17 21  1  0  0  0  0
 19 18  1  6  0  0  0
 19 22  1  0  0  0  0
 19 15  1  0  0  0  0
 20 24  1  0  0  0  0
 23 25  1  0  0  0  0
 24 26  1  1  0  0  0
 25 24  1  0  0  0  0
 25 21  2  0  0  0  0
 27 20  2  0  0  0  0
 28 17  2  0  0  0  0
 29 28  1  0  0  0  0
 30 29  1  0  0  0  0
 31 33  1  0  0  0  0
 31 32  1  0  0  0  0
 32 14  1  0  0  0  0
 33 32  1  0  0  0  0
 34 35  1  0  0  0  0
 35 36  1  0  0  0  0
 36 38  1  0  0  0  0
 38 39  1  0  0  0  0
 38 37  1  0  0  0  0
 39 41  1  0  0  0  0
 41 40  2  0  0  0  0
 43 44  1  0  0  0  0
 44 42  2  0  0  0  0
 44 41  1  0  0  0  0
 45 47  1  6  0  0  0
 46 48  1  0  0  0  0
 48 49  2  0  0  0  0
 48 45  1  0  0  0  0
 50 52  1  0  0  0  0
 51 46  2  0  0  0  0
 51 50  1  0  0  0  0
 52 45  1  0  0  0  0
 52 43  1  1  0  0  0
M  END
>  <MODEL>
7

>  <REMARK>
 VINA RESULT:      -6.0      2.195      5.250
  Name = 
  17 active torsions:
  status: ('A' for Active; 'I' for Inactive)
    1  A    between atoms: C_1  and  C_5
    2  A    between atoms: C_1  and  N_26
    3  A    between atoms: C_3  and  C_24
    4  A    between atoms: C_3  and  O_51
    5  A    between atoms: C_5  and  C_31
    6  A    between atoms: C_13  and  C_17
    7  A    between atoms: C_13  and  C_18
    8  A    between atoms: C_13  and  O_51
    9  A    between atoms: C_15  and  N_22
   10  A    between atoms: C_15  and  C_27
   11  A    between atoms: C_16  and  N_22
   12  A    between atoms: C_23  and  C_35
   13  A    between atoms: C_24  and  C_28
   14  A    between atoms: N_25  and  C_50
   15  A    between atoms: N_26  and  C_27
   16  A    between atoms: C_28  and  C_35
   17  A    between atoms: O_34  and  C_52
                            x       y       z     vdW  Elec       q    Type
                         _______ _______ _______ _____ _____    ______ ____

>  <TORSDO>
F 17

$$$$
=
 OpenBabel11062421363D

 52 57  0  0  1  0  0  0  0  0999 V2000
  185.9600  176.4160  146.0840 O   0  0  0  0  0  1  0  0  0  0  0  0
  185.1600  180.2680  144.2620 N   0  0  0  0  0  2  0  0  0  0  0  0
  186.8060  177.5220  145.9170 C   0  0  1  0  0  0  0  0  0  0  0  0
  187.4110  177.5460  144.4930 C   0  0  2  0  0  3  0  0  0  0  0  0
  185.9790  178.8090  146.0330 C   0  0  0  0  0  2  0  0  0  0  0  0
  186.6160  178.4840  143.7220 N   0  0  0  0  0  2  0  0  0  0  0  0
  185.8200  179.2210  144.6240 C   0  0  0  0  0  0  0  0  0  0  0  0
  187.4630  176.1890  143.7960 C   0  0  0  0  0  2  0  0  0  0  0  0
  188.4750  176.2180  142.6630 C   0  0  0  0  0  2  0  0  0  0  0  0
  187.9530  175.4890  141.4400 C   0  0  0  0  0  2  0  0  0  0  0  0
  188.8610  174.3300  141.0160 C   0  0  2  0  0  3  0  0  0  0  0  0
  188.5080  173.8670  139.7470 O   0  0  0  0  0  1  0  0  0  0  0  0
  188.7900  173.2790  141.9440 O   0  0  0  0  0  0  0  0  0  0  0  0
  190.0940  172.9670  142.4000 C   0  0  2  0  0  3  0  0  0  0  0  0
  191.9710  172.8030  140.5800 C   0  0  1  0  0  0  0  0  0  0  0  0
  192.2740  171.1420  138.6100 C   0  0  0  0  0  3  0  0  0  0  0  0
  193.7480  171.9170  136.8420 C   0  0  0  0  0  3  0  0  0  0  0  0
  190.2770  171.0330  140.7930 O   0  0  0  0  0  1  0  0  0  0  0  0
  190.9130  172.1080  141.4200 C   0  0  2  0  0  0  0  0  0  0  0  0
  192.5390  174.1680  140.7740 C   0  0  0  0  0  0  0  0  0  0  0  0
  193.9740  173.1160  137.5320 C   0  0  0  0  0  3  0  0  0  0  0  0
  192.3770  171.8840  141.7330 C   0  0  0  0  0  2  0  0  0  0  0  0
  192.5230  172.3310  139.2930 C   0  0  0  0  0  0  0  0  0  0  0  0
  193.4440  174.5320  139.6290 C   0  0  2  0  0  3  0  0  0  0  0  0
  193.3510  173.3060  138.7640 C   0  0  0  0  0  0  0  0  0  0  0  0
  194.7490  174.6810  140.0980 O   0  0  0  0  0  1  0  0  0  0  0  0
  192.2920  174.9020  141.7150 O   0  0  0  0  0  0  0  0  0  0  0  0
  192.8990  170.9250  137.3750 C   0  0  0  0  0  0  0  0  0  0  0  0
  192.6580  169.7270  136.7010 O   0  0  0  0  0  0  0  0  0  0  0  0
  191.3590  169.1860  136.5390 C   0  0  0  0  0  1  0  0  0  0  0  0
  189.6920  173.5310  144.7810 C   0  0  0  0  0  2  0  0  0  0  0  0
  190.1030  172.4310  143.8280 C   0  0  0  0  0  3  0  0  0  0  0  0
  191.1510  173.1600  144.6350 C   0  0  0  0  0  2  0  0  0  0  0  0
  187.8910  177.5000  146.9010 N   0  0  0  0  0  2  0  0  0  0  0  0
  189.1880  177.5220  146.2410 C   0  0  0  0  0  2  0  0  0  0  0  0
  190.2810  177.3580  147.2800 C   0  0  0  0  0  2  0  0  0  0  0  0
  191.1510  175.2900  148.0130 C   0  0  0  0  0  1  0  0  0  0  0  0
  191.1450  176.2430  146.9150 N   0  0  0  0  0  0  0  0  0  0  0  0
  192.5140  176.7090  146.6380 C   0  0  0  0  0  2  0  0  0  0  0  0
  192.2090  177.1650  144.2810 N   0  0  0  0  0  2  0  0  0  0  0  0
  192.9280  176.5980  145.1930 C   0  0  0  0  0  0  0  0  0  0  0  0
  195.1260  176.5470  144.3110 O   0  0  0  0  0  0  0  0  0  0  0  0
  194.3030  174.4940  145.0590 N   0  0  0  0  0  2  0  0  0  0  0  0
  194.1730  175.9000  144.8260 C   0  0  0  0  0  0  0  0  0  0  0  0
  195.6140  172.4450  145.4900 C   0  0  1  0  0  3  0  0  0  0  0  0
  197.2270  171.7510  143.5950 C   0  0  0  0  0  3  0  0  0  0  0  0
  194.3330  171.6210  145.4740 C   0  0  0  0  0  1  0  0  0  0  0  0
  196.7620  171.6150  144.9840 C   0  0  0  0  0  0  0  0  0  0  0  0
  197.3220  170.7950  145.7560 O   0  0  0  0  0  0  0  0  0  0  0  0
  195.4480  173.4220  143.1670 C   0  0  0  0  0  2  0  0  0  0  0  0
  196.6420  172.6110  142.7550 C   0  0  0  0  0  3  0  0  0  0  0  0
  195.4860  173.7360  144.6650 C   0  0  1  0  0  3  0  0  0  0  0  0
  2  7  2  0  0  0  0
  3  5  1  0  0  0  0
  3  1  1  1  0  0  0
  3 34  1  0  0  0  0
  4  8  1  6  0  0  0
  4  3  1  0  0  0  0
  6  4  1  0  0  0  0
  6  7  1  0  0  0  0
  7  5  1  0  0  0  0
  9  8  1  0  0  0  0
 10  9  1  0  0  0  0
 11 12  1  6  0  0  0
 11 10  1  0  0  0  0
 11 13  1  0  0  0  0
 14 13  1  6  0  0  0
 14 32  1  0  0  0  0
 15 20  1  0  0  0  0
 15 19  1  0  0  0  0
 15 22  1  1  0  0  0
 16 23  1  0  0  0  0
 17 28  1  0  0  0  0
 17 21  2  0  0  0  0
 19 18  1  6  0  0  0
 19 22  1  0  0  0  0
 19 14  1  0  0  0  0
 20 27  2  0  0  0  0
 21 25  1  0  0  0  0
 23 15  1  0  0  0  0
 24 26  1  1  0  0  0
 24 20  1  0  0  0  0
 25 23  2  0  0  0  0
 25 24  1  0  0  0  0
 28 16  2  0  0  0  0
 29 28  1  0  0  0  0
 30 29  1  0  0  0  0
 32 33  1  0  0  0  0
 32 31  1  0  0  0  0
 33 31  1  0  0  0  0
 35 34  1  0  0  0  0
 35 36  1  0  0  0  0
 38 36  1  0  0  0  0
 38 37  1  0  0  0  0
 39 38  1  0  0  0  0
 40 41  2  0  0  0  0
 41 39  1  0  0  0  0
 42 44  2  0  0  0  0
 44 43  1  0  0  0  0
 44 41  1  0  0  0  0
 45 47  1  6  0  0  0
 46 48  1  0  0  0  0
 48 45  1  0  0  0  0
 48 49  2  0  0  0  0
 50 52  1  0  0  0  0
 51 50  1  0  0  0  0
 51 46  2  0  0  0  0
 52 43  1  1  0  0  0
 52 45  1  0  0  0  0
M  END
>  <MODEL>
8

>  <REMARK>
 VINA RESULT:      -6.0      2.435      6.067
  Name = 
  17 active torsions:
  status: ('A' for Active; 'I' for Inactive)
    1  A    between atoms: C_1  and  C_5
    2  A    between atoms: C_1  and  N_26
    3  A    between atoms: C_3  and  C_24
    4  A    between atoms: C_3  and  O_51
    5  A    between atoms: C_5  and  C_31
    6  A    between atoms: C_13  and  C_17
    7  A    between atoms: C_13  and  C_18
    8  A    between atoms: C_13  and  O_51
    9  A    between atoms: C_15  and  N_22
   10  A    between atoms: C_15  and  C_27
   11  A    between atoms: C_16  and  N_22
   12  A    between atoms: C_23  and  C_35
   13  A    between atoms: C_24  and  C_28
   14  A    between atoms: N_25  and  C_50
   15  A    between atoms: N_26  and  C_27
   16  A    between atoms: C_28  and  C_35
   17  A    between atoms: O_34  and  C_52
                            x       y       z     vdW  Elec       q    Type
                         _______ _______ _______ _____ _____    ______ ____

>  <TORSDO>
F 17

$$$$
=
 OpenBabel11062421363D

 52 57  0  0  1  0  0  0  0  0999 V2000
  195.7920  176.3880  142.7160 O   0  0  0  0  0  1  0  0  0  0  0  0
  195.8180  172.3100  144.1880 N   0  0  0  0  0  2  0  0  0  0  0  0
  194.7630  175.6410  143.3080 C   0  0  1  0  0  0  0  0  0  0  0  0
  194.0770  174.7220  142.2690 C   0  0  2  0  0  3  0  0  0  0  0  0
  195.3650  174.6980  144.3560 C   0  0  0  0  0  2  0  0  0  0  0  0
  194.6550  173.4020  142.4420 N   0  0  0  0  0  2  0  0  0  0  0  0
  195.3680  173.3960  143.6600 C   0  0  0  0  0  0  0  0  0  0  0  0
  194.2130  175.1800  140.8200 C   0  0  0  0  0  2  0  0  0  0  0  0
  193.8520  174.0470  139.8740 C   0  0  0  0  0  2  0  0  0  0  0  0
  193.3720  174.5790  138.5360 C   0  0  0  0  0  2  0  0  0  0  0  0
  192.8850  173.4660  137.6030 C   0  0  2  0  0  3  0  0  0  0  0  0
  193.7280  173.3480  136.4970 O   0  0  0  0  0  1  0  0  0  0  0  0
  191.5710  173.7150  137.1770 O   0  0  0  0  0  0  0  0  0  0  0  0
  190.8070  172.5280  137.2940 C   0  0  2  0  0  3  0  0  0  0  0  0
  190.3910  172.5150  139.8800 C   0  0  1  0  0  0  0  0  0  0  0  0
  191.7190  171.3820  141.8000 C   0  0  0  0  0  3  0  0  0  0  0  0
  191.3200  172.3190  144.0050 C   0  0  0  0  0  3  0  0  0  0  0  0
  192.1070  171.0630  138.8820 O   0  0  0  0  0  1  0  0  0  0  0  0
  190.9540  171.8190  138.6520 C   0  0  2  0  0  0  0  0  0  0  0  0
  189.4490  173.6690  139.9240 C   0  0  0  0  0  0  0  0  0  0  0  0
  190.4180  173.2470  143.4670 C   0  0  0  0  0  3  0  0  0  0  0  0
  189.7000  171.2780  139.3040 C   0  0  0  0  0  2  0  0  0  0  0  0
  190.8060  172.2990  141.2810 C   0  0  0  0  0  0  0  0  0  0  0  0
  189.2690  174.1530  141.3360 C   0  0  2  0  0  3  0  0  0  0  0  0
  190.1710  173.2210  142.0960 C   0  0  0  0  0  0  0  0  0  0  0  0
  187.9460  173.9550  141.7300 O   0  0  0  0  0  1  0  0  0  0  0  0
  188.9110  174.1720  138.9510 O   0  0  0  0  0  0  0  0  0  0  0  0
  191.9740  171.3830  143.1770 C   0  0  0  0  0  0  0  0  0  0  0  0
  192.8790  170.4530  143.6940 O   0  0  0  0  0  0  0  0  0  0  0  0
  192.6920  169.0540  143.5740 C   0  0  0  0  0  1  0  0  0  0  0  0
  189.7070  171.5400  135.3030 C   0  0  0  0  0  2  0  0  0  0  0  0
  190.9910  171.5940  136.1010 C   0  0  0  0  0  3  0  0  0  0  0  0
  190.0640  170.4090  136.2410 C   0  0  0  0  0  2  0  0  0  0  0  0
  193.7580  176.5240  143.9070 N   0  0  0  0  0  2  0  0  0  0  0  0
  192.6540  175.7520  144.4570 C   0  0  0  0  0  2  0  0  0  0  0  0
  192.0520  176.5030  145.6290 C   0  0  0  0  0  2  0  0  0  0  0  0
  192.6860  174.4200  146.5420 C   0  0  0  0  0  1  0  0  0  0  0  0
  192.3440  175.7950  146.8700 N   0  0  0  0  0  0  0  0  0  0  0  0
  191.1860  175.8280  147.7770 C   0  0  0  0  0  2  0  0  0  0  0  0
  189.5130  174.3840  146.7910 N   0  0  0  0  0  2  0  0  0  0  0  0
  189.8600  175.5890  147.1010 C   0  0  0  0  0  0  0  0  0  0  0  0
  189.2390  177.8710  147.2430 O   0  0  0  0  0  0  0  0  0  0  0  0
  187.7090  176.4870  146.1510 N   0  0  0  0  0  2  0  0  0  0  0  0
  188.9390  176.7120  146.8480 C   0  0  0  0  0  0  0  0  0  0  0  0
  186.4970  177.7630  144.4170 C   0  0  1  0  0  3  0  0  0  0  0  0
  184.3630  178.9720  145.2300 C   0  0  0  0  0  3  0  0  0  0  0  0
  186.1710  176.4650  143.6890 C   0  0  0  0  0  1  0  0  0  0  0  0
  185.3930  178.7620  144.2010 C   0  0  0  0  0  0  0  0  0  0  0  0
  185.3500  179.4160  143.1270 O   0  0  0  0  0  0  0  0  0  0  0  0
  185.4130  177.2200  146.6330 C   0  0  0  0  0  2  0  0  0  0  0  0
  184.3840  178.2820  146.3740 C   0  0  0  0  0  3  0  0  0  0  0  0
  186.7300  177.5440  145.9210 C   0  0  1  0  0  3  0  0  0  0  0  0
  3  1  1  6  0  0  0
  3 34  1  0  0  0  0
  3  5  1  0  0  0  0
  4  8  1  6  0  0  0
  4  6  1  0  0  0  0
  4  3  1  0  0  0  0
  6  7  1  0  0  0  0
  7  2  2  0  0  0  0
  7  5  1  0  0  0  0
  9  8  1  0  0  0  0
 10  9  1  0  0  0  0
 11 12  1  6  0  0  0
 11 10  1  0  0  0  0
 13 11  1  0  0  0  0
 14 13  1  6  0  0  0
 14 19  1  0  0  0  0
 15 22  1  1  0  0  0
 15 20  1  0  0  0  0
 15 23  1  0  0  0  0
 16 28  1  0  0  0  0
 19 18  1  1  0  0  0
 19 22  1  0  0  0  0
 19 15  1  0  0  0  0
 20 24  1  0  0  0  0
 21 17  1  0  0  0  0
 23 16  2  0  0  0  0
 23 25  1  0  0  0  0
 24 26  1  1  0  0  0
 24 25  1  0  0  0  0
 25 21  2  0  0  0  0
 27 20  2  0  0  0  0
 28 29  1  0  0  0  0
 28 17  2  0  0  0  0
 30 29  1  0  0  0  0
 31 32  1  0  0  0  0
 31 33  1  0  0  0  0
 32 33  1  0  0  0  0
 32 14  1  0  0  0  0
 34 35  1  0  0  0  0
 35 36  1  0  0  0  0
 36 38  1  0  0  0  0
 37 38  1  0  0  0  0
 38 39  1  0  0  0  0
 40 41  2  0  0  0  0
 41 39  1  0  0  0  0
 43 44  1  0  0  0  0
 44 41  1  0  0  0  0
 44 42  2  0  0  0  0
 45 47  1  6  0  0  0
 45 52  1  0  0  0  0
 46 51  2  0  0  0  0
 48 45  1  0  0  0  0
 48 46  1  0  0  0  0
 49 48  2  0  0  0  0
 51 50  1  0  0  0  0
 52 43  1  6  0  0  0
 52 50  1  0  0  0  0
M  END
>  <MODEL>
9

>  <REMARK>
 VINA RESULT:      -6.0      3.137      6.896
  Name = 
  17 active torsions:
  status: ('A' for Active; 'I' for Inactive)
    1  A    between atoms: C_1  and  C_5
    2  A    between atoms: C_1  and  N_26
    3  A    between atoms: C_3  and  C_24
    4  A    between atoms: C_3  and  O_51
    5  A    between atoms: C_5  and  C_31
    6  A    between atoms: C_13  and  C_17
    7  A    between atoms: C_13  and  C_18
    8  A    between atoms: C_13  and  O_51
    9  A    between atoms: C_15  and  N_22
   10  A    between atoms: C_15  and  C_27
   11  A    between atoms: C_16  and  N_22
   12  A    between atoms: C_23  and  C_35
   13  A    between atoms: C_24  and  C_28
   14  A    between atoms: N_25  and  C_50
   15  A    between atoms: N_26  and  C_27
   16  A    between atoms: C_28  and  C_35
   17  A    between atoms: O_34  and  C_52
                            x       y       z     vdW  Elec       q    Type
                         _______ _______ _______ _____ _____    ______ ____

>  <TORSDO>
F 17

$$$$
