=
 OpenBabel11062419203D

 50 55  0  0  1  0  0  0  0  0999 V2000
  194.2680  175.2520  139.1730 O   0  0  0  0  0  0  0  0  0  0  0  0
  189.6850  171.1400  136.9290 C   0  0  0  0  0  2  0  0  0  0  0  0
  194.6720  174.0910  136.4960 N   0  0  0  0  0  0  0  0  0  0  0  0
  190.9050  171.9310  136.8470 N   0  0  0  0  0  0  0  0  0  0  0  0
  192.0210  176.2540  143.4680 C   0  0  0  0  0  3  0  0  0  0  0  0
  190.0330  169.6910  137.2510 C   0  0  0  0  0  2  0  0  0  0  0  0
  191.2380  168.2400  140.3510 N   0  0  0  0  0  0  0  0  0  0  0  0
  191.4830  174.1380  140.3500 C   0  0  0  0  0  2  0  0  0  0  0  0
  192.8430  172.9560  137.7410 N   0  0  0  0  0  2  0  0  0  0  0  0
  194.1160  175.9370  142.3840 N   0  0  0  0  0  0  0  0  0  0  0  0
  192.1550  174.9010  141.4600 C   0  0  0  0  0  0  0  0  0  0  0  0
  190.7260  168.1680  139.1920 N   0  0  0  0  0  0  0  0  0  0  0  0
  191.5150  169.6020  140.6310 C   0  0  0  0  0  0  0  0  0  0  0  0
  191.1030  171.8930  139.2770 C   0  0  2  0  0  3  0  0  0  0  0  0
  191.3910  175.4380  142.5170 C   0  0  0  0  0  0  0  0  0  0  0  0
  193.3600  173.5020  136.5230 C   0  0  0  0  0  0  0  0  0  0  0  0
  190.6060  169.4760  138.6290 C   0  0  0  0  0  0  0  0  0  0  0  0
  192.6490  173.5070  135.4790 O   0  0  0  0  0  0  0  0  0  0  0  0
  191.1090  170.3920  139.4680 C   0  0  0  0  0  0  0  0  0  0  0  0
  193.3910  176.4950  143.3840 C   0  0  0  0  0  3  0  0  0  0  0  0
  194.4330  174.5690  140.3810 C   0  0  0  0  0  2  0  0  0  0  0  0
  195.5080  175.1670  138.5350 C   0  0  0  0  0  2  0  0  0  0  0  0
  191.9000  170.0380  141.8230 C   0  0  0  0  0  2  0  0  0  0  0  0
  195.5700  173.9420  137.6320 C   0  0  0  0  0  2  0  0  0  0  0  0
  191.5910  172.2740  137.8970 C   0  0  0  0  0  0  0  0  0  0  0  0
  193.5470  175.1530  141.4310 C   0  0  0  0  0  0  0  0  0  0  0  0
  191.8170  172.6550  140.3980 C   0  0  0  0  0  2  0  0  0  0  0  0
  187.4310  178.7720  142.8080 C   0  0  0  0  0  1  0  0  0  0  0  0
  185.6870  177.5130  141.6380 C   0  0  0  0  0  1  0  0  0  0  0  0
  187.2570  176.2610  143.1910 C   0  0  1  0  0  3  0  0  0  0  0  0
  187.8290  175.6690  141.8780 C   0  0  0  0  0  2  0  0  0  0  0  0
  185.4320  177.9100  144.0140 C   0  0  0  0  0  2  0  0  0  0  0  0
  189.9100  175.1560  142.6140 C   0  0  1  0  0  3  0  0  0  0  0  0
  189.3790  175.2130  144.0670 C   0  0  0  0  0  2  0  0  0  0  0  0
  188.4060  176.3840  144.2350 C   0  0  2  0  0  3  0  0  0  0  0  0
  189.1890  176.0020  141.7420 O   0  0  0  0  0  0  0  0  0  0  0  0
  187.9610  176.4910  145.7070 C   0  0  2  0  0  3  0  0  0  0  0  0
  187.0030  177.6460  145.9320 C   0  0  0  0  0  2  0  0  0  0  0  0
  186.4790  177.5890  142.9370 C   0  0  0  0  0  0  0  0  0  0  0  0
  185.6400  177.2880  145.3860 C   0  0  0  0  0  2  0  0  0  0  0  0
  189.1450  176.6790  146.6210 C   0  0  0  0  0  0  0  0  0  0  0  0
  189.6210  177.8370  146.7890 O   0  0  0  0  0  0  0  0  0  0  0  0
  188.9720  174.3200  147.4920 C   0  0  0  0  0  1  0  0  0  0  0  0
  189.7040  175.5660  147.3420 N   0  0  0  0  0  0  0  0  0  0  0  0
  190.9980  175.6880  147.9980 C   0  0  0  0  0  2  0  0  0  0  0  0
  192.1050  175.3130  147.0210 C   0  0  0  0  0  2  0  0  0  0  0  0
  194.4890  175.8290  146.5100 C   0  0  0  0  0  1  0  0  0  0  0  0
  193.1620  176.3990  146.9780 C   0  0  0  0  0  2  0  0  0  0  0  0
  196.4080  174.0820  134.7690 C   0  0  0  0  0  1  0  0  0  0  0  0
  195.1700  174.7750  135.3100 C   0  0  0  0  0  2  0  0  0  0  0  0
  1 21  1  0  0  0  0
  2  6  1  0  0  0  0
  3 16  1  0  0  0  0
  3 24  1  0  0  0  0
  4  2  1  0  0  0  0
  4 25  2  0  0  0  0
  6 17  1  0  0  0  0
  7 13  1  0  0  0  0
  8 27  1  0  0  0  0
  8 11  1  0  0  0  0
  9 25  1  0  0  0  0
 10 20  2  0  0  0  0
 11 15  1  0  0  0  0
 12  7  2  0  0  0  0
 13 23  2  0  0  0  0
 14 19  1  0  0  0  0
 14 27  1  1  0  0  0
 15  5  2  0  0  0  0
 16  9  1  0  0  0  0
 17 12  1  0  0  0  0
 17 19  2  0  0  0  0
 18 16  2  0  0  0  0
 19 13  1  0  0  0  0
 20  5  1  0  0  0  0
 21 26  1  0  0  0  0
 22  1  1  0  0  0  0
 24 22  1  0  0  0  0
 25 14  1  0  0  0  0
 26 11  2  0  0  0  0
 26 10  1  0  0  0  0
 28 39  1  0  0  0  0
 29 39  1  0  0  0  0
 30 31  1  6  0  0  0
 30 35  1  0  0  0  0
 32 40  1  0  0  0  0
 33 15  1  1  0  0  0
 33 34  1  0  0  0  0
 35 34  1  1  0  0  0
 35 37  1  0  0  0  0
 36 31  1  0  0  0  0
 36 33  1  0  0  0  0
 37 38  1  0  0  0  0
 37 41  1  1  0  0  0
 39 30  1  0  0  0  0
 39 32  1  0  0  0  0
 40 38  1  0  0  0  0
 41 42  2  0  0  0  0
 41 44  1  0  0  0  0
 44 43  1  0  0  0  0
 44 45  1  0  0  0  0
 46 45  1  0  0  0  0
 47 48  1  0  0  0  0
 48 46  1  0  0  0  0
 49 50  1  0  0  0  0
 50  3  1  0  0  0  0
M  END
>  <MODEL>
1

>  <REMARK>
 VINA RESULT:      -8.2      0.000      0.000
  Name = 
  6 active torsions:
  status: ('A' for Active; 'I' for Inactive)
    1  A    between atoms: C_3  and  C_39
    2  A    between atoms: N_4  and  C_22
    3  A    between atoms: C_11  and  C_20
    4  A    between atoms: C_16  and  C_20
    5  A    between atoms: C_16  and  N_48
    6  A    between atoms: C_26  and  C_29
                            x       y       z     vdW  Elec       q    Type
                         _______ _______ _______ _____ _____    ______ ____

>  <TORSDO>
F 6

$$$$
=
 OpenBabel11062419203D

 50 55  0  0  1  0  0  0  0  0999 V2000
  195.8960  173.1790  140.8380 O   0  0  0  0  0  0  0  0  0  0  0  0
  190.0960  173.6600  137.8260 C   0  0  0  0  0  2  0  0  0  0  0  0
  195.8730  174.2270  138.0860 N   0  0  0  0  0  0  0  0  0  0  0  0
  191.5370  173.8240  137.9510 N   0  0  0  0  0  0  0  0  0  0  0  0
  194.1210  171.4690  145.1310 C   0  0  0  0  0  3  0  0  0  0  0  0
  189.7920  172.4120  137.0040 C   0  0  0  0  0  2  0  0  0  0  0  0
  190.1610  168.9140  137.8960 N   0  0  0  0  0  0  0  0  0  0  0  0
  192.8590  172.5320  141.7010 C   0  0  0  0  0  2  0  0  0  0  0  0
  193.6930  173.2120  138.7180 N   0  0  0  0  0  2  0  0  0  0  0  0
  195.9280  171.3740  143.5840 N   0  0  0  0  0  0  0  0  0  0  0  0
  193.7480  172.0060  142.7950 C   0  0  0  0  0  0  0  0  0  0  0  0
  189.7100  169.8560  137.1750 N   0  0  0  0  0  0  0  0  0  0  0  0
  190.9740  169.4790  138.9100 C   0  0  0  0  0  0  0  0  0  0  0  0
  191.6120  172.0090  139.5780 C   0  0  2  0  0  3  0  0  0  0  0  0
  193.2420  171.8350  144.1010 C   0  0  0  0  0  0  0  0  0  0  0  0
  194.4360  174.2570  138.0790 C   0  0  0  0  0  0  0  0  0  0  0  0
  190.1700  171.1140  137.6730 C   0  0  0  0  0  0  0  0  0  0  0  0
  193.8310  175.2290  137.5450 O   0  0  0  0  0  0  0  0  0  0  0  0
  190.9810  170.9310  138.7250 C   0  0  0  0  0  0  0  0  0  0  0  0
  195.4680  171.2420  144.8520 C   0  0  0  0  0  3  0  0  0  0  0  0
  195.7140  171.8390  141.1930 C   0  0  0  0  0  2  0  0  0  0  0  0
  197.0080  173.1840  139.9920 C   0  0  0  0  0  2  0  0  0  0  0  0
  191.4620  168.7830  139.9280 C   0  0  0  0  0  2  0  0  0  0  0  0
  196.5840  173.0390  138.5370 C   0  0  0  0  0  2  0  0  0  0  0  0
  192.2650  173.0740  138.7240 C   0  0  0  0  0  0  0  0  0  0  0  0
  195.1180  171.7410  142.5570 C   0  0  0  0  0  0  0  0  0  0  0  0
  192.5370  171.4620  140.6680 C   0  0  0  0  0  2  0  0  0  0  0  0
  189.7090  174.4190  141.3230 C   0  0  0  0  0  1  0  0  0  0  0  0
  187.6880  173.1400  141.8500 C   0  0  0  0  0  1  0  0  0  0  0  0
  189.3670  173.5810  143.7030 C   0  0  1  0  0  3  0  0  0  0  0  0
  189.6610  172.0650  143.5820 C   0  0  0  0  0  2  0  0  0  0  0  0
  187.8610  175.4170  142.6590 C   0  0  0  0  0  2  0  0  0  0  0  0
  191.7770  172.0610  144.3920 C   0  0  1  0  0  3  0  0  0  0  0  0
  191.4970  173.4350  145.0480 C   0  0  0  0  0  2  0  0  0  0  0  0
  190.6770  174.3210  144.1050 C   0  0  2  0  0  3  0  0  0  0  0  0
  191.0060  171.8520  143.2270 O   0  0  0  0  0  0  0  0  0  0  0  0
  190.4900  175.7190  144.7270 C   0  0  2  0  0  3  0  0  0  0  0  0
  189.6930  176.6430  143.8250 C   0  0  0  0  0  2  0  0  0  0  0  0
  188.6850  174.1430  142.4170 C   0  0  0  0  0  0  0  0  0  0  0  0
  188.2320  176.2590  143.8700 C   0  0  0  0  0  2  0  0  0  0  0  0
  191.8190  176.3720  145.0100 C   0  0  0  0  0  0  0  0  0  0  0  0
  192.4400  176.9460  144.0710 O   0  0  0  0  0  0  0  0  0  0  0  0
  191.5320  176.1060  147.5000 C   0  0  0  0  0  1  0  0  0  0  0  0
  192.3610  176.3920  146.3430 N   0  0  0  0  0  0  0  0  0  0  0  0
  193.7500  176.7690  146.5670 C   0  0  0  0  0  2  0  0  0  0  0  0
  194.6560  175.5780  146.2810 C   0  0  0  0  0  2  0  0  0  0  0  0
  195.2990  175.0260  143.9380 C   0  0  0  0  0  1  0  0  0  0  0  0
  195.6050  175.8980  145.1420 C   0  0  0  0  0  2  0  0  0  0  0  0
  197.8030  174.8370  136.7070 C   0  0  0  0  0  1  0  0  0  0  0  0
  196.6560  175.3400  137.5640 C   0  0  0  0  0  2  0  0  0  0  0  0
  1 21  1  0  0  0  0
  2  4  1  0  0  0  0
  3 24  1  0  0  0  0
  4 25  2  0  0  0  0
  6 17  1  0  0  0  0
  6  2  1  0  0  0  0
  7 13  1  0  0  0  0
  8 11  1  0  0  0  0
  9 25  1  0  0  0  0
 10 20  2  0  0  0  0
 11 15  1  0  0  0  0
 12 17  1  0  0  0  0
 12  7  2  0  0  0  0
 13 23  2  0  0  0  0
 14 27  1  1  0  0  0
 15  5  2  0  0  0  0
 16  3  1  0  0  0  0
 16  9  1  0  0  0  0
 17 19  2  0  0  0  0
 18 16  2  0  0  0  0
 19 13  1  0  0  0  0
 19 14  1  0  0  0  0
 20  5  1  0  0  0  0
 21 26  1  0  0  0  0
 22  1  1  0  0  0  0
 24 22  1  0  0  0  0
 25 14  1  0  0  0  0
 26 11  2  0  0  0  0
 26 10  1  0  0  0  0
 27  8  1  0  0  0  0
 28 39  1  0  0  0  0
 29 39  1  0  0  0  0
 30 31  1  6  0  0  0
 30 35  1  0  0  0  0
 32 40  1  0  0  0  0
 33 15  1  6  0  0  0
 33 34  1  0  0  0  0
 35 37  1  0  0  0  0
 35 34  1  1  0  0  0
 36 31  1  0  0  0  0
 36 33  1  0  0  0  0
 37 41  1  6  0  0  0
 38 40  1  0  0  0  0
 38 37  1  0  0  0  0
 39 32  1  0  0  0  0
 39 30  1  0  0  0  0
 41 44  1  0  0  0  0
 42 41  2  0  0  0  0
 44 45  1  0  0  0  0
 44 43  1  0  0  0  0
 46 45  1  0  0  0  0
 47 48  1  0  0  0  0
 48 46  1  0  0  0  0
 49 50  1  0  0  0  0
 50  3  1  0  0  0  0
M  END
>  <MODEL>
2

>  <REMARK>
 VINA RESULT:      -7.7      2.387      3.281
  Name = 
  6 active torsions:
  status: ('A' for Active; 'I' for Inactive)
    1  A    between atoms: C_3  and  C_39
    2  A    between atoms: N_4  and  C_22
    3  A    between atoms: C_11  and  C_20
    4  A    between atoms: C_16  and  C_20
    5  A    between atoms: C_16  and  N_48
    6  A    between atoms: C_26  and  C_29
                            x       y       z     vdW  Elec       q    Type
                         _______ _______ _______ _____ _____    ______ ____

>  <TORSDO>
F 6

$$$$
=
 OpenBabel11062419203D

 50 55  0  0  1  0  0  0  0  0999 V2000
  191.5240  171.1620  141.9220 O   0  0  0  0  0  0  0  0  0  0  0  0
  196.0770  174.1450  145.5710 C   0  0  0  0  0  2  0  0  0  0  0  0
  193.7200  169.5080  142.9800 N   0  0  0  0  0  0  0  0  0  0  0  0
  195.4280  173.0040  144.9410 N   0  0  0  0  0  0  0  0  0  0  0  0
  188.7370  175.1810  141.1640 C   0  0  0  0  0  3  0  0  0  0  0  0
  197.2620  174.5940  144.7220 C   0  0  0  0  0  2  0  0  0  0  0  0
  197.2930  176.2880  141.5130 N   0  0  0  0  0  0  0  0  0  0  0  0
  191.9600  174.1910  142.9300 C   0  0  0  0  0  2  0  0  0  0  0  0
  194.1720  171.9400  143.2380 N   0  0  0  0  0  2  0  0  0  0  0  0
  189.5390  173.1500  140.2180 N   0  0  0  0  0  0  0  0  0  0  0  0
  190.8170  174.2140  141.9510 C   0  0  0  0  0  0  0  0  0  0  0  0
  197.8360  175.8980  142.5920 N   0  0  0  0  0  2  0  0  0  0  0  0
  195.9480  175.8380  141.5040 C   0  0  0  0  0  0  0  0  0  0  0  0
  194.4370  174.4780  143.2700 C   0  0  2  0  0  3  0  0  0  0  0  0
  189.8620  175.2510  141.9990 C   0  0  0  0  0  0  0  0  0  0  0  0
  194.2080  170.6090  143.7670 C   0  0  0  0  0  0  0  0  0  0  0  0
  196.8870  175.1820  143.3850 C   0  0  0  0  0  0  0  0  0  0  0  0
  194.6270  170.4050  144.9410 O   0  0  0  0  0  0  0  0  0  0  0  0
  195.7150  175.0910  142.7400 C   0  0  0  0  0  0  0  0  0  0  0  0
  188.5910  174.1160  140.2760 C   0  0  0  0  0  3  0  0  0  0  0  0
  191.6340  172.0670  140.8630 C   0  0  0  0  0  2  0  0  0  0  0  0
  191.9040  169.9270  141.3870 C   0  0  0  0  0  2  0  0  0  0  0  0
  195.0590  176.2180  140.5970 C   0  0  0  0  0  1  0  0  0  0  0  0
  193.3970  169.6930  141.5730 C   0  0  0  0  0  2  0  0  0  0  0  0
  194.6910  173.1160  143.8760 C   0  0  0  0  0  0  0  0  0  0  0  0
  190.6370  173.1670  141.0160 C   0  0  0  0  0  0  0  0  0  0  0  0
  193.2910  174.4810  142.2540 C   0  0  0  0  0  2  0  0  0  0  0  0
  188.6320  175.5920  147.0230 C   0  0  0  0  0  1  0  0  0  0  0  0
  190.3820  177.1080  147.8200 C   0  0  0  0  0  1  0  0  0  0  0  0
  189.3280  177.5520  145.5540 C   0  0  1  0  0  3  0  0  0  0  0  0
  190.7030  177.1000  145.0020 C   0  0  0  0  0  2  0  0  0  0  0  0
  188.0900  177.8910  147.8080 C   0  0  0  0  0  2  0  0  0  0  0  0
  190.0370  176.4120  142.9480 C   0  0  1  0  0  3  0  0  0  0  0  0
  188.7490  177.2550  143.1160 C   0  0  0  0  0  2  0  0  0  0  0  0
  188.2150  177.1360  144.5470 C   0  0  2  0  0  3  0  0  0  0  0  0
  190.5550  175.9650  144.1840 O   0  0  0  0  0  0  0  0  0  0  0  0
  186.8810  177.8960  144.6750 C   0  0  2  0  0  3  0  0  0  0  0  0
  186.3000  177.8000  146.0740 C   0  0  0  0  0  2  0  0  0  0  0  0
  189.0940  177.0450  147.0110 C   0  0  0  0  0  0  0  0  0  0  0  0
  187.0780  178.6970  147.0090 C   0  0  0  0  0  2  0  0  0  0  0  0
  185.8560  177.3650  143.7050 C   0  0  0  0  0  0  0  0  0  0  0  0
  185.8200  176.1270  143.4560 O   0  0  0  0  0  0  0  0  0  0  0  0
  184.6350  179.5690  143.6360 C   0  0  0  0  0  1  0  0  0  0  0  0
  184.8890  178.2430  143.1010 N   0  0  0  0  0  0  0  0  0  0  0  0
  184.0900  177.7910  141.9700 C   0  0  0  0  0  2  0  0  0  0  0  0
  184.6360  178.3970  140.6830 C   0  0  0  0  0  2  0  0  0  0  0  0
  186.3160  177.1810  139.3000 C   0  0  0  0  0  1  0  0  0  0  0  0
  186.1060  178.0570  140.5220 C   0  0  0  0  0  2  0  0  0  0  0  0
  192.7360  168.1660  144.7770 C   0  0  0  0  0  1  0  0  0  0  0  0
  193.6170  168.1660  143.5400 C   0  0  0  0  0  2  0  0  0  0  0  0
  3 50  1  0  0  0  0
  3 16  1  0  0  0  0
  4  2  1  0  0  0  0
  5 15  1  0  0  0  0
  6  2  1  0  0  0  0
  7 12  1  0  0  0  0
  9 16  1  0  0  0  0
  9 25  1  0  0  0  0
 10 20  1  0  0  0  0
 10 26  2  0  0  0  0
 11 15  2  0  0  0  0
 11  8  1  0  0  0  0
 12 17  1  0  0  0  0
 13  7  2  0  0  0  0
 13 19  1  0  0  0  0
 14 27  1  6  0  0  0
 14 25  1  0  0  0  0
 16 18  2  0  0  0  0
 17  6  1  0  0  0  0
 19 14  1  0  0  0  0
 19 17  2  0  0  0  0
 20  5  2  0  0  0  0
 21 26  1  0  0  0  0
 21  1  1  0  0  0  0
 22 24  1  0  0  0  0
 22  1  1  0  0  0  0
 23 13  1  0  0  0  0
 24  3  1  0  0  0  0
 25  4  2  0  0  0  0
 26 11  1  0  0  0  0
 27  8  1  0  0  0  0
 30 31  1  6  0  0  0
 30 39  1  0  0  0  0
 33 15  1  6  0  0  0
 33 34  1  0  0  0  0
 33 36  1  0  0  0  0
 35 34  1  6  0  0  0
 35 37  1  0  0  0  0
 35 30  1  0  0  0  0
 36 31  1  0  0  0  0
 37 41  1  6  0  0  0
 37 38  1  0  0  0  0
 38 40  1  0  0  0  0
 39 28  1  0  0  0  0
 39 32  1  0  0  0  0
 39 29  1  0  0  0  0
 40 32  1  0  0  0  0
 42 41  2  0  0  0  0
 44 43  1  0  0  0  0
 44 41  1  0  0  0  0
 45 44  1  0  0  0  0
 46 45  1  0  0  0  0
 47 48  1  0  0  0  0
 48 46  1  0  0  0  0
 50 49  1  0  0  0  0
M  END
>  <MODEL>
3

>  <REMARK>
 VINA RESULT:      -7.5      3.202      6.994
  Name = 
  6 active torsions:
  status: ('A' for Active; 'I' for Inactive)
    1  A    between atoms: C_3  and  C_39
    2  A    between atoms: N_4  and  C_22
    3  A    between atoms: C_11  and  C_20
    4  A    between atoms: C_16  and  C_20
    5  A    between atoms: C_16  and  N_48
    6  A    between atoms: C_26  and  C_29
                            x       y       z     vdW  Elec       q    Type
                         _______ _______ _______ _____ _____    ______ ____

>  <TORSDO>
F 6

$$$$
=
 OpenBabel11062419203D

 50 55  0  0  1  0  0  0  0  0999 V2000
  190.5950  174.5490  142.9220 O   0  0  0  0  0  0  0  0  0  0  0  0
  196.5410  174.1660  145.6490 C   0  0  0  0  0  2  0  0  0  0  0  0
  190.7940  175.0030  145.8250 N   0  0  0  0  0  0  0  0  0  0  0  0
  195.1060  174.4100  145.6390 N   0  0  0  0  0  0  0  0  0  0  0  0
  192.0860  173.6950  138.2800 C   0  0  0  0  0  3  0  0  0  0  0  0
  196.8190  172.7640  146.1800 C   0  0  0  0  0  2  0  0  0  0  0  0
  196.2350  169.5430  144.6120 N   0  0  0  0  0  0  0  0  0  0  0  0
  193.5530  173.9750  141.7810 C   0  0  0  0  0  2  0  0  0  0  0  0
  192.8900  174.0560  144.8810 N   0  0  0  0  0  2  0  0  0  0  0  0
  190.3490  173.3540  139.8700 N   0  0  0  0  0  0  0  0  0  0  0  0
  192.5900  173.7230  140.6520 C   0  0  0  0  0  0  0  0  0  0  0  0
  196.7650  170.2980  145.4850 N   0  0  0  0  0  2  0  0  0  0  0  0
  195.4070  170.3390  143.7810 C   0  0  0  0  0  0  0  0  0  0  0  0
  194.8670  172.9750  143.6810 C   0  0  2  0  0  3  0  0  0  0  0  0
  193.0280  173.8060  139.3140 C   0  0  0  0  0  0  0  0  0  0  0  0
  192.2300  174.9740  145.7600 C   0  0  0  0  0  0  0  0  0  0  0  0
  196.3460  171.6490  145.2810 C   0  0  0  0  0  0  0  0  0  0  0  0
  192.9060  175.7900  146.4480 O   0  0  0  0  0  0  0  0  0  0  0  0
  195.4810  171.7200  144.2590 C   0  0  0  0  0  0  0  0  0  0  0  0
  190.7430  173.4700  138.5790 C   0  0  0  0  0  3  0  0  0  0  0  0
  190.6930  173.3060  142.2910 C   0  0  0  0  0  2  0  0  0  0  0  0
  189.5230  174.4230  143.8100 C   0  0  0  0  0  2  0  0  0  0  0  0
  194.8390  169.8870  142.6710 C   0  0  0  0  0  1  0  0  0  0  0  0
  190.0050  173.9640  145.1790 C   0  0  0  0  0  2  0  0  0  0  0  0
  194.3080  173.8650  144.7690 C   0  0  0  0  0  0  0  0  0  0  0  0
  191.2210  173.4690  140.9050 C   0  0  0  0  0  0  0  0  0  0  0  0
  193.8670  172.7020  142.5530 C   0  0  0  0  0  2  0  0  0  0  0  0
  195.2780  174.7600  134.7420 C   0  0  0  0  0  1  0  0  0  0  0  0
  197.1480  176.1790  135.4400 C   0  0  0  0  0  1  0  0  0  0  0  0
  196.5200  174.1920  136.8900 C   0  0  1  0  0  3  0  0  0  0  0  0
  196.0170  175.2730  137.8790 C   0  0  0  0  0  2  0  0  0  0  0  0
  197.6330  173.9770  134.5570 C   0  0  0  0  0  2  0  0  0  0  0  0
  194.4870  174.0290  138.9960 C   0  0  1  0  0  3  0  0  0  0  0  0
  195.1960  172.7510  138.4840 C   0  0  0  0  0  2  0  0  0  0  0  0
  195.6230  172.9260  137.0230 C   0  0  2  0  0  3  0  0  0  0  0  0
  194.6370  175.1210  138.1120 O   0  0  0  0  0  0  0  0  0  0  0  0
  196.2370  171.6150  136.4940 C   0  0  2  0  0  3  0  0  0  0  0  0
  196.6670  171.7290  135.0430 C   0  0  0  0  0  2  0  0  0  0  0  0
  196.6350  174.7450  135.4360 C   0  0  0  0  0  0  0  0  0  0  0  0
  197.9390  172.5410  134.9540 C   0  0  0  0  0  2  0  0  0  0  0  0
  195.2600  170.4730  136.6040 C   0  0  0  0  0  0  0  0  0  0  0  0
  194.3420  170.3560  135.7430 O   0  0  0  0  0  0  0  0  0  0  0  0
  196.6210  169.3510  138.4040 C   0  0  0  0  0  1  0  0  0  0  0  0
  195.3910  169.4880  137.6460 N   0  0  0  0  0  0  0  0  0  0  0  0
  194.3050  168.5580  137.9200 C   0  0  0  0  0  2  0  0  0  0  0  0
  193.7180  168.8450  139.2960 C   0  0  0  0  0  2  0  0  0  0  0  0
  191.6600  169.9030  140.2220 C   0  0  0  0  0  1  0  0  0  0  0  0
  192.8060  170.0560  139.2380 C   0  0  0  0  0  2  0  0  0  0  0  0
  188.7090  175.5280  146.9990 C   0  0  0  0  0  1  0  0  0  0  0  0
  190.0920  176.0150  146.6050 C   0  0  0  0  0  2  0  0  0  0  0  0
  1 22  1  0  0  0  0
  2  6  1  0  0  0  0
  3 50  1  0  0  0  0
  4  2  1  0  0  0  0
  5 20  2  0  0  0  0
  5 15  1  0  0  0  0
  7 12  1  0  0  0  0
  8 27  1  0  0  0  0
  9 16  1  0  0  0  0
 10 26  2  0  0  0  0
 11 26  1  0  0  0  0
 11  8  1  0  0  0  0
 13 19  1  0  0  0  0
 13  7  2  0  0  0  0
 14 27  1  6  0  0  0
 14 19  1  0  0  0  0
 14 25  1  0  0  0  0
 15 11  2  0  0  0  0
 16  3  1  0  0  0  0
 16 18  2  0  0  0  0
 17 12  1  0  0  0  0
 17  6  1  0  0  0  0
 19 17  2  0  0  0  0
 20 10  1  0  0  0  0
 21  1  1  0  0  0  0
 22 24  1  0  0  0  0
 23 13  1  0  0  0  0
 24  3  1  0  0  0  0
 25  9  1  0  0  0  0
 25  4  2  0  0  0  0
 26 21  1  0  0  0  0
 28 39  1  0  0  0  0
 30 35  1  0  0  0  0
 30 31  1  1  0  0  0
 31 36  1  0  0  0  0
 32 40  1  0  0  0  0
 32 39  1  0  0  0  0
 33 15  1  6  0  0  0
 34 33  1  0  0  0  0
 35 34  1  1  0  0  0
 36 33  1  0  0  0  0
 37 41  1  6  0  0  0
 37 35  1  0  0  0  0
 38 37  1  0  0  0  0
 39 29  1  0  0  0  0
 39 30  1  0  0  0  0
 40 38  1  0  0  0  0
 41 44  1  0  0  0  0
 42 41  2  0  0  0  0
 44 45  1  0  0  0  0
 44 43  1  0  0  0  0
 45 46  1  0  0  0  0
 48 46  1  0  0  0  0
 48 47  1  0  0  0  0
 50 49  1  0  0  0  0
M  END
>  <MODEL>
4

>  <REMARK>
 VINA RESULT:      -7.0      2.915      9.900
  Name = 
  6 active torsions:
  status: ('A' for Active; 'I' for Inactive)
    1  A    between atoms: C_3  and  C_39
    2  A    between atoms: N_4  and  C_22
    3  A    between atoms: C_11  and  C_20
    4  A    between atoms: C_16  and  C_20
    5  A    between atoms: C_16  and  N_48
    6  A    between atoms: C_26  and  C_29
                            x       y       z     vdW  Elec       q    Type
                         _______ _______ _______ _____ _____    ______ ____

>  <TORSDO>
F 6

$$$$
=
 OpenBabel11062419203D

 50 55  0  0  1  0  0  0  0  0999 V2000
  190.1640  175.1600  144.5640 O   0  0  0  0  0  0  0  0  0  0  0  0
  196.6360  174.5400  145.3910 C   0  0  0  0  0  2  0  0  0  0  0  0
  191.3200  176.1730  147.0770 N   0  0  0  0  0  0  0  0  0  0  0  0
  195.2930  174.9710  145.7540 N   0  0  0  0  0  0  0  0  0  0  0  0
  190.0170  173.1690  140.0350 C   0  0  0  0  0  3  0  0  0  0  0  0
  196.9800  173.2540  146.1340 C   0  0  0  0  0  2  0  0  0  0  0  0
  195.7150  169.8890  145.6330 N   0  0  0  0  0  0  0  0  0  0  0  0
  192.5520  173.9630  142.7620 C   0  0  0  0  0  2  0  0  0  0  0  0
  192.9330  174.7740  145.8030 N   0  0  0  0  0  2  0  0  0  0  0  0
  188.8690  173.4050  142.1070 N   0  0  0  0  0  0  0  0  0  0  0  0
  191.2620  173.6170  142.0680 C   0  0  0  0  0  0  0  0  0  0  0  0
  196.5460  170.7280  146.0980 N   0  0  0  0  0  2  0  0  0  0  0  0
  194.7150  170.6010  144.9230 C   0  0  0  0  0  0  0  0  0  0  0  0
  194.3420  173.2080  144.3610 C   0  0  2  0  0  3  0  0  0  0  0  0
  191.2480  173.3610  140.6810 C   0  0  0  0  0  0  0  0  0  0  0  0
  192.6530  175.9350  146.5930 C   0  0  0  0  0  0  0  0  0  0  0  0
  196.1710  172.0520  145.7130 C   0  0  0  0  0  0  0  0  0  0  0  0
  193.5660  176.7750  146.8300 O   0  0  0  0  0  0  0  0  0  0  0  0
  195.0290  172.0280  145.0120 C   0  0  0  0  0  0  0  0  0  0  0  0
  188.8320  173.1960  140.7680 C   0  0  0  0  0  3  0  0  0  0  0  0
  189.9730  173.8120  144.2500 C   0  0  0  0  0  2  0  0  0  0  0  0
  189.4310  175.3680  145.7360 C   0  0  0  0  0  2  0  0  0  0  0  0
  193.7920  170.0120  144.1760 C   0  0  0  0  0  1  0  0  0  0  0  0
  190.3000  175.1410  146.9660 C   0  0  0  0  0  2  0  0  0  0  0  0
  194.2230  174.3720  145.3200 C   0  0  0  0  0  0  0  0  0  0  0  0
  190.0350  173.6100  142.7730 C   0  0  0  0  0  0  0  0  0  0  0  0
  193.0160  172.8470  143.6850 C   0  0  0  0  0  2  0  0  0  0  0  0
  192.1810  174.8740  135.8110 C   0  0  0  0  0  1  0  0  0  0  0  0
  194.5120  175.6020  135.9980 C   0  0  0  0  0  1  0  0  0  0  0  0
  193.7840  173.5180  137.2510 C   0  0  1  0  0  3  0  0  0  0  0  0
  193.9570  174.4060  138.5090 C   0  0  0  0  0  2  0  0  0  0  0  0
  194.0150  173.6380  134.6700 C   0  0  0  0  0  2  0  0  0  0  0  0
  192.5370  173.3120  139.8960 C   0  0  1  0  0  3  0  0  0  0  0  0
  192.6350  172.0730  138.9720 C   0  0  0  0  0  2  0  0  0  0  0  0
  192.6300  172.5020  137.5020 C   0  0  2  0  0  3  0  0  0  0  0  0
  192.7350  174.5240  139.1980 O   0  0  0  0  0  0  0  0  0  0  0  0
  192.6280  171.2590  136.5910 C   0  0  2  0  0  3  0  0  0  0  0  0
  192.6100  171.6270  135.1190 C   0  0  0  0  0  2  0  0  0  0  0  0
  193.6130  174.3730  135.9570 C   0  0  0  0  0  0  0  0  0  0  0  0
  193.9780  172.1180  134.7030 C   0  0  0  0  0  2  0  0  0  0  0  0
  191.4330  170.3830  136.8690 C   0  0  0  0  0  0  0  0  0  0  0  0
  190.2800  170.7820  136.5390 O   0  0  0  0  0  0  0  0  0  0  0  0
  192.8890  168.4230  137.4930 C   0  0  0  0  0  1  0  0  0  0  0  0
  191.5940  169.0800  137.4580 N   0  0  0  0  0  0  0  0  0  0  0  0
  190.4410  168.3580  137.9770 C   0  0  0  0  0  2  0  0  0  0  0  0
  190.5700  168.2020  139.4860 C   0  0  0  0  0  2  0  0  0  0  0  0
  190.8170  169.4330  141.6390 C   0  0  0  0  0  1  0  0  0  0  0  0
  190.4640  169.5530  140.1670 C   0  0  0  0  0  2  0  0  0  0  0  0
  191.5660  177.4310  149.1640 C   0  0  0  0  0  1  0  0  0  0  0  0
  190.9750  177.4110  147.7650 C   0  0  0  0  0  2  0  0  0  0  0  0
  1 22  1  0  0  0  0
  2  4  1  0  0  0  0
  2  6  1  0  0  0  0
  3 50  1  0  0  0  0
  5 15  2  0  0  0  0
  5 20  1  0  0  0  0
  7 12  1  0  0  0  0
  8 27  1  0  0  0  0
  9 16  1  0  0  0  0
 10 26  1  0  0  0  0
 11  8  1  0  0  0  0
 11 26  2  0  0  0  0
 13 19  1  0  0  0  0
 13  7  2  0  0  0  0
 14 27  1  1  0  0  0
 14 19  1  0  0  0  0
 14 25  1  0  0  0  0
 15 11  1  0  0  0  0
 16 18  2  0  0  0  0
 16  3  1  0  0  0  0
 17 12  1  0  0  0  0
 17  6  1  0  0  0  0
 19 17  2  0  0  0  0
 20 10  2  0  0  0  0
 21  1  1  0  0  0  0
 22 24  1  0  0  0  0
 23 13  1  0  0  0  0
 24  3  1  0  0  0  0
 25  4  2  0  0  0  0
 25  9  1  0  0  0  0
 26 21  1  0  0  0  0
 28 39  1  0  0  0  0
 30 35  1  0  0  0  0
 30 31  1  1  0  0  0
 31 36  1  0  0  0  0
 32 40  1  0  0  0  0
 32 39  1  0  0  0  0
 33 15  1  6  0  0  0
 34 33  1  0  0  0  0
 35 34  1  1  0  0  0
 36 33  1  0  0  0  0
 37 41  1  1  0  0  0
 37 35  1  0  0  0  0
 38 37  1  0  0  0  0
 39 29  1  0  0  0  0
 39 30  1  0  0  0  0
 40 38  1  0  0  0  0
 41 44  1  0  0  0  0
 42 41  2  0  0  0  0
 44 43  1  0  0  0  0
 44 45  1  0  0  0  0
 45 46  1  0  0  0  0
 46 48  1  0  0  0  0
 48 47  1  0  0  0  0
 50 49  1  0  0  0  0
M  END
>  <MODEL>
5

>  <REMARK>
 VINA RESULT:      -7.0      2.830      9.425
  Name = 
  6 active torsions:
  status: ('A' for Active; 'I' for Inactive)
    1  A    between atoms: C_3  and  C_39
    2  A    between atoms: N_4  and  C_22
    3  A    between atoms: C_11  and  C_20
    4  A    between atoms: C_16  and  C_20
    5  A    between atoms: C_16  and  N_48
    6  A    between atoms: C_26  and  C_29
                            x       y       z     vdW  Elec       q    Type
                         _______ _______ _______ _____ _____    ______ ____

>  <TORSDO>
F 6

$$$$
=
 OpenBabel11062419203D

 50 55  0  0  1  0  0  0  0  0999 V2000
  195.2380  174.8470  139.5900 O   0  0  0  0  0  0  0  0  0  0  0  0
  190.4790  173.1070  135.4350 C   0  0  0  0  0  2  0  0  0  0  0  0
  195.8270  174.9900  136.7070 N   0  0  0  0  0  0  0  0  0  0  0  0
  191.7930  173.6160  135.7990 N   0  0  0  0  0  0  0  0  0  0  0  0
  192.6090  174.1540  143.7260 C   0  0  0  0  0  3  0  0  0  0  0  0
  190.5880  171.6350  135.0510 C   0  0  0  0  0  2  0  0  0  0  0  0
  191.1790  168.7380  137.1540 N   0  0  0  0  0  0  0  0  0  0  0  0
  192.2020  173.8330  139.9550 C   0  0  0  0  0  2  0  0  0  0  0  0
  193.7190  173.7550  137.1710 N   0  0  0  0  0  2  0  0  0  0  0  0
  194.7650  174.0020  142.7300 N   0  0  0  0  0  0  0  0  0  0  0  0
  192.8200  173.8700  141.3260 C   0  0  0  0  0  0  0  0  0  0  0  0
  190.8160  169.2970  136.0740 N   0  0  0  0  0  0  0  0  0  0  0  0
  191.5950  169.7470  138.0590 C   0  0  0  0  0  0  0  0  0  0  0  0
  191.6690  172.4360  137.9300 C   0  0  2  0  0  3  0  0  0  0  0  0
  192.0040  173.9900  142.4700 C   0  0  0  0  0  0  0  0  0  0  0  0
  194.4560  174.6980  136.3840 C   0  0  0  0  0  0  0  0  0  0  0  0
  190.9440  170.7160  136.1910 C   0  0  0  0  0  0  0  0  0  0  0  0
  193.8930  175.3060  135.4310 O   0  0  0  0  0  0  0  0  0  0  0  0
  191.4520  171.0400  137.3890 C   0  0  0  0  0  0  0  0  0  0  0  0
  193.9980  174.1580  143.8360 C   0  0  0  0  0  3  0  0  0  0  0  0
  195.1540  173.6700  140.3380 C   0  0  0  0  0  2  0  0  0  0  0  0
  196.5280  174.8450  139.0520 C   0  0  0  0  0  2  0  0  0  0  0  0
  191.8770  169.5130  139.3330 C   0  0  0  0  0  2  0  0  0  0  0  0
  196.5430  174.1810  137.6820 C   0  0  0  0  0  2  0  0  0  0  0  0
  192.3770  173.3130  136.9200 C   0  0  0  0  0  0  0  0  0  0  0  0
  194.2250  173.8560  141.4920 C   0  0  0  0  0  0  0  0  0  0  0  0
  192.3270  172.4590  139.3130 C   0  0  0  0  0  2  0  0  0  0  0  0
  188.6600  177.9460  142.2660 C   0  0  0  0  0  1  0  0  0  0  0  0
  186.9190  177.0000  140.8260 C   0  0  0  0  0  1  0  0  0  0  0  0
  188.0130  175.5020  142.5590 C   0  0  1  0  0  3  0  0  0  0  0  0
  188.6640  174.8200  141.3300 C   0  0  0  0  0  2  0  0  0  0  0  0
  186.3900  177.4380  143.1490 C   0  0  0  0  0  2  0  0  0  0  0  0
  190.4990  173.9630  142.3460 C   0  0  1  0  0  3  0  0  0  0  0  0
  189.7780  174.1100  143.7080 C   0  0  0  0  0  2  0  0  0  0  0  0
  189.0010  175.4300  143.7610 C   0  0  2  0  0  3  0  0  0  0  0  0
  190.0660  174.9180  141.3990 O   0  0  0  0  0  0  0  0  0  0  0  0
  188.3700  175.6120  145.1550 C   0  0  2  0  0  3  0  0  0  0  0  0
  187.5960  176.9130  145.2670 C   0  0  0  0  0  2  0  0  0  0  0  0
  187.5140  176.9420  142.2270 C   0  0  0  0  0  0  0  0  0  0  0  0
  186.2870  176.7910  144.5220 C   0  0  0  0  0  2  0  0  0  0  0  0
  189.4210  175.5980  146.2350 C   0  0  0  0  0  0  0  0  0  0  0  0
  189.3480  174.7410  147.1610 O   0  0  0  0  0  0  0  0  0  0  0  0
  190.8730  177.2330  144.9820 C   0  0  0  0  0  1  0  0  0  0  0  0
  190.5320  176.5130  146.1960 N   0  0  0  0  0  0  0  0  0  0  0  0
  191.3830  176.6870  147.3640 C   0  0  0  0  0  2  0  0  0  0  0  0
  192.7550  176.0830  147.0930 C   0  0  0  0  0  2  0  0  0  0  0  0
  194.5660  177.1600  145.7630 C   0  0  0  0  0  1  0  0  0  0  0  0
  193.8160  177.1660  147.0830 C   0  0  0  0  0  2  0  0  0  0  0  0
  197.8330  175.4890  135.3940 C   0  0  0  0  0  1  0  0  0  0  0  0
  196.5600  176.0410  136.0130 C   0  0  0  0  0  2  0  0  0  0  0  0
  1 21  1  0  0  0  0
  2  4  1  0  0  0  0
  3 24  1  0  0  0  0
  4 25  2  0  0  0  0
  5 20  1  0  0  0  0
  6  2  1  0  0  0  0
  6 17  1  0  0  0  0
  7 13  1  0  0  0  0
  8 11  1  0  0  0  0
 10 20  2  0  0  0  0
 11 26  2  0  0  0  0
 11 15  1  0  0  0  0
 12 17  1  0  0  0  0
 12  7  2  0  0  0  0
 13 23  2  0  0  0  0
 14 27  1  1  0  0  0
 15  5  2  0  0  0  0
 16  3  1  0  0  0  0
 16  9  1  0  0  0  0
 17 19  2  0  0  0  0
 18 16  2  0  0  0  0
 19 14  1  0  0  0  0
 19 13  1  0  0  0  0
 21 26  1  0  0  0  0
 22  1  1  0  0  0  0
 24 22  1  0  0  0  0
 25  9  1  0  0  0  0
 25 14  1  0  0  0  0
 26 10  1  0  0  0  0
 27  8  1  0  0  0  0
 29 39  1  0  0  0  0
 30 31  1  6  0  0  0
 30 35  1  0  0  0  0
 31 36  1  0  0  0  0
 32 40  1  0  0  0  0
 33 15  1  1  0  0  0
 33 34  1  0  0  0  0
 35 34  1  1  0  0  0
 35 37  1  0  0  0  0
 36 33  1  0  0  0  0
 37 38  1  0  0  0  0
 37 41  1  1  0  0  0
 39 28  1  0  0  0  0
 39 30  1  0  0  0  0
 39 32  1  0  0  0  0
 40 38  1  0  0  0  0
 41 42  2  0  0  0  0
 43 44  1  0  0  0  0
 44 41  1  0  0  0  0
 44 45  1  0  0  0  0
 46 45  1  0  0  0  0
 47 48  1  0  0  0  0
 48 46  1  0  0  0  0
 49 50  1  0  0  0  0
 50  3  1  0  0  0  0
M  END
>  <MODEL>
6

>  <REMARK>
 VINA RESULT:      -6.9      1.573      1.909
  Name = 
  6 active torsions:
  status: ('A' for Active; 'I' for Inactive)
    1  A    between atoms: C_3  and  C_39
    2  A    between atoms: N_4  and  C_22
    3  A    between atoms: C_11  and  C_20
    4  A    between atoms: C_16  and  C_20
    5  A    between atoms: C_16  and  N_48
    6  A    between atoms: C_26  and  C_29
                            x       y       z     vdW  Elec       q    Type
                         _______ _______ _______ _____ _____    ______ ____

>  <TORSDO>
F 6

$$$$
=
 OpenBabel11062419203D

 50 55  0  0  1  0  0  0  0  0999 V2000
  191.2570  170.6880  143.0310 O   0  0  0  0  0  0  0  0  0  0  0  0
  195.5570  174.5690  146.0950 C   0  0  0  0  0  2  0  0  0  0  0  0
  193.7830  169.4740  143.9370 N   0  0  0  0  0  0  0  0  0  0  0  0
  195.0540  173.3050  145.5780 N   0  0  0  0  0  0  0  0  0  0  0  0
  187.7820  174.1530  142.3850 C   0  0  0  0  0  3  0  0  0  0  0  0
  196.5700  175.1560  145.1170 C   0  0  0  0  0  2  0  0  0  0  0  0
  196.0310  176.6500  141.8550 N   0  0  0  0  0  0  0  0  0  0  0  0
  191.2700  173.7990  143.8680 C   0  0  0  0  0  2  0  0  0  0  0  0
  193.8450  171.9570  144.0500 N   0  0  0  0  0  2  0  0  0  0  0  0
  188.8240  172.2290  141.4490 N   0  0  0  0  0  0  0  0  0  0  0  0
  190.0570  173.5820  143.0050 C   0  0  0  0  0  0  0  0  0  0  0  0
  196.7260  176.4140  142.8900 N   0  0  0  0  0  2  0  0  0  0  0  0
  194.7850  175.9890  141.9940 C   0  0  0  0  0  0  0  0  0  0  0  0
  193.6850  174.5030  143.9530 C   0  0  2  0  0  3  0  0  0  0  0  0
  188.9510  174.4510  143.1030 C   0  0  0  0  0  0  0  0  0  0  0  0
  194.1490  170.6820  144.6260 C   0  0  0  0  0  0  0  0  0  0  0  0
  195.9840  175.5990  143.8000 C   0  0  0  0  0  0  0  0  0  0  0  0
  194.7000  170.6140  145.7610 O   0  0  0  0  0  0  0  0  0  0  0  0
  194.7910  175.2840  143.2770 C   0  0  0  0  0  0  0  0  0  0  0  0
  187.7370  173.0310  141.5600 C   0  0  0  0  0  3  0  0  0  0  0  0
  191.1200  171.5380  141.9310 C   0  0  0  0  0  2  0  0  0  0  0  0
  191.7880  169.5030  142.5120 C   0  0  0  0  0  2  0  0  0  0  0  0
  193.7670  176.1670  141.1640 C   0  0  0  0  0  1  0  0  0  0  0  0
  193.3100  169.5250  142.5610 C   0  0  0  0  0  2  0  0  0  0  0  0
  194.2160  173.2360  144.5860 C   0  0  0  0  0  0  0  0  0  0  0  0
  189.9710  172.4690  142.1360 C   0  0  0  0  0  0  0  0  0  0  0  0
  192.4690  174.2630  143.0540 C   0  0  0  0  0  2  0  0  0  0  0  0
  185.3290  176.4200  146.2480 C   0  0  0  0  0  1  0  0  0  0  0  0
  186.7300  177.3880  148.0080 C   0  0  0  0  0  1  0  0  0  0  0  0
  187.4920  177.5940  145.5960 C   0  0  1  0  0  3  0  0  0  0  0  0
  188.5810  176.5770  146.0170 C   0  0  0  0  0  2  0  0  0  0  0  0
  185.4660  178.8820  146.5810 C   0  0  0  0  0  2  0  0  0  0  0  0
  189.0140  175.6770  143.9830 C   0  0  1  0  0  3  0  0  0  0  0  0
  188.3720  176.9250  143.3270 C   0  0  0  0  0  2  0  0  0  0  0  0
  187.1220  177.3520  144.1020 C   0  0  2  0  0  3  0  0  0  0  0  0
  188.4710  175.3980  145.2570 O   0  0  0  0  0  0  0  0  0  0  0  0
  186.4360  178.5310  143.3850 C   0  0  2  0  0  3  0  0  0  0  0  0
  185.1810  178.9880  144.1060 C   0  0  0  0  0  2  0  0  0  0  0  0
  186.2710  177.5740  146.5680 C   0  0  0  0  0  0  0  0  0  0  0  0
  185.5630  179.7640  145.3450 C   0  0  0  0  0  2  0  0  0  0  0  0
  186.0580  178.1640  141.9720 C   0  0  0  0  0  0  0  0  0  0  0  0
  184.8410  177.9920  141.6810 O   0  0  0  0  0  0  0  0  0  0  0  0
  188.3880  178.6170  141.1250 C   0  0  0  0  0  1  0  0  0  0  0  0
  187.0600  178.0590  140.9450 N   0  0  0  0  0  0  0  0  0  0  0  0
  186.7390  177.4420  139.6650 C   0  0  0  0  0  2  0  0  0  0  0  0
  187.4060  176.0750  139.5740 C   0  0  0  0  0  2  0  0  0  0  0  0
  186.3410  176.2850  137.3300 C   0  0  0  0  0  1  0  0  0  0  0  0
  187.4260  175.5930  138.1360 C   0  0  0  0  0  2  0  0  0  0  0  0
  193.4550  168.1820  145.9910 C   0  0  0  0  0  1  0  0  0  0  0  0
  193.9560  168.1670  144.5580 C   0  0  0  0  0  2  0  0  0  0  0  0
  3 50  1  0  0  0  0
  3 16  1  0  0  0  0
  4  2  1  0  0  0  0
  5 15  1  0  0  0  0
  6  2  1  0  0  0  0
  7 13  2  0  0  0  0
  7 12  1  0  0  0  0
  9 25  1  0  0  0  0
  9 16  1  0  0  0  0
 10 20  1  0  0  0  0
 10 26  2  0  0  0  0
 11 15  2  0  0  0  0
 11  8  1  0  0  0  0
 12 17  1  0  0  0  0
 13 19  1  0  0  0  0
 14 27  1  6  0  0  0
 14 25  1  0  0  0  0
 16 18  2  0  0  0  0
 17  6  1  0  0  0  0
 19 17  2  0  0  0  0
 19 14  1  0  0  0  0
 20  5  2  0  0  0  0
 21 26  1  0  0  0  0
 21  1  1  0  0  0  0
 22 24  1  0  0  0  0
 22  1  1  0  0  0  0
 23 13  1  0  0  0  0
 24  3  1  0  0  0  0
 25  4  2  0  0  0  0
 26 11  1  0  0  0  0
 27  8  1  0  0  0  0
 28 39  1  0  0  0  0
 30 31  1  1  0  0  0
 30 39  1  0  0  0  0
 33 15  1  6  0  0  0
 33 36  1  0  0  0  0
 34 33  1  0  0  0  0
 35 34  1  6  0  0  0
 35 30  1  0  0  0  0
 36 31  1  0  0  0  0
 37 41  1  6  0  0  0
 37 35  1  0  0  0  0
 37 38  1  0  0  0  0
 38 40  1  0  0  0  0
 39 32  1  0  0  0  0
 39 29  1  0  0  0  0
 40 32  1  0  0  0  0
 42 41  2  0  0  0  0
 44 43  1  0  0  0  0
 44 41  1  0  0  0  0
 45 44  1  0  0  0  0
 46 45  1  0  0  0  0
 47 48  1  0  0  0  0
 48 46  1  0  0  0  0
 50 49  1  0  0  0  0
M  END
>  <MODEL>
7

>  <REMARK>
 VINA RESULT:      -6.6      3.630      7.282
  Name = 
  6 active torsions:
  status: ('A' for Active; 'I' for Inactive)
    1  A    between atoms: C_3  and  C_39
    2  A    between atoms: N_4  and  C_22
    3  A    between atoms: C_11  and  C_20
    4  A    between atoms: C_16  and  C_20
    5  A    between atoms: C_16  and  N_48
    6  A    between atoms: C_26  and  C_29
                            x       y       z     vdW  Elec       q    Type
                         _______ _______ _______ _____ _____    ______ ____

>  <TORSDO>
F 6

$$$$
=
 OpenBabel11062419203D

 50 55  0  0  1  0  0  0  0  0999 V2000
  190.1240  172.9680  142.5600 O   0  0  0  0  0  0  0  0  0  0  0  0
  195.6870  176.4070  142.9670 C   0  0  0  0  0  2  0  0  0  0  0  0
  190.0490  175.5080  144.0480 N   0  0  0  0  0  0  0  0  0  0  0  0
  194.2670  176.1620  143.1770 N   0  0  0  0  0  0  0  0  0  0  0  0
  191.9660  169.3100  139.7800 C   0  0  0  0  0  3  0  0  0  0  0  0
  196.4600  176.0650  144.2360 C   0  0  0  0  0  2  0  0  0  0  0  0
  197.1880  172.8220  145.6920 N   0  0  0  0  0  0  0  0  0  0  0  0
  193.1120  172.5420  141.4320 C   0  0  0  0  0  2  0  0  0  0  0  0
  192.3750  174.7860  143.5480 N   0  0  0  0  0  2  0  0  0  0  0  0
  190.4410  169.8660  141.5200 N   0  0  0  0  0  0  0  0  0  0  0  0
  192.3510  171.2750  141.1480 C   0  0  0  0  0  0  0  0  0  0  0  0
  197.3660  174.0720  145.5690 N   0  0  0  0  0  2  0  0  0  0  0  0
  196.1450  172.4320  144.8140 C   0  0  0  0  0  0  0  0  0  0  0  0
  194.6490  173.7580  143.0100 C   0  0  2  0  0  3  0  0  0  0  0  0
  192.7650  170.4160  140.1090 C   0  0  0  0  0  0  0  0  0  0  0  0
  191.3900  175.8220  143.6350 C   0  0  0  0  0  0  0  0  0  0  0  0
  196.4730  174.5980  144.5850 C   0  0  0  0  0  0  0  0  0  0  0  0
  191.6850  177.0070  143.3100 O   0  0  0  0  0  0  0  0  0  0  0  0
  195.6760  173.6280  144.1130 C   0  0  0  0  0  0  0  0  0  0  0  0
  190.8010  169.0510  140.5000 C   0  0  0  0  0  3  0  0  0  0  0  0
  190.7050  171.7820  143.0180 C   0  0  0  0  0  2  0  0  0  0  0  0
  189.1540  173.2890  143.5140 C   0  0  0  0  0  2  0  0  0  0  0  0
  195.8250  171.1670  144.5780 C   0  0  0  0  0  1  0  0  0  0  0  0
  189.7330  174.1950  144.5910 C   0  0  0  0  0  2  0  0  0  0  0  0
  193.7620  174.9650  143.2250 C   0  0  0  0  0  0  0  0  0  0  0  0
  191.1740  170.9570  141.8660 C   0  0  0  0  0  0  0  0  0  0  0  0
  193.8620  172.4700  142.7530 C   0  0  0  0  0  2  0  0  0  0  0  0
  195.6010  174.7510  139.9210 C   0  0  0  0  0  1  0  0  0  0  0  0
  197.8470  173.8160  139.6340 C   0  0  0  0  0  1  0  0  0  0  0  0
  195.9110  172.7360  138.3960 C   0  0  1  0  0  3  0  0  0  0  0  0
  196.1260  171.5730  139.3960 C   0  0  0  0  0  2  0  0  0  0  0  0
  196.8730  175.0720  137.8060 C   0  0  0  0  0  2  0  0  0  0  0  0
  194.0390  170.6910  139.3470 C   0  0  1  0  0  3  0  0  0  0  0  0
  193.7940  171.4190  138.0030 C   0  0  0  0  0  2  0  0  0  0  0  0
  194.3970  172.8270  138.0410 C   0  0  2  0  0  3  0  0  0  0  0  0
  194.9670  171.3690  140.1680 O   0  0  0  0  0  0  0  0  0  0  0  0
  194.0610  173.5780  136.7380 C   0  0  2  0  0  3  0  0  0  0  0  0
  194.6260  174.9870  136.7270 C   0  0  0  0  0  2  0  0  0  0  0  0
  196.5260  174.0710  138.9180 C   0  0  0  0  0  0  0  0  0  0  0  0
  196.1180  174.9330  136.4930 C   0  0  0  0  0  2  0  0  0  0  0  0
  192.5710  173.6690  136.5300 C   0  0  0  0  0  0  0  0  0  0  0  0
  191.9040  174.5170  137.1880 O   0  0  0  0  0  0  0  0  0  0  0  0
  192.6580  172.1480  134.5220 C   0  0  0  0  0  1  0  0  0  0  0  0
  191.9100  172.8390  135.5570 N   0  0  0  0  0  0  0  0  0  0  0  0
  190.4580  172.7270  135.5510 C   0  0  0  0  0  2  0  0  0  0  0  0
  190.0580  171.2580  135.5080 C   0  0  0  0  0  2  0  0  0  0  0  0
  189.7330  171.6810  137.9420 C   0  0  0  0  0  1  0  0  0  0  0  0
  190.1230  170.6520  136.8960 C   0  0  0  0  0  2  0  0  0  0  0  0
  188.1740  176.4720  145.2950 C   0  0  0  0  0  1  0  0  0  0  0  0
  188.9930  176.5130  144.0170 C   0  0  0  0  0  2  0  0  0  0  0  0
  1 21  1  0  0  0  0
  1 22  1  0  0  0  0
  2  4  1  0  0  0  0
  2  6  1  0  0  0  0
  3 24  1  0  0  0  0
  4 25  2  0  0  0  0
  5 15  2  0  0  0  0
  5 20  1  0  0  0  0
  6 17  1  0  0  0  0
  8 27  1  0  0  0  0
  9 16  1  0  0  0  0
 10 26  1  0  0  0  0
 11  8  1  0  0  0  0
 11 26  2  0  0  0  0
 12  7  1  0  0  0  0
 13  7  2  0  0  0  0
 14 27  1  1  0  0  0
 14 25  1  0  0  0  0
 14 19  1  0  0  0  0
 15 11  1  0  0  0  0
 16  3  1  0  0  0  0
 17 12  1  0  0  0  0
 18 16  2  0  0  0  0
 19 17  2  0  0  0  0
 19 13  1  0  0  0  0
 20 10  2  0  0  0  0
 22 24  1  0  0  0  0
 23 13  1  0  0  0  0
 25  9  1  0  0  0  0
 26 21  1  0  0  0  0
 30 39  1  0  0  0  0
 30 31  1  1  0  0  0
 31 36  1  0  0  0  0
 32 39  1  0  0  0  0
 33 15  1  1  0  0  0
 33 36  1  0  0  0  0
 34 33  1  0  0  0  0
 35 34  1  6  0  0  0
 35 30  1  0  0  0  0
 37 41  1  1  0  0  0
 37 35  1  0  0  0  0
 38 37  1  0  0  0  0
 39 29  1  0  0  0  0
 39 28  1  0  0  0  0
 40 38  1  0  0  0  0
 40 32  1  0  0  0  0
 41 42  2  0  0  0  0
 43 44  1  0  0  0  0
 44 41  1  0  0  0  0
 45 44  1  0  0  0  0
 46 45  1  0  0  0  0
 46 48  1  0  0  0  0
 48 47  1  0  0  0  0
 50  3  1  0  0  0  0
 50 49  1  0  0  0  0
M  END
>  <MODEL>
8

>  <REMARK>
 VINA RESULT:      -6.4      2.463      9.459
  Name = 
  6 active torsions:
  status: ('A' for Active; 'I' for Inactive)
    1  A    between atoms: C_3  and  C_39
    2  A    between atoms: N_4  and  C_22
    3  A    between atoms: C_11  and  C_20
    4  A    between atoms: C_16  and  C_20
    5  A    between atoms: C_16  and  N_48
    6  A    between atoms: C_26  and  C_29
                            x       y       z     vdW  Elec       q    Type
                         _______ _______ _______ _____ _____    ______ ____

>  <TORSDO>
F 6

$$$$
=
 OpenBabel11062419203D

 50 55  0  0  1  0  0  0  0  0999 V2000
  196.8290  173.1890  143.0840 O   0  0  0  0  0  0  0  0  0  0  0  0
  190.4890  171.9240  144.1560 C   0  0  0  0  0  2  0  0  0  0  0  0
  196.1030  171.9480  145.6550 N   0  0  0  0  0  0  0  0  0  0  0  0
  191.9100  171.9120  144.4720 N   0  0  0  0  0  0  0  0  0  0  0  0
  196.2390  175.0220  138.5250 C   0  0  0  0  0  3  0  0  0  0  0  0
  189.8100  173.0740  144.8930 C   0  0  0  0  0  2  0  0  0  0  0  0
  190.0240  176.6470  144.2940 N   0  0  0  0  0  0  0  0  0  0  0  0
  194.1380  173.5950  141.3600 C   0  0  0  0  0  2  0  0  0  0  0  0
  194.1110  172.7860  144.4260 N   0  0  0  0  0  2  0  0  0  0  0  0
  197.4740  175.1820  140.5520 N   0  0  0  0  0  0  0  0  0  0  0  0
  195.2470  174.2830  140.6110 C   0  0  0  0  0  0  0  0  0  0  0  0
  189.4890  175.6150  144.8040 N   0  0  0  0  0  2  0  0  0  0  0  0
  191.1630  176.2380  143.5550 C   0  0  0  0  0  0  0  0  0  0  0  0
  192.2600  173.8380  143.0170 C   0  0  2  0  0  3  0  0  0  0  0  0
  195.1400  174.4970  139.2210 C   0  0  0  0  0  0  0  0  0  0  0  0
  194.7430  171.7770  145.2210 C   0  0  0  0  0  0  0  0  0  0  0  0
  190.2190  174.4470  144.4230 C   0  0  0  0  0  0  0  0  0  0  0  0
  194.1220  170.7140  145.5060 O   0  0  0  0  0  0  0  0  0  0  0  0
  191.2810  174.7850  143.6780 C   0  0  0  0  0  0  0  0  0  0  0  0
  197.4050  175.3580  139.2100 C   0  0  0  0  0  3  0  0  0  0  0  0
  196.6090  174.5260  142.7440 C   0  0  0  0  0  2  0  0  0  0  0  0
  197.6300  173.2320  144.2300 C   0  0  0  0  0  2  0  0  0  0  0  0
  191.8500  177.0510  142.7640 C   0  0  0  0  0  1  0  0  0  0  0  0
  196.7740  173.2290  145.4890 C   0  0  0  0  0  2  0  0  0  0  0  0
  192.7440  172.7840  143.9880 C   0  0  0  0  0  0  0  0  0  0  0  0
  196.4420  174.6640  141.2670 C   0  0  0  0  0  0  0  0  0  0  0  0
  193.4000  174.5510  142.2850 C   0  0  0  0  0  2  0  0  0  0  0  0
  191.3030  171.3130  140.6400 C   0  0  0  0  0  1  0  0  0  0  0  0
  189.3810  172.4210  139.6020 C   0  0  0  0  0  1  0  0  0  0  0  0
  191.5720  172.3320  138.3230 C   0  0  1  0  0  3  0  0  0  0  0  0
  191.6230  173.8530  138.6160 C   0  0  0  0  0  2  0  0  0  0  0  0
  190.0710  170.2610  138.7520 C   0  0  0  0  0  2  0  0  0  0  0  0
  193.8660  174.1500  138.4870 C   0  0  1  0  0  3  0  0  0  0  0  0
  193.9670  172.8230  137.6970 C   0  0  0  0  0  2  0  0  0  0  0  0
  193.0260  171.7720  138.2940 C   0  0  2  0  0  3  0  0  0  0  0  0
  192.7660  174.1680  139.3740 O   0  0  0  0  0  0  0  0  0  0  0  0
  193.2070  170.4270  137.5630 C   0  0  2  0  0  3  0  0  0  0  0  0
  192.3040  169.3450  138.1250 C   0  0  0  0  0  2  0  0  0  0  0  0
  190.6190  171.5840  139.3060 C   0  0  0  0  0  0  0  0  0  0  0  0
  190.8840  169.5790  137.6620 C   0  0  0  0  0  2  0  0  0  0  0  0
  194.6320  169.9440  137.6580 C   0  0  0  0  0  0  0  0  0  0  0  0
  195.0790  169.5440  138.7710 O   0  0  0  0  0  0  0  0  0  0  0  0
  194.9080  169.9560  135.1530 C   0  0  0  0  0  1  0  0  0  0  0  0
  195.4710  169.8860  136.4900 N   0  0  0  0  0  0  0  0  0  0  0  0
  196.9070  169.6890  136.6240 C   0  0  0  0  0  2  0  0  0  0  0  0
  197.6470  170.8450  135.9630 C   0  0  0  0  0  2  0  0  0  0  0  0
  197.9410  171.6620  138.2990 C   0  0  0  0  0  1  0  0  0  0  0  0
  197.6390  172.0630  136.8660 C   0  0  0  0  0  2  0  0  0  0  0  0
  197.4920  169.9540  145.3530 C   0  0  0  0  0  1  0  0  0  0  0  0
  196.8160  170.8820  146.3470 C   0  0  0  0  0  2  0  0  0  0  0  0
  1 22  1  0  0  0  0
  2  4  1  0  0  0  0
  2  6  1  0  0  0  0
  3 50  1  0  0  0  0
  5 20  2  0  0  0  0
  5 15  1  0  0  0  0
  7 12  1  0  0  0  0
  8 27  1  0  0  0  0
  9 16  1  0  0  0  0
 10 26  2  0  0  0  0
 11 26  1  0  0  0  0
 11  8  1  0  0  0  0
 13 19  1  0  0  0  0
 13  7  2  0  0  0  0
 14 27  1  1  0  0  0
 14 19  1  0  0  0  0
 14 25  1  0  0  0  0
 15 11  2  0  0  0  0
 16 18  2  0  0  0  0
 16  3  1  0  0  0  0
 17 12  1  0  0  0  0
 17  6  1  0  0  0  0
 19 17  2  0  0  0  0
 20 10  1  0  0  0  0
 21  1  1  0  0  0  0
 22 24  1  0  0  0  0
 23 13  1  0  0  0  0
 24  3  1  0  0  0  0
 25  9  1  0  0  0  0
 25  4  2  0  0  0  0
 26 21  1  0  0  0  0
 30 31  1  1  0  0  0
 30 39  1  0  0  0  0
 31 36  1  0  0  0  0
 32 39  1  0  0  0  0
 33 15  1  1  0  0  0
 33 36  1  0  0  0  0
 34 33  1  0  0  0  0
 35 34  1  6  0  0  0
 35 30  1  0  0  0  0
 37 41  1  1  0  0  0
 37 38  1  0  0  0  0
 37 35  1  0  0  0  0
 39 29  1  0  0  0  0
 39 28  1  0  0  0  0
 40 38  1  0  0  0  0
 40 32  1  0  0  0  0
 41 42  2  0  0  0  0
 43 44  1  0  0  0  0
 44 45  1  0  0  0  0
 44 41  1  0  0  0  0
 46 45  1  0  0  0  0
 46 48  1  0  0  0  0
 48 47  1  0  0  0  0
 49 50  1  0  0  0  0
M  END
>  <MODEL>
9

>  <REMARK>
 VINA RESULT:      -6.3      3.486      8.769
  Name = 
  6 active torsions:
  status: ('A' for Active; 'I' for Inactive)
    1  A    between atoms: C_3  and  C_39
    2  A    between atoms: N_4  and  C_22
    3  A    between atoms: C_11  and  C_20
    4  A    between atoms: C_16  and  C_20
    5  A    between atoms: C_16  and  N_48
    6  A    between atoms: C_26  and  C_29
                            x       y       z     vdW  Elec       q    Type
                         _______ _______ _______ _____ _____    ______ ____

>  <TORSDO>
F 6

$$$$
