=
 OpenBabel11062422373D

 44 49  0  0  1  0  0  0  0  0999 V2000
  193.5070  174.6300  143.2420 C   0  0  0  0  0  0  0  0  0  0  0  0
  196.8350  173.2430  145.0910 C   0  0  0  0  0  0  0  0  0  0  0  0
  190.4570  176.7450  145.4780 C   0  0  0  0  0  2  0  0  0  0  0  0
  192.1580  174.8040  142.5840 C   0  0  0  0  0  2  0  0  0  0  0  0
  189.7630  175.6100  142.8340 C   0  0  2  0  0  3  0  0  0  0  0  0
  197.4780  174.2540  141.2720 O   0  0  0  0  0  0  0  0  0  0  0  0
  192.9660  173.3860  145.2000 O   0  0  0  0  0  1  0  0  0  0  0  0
  195.9810  174.1440  144.5670 C   0  0  0  0  0  0  0  0  0  0  0  0
  197.0410  173.7980  142.3170 C   0  0  0  0  0  0  0  0  0  0  0  0
  189.2130  177.2040  144.7260 C   0  0  0  0  0  2  0  0  0  0  0  0
  191.0600  175.2280  143.5710 C   0  0  2  0  0  3  0  0  0  0  0  0
  193.5290  174.5900  144.7740 C   0  0  1  0  0  0  0  0  0  0  0  0
  195.1110  176.2130  145.6680 C   0  0  0  0  0  2  0  0  0  0  0  0
  192.0330  177.5590  143.7140 C   0  0  0  0  0  1  0  0  0  0  0  0
  197.5230  172.4750  142.8120 C   0  0  0  0  0  2  0  0  0  0  0  0
  194.6340  174.5200  142.4830 C   0  0  0  0  0  0  0  0  0  0  0  0
  196.7390  172.8850  146.4310 O   0  0  0  0  0  1  0  0  0  0  0  0
  194.9050  174.7340  145.4120 C   0  0  2  0  0  3  0  0  0  0  0  0
  192.7310  175.7560  145.3780 C   0  0  2  0  0  3  0  0  0  0  0  0
  191.5760  176.3330  144.5190 C   0  0  1  0  0  0  0  0  0  0  0  0
  188.6800  176.0930  143.8270 C   0  0  1  0  0  3  0  0  0  0  0  0
  193.5260  176.9520  147.2840 O   0  0  0  0  0  1  0  0  0  0  0  0
  196.0130  174.5640  143.1160 C   0  0  1  0  0  3  0  0  0  0  0  0
  197.9340  172.6270  144.2700 C   0  0  0  0  0  2  0  0  0  0  0  0
  193.7270  176.7840  145.9150 C   0  0  1  0  0  3  0  0  0  0  0  0
  187.3820  176.5880  143.1640 C   0  0  1  0  0  3  0  0  0  0  0  0
  186.1350  176.0400  143.8550 C   0  0  0  0  0  1  0  0  0  0  0  0
  187.3380  178.1150  143.0100 C   0  0  1  0  0  3  0  0  0  0  0  0
  187.4500  177.4930  140.8820 C   0  0  0  0  0  1  0  0  0  0  0  0
  187.8590  178.4920  141.7670 O   0  0  0  0  0  0  0  0  0  0  0  0
  185.9370  178.6390  143.1450 C   0  0  0  0  0  0  0  0  0  0  0  0
  185.0900  178.2980  142.3330 O   0  0  0  0  0  0  0  0  0  0  0  0
  185.8210  178.6580  146.5380 C   0  0  0  0  0  0  0  0  0  0  0  0
  183.7060  178.3580  145.2850 N   0  0  0  0  0  2  0  0  0  0  0  0
  186.3830  179.2760  145.5020 C   0  0  0  0  0  3  0  0  0  0  0  0
  184.0780  179.5730  144.5580 C   0  0  0  0  0  2  0  0  0  0  0  0
  184.4290  178.3230  146.4930 N   0  0  0  0  0  2  0  0  0  0  0  0
  186.5760  178.4140  147.7190 N   0  0  0  0  0  1  0  0  0  0  0  0
  185.5850  179.5820  144.2640 C   0  0  2  0  0  3  0  0  0  0  0  0
  194.6480  175.7170  140.2750 N   0  0  0  0  0  1  0  0  0  0  0  0
  194.5880  174.5460  141.0430 N   0  0  0  0  0  2  0  0  0  0  0  0
  189.2640  174.4060  142.0450 C   0  0  0  0  0  2  0  0  0  0  0  0
  189.0150  173.2440  142.9830 C   0  0  0  0  0  2  0  0  0  0  0  0
  189.4520  171.9570  142.3170 C   0  0  0  0  0  1  0  0  0  0  0  0
  1 12  1  0  0  0  0
  2 17  1  0  0  0  0
  4  1  1  0  0  0  0
  5 42  1  1  0  0  0
  5 11  1  0  0  0  0
  5 21  1  0  0  0  0
  6  9  2  0  0  0  0
  8  2  2  0  0  0  0
  8 18  1  0  0  0  0
  9 15  1  0  0  0  0
  9 23  1  0  0  0  0
 10  3  1  0  0  0  0
 11  4  1  6  0  0  0
 11 20  1  0  0  0  0
 12  7  1  1  0  0  0
 12 19  1  0  0  0  0
 12 18  1  0  0  0  0
 13 25  1  0  0  0  0
 14 20  1  0  0  0  0
 15 24  1  0  0  0  0
 16 23  1  0  0  0  0
 16  1  2  0  0  0  0
 18 13  1  6  0  0  0
 19 25  1  0  0  0  0
 20 19  1  0  0  0  0
 20  3  1  0  0  0  0
 21 10  1  0  0  0  0
 23  8  1  0  0  0  0
 24  2  1  0  0  0  0
 25 22  1  0  0  0  0
 26 21  1  0  0  0  0
 26 27  1  0  0  0  0
 28 31  1  0  0  0  0
 28 26  1  0  0  0  0
 29 30  1  0  0  0  0
 30 28  1  0  0  0  0
 31 39  1  0  0  0  0
 32 31  2  0  0  0  0
 33 38  1  0  0  0  0
 34 37  1  0  0  0  0
 35 33  2  0  0  0  0
 36 34  1  0  0  0  0
 37 33  1  0  0  0  0
 39 36  1  0  0  0  0
 39 35  1  0  0  0  0
 40 41  1  0  0  0  0
 41 16  1  0  0  0  0
 42 43  1  0  0  0  0
 44 43  1  0  0  0  0
M  END
>  <MODEL>
1

>  <REMARK>
 VINA RESULT:      -8.0      0.000      0.000
  Name = 
  8 active torsions:
  status: ('A' for Active; 'I' for Inactive)
    1  A    between atoms: C_6  and  C_15
    2  A    between atoms: C_7  and  C_15
    3  A    between atoms: C_8  and  C_33
    4  A    between atoms: C_8  and  C_37
    5  A    between atoms: O_17  and  C_33
    6  A    between atoms: C_26  and  C_33
    7  A    between atoms: C_26  and  C_41
    8  A    between atoms: N_27  and  C_31
                            x       y       z     vdW  Elec       q    Type
                         _______ _______ _______ _____ _____    ______ ____

>  <TORSDO>
F 8

$$$$
=
 OpenBabel11062422373D

 44 49  0  0  1  0  0  0  0  0999 V2000
  189.3760  176.9050  144.1090 C   0  0  0  0  0  0  0  0  0  0  0  0
  186.2070  178.7420  145.8400 C   0  0  0  0  0  0  0  0  0  0  0  0
  192.1980  174.6480  146.5000 C   0  0  0  0  0  2  0  0  0  0  0  0
  190.7000  176.5520  143.4730 C   0  0  0  0  0  2  0  0  0  0  0  0
  193.0010  175.5270  143.7900 C   0  0  2  0  0  3  0  0  0  0  0  0
  185.4620  177.5470  142.0940 O   0  0  0  0  0  0  0  0  0  0  0  0
  190.0410  178.2180  145.9830 O   0  0  0  0  0  1  0  0  0  0  0  0
  186.9650  177.7260  145.3830 C   0  0  0  0  0  0  0  0  0  0  0  0
  185.9440  178.0250  143.1090 C   0  0  0  0  0  0  0  0  0  0  0  0
  193.3880  174.0160  145.7890 C   0  0  0  0  0  2  0  0  0  0  0  0
  191.7500  176.0870  144.4920 C   0  0  2  0  0  3  0  0  0  0  0  0
  189.3590  177.0500  145.6340 C   0  0  1  0  0  0  0  0  0  0  0  0
  187.6220  175.6590  146.6250 C   0  0  0  0  0  2  0  0  0  0  0  0
  190.5470  173.8810  144.7850 C   0  0  0  0  0  1  0  0  0  0  0  0
  185.5980  179.4210  143.5100 C   0  0  0  0  0  2  0  0  0  0  0  0
  188.2660  177.0770  143.3370 C   0  0  0  0  0  0  0  0  0  0  0  0
  186.3390  179.1780  147.1540 O   0  0  0  0  0  1  0  0  0  0  0  0
  187.9760  177.0890  146.2720 C   0  0  2  0  0  3  0  0  0  0  0  0
  190.0360  175.8530  146.3200 C   0  0  2  0  0  3  0  0  0  0  0  0
  191.1260  175.1050  145.5100 C   0  0  1  0  0  0  0  0  0  0  0  0
  194.0310  175.0050  144.8210 C   0  0  1  0  0  3  0  0  0  0  0  0
  189.1250  174.8750  148.2980 O   0  0  0  0  0  1  0  0  0  0  0  0
  186.8900  177.2150  143.9630 C   0  0  1  0  0  3  0  0  0  0  0  0
  185.1750  179.4090  144.9730 C   0  0  0  0  0  2  0  0  0  0  0  0
  188.9420  174.9690  146.9190 C   0  0  1  0  0  3  0  0  0  0  0  0
  195.2720  174.3380  144.2000 C   0  0  1  0  0  3  0  0  0  0  0  0
  196.5180  174.5190  145.0650 C   0  0  0  0  0  1  0  0  0  0  0  0
  195.0320  172.8680  143.8260 C   0  0  1  0  0  3  0  0  0  0  0  0
  193.8780  172.1390  142.0750 C   0  0  0  0  0  1  0  0  0  0  0  0
  195.1030  172.7030  142.4380 O   0  0  0  0  0  0  0  0  0  0  0  0
  196.0320  171.9640  144.4900 C   0  0  0  0  0  0  0  0  0  0  0  0
  197.1390  171.8300  143.9910 O   0  0  0  0  0  0  0  0  0  0  0  0
  196.8580  169.0970  146.1080 C   0  0  0  0  0  0  0  0  0  0  0  0
  194.7650  169.1470  144.7850 N   0  0  0  0  0  2  0  0  0  0  0  0
  196.8290  170.4190  146.2600 C   0  0  0  0  0  3  0  0  0  0  0  0
  194.4240  170.3480  145.5500 C   0  0  0  0  0  2  0  0  0  0  0  0
  195.7480  168.4300  145.4950 N   0  0  0  0  0  2  0  0  0  0  0  0
  197.9410  168.3410  146.6340 N   0  0  0  0  0  1  0  0  0  0  0  0
  195.6670  171.2260  145.7490 C   0  0  2  0  0  3  0  0  0  0  0  0
  188.1030  175.7460  141.2130 N   0  0  0  0  0  1  0  0  0  0  0  0
  188.3080  176.9500  141.9030 N   0  0  0  0  0  2  0  0  0  0  0  0
  193.6190  176.6180  142.9250 C   0  0  0  0  0  2  0  0  0  0  0  0
  193.9940  176.0500  141.5720 C   0  0  0  0  0  2  0  0  0  0  0  0
  195.4270  176.4170  141.2520 C   0  0  0  0  0  1  0  0  0  0  0  0
  1 12  1  0  0  0  0
  2 17  1  0  0  0  0
  4  1  1  0  0  0  0
  5 42  1  1  0  0  0
  5 11  1  0  0  0  0
  5 21  1  0  0  0  0
  6  9  2  0  0  0  0
  8  2  2  0  0  0  0
  8 18  1  0  0  0  0
  9 15  1  0  0  0  0
  9 23  1  0  0  0  0
 10  3  1  0  0  0  0
 11  4  1  6  0  0  0
 11 20  1  0  0  0  0
 12  7  1  1  0  0  0
 12 18  1  0  0  0  0
 12 19  1  0  0  0  0
 13 25  1  0  0  0  0
 14 20  1  0  0  0  0
 15 24  1  0  0  0  0
 16 23  1  0  0  0  0
 16  1  2  0  0  0  0
 18 13  1  6  0  0  0
 19 25  1  0  0  0  0
 20 19  1  0  0  0  0
 20  3  1  0  0  0  0
 21 10  1  0  0  0  0
 23  8  1  0  0  0  0
 24  2  1  0  0  0  0
 25 22  1  0  0  0  0
 26 21  1  0  0  0  0
 26 27  1  0  0  0  0
 28 26  1  0  0  0  0
 28 31  1  0  0  0  0
 29 30  1  0  0  0  0
 30 28  1  0  0  0  0
 31 39  1  0  0  0  0
 32 31  2  0  0  0  0
 33 35  2  0  0  0  0
 33 38  1  0  0  0  0
 34 37  1  0  0  0  0
 34 36  1  0  0  0  0
 36 39  1  0  0  0  0
 37 33  1  0  0  0  0
 39 35  1  0  0  0  0
 40 41  1  0  0  0  0
 41 16  1  0  0  0  0
 43 42  1  0  0  0  0
 44 43  1  0  0  0  0
M  END
>  <MODEL>
2

>  <REMARK>
 VINA RESULT:      -7.5      3.237      9.517
  Name = 
  8 active torsions:
  status: ('A' for Active; 'I' for Inactive)
    1  A    between atoms: C_6  and  C_15
    2  A    between atoms: C_7  and  C_15
    3  A    between atoms: C_8  and  C_33
    4  A    between atoms: C_8  and  C_37
    5  A    between atoms: O_17  and  C_33
    6  A    between atoms: C_26  and  C_33
    7  A    between atoms: C_26  and  C_41
    8  A    between atoms: N_27  and  C_31
                            x       y       z     vdW  Elec       q    Type
                         _______ _______ _______ _____ _____    ______ ____

>  <TORSDO>
F 8

$$$$
=
 OpenBabel11062422373D

 44 49  0  0  1  0  0  0  0  0999 V2000
  193.6090  172.2260  143.6050 C   0  0  0  0  0  0  0  0  0  0  0  0
  195.4600  169.5780  141.1590 C   0  0  0  0  0  0  0  0  0  0  0  0
  189.6570  173.7250  142.6510 C   0  0  0  0  0  2  0  0  0  0  0  0
  193.1330  173.4520  144.3480 C   0  0  0  0  0  2  0  0  0  0  0  0
  191.3190  175.2110  144.5980 C   0  0  2  0  0  3  0  0  0  0  0  0
  196.4770  169.1260  145.0040 O   0  0  0  0  0  0  0  0  0  0  0  0
  193.5740  172.9560  141.3370 O   0  0  0  0  0  1  0  0  0  0  0  0
  194.5690  170.0330  142.0630 C   0  0  0  0  0  0  0  0  0  0  0  0
  196.2250  169.5590  143.8900 C   0  0  0  0  0  0  0  0  0  0  0  0
  189.0370  174.7480  143.5950 C   0  0  0  0  0  2  0  0  0  0  0  0
  191.9060  174.1080  143.6980 C   0  0  2  0  0  3  0  0  0  0  0  0
  193.0350  172.0020  142.2020 C   0  0  1  0  0  0  0  0  0  0  0  0
  192.0850  169.7680  141.9940 C   0  0  0  0  0  2  0  0  0  0  0  0
  190.4210  172.2260  144.5020 C   0  0  0  0  0  1  0  0  0  0  0  0
  197.2990  169.6210  142.8550 C   0  0  0  0  0  2  0  0  0  0  0  0
  194.5060  171.3770  144.1810 C   0  0  0  0  0  0  0  0  0  0  0  0
  195.1640  169.6220  139.8010 O   0  0  0  0  0  1  0  0  0  0  0  0
  193.2780  170.6200  141.6090 C   0  0  2  0  0  3  0  0  0  0  0  0
  191.5030  172.1300  142.1950 C   0  0  2  0  0  3  0  0  0  0  0  0
  190.8720  173.0400  143.2800 C   0  0  1  0  0  0  0  0  0  0  0  0
  190.0490  175.8280  143.9650 C   0  0  1  0  0  3  0  0  0  0  0  0
  190.1360  170.6340  140.9340 O   0  0  0  0  0  1  0  0  0  0  0  0
  194.8320  170.0350  143.5500 C   0  0  1  0  0  3  0  0  0  0  0  0
  196.7730  168.9780  141.5780 C   0  0  0  0  0  2  0  0  0  0  0  0
  190.9110  170.7250  142.0900 C   0  0  1  0  0  3  0  0  0  0  0  0
  189.3400  176.8720  144.8480 C   0  0  1  0  0  3  0  0  0  0  0  0
  188.6360  177.9450  144.0200 C   0  0  0  0  0  1  0  0  0  0  0  0
  188.4090  176.2360  145.8900 C   0  0  1  0  0  3  0  0  0  0  0  0
  188.9410  174.5800  147.2670 C   0  0  0  0  0  1  0  0  0  0  0  0
  189.1170  175.9490  147.0620 O   0  0  0  0  0  0  0  0  0  0  0  0
  187.2510  177.1380  146.2120 C   0  0  0  0  0  0  0  0  0  0  0  0
  187.4580  178.1910  146.7950 O   0  0  0  0  0  0  0  0  0  0  0  0
  184.9540  177.8500  143.8160 C   0  0  0  0  0  0  0  0  0  0  0  0
  184.7130  178.9160  146.0380 N   0  0  0  0  0  2  0  0  0  0  0  0
  185.6480  176.8430  144.3400 C   0  0  0  0  0  3  0  0  0  0  0  0
  184.8020  177.5630  146.5890 C   0  0  0  0  0  2  0  0  0  0  0  0
  184.3520  178.8220  144.6800 N   0  0  0  0  0  2  0  0  0  0  0  0
  184.7330  177.9110  142.4120 N   0  0  0  0  0  1  0  0  0  0  0  0
  185.8520  176.7420  145.8270 C   0  0  2  0  0  3  0  0  0  0  0  0
  196.1110  172.4850  145.7630 N   0  0  0  0  0  1  0  0  0  0  0  0
  195.0440  171.6150  145.4960 N   0  0  0  0  0  2  0  0  0  0  0  0
  192.3750  176.2840  144.8290 C   0  0  0  0  0  2  0  0  0  0  0  0
  192.6850  176.3880  146.3080 C   0  0  0  0  0  2  0  0  0  0  0  0
  194.1840  176.3200  146.5130 C   0  0  0  0  0  1  0  0  0  0  0  0
  1 16  2  0  0  0  0
  1  4  1  0  0  0  0
  2 24  1  0  0  0  0
  2  8  2  0  0  0  0
  3 20  1  0  0  0  0
  3 10  1  0  0  0  0
  5 42  1  6  0  0  0
  8 23  1  0  0  0  0
  9  6  2  0  0  0  0
 10 21  1  0  0  0  0
 11  4  1  1  0  0  0
 11  5  1  0  0  0  0
 12  7  1  6  0  0  0
 12  1  1  0  0  0  0
 13 25  1  0  0  0  0
 15  9  1  0  0  0  0
 16 41  1  0  0  0  0
 17  2  1  0  0  0  0
 18 13  1  1  0  0  0
 18  8  1  0  0  0  0
 18 12  1  0  0  0  0
 19 12  1  0  0  0  0
 19 20  1  0  0  0  0
 20 11  1  0  0  0  0
 20 14  1  0  0  0  0
 21  5  1  0  0  0  0
 21 26  1  0  0  0  0
 22 25  1  0  0  0  0
 23  9  1  0  0  0  0
 23 16  1  0  0  0  0
 24 15  1  0  0  0  0
 25 19  1  0  0  0  0
 26 28  1  0  0  0  0
 27 26  1  0  0  0  0
 28 31  1  0  0  0  0
 28 30  1  0  0  0  0
 30 29  1  0  0  0  0
 31 32  2  0  0  0  0
 33 35  2  0  0  0  0
 33 37  1  0  0  0  0
 34 36  1  0  0  0  0
 35 39  1  0  0  0  0
 37 34  1  0  0  0  0
 38 33  1  0  0  0  0
 39 31  1  0  0  0  0
 39 36  1  0  0  0  0
 41 40  1  0  0  0  0
 42 43  1  0  0  0  0
 43 44  1  0  0  0  0
M  END
>  <MODEL>
3

>  <REMARK>
 VINA RESULT:      -7.1      3.003      4.884
  Name = 
  8 active torsions:
  status: ('A' for Active; 'I' for Inactive)
    1  A    between atoms: C_6  and  C_15
    2  A    between atoms: C_7  and  C_15
    3  A    between atoms: C_8  and  C_33
    4  A    between atoms: C_8  and  C_37
    5  A    between atoms: O_17  and  C_33
    6  A    between atoms: C_26  and  C_33
    7  A    between atoms: C_26  and  C_41
    8  A    between atoms: N_27  and  C_31
                            x       y       z     vdW  Elec       q    Type
                         _______ _______ _______ _____ _____    ______ ____

>  <TORSDO>
F 8

$$$$
=
 OpenBabel11062422373D

 44 49  0  0  1  0  0  0  0  0999 V2000
  194.6670  173.5870  142.5110 C   0  0  0  0  0  0  0  0  0  0  0  0
  197.5680  170.7910  142.0810 C   0  0  0  0  0  0  0  0  0  0  0  0
  193.7810  175.2710  146.4030 C   0  0  0  0  0  2  0  0  0  0  0  0
  193.3670  174.3410  142.6620 C   0  0  0  0  0  2  0  0  0  0  0  0
  191.7760  175.5330  144.2420 C   0  0  2  0  0  3  0  0  0  0  0  0
  197.1260  173.0920  138.8360 O   0  0  0  0  0  0  0  0  0  0  0  0
  194.4220  171.8210  144.0910 O   0  0  0  0  0  1  0  0  0  0  0  0
  197.0260  172.0070  142.2890 C   0  0  0  0  0  0  0  0  0  0  0  0
  196.9550  172.3700  139.8060 C   0  0  0  0  0  0  0  0  0  0  0  0
  192.6510  176.2890  146.4980 C   0  0  0  0  0  2  0  0  0  0  0  0
  192.9780  174.5770  144.1290 C   0  0  2  0  0  3  0  0  0  0  0  0
  195.2270  172.9150  143.7690 C   0  0  1  0  0  0  0  0  0  0  0  0
  197.5370  173.5830  144.1610 C   0  0  0  0  0  2  0  0  0  0  0  0
  194.7900  176.3250  144.3710 C   0  0  0  0  0  1  0  0  0  0  0  0
  197.0030  170.8870  139.6450 C   0  0  0  0  0  2  0  0  0  0  0  0
  195.2900  173.5260  141.3000 C   0  0  0  0  0  0  0  0  0  0  0  0
  197.8310  169.9480  143.1560 O   0  0  0  0  0  1  0  0  0  0  0  0
  196.6710  172.4410  143.6690 C   0  0  2  0  0  3  0  0  0  0  0  0
  195.2500  173.8860  144.9610 C   0  0  2  0  0  3  0  0  0  0  0  0
  194.2040  175.0290  144.9530 C   0  0  1  0  0  0  0  0  0  0  0  0
  191.4260  175.8140  145.7230 C   0  0  1  0  0  3  0  0  0  0  0  0
  197.0970  173.9550  146.4720 O   0  0  0  0  0  1  0  0  0  0  0  0
  196.6950  172.9650  141.1690 C   0  0  1  0  0  3  0  0  0  0  0  0
  197.9410  170.3190  140.7030 C   0  0  0  0  0  2  0  0  0  0  0  0
  196.6970  174.3220  145.1870 C   0  0  1  0  0  3  0  0  0  0  0  0
  190.2970  176.8410  145.9270 C   0  0  1  0  0  3  0  0  0  0  0  0
  190.1200  177.7530  144.7140 C   0  0  0  0  0  1  0  0  0  0  0  0
  188.9760  176.1930  146.3650 C   0  0  1  0  0  3  0  0  0  0  0  0
  188.9960  174.1960  147.3340 C   0  0  0  0  0  1  0  0  0  0  0  0
  189.1330  175.5590  147.6030 O   0  0  0  0  0  0  0  0  0  0  0  0
  187.8720  177.2090  146.4590 C   0  0  0  0  0  0  0  0  0  0  0  0
  187.9620  178.1140  147.2740 O   0  0  0  0  0  0  0  0  0  0  0  0
  185.5400  179.2360  145.0550 C   0  0  0  0  0  0  0  0  0  0  0  0
  184.9260  177.9560  147.0840 N   0  0  0  0  0  2  0  0  0  0  0  0
  186.4870  178.3540  144.7470 C   0  0  0  0  0  3  0  0  0  0  0  0
  185.3980  176.7730  146.3630 C   0  0  0  0  0  2  0  0  0  0  0  0
  184.6500  178.9700  146.1460 N   0  0  0  0  0  2  0  0  0  0  0  0
  185.3520  180.3930  144.2490 N   0  0  0  0  0  1  0  0  0  0  0  0
  186.6670  177.1030  145.5650 C   0  0  2  0  0  3  0  0  0  0  0  0
  193.8070  173.5430  139.2740 N   0  0  0  0  0  1  0  0  0  0  0  0
  194.7380  174.1520  140.1260 N   0  0  0  0  0  2  0  0  0  0  0  0
  190.5820  174.9250  143.5180 C   0  0  0  0  0  2  0  0  0  0  0  0
  190.3010  173.5410  144.0650 C   0  0  0  0  0  2  0  0  0  0  0  0
  189.5380  172.7390  143.0330 C   0  0  0  0  0  1  0  0  0  0  0  0
  1  4  1  0  0  0  0
  1 12  1  0  0  0  0
  2  8  2  0  0  0  0
  2 17  1  0  0  0  0
  3 10  1  0  0  0  0
  5 42  1  1  0  0  0
  5 21  1  0  0  0  0
  6  9  2  0  0  0  0
  8 18  1  0  0  0  0
  9 23  1  0  0  0  0
 11  4  1  6  0  0  0
 11  5  1  0  0  0  0
 11 20  1  0  0  0  0
 12  7  1  1  0  0  0
 12 19  1  0  0  0  0
 13 25  1  0  0  0  0
 14 20  1  0  0  0  0
 15  9  1  0  0  0  0
 15 24  1  0  0  0  0
 16  1  2  0  0  0  0
 18 12  1  0  0  0  0
 18 13  1  6  0  0  0
 19 25  1  0  0  0  0
 20 19  1  0  0  0  0
 20  3  1  0  0  0  0
 21 26  1  0  0  0  0
 21 10  1  0  0  0  0
 23 16  1  0  0  0  0
 23  8  1  0  0  0  0
 24  2  1  0  0  0  0
 25 22  1  0  0  0  0
 26 28  1  0  0  0  0
 27 26  1  0  0  0  0
 28 31  1  0  0  0  0
 28 30  1  0  0  0  0
 29 30  1  0  0  0  0
 31 32  2  0  0  0  0
 33 37  1  0  0  0  0
 35 33  2  0  0  0  0
 35 39  1  0  0  0  0
 36 34  1  0  0  0  0
 37 34  1  0  0  0  0
 38 33  1  0  0  0  0
 39 36  1  0  0  0  0
 39 31  1  0  0  0  0
 40 41  1  0  0  0  0
 41 16  1  0  0  0  0
 42 43  1  0  0  0  0
 44 43  1  0  0  0  0
M  END
>  <MODEL>
4

>  <REMARK>
 VINA RESULT:      -7.0      2.103      3.474
  Name = 
  8 active torsions:
  status: ('A' for Active; 'I' for Inactive)
    1  A    between atoms: C_6  and  C_15
    2  A    between atoms: C_7  and  C_15
    3  A    between atoms: C_8  and  C_33
    4  A    between atoms: C_8  and  C_37
    5  A    between atoms: O_17  and  C_33
    6  A    between atoms: C_26  and  C_33
    7  A    between atoms: C_26  and  C_41
    8  A    between atoms: N_27  and  C_31
                            x       y       z     vdW  Elec       q    Type
                         _______ _______ _______ _____ _____    ______ ____

>  <TORSDO>
F 8

$$$$
=
 OpenBabel11062422373D

 44 49  0  0  1  0  0  0  0  0999 V2000
  194.4360  174.0370  142.4370 C   0  0  0  0  0  0  0  0  0  0  0  0
  197.3620  171.2880  141.8900 C   0  0  0  0  0  0  0  0  0  0  0  0
  193.3860  175.3830  146.4190 C   0  0  0  0  0  2  0  0  0  0  0  0
  193.1280  174.7750  142.5980 C   0  0  0  0  0  2  0  0  0  0  0  0
  191.4700  175.8290  144.2070 C   0  0  2  0  0  3  0  0  0  0  0  0
  197.0460  173.8590  138.8380 O   0  0  0  0  0  0  0  0  0  0  0  0
  194.1330  172.1430  143.8490 O   0  0  0  0  0  1  0  0  0  0  0  0
  196.8080  172.4820  142.1790 C   0  0  0  0  0  0  0  0  0  0  0  0
  196.8380  173.0560  139.7340 C   0  0  0  0  0  0  0  0  0  0  0  0
  192.2490  176.3880  146.5540 C   0  0  0  0  0  2  0  0  0  0  0  0
  192.6780  174.8850  144.0620 C   0  0  2  0  0  3  0  0  0  0  0  0
  194.9460  173.2610  143.6550 C   0  0  1  0  0  0  0  0  0  0  0  0
  197.2360  173.8930  144.1980 C   0  0  0  0  0  2  0  0  0  0  0  0
  194.4730  176.6060  144.5280 C   0  0  0  0  0  1  0  0  0  0  0  0
  196.8980  171.5920  139.4500 C   0  0  0  0  0  2  0  0  0  0  0  0
  195.1090  174.0800  141.2520 C   0  0  0  0  0  0  0  0  0  0  0  0
  197.5840  170.3570  142.8990 O   0  0  0  0  0  1  0  0  0  0  0  0
  196.3950  172.7970  143.5750 C   0  0  2  0  0  3  0  0  0  0  0  0
  194.9180  174.1260  144.9250 C   0  0  2  0  0  3  0  0  0  0  0  0
  193.8680  175.2660  144.9720 C   0  0  1  0  0  0  0  0  0  0  0  0
  191.0580  175.9820  145.6910 C   0  0  1  0  0  3  0  0  0  0  0  0
  196.7000  174.0650  146.5110 O   0  0  0  0  0  1  0  0  0  0  0  0
  196.5200  173.5320  141.1320 C   0  0  1  0  0  3  0  0  0  0  0  0
  197.7940  170.9360  140.4930 C   0  0  0  0  0  2  0  0  0  0  0  0
  196.3530  174.5420  145.2480 C   0  0  1  0  0  3  0  0  0  0  0  0
  189.9180  176.9870  145.9350 C   0  0  1  0  0  3  0  0  0  0  0  0
  189.6900  177.9050  144.7350 C   0  0  0  0  0  1  0  0  0  0  0  0
  188.6220  176.3130  146.4060 C   0  0  1  0  0  3  0  0  0  0  0  0
  188.9330  174.2930  147.2710 C   0  0  0  0  0  1  0  0  0  0  0  0
  188.8360  175.6420  147.6160 O   0  0  0  0  0  0  0  0  0  0  0  0
  187.5150  177.3150  146.5780 C   0  0  0  0  0  0  0  0  0  0  0  0
  187.6850  178.2720  147.3190 O   0  0  0  0  0  0  0  0  0  0  0  0
  186.3050  177.4470  143.4090 C   0  0  0  0  0  0  0  0  0  0  0  0
  185.9290  179.3880  144.9000 N   0  0  0  0  0  2  0  0  0  0  0  0
  186.4310  176.6310  144.4530 C   0  0  0  0  0  2  0  0  0  0  0  0
  185.3780  178.4260  145.8550 C   0  0  0  0  0  2  0  0  0  0  0  0
  185.9060  178.8070  143.6170 N   0  0  0  0  0  0  0  0  0  0  0  0
  186.4750  176.9470  142.0890 N   0  0  0  0  0  1  0  0  0  0  0  0
  186.2090  177.1350  145.8540 C   0  0  2  0  0  3  0  0  0  0  0  0
  193.6240  174.3120  139.2400 N   0  0  0  0  0  1  0  0  0  0  0  0
  194.6030  174.8050  140.1140 N   0  0  0  0  0  2  0  0  0  0  0  0
  190.3090  175.2840  143.3850 C   0  0  0  0  0  2  0  0  0  0  0  0
  189.9430  173.8970  143.8700 C   0  0  0  0  0  2  0  0  0  0  0  0
  189.4660  173.0650  142.6990 C   0  0  0  0  0  1  0  0  0  0  0  0
  1  4  1  0  0  0  0
  1 12  1  0  0  0  0
  2  8  2  0  0  0  0
  2 17  1  0  0  0  0
  3 10  1  0  0  0  0
  5 42  1  6  0  0  0
  5 21  1  0  0  0  0
  6  9  2  0  0  0  0
  8 18  1  0  0  0  0
  9 23  1  0  0  0  0
 11  4  1  6  0  0  0
 11  5  1  0  0  0  0
 11 20  1  0  0  0  0
 12  7  1  1  0  0  0
 12 19  1  0  0  0  0
 13 25  1  0  0  0  0
 14 20  1  0  0  0  0
 15  9  1  0  0  0  0
 15 24  1  0  0  0  0
 16  1  2  0  0  0  0
 18 12  1  0  0  0  0
 18 13  1  6  0  0  0
 19 20  1  0  0  0  0
 19 25  1  0  0  0  0
 20  3  1  0  0  0  0
 21 26  1  0  0  0  0
 21 10  1  0  0  0  0
 23 16  1  0  0  0  0
 23  8  1  0  0  0  0
 24  2  1  0  0  0  0
 25 22  1  0  0  0  0
 26 28  1  0  0  0  0
 27 26  1  0  0  0  0
 28 31  1  0  0  0  0
 28 30  1  0  0  0  0
 29 30  1  0  0  0  0
 31 32  2  0  0  0  0
 33 37  2  0  0  0  0
 33 35  1  0  0  0  0
 34 36  1  0  0  0  0
 35 39  1  0  0  0  0
 37 34  1  0  0  0  0
 38 33  1  0  0  0  0
 39 36  1  0  0  0  0
 39 31  1  0  0  0  0
 40 41  1  0  0  0  0
 41 16  1  0  0  0  0
 42 43  1  0  0  0  0
 44 43  1  0  0  0  0
M  END
>  <MODEL>
5

>  <REMARK>
 VINA RESULT:      -6.9      2.161      3.404
  Name = 
  8 active torsions:
  status: ('A' for Active; 'I' for Inactive)
    1  A    between atoms: C_6  and  C_15
    2  A    between atoms: C_7  and  C_15
    3  A    between atoms: C_8  and  C_33
    4  A    between atoms: C_8  and  C_37
    5  A    between atoms: O_17  and  C_33
    6  A    between atoms: C_26  and  C_33
    7  A    between atoms: C_26  and  C_41
    8  A    between atoms: N_27  and  C_31
                            x       y       z     vdW  Elec       q    Type
                         _______ _______ _______ _____ _____    ______ ____

>  <TORSDO>
F 8

$$$$
=
 OpenBabel11062422373D

 44 49  0  0  1  0  0  0  0  0999 V2000
  187.8340  176.4230  144.6860 C   0  0  0  0  0  0  0  0  0  0  0  0
  184.3460  178.4660  144.4080 C   0  0  0  0  0  0  0  0  0  0  0  0
  189.9620  175.1900  141.1190 C   0  0  0  0  0  2  0  0  0  0  0  0
  188.9140  175.3800  144.8470 C   0  0  0  0  0  2  0  0  0  0  0  0
  190.5940  173.8680  143.6900 C   0  0  2  0  0  3  0  0  0  0  0  0
  186.4490  179.4070  147.6820 O   0  0  0  0  0  0  0  0  0  0  0  0
  186.3120  175.3580  143.1950 O   0  0  0  0  0  1  0  0  0  0  0  0
  185.6740  178.2470  144.3400 C   0  0  0  0  0  0  0  0  0  0  0  0
  185.8670  178.8330  146.7740 C   0  0  0  0  0  0  0  0  0  0  0  0
  191.2470  174.3910  141.2970 C   0  0  0  0  0  2  0  0  0  0  0  0
  189.3470  174.7540  143.5130 C   0  0  2  0  0  3  0  0  0  0  0  0
  187.1280  176.4830  143.3270 C   0  0  1  0  0  0  0  0  0  0  0  0
  187.1860  178.7400  142.4110 C   0  0  0  0  0  2  0  0  0  0  0  0
  190.5650  176.8750  142.8660 C   0  0  0  0  0  1  0  0  0  0  0  0
  184.4170  178.5070  146.9090 C   0  0  0  0  0  2  0  0  0  0  0  0
  187.5250  177.2600  145.7170 C   0  0  0  0  0  0  0  0  0  0  0  0
  183.5410  178.2420  143.2960 O   0  0  0  0  0  1  0  0  0  0  0  0
  186.2820  177.7260  143.0840 C   0  0  2  0  0  3  0  0  0  0  0  0
  188.1390  176.5060  142.1690 C   0  0  2  0  0  3  0  0  0  0  0  0
  189.5150  175.8420  142.4290 C   0  0  1  0  0  0  0  0  0  0  0  0
  191.0600  173.2870  142.3340 C   0  0  1  0  0  3  0  0  0  0  0  0
  187.8210  177.9160  140.2700 O   0  0  0  0  0  1  0  0  0  0  0  0
  186.6040  178.4490  145.5130 C   0  0  1  0  0  3  0  0  0  0  0  0
  183.6960  178.9930  145.6580 C   0  0  0  0  0  2  0  0  0  0  0  0
  188.1910  177.9290  141.6140 C   0  0  1  0  0  3  0  0  0  0  0  0
  192.3620  172.4670  142.4060 C   0  0  1  0  0  3  0  0  0  0  0  0
  193.0460  172.3490  141.0450 C   0  0  0  0  0  1  0  0  0  0  0  0
  193.3190  172.9650  143.4970 C   0  0  1  0  0  3  0  0  0  0  0  0
  193.9440  172.3550  145.5370 C   0  0  0  0  0  1  0  0  0  0  0  0
  193.8260  171.8850  144.2280 O   0  0  0  0  0  0  0  0  0  0  0  0
  194.4580  173.7510  142.9090 C   0  0  0  0  0  0  0  0  0  0  0  0
  195.4810  173.1680  142.5850 O   0  0  0  0  0  0  0  0  0  0  0  0
  196.3170  176.5450  143.4160 C   0  0  0  0  0  0  0  0  0  0  0  0
  194.5690  175.9710  145.0740 N   0  0  0  0  0  2  0  0  0  0  0  0
  195.6830  175.8630  142.4660 C   0  0  0  0  0  3  0  0  0  0  0  0
  193.6500  175.8990  143.9360 C   0  0  0  0  0  2  0  0  0  0  0  0
  195.6930  176.7300  144.6920 N   0  0  0  0  0  2  0  0  0  0  0  0
  197.5660  177.1660  143.1380 N   0  0  0  0  0  1  0  0  0  0  0  0
  194.3400  175.2400  142.7330 C   0  0  2  0  0  3  0  0  0  0  0  0
  189.4430  177.7470  147.2640 N   0  0  0  0  0  1  0  0  0  0  0  0
  188.1920  177.1760  146.9910 N   0  0  0  0  0  2  0  0  0  0  0  0
  190.2740  172.7450  144.6690 C   0  0  0  0  0  2  0  0  0  0  0  0
  189.7630  171.5360  143.9140 C   0  0  0  0  0  2  0  0  0  0  0  0
  188.5200  171.9160  143.1390 C   0  0  0  0  0  1  0  0  0  0  0  0
  1  4  1  0  0  0  0
  1 16  2  0  0  0  0
  2 24  1  0  0  0  0
  3 10  1  0  0  0  0
  3 20  1  0  0  0  0
  5 42  1  1  0  0  0
  8  2  2  0  0  0  0
  8 23  1  0  0  0  0
  9 15  1  0  0  0  0
  9  6  2  0  0  0  0
 10 21  1  0  0  0  0
 11  5  1  0  0  0  0
 11  4  1  1  0  0  0
 12  7  1  6  0  0  0
 12  1  1  0  0  0  0
 16 41  1  0  0  0  0
 17  2  1  0  0  0  0
 18 13  1  1  0  0  0
 18 12  1  0  0  0  0
 18  8  1  0  0  0  0
 19 20  1  0  0  0  0
 19 12  1  0  0  0  0
 20 14  1  0  0  0  0
 20 11  1  0  0  0  0
 21 26  1  0  0  0  0
 21  5  1  0  0  0  0
 22 25  1  0  0  0  0
 23 16  1  0  0  0  0
 23  9  1  0  0  0  0
 24 15  1  0  0  0  0
 25 19  1  0  0  0  0
 25 13  1  0  0  0  0
 26 28  1  0  0  0  0
 27 26  1  0  0  0  0
 28 30  1  0  0  0  0
 30 29  1  0  0  0  0
 31 28  1  0  0  0  0
 32 31  2  0  0  0  0
 33 37  1  0  0  0  0
 35 39  1  0  0  0  0
 35 33  2  0  0  0  0
 36 34  1  0  0  0  0
 37 34  1  0  0  0  0
 38 33  1  0  0  0  0
 39 31  1  0  0  0  0
 39 36  1  0  0  0  0
 41 40  1  0  0  0  0
 43 42  1  0  0  0  0
 44 43  1  0  0  0  0
M  END
>  <MODEL>
6

>  <REMARK>
 VINA RESULT:      -6.8      2.406      9.157
  Name = 
  8 active torsions:
  status: ('A' for Active; 'I' for Inactive)
    1  A    between atoms: C_6  and  C_15
    2  A    between atoms: C_7  and  C_15
    3  A    between atoms: C_8  and  C_33
    4  A    between atoms: C_8  and  C_37
    5  A    between atoms: O_17  and  C_33
    6  A    between atoms: C_26  and  C_33
    7  A    between atoms: C_26  and  C_41
    8  A    between atoms: N_27  and  C_31
                            x       y       z     vdW  Elec       q    Type
                         _______ _______ _______ _____ _____    ______ ____

>  <TORSDO>
F 8

$$$$
=
 OpenBabel11062422373D

 44 49  0  0  1  0  0  0  0  0999 V2000
  191.9560  172.1540  140.9170 C   0  0  0  0  0  0  0  0  0  0  0  0
  192.6620  170.7750  137.1730 C   0  0  0  0  0  0  0  0  0  0  0  0
  188.6710  174.8720  141.6870 C   0  0  0  0  0  2  0  0  0  0  0  0
  191.9620  172.8960  142.2330 C   0  0  0  0  0  2  0  0  0  0  0  0
  190.8540  174.6670  143.6760 C   0  0  2  0  0  3  0  0  0  0  0  0
  193.7180  168.1680  140.0210 O   0  0  0  0  0  0  0  0  0  0  0  0
  192.0180  173.9280  139.3280 O   0  0  0  0  0  1  0  0  0  0  0  0
  192.0330  170.9070  138.3570 C   0  0  0  0  0  0  0  0  0  0  0  0
  193.5520  169.1600  139.3280 C   0  0  0  0  0  0  0  0  0  0  0  0
  188.4880  175.3820  143.1110 C   0  0  0  0  0  2  0  0  0  0  0  0
  190.9830  174.0790  142.2580 C   0  0  2  0  0  3  0  0  0  0  0  0
  191.2500  172.8370  139.7410 C   0  0  1  0  0  0  0  0  0  0  0  0
  189.6020  171.3550  138.7310 C   0  0  0  0  0  2  0  0  0  0  0  0
  189.0130  172.4980  142.3980 C   0  0  0  0  0  1  0  0  0  0  0  0
  194.5170  169.4710  138.2320 C   0  0  0  0  0  2  0  0  0  0  0  0
  192.5560  170.9340  140.8120 C   0  0  0  0  0  0  0  0  0  0  0  0
  192.3100  171.5840  136.0990 O   0  0  0  0  0  1  0  0  0  0  0  0
  190.9820  171.9490  138.5340 C   0  0  2  0  0  3  0  0  0  0  0  0
  189.8510  173.3340  140.1380 C   0  0  2  0  0  3  0  0  0  0  0  0
  189.6280  173.6800  141.6320 C   0  0  1  0  0  0  0  0  0  0  0  0
  189.8220  175.8200  143.7070 C   0  0  1  0  0  3  0  0  0  0  0  0
  187.9870  173.1030  138.6650 O   0  0  0  0  0  1  0  0  0  0  0  0
  192.3780  170.0770  139.5720 C   0  0  1  0  0  3  0  0  0  0  0  0
  193.7260  169.7340  136.9570 C   0  0  0  0  0  2  0  0  0  0  0  0
  188.8200  172.3870  139.5230 C   0  0  1  0  0  3  0  0  0  0  0  0
  189.5580  176.4000  145.1090 C   0  0  1  0  0  3  0  0  0  0  0  0
  189.4010  177.9200  145.0850 C   0  0  0  0  0  1  0  0  0  0  0  0
  188.3940  175.7070  145.8300 C   0  0  1  0  0  3  0  0  0  0  0  0
  190.0890  175.4050  147.2310 C   0  0  0  0  0  1  0  0  0  0  0  0
  188.8810  174.8420  146.8170 O   0  0  0  0  0  0  0  0  0  0  0  0
  187.4640  176.7070  146.4560 C   0  0  0  0  0  0  0  0  0  0  0  0
  187.8830  177.4450  147.3340 O   0  0  0  0  0  0  0  0  0  0  0  0
  185.6160  178.2170  144.0410 C   0  0  0  0  0  0  0  0  0  0  0  0
  185.6220  179.2010  146.3140 N   0  0  0  0  0  2  0  0  0  0  0  0
  185.9350  177.0190  144.5250 C   0  0  0  0  0  3  0  0  0  0  0  0
  185.2560  177.8650  146.7880 C   0  0  0  0  0  2  0  0  0  0  0  0
  185.3110  179.2870  144.9430 N   0  0  0  0  0  2  0  0  0  0  0  0
  185.4870  178.4080  142.6380 N   0  0  0  0  0  1  0  0  0  0  0  0
  186.0290  176.7900  146.0100 C   0  0  2  0  0  3  0  0  0  0  0  0
  192.5890  169.5110  142.8810 N   0  0  0  0  0  1  0  0  0  0  0  0
  193.2270  170.3160  141.9270 N   0  0  0  0  0  2  0  0  0  0  0  0
  192.2190  175.1600  144.1390 C   0  0  0  0  0  2  0  0  0  0  0  0
  192.6760  176.3050  143.2600 C   0  0  0  0  0  2  0  0  0  0  0  0
  194.0770  176.0260  142.7600 C   0  0  0  0  0  1  0  0  0  0  0  0
  1  4  1  0  0  0  0
  2  8  2  0  0  0  0
  3 10  1  0  0  0  0
  5 21  1  0  0  0  0
  5 42  1  6  0  0  0
  8 18  1  0  0  0  0
  8 23  1  0  0  0  0
  9 23  1  0  0  0  0
  9  6  2  0  0  0  0
 10 21  1  0  0  0  0
 11  4  1  1  0  0  0
 11  5  1  0  0  0  0
 12  7  1  6  0  0  0
 12 19  1  0  0  0  0
 12  1  1  0  0  0  0
 13 25  1  0  0  0  0
 15  9  1  0  0  0  0
 16  1  2  0  0  0  0
 16 41  1  0  0  0  0
 17  2  1  0  0  0  0
 18 13  1  1  0  0  0
 18 12  1  0  0  0  0
 19 20  1  0  0  0  0
 20  3  1  0  0  0  0
 20 11  1  0  0  0  0
 20 14  1  0  0  0  0
 21 26  1  0  0  0  0
 22 25  1  0  0  0  0
 23 16  1  0  0  0  0
 24  2  1  0  0  0  0
 24 15  1  0  0  0  0
 25 19  1  0  0  0  0
 26 28  1  0  0  0  0
 27 26  1  0  0  0  0
 28 31  1  0  0  0  0
 28 30  1  0  0  0  0
 30 29  1  0  0  0  0
 31 32  2  0  0  0  0
 33 35  2  0  0  0  0
 33 37  1  0  0  0  0
 34 36  1  0  0  0  0
 35 39  1  0  0  0  0
 37 34  1  0  0  0  0
 38 33  1  0  0  0  0
 39 31  1  0  0  0  0
 39 36  1  0  0  0  0
 41 40  1  0  0  0  0
 43 42  1  0  0  0  0
 44 43  1  0  0  0  0
M  END
>  <MODEL>
7

>  <REMARK>
 VINA RESULT:      -6.8      3.785      5.935
  Name = 
  8 active torsions:
  status: ('A' for Active; 'I' for Inactive)
    1  A    between atoms: C_6  and  C_15
    2  A    between atoms: C_7  and  C_15
    3  A    between atoms: C_8  and  C_33
    4  A    between atoms: C_8  and  C_37
    5  A    between atoms: O_17  and  C_33
    6  A    between atoms: C_26  and  C_33
    7  A    between atoms: C_26  and  C_41
    8  A    between atoms: N_27  and  C_31
                            x       y       z     vdW  Elec       q    Type
                         _______ _______ _______ _____ _____    ______ ____

>  <TORSDO>
F 8

$$$$
=
 OpenBabel11062422373D

 44 49  0  0  1  0  0  0  0  0999 V2000
  189.1380  176.2320  143.9760 C   0  0  0  0  0  0  0  0  0  0  0  0
  186.7420  178.5300  146.2990 C   0  0  0  0  0  0  0  0  0  0  0  0
  192.2960  173.8460  145.7400 C   0  0  0  0  0  2  0  0  0  0  0  0
  190.2000  175.6890  143.0480 C   0  0  0  0  0  2  0  0  0  0  0  0
  192.4000  174.4380  142.8420 C   0  0  2  0  0  3  0  0  0  0  0  0
  184.8950  177.1660  143.0210 O   0  0  0  0  0  0  0  0  0  0  0  0
  190.4060  177.5900  145.4680 O   0  0  0  0  0  1  0  0  0  0  0  0
  187.2520  177.4060  145.7580 C   0  0  0  0  0  0  0  0  0  0  0  0
  185.6770  177.6570  143.8190 C   0  0  0  0  0  0  0  0  0  0  0  0
  193.1840  173.0370  144.8030 C   0  0  0  0  0  2  0  0  0  0  0  0
  191.4430  175.1810  143.7930 C   0  0  2  0  0  3  0  0  0  0  0  0
  189.5530  176.4850  145.4290 C   0  0  1  0  0  0  0  0  0  0  0  0
  188.0380  175.3700  146.9770 C   0  0  0  0  0  2  0  0  0  0  0  0
  190.1760  173.1500  144.6090 C   0  0  0  0  0  1  0  0  0  0  0  0
  185.5800  179.1070  144.1600 C   0  0  0  0  0  2  0  0  0  0  0  0
  187.8790  176.4720  143.5140 C   0  0  0  0  0  0  0  0  0  0  0  0
  187.2680  179.0390  147.4810 O   0  0  0  0  0  1  0  0  0  0  0  0
  188.4080  176.7230  146.4040 C   0  0  2  0  0  3  0  0  0  0  0  0
  190.2830  175.2700  146.0240 C   0  0  2  0  0  3  0  0  0  0  0  0
  191.0380  174.3500  145.0300 C   0  0  1  0  0  0  0  0  0  0  0  0
  193.6210  173.8770  143.6080 C   0  0  1  0  0  3  0  0  0  0  0  0
  189.8660  174.5410  148.2580 O   0  0  0  0  0  1  0  0  0  0  0  0
  186.7450  176.8080  144.4670 C   0  0  1  0  0  3  0  0  0  0  0  0
  185.5750  179.2450  145.6760 C   0  0  0  0  0  2  0  0  0  0  0  0
  189.3210  174.5580  146.9750 C   0  0  1  0  0  3  0  0  0  0  0  0
  194.5800  173.0330  142.7480 C   0  0  1  0  0  3  0  0  0  0  0  0
  194.0230  172.7710  141.3490 C   0  0  0  0  0  1  0  0  0  0  0  0
  196.0040  173.6050  142.7090 C   0  0  1  0  0  3  0  0  0  0  0  0
  197.1420  175.1870  143.7700 C   0  0  0  0  0  1  0  0  0  0  0  0
  196.3910  174.0300  143.9840 O   0  0  0  0  0  0  0  0  0  0  0  0
  196.9880  172.5890  142.1990 C   0  0  0  0  0  0  0  0  0  0  0  0
  197.0860  171.5140  142.7700 O   0  0  0  0  0  0  0  0  0  0  0  0
  196.7030  174.0460  139.1460 C   0  0  0  0  0  0  0  0  0  0  0  0
  196.6930  171.5730  139.2820 N   0  0  0  0  0  2  0  0  0  0  0  0
  197.3670  174.1370  140.2960 C   0  0  0  0  0  3  0  0  0  0  0  0
  197.9360  171.7060  140.0440 C   0  0  0  0  0  2  0  0  0  0  0  0
  196.4880  172.7600  138.5520 N   0  0  0  0  0  2  0  0  0  0  0  0
  196.2910  175.2240  138.4640 N   0  0  0  0  0  1  0  0  0  0  0  0
  197.8490  172.9010  141.0050 C   0  0  2  0  0  3  0  0  0  0  0  0
  187.7450  177.1540  141.1010 N   0  0  0  0  0  1  0  0  0  0  0  0
  187.5140  176.2420  142.1400 N   0  0  0  0  0  2  0  0  0  0  0  0
  192.8510  175.3890  141.7410 C   0  0  0  0  0  2  0  0  0  0  0  0
  193.7580  176.4530  142.3230 C   0  0  0  0  0  2  0  0  0  0  0  0
  194.8560  176.7740  141.3310 C   0  0  0  0  0  1  0  0  0  0  0  0
  1 12  1  0  0  0  0
  2 17  1  0  0  0  0
  4  1  1  0  0  0  0
  5 42  1  6  0  0  0
  5 21  1  0  0  0  0
  5 11  1  0  0  0  0
  6  9  2  0  0  0  0
  8  2  2  0  0  0  0
  8 18  1  0  0  0  0
  9 15  1  0  0  0  0
  9 23  1  0  0  0  0
 10  3  1  0  0  0  0
 11  4  1  6  0  0  0
 11 20  1  0  0  0  0
 12  7  1  1  0  0  0
 12 19  1  0  0  0  0
 12 18  1  0  0  0  0
 14 20  1  0  0  0  0
 15 24  1  0  0  0  0
 16  1  2  0  0  0  0
 16 23  1  0  0  0  0
 18 13  1  6  0  0  0
 19 25  1  0  0  0  0
 20  3  1  0  0  0  0
 20 19  1  0  0  0  0
 21 10  1  0  0  0  0
 23  8  1  0  0  0  0
 24  2  1  0  0  0  0
 25 13  1  0  0  0  0
 25 22  1  0  0  0  0
 26 21  1  0  0  0  0
 27 26  1  0  0  0  0
 28 26  1  0  0  0  0
 28 30  1  0  0  0  0
 29 30  1  0  0  0  0
 31 28  1  0  0  0  0
 31 32  2  0  0  0  0
 33 35  2  0  0  0  0
 34 36  1  0  0  0  0
 35 39  1  0  0  0  0
 36 39  1  0  0  0  0
 37 33  1  0  0  0  0
 37 34  1  0  0  0  0
 38 33  1  0  0  0  0
 39 31  1  0  0  0  0
 40 41  1  0  0  0  0
 41 16  1  0  0  0  0
 42 43  1  0  0  0  0
 44 43  1  0  0  0  0
M  END
>  <MODEL>
8

>  <REMARK>
 VINA RESULT:      -6.6      2.532      9.602
  Name = 
  8 active torsions:
  status: ('A' for Active; 'I' for Inactive)
    1  A    between atoms: C_6  and  C_15
    2  A    between atoms: C_7  and  C_15
    3  A    between atoms: C_8  and  C_33
    4  A    between atoms: C_8  and  C_37
    5  A    between atoms: O_17  and  C_33
    6  A    between atoms: C_26  and  C_33
    7  A    between atoms: C_26  and  C_41
    8  A    between atoms: N_27  and  C_31
                            x       y       z     vdW  Elec       q    Type
                         _______ _______ _______ _____ _____    ______ ____

>  <TORSDO>
F 8

$$$$
=
 OpenBabel11062422373D

 44 49  0  0  1  0  0  0  0  0999 V2000
  187.8590  176.0620  144.6450 C   0  0  0  0  0  0  0  0  0  0  0  0
  184.6780  178.5060  145.2180 C   0  0  0  0  0  0  0  0  0  0  0  0
  189.0650  174.9070  140.6470 C   0  0  0  0  0  2  0  0  0  0  0  0
  188.8060  174.8920  144.5160 C   0  0  0  0  0  2  0  0  0  0  0  0
  190.0140  173.3030  142.9470 C   0  0  2  0  0  3  0  0  0  0  0  0
  187.4880  178.9130  148.0400 O   0  0  0  0  0  0  0  0  0  0  0  0
  185.9480  175.3100  143.4370 O   0  0  0  0  0  1  0  0  0  0  0  0
  185.9270  178.1430  144.8650 C   0  0  0  0  0  0  0  0  0  0  0  0
  186.6700  178.4910  147.2380 C   0  0  0  0  0  0  0  0  0  0  0  0
  190.2450  173.9530  140.5080 C   0  0  0  0  0  2  0  0  0  0  0  0
  188.8830  174.3380  143.0860 C   0  0  2  0  0  3  0  0  0  0  0  0
  186.9130  176.3190  143.4680 C   0  0  1  0  0  0  0  0  0  0  0  0
  187.0800  178.6250  142.7000 C   0  0  0  0  0  2  0  0  0  0  0  0
  190.2130  176.3540  142.3330 C   0  0  0  0  0  1  0  0  0  0  0  0
  185.2450  178.3220  147.6490 C   0  0  0  0  0  2  0  0  0  0  0  0
  187.8700  176.8350  145.7670 C   0  0  0  0  0  0  0  0  0  0  0  0
  183.6490  178.4720  144.2850 O   0  0  0  0  0  1  0  0  0  0  0  0
  186.2040  177.6670  143.4810 C   0  0  2  0  0  3  0  0  0  0  0  0
  187.6700  176.3260  142.1300 C   0  0  2  0  0  3  0  0  0  0  0  0
  188.9730  175.4890  142.0590 C   0  0  1  0  0  0  0  0  0  0  0  0
  190.1260  172.7930  141.4910 C   0  0  1  0  0  3  0  0  0  0  0  0
  187.1700  177.9220  140.4270 O   0  0  0  0  0  1  0  0  0  0  0  0
  187.0880  178.1350  145.8310 C   0  0  1  0  0  3  0  0  0  0  0  0
  184.3610  178.9930  146.6050 C   0  0  0  0  0  2  0  0  0  0  0  0
  187.7960  177.7760  141.6650 C   0  0  1  0  0  3  0  0  0  0  0  0
  191.2990  171.8260  141.2420 C   0  0  1  0  0  3  0  0  0  0  0  0
  190.8220  170.4160  140.8990 C   0  0  0  0  0  1  0  0  0  0  0  0
  192.3060  172.3650  140.2170 C   0  0  1  0  0  3  0  0  0  0  0  0
  193.9150  173.8840  140.0430 C   0  0  0  0  0  1  0  0  0  0  0  0
  193.4410  172.8620  140.8670 O   0  0  0  0  0  0  0  0  0  0  0  0
  192.7150  171.2990  139.2400 C   0  0  0  0  0  0  0  0  0  0  0  0
  193.3710  170.3470  139.6340 O   0  0  0  0  0  0  0  0  0  0  0  0
  189.9690  171.9890  137.3670 C   0  0  0  0  0  0  0  0  0  0  0  0
  190.6410  169.6230  137.6540 N   0  0  0  0  0  2  0  0  0  0  0  0
  191.2120  172.4030  137.6010 C   0  0  0  0  0  3  0  0  0  0  0  0
  191.9650  170.0440  137.1940 C   0  0  0  0  0  2  0  0  0  0  0  0
  189.6990  170.5880  137.2450 N   0  0  0  0  0  2  0  0  0  0  0  0
  188.9310  172.9370  137.1480 N   0  0  0  0  0  1  0  0  0  0  0  0
  192.3290  171.4110  137.7900 C   0  0  2  0  0  3  0  0  0  0  0  0
  190.0570  177.0810  146.9760 N   0  0  0  0  0  1  0  0  0  0  0  0
  188.7580  176.5670  146.8700 N   0  0  0  0  0  2  0  0  0  0  0  0
  189.7510  172.1440  143.9000 C   0  0  0  0  0  2  0  0  0  0  0  0
  191.0240  171.7890  144.6390 C   0  0  0  0  0  2  0  0  0  0  0  0
  191.9600  172.9780  144.6280 C   0  0  0  0  0  1  0  0  0  0  0  0
  1 16  2  0  0  0  0
  2 24  1  0  0  0  0
  3 20  1  0  0  0  0
  4  1  1  0  0  0  0
  5 11  1  0  0  0  0
  5 42  1  1  0  0  0
  8  2  2  0  0  0  0
  8 23  1  0  0  0  0
  9 15  1  0  0  0  0
  9  6  2  0  0  0  0
 10  3  1  0  0  0  0
 10 21  1  0  0  0  0
 11  4  1  1  0  0  0
 12  7  1  6  0  0  0
 12 18  1  0  0  0  0
 12  1  1  0  0  0  0
 16 23  1  0  0  0  0
 16 41  1  0  0  0  0
 17  2  1  0  0  0  0
 18 13  1  1  0  0  0
 18  8  1  0  0  0  0
 19 12  1  0  0  0  0
 20 19  1  0  0  0  0
 20 14  1  0  0  0  0
 20 11  1  0  0  0  0
 21  5  1  0  0  0  0
 22 25  1  0  0  0  0
 23  9  1  0  0  0  0
 24 15  1  0  0  0  0
 25 19  1  0  0  0  0
 25 13  1  0  0  0  0
 26 21  1  0  0  0  0
 27 26  1  0  0  0  0
 28 30  1  0  0  0  0
 28 26  1  0  0  0  0
 29 30  1  0  0  0  0
 31 32  2  0  0  0  0
 31 28  1  0  0  0  0
 33 35  2  0  0  0  0
 35 39  1  0  0  0  0
 36 34  1  0  0  0  0
 36 39  1  0  0  0  0
 37 33  1  0  0  0  0
 37 34  1  0  0  0  0
 38 33  1  0  0  0  0
 39 31  1  0  0  0  0
 41 40  1  0  0  0  0
 42 43  1  0  0  0  0
 44 43  1  0  0  0  0
M  END
>  <MODEL>
9

>  <REMARK>
 VINA RESULT:      -6.4      3.540      9.399
  Name = 
  8 active torsions:
  status: ('A' for Active; 'I' for Inactive)
    1  A    between atoms: C_6  and  C_15
    2  A    between atoms: C_7  and  C_15
    3  A    between atoms: C_8  and  C_33
    4  A    between atoms: C_8  and  C_37
    5  A    between atoms: O_17  and  C_33
    6  A    between atoms: C_26  and  C_33
    7  A    between atoms: C_26  and  C_41
    8  A    between atoms: N_27  and  C_31
                            x       y       z     vdW  Elec       q    Type
                         _______ _______ _______ _____ _____    ______ ____

>  <TORSDO>
F 8

$$$$
