=
 OpenBabel11072409383D

 63 67  0  0  1  0  0  0  0  0999 V2000
  192.8120  172.3430  142.5450 C   0  0  1  0  0  0  0  0  0  0  0  0
  194.0200  172.9840  143.2710 C   0  0  1  0  0  3  0  0  0  0  0  0
  193.6200  173.4710  141.9060 C   0  0  0  0  0  2  0  0  0  0  0  0
  192.9910  171.0110  141.7020 C   0  0  2  0  0  0  0  0  0  0  0  0
  192.4400  169.9600  142.4580 O   0  0  0  0  0  1  0  0  0  0  0  0
  194.5060  170.6300  141.4650 C   0  0  2  0  0  0  0  0  0  0  0  0
  194.6140  169.2110  140.8890 C   0  0  0  0  0  1  0  0  0  0  0  0
  196.5980  170.4880  142.7150 O   0  0  0  0  0  0  0  0  0  0  0  0
  195.2500  170.7750  142.8270 C   0  0  0  0  0  3  0  0  0  0  0  0
  195.7810  169.5790  143.2790 O   0  0  0  0  0  0  0  0  0  0  0  0
  195.0550  171.5740  140.5250 O   0  0  0  0  0  0  0  0  0  0  0  0
  195.9140  171.2820  139.4490 C   0  0  0  0  0  0  0  0  0  0  0  0
  197.1480  171.1200  139.6280 O   0  0  0  0  0  0  0  0  0  0  0  0
  195.4010  171.1600  138.1580 O   0  0  0  0  0  0  0  0  0  0  0  0
  196.2040  170.7350  137.0630 C   0  0  0  0  0  2  0  0  0  0  0  0
  195.5880  169.5160  136.4050 C   0  0  0  0  0  1  0  0  0  0  0  0
  192.1410  171.0380  140.3860 C   0  0  2  0  0  3  0  0  0  0  0  0
  191.7680  169.6810  139.7480 C   0  0  2  0  0  3  0  0  0  0  0  0
  192.3330  169.5140  138.3500 C   0  0  0  0  0  1  0  0  0  0  0  0
  190.3970  169.5410  139.6740 F   0  0  0  0  0  0  0  0  0  0  0  0
  192.7230  171.9130  139.4530 O   0  0  0  0  0  0  0  0  0  0  0  0
  190.6770  173.1760  139.5550 C   0  0  0  0  0  2  0  0  0  0  0  0
  191.2220  174.3200  137.1180 N   0  0  0  0  0  0  0  0  0  0  0  0
  189.8370  173.8590  137.2480 C   0  0  0  0  0  2  0  0  0  0  0  0
  191.6540  172.3890  138.6830 C   0  0  1  0  0  3  0  0  0  0  0  0
  192.1760  173.2730  137.5330 C   0  0  0  0  0  2  0  0  0  0  0  0
  189.4780  173.6580  138.7260 C   0  0  0  0  0  2  0  0  0  0  0  0
  191.4890  174.7130  135.7310 C   0  0  0  0  0  2  0  0  0  0  0  0
  192.8410  175.3920  135.5280 C   0  0  0  0  0  2  0  0  0  0  0  0
  192.9130  176.5520  136.3000 O   0  0  0  0  0  1  0  0  0  0  0  0
  193.4230  173.7740  145.4080 O   0  0  0  0  0  0  0  0  0  0  0  0
  193.6570  174.0600  144.2440 C   0  0  0  0  0  3  0  0  0  0  0  0
  191.5220  172.8500  142.8330 O   0  0  0  0  0  0  0  0  0  0  0  0
  189.5660  171.6820  142.7000 O   0  0  0  0  0  1  0  0  0  0  0  0
  190.7130  171.8870  143.4840 C   0  0  2  0  0  3  0  0  0  0  0  0
  190.3270  172.3060  144.7700 O   0  0  0  0  0  0  0  0  0  0  0  0
  189.8130  173.5990  144.6180 C   0  0  0  0  0  2  0  0  0  0  0  0
  189.9620  174.4000  145.9030 C   0  0  0  0  0  2  0  0  0  0  0  0
  190.1570  175.8750  145.6070 C   0  0  0  0  0  2  0  0  0  0  0  0
  190.2610  177.2980  147.5090 O   0  0  0  0  0  0  0  0  0  0  0  0
  189.5290  176.6870  146.6870 C   0  0  0  0  0  0  0  0  0  0  0  0
  188.1380  176.7630  146.7910 O   0  0  0  0  0  0  0  0  0  0  0  0
  187.3030  176.4470  145.6830 C   0  0  0  0  0  2  0  0  0  0  0  0
  187.3170  177.4920  144.7520 O   0  0  0  0  0  0  0  0  0  0  0  0
  186.0800  177.4590  144.0920 C   0  0  1  0  0  3  0  0  0  0  0  0
  185.8010  179.9470  144.1630 O   0  0  0  0  0  0  0  0  0  0  0  0
  184.6670  179.6010  146.0860 O   0  0  0  0  0  0  0  0  0  0  0  0
  185.2530  178.7260  144.3950 C   0  0  1  0  0  0  0  0  0  0  0  0
  183.9980  178.7720  145.1710 C   0  0  0  0  0  2  0  0  0  0  0  0
  185.8810  179.4690  145.4590 N   0  0  1  0  0  0  0  0  0  0  0  0
  186.2760  177.1750  142.5920 C   0  0  1  0  0  3  0  0  0  0  0  0
  185.6690  178.7290  140.9230 O   0  0  0  0  0  0  0  0  0  0  0  0
  185.2750  177.8800  141.7140 C   0  0  0  0  0  0  0  0  0  0  0  0
  183.8060  177.6000  141.8400 C   0  0  0  0  0  2  0  0  0  0  0  0
  182.9570  178.7310  141.2710 C   0  0  0  0  0  2  0  0  0  0  0  0
  181.7150  178.1870  140.5870 C   0  0  0  0  0  2  0  0  0  0  0  0
  180.7330  177.9380  141.5450 O   0  0  0  0  0  0  0  0  0  0  0  0
  178.7610  178.9570  142.3930 C   0  0  0  0  0  1  0  0  0  0  0  0
  179.6660  178.7700  141.1940 C   0  0  0  0  0  2  0  0  0  0  0  0
  187.6070  177.4990  142.2000 O   0  0  0  0  0  0  0  0  0  0  0  0
  188.5800  176.5180  141.9830 C   0  0  0  0  0  0  0  0  0  0  0  0
  188.2500  175.4250  141.4510 O   0  0  0  0  0  0  0  0  0  0  0  0
  190.0110  176.7450  142.3520 C   0  0  0  0  0  1  0  0  0  0  0  0
  1 33  1  1  0  0  0
  1  2  1  0  0  0  0
  2 32  1  1  0  0  0
  3  1  1  0  0  0  0
  3  2  1  0  0  0  0
  4  5  1  1  0  0  0
  4  1  1  0  0  0  0
  6  7  1  6  0  0  0
  6  4  1  0  0  0  0
  6  9  1  0  0  0  0
  8  9  1  0  0  0  0
  8 10  1  0  0  0  0
  9 10  1  0  0  0  0
 11  6  1  0  0  0  0
 12 13  2  0  0  0  0
 12 11  1  0  0  0  0
 14 12  1  0  0  0  0
 15 14  1  0  0  0  0
 16 15  1  0  0  0  0
 17 21  1  6  0  0  0
 17  4  1  0  0  0  0
 18 19  1  6  0  0  0
 18 17  1  0  0  0  0
 20 18  1  0  0  0  0
 23 24  1  0  0  0  0
 23 26  1  0  0  0  0
 24 27  1  0  0  0  0
 25 21  1  1  0  0  0
 25 22  1  0  0  0  0
 26 25  1  0  0  0  0
 27 22  1  0  0  0  0
 28 23  1  0  0  0  0
 29 28  1  0  0  0  0
 29 30  1  0  0  0  0
 32 31  2  0  0  0  0
 33 35  1  0  0  0  0
 35 34  1  6  0  0  0
 35 36  1  0  0  0  0
 37 36  1  0  0  0  0
 37 38  1  0  0  0  0
 39 38  1  0  0  0  0
 39 41  1  0  0  0  0
 41 42  1  0  0  0  0
 41 40  2  0  0  0  0
 43 42  1  0  0  0  0
 44 43  1  0  0  0  0
 45 44  1  1  0  0  0
 46 48  1  0  0  0  0
 48 45  1  6  0  0  0
 48 49  1  0  0  0  0
 48 50  1  0  0  0  0
 49 47  1  0  0  0  0
 50 46  1  6  0  0  0
 50 47  1  0  0  0  0
 51 53  1  6  0  0  0
 51 45  1  0  0  0  0
 52 53  2  0  0  0  0
 53 54  1  0  0  0  0
 55 54  1  0  0  0  0
 56 55  1  0  0  0  0
 56 57  1  0  0  0  0
 59 57  1  0  0  0  0
 59 58  1  0  0  0  0
 60 51  1  0  0  0  0
 61 60  1  0  0  0  0
 61 63  1  0  0  0  0
 62 61  2  0  0  0  0
M  END
>  <MODEL>
1

>  <REMARK>
 VINA RESULT:      -4.0      0.000      0.000
  Name = 
  35 active torsions:
  status: ('A' for Active; 'I' for Inactive)
    1  A    between atoms: C_1  and  O_8
    2  A    between atoms: C_3  and  C_17
    3  A    between atoms: C_3  and  C_29
    4  A    between atoms: C_3  and  C_57
    5  A    between atoms: C_6  and  C_23
    6  A    between atoms: C_6  and  C_60
    7  A    between atoms: C_7  and  O_8
    8  A    between atoms: C_7  and  O_42
    9  A    between atoms: C_10  and  C_57
   10  A    between atoms: O_15  and  C_47
   11  A    between atoms: O_15  and  C_57
   12  A    between atoms: C_16  and  C_48
   13  A    between atoms: C_17  and  C_31
   14  A    between atoms: C_17  and  O_42
   15  A    between atoms: O_18  and  C_24
   16  A    between atoms: O_18  and  C_32
   17  A    between atoms: C_19  and  O_28
   18  A    between atoms: C_19  and  C_48
   19  A    between atoms: C_19  and  C_61
   20  A    between atoms: C_20  and  C_32
   21  A    between atoms: C_20  and  C_43
   22  A    between atoms: O_21  and  C_36
   23  A    between atoms: O_21  and  C_59
   24  A    between atoms: C_23  and  C_61
   25  A    between atoms: C_24  and  O_30
   26  A    between atoms: N_25  and  C_44
   27  A    between atoms: C_27  and  C_44
   28  A    between atoms: O_28  and  C_33
   29  A    between atoms: C_29  and  O_41
   30  A    between atoms: O_30  and  C_48
   31  A    between atoms: C_36  and  C_43
   32  A    between atoms: O_37  and  C_38
   33  A    between atoms: O_37  and  C_60
   34  A    between atoms: C_39  and  C_45
   35  A    between atoms: O_41  and  C_59
                            x       y       z     vdW  Elec       q    Type
                         _______ _______ _______ _____ _____    ______ ____

>  <TORSDO>
F 35

$$$$
=
 OpenBabel11072409383D

 63 67  0  0  1  0  0  0  0  0999 V2000
  193.0040  172.3950  142.5790 C   0  0  1  0  0  0  0  0  0  0  0  0
  194.0730  173.3390  143.1830 C   0  0  1  0  0  3  0  0  0  0  0  0
  193.7680  173.3960  141.7120 C   0  0  0  0  0  2  0  0  0  0  0  0
  193.3830  170.9160  142.1500 C   0  0  2  0  0  0  0  0  0  0  0  0
  192.3260  170.0800  142.5550 O   0  0  0  0  0  1  0  0  0  0  0  0
  194.6730  170.3730  142.8840 C   0  0  2  0  0  0  0  0  0  0  0  0
  194.8850  168.8870  142.5580 C   0  0  0  0  0  1  0  0  0  0  0  0
  194.6610  169.4690  145.1510 O   0  0  0  0  0  0  0  0  0  0  0  0
  194.4910  170.6250  144.4110 C   0  0  0  0  0  3  0  0  0  0  0  0
  193.4150  169.9350  144.9450 O   0  0  0  0  0  0  0  0  0  0  0  0
  195.8010  171.1340  142.4110 O   0  0  0  0  0  0  0  0  0  0  0  0
  197.1590  170.8650  142.6640 C   0  0  0  0  0  0  0  0  0  0  0  0
  197.7070  169.8210  142.2280 O   0  0  0  0  0  0  0  0  0  0  0  0
  197.9250  171.7670  143.4020 O   0  0  0  0  0  0  0  0  0  0  0  0
  197.3570  172.9240  144.0040 C   0  0  0  0  0  2  0  0  0  0  0  0
  197.2600  172.7380  145.5060 C   0  0  0  0  0  1  0  0  0  0  0  0
  193.4380  170.7580  140.5930 C   0  0  2  0  0  3  0  0  0  0  0  0
  192.8280  169.4760  139.9820 C   0  0  2  0  0  3  0  0  0  0  0  0
  193.7510  168.8050  138.9820 C   0  0  0  0  0  1  0  0  0  0  0  0
  191.6400  169.7620  139.3410 F   0  0  0  0  0  0  0  0  0  0  0  0
  194.7440  170.9880  140.1290 O   0  0  0  0  0  0  0  0  0  0  0  0
  193.3400  172.3970  138.7750 C   0  0  0  0  0  2  0  0  0  0  0  0
  195.5440  173.4290  137.5020 N   0  0  0  0  0  0  0  0  0  0  0  0
  194.4560  173.0720  136.5860 C   0  0  0  0  0  2  0  0  0  0  0  0
  194.5870  171.5180  138.8420 C   0  0  1  0  0  3  0  0  0  0  0  0
  195.8360  172.3280  138.4420 C   0  0  0  0  0  2  0  0  0  0  0  0
  193.1340  172.9400  137.3530 C   0  0  0  0  0  2  0  0  0  0  0  0
  196.7500  173.7620  136.7380 C   0  0  0  0  0  2  0  0  0  0  0  0
  197.6780  172.5740  136.4970 C   0  0  0  0  0  2  0  0  0  0  0  0
  197.9000  172.4100  135.1290 O   0  0  0  0  0  1  0  0  0  0  0  0
  193.4500  175.6090  143.1280 O   0  0  0  0  0  0  0  0  0  0  0  0
  193.5220  174.5870  143.7930 C   0  0  0  0  0  3  0  0  0  0  0  0
  191.6520  172.8120  142.6240 O   0  0  0  0  0  0  0  0  0  0  0  0
  189.6830  171.7000  142.3250 O   0  0  0  0  0  1  0  0  0  0  0  0
  190.8100  171.8060  143.1550 C   0  0  2  0  0  3  0  0  0  0  0  0
  190.3950  172.1040  144.4660 O   0  0  0  0  0  0  0  0  0  0  0  0
  190.0560  173.4620  144.4640 C   0  0  0  0  0  2  0  0  0  0  0  0
  190.5940  174.1590  145.7050 C   0  0  0  0  0  2  0  0  0  0  0  0
  190.4060  175.6620  145.6110 C   0  0  0  0  0  2  0  0  0  0  0  0
  190.8110  176.7150  147.7040 O   0  0  0  0  0  0  0  0  0  0  0  0
  189.9650  176.1920  146.9330 C   0  0  0  0  0  0  0  0  0  0  0  0
  188.6250  176.1020  147.3150 O   0  0  0  0  0  0  0  0  0  0  0  0
  187.5840  176.1310  146.3460 C   0  0  0  0  0  2  0  0  0  0  0  0
  187.4790  177.4080  145.7840 O   0  0  0  0  0  0  0  0  0  0  0  0
  186.1790  177.5150  145.2680 C   0  0  1  0  0  3  0  0  0  0  0  0
  185.9110  179.5090  146.7590 O   0  0  0  0  0  0  0  0  0  0  0  0
  184.3900  178.2650  147.8740 O   0  0  0  0  0  0  0  0  0  0  0  0
  185.3170  178.4670  146.1230 C   0  0  1  0  0  0  0  0  0  0  0  0
  183.9250  178.2210  146.5500 C   0  0  0  0  0  2  0  0  0  0  0  0
  185.7090  178.3620  147.5060 N   0  0  1  0  0  0  0  0  0  0  0  0
  186.2220  177.8720  143.7710 C   0  0  1  0  0  3  0  0  0  0  0  0
  186.1060  180.2200  143.5700 O   0  0  0  0  0  0  0  0  0  0  0  0
  185.5080  179.1590  143.4420 C   0  0  0  0  0  0  0  0  0  0  0  0
  184.0680  179.1560  143.0230 C   0  0  0  0  0  2  0  0  0  0  0  0
  183.7160  177.9280  142.1930 C   0  0  0  0  0  2  0  0  0  0  0  0
  183.4040  178.3140  140.7570 C   0  0  0  0  0  2  0  0  0  0  0  0
  182.2250  179.0590  140.7270 O   0  0  0  0  0  0  0  0  0  0  0  0
  180.1540  177.9080  140.5520 C   0  0  0  0  0  1  0  0  0  0  0  0
  181.3020  178.3040  141.4570 C   0  0  0  0  0  2  0  0  0  0  0  0
  187.5700  177.9120  143.3130 O   0  0  0  0  0  0  0  0  0  0  0  0
  187.8990  177.8280  141.9560 C   0  0  0  0  0  0  0  0  0  0  0  0
  188.8740  178.4910  141.5130 O   0  0  0  0  0  0  0  0  0  0  0  0
  187.1310  176.9510  141.0200 C   0  0  0  0  0  1  0  0  0  0  0  0
  1 33  1  1  0  0  0
  1  2  1  0  0  0  0
  2 32  1  1  0  0  0
  3  1  1  0  0  0  0
  3  2  1  0  0  0  0
  4  5  1  1  0  0  0
  4  1  1  0  0  0  0
  4  6  1  0  0  0  0
  6  7  1  6  0  0  0
  6  9  1  0  0  0  0
  9 10  1  0  0  0  0
  9  8  1  0  0  0  0
 10  8  1  0  0  0  0
 11 12  1  0  0  0  0
 11  6  1  0  0  0  0
 12 14  1  0  0  0  0
 13 12  2  0  0  0  0
 14 15  1  0  0  0  0
 15 16  1  0  0  0  0
 17 21  1  1  0  0  0
 17  4  1  0  0  0  0
 18 19  1  6  0  0  0
 18 17  1  0  0  0  0
 20 18  1  0  0  0  0
 22 25  1  0  0  0  0
 23 26  1  0  0  0  0
 24 27  1  0  0  0  0
 24 23  1  0  0  0  0
 25 21  1  1  0  0  0
 26 25  1  0  0  0  0
 27 22  1  0  0  0  0
 28 23  1  0  0  0  0
 29 28  1  0  0  0  0
 30 29  1  0  0  0  0
 31 32  2  0  0  0  0
 33 35  1  0  0  0  0
 35 34  1  6  0  0  0
 35 36  1  0  0  0  0
 37 36  1  0  0  0  0
 37 38  1  0  0  0  0
 39 38  1  0  0  0  0
 39 41  1  0  0  0  0
 41 42  1  0  0  0  0
 41 40  2  0  0  0  0
 43 42  1  0  0  0  0
 44 43  1  0  0  0  0
 45 44  1  1  0  0  0
 48 45  1  6  0  0  0
 48 49  1  0  0  0  0
 48 46  1  0  0  0  0
 48 50  1  0  0  0  0
 49 47  1  0  0  0  0
 50 46  1  1  0  0  0
 50 47  1  0  0  0  0
 51 60  1  1  0  0  0
 51 45  1  0  0  0  0
 53 52  2  0  0  0  0
 53 51  1  0  0  0  0
 54 53  1  0  0  0  0
 55 54  1  0  0  0  0
 56 55  1  0  0  0  0
 57 56  1  0  0  0  0
 57 59  1  0  0  0  0
 58 59  1  0  0  0  0
 61 60  1  0  0  0  0
 62 61  2  0  0  0  0
 63 61  1  0  0  0  0
M  END
>  <MODEL>
2

>  <REMARK>
 VINA RESULT:      -3.6      1.970      2.946
  Name = 
  35 active torsions:
  status: ('A' for Active; 'I' for Inactive)
    1  A    between atoms: C_1  and  O_8
    2  A    between atoms: C_3  and  C_17
    3  A    between atoms: C_3  and  C_29
    4  A    between atoms: C_3  and  C_57
    5  A    between atoms: C_6  and  C_23
    6  A    between atoms: C_6  and  C_60
    7  A    between atoms: C_7  and  O_8
    8  A    between atoms: C_7  and  O_42
    9  A    between atoms: C_10  and  C_57
   10  A    between atoms: O_15  and  C_47
   11  A    between atoms: O_15  and  C_57
   12  A    between atoms: C_16  and  C_48
   13  A    between atoms: C_17  and  C_31
   14  A    between atoms: C_17  and  O_42
   15  A    between atoms: O_18  and  C_24
   16  A    between atoms: O_18  and  C_32
   17  A    between atoms: C_19  and  O_28
   18  A    between atoms: C_19  and  C_48
   19  A    between atoms: C_19  and  C_61
   20  A    between atoms: C_20  and  C_32
   21  A    between atoms: C_20  and  C_43
   22  A    between atoms: O_21  and  C_36
   23  A    between atoms: O_21  and  C_59
   24  A    between atoms: C_23  and  C_61
   25  A    between atoms: C_24  and  O_30
   26  A    between atoms: N_25  and  C_44
   27  A    between atoms: C_27  and  C_44
   28  A    between atoms: O_28  and  C_33
   29  A    between atoms: C_29  and  O_41
   30  A    between atoms: O_30  and  C_48
   31  A    between atoms: C_36  and  C_43
   32  A    between atoms: O_37  and  C_38
   33  A    between atoms: O_37  and  C_60
   34  A    between atoms: C_39  and  C_45
   35  A    between atoms: O_41  and  C_59
                            x       y       z     vdW  Elec       q    Type
                         _______ _______ _______ _____ _____    ______ ____

>  <TORSDO>
F 35

$$$$
=
 OpenBabel11072409383D

 63 67  0  0  1  0  0  0  0  0999 V2000
  193.6940  173.7530  141.7280 C   0  0  1  0  0  0  0  0  0  0  0  0
  194.4440  174.8670  142.4990 C   0  0  1  0  0  3  0  0  0  0  0  0
  194.1590  175.0300  141.0310 C   0  0  0  0  0  2  0  0  0  0  0  0
  194.4800  172.5060  141.1430 C   0  0  2  0  0  0  0  0  0  0  0  0
  193.6780  171.9400  140.1350 O   0  0  0  0  0  1  0  0  0  0  0  0
  194.7070  171.3630  142.2110 C   0  0  2  0  0  0  0  0  0  0  0  0
  194.7190  169.9890  141.5260 C   0  0  0  0  0  1  0  0  0  0  0  0
  193.4740  170.3420  144.0530 O   0  0  0  0  0  0  0  0  0  0  0  0
  193.5790  171.4830  143.2800 C   0  0  0  0  0  3  0  0  0  0  0  0
  192.5600  170.5640  143.0900 O   0  0  0  0  0  0  0  0  0  0  0  0
  195.9820  171.5980  142.8420 O   0  0  0  0  0  0  0  0  0  0  0  0
  197.0120  170.6570  143.0240 C   0  0  0  0  0  0  0  0  0  0  0  0
  197.6730  170.2200  142.0480 O   0  0  0  0  0  0  0  0  0  0  0  0
  197.3220  170.1990  144.3040 O   0  0  0  0  0  0  0  0  0  0  0  0
  196.3310  169.6770  145.1800 C   0  0  0  0  0  2  0  0  0  0  0  0
  196.7670  169.8420  146.6220 C   0  0  0  0  0  1  0  0  0  0  0  0
  195.7930  172.9400  140.4060 C   0  0  2  0  0  3  0  0  0  0  0  0
  196.7080  173.9610  141.1180 C   0  0  2  0  0  3  0  0  0  0  0  0
  197.2290  175.0350  140.1830 C   0  0  0  0  0  1  0  0  0  0  0  0
  197.7940  173.3250  141.6850 F   0  0  0  0  0  0  0  0  0  0  0  0
  195.5010  173.3290  139.0880 O   0  0  0  0  0  0  0  0  0  0  0  0
  196.9950  171.4430  139.1220 C   0  0  0  0  0  2  0  0  0  0  0  0
  195.9690  170.5440  136.7380 N   0  0  0  0  0  0  0  0  0  0  0  0
  197.4330  170.5040  136.7940 C   0  0  0  0  0  2  0  0  0  0  0  0
  196.3030  172.5120  138.2800 C   0  0  1  0  0  3  0  0  0  0  0  0
  195.4520  171.8560  137.1740 C   0  0  0  0  0  2  0  0  0  0  0  0
  197.9140  170.5760  138.2490 C   0  0  0  0  0  2  0  0  0  0  0  0
  195.5140  170.2600  135.3740 C   0  0  0  0  0  2  0  0  0  0  0  0
  194.0280  169.9230  135.2730 C   0  0  0  0  0  2  0  0  0  0  0  0
  193.6910  168.9610  136.2260 O   0  0  0  0  0  1  0  0  0  0  0  0
  193.9540  176.3740  144.2410 O   0  0  0  0  0  0  0  0  0  0  0  0
  193.5540  175.8220  143.2270 C   0  0  0  0  0  3  0  0  0  0  0  0
  192.2790  173.7690  141.7530 O   0  0  0  0  0  0  0  0  0  0  0  0
  191.4470  173.9690  139.6370 O   0  0  0  0  0  1  0  0  0  0  0  0
  191.7260  173.0530  140.6640 C   0  0  2  0  0  3  0  0  0  0  0  0
  190.5430  172.3810  141.0210 O   0  0  0  0  0  0  0  0  0  0  0  0
  189.9330  172.0070  139.8170 C   0  0  0  0  0  2  0  0  0  0  0  0
  188.6180  172.7470  139.6200 C   0  0  0  0  0  2  0  0  0  0  0  0
  188.2610  173.5600  140.8500 C   0  0  0  0  0  2  0  0  0  0  0  0
  187.6950  175.3360  139.3740 O   0  0  0  0  0  0  0  0  0  0  0  0
  188.1790  175.0040  140.4870 C   0  0  0  0  0  0  0  0  0  0  0  0
  188.6440  175.9780  141.3730 O   0  0  0  0  0  0  0  0  0  0  0  0
  187.8150  177.0660  141.7660 C   0  0  0  0  0  2  0  0  0  0  0  0
  188.4040  177.7660  142.8250 O   0  0  0  0  0  0  0  0  0  0  0  0
  187.9940  177.1300  144.0060 C   0  0  1  0  0  3  0  0  0  0  0  0
  190.4580  176.8990  144.3820 O   0  0  0  0  0  0  0  0  0  0  0  0
  189.9450  174.9990  145.4920 O   0  0  0  0  0  0  0  0  0  0  0  0
  189.2040  176.7440  144.8810 C   0  0  1  0  0  0  0  0  0  0  0  0
  189.1510  175.9640  146.1330 C   0  0  0  0  0  2  0  0  0  0  0  0
  189.9020  175.6370  144.2770 N   0  0  1  0  0  0  0  0  0  0  0  0
  186.9310  177.9740  144.7320 C   0  0  1  0  0  3  0  0  0  0  0  0
  186.0920  179.8320  143.5430 O   0  0  0  0  0  0  0  0  0  0  0  0
  185.9560  178.6410  143.7960 C   0  0  0  0  0  0  0  0  0  0  0  0
  184.7940  177.8830  143.2240 C   0  0  0  0  0  2  0  0  0  0  0  0
  183.4600  178.5350  143.5700 C   0  0  0  0  0  2  0  0  0  0  0  0
  182.6660  178.8460  142.3120 C   0  0  0  0  0  2  0  0  0  0  0  0
  182.9380  177.8780  141.3450 O   0  0  0  0  0  0  0  0  0  0  0  0
  181.0510  179.1900  140.7430 C   0  0  0  0  0  1  0  0  0  0  0  0
  181.8610  177.9430  140.4570 C   0  0  0  0  0  2  0  0  0  0  0  0
  186.2440  177.1800  145.6940 O   0  0  0  0  0  0  0  0  0  0  0  0
  185.9440  177.6550  146.9750 C   0  0  0  0  0  0  0  0  0  0  0  0
  185.7730  176.8340  147.9150 O   0  0  0  0  0  0  0  0  0  0  0  0
  185.8400  179.1180  147.2600 C   0  0  0  0  0  1  0  0  0  0  0  0
  1 33  1  1  0  0  0
  1  2  1  0  0  0  0
  2 32  1  1  0  0  0
  3  1  1  0  0  0  0
  3  2  1  0  0  0  0
  4  5  1  6  0  0  0
  4  1  1  0  0  0  0
  4  6  1  0  0  0  0
  6  7  1  6  0  0  0
  6 11  1  0  0  0  0
  6  9  1  0  0  0  0
  9  8  1  0  0  0  0
 10  9  1  0  0  0  0
 10  8  1  0  0  0  0
 11 12  1  0  0  0  0
 12 14  1  0  0  0  0
 13 12  2  0  0  0  0
 14 15  1  0  0  0  0
 15 16  1  0  0  0  0
 17 21  1  6  0  0  0
 17 18  1  0  0  0  0
 17  4  1  0  0  0  0
 18 19  1  6  0  0  0
 18 20  1  0  0  0  0
 23 24  1  0  0  0  0
 23 26  1  0  0  0  0
 24 27  1  0  0  0  0
 25 21  1  1  0  0  0
 25 22  1  0  0  0  0
 26 25  1  0  0  0  0
 27 22  1  0  0  0  0
 28 23  1  0  0  0  0
 29 28  1  0  0  0  0
 29 30  1  0  0  0  0
 32 31  2  0  0  0  0
 35 34  1  6  0  0  0
 35 36  1  0  0  0  0
 35 33  1  0  0  0  0
 37 36  1  0  0  0  0
 38 37  1  0  0  0  0
 38 39  1  0  0  0  0
 40 41  2  0  0  0  0
 41 39  1  0  0  0  0
 41 42  1  0  0  0  0
 42 43  1  0  0  0  0
 43 44  1  0  0  0  0
 45 44  1  6  0  0  0
 45 51  1  0  0  0  0
 46 48  1  0  0  0  0
 47 49  1  0  0  0  0
 48 45  1  6  0  0  0
 48 49  1  0  0  0  0
 50 46  1  1  0  0  0
 50 48  1  0  0  0  0
 50 47  1  0  0  0  0
 51 53  1  6  0  0  0
 51 60  1  0  0  0  0
 52 53  2  0  0  0  0
 54 55  1  0  0  0  0
 54 53  1  0  0  0  0
 56 55  1  0  0  0  0
 57 56  1  0  0  0  0
 59 58  1  0  0  0  0
 59 57  1  0  0  0  0
 60 61  1  0  0  0  0
 61 63  1  0  0  0  0
 61 62  2  0  0  0  0
M  END
>  <MODEL>
3

>  <REMARK>
 VINA RESULT:      -3.6      2.596      5.021
  Name = 
  35 active torsions:
  status: ('A' for Active; 'I' for Inactive)
    1  A    between atoms: C_1  and  O_8
    2  A    between atoms: C_3  and  C_17
    3  A    between atoms: C_3  and  C_29
    4  A    between atoms: C_3  and  C_57
    5  A    between atoms: C_6  and  C_23
    6  A    between atoms: C_6  and  C_60
    7  A    between atoms: C_7  and  O_8
    8  A    between atoms: C_7  and  O_42
    9  A    between atoms: C_10  and  C_57
   10  A    between atoms: O_15  and  C_47
   11  A    between atoms: O_15  and  C_57
   12  A    between atoms: C_16  and  C_48
   13  A    between atoms: C_17  and  C_31
   14  A    between atoms: C_17  and  O_42
   15  A    between atoms: O_18  and  C_24
   16  A    between atoms: O_18  and  C_32
   17  A    between atoms: C_19  and  O_28
   18  A    between atoms: C_19  and  C_48
   19  A    between atoms: C_19  and  C_61
   20  A    between atoms: C_20  and  C_32
   21  A    between atoms: C_20  and  C_43
   22  A    between atoms: O_21  and  C_36
   23  A    between atoms: O_21  and  C_59
   24  A    between atoms: C_23  and  C_61
   25  A    between atoms: C_24  and  O_30
   26  A    between atoms: N_25  and  C_44
   27  A    between atoms: C_27  and  C_44
   28  A    between atoms: O_28  and  C_33
   29  A    between atoms: C_29  and  O_41
   30  A    between atoms: O_30  and  C_48
   31  A    between atoms: C_36  and  C_43
   32  A    between atoms: O_37  and  C_38
   33  A    between atoms: O_37  and  C_60
   34  A    between atoms: C_39  and  C_45
   35  A    between atoms: O_41  and  C_59
                            x       y       z     vdW  Elec       q    Type
                         _______ _______ _______ _____ _____    ______ ____

>  <TORSDO>
F 35

$$$$
=
 OpenBabel11072409383D

 63 67  0  0  1  0  0  0  0  0999 V2000
  194.2640  170.8900  141.3300 C   0  0  1  0  0  0  0  0  0  0  0  0
  194.1260  170.4060  142.7950 C   0  0  1  0  0  3  0  0  0  0  0  0
  193.7840  171.8260  142.4380 C   0  0  0  0  0  2  0  0  0  0  0  0
  195.6630  171.3900  140.7740 C   0  0  2  0  0  0  0  0  0  0  0  0
  196.6630  170.8180  141.5810 O   0  0  0  0  0  1  0  0  0  0  0  0
  195.8500  172.9540  140.8910 C   0  0  2  0  0  0  0  0  0  0  0  0
  197.2480  173.3620  140.4060 C   0  0  0  0  0  1  0  0  0  0  0  0
  196.2500  174.5230  142.7180 O   0  0  0  0  0  0  0  0  0  0  0  0
  195.5990  173.3510  142.3780 C   0  0  0  0  0  3  0  0  0  0  0  0
  196.7570  173.3480  143.1370 O   0  0  0  0  0  0  0  0  0  0  0  0
  194.8510  173.5800  140.0610 O   0  0  0  0  0  0  0  0  0  0  0  0
  194.8980  174.8830  139.5320 C   0  0  0  0  0  0  0  0  0  0  0  0
  194.7220  175.8890  140.2670 O   0  0  0  0  0  0  0  0  0  0  0  0
  195.1490  175.0790  138.1750 O   0  0  0  0  0  0  0  0  0  0  0  0
  194.1000  175.2030  137.2230 C   0  0  0  0  0  2  0  0  0  0  0  0
  194.6730  175.4570  135.8430 C   0  0  0  0  0  1  0  0  0  0  0  0
  195.9490  170.8340  139.3370 C   0  0  2  0  0  3  0  0  0  0  0  0
  196.2880  169.3310  139.2070 C   0  0  2  0  0  3  0  0  0  0  0  0
  196.0690  168.5660  140.4980 C   0  0  0  0  0  1  0  0  0  0  0  0
  197.6050  169.1630  138.8290 F   0  0  0  0  0  0  0  0  0  0  0  0
  196.8940  171.6420  138.6840 O   0  0  0  0  0  0  0  0  0  0  0  0
  197.4480  171.9570  136.3640 C   0  0  0  0  0  2  0  0  0  0  0  0
  195.1990  170.5750  135.6050 N   0  0  0  0  0  0  0  0  0  0  0  0
  195.4060  171.8120  134.8460 C   0  0  0  0  0  2  0  0  0  0  0  0
  196.3460  171.8970  137.4200 C   0  0  1  0  0  3  0  0  0  0  0  0
  195.3140  170.8120  137.0570 C   0  0  0  0  0  2  0  0  0  0  0  0
  196.8580  172.2860  134.9840 C   0  0  0  0  0  2  0  0  0  0  0  0
  193.8790  170.0160  135.2960 C   0  0  0  0  0  2  0  0  0  0  0  0
  192.9730  169.8570  136.5150 C   0  0  0  0  0  2  0  0  0  0  0  0
  191.7710  170.5360  136.3070 O   0  0  0  0  0  1  0  0  0  0  0  0
  192.7700  168.4920  143.0060 O   0  0  0  0  0  0  0  0  0  0  0  0
  192.8390  169.7090  143.0970 C   0  0  0  0  0  3  0  0  0  0  0  0
  193.1740  170.6680  140.4550 O   0  0  0  0  0  0  0  0  0  0  0  0
  191.0580  171.4610  140.7730 O   0  0  0  0  0  1  0  0  0  0  0  0
  192.3480  171.8130  140.3450 C   0  0  2  0  0  3  0  0  0  0  0  0
  192.2850  172.2920  139.0240 O   0  0  0  0  0  0  0  0  0  0  0  0
  191.3920  173.3710  139.0470 C   0  0  0  0  0  2  0  0  0  0  0  0
  190.4270  173.3040  137.8730 C   0  0  0  0  0  2  0  0  0  0  0  0
  189.1870  174.1370  138.1390 C   0  0  0  0  0  2  0  0  0  0  0  0
  188.2000  172.3220  139.3150 O   0  0  0  0  0  0  0  0  0  0  0  0
  188.4350  173.5580  139.2890 C   0  0  0  0  0  0  0  0  0  0  0  0
  187.9900  174.3820  140.3230 O   0  0  0  0  0  0  0  0  0  0  0  0
  188.8720  174.8020  141.3570 C   0  0  0  0  0  2  0  0  0  0  0  0
  188.1470  175.1530  142.5020 O   0  0  0  0  0  0  0  0  0  0  0  0
  188.4650  176.4890  142.7860 C   0  0  1  0  0  3  0  0  0  0  0  0
  186.2000  177.1830  143.5960 O   0  0  0  0  0  0  0  0  0  0  0  0
  185.7080  177.5290  141.4190 O   0  0  0  0  0  0  0  0  0  0  0  0
  187.2130  177.3870  142.7150 C   0  0  1  0  0  0  0  0  0  0  0  0
  186.8670  178.2990  141.6070 C   0  0  0  0  0  2  0  0  0  0  0  0
  186.0680  176.5910  142.3530 N   0  0  1  0  0  0  0  0  0  0  0  0
  189.2420  176.5880  144.1110 C   0  0  1  0  0  3  0  0  0  0  0  0
  190.6530  178.4370  144.5080 O   0  0  0  0  0  0  0  0  0  0  0  0
  190.5460  177.3340  143.9870 C   0  0  0  0  0  0  0  0  0  0  0  0
  191.6830  176.7710  143.1850 C   0  0  0  0  0  2  0  0  0  0  0  0
  192.9640  176.6700  144.0040 C   0  0  0  0  0  2  0  0  0  0  0  0
  193.1960  175.2440  144.4740 C   0  0  0  0  0  2  0  0  0  0  0  0
  192.1420  174.8540  145.2990 O   0  0  0  0  0  0  0  0  0  0  0  0
  190.6920  173.1840  144.4310 C   0  0  0  0  0  1  0  0  0  0  0  0
  192.0180  173.4760  145.1010 C   0  0  0  0  0  2  0  0  0  0  0  0
  188.4220  177.1710  145.1200 O   0  0  0  0  0  0  0  0  0  0  0  0
  188.1800  176.5380  146.3430 C   0  0  0  0  0  0  0  0  0  0  0  0
  189.0900  175.8440  146.8710 O   0  0  0  0  0  0  0  0  0  0  0  0
  186.8720  176.6810  147.0510 C   0  0  0  0  0  1  0  0  0  0  0  0
  1 33  1  6  0  0  0
  1  3  1  0  0  0  0
  1  2  1  0  0  0  0
  2 32  1  6  0  0  0
  3  2  1  0  0  0  0
  4  6  1  0  0  0  0
  4  1  1  0  0  0  0
  4  5  1  1  0  0  0
  6  7  1  6  0  0  0
  6  9  1  0  0  0  0
  8 10  1  0  0  0  0
  9  8  1  0  0  0  0
  9 10  1  0  0  0  0
 11  6  1  0  0  0  0
 12 11  1  0  0  0  0
 12 13  2  0  0  0  0
 14 12  1  0  0  0  0
 15 14  1  0  0  0  0
 16 15  1  0  0  0  0
 17 21  1  1  0  0  0
 17  4  1  0  0  0  0
 18 17  1  0  0  0  0
 18 19  1  1  0  0  0
 20 18  1  0  0  0  0
 22 25  1  0  0  0  0
 23 26  1  0  0  0  0
 24 27  1  0  0  0  0
 24 23  1  0  0  0  0
 25 21  1  1  0  0  0
 26 25  1  0  0  0  0
 27 22  1  0  0  0  0
 28 23  1  0  0  0  0
 28 29  1  0  0  0  0
 30 29  1  0  0  0  0
 31 32  2  0  0  0  0
 35 33  1  0  0  0  0
 35 34  1  6  0  0  0
 36 37  1  0  0  0  0
 36 35  1  0  0  0  0
 38 39  1  0  0  0  0
 38 37  1  0  0  0  0
 39 41  1  0  0  0  0
 41 40  2  0  0  0  0
 41 42  1  0  0  0  0
 42 43  1  0  0  0  0
 43 44  1  0  0  0  0
 45 44  1  1  0  0  0
 45 51  1  0  0  0  0
 47 49  1  0  0  0  0
 48 45  1  1  0  0  0
 48 46  1  0  0  0  0
 49 48  1  0  0  0  0
 50 47  1  6  0  0  0
 50 48  1  0  0  0  0
 50 46  1  0  0  0  0
 51 53  1  6  0  0  0
 51 60  1  0  0  0  0
 53 52  2  0  0  0  0
 54 53  1  0  0  0  0
 54 55  1  0  0  0  0
 55 56  1  0  0  0  0
 56 57  1  0  0  0  0
 58 59  1  0  0  0  0
 59 57  1  0  0  0  0
 60 61  1  0  0  0  0
 61 62  2  0  0  0  0
 61 63  1  0  0  0  0
M  END
>  <MODEL>
4

>  <REMARK>
 VINA RESULT:      -3.5      2.773      6.114
  Name = 
  35 active torsions:
  status: ('A' for Active; 'I' for Inactive)
    1  A    between atoms: C_1  and  O_8
    2  A    between atoms: C_3  and  C_17
    3  A    between atoms: C_3  and  C_29
    4  A    between atoms: C_3  and  C_57
    5  A    between atoms: C_6  and  C_23
    6  A    between atoms: C_6  and  C_60
    7  A    between atoms: C_7  and  O_8
    8  A    between atoms: C_7  and  O_42
    9  A    between atoms: C_10  and  C_57
   10  A    between atoms: O_15  and  C_47
   11  A    between atoms: O_15  and  C_57
   12  A    between atoms: C_16  and  C_48
   13  A    between atoms: C_17  and  C_31
   14  A    between atoms: C_17  and  O_42
   15  A    between atoms: O_18  and  C_24
   16  A    between atoms: O_18  and  C_32
   17  A    between atoms: C_19  and  O_28
   18  A    between atoms: C_19  and  C_48
   19  A    between atoms: C_19  and  C_61
   20  A    between atoms: C_20  and  C_32
   21  A    between atoms: C_20  and  C_43
   22  A    between atoms: O_21  and  C_36
   23  A    between atoms: O_21  and  C_59
   24  A    between atoms: C_23  and  C_61
   25  A    between atoms: C_24  and  O_30
   26  A    between atoms: N_25  and  C_44
   27  A    between atoms: C_27  and  C_44
   28  A    between atoms: O_28  and  C_33
   29  A    between atoms: C_29  and  O_41
   30  A    between atoms: O_30  and  C_48
   31  A    between atoms: C_36  and  C_43
   32  A    between atoms: O_37  and  C_38
   33  A    between atoms: O_37  and  C_60
   34  A    between atoms: C_39  and  C_45
   35  A    between atoms: O_41  and  C_59
                            x       y       z     vdW  Elec       q    Type
                         _______ _______ _______ _____ _____    ______ ____

>  <TORSDO>
F 35

$$$$
=
 OpenBabel11072409383D

 63 67  0  0  1  0  0  0  0  0999 V2000
  191.3100  175.1910  144.7140 C   0  0  1  0  0  0  0  0  0  0  0  0
  191.8280  175.8770  146.0020 C   0  0  1  0  0  3  0  0  0  0  0  0
  191.5550  174.3980  145.9960 C   0  0  0  0  0  2  0  0  0  0  0  0
  189.7620  175.1860  144.3680 C   0  0  2  0  0  0  0  0  0  0  0  0
  189.2180  174.0020  144.8990 O   0  0  0  0  0  1  0  0  0  0  0  0
  189.4770  175.1370  142.8140 C   0  0  2  0  0  0  0  0  0  0  0  0
  190.7510  175.4810  142.0290 C   0  0  0  0  0  1  0  0  0  0  0  0
  187.5690  175.7370  141.4160 O   0  0  0  0  0  0  0  0  0  0  0  0
  188.3110  176.1280  142.5150 C   0  0  0  0  0  3  0  0  0  0  0  0
  188.4410  176.7550  141.2870 O   0  0  0  0  0  0  0  0  0  0  0  0
  189.0560  173.7990  142.4860 O   0  0  0  0  0  0  0  0  0  0  0  0
  189.4190  173.0630  141.3430 C   0  0  0  0  0  0  0  0  0  0  0  0
  190.1650  172.0540  141.4300 O   0  0  0  0  0  0  0  0  0  0  0  0
  188.9450  173.4410  140.0870 O   0  0  0  0  0  0  0  0  0  0  0  0
  188.1850  172.5590  139.2700 C   0  0  0  0  0  2  0  0  0  0  0  0
  188.8610  172.3780  137.9250 C   0  0  0  0  0  1  0  0  0  0  0  0
  188.9970  176.3370  145.1060 C   0  0  2  0  0  3  0  0  0  0  0  0
  189.6200  177.7510  145.0630 C   0  0  2  0  0  3  0  0  0  0  0  0
  190.6070  177.9230  143.9240 C   0  0  0  0  0  1  0  0  0  0  0  0
  190.2800  178.0260  146.2440 F   0  0  0  0  0  0  0  0  0  0  0  0
  188.6810  175.9440  146.4180 O   0  0  0  0  0  0  0  0  0  0  0  0
  187.4090  177.6650  147.5170 C   0  0  0  0  0  2  0  0  0  0  0  0
  185.6840  177.8010  145.3840 N   0  0  0  0  0  0  0  0  0  0  0  0
  185.0040  177.7850  146.6830 C   0  0  0  0  0  2  0  0  0  0  0  0
  187.3810  176.4180  146.6370 C   0  0  1  0  0  3  0  0  0  0  0  0
  186.6910  176.7250  145.2930 C   0  0  0  0  0  2  0  0  0  0  0  0
  185.9830  178.1600  147.8030 C   0  0  0  0  0  2  0  0  0  0  0  0
  184.7020  177.6540  144.3060 C   0  0  0  0  0  2  0  0  0  0  0  0
  184.0100  178.9580  143.9160 C   0  0  0  0  0  2  0  0  0  0  0  0
  183.5520  178.8800  142.6000 O   0  0  0  0  0  1  0  0  0  0  0  0
  193.8450  176.9420  145.4150 O   0  0  0  0  0  0  0  0  0  0  0  0
  193.3110  176.0490  146.0570 C   0  0  0  0  0  3  0  0  0  0  0  0
  192.2660  174.7680  143.7590 O   0  0  0  0  0  0  0  0  0  0  0  0
  192.4200  172.8540  144.9920 O   0  0  0  0  0  1  0  0  0  0  0  0
  192.3420  173.3570  143.6830 C   0  0  2  0  0  3  0  0  0  0  0  0
  193.4660  172.9280  142.9530 O   0  0  0  0  0  0  0  0  0  0  0  0
  194.5810  173.2440  143.7410 C   0  0  0  0  0  2  0  0  0  0  0  0
  195.5000  174.2180  143.0180 C   0  0  0  0  0  2  0  0  0  0  0  0
  195.4540  173.9990  141.5180 C   0  0  0  0  0  2  0  0  0  0  0  0
  194.7660  176.2750  141.5180 O   0  0  0  0  0  0  0  0  0  0  0  0
  194.9040  175.2150  140.8530 C   0  0  0  0  0  0  0  0  0  0  0  0
  194.5370  175.1750  139.5070 O   0  0  0  0  0  0  0  0  0  0  0  0
  195.5080  174.9650  138.4890 C   0  0  0  0  0  2  0  0  0  0  0  0
  195.1570  175.6690  137.3310 O   0  0  0  0  0  0  0  0  0  0  0  0
  193.9630  175.1010  136.8620 C   0  0  1  0  0  3  0  0  0  0  0  0
  194.3800  176.4050  134.7650 O   0  0  0  0  0  0  0  0  0  0  0  0
  192.4700  177.5040  135.2640 O   0  0  0  0  0  0  0  0  0  0  0  0
  193.4730  175.8130  135.5840 C   0  0  1  0  0  0  0  0  0  0  0  0
  192.0710  176.1580  135.2720 C   0  0  0  0  0  2  0  0  0  0  0  0
  193.7470  177.2250  135.6830 N   0  0  1  0  0  0  0  0  0  0  0  0
  194.1110  173.5760  136.7210 C   0  0  1  0  0  3  0  0  0  0  0  0
  191.8120  173.4010  137.2220 O   0  0  0  0  0  0  0  0  0  0  0  0
  192.7940  172.8420  136.7510 C   0  0  0  0  0  0  0  0  0  0  0  0
  192.6890  171.4250  136.2700 C   0  0  0  0  0  2  0  0  0  0  0  0
  192.0880  170.5060  137.3270 C   0  0  0  0  0  2  0  0  0  0  0  0
  192.6070  170.8580  138.7110 C   0  0  0  0  0  2  0  0  0  0  0  0
  192.9450  169.6870  139.3870 O   0  0  0  0  0  0  0  0  0  0  0  0
  194.7380  170.4770  140.7300 C   0  0  0  0  0  1  0  0  0  0  0  0
  193.2730  170.0980  140.6820 C   0  0  0  0  0  2  0  0  0  0  0  0
  194.8370  173.2590  135.5370 O   0  0  0  0  0  0  0  0  0  0  0  0
  196.0050  172.4900  135.5620 C   0  0  0  0  0  0  0  0  0  0  0  0
  196.1680  171.6410  136.4790 O   0  0  0  0  0  0  0  0  0  0  0  0
  197.0590  172.6390  134.5130 C   0  0  0  0  0  1  0  0  0  0  0  0
  1 33  1  6  0  0  0
  1  3  1  0  0  0  0
  1  2  1  0  0  0  0
  2 32  1  6  0  0  0
  3  2  1  0  0  0  0
  4  1  1  0  0  0  0
  4  5  1  1  0  0  0
  4 17  1  0  0  0  0
  6  7  1  6  0  0  0
  6  4  1  0  0  0  0
  8  9  1  0  0  0  0
  9  6  1  0  0  0  0
 10  8  1  0  0  0  0
 10  9  1  0  0  0  0
 11  6  1  0  0  0  0
 12 13  2  0  0  0  0
 12 11  1  0  0  0  0
 14 12  1  0  0  0  0
 15 14  1  0  0  0  0
 16 15  1  0  0  0  0
 17 21  1  1  0  0  0
 18 19  1  6  0  0  0
 18 17  1  0  0  0  0
 18 20  1  0  0  0  0
 22 27  1  0  0  0  0
 23 24  1  0  0  0  0
 24 27  1  0  0  0  0
 25 21  1  6  0  0  0
 25 22  1  0  0  0  0
 26 23  1  0  0  0  0
 26 25  1  0  0  0  0
 28 23  1  0  0  0  0
 29 28  1  0  0  0  0
 30 29  1  0  0  0  0
 31 32  2  0  0  0  0
 35 33  1  0  0  0  0
 35 34  1  1  0  0  0
 36 35  1  0  0  0  0
 36 37  1  0  0  0  0
 38 37  1  0  0  0  0
 39 38  1  0  0  0  0
 41 40  2  0  0  0  0
 41 39  1  0  0  0  0
 42 41  1  0  0  0  0
 43 42  1  0  0  0  0
 44 43  1  0  0  0  0
 45 44  1  6  0  0  0
 46 48  1  0  0  0  0
 47 49  1  0  0  0  0
 47 50  1  0  0  0  0
 48 50  1  0  0  0  0
 48 45  1  1  0  0  0
 49 48  1  0  0  0  0
 50 46  1  6  0  0  0
 51 60  1  6  0  0  0
 51 53  1  0  0  0  0
 51 45  1  0  0  0  0
 53 52  2  0  0  0  0
 54 53  1  0  0  0  0
 54 55  1  0  0  0  0
 55 56  1  0  0  0  0
 56 57  1  0  0  0  0
 57 59  1  0  0  0  0
 59 58  1  0  0  0  0
 60 61  1  0  0  0  0
 61 62  2  0  0  0  0
 63 61  1  0  0  0  0
M  END
>  <MODEL>
5

>  <REMARK>
 VINA RESULT:      -3.3      2.708      9.779
  Name = 
  35 active torsions:
  status: ('A' for Active; 'I' for Inactive)
    1  A    between atoms: C_1  and  O_8
    2  A    between atoms: C_3  and  C_17
    3  A    between atoms: C_3  and  C_29
    4  A    between atoms: C_3  and  C_57
    5  A    between atoms: C_6  and  C_23
    6  A    between atoms: C_6  and  C_60
    7  A    between atoms: C_7  and  O_8
    8  A    between atoms: C_7  and  O_42
    9  A    between atoms: C_10  and  C_57
   10  A    between atoms: O_15  and  C_47
   11  A    between atoms: O_15  and  C_57
   12  A    between atoms: C_16  and  C_48
   13  A    between atoms: C_17  and  C_31
   14  A    between atoms: C_17  and  O_42
   15  A    between atoms: O_18  and  C_24
   16  A    between atoms: O_18  and  C_32
   17  A    between atoms: C_19  and  O_28
   18  A    between atoms: C_19  and  C_48
   19  A    between atoms: C_19  and  C_61
   20  A    between atoms: C_20  and  C_32
   21  A    between atoms: C_20  and  C_43
   22  A    between atoms: O_21  and  C_36
   23  A    between atoms: O_21  and  C_59
   24  A    between atoms: C_23  and  C_61
   25  A    between atoms: C_24  and  O_30
   26  A    between atoms: N_25  and  C_44
   27  A    between atoms: C_27  and  C_44
   28  A    between atoms: O_28  and  C_33
   29  A    between atoms: C_29  and  O_41
   30  A    between atoms: O_30  and  C_48
   31  A    between atoms: C_36  and  C_43
   32  A    between atoms: O_37  and  C_38
   33  A    between atoms: O_37  and  C_60
   34  A    between atoms: C_39  and  C_45
   35  A    between atoms: O_41  and  C_59
                            x       y       z     vdW  Elec       q    Type
                         _______ _______ _______ _____ _____    ______ ____

>  <TORSDO>
F 35

$$$$
=
 OpenBabel11072409383D

 63 67  0  0  1  0  0  0  0  0999 V2000
  193.6850  172.7160  141.1390 C   0  0  1  0  0  0  0  0  0  0  0  0
  194.7580  173.6380  141.7690 C   0  0  1  0  0  3  0  0  0  0  0  0
  194.2710  173.8990  140.3700 C   0  0  0  0  0  2  0  0  0  0  0  0
  194.1000  171.3580  140.4320 C   0  0  2  0  0  0  0  0  0  0  0  0
  192.9140  170.6850  140.0880 O   0  0  0  0  0  1  0  0  0  0  0  0
  194.8930  170.3820  141.3900 C   0  0  2  0  0  0  0  0  0  0  0  0
  195.8360  169.4860  140.5740 C   0  0  0  0  0  1  0  0  0  0  0  0
  194.0100  169.7140  143.5650 O   0  0  0  0  0  0  0  0  0  0  0  0
  193.8450  169.5600  142.2000 C   0  0  0  0  0  3  0  0  0  0  0  0
  194.4250  168.5740  142.9810 O   0  0  0  0  0  0  0  0  0  0  0  0
  195.6650  171.1900  142.3000 O   0  0  0  0  0  0  0  0  0  0  0  0
  196.9590  170.9110  142.7770 C   0  0  0  0  0  0  0  0  0  0  0  0
  197.9410  171.6240  142.4490 O   0  0  0  0  0  0  0  0  0  0  0  0
  197.1700  169.8320  143.6350 O   0  0  0  0  0  0  0  0  0  0  0  0
  197.6160  170.0090  144.9740 C   0  0  0  0  0  2  0  0  0  0  0  0
  196.6760  170.9350  145.7210 C   0  0  0  0  0  1  0  0  0  0  0  0
  194.8220  171.6120  139.0650 C   0  0  2  0  0  3  0  0  0  0  0  0
  196.3390  171.9050  139.1000 C   0  0  2  0  0  3  0  0  0  0  0  0
  196.6830  173.2860  138.5770 C   0  0  0  0  0  1  0  0  0  0  0  0
  197.0290  170.9780  138.3450 F   0  0  0  0  0  0  0  0  0  0  0  0
  194.1210  172.5740  138.3190 O   0  0  0  0  0  0  0  0  0  0  0  0
  194.0280  170.4730  137.1520 C   0  0  0  0  0  2  0  0  0  0  0  0
  191.9810  171.4010  135.5730 N   0  0  0  0  0  0  0  0  0  0  0  0
  193.0230  170.6950  134.8200 C   0  0  0  0  0  2  0  0  0  0  0  0
  193.9320  171.9940  137.0580 C   0  0  1  0  0  3  0  0  0  0  0  0
  192.5650  172.4100  136.4790 C   0  0  0  0  0  2  0  0  0  0  0  0
  193.8710  169.8330  135.7640 C   0  0  0  0  0  2  0  0  0  0  0  0
  191.0490  172.0480  134.6450 C   0  0  0  0  0  2  0  0  0  0  0  0
  191.2280  173.5610  134.5410 C   0  0  0  0  0  2  0  0  0  0  0  0
  190.0210  174.2040  134.8220 O   0  0  0  0  0  1  0  0  0  0  0  0
  194.9660  175.4200  143.2940 O   0  0  0  0  0  0  0  0  0  0  0  0
  194.2080  174.7250  142.6340 C   0  0  0  0  0  3  0  0  0  0  0  0
  192.3250  173.0080  141.4020 O   0  0  0  0  0  0  0  0  0  0  0  0
  191.0920  173.4690  139.5390 O   0  0  0  0  0  1  0  0  0  0  0  0
  191.4690  172.4470  140.4250 C   0  0  2  0  0  3  0  0  0  0  0  0
  190.3150  171.8800  140.9970 O   0  0  0  0  0  0  0  0  0  0  0  0
  189.3510  171.8590  139.9810 C   0  0  0  0  0  2  0  0  0  0  0  0
  188.4530  173.0840  140.0570 C   0  0  0  0  0  2  0  0  0  0  0  0
  188.4220  173.6510  141.4640 C   0  0  0  0  0  2  0  0  0  0  0  0
  187.6800  175.6630  140.4370 O   0  0  0  0  0  0  0  0  0  0  0  0
  188.2940  175.1350  141.4010 C   0  0  0  0  0  0  0  0  0  0  0  0
  188.8590  175.9310  142.3980 O   0  0  0  0  0  0  0  0  0  0  0  0
  188.7550  177.3500  142.3490 C   0  0  0  0  0  2  0  0  0  0  0  0
  188.9250  177.8930  143.6280 O   0  0  0  0  0  0  0  0  0  0  0  0
  187.6460  177.9900  144.1960 C   0  0  1  0  0  3  0  0  0  0  0  0
  186.5300  178.9810  142.1850 O   0  0  0  0  0  0  0  0  0  0  0  0
  184.5900  178.3320  143.1450 O   0  0  0  0  0  0  0  0  0  0  0  0
  186.5510  177.9860  143.1090 C   0  0  1  0  0  0  0  0  0  0  0  0
  185.3380  177.1440  143.1090 C   0  0  0  0  0  2  0  0  0  0  0  0
  185.6970  179.1340  143.2790 N   0  0  1  0  0  0  0  0  0  0  0  0
  187.4580  176.9220  145.2880 C   0  0  1  0  0  3  0  0  0  0  0  0
  188.0910  178.2210  147.1540 O   0  0  0  0  0  0  0  0  0  0  0  0
  188.2750  177.1840  146.5280 C   0  0  0  0  0  0  0  0  0  0  0  0
  189.3430  176.2260  146.9660 C   0  0  0  0  0  2  0  0  0  0  0  0
  189.3250  174.9390  146.1510 C   0  0  0  0  0  2  0  0  0  0  0  0
  190.6650  174.7050  145.4750 C   0  0  0  0  0  2  0  0  0  0  0  0
  191.6020  174.3180  146.4330 O   0  0  0  0  0  0  0  0  0  0  0  0
  192.5280  176.3640  145.6570 C   0  0  0  0  0  1  0  0  0  0  0  0
  192.7970  174.9220  146.0350 C   0  0  0  0  0  2  0  0  0  0  0  0
  186.0780  176.7860  145.6130 O   0  0  0  0  0  0  0  0  0  0  0  0
  185.5650  177.1590  146.8600 C   0  0  0  0  0  0  0  0  0  0  0  0
  185.8520  176.4730  147.8770 O   0  0  0  0  0  0  0  0  0  0  0  0
  184.6980  178.3660  147.0170 C   0  0  0  0  0  1  0  0  0  0  0  0
  1 33  1  1  0  0  0
  1  2  1  0  0  0  0
  2 32  1  1  0  0  0
  3  1  1  0  0  0  0
  3  2  1  0  0  0  0
  4  5  1  6  0  0  0
  4  1  1  0  0  0  0
  4  6  1  0  0  0  0
  6  7  1  6  0  0  0
  6  9  1  0  0  0  0
  6 11  1  0  0  0  0
  9 10  1  0  0  0  0
  9  8  1  0  0  0  0
 10  8  1  0  0  0  0
 11 12  1  0  0  0  0
 12 14  1  0  0  0  0
 13 12  2  0  0  0  0
 14 15  1  0  0  0  0
 15 16  1  0  0  0  0
 17 21  1  1  0  0  0
 17 18  1  0  0  0  0
 17  4  1  0  0  0  0
 18 19  1  6  0  0  0
 20 18  1  0  0  0  0
 23 26  1  0  0  0  0
 24 23  1  0  0  0  0
 24 27  1  0  0  0  0
 25 22  1  0  0  0  0
 25 21  1  1  0  0  0
 26 25  1  0  0  0  0
 27 22  1  0  0  0  0
 28 23  1  0  0  0  0
 29 28  1  0  0  0  0
 29 30  1  0  0  0  0
 32 31  2  0  0  0  0
 35 34  1  6  0  0  0
 35 36  1  0  0  0  0
 35 33  1  0  0  0  0
 37 38  1  0  0  0  0
 37 36  1  0  0  0  0
 38 39  1  0  0  0  0
 40 41  2  0  0  0  0
 41 39  1  0  0  0  0
 41 42  1  0  0  0  0
 43 42  1  0  0  0  0
 43 44  1  0  0  0  0
 45 44  1  6  0  0  0
 45 51  1  0  0  0  0
 46 48  1  0  0  0  0
 47 50  1  0  0  0  0
 48 50  1  0  0  0  0
 48 45  1  1  0  0  0
 49 48  1  0  0  0  0
 49 47  1  0  0  0  0
 50 46  1  6  0  0  0
 51 60  1  1  0  0  0
 51 53  1  0  0  0  0
 53 54  1  0  0  0  0
 53 52  2  0  0  0  0
 55 54  1  0  0  0  0
 56 55  1  0  0  0  0
 56 57  1  0  0  0  0
 58 59  1  0  0  0  0
 59 57  1  0  0  0  0
 60 61  1  0  0  0  0
 61 63  1  0  0  0  0
 61 62  2  0  0  0  0
M  END
>  <MODEL>
6

>  <REMARK>
 VINA RESULT:      -3.1      2.524      5.473
  Name = 
  35 active torsions:
  status: ('A' for Active; 'I' for Inactive)
    1  A    between atoms: C_1  and  O_8
    2  A    between atoms: C_3  and  C_17
    3  A    between atoms: C_3  and  C_29
    4  A    between atoms: C_3  and  C_57
    5  A    between atoms: C_6  and  C_23
    6  A    between atoms: C_6  and  C_60
    7  A    between atoms: C_7  and  O_8
    8  A    between atoms: C_7  and  O_42
    9  A    between atoms: C_10  and  C_57
   10  A    between atoms: O_15  and  C_47
   11  A    between atoms: O_15  and  C_57
   12  A    between atoms: C_16  and  C_48
   13  A    between atoms: C_17  and  C_31
   14  A    between atoms: C_17  and  O_42
   15  A    between atoms: O_18  and  C_24
   16  A    between atoms: O_18  and  C_32
   17  A    between atoms: C_19  and  O_28
   18  A    between atoms: C_19  and  C_48
   19  A    between atoms: C_19  and  C_61
   20  A    between atoms: C_20  and  C_32
   21  A    between atoms: C_20  and  C_43
   22  A    between atoms: O_21  and  C_36
   23  A    between atoms: O_21  and  C_59
   24  A    between atoms: C_23  and  C_61
   25  A    between atoms: C_24  and  O_30
   26  A    between atoms: N_25  and  C_44
   27  A    between atoms: C_27  and  C_44
   28  A    between atoms: O_28  and  C_33
   29  A    between atoms: C_29  and  O_41
   30  A    between atoms: O_30  and  C_48
   31  A    between atoms: C_36  and  C_43
   32  A    between atoms: O_37  and  C_38
   33  A    between atoms: O_37  and  C_60
   34  A    between atoms: C_39  and  C_45
   35  A    between atoms: O_41  and  C_59
                            x       y       z     vdW  Elec       q    Type
                         _______ _______ _______ _____ _____    ______ ____

>  <TORSDO>
F 35

$$$$
=
 OpenBabel11072409383D

 63 67  0  0  1  0  0  0  0  0999 V2000
  192.0180  174.6670  143.2770 C   0  0  1  0  0  0  0  0  0  0  0  0
  192.6460  176.0820  143.2230 C   0  0  1  0  0  3  0  0  0  0  0  0
  191.7760  175.6030  142.0940 C   0  0  0  0  0  2  0  0  0  0  0  0
  192.8410  173.3990  142.7980 C   0  0  2  0  0  0  0  0  0  0  0  0
  192.1910  172.2610  143.3090 O   0  0  0  0  0  1  0  0  0  0  0  0
  194.3090  173.3600  143.3820 C   0  0  2  0  0  0  0  0  0  0  0  0
  195.3000  173.9560  142.3710 C   0  0  0  0  0  1  0  0  0  0  0  0
  194.7890  171.6910  145.0960 O   0  0  0  0  0  0  0  0  0  0  0  0
  194.6400  171.8780  143.7340 C   0  0  0  0  0  3  0  0  0  0  0  0
  195.8880  171.7310  144.3180 O   0  0  0  0  0  0  0  0  0  0  0  0
  194.3230  174.1470  144.5890 O   0  0  0  0  0  0  0  0  0  0  0  0
  195.4180  174.8600  145.1120 C   0  0  0  0  0  0  0  0  0  0  0  0
  196.5330  174.8590  144.5300 O   0  0  0  0  0  0  0  0  0  0  0  0
  195.2780  175.5900  146.2910 O   0  0  0  0  0  0  0  0  0  0  0  0
  194.5490  176.8110  146.3420 C   0  0  0  0  0  2  0  0  0  0  0  0
  193.2080  176.5920  147.0130 C   0  0  0  0  0  1  0  0  0  0  0  0
  192.7840  173.2220  141.2420 C   0  0  2  0  0  3  0  0  0  0  0  0
  191.8670  172.1110  140.6830 C   0  0  2  0  0  3  0  0  0  0  0  0
  192.3390  170.7180  141.0560 C   0  0  0  0  0  1  0  0  0  0  0  0
  191.8010  172.1850  139.3060 F   0  0  0  0  0  0  0  0  0  0  0  0
  194.0840  173.1430  140.7160 O   0  0  0  0  0  0  0  0  0  0  0  0
  194.0900  174.9940  139.1790 C   0  0  0  0  0  2  0  0  0  0  0  0
  195.4130  173.4790  137.3080 N   0  0  0  0  0  0  0  0  0  0  0  0
  194.2940  174.2450  136.7510 C   0  0  0  0  0  2  0  0  0  0  0  0
  193.9520  173.4850  139.3640 C   0  0  1  0  0  3  0  0  0  0  0  0
  195.0080  172.7420  138.5210 C   0  0  0  0  0  2  0  0  0  0  0  0
  193.8970  175.3800  137.7040 C   0  0  0  0  0  2  0  0  0  0  0  0
  195.9230  172.5410  136.3040 C   0  0  0  0  0  2  0  0  0  0  0  0
  197.4250  172.2840  136.4020 C   0  0  0  0  0  2  0  0  0  0  0  0
  197.6580  170.9650  136.7950 O   0  0  0  0  0  1  0  0  0  0  0  0
  191.1610  177.9050  143.3390 O   0  0  0  0  0  0  0  0  0  0  0  0
  191.8740  177.1300  143.9580 C   0  0  0  0  0  3  0  0  0  0  0  0
  190.7880  174.5160  143.9620 O   0  0  0  0  0  0  0  0  0  0  0  0
  189.9110  172.6150  144.8710 O   0  0  0  0  0  1  0  0  0  0  0  0
  190.8960  173.6030  145.0380 C   0  0  2  0  0  3  0  0  0  0  0  0
  190.7150  174.2320  146.2830 O   0  0  0  0  0  0  0  0  0  0  0  0
  189.6010  175.0680  146.1360 C   0  0  0  0  0  2  0  0  0  0  0  0
  189.6780  176.2510  147.0900 C   0  0  0  0  0  2  0  0  0  0  0  0
  189.2230  177.5290  146.4100 C   0  0  0  0  0  2  0  0  0  0  0  0
  187.1680  177.3330  147.5890 O   0  0  0  0  0  0  0  0  0  0  0  0
  187.7410  177.6480  146.5140 C   0  0  0  0  0  0  0  0  0  0  0  0
  186.9940  178.0980  145.4230 O   0  0  0  0  0  0  0  0  0  0  0  0
  185.5720  178.0800  145.4520 C   0  0  0  0  0  2  0  0  0  0  0  0
  185.0770  177.2500  144.4400 O   0  0  0  0  0  0  0  0  0  0  0  0
  185.9740  177.3460  143.3660 C   0  0  1  0  0  3  0  0  0  0  0  0
  186.5070  174.9460  143.8390 O   0  0  0  0  0  0  0  0  0  0  0  0
  188.2630  175.2320  142.4470 O   0  0  0  0  0  0  0  0  0  0  0  0
  186.4700  175.9530  142.9280 C   0  0  1  0  0  0  0  0  0  0  0  0
  187.1710  175.6430  141.6660 C   0  0  0  0  0  2  0  0  0  0  0  0
  187.6890  175.6330  143.6280 N   0  0  1  0  0  0  0  0  0  0  0  0
  185.3650  178.1870  142.2300 C   0  0  1  0  0  3  0  0  0  0  0  0
  187.4770  178.2900  141.1810 O   0  0  0  0  0  0  0  0  0  0  0  0
  186.2620  178.3020  141.0240 C   0  0  0  0  0  0  0  0  0  0  0  0
  185.6880  178.4900  139.6500 C   0  0  0  0  0  2  0  0  0  0  0  0
  185.4420  177.1600  138.9470 C   0  0  0  0  0  2  0  0  0  0  0  0
  186.7030  176.6700  138.2560 C   0  0  0  0  0  2  0  0  0  0  0  0
  186.3650  176.1080  137.0250 O   0  0  0  0  0  0  0  0  0  0  0  0
  187.0760  176.0370  134.7590 C   0  0  0  0  0  1  0  0  0  0  0  0
  187.4350  176.4160  136.1810 C   0  0  0  0  0  2  0  0  0  0  0  0
  184.0900  177.6700  141.8620 O   0  0  0  0  0  0  0  0  0  0  0  0
  182.9040  178.3750  142.0910 C   0  0  0  0  0  0  0  0  0  0  0  0
  182.7600  179.0080  143.1710 O   0  0  0  0  0  0  0  0  0  0  0  0
  181.8090  178.4110  141.0750 C   0  0  0  0  0  1  0  0  0  0  0  0
  1 33  1  1  0  0  0
  2  1  1  0  0  0  0
  2 32  1  1  0  0  0
  3  2  1  0  0  0  0
  3  1  1  0  0  0  0
  4  1  1  0  0  0  0
  4  5  1  1  0  0  0
  4  6  1  0  0  0  0
  6  7  1  6  0  0  0
  6  9  1  0  0  0  0
  6 11  1  0  0  0  0
  9 10  1  0  0  0  0
  9  8  1  0  0  0  0
 10  8  1  0  0  0  0
 11 12  1  0  0  0  0
 12 14  1  0  0  0  0
 13 12  2  0  0  0  0
 14 15  1  0  0  0  0
 15 16  1  0  0  0  0
 17 21  1  1  0  0  0
 17  4  1  0  0  0  0
 18 19  1  6  0  0  0
 18 17  1  0  0  0  0
 20 18  1  0  0  0  0
 22 25  1  0  0  0  0
 23 26  1  0  0  0  0
 24 23  1  0  0  0  0
 24 27  1  0  0  0  0
 25 21  1  1  0  0  0
 26 25  1  0  0  0  0
 27 22  1  0  0  0  0
 28 29  1  0  0  0  0
 28 23  1  0  0  0  0
 29 30  1  0  0  0  0
 31 32  2  0  0  0  0
 33 35  1  0  0  0  0
 35 34  1  6  0  0  0
 35 36  1  0  0  0  0
 37 36  1  0  0  0  0
 37 38  1  0  0  0  0
 39 41  1  0  0  0  0
 39 38  1  0  0  0  0
 41 40  2  0  0  0  0
 42 43  1  0  0  0  0
 42 41  1  0  0  0  0
 44 43  1  0  0  0  0
 45 44  1  1  0  0  0
 48 45  1  1  0  0  0
 48 50  1  0  0  0  0
 48 46  1  0  0  0  0
 49 47  1  0  0  0  0
 49 48  1  0  0  0  0
 50 47  1  6  0  0  0
 50 46  1  0  0  0  0
 51 53  1  6  0  0  0
 51 45  1  0  0  0  0
 53 52  2  0  0  0  0
 54 53  1  0  0  0  0
 55 54  1  0  0  0  0
 56 55  1  0  0  0  0
 57 56  1  0  0  0  0
 58 59  1  0  0  0  0
 59 57  1  0  0  0  0
 60 61  1  0  0  0  0
 60 51  1  0  0  0  0
 61 62  2  0  0  0  0
 63 61  1  0  0  0  0
M  END
>  <MODEL>
7

>  <REMARK>
 VINA RESULT:      -3.0      2.339      4.995
  Name = 
  35 active torsions:
  status: ('A' for Active; 'I' for Inactive)
    1  A    between atoms: C_1  and  O_8
    2  A    between atoms: C_3  and  C_17
    3  A    between atoms: C_3  and  C_29
    4  A    between atoms: C_3  and  C_57
    5  A    between atoms: C_6  and  C_23
    6  A    between atoms: C_6  and  C_60
    7  A    between atoms: C_7  and  O_8
    8  A    between atoms: C_7  and  O_42
    9  A    between atoms: C_10  and  C_57
   10  A    between atoms: O_15  and  C_47
   11  A    between atoms: O_15  and  C_57
   12  A    between atoms: C_16  and  C_48
   13  A    between atoms: C_17  and  C_31
   14  A    between atoms: C_17  and  O_42
   15  A    between atoms: O_18  and  C_24
   16  A    between atoms: O_18  and  C_32
   17  A    between atoms: C_19  and  O_28
   18  A    between atoms: C_19  and  C_48
   19  A    between atoms: C_19  and  C_61
   20  A    between atoms: C_20  and  C_32
   21  A    between atoms: C_20  and  C_43
   22  A    between atoms: O_21  and  C_36
   23  A    between atoms: O_21  and  C_59
   24  A    between atoms: C_23  and  C_61
   25  A    between atoms: C_24  and  O_30
   26  A    between atoms: N_25  and  C_44
   27  A    between atoms: C_27  and  C_44
   28  A    between atoms: O_28  and  C_33
   29  A    between atoms: C_29  and  O_41
   30  A    between atoms: O_30  and  C_48
   31  A    between atoms: C_36  and  C_43
   32  A    between atoms: O_37  and  C_38
   33  A    between atoms: O_37  and  C_60
   34  A    between atoms: C_39  and  C_45
   35  A    between atoms: O_41  and  C_59
                            x       y       z     vdW  Elec       q    Type
                         _______ _______ _______ _____ _____    ______ ____

>  <TORSDO>
F 35

$$$$
=
 OpenBabel11072409383D

 63 67  0  0  1  0  0  0  0  0999 V2000
  193.1660  172.8580  142.0770 C   0  0  1  0  0  0  0  0  0  0  0  0
  194.0360  174.1380  142.1300 C   0  0  1  0  0  3  0  0  0  0  0  0
  193.3570  173.7440  140.8470 C   0  0  0  0  0  2  0  0  0  0  0  0
  193.8300  171.4400  141.8250 C   0  0  2  0  0  0  0  0  0  0  0  0
  192.9190  170.4660  142.2730 O   0  0  0  0  0  1  0  0  0  0  0  0
  195.1500  171.2190  142.6650 C   0  0  2  0  0  0  0  0  0  0  0  0
  195.9750  172.5140  142.7100 C   0  0  0  0  0  1  0  0  0  0  0  0
  195.4330  168.8090  142.4040 O   0  0  0  0  0  0  0  0  0  0  0  0
  195.9330  170.0390  142.0150 C   0  0  0  0  0  3  0  0  0  0  0  0
  196.5840  169.2480  142.9480 O   0  0  0  0  0  0  0  0  0  0  0  0
  194.7640  170.8490  144.0030 O   0  0  0  0  0  0  0  0  0  0  0  0
  195.5590  170.9400  145.1610 C   0  0  0  0  0  0  0  0  0  0  0  0
  196.0280  169.9100  145.7100 O   0  0  0  0  0  0  0  0  0  0  0  0
  195.8460  172.1860  145.7160 O   0  0  0  0  0  0  0  0  0  0  0  0
  197.1720  172.6990  145.7750 C   0  0  0  0  0  2  0  0  0  0  0  0
  197.1490  174.2140  145.7360 C   0  0  0  0  0  1  0  0  0  0  0  0
  194.0060  171.1430  140.2970 C   0  0  2  0  0  3  0  0  0  0  0  0
  193.4170  169.8230  139.7530 C   0  0  2  0  0  3  0  0  0  0  0  0
  192.3350  170.0470  138.7130 C   0  0  0  0  0  1  0  0  0  0  0  0
  192.8740  169.0750  140.7780 F   0  0  0  0  0  0  0  0  0  0  0  0
  195.3500  171.3100  139.9240 O   0  0  0  0  0  0  0  0  0  0  0  0
  196.0180  173.5140  139.2260 C   0  0  0  0  0  2  0  0  0  0  0  0
  196.6190  172.5740  136.7160 N   0  0  0  0  0  0  0  0  0  0  0  0
  195.8590  173.8270  136.7020 C   0  0  0  0  0  2  0  0  0  0  0  0
  195.3220  172.2070  138.8490 C   0  0  1  0  0  3  0  0  0  0  0  0
  195.9960  171.5800  137.6120 C   0  0  0  0  0  2  0  0  0  0  0  0
  195.9470  174.5200  138.0680 C   0  0  0  0  0  2  0  0  0  0  0  0
  196.7090  172.0300  135.3580 C   0  0  0  0  0  2  0  0  0  0  0  0
  195.3560  171.8400  134.6760 C   0  0  0  0  0  2  0  0  0  0  0  0
  194.6250  170.8510  135.3350 O   0  0  0  0  0  1  0  0  0  0  0  0
  193.7850  175.9620  143.5980 O   0  0  0  0  0  0  0  0  0  0  0  0
  193.3260  175.3470  142.6470 C   0  0  0  0  0  3  0  0  0  0  0  0
  191.8110  172.9630  142.4730 O   0  0  0  0  0  0  0  0  0  0  0  0
  190.0550  171.6370  143.0800 O   0  0  0  0  0  1  0  0  0  0  0  0
  191.4200  171.8820  143.3000 C   0  0  2  0  0  3  0  0  0  0  0  0
  191.6280  172.1590  144.6630 O   0  0  0  0  0  0  0  0  0  0  0  0
  190.9910  173.3820  144.9100 C   0  0  0  0  0  2  0  0  0  0  0  0
  191.7730  174.2100  145.9190 C   0  0  0  0  0  2  0  0  0  0  0  0
  191.6230  175.6930  145.6400 C   0  0  0  0  0  2  0  0  0  0  0  0
  192.0710  177.0240  147.5580 O   0  0  0  0  0  0  0  0  0  0  0  0
  191.2110  176.3960  146.8880 C   0  0  0  0  0  0  0  0  0  0  0  0
  189.8820  176.3500  147.3140 O   0  0  0  0  0  0  0  0  0  0  0  0
  188.8140  176.2890  146.3760 C   0  0  0  0  0  2  0  0  0  0  0  0
  188.5560  177.5600  145.8510 O   0  0  0  0  0  0  0  0  0  0  0  0
  187.2330  177.5410  145.3830 C   0  0  1  0  0  3  0  0  0  0  0  0
  186.0690  178.2680  147.4770 O   0  0  0  0  0  0  0  0  0  0  0  0
  184.4060  178.9640  146.1160 O   0  0  0  0  0  0  0  0  0  0  0  0
  186.3480  178.5260  146.1740 C   0  0  1  0  0  0  0  0  0  0  0  0
  185.5350  179.6140  145.5930 C   0  0  0  0  0  2  0  0  0  0  0  0
  185.1190  177.8750  146.5520 N   0  0  1  0  0  0  0  0  0  0  0  0
  187.1990  177.7420  143.8570 C   0  0  1  0  0  3  0  0  0  0  0  0
  189.5360  177.7170  143.5280 O   0  0  0  0  0  0  0  0  0  0  0  0
  188.4530  177.2740  143.1640 C   0  0  0  0  0  0  0  0  0  0  0  0
  188.3850  176.3250  142.0040 C   0  0  0  0  0  2  0  0  0  0  0  0
  188.3680  174.8700  142.4560 C   0  0  0  0  0  2  0  0  0  0  0  0
  187.9820  173.9500  141.3090 C   0  0  0  0  0  2  0  0  0  0  0  0
  187.7770  174.7110  140.1580 O   0  0  0  0  0  0  0  0  0  0  0  0
  189.6950  173.3200  139.9710 C   0  0  0  0  0  1  0  0  0  0  0  0
  188.8570  174.4040  139.3250 C   0  0  0  0  0  2  0  0  0  0  0  0
  186.0500  177.1090  143.3030 O   0  0  0  0  0  0  0  0  0  0  0  0
  185.0120  177.8350  142.7100 C   0  0  0  0  0  0  0  0  0  0  0  0
  183.8530  177.7710  143.2010 O   0  0  0  0  0  0  0  0  0  0  0  0
  185.2490  178.7040  141.5170 C   0  0  0  0  0  1  0  0  0  0  0  0
  1  2  1  0  0  0  0
  1 33  1  1  0  0  0
  2 32  1  1  0  0  0
  3  1  1  0  0  0  0
  3  2  1  0  0  0  0
  4  1  1  0  0  0  0
  4  5  1  1  0  0  0
  4  6  1  0  0  0  0
  6  7  1  1  0  0  0
  6 11  1  0  0  0  0
  8 10  1  0  0  0  0
  9  8  1  0  0  0  0
  9  6  1  0  0  0  0
  9 10  1  0  0  0  0
 11 12  1  0  0  0  0
 12 13  2  0  0  0  0
 12 14  1  0  0  0  0
 14 15  1  0  0  0  0
 16 15  1  0  0  0  0
 17 21  1  1  0  0  0
 17  4  1  0  0  0  0
 18 19  1  6  0  0  0
 18 17  1  0  0  0  0
 18 20  1  0  0  0  0
 23 26  1  0  0  0  0
 24 23  1  0  0  0  0
 24 27  1  0  0  0  0
 25 22  1  0  0  0  0
 25 21  1  1  0  0  0
 26 25  1  0  0  0  0
 27 22  1  0  0  0  0
 28 23  1  0  0  0  0
 29 30  1  0  0  0  0
 29 28  1  0  0  0  0
 32 31  2  0  0  0  0
 33 35  1  0  0  0  0
 35 34  1  1  0  0  0
 35 36  1  0  0  0  0
 36 37  1  0  0  0  0
 37 38  1  0  0  0  0
 39 38  1  0  0  0  0
 39 41  1  0  0  0  0
 41 42  1  0  0  0  0
 41 40  2  0  0  0  0
 43 42  1  0  0  0  0
 44 43  1  0  0  0  0
 45 44  1  1  0  0  0
 48 45  1  6  0  0  0
 48 50  1  0  0  0  0
 48 46  1  0  0  0  0
 49 47  1  0  0  0  0
 49 48  1  0  0  0  0
 50 47  1  1  0  0  0
 50 46  1  0  0  0  0
 51 53  1  6  0  0  0
 51 45  1  0  0  0  0
 53 52  2  0  0  0  0
 54 55  1  0  0  0  0
 54 53  1  0  0  0  0
 56 55  1  0  0  0  0
 57 56  1  0  0  0  0
 59 58  1  0  0  0  0
 59 57  1  0  0  0  0
 60 51  1  0  0  0  0
 61 62  2  0  0  0  0
 61 60  1  0  0  0  0
 63 61  1  0  0  0  0
M  END
>  <MODEL>
8

>  <REMARK>
 VINA RESULT:      -3.0      2.348      4.511
  Name = 
  35 active torsions:
  status: ('A' for Active; 'I' for Inactive)
    1  A    between atoms: C_1  and  O_8
    2  A    between atoms: C_3  and  C_17
    3  A    between atoms: C_3  and  C_29
    4  A    between atoms: C_3  and  C_57
    5  A    between atoms: C_6  and  C_23
    6  A    between atoms: C_6  and  C_60
    7  A    between atoms: C_7  and  O_8
    8  A    between atoms: C_7  and  O_42
    9  A    between atoms: C_10  and  C_57
   10  A    between atoms: O_15  and  C_47
   11  A    between atoms: O_15  and  C_57
   12  A    between atoms: C_16  and  C_48
   13  A    between atoms: C_17  and  C_31
   14  A    between atoms: C_17  and  O_42
   15  A    between atoms: O_18  and  C_24
   16  A    between atoms: O_18  and  C_32
   17  A    between atoms: C_19  and  O_28
   18  A    between atoms: C_19  and  C_48
   19  A    between atoms: C_19  and  C_61
   20  A    between atoms: C_20  and  C_32
   21  A    between atoms: C_20  and  C_43
   22  A    between atoms: O_21  and  C_36
   23  A    between atoms: O_21  and  C_59
   24  A    between atoms: C_23  and  C_61
   25  A    between atoms: C_24  and  O_30
   26  A    between atoms: N_25  and  C_44
   27  A    between atoms: C_27  and  C_44
   28  A    between atoms: O_28  and  C_33
   29  A    between atoms: C_29  and  O_41
   30  A    between atoms: O_30  and  C_48
   31  A    between atoms: C_36  and  C_43
   32  A    between atoms: O_37  and  C_38
   33  A    between atoms: O_37  and  C_60
   34  A    between atoms: C_39  and  C_45
   35  A    between atoms: O_41  and  C_59
                            x       y       z     vdW  Elec       q    Type
                         _______ _______ _______ _____ _____    ______ ____

>  <TORSDO>
F 35

$$$$
=
 OpenBabel11072409383D

 63 67  0  0  1  0  0  0  0  0999 V2000
  189.9530  175.6620  143.2610 C   0  0  1  0  0  0  0  0  0  0  0  0
  188.6100  174.8970  143.1610 C   0  0  1  0  0  3  0  0  0  0  0  0
  188.7560  176.2470  142.5140 C   0  0  0  0  0  2  0  0  0  0  0  0
  190.2820  176.5550  144.5300 C   0  0  2  0  0  0  0  0  0  0  0  0
  191.0890  177.6210  144.0940 O   0  0  0  0  0  1  0  0  0  0  0  0
  191.1280  175.7860  145.6220 C   0  0  2  0  0  0  0  0  0  0  0  0
  190.7280  174.3040  145.6600 C   0  0  0  0  0  1  0  0  0  0  0  0
  191.7030  175.9830  147.9860 O   0  0  0  0  0  0  0  0  0  0  0  0
  190.8950  176.4990  146.9890 C   0  0  0  0  0  3  0  0  0  0  0  0
  190.4000  175.6450  147.9610 O   0  0  0  0  0  0  0  0  0  0  0  0
  192.5180  175.9000  145.2610 O   0  0  0  0  0  0  0  0  0  0  0  0
  193.5550  175.0230  145.6310 C   0  0  0  0  0  0  0  0  0  0  0  0
  193.3090  173.8480  146.0040 O   0  0  0  0  0  0  0  0  0  0  0  0
  194.8820  175.4480  145.5810 O   0  0  0  0  0  0  0  0  0  0  0  0
  195.7920  174.9670  144.6000 C   0  0  0  0  0  2  0  0  0  0  0  0
  196.9110  174.1870  145.2620 C   0  0  0  0  0  1  0  0  0  0  0  0
  188.9970  177.2410  145.1070 C   0  0  2  0  0  3  0  0  0  0  0  0
  187.7830  176.3370  145.4190 C   0  0  2  0  0  3  0  0  0  0  0  0
  186.9220  176.8780  146.5450 C   0  0  0  0  0  1  0  0  0  0  0  0
  188.2000  175.0700  145.7720 F   0  0  0  0  0  0  0  0  0  0  0  0
  188.6380  178.3430  144.3120 O   0  0  0  0  0  0  0  0  0  0  0  0
  186.4850  179.3680  144.6240 C   0  0  0  0  0  2  0  0  0  0  0  0
  185.6910  178.5410  142.1280 N   0  0  0  0  0  0  0  0  0  0  0  0
  184.6810  178.3120  143.1660 C   0  0  0  0  0  2  0  0  0  0  0  0
  187.2690  178.1840  144.0630 C   0  0  1  0  0  3  0  0  0  0  0  0
  187.0150  178.0410  142.5490 C   0  0  0  0  0  2  0  0  0  0  0  0
  184.9770  179.1760  144.3990 C   0  0  0  0  0  2  0  0  0  0  0  0
  185.2850  177.8810  140.8840 C   0  0  0  0  0  2  0  0  0  0  0  0
  186.4470  177.3030  140.0810 C   0  0  0  0  0  2  0  0  0  0  0  0
  186.2540  177.5420  138.7200 O   0  0  0  0  0  1  0  0  0  0  0  0
  187.7390  172.9790  142.1100 O   0  0  0  0  0  0  0  0  0  0  0  0
  188.5540  173.8870  142.0610 C   0  0  0  0  0  3  0  0  0  0  0  0
  190.9530  175.3690  142.3030 O   0  0  0  0  0  0  0  0  0  0  0  0
  192.9920  174.3540  142.4410 O   0  0  0  0  0  1  0  0  0  0  0  0
  191.6110  174.1490  142.5880 C   0  0  2  0  0  3  0  0  0  0  0  0
  191.2020  173.1150  141.7260 O   0  0  0  0  0  0  0  0  0  0  0  0
  192.1720  172.1120  141.8370 C   0  0  0  0  0  2  0  0  0  0  0  0
  191.5700  170.7390  141.5730 C   0  0  0  0  0  2  0  0  0  0  0  0
  192.5670  169.6380  141.8800 C   0  0  0  0  0  2  0  0  0  0  0  0
  193.7180  168.1800  140.3970 O   0  0  0  0  0  0  0  0  0  0  0  0
  193.3960  169.3650  140.6720 C   0  0  0  0  0  0  0  0  0  0  0  0
  193.8170  170.4170  139.8570 O   0  0  0  0  0  0  0  0  0  0  0  0
  193.7450  170.3200  138.4390 C   0  0  0  0  0  2  0  0  0  0  0  0
  194.2170  171.4970  137.8480 O   0  0  0  0  0  0  0  0  0  0  0  0
  193.7650  172.5590  138.6460 C   0  0  1  0  0  3  0  0  0  0  0  0
  196.1770  173.2100  138.8080 O   0  0  0  0  0  0  0  0  0  0  0  0
  195.5220  174.5910  140.4720 O   0  0  0  0  0  0  0  0  0  0  0  0
  194.8780  173.6030  138.8670 C   0  0  1  0  0  0  0  0  0  0  0  0
  194.6890  174.9650  139.4060 C   0  0  0  0  0  2  0  0  0  0  0  0
  195.6090  173.2820  140.0670 N   0  0  1  0  0  0  0  0  0  0  0  0
  192.4560  173.1380  138.0800 C   0  0  1  0  0  3  0  0  0  0  0  0
  192.8500  172.8500  135.7710 O   0  0  0  0  0  0  0  0  0  0  0  0
  192.5880  173.6440  136.6660 C   0  0  0  0  0  0  0  0  0  0  0  0
  192.4650  175.1070  136.3560 C   0  0  0  0  0  2  0  0  0  0  0  0
  192.9550  175.4360  134.9510 C   0  0  0  0  0  2  0  0  0  0  0  0
  194.0840  176.4520  134.9940 C   0  0  0  0  0  2  0  0  0  0  0  0
  195.0850  175.9910  135.8500 O   0  0  0  0  0  0  0  0  0  0  0  0
  196.8770  174.4310  135.8760 C   0  0  0  0  0  1  0  0  0  0  0  0
  195.9790  175.3040  135.0240 C   0  0  0  0  0  2  0  0  0  0  0  0
  191.4100  172.1760  138.1750 O   0  0  0  0  0  0  0  0  0  0  0  0
  190.3050  172.1890  137.3170 C   0  0  0  0  0  0  0  0  0  0  0  0
  189.7590  173.2860  137.0270 O   0  0  0  0  0  0  0  0  0  0  0  0
  189.7680  170.9290  136.7180 C   0  0  0  0  0  1  0  0  0  0  0  0
  1 33  1  6  0  0  0
  1  4  1  0  0  0  0
  2 32  1  6  0  0  0
  2  1  1  0  0  0  0
  3  2  1  0  0  0  0
  3  1  1  0  0  0  0
  4  5  1  6  0  0  0
  4 17  1  0  0  0  0
  4  6  1  0  0  0  0
  6  7  1  1  0  0  0
  6  9  1  0  0  0  0
  9 10  1  0  0  0  0
  9  8  1  0  0  0  0
 10  8  1  0  0  0  0
 11  6  1  0  0  0  0
 11 12  1  0  0  0  0
 12 13  2  0  0  0  0
 14 12  1  0  0  0  0
 15 16  1  0  0  0  0
 15 14  1  0  0  0  0
 17 21  1  6  0  0  0
 17 18  1  0  0  0  0
 18 20  1  0  0  0  0
 18 19  1  1  0  0  0
 23 26  1  0  0  0  0
 23 24  1  0  0  0  0
 24 27  1  0  0  0  0
 25 21  1  6  0  0  0
 25 22  1  0  0  0  0
 26 25  1  0  0  0  0
 27 22  1  0  0  0  0
 28 23  1  0  0  0  0
 29 28  1  0  0  0  0
 30 29  1  0  0  0  0
 32 31  2  0  0  0  0
 33 35  1  0  0  0  0
 35 34  1  6  0  0  0
 36 37  1  0  0  0  0
 36 35  1  0  0  0  0
 38 37  1  0  0  0  0
 38 39  1  0  0  0  0
 40 41  2  0  0  0  0
 41 39  1  0  0  0  0
 42 41  1  0  0  0  0
 43 42  1  0  0  0  0
 44 43  1  0  0  0  0
 45 44  1  6  0  0  0
 46 48  1  0  0  0  0
 48 45  1  6  0  0  0
 48 49  1  0  0  0  0
 48 50  1  0  0  0  0
 49 47  1  0  0  0  0
 50 46  1  6  0  0  0
 50 47  1  0  0  0  0
 51 53  1  6  0  0  0
 51 60  1  0  0  0  0
 51 45  1  0  0  0  0
 52 53  2  0  0  0  0
 54 53  1  0  0  0  0
 55 56  1  0  0  0  0
 55 54  1  0  0  0  0
 56 57  1  0  0  0  0
 59 57  1  0  0  0  0
 59 58  1  0  0  0  0
 61 60  1  0  0  0  0
 62 61  2  0  0  0  0
 63 61  1  0  0  0  0
M  END
>  <MODEL>
9

>  <REMARK>
 VINA RESULT:      -2.9      2.755      9.583
  Name = 
  35 active torsions:
  status: ('A' for Active; 'I' for Inactive)
    1  A    between atoms: C_1  and  O_8
    2  A    between atoms: C_3  and  C_17
    3  A    between atoms: C_3  and  C_29
    4  A    between atoms: C_3  and  C_57
    5  A    between atoms: C_6  and  C_23
    6  A    between atoms: C_6  and  C_60
    7  A    between atoms: C_7  and  O_8
    8  A    between atoms: C_7  and  O_42
    9  A    between atoms: C_10  and  C_57
   10  A    between atoms: O_15  and  C_47
   11  A    between atoms: O_15  and  C_57
   12  A    between atoms: C_16  and  C_48
   13  A    between atoms: C_17  and  C_31
   14  A    between atoms: C_17  and  O_42
   15  A    between atoms: O_18  and  C_24
   16  A    between atoms: O_18  and  C_32
   17  A    between atoms: C_19  and  O_28
   18  A    between atoms: C_19  and  C_48
   19  A    between atoms: C_19  and  C_61
   20  A    between atoms: C_20  and  C_32
   21  A    between atoms: C_20  and  C_43
   22  A    between atoms: O_21  and  C_36
   23  A    between atoms: O_21  and  C_59
   24  A    between atoms: C_23  and  C_61
   25  A    between atoms: C_24  and  O_30
   26  A    between atoms: N_25  and  C_44
   27  A    between atoms: C_27  and  C_44
   28  A    between atoms: O_28  and  C_33
   29  A    between atoms: C_29  and  O_41
   30  A    between atoms: O_30  and  C_48
   31  A    between atoms: C_36  and  C_43
   32  A    between atoms: O_37  and  C_38
   33  A    between atoms: O_37  and  C_60
   34  A    between atoms: C_39  and  C_45
   35  A    between atoms: O_41  and  C_59
                            x       y       z     vdW  Elec       q    Type
                         _______ _______ _______ _____ _____    ______ ____

>  <TORSDO>
F 35

$$$$
