=
 OpenBabel11072409153D

 39 44  0  0  1  0  0  0  0  0999 V2000
  194.1810  173.2710  144.7240 C   0  0  0  0  0  0  0  0  0  0  0  0
  191.3720  172.7350  141.1190 C   0  0  0  0  0  2  0  0  0  0  0  0
  194.1880  172.0100  142.6660 C   0  0  0  0  0  0  0  0  0  0  0  0
  193.6800  172.0290  141.4820 N   0  0  0  0  0  0  0  0  0  0  0  0
  192.0740  175.0170  143.0950 C   0  0  0  0  0  2  0  0  0  0  0  0
  193.7780  173.1170  143.4540 C   0  0  0  0  0  0  0  0  0  0  0  0
  195.0800  171.0160  143.1630 N   0  0  0  0  0  0  0  0  0  0  0  0
  189.7610  174.3490  142.2160 C   0  0  2  0  0  3  0  0  0  0  0  0
  195.0460  172.1900  145.3530 C   0  0  0  0  0  2  0  0  0  0  0  0
  195.4950  171.0910  144.3960 C   0  0  0  0  0  3  0  0  0  0  0  0
  192.8030  173.2070  141.3650 C   0  0  2  0  0  3  0  0  0  0  0  0
  190.6870  174.4990  143.4470 C   0  0  0  0  0  2  0  0  0  0  0  0
  192.9200  173.9140  142.6530 N   0  0  0  0  0  0  0  0  0  0  0  0
  190.4470  173.9220  140.9130 C   0  0  0  0  0  2  0  0  0  0  0  0
  193.8030  174.4360  145.5390 C   0  0  0  0  0  0  0  0  0  0  0  0
  192.2490  175.4820  147.0840 C   0  0  0  0  0  3  0  0  0  0  0  0
  194.1780  176.7110  146.3000 C   0  0  0  0  0  3  0  0  0  0  0  0
  192.6370  174.3830  146.3160 C   0  0  0  0  0  3  0  0  0  0  0  0
  193.0200  176.6450  147.0780 C   0  0  0  0  0  3  0  0  0  0  0  0
  194.5780  175.6110  145.5220 C   0  0  0  0  0  0  0  0  0  0  0  0
  195.7420  175.6630  144.7420 O   0  0  0  0  0  0  0  0  0  0  0  0
  196.0400  176.7320  143.8510 C   0  0  0  0  0  2  0  0  0  0  0  0
  197.2300  176.3680  142.9820 C   0  0  0  0  0  2  0  0  0  0  0  0
  196.4100  173.8530  140.3710 N   0  0  0  0  0  1  0  0  0  0  0  0
  197.5050  173.5930  142.5590 N   0  0  0  0  0  1  0  0  0  0  0  0
  196.8900  174.4290  141.5810 C   0  0  0  0  0  0  0  0  0  0  0  0
  196.7630  175.7040  141.7740 N   0  0  0  0  0  0  0  0  0  0  0  0
  188.8820  175.5040  141.9890 N   0  0  1  0  0  0  0  0  0  0  0  0
  187.5660  175.2160  142.5640 C   0  0  0  0  0  2  0  0  0  0  0  0
  188.4850  177.8910  142.3800 C   0  0  0  0  0  2  0  0  0  0  0  0
  189.4390  176.7180  142.6010 C   0  0  0  0  0  2  0  0  0  0  0  0
  187.1910  177.5940  142.9900 N   0  0  0  0  0  0  0  0  0  0  0  0
  186.6340  176.4060  142.3440 C   0  0  0  0  0  2  0  0  0  0  0  0
  186.3120  178.7070  142.6690 C   0  0  0  0  0  2  0  0  0  0  0  0
  185.3420  178.2750  145.9020 C   0  0  0  0  0  3  0  0  0  0  0  0
  184.1740  178.5990  145.3860 C   0  0  0  0  0  3  0  0  0  0  0  0
  184.3600  179.3360  144.1040 C   0  0  0  0  0  2  0  0  0  0  0  0
  186.4160  178.7230  145.0950 N   0  0  0  0  0  2  0  0  0  0  0  0
  185.8780  179.4180  143.9410 C   0  0  1  0  0  3  0  0  0  0  0  0
  1  9  1  0  0  0  0
  1 15  1  0  0  0  0
  3  7  1  0  0  0  0
  3  6  1  0  0  0  0
  4  3  2  0  0  0  0
  5 12  1  0  0  0  0
  6  1  2  0  0  0  0
  7 10  2  0  0  0  0
  8 14  1  6  0  0  0
  8 12  1  0  0  0  0
 10  9  1  0  0  0  0
 11  2  1  1  0  0  0
 11  4  1  0  0  0  0
 11 13  1  0  0  0  0
 13  5  1  0  0  0  0
 13  6  1  0  0  0  0
 14  2  1  0  0  0  0
 15 18  1  0  0  0  0
 17 19  2  0  0  0  0
 18 16  2  0  0  0  0
 19 16  1  0  0  0  0
 20 15  2  0  0  0  0
 20 17  1  0  0  0  0
 21 20  1  0  0  0  0
 22 21  1  0  0  0  0
 23 22  1  0  0  0  0
 24 26  1  0  0  0  0
 26 27  2  0  0  0  0
 26 25  1  0  0  0  0
 27 23  1  0  0  0  0
 28  8  1  0  0  0  0
 28 29  1  1  0  0  0
 28 31  1  0  0  0  0
 30 31  1  0  0  0  0
 30 32  1  0  0  0  0
 33 29  1  0  0  0  0
 33 32  1  0  0  0  0
 34 32  1  0  0  0  0
 36 35  2  0  0  0  0
 37 36  1  0  0  0  0
 38 35  1  0  0  0  0
 39 34  1  6  0  0  0
 39 37  1  0  0  0  0
 39 38  1  0  0  0  0
M  END
>  <MODEL>
1

>  <REMARK>
 VINA RESULT:      -7.3      0.000      0.000
  Name = 
  8 active torsions:
  status: ('A' for Active; 'I' for Inactive)
    1  A    between atoms: C_2  and  C_4
    2  A    between atoms: C_3  and  C_30
    3  A    between atoms: C_3  and  N_31
    4  A    between atoms: N_8  and  C_21
    5  A    between atoms: C_14  and  C_32
    6  A    between atoms: C_14  and  N_36
    7  A    between atoms: O_20  and  C_30
    8  A    between atoms: O_20  and  C_34
                            x       y       z     vdW  Elec       q    Type
                         _______ _______ _______ _____ _____    ______ ____

>  <TORSDO>
F 8

$$$$
=
 OpenBabel11072409153D

 39 44  0  0  1  0  0  0  0  0999 V2000
  195.3020  172.7640  144.3890 C   0  0  0  0  0  0  0  0  0  0  0  0
  190.7670  171.9960  144.2860 C   0  0  0  0  0  2  0  0  0  0  0  0
  193.8370  170.8670  144.6640 C   0  0  0  0  0  0  0  0  0  0  0  0
  192.6600  170.4580  144.3340 N   0  0  0  0  0  0  0  0  0  0  0  0
  192.7480  173.9200  142.8780 C   0  0  0  0  0  2  0  0  0  0  0  0
  194.1340  172.1530  144.1430 C   0  0  0  0  0  0  0  0  0  0  0  0
  194.7740  170.1320  145.4470 N   0  0  0  0  0  0  0  0  0  0  0  0
  190.4260  174.4600  143.8170 C   0  0  2  0  0  3  0  0  0  0  0  0
  196.3040  172.0850  145.3090 C   0  0  0  0  0  2  0  0  0  0  0  0
  195.9210  170.6740  145.7430 C   0  0  0  0  0  3  0  0  0  0  0  0
  192.0040  171.5090  143.5370 C   0  0  2  0  0  3  0  0  0  0  0  0
  191.9480  174.7260  143.8910 C   0  0  0  0  0  2  0  0  0  0  0  0
  193.0040  172.5820  143.3980 N   0  0  0  0  0  0  0  0  0  0  0  0
  190.0140  173.0270  143.4600 C   0  0  0  0  0  2  0  0  0  0  0  0
  195.6450  174.0770  143.8190 C   0  0  0  0  0  0  0  0  0  0  0  0
  196.5030  175.3820  141.9590 C   0  0  0  0  0  3  0  0  0  0  0  0
  195.8540  176.4890  144.0080 C   0  0  0  0  0  3  0  0  0  0  0  0
  196.1540  174.1490  142.5140 C   0  0  0  0  0  3  0  0  0  0  0  0
  196.3510  176.5510  142.7050 C   0  0  0  0  0  3  0  0  0  0  0  0
  195.5000  175.2530  144.5780 C   0  0  0  0  0  0  0  0  0  0  0  0
  194.9940  175.1790  145.8840 O   0  0  0  0  0  0  0  0  0  0  0  0
  194.2070  176.2040  146.4790 C   0  0  0  0  0  2  0  0  0  0  0  0
  192.8920  175.6300  146.9720 C   0  0  0  0  0  2  0  0  0  0  0  0
  189.7090  177.5280  147.2480 N   0  0  0  0  0  1  0  0  0  0  0  0
  190.1580  175.1170  147.4360 N   0  0  0  0  0  1  0  0  0  0  0  0
  190.6320  176.4450  147.2260 C   0  0  0  0  0  0  0  0  0  0  0  0
  191.8880  176.6820  147.0120 N   0  0  0  0  0  0  0  0  0  0  0  0
  189.6910  175.4330  142.9970 N   0  0  1  0  0  0  0  0  0  0  0  0
  188.3780  174.8750  142.6640 C   0  0  0  0  0  2  0  0  0  0  0  0
  188.7270  177.6820  142.8500 C   0  0  0  0  0  2  0  0  0  0  0  0
  189.5250  176.7050  143.7130 C   0  0  0  0  0  2  0  0  0  0  0  0
  187.4110  177.1170  142.5590 N   0  0  0  0  0  0  0  0  0  0  0  0
  187.5930  175.8720  141.8140 C   0  0  0  0  0  2  0  0  0  0  0  0
  186.7420  178.0530  141.6690 C   0  0  0  0  0  2  0  0  0  0  0  0
  185.5000  179.3110  144.5780 C   0  0  0  0  0  3  0  0  0  0  0  0
  184.8930  178.1430  144.5920 C   0  0  0  0  0  3  0  0  0  0  0  0
  184.8330  177.5730  143.2160 C   0  0  0  0  0  2  0  0  0  0  0  0
  185.9090  179.6760  143.2720 N   0  0  0  0  0  2  0  0  0  0  0  0
  185.5090  178.6330  142.3460 C   0  0  1  0  0  3  0  0  0  0  0  0
  1  9  1  0  0  0  0
  3  7  1  0  0  0  0
  4  3  2  0  0  0  0
  5 13  1  0  0  0  0
  5 12  1  0  0  0  0
  6  1  2  0  0  0  0
  6  3  1  0  0  0  0
  7 10  2  0  0  0  0
  8 14  1  6  0  0  0
  8 12  1  0  0  0  0
  9 10  1  0  0  0  0
 11  2  1  1  0  0  0
 11  4  1  0  0  0  0
 13 11  1  0  0  0  0
 13  6  1  0  0  0  0
 14  2  1  0  0  0  0
 15  1  1  0  0  0  0
 15 20  1  0  0  0  0
 16 18  1  0  0  0  0
 16 19  2  0  0  0  0
 17 20  2  0  0  0  0
 18 15  2  0  0  0  0
 19 17  1  0  0  0  0
 20 21  1  0  0  0  0
 21 22  1  0  0  0  0
 22 23  1  0  0  0  0
 23 27  1  0  0  0  0
 26 24  1  0  0  0  0
 26 25  1  0  0  0  0
 27 26  2  0  0  0  0
 28 29  1  1  0  0  0
 28 31  1  0  0  0  0
 28  8  1  0  0  0  0
 30 31  1  0  0  0  0
 32 30  1  0  0  0  0
 33 32  1  0  0  0  0
 33 29  1  0  0  0  0
 34 32  1  0  0  0  0
 35 36  2  0  0  0  0
 37 36  1  0  0  0  0
 38 35  1  0  0  0  0
 39 34  1  1  0  0  0
 39 37  1  0  0  0  0
 39 38  1  0  0  0  0
M  END
>  <MODEL>
2

>  <REMARK>
 VINA RESULT:      -7.3      1.981      3.817
  Name = 
  8 active torsions:
  status: ('A' for Active; 'I' for Inactive)
    1  A    between atoms: C_2  and  C_4
    2  A    between atoms: C_3  and  C_30
    3  A    between atoms: C_3  and  N_31
    4  A    between atoms: N_8  and  C_21
    5  A    between atoms: C_14  and  C_32
    6  A    between atoms: C_14  and  N_36
    7  A    between atoms: O_20  and  C_30
    8  A    between atoms: O_20  and  C_34
                            x       y       z     vdW  Elec       q    Type
                         _______ _______ _______ _____ _____    ______ ____

>  <TORSDO>
F 8

$$$$
=
 OpenBabel11072409153D

 39 44  0  0  1  0  0  0  0  0999 V2000
  194.8760  172.9890  143.4970 C   0  0  0  0  0  0  0  0  0  0  0  0
  193.1360  176.3920  146.0590 C   0  0  0  0  0  2  0  0  0  0  0  0
  195.6910  174.5040  145.1900 C   0  0  0  0  0  0  0  0  0  0  0  0
  195.2700  175.2150  146.1800 N   0  0  0  0  0  0  0  0  0  0  0  0
  192.0860  173.7460  144.8320 C   0  0  0  0  0  2  0  0  0  0  0  0
  194.6490  173.7750  144.5590 C   0  0  0  0  0  0  0  0  0  0  0  0
  197.0450  174.4170  144.7560 N   0  0  0  0  0  0  0  0  0  0  0  0
  190.9050  176.0180  144.9230 C   0  0  2  0  0  3  0  0  0  0  0  0
  196.2790  172.9360  142.9130 C   0  0  0  0  0  2  0  0  0  0  0  0
  197.3360  173.6890  143.7150 C   0  0  0  0  0  3  0  0  0  0  0  0
  193.8120  175.0430  146.2950 C   0  0  2  0  0  3  0  0  0  0  0  0
  191.5000  174.9020  144.0340 C   0  0  0  0  0  2  0  0  0  0  0  0
  193.4450  174.0700  145.2510 N   0  0  0  0  0  0  0  0  0  0  0  0
  191.6320  176.2750  146.2490 C   0  0  0  0  0  2  0  0  0  0  0  0
  193.8170  172.1910  142.8600 C   0  0  0  0  0  0  0  0  0  0  0  0
  192.5300  170.1330  142.7660 C   0  0  0  0  0  3  0  0  0  0  0  0
  192.1320  171.8780  141.1410 C   0  0  0  0  0  3  0  0  0  0  0  0
  193.5180  170.9170  143.3650 C   0  0  0  0  0  3  0  0  0  0  0  0
  191.8350  170.6150  141.6560 C   0  0  0  0  0  3  0  0  0  0  0  0
  193.1250  172.6760  141.7340 C   0  0  0  0  0  0  0  0  0  0  0  0
  193.4270  173.9490  141.2300 O   0  0  0  0  0  0  0  0  0  0  0  0
  193.4860  174.2460  139.8390 C   0  0  0  0  0  2  0  0  0  0  0  0
  194.6590  175.1660  139.5540 C   0  0  0  0  0  2  0  0  0  0  0  0
  196.5110  176.8730  142.2860 N   0  0  0  0  0  1  0  0  0  0  0  0
  197.3250  175.7710  140.2420 N   0  0  0  0  0  1  0  0  0  0  0  0
  196.2410  176.1660  141.0810 C   0  0  0  0  0  0  0  0  0  0  0  0
  195.0150  175.8880  140.7660 N   0  0  0  0  0  0  0  0  0  0  0  0
  189.4570  175.9000  145.1380 N   0  0  1  0  0  0  0  0  0  0  0  0
  189.1130  176.5450  146.4080 C   0  0  0  0  0  2  0  0  0  0  0  0
  187.2090  176.4230  144.3120 C   0  0  0  0  0  2  0  0  0  0  0  0
  188.7090  176.5300  144.0410 C   0  0  0  0  0  2  0  0  0  0  0  0
  186.8860  177.1010  145.5660 N   0  0  0  0  0  0  0  0  0  0  0  0
  187.6090  176.4390  146.6510 C   0  0  0  0  0  2  0  0  0  0  0  0
  185.4680  176.8870  145.8030 C   0  0  0  0  0  2  0  0  0  0  0  0
  184.8480  179.2410  143.4250 C   0  0  0  0  0  3  0  0  0  0  0  0
  185.5840  179.9700  144.2380 C   0  0  0  0  0  3  0  0  0  0  0  0
  185.5840  179.3800  145.6070 C   0  0  0  0  0  2  0  0  0  0  0  0
  184.2780  178.1270  144.0870 N   0  0  0  0  0  2  0  0  0  0  0  0
  184.6840  178.1500  145.4800 C   0  0  1  0  0  3  0  0  0  0  0  0
  1  6  2  0  0  0  0
  2 14  1  0  0  0  0
  3  4  2  0  0  0  0
  4 11  1  0  0  0  0
  5 13  1  0  0  0  0
  6  3  1  0  0  0  0
  6 13  1  0  0  0  0
  7  3  1  0  0  0  0
  8 12  1  1  0  0  0
  8 28  1  0  0  0  0
  8 14  1  0  0  0  0
  9  1  1  0  0  0  0
  9 10  1  0  0  0  0
 10  7  2  0  0  0  0
 11  2  1  6  0  0  0
 12  5  1  0  0  0  0
 13 11  1  0  0  0  0
 15 18  1  0  0  0  0
 15  1  1  0  0  0  0
 16 18  2  0  0  0  0
 17 19  2  0  0  0  0
 17 20  1  0  0  0  0
 19 16  1  0  0  0  0
 20 15  2  0  0  0  0
 21 20  1  0  0  0  0
 22 21  1  0  0  0  0
 23 22  1  0  0  0  0
 23 27  1  0  0  0  0
 25 26  1  0  0  0  0
 26 24  1  0  0  0  0
 27 26  2  0  0  0  0
 28 31  1  6  0  0  0
 28 29  1  0  0  0  0
 29 33  1  0  0  0  0
 30 32  1  0  0  0  0
 31 30  1  0  0  0  0
 32 34  1  0  0  0  0
 32 33  1  0  0  0  0
 35 38  1  0  0  0  0
 35 36  2  0  0  0  0
 36 37  1  0  0  0  0
 38 39  1  0  0  0  0
 39 37  1  0  0  0  0
 39 34  1  6  0  0  0
M  END
>  <MODEL>
3

>  <REMARK>
 VINA RESULT:      -7.0      2.102      4.098
  Name = 
  8 active torsions:
  status: ('A' for Active; 'I' for Inactive)
    1  A    between atoms: C_2  and  C_4
    2  A    between atoms: C_3  and  C_30
    3  A    between atoms: C_3  and  N_31
    4  A    between atoms: N_8  and  C_21
    5  A    between atoms: C_14  and  C_32
    6  A    between atoms: C_14  and  N_36
    7  A    between atoms: O_20  and  C_30
    8  A    between atoms: O_20  and  C_34
                            x       y       z     vdW  Elec       q    Type
                         _______ _______ _______ _____ _____    ______ ____

>  <TORSDO>
F 8

$$$$
=
 OpenBabel11072409153D

 39 44  0  0  1  0  0  0  0  0999 V2000
  190.2400  175.1120  145.0950 C   0  0  0  0  0  0  0  0  0  0  0  0
  194.7460  176.0190  145.3110 C   0  0  0  0  0  2  0  0  0  0  0  0
  191.7910  175.9170  146.7600 C   0  0  0  0  0  0  0  0  0  0  0  0
  192.9270  176.5170  146.8590 N   0  0  0  0  0  0  0  0  0  0  0  0
  192.5360  176.1420  143.1410 C   0  0  0  0  0  2  0  0  0  0  0  0
  191.3860  175.7330  145.4120 C   0  0  0  0  0  0  0  0  0  0  0  0
  190.9890  175.4860  147.8560 N   0  0  0  0  0  0  0  0  0  0  0  0
  194.9420  175.2960  142.8930 C   0  0  2  0  0  3  0  0  0  0  0  0
  189.3910  174.5290  146.2120 C   0  0  0  0  0  2  0  0  0  0  0  0
  189.8730  174.8550  147.6210 C   0  0  0  0  0  3  0  0  0  0  0  0
  193.4380  176.7820  145.5030 C   0  0  2  0  0  3  0  0  0  0  0  0
  193.4350  174.9530  142.8320 C   0  0  0  0  0  2  0  0  0  0  0  0
  192.3940  176.2950  144.5850 N   0  0  0  0  0  0  0  0  0  0  0  0
  195.3500  176.3280  143.9500 C   0  0  0  0  0  2  0  0  0  0  0  0
  189.7830  174.9540  143.7050 C   0  0  0  0  0  0  0  0  0  0  0  0
  189.6800  173.6090  141.6850 C   0  0  0  0  0  3  0  0  0  0  0  0
  188.6700  175.8050  141.7220 C   0  0  0  0  0  3  0  0  0  0  0  0
  190.0880  173.7740  143.0100 C   0  0  0  0  0  3  0  0  0  0  0  0
  188.9700  174.6230  141.0420 C   0  0  0  0  0  3  0  0  0  0  0  0
  189.0750  175.9830  143.0560 C   0  0  0  0  0  0  0  0  0  0  0  0
  188.7750  177.1630  143.7510 O   0  0  0  0  0  0  0  0  0  0  0  0
  187.4770  177.7460  143.7800 C   0  0  0  0  0  2  0  0  0  0  0  0
  186.4810  176.7700  144.3800 C   0  0  0  0  0  2  0  0  0  0  0  0
  184.4000  178.2980  147.0530 N   0  0  0  0  0  1  0  0  0  0  0  0
  186.4110  176.8890  147.1960 N   0  0  0  0  0  1  0  0  0  0  0  0
  185.4310  177.5600  146.4070 C   0  0  0  0  0  0  0  0  0  0  0  0
  185.4620  177.5060  145.1130 N   0  0  0  0  0  0  0  0  0  0  0  0
  195.5310  175.6250  141.5880 N   0  0  1  0  0  0  0  0  0  0  0  0
  196.9610  175.3120  141.6220 C   0  0  0  0  0  2  0  0  0  0  0  0
  195.5380  175.2040  139.1730 C   0  0  0  0  0  2  0  0  0  0  0  0
  194.8800  174.8680  140.5110 C   0  0  0  0  0  2  0  0  0  0  0  0
  196.9550  174.8540  139.2210 N   0  0  0  0  0  0  0  0  0  0  0  0
  197.5950  175.6430  140.2720 C   0  0  0  0  0  2  0  0  0  0  0  0
  197.5340  175.2770  137.9550 C   0  0  0  0  0  2  0  0  0  0  0  0
  197.1250  174.2190  134.7470 C   0  0  0  0  0  3  0  0  0  0  0  0
  197.0300  175.5160  134.5420 C   0  0  0  0  0  3  0  0  0  0  0  0
  196.6620  176.2160  135.8050 C   0  0  0  0  0  2  0  0  0  0  0  0
  196.8490  173.8770  136.0930 N   0  0  0  0  0  2  0  0  0  0  0  0
  196.5310  175.0870  136.8290 C   0  0  1  0  0  3  0  0  0  0  0  0
  1  6  2  0  0  0  0
  1  9  1  0  0  0  0
  3  4  2  0  0  0  0
  3  7  1  0  0  0  0
  5 13  1  0  0  0  0
  6  3  1  0  0  0  0
  8 12  1  6  0  0  0
  8 14  1  0  0  0  0
  9 10  1  0  0  0  0
 10  7  2  0  0  0  0
 11  2  1  6  0  0  0
 11  4  1  0  0  0  0
 12  5  1  0  0  0  0
 13  6  1  0  0  0  0
 13 11  1  0  0  0  0
 14  2  1  0  0  0  0
 15  1  1  0  0  0  0
 16 18  1  0  0  0  0
 17 20  2  0  0  0  0
 18 15  2  0  0  0  0
 19 16  2  0  0  0  0
 19 17  1  0  0  0  0
 20 15  1  0  0  0  0
 20 21  1  0  0  0  0
 21 22  1  0  0  0  0
 22 23  1  0  0  0  0
 23 27  1  0  0  0  0
 26 24  1  0  0  0  0
 26 25  1  0  0  0  0
 27 26  2  0  0  0  0
 28 31  1  6  0  0  0
 28 29  1  0  0  0  0
 28  8  1  0  0  0  0
 30 32  1  0  0  0  0
 30 31  1  0  0  0  0
 32 33  1  0  0  0  0
 33 29  1  0  0  0  0
 34 32  1  0  0  0  0
 35 38  1  0  0  0  0
 36 35  2  0  0  0  0
 36 37  1  0  0  0  0
 37 39  1  0  0  0  0
 38 39  1  0  0  0  0
 39 34  1  1  0  0  0
M  END
>  <MODEL>
4

>  <REMARK>
 VINA RESULT:      -7.0      3.197      9.348
  Name = 
  8 active torsions:
  status: ('A' for Active; 'I' for Inactive)
    1  A    between atoms: C_2  and  C_4
    2  A    between atoms: C_3  and  C_30
    3  A    between atoms: C_3  and  N_31
    4  A    between atoms: N_8  and  C_21
    5  A    between atoms: C_14  and  C_32
    6  A    between atoms: C_14  and  N_36
    7  A    between atoms: O_20  and  C_30
    8  A    between atoms: O_20  and  C_34
                            x       y       z     vdW  Elec       q    Type
                         _______ _______ _______ _____ _____    ______ ____

>  <TORSDO>
F 8

$$$$
=
 OpenBabel11072409153D

 39 44  0  0  1  0  0  0  0  0999 V2000
  190.8330  174.7310  145.1610 C   0  0  0  0  0  0  0  0  0  0  0  0
  187.9770  178.3070  145.6350 C   0  0  0  0  0  2  0  0  0  0  0  0
  190.4320  176.4500  146.8060 C   0  0  0  0  0  0  0  0  0  0  0  0
  189.5010  177.2430  147.2150 N   0  0  0  0  0  0  0  0  0  0  0  0
  187.8610  175.5040  144.3170 C   0  0  0  0  0  2  0  0  0  0  0  0
  190.0080  175.6150  145.7400 C   0  0  0  0  0  0  0  0  0  0  0  0
  191.7470  176.3770  147.3480 N   0  0  0  0  0  0  0  0  0  0  0  0
  186.9730  177.7200  143.3870 C   0  0  2  0  0  3  0  0  0  0  0  0
  192.2830  174.6780  145.6160 C   0  0  0  0  0  2  0  0  0  0  0  0
  192.6100  175.5560  146.8190 C   0  0  0  0  0  3  0  0  0  0  0  0
  188.3000  177.0220  146.3920 C   0  0  2  0  0  3  0  0  0  0  0  0
  187.9600  176.5420  143.2090 C   0  0  0  0  0  2  0  0  0  0  0  0
  188.6500  175.9290  145.4680 N   0  0  0  0  0  0  0  0  0  0  0  0
  186.6950  178.1470  144.8330 C   0  0  0  0  0  2  0  0  0  0  0  0
  190.3970  173.8250  144.0870 C   0  0  0  0  0  0  0  0  0  0  0  0
  189.3040  171.7630  143.4160 C   0  0  0  0  0  3  0  0  0  0  0  0
  190.2730  173.2120  141.7410 C   0  0  0  0  0  3  0  0  0  0  0  0
  189.7120  172.6470  144.4160 C   0  0  0  0  0  3  0  0  0  0  0  0
  189.5830  172.0470  142.0780 C   0  0  0  0  0  3  0  0  0  0  0  0
  190.6890  174.1100  142.7390 C   0  0  0  0  0  0  0  0  0  0  0  0
  191.3770  175.2870  142.4120 O   0  0  0  0  0  0  0  0  0  0  0  0
  192.7130  175.3020  141.9210 C   0  0  0  0  0  2  0  0  0  0  0  0
  193.5200  176.3660  142.6420 C   0  0  0  0  0  2  0  0  0  0  0  0
  197.1330  175.8980  143.3750 N   0  0  0  0  0  1  0  0  0  0  0  0
  195.3160  176.7910  144.7740 N   0  0  0  0  0  1  0  0  0  0  0  0
  195.7600  176.2380  143.5360 C   0  0  0  0  0  0  0  0  0  0  0  0
  194.9360  176.0420  142.5560 N   0  0  0  0  0  0  0  0  0  0  0  0
  185.7180  177.5630  142.6390 N   0  0  1  0  0  0  0  0  0  0  0  0
  184.6610  178.3050  143.3300 C   0  0  0  0  0  2  0  0  0  0  0  0
  184.5280  177.9160  140.5250 C   0  0  0  0  0  2  0  0  0  0  0  0
  185.8590  178.0590  141.2640 C   0  0  0  0  0  2  0  0  0  0  0  0
  183.4980  178.6910  141.2140 N   0  0  0  0  0  0  0  0  0  0  0  0
  183.3450  178.1600  142.5680 C   0  0  0  0  0  2  0  0  0  0  0  0
  182.2490  178.4420  140.5130 C   0  0  0  0  0  2  0  0  0  0  0  0
  178.8790  178.2850  140.9610 C   0  0  0  0  0  3  0  0  0  0  0  0
  178.9470  179.4630  140.3760 C   0  0  0  0  0  3  0  0  0  0  0  0
  180.3170  180.0340  140.5150 C   0  0  0  0  0  2  0  0  0  0  0  0
  180.1150  177.9160  141.5450 N   0  0  0  0  0  2  0  0  0  0  0  0
  181.0770  178.9780  141.3200 C   0  0  1  0  0  3  0  0  0  0  0  0
  1  9  1  0  0  0  0
  1  6  2  0  0  0  0
  3  4  2  0  0  0  0
  3  7  1  0  0  0  0
  5 13  1  0  0  0  0
  6  3  1  0  0  0  0
  8 12  1  1  0  0  0
  8 14  1  0  0  0  0
  9 10  1  0  0  0  0
 10  7  2  0  0  0  0
 11  2  1  6  0  0  0
 11  4  1  0  0  0  0
 12  5  1  0  0  0  0
 13  6  1  0  0  0  0
 13 11  1  0  0  0  0
 14  2  1  0  0  0  0
 15 18  1  0  0  0  0
 15  1  1  0  0  0  0
 16 18  2  0  0  0  0
 17 19  2  0  0  0  0
 17 20  1  0  0  0  0
 19 16  1  0  0  0  0
 20 15  2  0  0  0  0
 21 20  1  0  0  0  0
 22 21  1  0  0  0  0
 22 23  1  0  0  0  0
 24 26  1  0  0  0  0
 26 25  1  0  0  0  0
 27 23  1  0  0  0  0
 27 26  2  0  0  0  0
 28 31  1  6  0  0  0
 28 29  1  0  0  0  0
 28  8  1  0  0  0  0
 30 32  1  0  0  0  0
 30 31  1  0  0  0  0
 32 33  1  0  0  0  0
 33 29  1  0  0  0  0
 34 32  1  0  0  0  0
 35 38  1  0  0  0  0
 36 37  1  0  0  0  0
 36 35  2  0  0  0  0
 37 39  1  0  0  0  0
 39 34  1  6  0  0  0
 39 38  1  0  0  0  0
M  END
>  <MODEL>
5

>  <REMARK>
 VINA RESULT:      -7.0      3.250      5.495
  Name = 
  8 active torsions:
  status: ('A' for Active; 'I' for Inactive)
    1  A    between atoms: C_2  and  C_4
    2  A    between atoms: C_3  and  C_30
    3  A    between atoms: C_3  and  N_31
    4  A    between atoms: N_8  and  C_21
    5  A    between atoms: C_14  and  C_32
    6  A    between atoms: C_14  and  N_36
    7  A    between atoms: O_20  and  C_30
    8  A    between atoms: O_20  and  C_34
                            x       y       z     vdW  Elec       q    Type
                         _______ _______ _______ _____ _____    ______ ____

>  <TORSDO>
F 8

$$$$
=
 OpenBabel11072409153D

 39 44  0  0  1  0  0  0  0  0999 V2000
  195.2550  173.4300  145.0420 C   0  0  0  0  0  0  0  0  0  0  0  0
  191.4520  171.4980  143.3150 C   0  0  0  0  0  2  0  0  0  0  0  0
  194.7020  171.4080  143.8460 C   0  0  0  0  0  0  0  0  0  0  0  0
  193.8110  170.9350  143.0430 N   0  0  0  0  0  0  0  0  0  0  0  0
  192.5000  174.3820  143.7590 C   0  0  0  0  0  2  0  0  0  0  0  0
  194.4540  172.7600  144.2010 C   0  0  0  0  0  0  0  0  0  0  0  0
  195.8340  170.6930  144.3330 N   0  0  0  0  0  0  0  0  0  0  0  0
  190.1350  173.4840  144.1690 C   0  0  2  0  0  3  0  0  0  0  0  0
  196.4200  172.6940  145.6850 C   0  0  0  0  0  2  0  0  0  0  0  0
  196.6430  171.2750  145.1720 C   0  0  0  0  0  3  0  0  0  0  0  0
  192.8030  171.9790  142.7910 C   0  0  2  0  0  3  0  0  0  0  0  0
  191.4060  174.1140  144.7840 C   0  0  0  0  0  2  0  0  0  0  0  0
  193.2720  173.1660  143.5280 N   0  0  0  0  0  0  0  0  0  0  0  0
  190.3660  172.5140  143.0030 C   0  0  0  0  0  2  0  0  0  0  0  0
  195.0400  174.8450  145.3830 C   0  0  0  0  0  0  0  0  0  0  0  0
  194.0410  176.5070  146.8460 C   0  0  0  0  0  3  0  0  0  0  0  0
  195.3220  177.2120  144.9210 C   0  0  0  0  0  3  0  0  0  0  0  0
  194.2750  175.1710  146.5120 C   0  0  0  0  0  3  0  0  0  0  0  0
  194.5670  177.5260  146.0520 C   0  0  0  0  0  3  0  0  0  0  0  0
  195.5630  175.8710  144.5740 C   0  0  0  0  0  0  0  0  0  0  0  0
  196.3250  175.5430  143.4440 O   0  0  0  0  0  0  0  0  0  0  0  0
  196.7940  176.5070  142.5080 C   0  0  0  0  0  2  0  0  0  0  0  0
  196.7020  175.9510  141.0990 C   0  0  0  0  0  2  0  0  0  0  0  0
  193.3840  174.5400  140.2000 N   0  0  0  0  0  1  0  0  0  0  0  0
  195.5130  173.4230  140.7200 N   0  0  0  0  0  1  0  0  0  0  0  0
  194.7580  174.6220  140.5600 C   0  0  0  0  0  0  0  0  0  0  0  0
  195.3040  175.7850  140.7330 N   0  0  0  0  0  0  0  0  0  0  0  0
  189.0880  174.4590  143.8360 N   0  0  1  0  0  0  0  0  0  0  0  0
  189.2170  175.6140  144.7280 C   0  0  0  0  0  2  0  0  0  0  0  0
  188.1240  175.9350  142.1320 C   0  0  0  0  0  2  0  0  0  0  0  0
  189.2010  174.8950  142.4370 C   0  0  0  0  0  2  0  0  0  0  0  0
  188.2930  177.0900  143.0110 N   0  0  0  0  0  0  0  0  0  0  0  0
  188.1410  176.6460  144.3960 C   0  0  0  0  0  2  0  0  0  0  0  0
  187.1910  177.9960  142.7280 C   0  0  0  0  0  2  0  0  0  0  0  0
  183.9470  178.6660  143.5050 C   0  0  0  0  0  3  0  0  0  0  0  0
  184.5240  179.5740  144.2640 C   0  0  0  0  0  3  0  0  0  0  0  0
  185.9420  179.2010  144.5320 C   0  0  0  0  0  2  0  0  0  0  0  0
  184.8350  177.6140  143.1740 N   0  0  0  0  0  2  0  0  0  0  0  0
  186.1190  177.8700  143.7990 C   0  0  1  0  0  3  0  0  0  0  0  0
  1 15  1  0  0  0  0
  1  9  1  0  0  0  0
  3  6  1  0  0  0  0
  3  7  1  0  0  0  0
  4  3  2  0  0  0  0
  5 12  1  0  0  0  0
  6  1  2  0  0  0  0
  7 10  2  0  0  0  0
  8 14  1  6  0  0  0
  8 12  1  0  0  0  0
 10  9  1  0  0  0  0
 11  4  1  0  0  0  0
 11  2  1  1  0  0  0
 11 13  1  0  0  0  0
 13  5  1  0  0  0  0
 13  6  1  0  0  0  0
 14  2  1  0  0  0  0
 15 18  1  0  0  0  0
 17 19  2  0  0  0  0
 18 16  2  0  0  0  0
 19 16  1  0  0  0  0
 20 17  1  0  0  0  0
 20 15  2  0  0  0  0
 21 20  1  0  0  0  0
 22 21  1  0  0  0  0
 23 22  1  0  0  0  0
 24 26  1  0  0  0  0
 26 25  1  0  0  0  0
 26 27  2  0  0  0  0
 27 23  1  0  0  0  0
 28 31  1  6  0  0  0
 28  8  1  0  0  0  0
 28 29  1  0  0  0  0
 30 31  1  0  0  0  0
 30 32  1  0  0  0  0
 32 33  1  0  0  0  0
 33 29  1  0  0  0  0
 34 32  1  0  0  0  0
 35 36  2  0  0  0  0
 36 37  1  0  0  0  0
 38 35  1  0  0  0  0
 38 39  1  0  0  0  0
 39 34  1  6  0  0  0
 39 37  1  0  0  0  0
M  END
>  <MODEL>
6

>  <REMARK>
 VINA RESULT:      -6.9      1.497      1.929
  Name = 
  8 active torsions:
  status: ('A' for Active; 'I' for Inactive)
    1  A    between atoms: C_2  and  C_4
    2  A    between atoms: C_3  and  C_30
    3  A    between atoms: C_3  and  N_31
    4  A    between atoms: N_8  and  C_21
    5  A    between atoms: C_14  and  C_32
    6  A    between atoms: C_14  and  N_36
    7  A    between atoms: O_20  and  C_30
    8  A    between atoms: O_20  and  C_34
                            x       y       z     vdW  Elec       q    Type
                         _______ _______ _______ _____ _____    ______ ____

>  <TORSDO>
F 8

$$$$
=
 OpenBabel11072409153D

 39 44  0  0  1  0  0  0  0  0999 V2000
  189.3300  176.4640  143.8420 C   0  0  0  0  0  0  0  0  0  0  0  0
  189.6620  172.9820  140.8520 C   0  0  0  0  0  2  0  0  0  0  0  0
  188.1880  175.7580  141.8370 C   0  0  0  0  0  0  0  0  0  0  0  0
  187.9510  174.6970  141.1440 N   0  0  0  0  0  0  0  0  0  0  0  0
  190.1630  173.3910  143.8840 C   0  0  0  0  0  2  0  0  0  0  0  0
  188.9600  175.4910  142.9970 C   0  0  0  0  0  0  0  0  0  0  0  0
  187.7290  177.0690  141.5180 N   0  0  0  0  0  0  0  0  0  0  0  0
  191.6010  172.0870  142.2110 C   0  0  2  0  0  3  0  0  0  0  0  0
  188.9680  177.9020  143.5050 C   0  0  0  0  0  2  0  0  0  0  0  0
  188.0700  178.0670  142.2840 C   0  0  0  0  0  3  0  0  0  0  0  0
  188.6070  173.5520  141.7970 C   0  0  2  0  0  3  0  0  0  0  0  0
  191.5150  173.2780  143.1940 C   0  0  0  0  0  2  0  0  0  0  0  0
  189.2220  174.0960  143.0220 N   0  0  0  0  0  0  0  0  0  0  0  0
  190.3090  171.7470  141.4580 C   0  0  0  0  0  2  0  0  0  0  0  0
  190.0900  176.1980  145.0740 C   0  0  0  0  0  0  0  0  0  0  0  0
  192.2310  176.0540  146.2110 C   0  0  0  0  0  3  0  0  0  0  0  0
  190.1950  175.5300  147.4060 C   0  0  0  0  0  3  0  0  0  0  0  0
  191.4870  176.3190  145.0600 C   0  0  0  0  0  3  0  0  0  0  0  0
  191.5850  175.6620  147.3840 C   0  0  0  0  0  3  0  0  0  0  0  0
  189.4360  175.7930  146.2530 C   0  0  0  0  0  0  0  0  0  0  0  0
  188.0390  175.6700  146.2640 O   0  0  0  0  0  0  0  0  0  0  0  0
  187.1610  176.7330  146.6150 C   0  0  0  0  0  2  0  0  0  0  0  0
  185.8460  176.5890  145.8730 C   0  0  0  0  0  2  0  0  0  0  0  0
  184.8300  179.7790  144.2580 N   0  0  0  0  0  1  0  0  0  0  0  0
  184.2240  178.8240  146.4440 N   0  0  0  0  0  1  0  0  0  0  0  0
  184.9400  178.7290  145.2130 C   0  0  0  0  0  0  0  0  0  0  0  0
  185.6850  177.7020  144.9500 N   0  0  0  0  0  0  0  0  0  0  0  0
  192.1980  170.8770  142.7930 N   0  0  1  0  0  0  0  0  0  0  0  0
  193.2130  170.3600  141.8720 C   0  0  0  0  0  2  0  0  0  0  0  0
  193.4530  169.9000  144.6580 C   0  0  0  0  0  2  0  0  0  0  0  0
  192.8100  171.1680  144.0970 C   0  0  0  0  0  2  0  0  0  0  0  0
  194.4830  169.4230  143.7380 N   0  0  0  0  0  0  0  0  0  0  0  0
  193.8520  169.1030  142.4580 C   0  0  0  0  0  2  0  0  0  0  0  0
  194.9900  168.1760  144.2880 C   0  0  0  0  0  2  0  0  0  0  0  0
  196.8220  169.6230  146.7640 C   0  0  0  0  0  3  0  0  0  0  0  0
  197.1540  170.4280  145.7760 C   0  0  0  0  0  3  0  0  0  0  0  0
  196.9190  169.7620  144.4630 C   0  0  0  0  0  2  0  0  0  0  0  0
  196.3490  168.3750  146.2910 N   0  0  0  0  0  2  0  0  0  0  0  0
  196.3930  168.3760  144.8410 C   0  0  1  0  0  3  0  0  0  0  0  0
  1 15  1  0  0  0  0
  2 14  1  0  0  0  0
  3  6  1  0  0  0  0
  4 11  1  0  0  0  0
  4  3  2  0  0  0  0
  6 13  1  0  0  0  0
  6  1  2  0  0  0  0
  7  3  1  0  0  0  0
  7 10  2  0  0  0  0
  8 14  1  1  0  0  0
  8 28  1  0  0  0  0
  8 12  1  0  0  0  0
  9  1  1  0  0  0  0
 10  9  1  0  0  0  0
 11  2  1  6  0  0  0
 11 13  1  0  0  0  0
 12  5  1  0  0  0  0
 13  5  1  0  0  0  0
 15 20  1  0  0  0  0
 16 19  2  0  0  0  0
 18 15  2  0  0  0  0
 18 16  1  0  0  0  0
 19 17  1  0  0  0  0
 20 21  1  0  0  0  0
 20 17  2  0  0  0  0
 21 22  1  0  0  0  0
 23 22  1  0  0  0  0
 24 26  1  0  0  0  0
 26 25  1  0  0  0  0
 27 26  2  0  0  0  0
 27 23  1  0  0  0  0
 28 29  1  6  0  0  0
 28 31  1  0  0  0  0
 29 33  1  0  0  0  0
 31 30  1  0  0  0  0
 32 34  1  0  0  0  0
 32 30  1  0  0  0  0
 33 32  1  0  0  0  0
 36 35  2  0  0  0  0
 37 39  1  0  0  0  0
 37 36  1  0  0  0  0
 38 35  1  0  0  0  0
 39 34  1  6  0  0  0
 39 38  1  0  0  0  0
M  END
>  <MODEL>
7

>  <REMARK>
 VINA RESULT:      -6.8      3.025      9.248
  Name = 
  8 active torsions:
  status: ('A' for Active; 'I' for Inactive)
    1  A    between atoms: C_2  and  C_4
    2  A    between atoms: C_3  and  C_30
    3  A    between atoms: C_3  and  N_31
    4  A    between atoms: N_8  and  C_21
    5  A    between atoms: C_14  and  C_32
    6  A    between atoms: C_14  and  N_36
    7  A    between atoms: O_20  and  C_30
    8  A    between atoms: O_20  and  C_34
                            x       y       z     vdW  Elec       q    Type
                         _______ _______ _______ _____ _____    ______ ____

>  <TORSDO>
F 8

$$$$
=
 OpenBabel11072409153D

 39 44  0  0  1  0  0  0  0  0999 V2000
  188.0930  176.2720  144.7230 C   0  0  0  0  0  0  0  0  0  0  0  0
  190.0720  172.1510  144.2020 C   0  0  0  0  0  2  0  0  0  0  0  0
  189.3160  174.7240  146.1130 C   0  0  0  0  0  0  0  0  0  0  0  0
  190.1780  173.7690  146.0250 N   0  0  0  0  0  0  0  0  0  0  0  0
  189.5670  174.6370  142.4220 C   0  0  0  0  0  2  0  0  0  0  0  0
  188.9850  175.2790  144.8490 C   0  0  0  0  0  0  0  0  0  0  0  0
  188.7490  175.2120  147.3260 N   0  0  0  0  0  0  0  0  0  0  0  0
  189.3190  172.1670  141.7860 C   0  0  2  0  0  3  0  0  0  0  0  0
  187.3670  176.7660  145.9650 C   0  0  0  0  0  2  0  0  0  0  0  0
  187.8580  176.1620  147.2770 C   0  0  0  0  0  3  0  0  0  0  0  0
  190.5030  173.5590  144.6040 C   0  0  2  0  0  3  0  0  0  0  0  0
  188.6200  173.5340  141.9710 C   0  0  0  0  0  2  0  0  0  0  0  0
  189.7400  174.5830  143.8690 N   0  0  0  0  0  0  0  0  0  0  0  0
  190.4620  171.8640  142.7620 C   0  0  0  0  0  2  0  0  0  0  0  0
  187.7720  176.8900  143.4270 C   0  0  0  0  0  0  0  0  0  0  0  0
  186.3020  177.0470  141.5000 C   0  0  0  0  0  3  0  0  0  0  0  0
  188.2980  178.4070  141.6060 C   0  0  0  0  0  3  0  0  0  0  0  0
  186.6170  176.4880  142.7400 C   0  0  0  0  0  3  0  0  0  0  0  0
  187.1410  178.0070  140.9340 C   0  0  0  0  0  3  0  0  0  0  0  0
  188.6260  177.8510  142.8540 C   0  0  0  0  0  0  0  0  0  0  0  0
  189.7830  178.2480  143.5410 O   0  0  0  0  0  0  0  0  0  0  0  0
  191.0990  177.9140  143.1160 C   0  0  0  0  0  2  0  0  0  0  0  0
  191.9270  177.4550  144.3030 C   0  0  0  0  0  2  0  0  0  0  0  0
  194.8530  175.1940  143.9350 N   0  0  0  0  0  1  0  0  0  0  0  0
  194.4800  177.1000  145.4450 N   0  0  0  0  0  1  0  0  0  0  0  0
  194.0140  176.2430  144.4050 C   0  0  0  0  0  0  0  0  0  0  0  0
  192.8410  176.4060  143.8790 N   0  0  0  0  0  0  0  0  0  0  0  0
  189.7280  171.8910  140.4020 N   0  0  1  0  0  0  0  0  0  0  0  0
  188.8820  172.6700  139.4940 C   0  0  0  0  0  2  0  0  0  0  0  0
  191.5240  171.9760  138.7350 C   0  0  0  0  0  2  0  0  0  0  0  0
  191.1400  172.2400  140.1910 C   0  0  0  0  0  2  0  0  0  0  0  0
  190.6900  172.7880  137.8520 N   0  0  0  0  0  0  0  0  0  0  0  0
  189.2930  172.4020  138.0470 C   0  0  0  0  0  2  0  0  0  0  0  0
  191.0470  172.4260  136.4900 C   0  0  0  0  0  2  0  0  0  0  0  0
  192.8130  170.2340  134.5770 C   0  0  0  0  0  3  0  0  0  0  0  0
  191.6660  169.5890  134.6090 C   0  0  0  0  0  3  0  0  0  0  0  0
  190.8520  170.0340  135.7760 C   0  0  0  0  0  2  0  0  0  0  0  0
  192.9340  171.1470  135.6530 N   0  0  0  0  0  2  0  0  0  0  0  0
  191.7370  171.0710  136.4690 C   0  0  1  0  0  3  0  0  0  0  0  0
  1  6  2  0  0  0  0
  1  9  1  0  0  0  0
  3  7  1  0  0  0  0
  4  3  2  0  0  0  0
  5 13  1  0  0  0  0
  6  3  1  0  0  0  0
  8 12  1  6  0  0  0
  8 14  1  0  0  0  0
  9 10  1  0  0  0  0
 10  7  2  0  0  0  0
 11  2  1  6  0  0  0
 11  4  1  0  0  0  0
 12  5  1  0  0  0  0
 13 11  1  0  0  0  0
 13  6  1  0  0  0  0
 14  2  1  0  0  0  0
 15  1  1  0  0  0  0
 16 18  1  0  0  0  0
 17 20  2  0  0  0  0
 18 15  2  0  0  0  0
 19 16  2  0  0  0  0
 19 17  1  0  0  0  0
 20 15  1  0  0  0  0
 20 21  1  0  0  0  0
 22 21  1  0  0  0  0
 22 23  1  0  0  0  0
 24 26  1  0  0  0  0
 26 25  1  0  0  0  0
 27 23  1  0  0  0  0
 27 26  2  0  0  0  0
 28 29  1  6  0  0  0
 28  8  1  0  0  0  0
 30 31  1  0  0  0  0
 31 28  1  0  0  0  0
 32 33  1  0  0  0  0
 32 30  1  0  0  0  0
 33 29  1  0  0  0  0
 34 32  1  0  0  0  0
 35 36  2  0  0  0  0
 35 38  1  0  0  0  0
 36 37  1  0  0  0  0
 37 39  1  0  0  0  0
 38 39  1  0  0  0  0
 39 34  1  6  0  0  0
M  END
>  <MODEL>
8

>  <REMARK>
 VINA RESULT:      -6.7      3.558      7.811
  Name = 
  8 active torsions:
  status: ('A' for Active; 'I' for Inactive)
    1  A    between atoms: C_2  and  C_4
    2  A    between atoms: C_3  and  C_30
    3  A    between atoms: C_3  and  N_31
    4  A    between atoms: N_8  and  C_21
    5  A    between atoms: C_14  and  C_32
    6  A    between atoms: C_14  and  N_36
    7  A    between atoms: O_20  and  C_30
    8  A    between atoms: O_20  and  C_34
                            x       y       z     vdW  Elec       q    Type
                         _______ _______ _______ _____ _____    ______ ____

>  <TORSDO>
F 8

$$$$
=
 OpenBabel11072409153D

 39 44  0  0  1  0  0  0  0  0999 V2000
  188.9440  176.4550  143.8800 C   0  0  0  0  0  0  0  0  0  0  0  0
  189.9700  173.5450  140.4670 C   0  0  0  0  0  2  0  0  0  0  0  0
  188.1620  176.0370  141.6360 C   0  0  0  0  0  0  0  0  0  0  0  0
  188.1090  175.0970  140.7560 N   0  0  0  0  0  0  0  0  0  0  0  0
  189.9950  173.4650  143.5660 C   0  0  0  0  0  2  0  0  0  0  0  0
  188.7760  175.6190  142.8460 C   0  0  0  0  0  0  0  0  0  0  0  0
  187.6560  177.3580  141.4610 N   0  0  0  0  0  0  0  0  0  0  0  0
  191.7540  172.5350  141.9520 C   0  0  2  0  0  3  0  0  0  0  0  0
  188.5280  177.9090  143.7220 C   0  0  0  0  0  2  0  0  0  0  0  0
  187.8050  178.2300  142.4180 C   0  0  0  0  0  3  0  0  0  0  0  0
  188.7490  173.8940  141.3150 C   0  0  2  0  0  3  0  0  0  0  0  0
  191.4370  173.5390  143.0850 C   0  0  0  0  0  2  0  0  0  0  0  0
  189.1370  174.2550  142.6900 N   0  0  0  0  0  0  0  0  0  0  0  0
  190.6150  172.2610  140.9630 C   0  0  0  0  0  2  0  0  0  0  0  0
  189.5360  176.0260  145.1580 C   0  0  0  0  0  0  0  0  0  0  0  0
  189.2650  174.9810  147.3330 C   0  0  0  0  0  3  0  0  0  0  0  0
  191.4160  175.8780  146.6870 C   0  0  0  0  0  3  0  0  0  0  0  0
  188.7310  175.3810  146.1070 C   0  0  0  0  0  3  0  0  0  0  0  0
  190.6080  175.2280  147.6220 C   0  0  0  0  0  3  0  0  0  0  0  0
  190.8880  176.2860  145.4500 C   0  0  0  0  0  0  0  0  0  0  0  0
  191.6910  176.9350  144.5010 O   0  0  0  0  0  0  0  0  0  0  0  0
  193.1030  177.0670  144.6280 C   0  0  0  0  0  2  0  0  0  0  0  0
  193.7990  175.9350  143.8970 C   0  0  0  0  0  2  0  0  0  0  0  0
  197.3980  176.4650  143.1370 N   0  0  0  0  0  1  0  0  0  0  0  0
  196.3020  174.9100  144.6980 N   0  0  0  0  0  1  0  0  0  0  0  0
  196.2080  175.9420  143.7170 C   0  0  0  0  0  0  0  0  0  0  0  0
  195.0590  176.4140  143.3490 N   0  0  0  0  0  0  0  0  0  0  0  0
  192.3510  171.2770  142.4210 N   0  0  1  0  0  0  0  0  0  0  0  0
  193.7980  171.3290  142.2000 C   0  0  0  0  0  2  0  0  0  0  0  0
  192.7360  169.7680  144.3140 C   0  0  0  0  0  2  0  0  0  0  0  0
  192.0720  171.0630  143.8480 C   0  0  0  0  0  2  0  0  0  0  0  0
  194.1810  169.8560  144.1130 N   0  0  0  0  0  0  0  0  0  0  0  0
  194.4420  170.0320  142.6850 C   0  0  0  0  0  2  0  0  0  0  0  0
  194.7360  168.5670  144.4950 C   0  0  0  0  0  2  0  0  0  0  0  0
  197.0670  170.7430  145.6830 C   0  0  0  0  0  3  0  0  0  0  0  0
  197.8680  169.9370  145.0190 C   0  0  0  0  0  3  0  0  0  0  0  0
  197.2180  168.6120  144.8130 C   0  0  0  0  0  2  0  0  0  0  0  0
  195.8390  170.1160  146.0050 N   0  0  0  0  0  2  0  0  0  0  0  0
  195.8600  168.7560  145.5010 C   0  0  1  0  0  3  0  0  0  0  0  0
  1 15  1  0  0  0  0
  2 14  1  0  0  0  0
  3  6  1  0  0  0  0
  4 11  1  0  0  0  0
  4  3  2  0  0  0  0
  6  1  2  0  0  0  0
  7  3  1  0  0  0  0
  7 10  2  0  0  0  0
  8 14  1  1  0  0  0
  8 28  1  0  0  0  0
  8 12  1  0  0  0  0
  9  1  1  0  0  0  0
 10  9  1  0  0  0  0
 11  2  1  6  0  0  0
 11 13  1  0  0  0  0
 12  5  1  0  0  0  0
 13  6  1  0  0  0  0
 13  5  1  0  0  0  0
 15 20  2  0  0  0  0
 15 18  1  0  0  0  0
 16 19  1  0  0  0  0
 17 19  2  0  0  0  0
 18 16  2  0  0  0  0
 20 17  1  0  0  0  0
 21 22  1  0  0  0  0
 21 20  1  0  0  0  0
 23 22  1  0  0  0  0
 24 26  1  0  0  0  0
 26 25  1  0  0  0  0
 27 26  2  0  0  0  0
 27 23  1  0  0  0  0
 28 29  1  1  0  0  0
 28 31  1  0  0  0  0
 29 33  1  0  0  0  0
 31 30  1  0  0  0  0
 32 30  1  0  0  0  0
 32 34  1  0  0  0  0
 33 32  1  0  0  0  0
 35 38  1  0  0  0  0
 36 35  2  0  0  0  0
 37 36  1  0  0  0  0
 37 39  1  0  0  0  0
 39 34  1  6  0  0  0
 39 38  1  0  0  0  0
M  END
>  <MODEL>
9

>  <REMARK>
 VINA RESULT:      -6.6      2.337      7.812
  Name = 
  8 active torsions:
  status: ('A' for Active; 'I' for Inactive)
    1  A    between atoms: C_2  and  C_4
    2  A    between atoms: C_3  and  C_30
    3  A    between atoms: C_3  and  N_31
    4  A    between atoms: N_8  and  C_21
    5  A    between atoms: C_14  and  C_32
    6  A    between atoms: C_14  and  N_36
    7  A    between atoms: O_20  and  C_30
    8  A    between atoms: O_20  and  C_34
                            x       y       z     vdW  Elec       q    Type
                         _______ _______ _______ _____ _____    ______ ____

>  <TORSDO>
F 8

$$$$
