=
 OpenBabel11062420093D

 35 37  0  0  1  0  0  0  0  0999 V2000
  189.4650  176.7110  146.1360 C   0  0  0  0  0  0  0  0  0  0  0  0
  191.8690  174.7240  146.2720 C   0  0  0  0  0  2  0  0  0  0  0  0
  191.3670  176.8420  147.6210 C   0  0  1  0  0  3  0  0  0  0  0  0
  189.9500  176.6540  147.3380 N   0  0  0  0  0  0  0  0  0  0  0  0
  191.0150  176.0290  144.2230 C   0  0  1  0  0  3  0  0  0  0  0  0
  190.2990  177.0320  145.0160 N   0  0  0  0  0  2  0  0  0  0  0  0
  191.5270  177.4310  149.0070 C   0  0  0  0  0  1  0  0  0  0  0  0
  192.2280  175.4580  144.9720 C   0  0  1  0  0  3  0  0  0  0  0  0
  192.1170  175.5160  147.5590 C   0  0  0  0  0  2  0  0  0  0  0  0
  187.9960  176.5600  145.9300 C   0  0  0  0  0  2  0  0  0  0  0  0
  184.9870  178.0230  145.1940 N   0  0  0  0  0  0  0  0  0  0  0  0
  185.7100  177.9230  147.4350 O   0  0  0  0  0  0  0  0  0  0  0  0
  187.0290  177.9960  144.2480 O   0  0  0  0  0  0  0  0  0  0  0  0
  187.3450  177.9050  145.6280 C   0  0  1  0  0  3  0  0  0  0  0  0
  185.9790  177.9440  146.2060 C   0  0  0  0  0  0  0  0  0  0  0  0
  185.6460  178.0560  144.0810 C   0  0  0  0  0  0  0  0  0  0  0  0
  184.9860  178.1380  142.7610 C   0  0  0  0  0  0  0  0  0  0  0  0
  187.1190  178.1570  141.5720 O   0  0  0  0  0  1  0  0  0  0  0  0
  183.5850  178.1700  142.6950 C   0  0  0  0  0  3  0  0  0  0  0  0
  185.0680  178.2710  140.3320 C   0  0  0  0  0  3  0  0  0  0  0  0
  182.9310  178.2520  141.4630 C   0  0  0  0  0  0  0  0  0  0  0  0
  185.7290  178.1880  141.5620 C   0  0  0  0  0  0  0  0  0  0  0  0
  183.6730  178.3030  140.2820 C   0  0  0  0  0  3  0  0  0  0  0  0
  181.4460  178.2840  141.4100 C   0  0  0  0  0  1  0  0  0  0  0  0
  193.2130  176.4390  145.1520 O   0  0  0  0  0  0  0  0  0  0  0  0
  194.4820  174.4580  143.7100 O   0  0  0  0  0  0  0  0  0  0  0  0
  195.7490  176.8620  144.1390 O   0  0  0  0  0  1  0  0  0  0  0  0
  194.7190  175.7090  144.8220 P   0  0  0  0  0  0  0  0  0  0  0  0
  195.3690  175.1410  146.0660 O   0  0  0  0  0  1  0  0  0  0  0  0
  190.0660  174.9530  143.6440 C   0  0  2  0  0  3  0  0  0  0  0  0
  190.8210  173.7300  143.0930 C   0  0  0  0  0  3  0  0  0  0  0  0
  190.7570  173.6960  141.6980 O   0  0  0  0  0  1  0  0  0  0  0  0
  190.2660  172.5490  143.5900 O   0  0  0  0  0  1  0  0  0  0  0  0
  189.1640  175.5600  142.5610 C   0  0  0  0  0  2  0  0  0  0  0  0
  187.8510  175.0970  142.6860 O   0  0  0  0  0  1  0  0  0  0  0  0
  1  4  2  0  0  0  0
  2  9  1  0  0  0  0
  3  7  1  1  0  0  0
  4  3  1  0  0  0  0
  5 30  1  1  0  0  0
  5  8  1  0  0  0  0
  5  6  1  0  0  0  0
  6  1  1  0  0  0  0
  8 25  1  1  0  0  0
  8  2  1  0  0  0  0
  9  3  1  0  0  0  0
 10  1  1  0  0  0  0
 11 15  1  0  0  0  0
 13 14  1  0  0  0  0
 14 10  1  6  0  0  0
 14 15  1  0  0  0  0
 15 12  2  0  0  0  0
 16 13  1  0  0  0  0
 16 11  2  0  0  0  0
 17 16  1  0  0  0  0
 19 17  1  0  0  0  0
 20 22  1  0  0  0  0
 21 19  2  0  0  0  0
 22 18  1  0  0  0  0
 22 17  2  0  0  0  0
 23 20  2  0  0  0  0
 23 21  1  0  0  0  0
 24 21  1  0  0  0  0
 26 28  2  0  0  0  0
 27 28  1  0  0  0  0
 28 25  1  0  0  0  0
 28 29  1  0  0  0  0
 30 34  1  6  0  0  0
 31 33  1  0  0  0  0
 31 30  1  0  0  0  0
 32 31  1  0  0  0  0
 34 35  1  0  0  0  0
M  END
>  <MODEL>
1

>  <REMARK>
 VINA RESULT:      -7.5      0.000      0.000
  Name = 
  8 active torsions:
  status: ('A' for Active; 'I' for Inactive)
    1  A    between atoms: C_2  and  C_23
    2  A    between atoms: C_4  and  C_18
    3  A    between atoms: P_10  and  O_27
    4  A    between atoms: C_16  and  C_18
    5  A    between atoms: C_19  and  C_33
    6  A    between atoms: C_20  and  C_33
    7  A    between atoms: C_25  and  C_33
    8  A    between atoms: O_27  and  C_30
                            x       y       z     vdW  Elec       q    Type
                         _______ _______ _______ _____ _____    ______ ____

>  <TORSDO>
F 8

$$$$
=
 OpenBabel11062420093D

 35 37  0  0  1  0  0  0  0  0999 V2000
  192.0290  175.7030  144.6690 C   0  0  0  0  0  0  0  0  0  0  0  0
  194.4370  173.8530  145.3890 C   0  0  0  0  0  2  0  0  0  0  0  0
  194.1410  176.3850  145.6250 C   0  0  1  0  0  3  0  0  0  0  0  0
  192.6980  176.1860  145.6700 N   0  0  0  0  0  0  0  0  0  0  0  0
  193.2610  174.0960  143.1120 C   0  0  1  0  0  3  0  0  0  0  0  0
  192.6730  175.4010  143.4250 N   0  0  0  0  0  2  0  0  0  0  0  0
  194.5140  177.5450  146.5260 C   0  0  0  0  0  1  0  0  0  0  0  0
  194.5810  173.8620  143.8610 C   0  0  1  0  0  3  0  0  0  0  0  0
  194.8810  175.1370  146.0950 C   0  0  0  0  0  2  0  0  0  0  0  0
  190.5470  175.5760  144.7700 C   0  0  0  0  0  2  0  0  0  0  0  0
  187.8440  176.0530  146.8200 N   0  0  0  0  0  0  0  0  0  0  0  0
  189.7130  174.8620  147.6240 O   0  0  0  0  0  0  0  0  0  0  0  0
  188.9470  177.3030  145.3080 O   0  0  0  0  0  0  0  0  0  0  0  0
  189.9910  176.5040  145.8440 C   0  0  1  0  0  3  0  0  0  0  0  0
  189.2220  175.7170  146.8410 C   0  0  0  0  0  0  0  0  0  0  0  0
  187.7390  176.9780  145.9220 C   0  0  0  0  0  0  0  0  0  0  0  0
  186.4510  177.6170  145.5770 C   0  0  0  0  0  0  0  0  0  0  0  0
  186.1270  178.4450  147.8520 O   0  0  0  0  0  1  0  0  0  0  0  0
  185.9670  177.5230  144.2630 C   0  0  0  0  0  3  0  0  0  0  0  0
  184.4740  178.9060  146.1740 C   0  0  0  0  0  3  0  0  0  0  0  0
  184.7510  178.1120  143.9070 C   0  0  0  0  0  0  0  0  0  0  0  0
  185.6910  178.3190  146.5370 C   0  0  0  0  0  0  0  0  0  0  0  0
  184.0060  178.8030  144.8630 C   0  0  0  0  0  3  0  0  0  0  0  0
  184.2540  178.0040  142.5110 C   0  0  0  0  0  1  0  0  0  0  0  0
  195.5760  174.7410  143.4110 O   0  0  0  0  0  0  0  0  0  0  0  0
  197.9410  174.0160  144.6340 O   0  0  0  0  0  1  0  0  0  0  0  0
  196.6080  172.2020  143.0520 O   0  0  0  0  0  1  0  0  0  0  0  0
  197.0100  173.8340  143.2350 P   0  0  0  0  0  0  0  0  0  0  0  0
  197.8290  174.2780  142.0410 O   0  0  0  0  0  0  0  0  0  0  0  0
  192.2400  172.9430  143.2550 C   0  0  2  0  0  3  0  0  0  0  0  0
  192.8990  171.5530  143.1880 C   0  0  0  0  0  3  0  0  0  0  0  0
  192.6170  170.9300  141.9700 O   0  0  0  0  0  1  0  0  0  0  0  0
  192.4300  170.7400  144.2210 O   0  0  0  0  0  1  0  0  0  0  0  0
  191.1390  173.0670  142.1940 C   0  0  0  0  0  2  0  0  0  0  0  0
  189.8900  172.7360  142.7280 O   0  0  0  0  0  1  0  0  0  0  0  0
  1 10  1  0  0  0  0
  1  4  2  0  0  0  0
  2  9  1  0  0  0  0
  3  4  1  0  0  0  0
  3  9  1  0  0  0  0
  3  7  1  1  0  0  0
  5 30  1  1  0  0  0
  5  6  1  0  0  0  0
  5  8  1  0  0  0  0
  6  1  1  0  0  0  0
  8 25  1  1  0  0  0
  8  2  1  0  0  0  0
 11 15  1  0  0  0  0
 13 14  1  0  0  0  0
 13 16  1  0  0  0  0
 14 10  1  6  0  0  0
 14 15  1  0  0  0  0
 15 12  2  0  0  0  0
 16 11  2  0  0  0  0
 17 16  1  0  0  0  0
 17 22  1  0  0  0  0
 19 17  2  0  0  0  0
 20 22  2  0  0  0  0
 21 19  1  0  0  0  0
 21 23  2  0  0  0  0
 22 18  1  0  0  0  0
 23 20  1  0  0  0  0
 24 21  1  0  0  0  0
 27 28  1  0  0  0  0
 28 25  1  0  0  0  0
 28 26  1  0  0  0  0
 29 28  2  0  0  0  0
 30 34  1  6  0  0  0
 31 30  1  0  0  0  0
 31 33  1  0  0  0  0
 32 31  1  0  0  0  0
 34 35  1  0  0  0  0
M  END
>  <MODEL>
2

>  <REMARK>
 VINA RESULT:      -7.1      2.327      3.712
  Name = 
  8 active torsions:
  status: ('A' for Active; 'I' for Inactive)
    1  A    between atoms: C_2  and  C_23
    2  A    between atoms: C_4  and  C_18
    3  A    between atoms: P_10  and  O_27
    4  A    between atoms: C_16  and  C_18
    5  A    between atoms: C_19  and  C_33
    6  A    between atoms: C_20  and  C_33
    7  A    between atoms: C_25  and  C_33
    8  A    between atoms: O_27  and  C_30
                            x       y       z     vdW  Elec       q    Type
                         _______ _______ _______ _____ _____    ______ ____

>  <TORSDO>
F 8

$$$$
=
 OpenBabel11062420093D

 35 37  0  0  1  0  0  0  0  0999 V2000
  192.0680  174.6290  142.9140 C   0  0  0  0  0  0  0  0  0  0  0  0
  195.1700  174.8780  143.1530 C   0  0  0  0  0  2  0  0  0  0  0  0
  193.7190  173.2520  141.8090 C   0  0  1  0  0  3  0  0  0  0  0  0
  192.6480  174.2400  141.8200 N   0  0  0  0  0  0  0  0  0  0  0  0
  193.4620  174.5700  145.0540 C   0  0  1  0  0  3  0  0  0  0  0  0
  192.4090  174.0480  144.1790 N   0  0  0  0  0  2  0  0  0  0  0  0
  193.6880  172.4950  140.4970 C   0  0  0  0  0  1  0  0  0  0  0  0
  194.8670  174.2520  144.5220 C   0  0  1  0  0  3  0  0  0  0  0  0
  195.0820  173.9200  141.9620 C   0  0  0  0  0  2  0  0  0  0  0  0
  190.9440  175.6060  142.8410 C   0  0  0  0  0  2  0  0  0  0  0  0
  187.5210  175.4760  142.8420 N   0  0  0  0  0  0  0  0  0  0  0  0
  188.7500  173.6470  142.0050 O   0  0  0  0  0  0  0  0  0  0  0  0
  189.0950  176.2370  144.2590 O   0  0  0  0  0  0  0  0  0  0  0  0
  189.7510  175.1290  143.6610 C   0  0  1  0  0  3  0  0  0  0  0  0
  188.6750  174.6550  142.7560 C   0  0  0  0  0  0  0  0  0  0  0  0
  187.8140  176.3720  143.7290 C   0  0  0  0  0  0  0  0  0  0  0  0
  186.8740  177.4410  144.1270 C   0  0  0  0  0  0  0  0  0  0  0  0
  186.9580  178.4890  141.9230 O   0  0  0  0  0  1  0  0  0  0  0  0
  186.3590  177.4510  145.4330 C   0  0  0  0  0  3  0  0  0  0  0  0
  185.5920  179.4530  143.6450 C   0  0  0  0  0  3  0  0  0  0  0  0
  185.4720  178.4510  145.8420 C   0  0  0  0  0  0  0  0  0  0  0  0
  186.4800  178.4560  143.2280 C   0  0  0  0  0  0  0  0  0  0  0  0
  185.0900  179.4510  144.9480 C   0  0  0  0  0  3  0  0  0  0  0  0
  184.9360  178.4470  147.2270 C   0  0  0  0  0  1  0  0  0  0  0  0
  195.1180  172.8740  144.5590 O   0  0  0  0  0  0  0  0  0  0  0  0
  196.5640  171.1610  146.1680 O   0  0  0  0  0  1  0  0  0  0  0  0
  197.8540  172.6390  144.2380 O   0  0  0  0  0  0  0  0  0  0  0  0
  196.6010  172.6520  145.3730 P   0  0  0  0  0  0  0  0  0  0  0  0
  196.8680  173.7420  146.3900 O   0  0  0  0  0  1  0  0  0  0  0  0
  193.2430  176.0590  145.4110 C   0  0  2  0  0  3  0  0  0  0  0  0
  194.4850  176.7040  146.0530 C   0  0  0  0  0  3  0  0  0  0  0  0
  194.1470  177.3440  147.2490 O   0  0  0  0  0  1  0  0  0  0  0  0
  195.0460  177.6470  145.1900 O   0  0  0  0  0  1  0  0  0  0  0  0
  192.0210  176.2170  146.3260 C   0  0  0  0  0  2  0  0  0  0  0  0
  191.8730  175.1050  147.1590 O   0  0  0  0  0  1  0  0  0  0  0  0
  1  6  1  0  0  0  0
  2  8  1  0  0  0  0
  3  7  1  6  0  0  0
  3  4  1  0  0  0  0
  3  9  1  0  0  0  0
  4  1  2  0  0  0  0
  5 30  1  6  0  0  0
  6  5  1  0  0  0  0
  8 25  1  6  0  0  0
  8  5  1  0  0  0  0
  9  2  1  0  0  0  0
 10  1  1  0  0  0  0
 11 16  2  0  0  0  0
 12 15  2  0  0  0  0
 14 10  1  6  0  0  0
 14 13  1  0  0  0  0
 15 11  1  0  0  0  0
 15 14  1  0  0  0  0
 16 17  1  0  0  0  0
 16 13  1  0  0  0  0
 17 19  1  0  0  0  0
 18 22  1  0  0  0  0
 19 21  2  0  0  0  0
 20 23  2  0  0  0  0
 21 24  1  0  0  0  0
 22 20  1  0  0  0  0
 22 17  2  0  0  0  0
 23 21  1  0  0  0  0
 25 28  1  0  0  0  0
 27 28  2  0  0  0  0
 28 26  1  0  0  0  0
 28 29  1  0  0  0  0
 30 31  1  0  0  0  0
 30 34  1  1  0  0  0
 31 32  1  0  0  0  0
 33 31  1  0  0  0  0
 34 35  1  0  0  0  0
M  END
>  <MODEL>
3

>  <REMARK>
 VINA RESULT:      -7.1      2.621      5.055
  Name = 
  8 active torsions:
  status: ('A' for Active; 'I' for Inactive)
    1  A    between atoms: C_2  and  C_23
    2  A    between atoms: C_4  and  C_18
    3  A    between atoms: P_10  and  O_27
    4  A    between atoms: C_16  and  C_18
    5  A    between atoms: C_19  and  C_33
    6  A    between atoms: C_20  and  C_33
    7  A    between atoms: C_25  and  C_33
    8  A    between atoms: O_27  and  C_30
                            x       y       z     vdW  Elec       q    Type
                         _______ _______ _______ _____ _____    ______ ____

>  <TORSDO>
F 8

$$$$
=
 OpenBabel11062420093D

 35 37  0  0  1  0  0  0  0  0999 V2000
  192.0240  173.6550  144.5980 C   0  0  0  0  0  0  0  0  0  0  0  0
  193.9210  173.1170  142.1790 C   0  0  0  0  0  2  0  0  0  0  0  0
  191.8370  171.8660  142.9850 C   0  0  1  0  0  3  0  0  0  0  0  0
  191.3790  173.0940  143.6220 N   0  0  0  0  0  0  0  0  0  0  0  0
  194.5560  173.3200  144.6660 C   0  0  1  0  0  3  0  0  0  0  0  0
  193.2000  173.0520  145.1530 N   0  0  0  0  0  2  0  0  0  0  0  0
  190.6410  171.0960  142.4650 C   0  0  0  0  0  1  0  0  0  0  0  0
  194.8320  172.6370  143.3190 C   0  0  1  0  0  3  0  0  0  0  0  0
  192.7720  172.1710  141.8190 C   0  0  0  0  0  2  0  0  0  0  0  0
  191.4670  174.8830  145.2350 C   0  0  0  0  0  2  0  0  0  0  0  0
  189.8380  177.8720  144.8500 N   0  0  0  0  0  0  0  0  0  0  0  0
  192.0930  177.6860  144.1870 O   0  0  0  0  0  0  0  0  0  0  0  0
  189.2950  175.7060  144.5770 O   0  0  0  0  0  0  0  0  0  0  0  0
  190.6710  175.7070  144.2300 C   0  0  1  0  0  3  0  0  0  0  0  0
  190.9760  177.1490  144.4070 C   0  0  0  0  0  0  0  0  0  0  0  0
  188.8920  176.9930  144.9270 C   0  0  0  0  0  0  0  0  0  0  0  0
  187.5190  177.3300  145.3570 C   0  0  0  0  0  0  0  0  0  0  0  0
  187.6190  175.8010  147.2580 O   0  0  0  0  0  1  0  0  0  0  0  0
  186.7790  178.2680  144.6190 C   0  0  0  0  0  3  0  0  0  0  0  0
  185.6240  177.0740  146.8630 C   0  0  0  0  0  3  0  0  0  0  0  0
  185.4770  178.6050  144.9980 C   0  0  0  0  0  0  0  0  0  0  0  0
  186.9290  176.7320  146.4910 C   0  0  0  0  0  0  0  0  0  0  0  0
  184.9000  178.0080  146.1190 C   0  0  0  0  0  3  0  0  0  0  0  0
  184.7070  179.5990  144.2070 C   0  0  0  0  0  1  0  0  0  0  0  0
  194.8460  171.2430  143.4560 O   0  0  0  0  0  0  0  0  0  0  0  0
  196.7950  170.7150  145.3370 O   0  0  0  0  0  1  0  0  0  0  0  0
  196.6910  169.2300  143.0230 O   0  0  0  0  0  1  0  0  0  0  0  0
  196.4710  170.7730  143.6790 P   0  0  0  0  0  0  0  0  0  0  0  0
  197.4420  171.7310  143.0230 O   0  0  0  0  0  0  0  0  0  0  0  0
  194.9020  174.8270  144.6930 C   0  0  2  0  0  3  0  0  0  0  0  0
  196.1680  175.1610  143.8840 C   0  0  0  0  0  3  0  0  0  0  0  0
  197.3130  174.7270  144.5550 O   0  0  0  0  0  1  0  0  0  0  0  0
  196.2690  176.5390  143.6810 O   0  0  0  0  0  1  0  0  0  0  0  0
  195.0430  175.3190  146.1400 C   0  0  0  0  0  2  0  0  0  0  0  0
  194.3500  176.5180  146.3310 O   0  0  0  0  0  1  0  0  0  0  0  0
  1  6  1  0  0  0  0
  1 10  1  0  0  0  0
  2  8  1  0  0  0  0
  3  7  1  6  0  0  0
  3  4  1  0  0  0  0
  4  1  2  0  0  0  0
  5 30  1  6  0  0  0
  5  6  1  0  0  0  0
  8 25  1  1  0  0  0
  8  5  1  0  0  0  0
  9  2  1  0  0  0  0
  9  3  1  0  0  0  0
 11 16  2  0  0  0  0
 12 15  2  0  0  0  0
 13 16  1  0  0  0  0
 14 15  1  0  0  0  0
 14 13  1  0  0  0  0
 14 10  1  1  0  0  0
 15 11  1  0  0  0  0
 16 17  1  0  0  0  0
 17 22  1  0  0  0  0
 19 21  1  0  0  0  0
 19 17  2  0  0  0  0
 21 23  2  0  0  0  0
 22 20  2  0  0  0  0
 22 18  1  0  0  0  0
 23 20  1  0  0  0  0
 24 21  1  0  0  0  0
 25 28  1  0  0  0  0
 27 28  1  0  0  0  0
 28 26  1  0  0  0  0
 29 28  2  0  0  0  0
 30 34  1  1  0  0  0
 31 32  1  0  0  0  0
 31 30  1  0  0  0  0
 33 31  1  0  0  0  0
 34 35  1  0  0  0  0
M  END
>  <MODEL>
4

>  <REMARK>
 VINA RESULT:      -6.8      2.887      5.641
  Name = 
  8 active torsions:
  status: ('A' for Active; 'I' for Inactive)
    1  A    between atoms: C_2  and  C_23
    2  A    between atoms: C_4  and  C_18
    3  A    between atoms: P_10  and  O_27
    4  A    between atoms: C_16  and  C_18
    5  A    between atoms: C_19  and  C_33
    6  A    between atoms: C_20  and  C_33
    7  A    between atoms: C_25  and  C_33
    8  A    between atoms: O_27  and  C_30
                            x       y       z     vdW  Elec       q    Type
                         _______ _______ _______ _____ _____    ______ ____

>  <TORSDO>
F 8

$$$$
=
 OpenBabel11062420093D

 35 37  0  0  1  0  0  0  0  0999 V2000
  190.5380  175.9400  144.9290 C   0  0  0  0  0  0  0  0  0  0  0  0
  192.5470  173.5920  144.4890 C   0  0  0  0  0  2  0  0  0  0  0  0
  192.8420  175.8530  145.6540 C   0  0  1  0  0  3  0  0  0  0  0  0
  191.4050  175.8870  145.8930 N   0  0  0  0  0  0  0  0  0  0  0  0
  191.2060  174.8750  142.7050 C   0  0  1  0  0  3  0  0  0  0  0  0
  190.9580  176.0370  143.5620 N   0  0  0  0  0  2  0  0  0  0  0  0
  193.5590  176.5020  146.8200 C   0  0  0  0  0  1  0  0  0  0  0  0
  192.5180  174.1620  143.0640 C   0  0  1  0  0  3  0  0  0  0  0  0
  193.3380  174.4180  145.5070 C   0  0  0  0  0  2  0  0  0  0  0  0
  189.0860  176.0250  145.2520 C   0  0  0  0  0  2  0  0  0  0  0  0
  186.1890  177.8340  144.9850 N   0  0  0  0  0  0  0  0  0  0  0  0
  187.2640  177.6690  147.0760 O   0  0  0  0  0  0  0  0  0  0  0  0
  188.0230  177.5510  143.7130 O   0  0  0  0  0  0  0  0  0  0  0  0
  188.5560  177.4360  145.0230 C   0  0  1  0  0  3  0  0  0  0  0  0
  187.3210  177.6460  145.8190 C   0  0  0  0  0  0  0  0  0  0  0  0
  186.6490  177.7760  143.7770 C   0  0  0  0  0  0  0  0  0  0  0  0
  185.7900  177.9240  142.5840 C   0  0  0  0  0  0  0  0  0  0  0  0
  187.6870  177.7440  141.0570 O   0  0  0  0  0  1  0  0  0  0  0  0
  184.4060  178.0890  142.7510 C   0  0  0  0  0  3  0  0  0  0  0  0
  185.4780  178.0560  140.1740 C   0  0  0  0  0  3  0  0  0  0  0  0
  183.5670  178.2370  141.6430 C   0  0  0  0  0  0  0  0  0  0  0  0
  186.3240  177.9070  141.2780 C   0  0  0  0  0  0  0  0  0  0  0  0
  184.1030  178.2200  140.3560 C   0  0  0  0  0  3  0  0  0  0  0  0
  182.1040  178.4090  141.8370 C   0  0  0  0  0  1  0  0  0  0  0  0
  193.6250  174.9730  142.7770 O   0  0  0  0  0  0  0  0  0  0  0  0
  196.0580  174.0060  141.9070 O   0  0  0  0  0  1  0  0  0  0  0  0
  193.7330  172.7680  141.1130 O   0  0  0  0  0  1  0  0  0  0  0  0
  194.4470  174.2600  141.4630 P   0  0  0  0  0  0  0  0  0  0  0  0
  194.4110  175.1290  140.2230 O   0  0  0  0  0  0  0  0  0  0  0  0
  189.9800  173.9370  142.6190 C   0  0  2  0  0  3  0  0  0  0  0  0
  190.3420  172.5300  142.1070 C   0  0  0  0  0  3  0  0  0  0  0  0
  190.2550  172.4740  140.7140 O   0  0  0  0  0  1  0  0  0  0  0  0
  189.4750  171.5770  142.6450 O   0  0  0  0  0  1  0  0  0  0  0  0
  188.8860  174.5620  141.7430 C   0  0  0  0  0  2  0  0  0  0  0  0
  187.6420  174.5040  142.3780 O   0  0  0  0  0  1  0  0  0  0  0  0
  1 10  1  0  0  0  0
  1  4  2  0  0  0  0
  2  9  1  0  0  0  0
  3  4  1  0  0  0  0
  3  7  1  1  0  0  0
  5 30  1  1  0  0  0
  5  8  1  0  0  0  0
  5  6  1  0  0  0  0
  6  1  1  0  0  0  0
  8 25  1  1  0  0  0
  8  2  1  0  0  0  0
  9  3  1  0  0  0  0
 11 15  1  0  0  0  0
 13 16  1  0  0  0  0
 13 14  1  0  0  0  0
 14 10  1  6  0  0  0
 14 15  1  0  0  0  0
 15 12  2  0  0  0  0
 16 11  2  0  0  0  0
 17 19  1  0  0  0  0
 17 16  1  0  0  0  0
 18 22  1  0  0  0  0
 20 23  2  0  0  0  0
 20 22  1  0  0  0  0
 21 24  1  0  0  0  0
 21 19  2  0  0  0  0
 22 17  2  0  0  0  0
 23 21  1  0  0  0  0
 27 28  1  0  0  0  0
 28 26  1  0  0  0  0
 28 25  1  0  0  0  0
 29 28  2  0  0  0  0
 30 34  1  6  0  0  0
 31 30  1  0  0  0  0
 31 33  1  0  0  0  0
 32 31  1  0  0  0  0
 34 35  1  0  0  0  0
M  END
>  <MODEL>
5

>  <REMARK>
 VINA RESULT:      -6.8      1.730      2.209
  Name = 
  8 active torsions:
  status: ('A' for Active; 'I' for Inactive)
    1  A    between atoms: C_2  and  C_23
    2  A    between atoms: C_4  and  C_18
    3  A    between atoms: P_10  and  O_27
    4  A    between atoms: C_16  and  C_18
    5  A    between atoms: C_19  and  C_33
    6  A    between atoms: C_20  and  C_33
    7  A    between atoms: C_25  and  C_33
    8  A    between atoms: O_27  and  C_30
                            x       y       z     vdW  Elec       q    Type
                         _______ _______ _______ _____ _____    ______ ____

>  <TORSDO>
F 8

$$$$
=
 OpenBabel11062420093D

 35 37  0  0  1  0  0  0  0  0999 V2000
  192.4900  175.8420  143.4200 C   0  0  0  0  0  0  0  0  0  0  0  0
  193.6070  173.8430  145.5410 C   0  0  0  0  0  2  0  0  0  0  0  0
  194.1830  176.2960  145.0840 C   0  0  1  0  0  3  0  0  0  0  0  0
  192.8620  176.4690  144.4940 N   0  0  0  0  0  0  0  0  0  0  0  0
  193.5430  173.5560  142.9840 C   0  0  1  0  0  3  0  0  0  0  0  0
  193.3960  174.9880  142.7110 N   0  0  0  0  0  2  0  0  0  0  0  0
  194.5850  177.5730  145.7940 C   0  0  0  0  0  1  0  0  0  0  0  0
  194.3050  173.2910  144.2900 C   0  0  1  0  0  3  0  0  0  0  0  0
  194.1870  175.1500  146.0900 C   0  0  0  0  0  2  0  0  0  0  0  0
  191.1410  176.1090  142.8460 C   0  0  0  0  0  2  0  0  0  0  0  0
  187.7570  175.6000  143.0150 N   0  0  0  0  0  0  0  0  0  0  0  0
  189.1520  173.8700  142.2280 O   0  0  0  0  0  0  0  0  0  0  0  0
  189.2900  176.6180  144.3100 O   0  0  0  0  0  0  0  0  0  0  0  0
  190.0440  175.5550  143.7470 C   0  0  1  0  0  3  0  0  0  0  0  0
  188.9930  174.9080  142.9220 C   0  0  0  0  0  0  0  0  0  0  0  0
  187.9810  176.5760  143.8340 C   0  0  0  0  0  0  0  0  0  0  0  0
  186.9430  177.5570  144.2140 C   0  0  0  0  0  0  0  0  0  0  0  0
  187.0250  178.6550  142.0340 O   0  0  0  0  0  1  0  0  0  0  0  0
  186.3790  177.4980  145.4980 C   0  0  0  0  0  3  0  0  0  0  0  0
  185.5210  179.4690  143.7180 C   0  0  0  0  0  3  0  0  0  0  0  0
  185.3990  178.4130  145.8890 C   0  0  0  0  0  0  0  0  0  0  0  0
  186.5020  178.5550  143.3190 C   0  0  0  0  0  0  0  0  0  0  0  0
  184.9700  179.3980  144.9990 C   0  0  0  0  0  3  0  0  0  0  0  0
  184.8120  178.3370  147.2520 C   0  0  0  0  0  1  0  0  0  0  0  0
  195.6410  173.7020  144.1840 O   0  0  0  0  0  0  0  0  0  0  0  0
  195.6800  171.0530  144.9530 O   0  0  0  0  0  1  0  0  0  0  0  0
  197.9230  172.1830  143.8300 O   0  0  0  0  0  0  0  0  0  0  0  0
  196.6050  172.4640  144.8510 P   0  0  0  0  0  0  0  0  0  0  0  0
  197.1170  172.8140  146.2330 O   0  0  0  0  0  1  0  0  0  0  0  0
  192.2000  172.7970  142.8710 C   0  0  2  0  0  3  0  0  0  0  0  0
  191.9910  171.7860  144.0130 C   0  0  0  0  0  3  0  0  0  0  0  0
  192.1330  170.4770  143.5470 O   0  0  0  0  0  1  0  0  0  0  0  0
  190.7140  171.9240  144.5600 O   0  0  0  0  0  1  0  0  0  0  0  0
  192.0910  172.0990  141.5090 C   0  0  0  0  0  2  0  0  0  0  0  0
  191.9550  173.0320  140.4780 O   0  0  0  0  0  1  0  0  0  0  0  0
  1  4  2  0  0  0  0
  2  9  1  0  0  0  0
  3  7  1  1  0  0  0
  3  9  1  0  0  0  0
  4  3  1  0  0  0  0
  5 30  1  1  0  0  0
  5  8  1  0  0  0  0
  6  5  1  0  0  0  0
  6  1  1  0  0  0  0
  8 25  1  6  0  0  0
  8  2  1  0  0  0  0
 10  1  1  0  0  0  0
 11 16  2  0  0  0  0
 12 15  2  0  0  0  0
 14 10  1  6  0  0  0
 14 13  1  0  0  0  0
 15 11  1  0  0  0  0
 15 14  1  0  0  0  0
 16 17  1  0  0  0  0
 16 13  1  0  0  0  0
 17 19  1  0  0  0  0
 18 22  1  0  0  0  0
 19 21  2  0  0  0  0
 20 23  2  0  0  0  0
 21 24  1  0  0  0  0
 22 20  1  0  0  0  0
 22 17  2  0  0  0  0
 23 21  1  0  0  0  0
 25 28  1  0  0  0  0
 27 28  2  0  0  0  0
 28 26  1  0  0  0  0
 28 29  1  0  0  0  0
 30 34  1  6  0  0  0
 30 31  1  0  0  0  0
 31 33  1  0  0  0  0
 32 31  1  0  0  0  0
 35 34  1  0  0  0  0
M  END
>  <MODEL>
6

>  <REMARK>
 VINA RESULT:      -6.8      2.775      4.036
  Name = 
  8 active torsions:
  status: ('A' for Active; 'I' for Inactive)
    1  A    between atoms: C_2  and  C_23
    2  A    between atoms: C_4  and  C_18
    3  A    between atoms: P_10  and  O_27
    4  A    between atoms: C_16  and  C_18
    5  A    between atoms: C_19  and  C_33
    6  A    between atoms: C_20  and  C_33
    7  A    between atoms: C_25  and  C_33
    8  A    between atoms: O_27  and  C_30
                            x       y       z     vdW  Elec       q    Type
                         _______ _______ _______ _____ _____    ______ ____

>  <TORSDO>
F 8

$$$$
=
 OpenBabel11062420093D

 35 37  0  0  1  0  0  0  0  0999 V2000
  191.3240  173.5540  143.9160 C   0  0  0  0  0  0  0  0  0  0  0  0
  194.2510  174.2620  143.0950 C   0  0  0  0  0  2  0  0  0  0  0  0
  192.7600  172.2830  142.4460 C   0  0  1  0  0  3  0  0  0  0  0  0
  191.5910  173.1050  142.7280 N   0  0  0  0  0  0  0  0  0  0  0  0
  193.3050  173.9790  145.4730 C   0  0  1  0  0  3  0  0  0  0  0  0
  192.1400  173.2020  145.0410 N   0  0  0  0  0  2  0  0  0  0  0  0
  192.4530  171.3590  141.2860 C   0  0  0  0  0  1  0  0  0  0  0  0
  194.5050  173.7900  144.5340 C   0  0  1  0  0  3  0  0  0  0  0  0
  193.9630  173.1480  142.0840 C   0  0  0  0  0  2  0  0  0  0  0  0
  190.0810  174.3470  144.1380 C   0  0  0  0  0  2  0  0  0  0  0  0
  189.0890  177.4160  142.9850 N   0  0  0  0  0  0  0  0  0  0  0  0
  191.3730  176.8360  142.9200 O   0  0  0  0  0  0  0  0  0  0  0  0
  188.2720  175.3220  142.8710 O   0  0  0  0  0  0  0  0  0  0  0  0
  189.6730  175.0900  142.8720 C   0  0  1  0  0  3  0  0  0  0  0  0
  190.1620  176.4900  142.9290 C   0  0  0  0  0  0  0  0  0  0  0  0
  188.0180  176.6910  142.9420 C   0  0  0  0  0  0  0  0  0  0  0  0
  186.6580  177.2670  142.9780 C   0  0  0  0  0  0  0  0  0  0  0  0
  186.6330  177.3390  145.4190 O   0  0  0  0  0  1  0  0  0  0  0  0
  185.9880  177.5220  141.7720 C   0  0  0  0  0  3  0  0  0  0  0  0
  184.7220  178.1090  144.1900 C   0  0  0  0  0  3  0  0  0  0  0  0
  184.7000  178.0630  141.7730 C   0  0  0  0  0  0  0  0  0  0  0  0
  186.0120  177.5690  144.1970 C   0  0  0  0  0  0  0  0  0  0  0  0
  184.0680  178.3560  142.9810 C   0  0  0  0  0  3  0  0  0  0  0  0
  184.0040  178.3270  140.4870 C   0  0  0  0  0  1  0  0  0  0  0  0
  194.9930  172.4780  144.6000 O   0  0  0  0  0  0  0  0  0  0  0  0
  197.6880  172.6130  144.0230 O   0  0  0  0  0  0  0  0  0  0  0  0
  196.6880  173.9640  146.2010 O   0  0  0  0  0  1  0  0  0  0  0  0
  196.5570  172.5540  145.2780 P   0  0  0  0  0  0  0  0  0  0  0  0
  196.8630  171.3580  146.1550 O   0  0  0  0  0  1  0  0  0  0  0  0
  192.9520  175.4570  145.7570 C   0  0  2  0  0  3  0  0  0  0  0  0
  194.1990  176.3440  145.9280 C   0  0  0  0  0  3  0  0  0  0  0  0
  194.1250  177.0780  147.1140 O   0  0  0  0  0  1  0  0  0  0  0  0
  194.3120  177.2370  144.8610 O   0  0  0  0  0  1  0  0  0  0  0  0
  192.0440  175.5650  146.9890 C   0  0  0  0  0  2  0  0  0  0  0  0
  190.9700  176.4260  146.7460 O   0  0  0  0  0  1  0  0  0  0  0  0
  1 10  1  0  0  0  0
  1  6  1  0  0  0  0
  2  8  1  0  0  0  0
  3  7  1  6  0  0  0
  3  4  1  0  0  0  0
  4  1  2  0  0  0  0
  5 30  1  6  0  0  0
  6  5  1  0  0  0  0
  8 25  1  6  0  0  0
  8  5  1  0  0  0  0
  9  3  1  0  0  0  0
  9  2  1  0  0  0  0
 12 15  2  0  0  0  0
 13 14  1  0  0  0  0
 13 16  1  0  0  0  0
 14 15  1  0  0  0  0
 14 10  1  1  0  0  0
 15 11  1  0  0  0  0
 16 17  1  0  0  0  0
 16 11  2  0  0  0  0
 17 22  1  0  0  0  0
 19 21  1  0  0  0  0
 19 17  2  0  0  0  0
 20 22  2  0  0  0  0
 21 23  2  0  0  0  0
 22 18  1  0  0  0  0
 23 20  1  0  0  0  0
 24 21  1  0  0  0  0
 25 28  1  0  0  0  0
 26 28  2  0  0  0  0
 28 29  1  0  0  0  0
 28 27  1  0  0  0  0
 30 31  1  0  0  0  0
 30 34  1  1  0  0  0
 31 32  1  0  0  0  0
 33 31  1  0  0  0  0
 35 34  1  0  0  0  0
M  END
>  <MODEL>
7

>  <REMARK>
 VINA RESULT:      -6.7      2.349      4.731
  Name = 
  8 active torsions:
  status: ('A' for Active; 'I' for Inactive)
    1  A    between atoms: C_2  and  C_23
    2  A    between atoms: C_4  and  C_18
    3  A    between atoms: P_10  and  O_27
    4  A    between atoms: C_16  and  C_18
    5  A    between atoms: C_19  and  C_33
    6  A    between atoms: C_20  and  C_33
    7  A    between atoms: C_25  and  C_33
    8  A    between atoms: O_27  and  C_30
                            x       y       z     vdW  Elec       q    Type
                         _______ _______ _______ _____ _____    ______ ____

>  <TORSDO>
F 8

$$$$
=
 OpenBabel11062420093D

 35 37  0  0  1  0  0  0  0  0999 V2000
  190.8240  173.8360  144.0050 C   0  0  0  0  0  0  0  0  0  0  0  0
  191.6980  171.8950  141.7210 C   0  0  0  0  0  2  0  0  0  0  0  0
  192.9170  172.6390  143.8470 C   0  0  1  0  0  3  0  0  0  0  0  0
  191.6250  172.9200  144.4580 N   0  0  0  0  0  0  0  0  0  0  0  0
  190.9350  174.3450  141.5040 C   0  0  1  0  0  3  0  0  0  0  0  0
  191.2040  174.6740  142.9060 N   0  0  0  0  0  2  0  0  0  0  0  0
  193.8710  172.1280  144.9070 C   0  0  0  0  0  1  0  0  0  0  0  0
  191.8580  173.2330  140.9840 C   0  0  1  0  0  3  0  0  0  0  0  0
  192.7860  171.5840  142.7520 C   0  0  0  0  0  2  0  0  0  0  0  0
  189.5400  174.1030  144.7140 C   0  0  0  0  0  2  0  0  0  0  0  0
  187.8960  176.0480  147.0050 N   0  0  0  0  0  0  0  0  0  0  0  0
  189.7770  174.7980  147.6820 O   0  0  0  0  0  0  0  0  0  0  0  0
  188.4790  176.2680  144.8430 O   0  0  0  0  0  0  0  0  0  0  0  0
  189.5470  175.4860  145.3550 C   0  0  1  0  0  3  0  0  0  0  0  0
  189.1290  175.3840  146.7760 C   0  0  0  0  0  0  0  0  0  0  0  0
  187.5660  176.5460  145.8580 C   0  0  0  0  0  0  0  0  0  0  0  0
  186.3280  177.3270  145.6510 C   0  0  0  0  0  0  0  0  0  0  0  0
  186.1430  177.8720  148.0250 O   0  0  0  0  0  1  0  0  0  0  0  0
  185.8000  177.4470  144.3560 C   0  0  0  0  0  3  0  0  0  0  0  0
  184.4880  178.6830  146.4880 C   0  0  0  0  0  3  0  0  0  0  0  0
  184.6290  178.1750  144.1290 C   0  0  0  0  0  0  0  0  0  0  0  0
  185.6600  177.9570  146.7240 C   0  0  0  0  0  0  0  0  0  0  0  0
  183.9740  178.7920  145.1940 C   0  0  0  0  0  3  0  0  0  0  0  0
  184.0830  178.2920  142.7520 C   0  0  0  0  0  1  0  0  0  0  0  0
  193.1880  173.6700  140.9270 O   0  0  0  0  0  0  0  0  0  0  0  0
  194.8700  174.8110  139.0610 O   0  0  0  0  0  1  0  0  0  0  0  0
  194.2680  172.1320  138.9000 O   0  0  0  0  0  1  0  0  0  0  0  0
  193.6540  173.6590  139.2860 P   0  0  0  0  0  0  0  0  0  0  0  0
  192.5000  173.9770  138.3580 O   0  0  0  0  0  0  0  0  0  0  0  0
  189.4320  174.0960  141.2380 C   0  0  2  0  0  3  0  0  0  0  0  0
  189.1620  173.5490  139.8240 C   0  0  0  0  0  3  0  0  0  0  0  0
  188.3370  174.4200  139.1070 O   0  0  0  0  0  1  0  0  0  0  0  0
  188.5360  172.3030  139.8930 O   0  0  0  0  0  1  0  0  0  0  0  0
  188.6240  175.3770  141.4830 C   0  0  0  0  0  2  0  0  0  0  0  0
  187.4030  175.0880  142.1000 O   0  0  0  0  0  1  0  0  0  0  0  0
  1  4  2  0  0  0  0
  1 10  1  0  0  0  0
  2  9  1  0  0  0  0
  3  4  1  0  0  0  0
  3  7  1  1  0  0  0
  5 30  1  1  0  0  0
  5  6  1  0  0  0  0
  6  1  1  0  0  0  0
  8 25  1  1  0  0  0
  8  5  1  0  0  0  0
  8  2  1  0  0  0  0
  9  3  1  0  0  0  0
 13 14  1  0  0  0  0
 13 16  1  0  0  0  0
 14 10  1  6  0  0  0
 14 15  1  0  0  0  0
 15 11  1  0  0  0  0
 15 12  2  0  0  0  0
 16 11  2  0  0  0  0
 17 16  1  0  0  0  0
 17 22  1  0  0  0  0
 19 17  2  0  0  0  0
 20 22  2  0  0  0  0
 21 19  1  0  0  0  0
 21 23  2  0  0  0  0
 22 18  1  0  0  0  0
 23 20  1  0  0  0  0
 24 21  1  0  0  0  0
 26 28  1  0  0  0  0
 27 28  1  0  0  0  0
 28 25  1  0  0  0  0
 29 28  2  0  0  0  0
 30 34  1  6  0  0  0
 31 33  1  0  0  0  0
 31 30  1  0  0  0  0
 32 31  1  0  0  0  0
 34 35  1  0  0  0  0
M  END
>  <MODEL>
8

>  <REMARK>
 VINA RESULT:      -6.6      2.854      4.644
  Name = 
  8 active torsions:
  status: ('A' for Active; 'I' for Inactive)
    1  A    between atoms: C_2  and  C_23
    2  A    between atoms: C_4  and  C_18
    3  A    between atoms: P_10  and  O_27
    4  A    between atoms: C_16  and  C_18
    5  A    between atoms: C_19  and  C_33
    6  A    between atoms: C_20  and  C_33
    7  A    between atoms: C_25  and  C_33
    8  A    between atoms: O_27  and  C_30
                            x       y       z     vdW  Elec       q    Type
                         _______ _______ _______ _____ _____    ______ ____

>  <TORSDO>
F 8

$$$$
=
 OpenBabel11062420093D

 35 37  0  0  1  0  0  0  0  0999 V2000
  190.7680  174.0820  144.4430 C   0  0  0  0  0  0  0  0  0  0  0  0
  188.7650  172.7740  142.4370 C   0  0  0  0  0  2  0  0  0  0  0  0
  191.1250  172.0750  143.1440 C   0  0  1  0  0  3  0  0  0  0  0  0
  190.9350  172.7960  144.3960 N   0  0  0  0  0  0  0  0  0  0  0  0
  189.6660  175.1860  142.4190 C   0  0  1  0  0  3  0  0  0  0  0  0
  190.8310  174.8790  143.2540 N   0  0  0  0  0  2  0  0  0  0  0  0
  191.9720  170.8450  143.3990 C   0  0  0  0  0  1  0  0  0  0  0  0
  189.2130  173.9740  141.5910 C   0  0  1  0  0  3  0  0  0  0  0  0
  189.7870  171.6390  142.5550 C   0  0  0  0  0  2  0  0  0  0  0  0
  190.6310  174.7560  145.7650 C   0  0  0  0  0  2  0  0  0  0  0  0
  193.5600  176.4690  146.2400 N   0  0  0  0  0  0  0  0  0  0  0  0
  191.7430  176.8550  147.6910 O   0  0  0  0  0  0  0  0  0  0  0  0
  193.0110  174.3620  145.6700 O   0  0  0  0  0  0  0  0  0  0  0  0
  191.9440  174.7170  146.5370 C   0  0  1  0  0  3  0  0  0  0  0  0
  192.3580  176.0970  146.8970 C   0  0  0  0  0  0  0  0  0  0  0  0
  193.8980  175.4290  145.5480 C   0  0  0  0  0  0  0  0  0  0  0  0
  195.1090  175.3910  144.7010 C   0  0  0  0  0  0  0  0  0  0  0  0
  196.3270  174.0170  146.3120 O   0  0  0  0  0  1  0  0  0  0  0  0
  195.1070  176.0600  143.4680 C   0  0  0  0  0  3  0  0  0  0  0  0
  197.4010  174.6910  144.2750 C   0  0  0  0  0  3  0  0  0  0  0  0
  196.2370  176.0460  142.6470 C   0  0  0  0  0  0  0  0  0  0  0  0
  196.2730  174.6990  145.1020 C   0  0  0  0  0  0  0  0  0  0  0  0
  197.3830  175.3620  143.0510 C   0  0  0  0  0  3  0  0  0  0  0  0
  196.2180  176.7590  141.3430 C   0  0  0  0  0  1  0  0  0  0  0  0
  190.1750  173.6360  140.6300 O   0  0  0  0  0  0  0  0  0  0  0  0
  190.4950  173.9600  137.9080 O   0  0  0  0  0  0  0  0  0  0  0  0
  188.8110  172.0050  138.8630 O   0  0  0  0  0  1  0  0  0  0  0  0
  189.3820  173.5750  139.1210 P   0  0  0  0  0  0  0  0  0  0  0  0
  188.2190  174.5420  139.0420 O   0  0  0  0  0  1  0  0  0  0  0  0
  188.5310  175.8620  143.2230 C   0  0  2  0  0  3  0  0  0  0  0  0
  187.1870  175.8580  142.4710 C   0  0  0  0  0  3  0  0  0  0  0  0
  187.1780  176.8310  141.4690 O   0  0  0  0  0  1  0  0  0  0  0  0
  186.1350  176.1180  143.3510 O   0  0  0  0  0  1  0  0  0  0  0  0
  188.9260  177.2930  143.6090 C   0  0  0  0  0  2  0  0  0  0  0  0
  188.6560  177.5400  144.9590 O   0  0  0  0  0  1  0  0  0  0  0  0
  1 10  1  0  0  0  0
  2  9  1  0  0  0  0
  3  7  1  1  0  0  0
  3  4  1  0  0  0  0
  4  1  2  0  0  0  0
  5 30  1  1  0  0  0
  5  6  1  0  0  0  0
  6  1  1  0  0  0  0
  8 25  1  6  0  0  0
  8  5  1  0  0  0  0
  8  2  1  0  0  0  0
  9  3  1  0  0  0  0
 11 15  1  0  0  0  0
 13 14  1  0  0  0  0
 14 10  1  6  0  0  0
 14 15  1  0  0  0  0
 15 12  2  0  0  0  0
 16 13  1  0  0  0  0
 16 11  2  0  0  0  0
 17 22  1  0  0  0  0
 17 16  1  0  0  0  0
 19 17  2  0  0  0  0
 20 22  2  0  0  0  0
 21 23  2  0  0  0  0
 21 19  1  0  0  0  0
 22 18  1  0  0  0  0
 23 20  1  0  0  0  0
 24 21  1  0  0  0  0
 26 28  2  0  0  0  0
 27 28  1  0  0  0  0
 28 25  1  0  0  0  0
 29 28  1  0  0  0  0
 30 34  1  6  0  0  0
 31 30  1  0  0  0  0
 31 33  1  0  0  0  0
 32 31  1  0  0  0  0
 34 35  1  0  0  0  0
M  END
>  <MODEL>
9

>  <REMARK>
 VINA RESULT:      -6.5      3.393      8.172
  Name = 
  8 active torsions:
  status: ('A' for Active; 'I' for Inactive)
    1  A    between atoms: C_2  and  C_23
    2  A    between atoms: C_4  and  C_18
    3  A    between atoms: P_10  and  O_27
    4  A    between atoms: C_16  and  C_18
    5  A    between atoms: C_19  and  C_33
    6  A    between atoms: C_20  and  C_33
    7  A    between atoms: C_25  and  C_33
    8  A    between atoms: O_27  and  C_30
                            x       y       z     vdW  Elec       q    Type
                         _______ _______ _______ _____ _____    ______ ____

>  <TORSDO>
F 8

$$$$
