=
 OpenBabel11062420403D

 60 65  0  0  1  0  0  0  0  0999 V2000
  194.4920  176.7920  146.1360 C   0  0  0  0  0  2  0  0  0  0  0  0
  192.2730  177.4740  144.2470 O   0  0  0  0  0  0  0  0  0  0  0  0
  193.4530  176.7210  143.9900 C   0  0  0  0  0  2  0  0  0  0  0  0
  193.3760  176.1130  145.3450 C   0  0  1  0  0  0  0  0  0  0  0  0
  194.3060  175.3160  146.2650 C   0  0  1  0  0  3  0  0  0  0  0  0
  192.1650  176.9460  145.5670 C   0  0  2  0  0  3  0  0  0  0  0  0
  196.4420  174.2460  146.2180 O   0  0  0  0  0  1  0  0  0  0  0  0
  195.3390  174.5690  145.4250 C   0  0  1  0  0  3  0  0  0  0  0  0
  193.9610  169.9410  141.7000 C   0  0  1  0  0  3  0  0  0  0  0  0
  196.3590  172.5470  142.6370 C   0  0  2  0  0  3  0  0  0  0  0  0
  195.1080  169.2200  142.4270 C   0  0  0  0  0  2  0  0  0  0  0  0
  194.7320  173.3290  144.8390 C   0  0  0  0  0  0  0  0  0  0  0  0
  195.3260  172.6720  143.7200 N   0  0  0  0  0  0  0  0  0  0  0  0
  196.0840  173.5890  141.5640 C   0  0  0  0  0  1  0  0  0  0  0  0
  193.6970  172.8370  145.3620 O   0  0  0  0  0  0  0  0  0  0  0  0
  194.1790  171.4500  141.8480 C   0  0  0  0  0  2  0  0  0  0  0  0
  195.7810  170.2270  143.3460 C   0  0  2  0  0  3  0  0  0  0  0  0
  195.2420  170.1010  144.6150 F   0  0  0  0  0  0  0  0  0  0  0  0
  195.3980  171.5520  142.7390 C   0  0  1  0  0  0  0  0  0  0  0  0
  193.7960  169.4450  140.2350 C   0  0  1  0  0  0  0  0  0  0  0  0
  192.4040  168.8190  140.0130 C   0  0  0  0  0  2  0  0  0  0  0  0
  191.9660  168.1740  141.1700 O   0  0  0  0  0  1  0  0  0  0  0  0
  194.0500  170.4780  139.2890 O   0  0  0  0  0  0  0  0  0  0  0  0
  193.0230  170.5430  138.3270 C   0  0  0  0  0  2  0  0  0  0  0  0
  193.6180  170.6050  136.9300 C   0  0  0  0  0  2  0  0  0  0  0  0
  193.6220  172.9340  136.9290 C   0  0  0  0  0  1  0  0  0  0  0  0
  193.7270  171.7760  135.0010 O   0  0  0  0  0  1  0  0  0  0  0  0
  193.1280  171.7720  136.2130 N   0  0  0  0  0  0  0  0  0  0  0  0
  195.0930  168.1690  139.9440 S   0  0  0  0  0  0  0  0  0  0  0  0
  196.7260  168.6380  137.9140 C   0  0  0  0  0  0  0  0  0  0  0  0
  196.3410  169.2090  139.1070 C   0  0  2  0  0  3  0  0  0  0  0  0
  196.5370  168.3640  136.6970 O   0  0  0  0  0  0  0  0  0  0  0  0
  197.5540  168.5790  139.1600 O   0  0  0  0  0  0  0  0  0  0  0  0
  190.8900  176.1010  145.7540 C   0  0  1  0  0  3  0  0  0  0  0  0
  191.1560  176.7380  148.1520 O   0  0  0  0  0  1  0  0  0  0  0  0
  190.1230  174.7690  147.6070 O   0  0  0  0  0  0  0  0  0  0  0  0
  190.6810  175.8280  147.2190 C   0  0  0  0  0  0  0  0  0  0  0  0
  189.7170  176.6710  145.0470 N   0  0  0  0  0  0  0  0  0  0  0  0
  188.5530  176.8840  145.9190 C   0  0  0  0  0  2  0  0  0  0  0  0
  187.5580  177.5900  145.2340 O   0  0  0  0  0  0  0  0  0  0  0  0
  186.4960  177.6820  146.1350 C   0  0  0  0  0  2  0  0  0  0  0  0
  185.7020  178.9470  145.8700 C   0  0  0  0  0  2  0  0  0  0  0  0
  184.3370  178.6630  145.8760 O   0  0  0  0  0  1  0  0  0  0  0  0
  189.3620  175.7450  143.9580 C   0  0  1  0  0  3  0  0  0  0  0  0
  188.8600  176.3800  142.6690 C   0  0  0  0  0  0  0  0  0  0  0  0
  189.3810  177.4120  142.2680 O   0  0  0  0  0  0  0  0  0  0  0  0
  187.6990  175.7990  141.9160 C   0  0  1  0  0  3  0  0  0  0  0  0
  186.6000  176.8450  141.7540 C   0  0  0  0  0  1  0  0  0  0  0  0
  188.1370  175.2740  140.5560 C   0  0  0  0  0  2  0  0  0  0  0  0
  188.4140  173.8500  140.6500 N   0  0  0  0  0  2  0  0  0  0  0  0
  189.5700  173.5630  139.8130 C   0  0  0  0  0  2  0  0  0  0  0  0
  189.5140  172.6480  137.4480 C   0  0  1  0  0  0  0  0  0  0  0  0
  189.2780  172.3790  138.8940 C   0  0  2  0  0  3  0  0  0  0  0  0
  189.6940  171.4250  136.5690 C   0  0  0  0  0  1  0  0  0  0  0  0
  188.2280  172.7150  138.0080 O   0  0  0  0  0  0  0  0  0  0  0  0
  189.9950  173.9920  136.9780 C   0  0  0  0  0  3  0  0  0  0  0  0
  189.3450  174.6680  136.0320 C   0  0  0  0  0  2  0  0  0  0  0  0
  190.5580  174.3630  143.7830 S   0  0  0  0  0  0  0  0  0  0  0  0
  189.8210  171.8150  143.1670 C   0  0  0  0  0  1  0  0  0  0  0  0
  189.3300  173.0310  143.9210 C   0  0  0  0  0  2  0  0  0  0  0  0
  1  5  1  0  0  0  0
  2  6  1  0  0  0  0
  3  2  1  0  0  0  0
  4  3  1  6  0  0  0
  4  6  1  0  0  0  0
  4  1  1  0  0  0  0
  4  5  1  0  0  0  0
  5  8  1  6  0  0  0
  6 34  1  6  0  0  0
  8  7  1  1  0  0  0
  9 20  1  6  0  0  0
  9 16  1  0  0  0  0
  9 11  1  0  0  0  0
 10 14  1  6  0  0  0
 10 19  1  0  0  0  0
 10 13  1  0  0  0  0
 11 17  1  0  0  0  0
 12 15  2  0  0  0  0
 12  8  1  0  0  0  0
 13 12  1  0  0  0  0
 17 18  1  1  0  0  0
 19 16  1  6  0  0  0
 19 17  1  0  0  0  0
 19 13  1  0  0  0  0
 20 21  1  6  0  0  0
 21 22  1  0  0  0  0
 23 20  1  0  0  0  0
 24 23  1  0  0  0  0
 25 24  1  0  0  0  0
 27 28  1  0  0  0  0
 28 26  1  0  0  0  0
 28 25  1  0  0  0  0
 29 20  1  0  0  0  0
 30 31  1  0  0  0  0
 30 33  1  0  0  0  0
 31 33  1  0  0  0  0
 31 29  1  1  0  0  0
 32 30  2  0  0  0  0
 34 37  1  1  0  0  0
 37 36  2  0  0  0  0
 37 35  1  0  0  0  0
 38 34  1  0  0  0  0
 38 39  1  0  0  0  0
 40 39  1  0  0  0  0
 40 41  1  0  0  0  0
 42 43  1  0  0  0  0
 42 41  1  0  0  0  0
 44 45  1  6  0  0  0
 44 38  1  0  0  0  0
 46 45  2  0  0  0  0
 47 48  1  6  0  0  0
 47 45  1  0  0  0  0
 49 50  1  0  0  0  0
 49 47  1  0  0  0  0
 51 50  1  0  0  0  0
 52 54  1  6  0  0  0
 52 55  1  0  0  0  0
 52 53  1  0  0  0  0
 53 51  1  1  0  0  0
 55 53  1  0  0  0  0
 56 52  1  0  0  0  0
 57 56  2  0  0  0  0
 58 60  1  0  0  0  0
 58 44  1  0  0  0  0
 59 60  1  0  0  0  0
M  END
>  <MODEL>
1

>  <REMARK>
 VINA RESULT:      -4.6      0.000      0.000
  Name = 
  27 active torsions:
  status: ('A' for Active; 'I' for Inactive)
    1  A    between atoms: C_1  and  C_18
    2  A    between atoms: C_1  and  N_19
    3  A    between atoms: C_1  and  C_55
    4  A    between atoms: C_2  and  O_41
    5  A    between atoms: C_2  and  C_50
    6  A    between atoms: C_4  and  C_20
    7  A    between atoms: C_6  and  C_20
    8  A    between atoms: C_7  and  C_12
    9  A    between atoms: C_7  and  C_16
   10  A    between atoms: C_8  and  C_17
   11  A    between atoms: S_10  and  C_20
   12  A    between atoms: S_10  and  C_23
   13  A    between atoms: C_12  and  N_19
   14  A    between atoms: C_12  and  S_24
   15  A    between atoms: C_14  and  C_26
   16  A    between atoms: C_14  and  N_57
   17  A    between atoms: C_16  and  C_52
   18  A    between atoms: N_19  and  C_21
   19  A    between atoms: C_20  and  O_29
   20  A    between atoms: C_21  and  O_41
   21  A    between atoms: S_24  and  C_54
   22  A    between atoms: O_29  and  C_39
   23  A    between atoms: C_30  and  C_46
   24  A    between atoms: C_39  and  C_40
   25  A    between atoms: C_40  and  N_48
   26  A    between atoms: C_46  and  C_47
   27  A    between atoms: C_52  and  N_57
                            x       y       z     vdW  Elec       q    Type
                         _______ _______ _______ _____ _____    ______ ____

>  <TORSDO>
F 27

$$$$
=
 OpenBabel11062420403D

 60 65  0  0  1  0  0  0  0  0999 V2000
  190.8730  172.8800  144.8140 C   0  0  0  0  0  2  0  0  0  0  0  0
  193.4370  171.3500  144.6100 O   0  0  0  0  0  0  0  0  0  0  0  0
  192.2110  171.1180  143.9230 C   0  0  0  0  0  2  0  0  0  0  0  0
  191.9840  172.5830  143.8090 C   0  0  1  0  0  0  0  0  0  0  0  0
  190.8130  173.5070  143.4600 C   0  0  1  0  0  3  0  0  0  0  0  0
  193.2570  172.7630  144.5560 C   0  0  2  0  0  3  0  0  0  0  0  0
  189.4020  171.5950  143.2100 O   0  0  0  0  0  1  0  0  0  0  0  0
  189.8230  172.7610  142.5670 C   0  0  1  0  0  3  0  0  0  0  0  0
  185.6960  177.2510  142.6490 C   0  0  1  0  0  3  0  0  0  0  0  0
  189.0420  176.1080  143.6100 C   0  0  2  0  0  3  0  0  0  0  0  0
  186.6760  177.9560  141.6960 C   0  0  0  0  0  2  0  0  0  0  0  0
  188.6490  173.6390  142.2490 C   0  0  0  0  0  0  0  0  0  0  0  0
  188.5520  174.9630  142.7710 N   0  0  0  0  0  0  0  0  0  0  0  0
  188.8220  175.7790  145.0790 C   0  0  0  0  0  1  0  0  0  0  0  0
  187.7450  173.2130  141.4810 O   0  0  0  0  0  0  0  0  0  0  0  0
  186.4840  176.2150  143.4570 C   0  0  0  0  0  2  0  0  0  0  0  0
  187.9340  177.1080  141.6120 C   0  0  2  0  0  3  0  0  0  0  0  0
  187.8450  176.2890  140.5000 F   0  0  0  0  0  0  0  0  0  0  0  0
  187.8790  176.2890  142.8760 C   0  0  1  0  0  0  0  0  0  0  0  0
  184.8820  178.2640  143.5040 C   0  0  1  0  0  0  0  0  0  0  0  0
  185.6140  179.6180  143.6080 C   0  0  0  0  0  2  0  0  0  0  0  0
  184.7870  180.5800  144.1890 O   0  0  0  0  0  1  0  0  0  0  0  0
  183.5570  178.4340  143.0150 O   0  0  0  0  0  0  0  0  0  0  0  0
  183.5430  178.4750  141.6060 C   0  0  0  0  0  2  0  0  0  0  0  0
  182.1930  178.0140  141.0830 C   0  0  0  0  0  2  0  0  0  0  0  0
  180.6200  179.6440  140.5450 C   0  0  0  0  0  1  0  0  0  0  0  0
  180.1220  177.9880  141.9850 O   0  0  0  0  0  1  0  0  0  0  0  0
  181.1210  178.8280  141.6350 N   0  0  0  0  0  0  0  0  0  0  0  0
  184.7060  177.5350  145.1870 S   0  0  0  0  0  0  0  0  0  0  0  0
  186.4090  177.7070  147.2070 C   0  0  0  0  0  0  0  0  0  0  0  0
  186.1610  178.2990  145.9890 C   0  0  2  0  0  3  0  0  0  0  0  0
  186.8530  176.7650  147.9200 O   0  0  0  0  0  0  0  0  0  0  0  0
  185.7420  179.0400  147.0590 O   0  0  0  0  0  0  0  0  0  0  0  0
  194.3450  173.4560  143.7140 C   0  0  1  0  0  3  0  0  0  0  0  0
  194.8830  174.8740  145.6970 O   0  0  0  0  0  1  0  0  0  0  0  0
  194.7280  175.8320  143.6230 O   0  0  0  0  0  0  0  0  0  0  0  0
  194.6780  174.7900  144.3270 C   0  0  0  0  0  0  0  0  0  0  0  0
  195.5110  172.5780  143.4500 N   0  0  0  0  0  0  0  0  0  0  0  0
  196.7410  173.0150  144.1260 C   0  0  0  0  0  2  0  0  0  0  0  0
  196.9150  172.3060  145.3190 O   0  0  0  0  0  0  0  0  0  0  0  0
  197.5550  171.1230  144.9450 C   0  0  0  0  0  2  0  0  0  0  0  0
  196.7280  169.9280  145.3800 C   0  0  0  0  0  2  0  0  0  0  0  0
  196.8140  169.7660  146.7610 O   0  0  0  0  0  1  0  0  0  0  0  0
  195.7250  172.5520  141.9930 C   0  0  1  0  0  3  0  0  0  0  0  0
  196.3720  171.2950  141.4290 C   0  0  0  0  0  0  0  0  0  0  0  0
  197.5930  171.2150  141.3920 O   0  0  0  0  0  0  0  0  0  0  0  0
  195.5440  170.1810  140.8590 C   0  0  1  0  0  3  0  0  0  0  0  0
  196.2700  169.5310  139.6860 C   0  0  0  0  0  1  0  0  0  0  0  0
  195.2190  169.1420  141.9230 C   0  0  0  0  0  2  0  0  0  0  0  0
  193.8390  168.7080  141.7740 N   0  0  0  0  0  2  0  0  0  0  0  0
  193.2080  169.5580  140.7740 C   0  0  0  0  0  2  0  0  0  0  0  0
  191.2110  169.6870  139.2160 C   0  0  1  0  0  0  0  0  0  0  0  0
  191.8840  168.9480  140.3190 C   0  0  2  0  0  3  0  0  0  0  0  0
  190.1780  168.9030  138.4280 C   0  0  0  0  0  1  0  0  0  0  0  0
  190.8330  169.8640  140.5570 O   0  0  0  0  0  0  0  0  0  0  0  0
  191.8190  170.9310  138.6330 C   0  0  0  0  0  3  0  0  0  0  0  0
  191.4630  171.3770  137.4290 C   0  0  0  0  0  2  0  0  0  0  0  0
  194.3040  173.2380  141.0530 S   0  0  0  0  0  0  0  0  0  0  0  0
  195.5120  175.5640  140.3150 C   0  0  0  0  0  1  0  0  0  0  0  0
  195.3030  174.1440  139.8360 C   0  0  0  0  0  2  0  0  0  0  0  0
  3  2  1  0  0  0  0
  4  3  1  6  0  0  0
  4  6  1  0  0  0  0
  4  1  1  0  0  0  0
  5  8  1  6  0  0  0
  5  4  1  0  0  0  0
  5  1  1  0  0  0  0
  6 34  1  6  0  0  0
  6  2  1  0  0  0  0
  8  7  1  1  0  0  0
  9 16  1  0  0  0  0
  9 20  1  1  0  0  0
 10 14  1  1  0  0  0
 11  9  1  0  0  0  0
 12  8  1  0  0  0  0
 12 13  1  0  0  0  0
 13 19  1  0  0  0  0
 13 10  1  0  0  0  0
 15 12  2  0  0  0  0
 17 18  1  6  0  0  0
 17 11  1  0  0  0  0
 17 19  1  0  0  0  0
 19 16  1  1  0  0  0
 19 10  1  0  0  0  0
 20 21  1  1  0  0  0
 20 29  1  0  0  0  0
 21 22  1  0  0  0  0
 23 20  1  0  0  0  0
 24 23  1  0  0  0  0
 25 24  1  0  0  0  0
 25 28  1  0  0  0  0
 26 28  1  0  0  0  0
 28 27  1  0  0  0  0
 30 32  2  0  0  0  0
 31 29  1  6  0  0  0
 31 33  1  0  0  0  0
 31 30  1  0  0  0  0
 33 30  1  0  0  0  0
 34 37  1  1  0  0  0
 36 37  2  0  0  0  0
 37 35  1  0  0  0  0
 38 34  1  0  0  0  0
 38 39  1  0  0  0  0
 39 40  1  0  0  0  0
 41 40  1  0  0  0  0
 41 42  1  0  0  0  0
 42 43  1  0  0  0  0
 44 58  1  6  0  0  0
 44 38  1  0  0  0  0
 45 44  1  0  0  0  0
 46 45  2  0  0  0  0
 47 48  1  6  0  0  0
 47 45  1  0  0  0  0
 47 49  1  0  0  0  0
 50 49  1  0  0  0  0
 51 50  1  0  0  0  0
 52 54  1  6  0  0  0
 52 53  1  0  0  0  0
 52 55  1  0  0  0  0
 53 55  1  0  0  0  0
 53 51  1  1  0  0  0
 56 52  1  0  0  0  0
 57 56  2  0  0  0  0
 60 59  1  0  0  0  0
 60 58  1  0  0  0  0
M  END
>  <MODEL>
2

>  <REMARK>
 VINA RESULT:      -4.5      3.211     10.201
  Name = 
  27 active torsions:
  status: ('A' for Active; 'I' for Inactive)
    1  A    between atoms: C_1  and  C_18
    2  A    between atoms: C_1  and  N_19
    3  A    between atoms: C_1  and  C_55
    4  A    between atoms: C_2  and  O_41
    5  A    between atoms: C_2  and  C_50
    6  A    between atoms: C_4  and  C_20
    7  A    between atoms: C_6  and  C_20
    8  A    between atoms: C_7  and  C_12
    9  A    between atoms: C_7  and  C_16
   10  A    between atoms: C_8  and  C_17
   11  A    between atoms: S_10  and  C_20
   12  A    between atoms: S_10  and  C_23
   13  A    between atoms: C_12  and  N_19
   14  A    between atoms: C_12  and  S_24
   15  A    between atoms: C_14  and  C_26
   16  A    between atoms: C_14  and  N_57
   17  A    between atoms: C_16  and  C_52
   18  A    between atoms: N_19  and  C_21
   19  A    between atoms: C_20  and  O_29
   20  A    between atoms: C_21  and  O_41
   21  A    between atoms: S_24  and  C_54
   22  A    between atoms: O_29  and  C_39
   23  A    between atoms: C_30  and  C_46
   24  A    between atoms: C_39  and  C_40
   25  A    between atoms: C_40  and  N_48
   26  A    between atoms: C_46  and  C_47
   27  A    between atoms: C_52  and  N_57
                            x       y       z     vdW  Elec       q    Type
                         _______ _______ _______ _____ _____    ______ ____

>  <TORSDO>
F 27

$$$$
=
 OpenBabel11062420403D

 60 65  0  0  1  0  0  0  0  0999 V2000
  195.6350  176.7390  144.8300 C   0  0  0  0  0  2  0  0  0  0  0  0
  196.8830  174.0960  144.1870 O   0  0  0  0  0  0  0  0  0  0  0  0
  196.1230  174.4590  145.3350 C   0  0  0  0  0  2  0  0  0  0  0  0
  195.2350  175.3040  144.4930 C   0  0  1  0  0  0  0  0  0  0  0  0
  194.1850  176.3960  144.7250 C   0  0  1  0  0  3  0  0  0  0  0  0
  196.0830  174.9130  143.3370 C   0  0  2  0  0  3  0  0  0  0  0  0
  194.3270  176.9420  147.0470 O   0  0  0  0  0  1  0  0  0  0  0  0
  193.5730  176.2280  146.1140 C   0  0  1  0  0  3  0  0  0  0  0  0
  187.8320  177.4760  144.4760 C   0  0  1  0  0  3  0  0  0  0  0  0
  190.8370  175.4570  143.9170 C   0  0  2  0  0  3  0  0  0  0  0  0
  187.5280  176.0900  145.0680 C   0  0  0  0  0  2  0  0  0  0  0  0
  192.1500  176.7040  146.1140 C   0  0  0  0  0  0  0  0  0  0  0  0
  191.2160  176.2460  145.1370 N   0  0  0  0  0  0  0  0  0  0  0  0
  191.4150  176.1380  142.6850 C   0  0  0  0  0  1  0  0  0  0  0  0
  191.7610  177.4990  147.0110 O   0  0  0  0  0  0  0  0  0  0  0  0
  189.3140  177.5140  144.0930 C   0  0  0  0  0  2  0  0  0  0  0  0
  188.8530  175.4370  145.4270 C   0  0  2  0  0  3  0  0  0  0  0  0
  189.1120  175.6670  146.7670 F   0  0  0  0  0  0  0  0  0  0  0  0
  189.8430  176.1760  144.5640 C   0  0  1  0  0  0  0  0  0  0  0  0
  186.8510  177.8490  143.3280 C   0  0  1  0  0  0  0  0  0  0  0  0
  185.7500  176.7810  143.1690 C   0  0  0  0  0  2  0  0  0  0  0  0
  186.3100  175.5390  142.8660 O   0  0  0  0  0  1  0  0  0  0  0  0
  186.2880  179.1440  143.5050 O   0  0  0  0  0  0  0  0  0  0  0  0
  185.1000  179.0770  144.2610 C   0  0  0  0  0  2  0  0  0  0  0  0
  185.3950  179.3630  145.7230 C   0  0  0  0  0  2  0  0  0  0  0  0
  185.6930  178.4450  147.8430 C   0  0  0  0  0  1  0  0  0  0  0  0
  183.7460  178.2020  146.7410 O   0  0  0  0  0  1  0  0  0  0  0  0
  185.0840  178.2060  146.5470 N   0  0  0  0  0  0  0  0  0  0  0  0
  187.8410  177.9400  141.7760 S   0  0  0  0  0  0  0  0  0  0  0  0
  187.1930  176.4390  139.6940 C   0  0  0  0  0  0  0  0  0  0  0  0
  186.6010  177.2900  140.6020 C   0  0  2  0  0  3  0  0  0  0  0  0
  187.6850  175.3240  139.3670 O   0  0  0  0  0  0  0  0  0  0  0  0
  186.8130  177.8520  139.3730 O   0  0  0  0  0  0  0  0  0  0  0  0
  195.3130  174.0850  142.2900 C   0  0  1  0  0  3  0  0  0  0  0  0
  196.0670  175.7470  140.5880 O   0  0  0  0  0  1  0  0  0  0  0  0
  193.9230  174.9450  140.5210 O   0  0  0  0  0  0  0  0  0  0  0  0
  195.0550  174.9330  141.0730 C   0  0  0  0  0  0  0  0  0  0  0  0
  195.9490  172.7730  142.0180 N   0  0  0  0  0  0  0  0  0  0  0  0
  195.9000  172.3790  140.6030 C   0  0  0  0  0  2  0  0  0  0  0  0
  197.1960  172.2260  140.0980 O   0  0  0  0  0  0  0  0  0  0  0  0
  197.0530  172.2970  138.7110 C   0  0  0  0  0  2  0  0  0  0  0  0
  195.6530  171.8670  138.3130 C   0  0  0  0  0  2  0  0  0  0  0  0
  195.7190  170.7980  137.4210 O   0  0  0  0  0  1  0  0  0  0  0  0
  195.2580  171.7660  142.8410 C   0  0  1  0  0  3  0  0  0  0  0  0
  193.7560  171.9450  143.0060 C   0  0  0  0  0  0  0  0  0  0  0  0
  193.3190  172.4030  144.0530 O   0  0  0  0  0  0  0  0  0  0  0  0
  192.7980  171.5120  141.9350 C   0  0  1  0  0  3  0  0  0  0  0  0
  192.1520  170.1820  142.3120 C   0  0  0  0  0  1  0  0  0  0  0  0
  191.7310  172.5710  141.6950 C   0  0  0  0  0  2  0  0  0  0  0  0
  190.8360  172.1290  140.6370 N   0  0  0  0  0  2  0  0  0  0  0  0
  190.8010  173.1690  139.6190 C   0  0  0  0  0  2  0  0  0  0  0  0
  191.2470  173.2010  137.1220 C   0  0  1  0  0  0  0  0  0  0  0  0
  191.7460  172.8180  138.4710 C   0  0  2  0  0  3  0  0  0  0  0  0
  192.2980  173.3100  136.0340 C   0  0  0  0  0  1  0  0  0  0  0  0
  191.1190  171.8900  137.6080 O   0  0  0  0  0  0  0  0  0  0  0  0
  189.9120  173.8710  136.9510 C   0  0  0  0  0  3  0  0  0  0  0  0
  189.6800  174.7020  135.9360 C   0  0  0  0  0  2  0  0  0  0  0  0
  195.8530  170.0580  142.5230 S   0  0  0  0  0  0  0  0  0  0  0  0
  196.5550  170.6760  145.0810 C   0  0  0  0  0  1  0  0  0  0  0  0
  195.9370  169.5590  144.2680 C   0  0  0  0  0  2  0  0  0  0  0  0
  2  3  1  0  0  0  0
  4  5  1  0  0  0  0
  4  1  1  1  0  0  0
  4  3  1  0  0  0  0
  5  1  1  0  0  0  0
  5  8  1  1  0  0  0
  6 34  1  6  0  0  0
  6  2  1  0  0  0  0
  6  4  1  0  0  0  0
  8  7  1  1  0  0  0
  9 20  1  6  0  0  0
  9 11  1  0  0  0  0
 10 14  1  6  0  0  0
 10 19  1  0  0  0  0
 10 13  1  0  0  0  0
 11 17  1  0  0  0  0
 12  8  1  0  0  0  0
 12 15  2  0  0  0  0
 13 12  1  0  0  0  0
 16  9  1  0  0  0  0
 17 18  1  1  0  0  0
 19 16  1  6  0  0  0
 19 13  1  0  0  0  0
 19 17  1  0  0  0  0
 20 21  1  6  0  0  0
 20 23  1  0  0  0  0
 22 21  1  0  0  0  0
 23 24  1  0  0  0  0
 24 25  1  0  0  0  0
 25 28  1  0  0  0  0
 28 27  1  0  0  0  0
 28 26  1  0  0  0  0
 29 20  1  0  0  0  0
 30 31  1  0  0  0  0
 31 29  1  1  0  0  0
 32 30  2  0  0  0  0
 33 30  1  0  0  0  0
 33 31  1  0  0  0  0
 34 37  1  6  0  0  0
 35 37  1  0  0  0  0
 36 37  2  0  0  0  0
 38 34  1  0  0  0  0
 38 44  1  0  0  0  0
 39 38  1  0  0  0  0
 40 39  1  0  0  0  0
 41 40  1  0  0  0  0
 42 41  1  0  0  0  0
 43 42  1  0  0  0  0
 44 58  1  6  0  0  0
 44 45  1  0  0  0  0
 45 46  2  0  0  0  0
 47 48  1  1  0  0  0
 47 45  1  0  0  0  0
 49 47  1  0  0  0  0
 50 49  1  0  0  0  0
 51 50  1  0  0  0  0
 52 54  1  6  0  0  0
 52 55  1  0  0  0  0
 52 53  1  0  0  0  0
 53 51  1  1  0  0  0
 55 53  1  0  0  0  0
 56 52  1  0  0  0  0
 57 56  2  0  0  0  0
 58 60  1  0  0  0  0
 60 59  1  0  0  0  0
M  END
>  <MODEL>
3

>  <REMARK>
 VINA RESULT:      -4.4      2.583      8.964
  Name = 
  27 active torsions:
  status: ('A' for Active; 'I' for Inactive)
    1  A    between atoms: C_1  and  C_18
    2  A    between atoms: C_1  and  N_19
    3  A    between atoms: C_1  and  C_55
    4  A    between atoms: C_2  and  O_41
    5  A    between atoms: C_2  and  C_50
    6  A    between atoms: C_4  and  C_20
    7  A    between atoms: C_6  and  C_20
    8  A    between atoms: C_7  and  C_12
    9  A    between atoms: C_7  and  C_16
   10  A    between atoms: C_8  and  C_17
   11  A    between atoms: S_10  and  C_20
   12  A    between atoms: S_10  and  C_23
   13  A    between atoms: C_12  and  N_19
   14  A    between atoms: C_12  and  S_24
   15  A    between atoms: C_14  and  C_26
   16  A    between atoms: C_14  and  N_57
   17  A    between atoms: C_16  and  C_52
   18  A    between atoms: N_19  and  C_21
   19  A    between atoms: C_20  and  O_29
   20  A    between atoms: C_21  and  O_41
   21  A    between atoms: S_24  and  C_54
   22  A    between atoms: O_29  and  C_39
   23  A    between atoms: C_30  and  C_46
   24  A    between atoms: C_39  and  C_40
   25  A    between atoms: C_40  and  N_48
   26  A    between atoms: C_46  and  C_47
   27  A    between atoms: C_52  and  N_57
                            x       y       z     vdW  Elec       q    Type
                         _______ _______ _______ _____ _____    ______ ____

>  <TORSDO>
F 27

$$$$
=
 OpenBabel11062420403D

 60 65  0  0  1  0  0  0  0  0999 V2000
  194.6560  177.1950  145.9500 C   0  0  0  0  0  2  0  0  0  0  0  0
  192.4300  177.4980  143.9730 O   0  0  0  0  0  0  0  0  0  0  0  0
  193.6650  176.8070  143.8150 C   0  0  0  0  0  2  0  0  0  0  0  0
  193.6050  176.3530  145.2300 C   0  0  1  0  0  0  0  0  0  0  0  0
  194.5710  175.7340  146.2450 C   0  0  1  0  0  3  0  0  0  0  0  0
  192.3350  177.1170  145.3430 C   0  0  2  0  0  3  0  0  0  0  0  0
  196.4630  174.2860  146.4270 O   0  0  0  0  0  1  0  0  0  0  0  0
  195.6690  174.9730  145.5060 C   0  0  1  0  0  3  0  0  0  0  0  0
  194.2340  172.0110  140.3710 C   0  0  1  0  0  3  0  0  0  0  0  0
  196.6160  174.1640  142.1370 C   0  0  2  0  0  3  0  0  0  0  0  0
  195.4250  171.1120  140.7430 C   0  0  0  0  0  2  0  0  0  0  0  0
  195.0640  174.0180  144.5200 C   0  0  0  0  0  0  0  0  0  0  0  0
  195.6260  173.8430  143.2200 N   0  0  0  0  0  0  0  0  0  0  0  0
  196.2750  175.5210  141.5370 C   0  0  0  0  0  1  0  0  0  0  0  0
  194.0610  173.3320  144.8540 O   0  0  0  0  0  0  0  0  0  0  0  0
  194.4280  173.3640  141.0630 C   0  0  0  0  0  2  0  0  0  0  0  0
  196.1140  171.7280  141.9490 C   0  0  2  0  0  3  0  0  0  0  0  0
  195.6300  171.1230  143.0960 F   0  0  0  0  0  0  0  0  0  0  0  0
  195.6800  173.1700  141.8910 C   0  0  1  0  0  0  0  0  0  0  0  0
  194.0200  172.0900  138.8320 C   0  0  1  0  0  0  0  0  0  0  0  0
  192.5910  171.6560  138.4480 C   0  0  0  0  0  2  0  0  0  0  0  0
  192.0850  170.7490  139.3800 O   0  0  0  0  0  1  0  0  0  0  0  0
  194.3210  173.3810  138.3150 O   0  0  0  0  0  0  0  0  0  0  0  0
  195.7040  173.5190  138.0810 C   0  0  0  0  0  2  0  0  0  0  0  0
  196.0050  174.9010  137.5290 C   0  0  0  0  0  2  0  0  0  0  0  0
  195.5900  176.1340  135.5970 C   0  0  0  0  0  1  0  0  0  0  0  0
  197.4210  174.8360  135.7690 O   0  0  0  0  0  1  0  0  0  0  0  0
  196.1050  174.8650  136.0780 N   0  0  0  0  0  0  0  0  0  0  0  0
  195.2350  170.9420  138.0560 S   0  0  0  0  0  0  0  0  0  0  0  0
  194.3980  169.3410  136.1200 C   0  0  0  0  0  0  0  0  0  0  0  0
  194.4010  170.6790  136.4510 C   0  0  2  0  0  3  0  0  0  0  0  0
  193.9540  168.1660  136.2340 O   0  0  0  0  0  0  0  0  0  0  0  0
  195.3370  170.3380  135.5130 O   0  0  0  0  0  0  0  0  0  0  0  0
  191.1190  176.2090  145.6120 C   0  0  1  0  0  3  0  0  0  0  0  0
  191.2210  176.8900  148.0110 O   0  0  0  0  0  1  0  0  0  0  0  0
  190.9080  174.6880  147.4670 O   0  0  0  0  0  0  0  0  0  0  0  0
  191.0590  175.8760  147.0790 C   0  0  0  0  0  0  0  0  0  0  0  0
  189.8630  176.7510  145.0390 N   0  0  0  0  0  0  0  0  0  0  0  0
  188.7930  176.9280  146.0310 C   0  0  0  0  0  2  0  0  0  0  0  0
  187.6130  177.3390  145.4020 O   0  0  0  0  0  0  0  0  0  0  0  0
  186.7280  177.6220  146.4440 C   0  0  0  0  0  2  0  0  0  0  0  0
  185.3570  177.9500  145.8830 C   0  0  0  0  0  2  0  0  0  0  0  0
  185.4390  179.0580  145.0410 O   0  0  0  0  0  1  0  0  0  0  0  0
  189.4190  175.8210  143.9860 C   0  0  1  0  0  3  0  0  0  0  0  0
  188.8140  176.4510  142.7400 C   0  0  0  0  0  0  0  0  0  0  0  0
  189.1930  177.5590  142.3860 O   0  0  0  0  0  0  0  0  0  0  0  0
  187.7190  175.7670  141.9750 C   0  0  1  0  0  3  0  0  0  0  0  0
  186.5400  176.7160  141.7810 C   0  0  0  0  0  1  0  0  0  0  0  0
  188.2230  175.2640  140.6300 C   0  0  0  0  0  2  0  0  0  0  0  0
  188.2200  173.8090  140.6230 N   0  0  0  0  0  2  0  0  0  0  0  0
  189.3500  173.3650  139.8210 C   0  0  0  0  0  2  0  0  0  0  0  0
  189.3840  172.8750  137.3320 C   0  0  1  0  0  0  0  0  0  0  0  0
  188.8700  172.4790  138.6720 C   0  0  2  0  0  3  0  0  0  0  0  0
  189.3330  171.8010  136.2610 C   0  0  0  0  0  1  0  0  0  0  0  0
  188.1030  173.2510  137.7680 O   0  0  0  0  0  0  0  0  0  0  0  0
  190.2940  174.0590  137.1700 C   0  0  0  0  0  3  0  0  0  0  0  0
  190.5630  174.5660  135.9680 C   0  0  0  0  0  2  0  0  0  0  0  0
  190.5950  174.4360  143.7190 S   0  0  0  0  0  0  0  0  0  0  0  0
  189.4340  171.9810  143.5100 C   0  0  0  0  0  1  0  0  0  0  0  0
  189.5470  173.1520  144.4620 C   0  0  0  0  0  2  0  0  0  0  0  0
  1  5  1  0  0  0  0
  2  6  1  0  0  0  0
  3  2  1  0  0  0  0
  4  3  1  6  0  0  0
  4  6  1  0  0  0  0
  4  1  1  0  0  0  0
  4  5  1  0  0  0  0
  5  8  1  6  0  0  0
  6 34  1  6  0  0  0
  8  7  1  1  0  0  0
  9 20  1  6  0  0  0
  9 11  1  0  0  0  0
  9 16  1  0  0  0  0
 10 14  1  6  0  0  0
 10 13  1  0  0  0  0
 11 17  1  0  0  0  0
 12 15  2  0  0  0  0
 12  8  1  0  0  0  0
 13 12  1  0  0  0  0
 17 18  1  1  0  0  0
 19 16  1  6  0  0  0
 19 17  1  0  0  0  0
 19 10  1  0  0  0  0
 19 13  1  0  0  0  0
 20 21  1  6  0  0  0
 21 22  1  0  0  0  0
 23 20  1  0  0  0  0
 24 23  1  0  0  0  0
 25 24  1  0  0  0  0
 26 28  1  0  0  0  0
 27 28  1  0  0  0  0
 28 25  1  0  0  0  0
 29 20  1  0  0  0  0
 30 32  2  0  0  0  0
 30 31  1  0  0  0  0
 31 29  1  1  0  0  0
 33 30  1  0  0  0  0
 33 31  1  0  0  0  0
 34 37  1  1  0  0  0
 37 36  2  0  0  0  0
 37 35  1  0  0  0  0
 38 34  1  0  0  0  0
 38 39  1  0  0  0  0
 40 39  1  0  0  0  0
 40 41  1  0  0  0  0
 42 41  1  0  0  0  0
 43 42  1  0  0  0  0
 44 45  1  6  0  0  0
 44 38  1  0  0  0  0
 46 45  2  0  0  0  0
 47 48  1  6  0  0  0
 47 45  1  0  0  0  0
 49 47  1  0  0  0  0
 50 49  1  0  0  0  0
 51 50  1  0  0  0  0
 52 54  1  6  0  0  0
 52 55  1  0  0  0  0
 52 53  1  0  0  0  0
 53 51  1  1  0  0  0
 55 53  1  0  0  0  0
 56 52  1  0  0  0  0
 57 56  2  0  0  0  0
 58 44  1  0  0  0  0
 58 60  1  0  0  0  0
 59 60  1  0  0  0  0
M  END
>  <MODEL>
4

>  <REMARK>
 VINA RESULT:      -4.2      1.592      2.026
  Name = 
  27 active torsions:
  status: ('A' for Active; 'I' for Inactive)
    1  A    between atoms: C_1  and  C_18
    2  A    between atoms: C_1  and  N_19
    3  A    between atoms: C_1  and  C_55
    4  A    between atoms: C_2  and  O_41
    5  A    between atoms: C_2  and  C_50
    6  A    between atoms: C_4  and  C_20
    7  A    between atoms: C_6  and  C_20
    8  A    between atoms: C_7  and  C_12
    9  A    between atoms: C_7  and  C_16
   10  A    between atoms: C_8  and  C_17
   11  A    between atoms: S_10  and  C_20
   12  A    between atoms: S_10  and  C_23
   13  A    between atoms: C_12  and  N_19
   14  A    between atoms: C_12  and  S_24
   15  A    between atoms: C_14  and  C_26
   16  A    between atoms: C_14  and  N_57
   17  A    between atoms: C_16  and  C_52
   18  A    between atoms: N_19  and  C_21
   19  A    between atoms: C_20  and  O_29
   20  A    between atoms: C_21  and  O_41
   21  A    between atoms: S_24  and  C_54
   22  A    between atoms: O_29  and  C_39
   23  A    between atoms: C_30  and  C_46
   24  A    between atoms: C_39  and  C_40
   25  A    between atoms: C_40  and  N_48
   26  A    between atoms: C_46  and  C_47
   27  A    between atoms: C_52  and  N_57
                            x       y       z     vdW  Elec       q    Type
                         _______ _______ _______ _____ _____    ______ ____

>  <TORSDO>
F 27

$$$$
=
 OpenBabel11062420403D

 60 65  0  0  1  0  0  0  0  0999 V2000
  196.4540  175.6160  144.3410 C   0  0  0  0  0  2  0  0  0  0  0  0
  197.0190  172.8160  145.2320 O   0  0  0  0  0  0  0  0  0  0  0  0
  196.6080  173.9290  146.0200 C   0  0  0  0  0  2  0  0  0  0  0  0
  195.7300  174.4010  144.9160 C   0  0  1  0  0  0  0  0  0  0  0  0
  194.9780  175.6880  144.5610 C   0  0  1  0  0  3  0  0  0  0  0  0
  196.2180  173.2360  144.1310 C   0  0  2  0  0  3  0  0  0  0  0  0
  195.1590  177.7650  145.7280 O   0  0  0  0  0  1  0  0  0  0  0  0
  194.6640  176.4640  145.8380 C   0  0  1  0  0  3  0  0  0  0  0  0
  188.6160  176.4850  145.0470 C   0  0  1  0  0  3  0  0  0  0  0  0
  191.9150  175.7180  143.6490 C   0  0  2  0  0  3  0  0  0  0  0  0
  188.7600  174.9550  145.1130 C   0  0  0  0  0  2  0  0  0  0  0  0
  193.1830  176.4840  146.0800 C   0  0  0  0  0  0  0  0  0  0  0  0
  192.2600  176.1300  145.0520 N   0  0  0  0  0  0  0  0  0  0  0  0
  192.1140  176.9050  142.7180 C   0  0  0  0  0  1  0  0  0  0  0  0
  192.7450  176.7880  147.2220 O   0  0  0  0  0  0  0  0  0  0  0  0
  189.9680  177.0710  144.6300 C   0  0  0  0  0  2  0  0  0  0  0  0
  190.2440  174.6290  145.1470 C   0  0  2  0  0  3  0  0  0  0  0  0
  190.6330  174.4640  146.4650 F   0  0  0  0  0  0  0  0  0  0  0  0
  190.8790  175.8640  144.5600 C   0  0  1  0  0  0  0  0  0  0  0  0
  187.4140  176.9200  144.1610 C   0  0  1  0  0  0  0  0  0  0  0  0
  187.5680  178.3830  143.6960 C   0  0  0  0  0  2  0  0  0  0  0  0
  187.4450  178.4730  142.3090 O   0  0  0  0  0  1  0  0  0  0  0  0
  187.2230  176.0480  143.0530 O   0  0  0  0  0  0  0  0  0  0  0  0
  188.3450  176.0620  142.2020 C   0  0  0  0  0  2  0  0  0  0  0  0
  188.1320  175.1070  141.0400 C   0  0  0  0  0  2  0  0  0  0  0  0
  188.0950  172.8490  141.6100 C   0  0  0  0  0  1  0  0  0  0  0  0
  189.4170  173.6010  139.9500 O   0  0  0  0  0  1  0  0  0  0  0  0
  188.9700  173.9260  141.1840 N   0  0  0  0  0  0  0  0  0  0  0  0
  185.8940  176.7640  145.1910 S   0  0  0  0  0  0  0  0  0  0  0  0
  185.3220  178.9370  146.5910 C   0  0  0  0  0  0  0  0  0  0  0  0
  185.4210  178.5270  145.2800 C   0  0  2  0  0  3  0  0  0  0  0  0
  185.8300  179.3000  147.6870 O   0  0  0  0  0  0  0  0  0  0  0  0
  184.1340  178.6200  145.7350 O   0  0  0  0  0  0  0  0  0  0  0  0
  195.0980  172.2300  143.8070 C   0  0  1  0  0  3  0  0  0  0  0  0
  194.4320  170.9990  145.8740 O   0  0  0  0  0  1  0  0  0  0  0  0
  193.2490  172.8470  145.2210 O   0  0  0  0  0  0  0  0  0  0  0  0
  194.2110  172.0630  145.0120 C   0  0  0  0  0  0  0  0  0  0  0  0
  194.3880  172.5500  142.5440 N   0  0  0  0  0  0  0  0  0  0  0  0
  193.4540  171.5010  142.1130 C   0  0  0  0  0  2  0  0  0  0  0  0
  192.1630  172.0240  141.9880 O   0  0  0  0  0  0  0  0  0  0  0  0
  191.4320  171.0310  141.3340 C   0  0  0  0  0  2  0  0  0  0  0  0
  191.6700  169.6900  142.0020 C   0  0  0  0  0  2  0  0  0  0  0  0
  190.7400  168.7580  141.5450 O   0  0  0  0  0  1  0  0  0  0  0  0
  195.4090  172.7670  141.5050 C   0  0  1  0  0  3  0  0  0  0  0  0
  195.7270  171.5760  140.6120 C   0  0  0  0  0  0  0  0  0  0  0  0
  196.2060  170.5670  141.1090 O   0  0  0  0  0  0  0  0  0  0  0  0
  195.5230  171.6410  139.1260 C   0  0  1  0  0  3  0  0  0  0  0  0
  196.5620  170.7800  138.4140 C   0  0  0  0  0  1  0  0  0  0  0  0
  194.1170  171.1990  138.7480 C   0  0  0  0  0  2  0  0  0  0  0  0
  193.5610  172.1250  137.7730 N   0  0  0  0  0  2  0  0  0  0  0  0
  192.1220  172.1840  137.9840 C   0  0  0  0  0  2  0  0  0  0  0  0
  190.5680  172.7200  136.0520 C   0  0  1  0  0  0  0  0  0  0  0  0
  191.4990  173.2510  137.0850 C   0  0  2  0  0  3  0  0  0  0  0  0
  189.5910  173.7210  135.4640 C   0  0  0  0  0  1  0  0  0  0  0  0
  191.9020  173.0370  135.7470 O   0  0  0  0  0  0  0  0  0  0  0  0
  190.2980  171.2460  135.9360 C   0  0  0  0  0  3  0  0  0  0  0  0
  190.6980  170.5510  134.8730 C   0  0  0  0  0  2  0  0  0  0  0  0
  195.2430  174.3970  140.6750 S   0  0  0  0  0  0  0  0  0  0  0  0
  197.8700  174.0030  141.2750 C   0  0  0  0  0  1  0  0  0  0  0  0
  196.9820  174.5280  140.1680 C   0  0  0  0  0  2  0  0  0  0  0  0
  1  5  1  0  0  0  0
  2  3  1  0  0  0  0
  4  1  1  6  0  0  0
  4  3  1  0  0  0  0
  5  4  1  0  0  0  0
  5  8  1  1  0  0  0
  6 34  1  1  0  0  0
  6  4  1  0  0  0  0
  6  2  1  0  0  0  0
  8  7  1  6  0  0  0
  8 12  1  0  0  0  0
  9 20  1  6  0  0  0
  9 11  1  0  0  0  0
 10 14  1  6  0  0  0
 10 19  1  0  0  0  0
 10 13  1  0  0  0  0
 11 17  1  0  0  0  0
 12 15  2  0  0  0  0
 13 12  1  0  0  0  0
 16  9  1  0  0  0  0
 17 18  1  1  0  0  0
 19 16  1  6  0  0  0
 19 13  1  0  0  0  0
 19 17  1  0  0  0  0
 20 21  1  6  0  0  0
 20 29  1  0  0  0  0
 22 21  1  0  0  0  0
 23 20  1  0  0  0  0
 24 23  1  0  0  0  0
 25 28  1  0  0  0  0
 25 24  1  0  0  0  0
 27 28  1  0  0  0  0
 28 26  1  0  0  0  0
 30 32  2  0  0  0  0
 31 29  1  1  0  0  0
 31 33  1  0  0  0  0
 31 30  1  0  0  0  0
 33 30  1  0  0  0  0
 34 37  1  1  0  0  0
 37 36  2  0  0  0  0
 37 35  1  0  0  0  0
 38 34  1  0  0  0  0
 39 38  1  0  0  0  0
 40 39  1  0  0  0  0
 41 40  1  0  0  0  0
 41 42  1  0  0  0  0
 43 42  1  0  0  0  0
 44 45  1  6  0  0  0
 44 38  1  0  0  0  0
 45 46  2  0  0  0  0
 47 48  1  6  0  0  0
 47 45  1  0  0  0  0
 49 47  1  0  0  0  0
 50 51  1  0  0  0  0
 50 49  1  0  0  0  0
 52 54  1  6  0  0  0
 52 53  1  0  0  0  0
 53 51  1  1  0  0  0
 55 52  1  0  0  0  0
 55 53  1  0  0  0  0
 56 52  1  0  0  0  0
 57 56  2  0  0  0  0
 58 44  1  0  0  0  0
 60 58  1  0  0  0  0
 60 59  1  0  0  0  0
M  END
>  <MODEL>
5

>  <REMARK>
 VINA RESULT:      -4.0      2.354      8.443
  Name = 
  27 active torsions:
  status: ('A' for Active; 'I' for Inactive)
    1  A    between atoms: C_1  and  C_18
    2  A    between atoms: C_1  and  N_19
    3  A    between atoms: C_1  and  C_55
    4  A    between atoms: C_2  and  O_41
    5  A    between atoms: C_2  and  C_50
    6  A    between atoms: C_4  and  C_20
    7  A    between atoms: C_6  and  C_20
    8  A    between atoms: C_7  and  C_12
    9  A    between atoms: C_7  and  C_16
   10  A    between atoms: C_8  and  C_17
   11  A    between atoms: S_10  and  C_20
   12  A    between atoms: S_10  and  C_23
   13  A    between atoms: C_12  and  N_19
   14  A    between atoms: C_12  and  S_24
   15  A    between atoms: C_14  and  C_26
   16  A    between atoms: C_14  and  N_57
   17  A    between atoms: C_16  and  C_52
   18  A    between atoms: N_19  and  C_21
   19  A    between atoms: C_20  and  O_29
   20  A    between atoms: C_21  and  O_41
   21  A    between atoms: S_24  and  C_54
   22  A    between atoms: O_29  and  C_39
   23  A    between atoms: C_30  and  C_46
   24  A    between atoms: C_39  and  C_40
   25  A    between atoms: C_40  and  N_48
   26  A    between atoms: C_46  and  C_47
   27  A    between atoms: C_52  and  N_57
                            x       y       z     vdW  Elec       q    Type
                         _______ _______ _______ _____ _____    ______ ____

>  <TORSDO>
F 27

$$$$
=
 OpenBabel11062420403D

 60 65  0  0  1  0  0  0  0  0999 V2000
  190.4800  170.9410  137.7160 C   0  0  0  0  0  2  0  0  0  0  0  0
  192.3390  171.2610  135.3920 O   0  0  0  0  0  0  0  0  0  0  0  0
  191.5180  172.2470  136.0100 C   0  0  0  0  0  2  0  0  0  0  0  0
  191.7820  171.6470  137.3450 C   0  0  1  0  0  0  0  0  0  0  0  0
  191.1870  171.7510  138.7530 C   0  0  1  0  0  3  0  0  0  0  0  0
  192.6030  170.6270  136.6410 C   0  0  2  0  0  3  0  0  0  0  0  0
  189.1320  172.9690  138.7750 O   0  0  0  0  0  1  0  0  0  0  0  0
  190.5130  173.1100  138.9230 C   0  0  1  0  0  3  0  0  0  0  0  0
  190.0770  175.3640  144.5740 C   0  0  1  0  0  3  0  0  0  0  0  0
  188.5270  173.3930  141.9030 C   0  0  2  0  0  3  0  0  0  0  0  0
  190.2070  173.8930  145.0020 C   0  0  0  0  0  2  0  0  0  0  0  0
  190.8400  173.6860  140.2690 C   0  0  0  0  0  0  0  0  0  0  0  0
  189.8850  173.6780  141.3290 N   0  0  0  0  0  0  0  0  0  0  0  0
  187.5310  174.4000  141.3450 C   0  0  0  0  0  1  0  0  0  0  0  0
  191.9900  174.1570  140.4810 O   0  0  0  0  0  0  0  0  0  0  0  0
  189.5550  175.3950  143.1340 C   0  0  0  0  0  2  0  0  0  0  0  0
  190.1690  173.0380  143.7460 C   0  0  2  0  0  3  0  0  0  0  0  0
  191.4690  172.7700  143.3510 F   0  0  0  0  0  0  0  0  0  0  0  0
  189.4890  173.9340  142.7430 C   0  0  1  0  0  0  0  0  0  0  0  0
  189.2430  176.1960  145.5890 C   0  0  1  0  0  0  0  0  0  0  0  0
  189.6160  177.6910  145.5220 C   0  0  0  0  0  2  0  0  0  0  0  0
  190.5770  177.9140  144.5350 O   0  0  0  0  0  1  0  0  0  0  0  0
  187.8430  176.0090  145.4130 O   0  0  0  0  0  0  0  0  0  0  0  0
  187.1340  177.1850  145.7280 C   0  0  0  0  0  2  0  0  0  0  0  0
  185.9360  177.3360  144.8060 C   0  0  0  0  0  2  0  0  0  0  0  0
  185.2660  178.2090  146.8590 C   0  0  0  0  0  1  0  0  0  0  0  0
  184.4260  179.0110  144.9310 O   0  0  0  0  0  1  0  0  0  0  0  0
  184.7900  177.8570  145.5340 N   0  0  0  0  0  0  0  0  0  0  0  0
  189.6280  175.5460  147.2700 S   0  0  0  0  0  0  0  0  0  0  0  0
  192.1130  176.4380  147.4590 C   0  0  0  0  0  0  0  0  0  0  0  0
  190.8330  176.8130  147.8030 C   0  0  2  0  0  3  0  0  0  0  0  0
  193.0460  176.2950  146.6220 O   0  0  0  0  0  0  0  0  0  0  0  0
  191.5650  176.3200  148.8480 O   0  0  0  0  0  0  0  0  0  0  0  0
  194.0940  170.6970  137.0250 C   0  0  1  0  0  3  0  0  0  0  0  0
  195.6070  170.5340  135.0470 O   0  0  0  0  0  0  0  0  0  0  0  0
  194.9090  168.6270  136.1040 O   0  0  0  0  0  1  0  0  0  0  0  0
  194.9010  169.8840  136.0490 C   0  0  0  0  0  0  0  0  0  0  0  0
  194.5670  172.0890  137.2270 N   0  0  0  0  0  0  0  0  0  0  0  0
  195.2250  172.6630  136.0440 C   0  0  0  0  0  2  0  0  0  0  0  0
  194.7400  173.9510  135.7980 O   0  0  0  0  0  0  0  0  0  0  0  0
  195.1880  174.2670  134.5150 C   0  0  0  0  0  2  0  0  0  0  0  0
  196.1560  175.4330  134.5770 C   0  0  0  0  0  2  0  0  0  0  0  0
  195.8130  176.2820  135.6280 O   0  0  0  0  0  1  0  0  0  0  0  0
  195.5040  172.0780  138.3630 C   0  0  1  0  0  3  0  0  0  0  0  0
  195.8960  173.4360  138.9270 C   0  0  0  0  0  0  0  0  0  0  0  0
  195.0200  174.2440  139.2060 O   0  0  0  0  0  0  0  0  0  0  0  0
  197.3360  173.8260  139.0890 C   0  0  1  0  0  3  0  0  0  0  0  0
  197.8910  174.3510  137.7680 C   0  0  0  0  0  1  0  0  0  0  0  0
  197.5010  174.8680  140.1860 C   0  0  0  0  0  2  0  0  0  0  0  0
  197.4170  174.2230  141.4870 N   0  0  0  0  0  2  0  0  0  0  0  0
  196.6300  175.0810  142.3600 C   0  0  0  0  0  2  0  0  0  0  0  0
  195.5680  173.8450  144.3040 C   0  0  1  0  0  0  0  0  0  0  0  0
  195.4200  174.3200  142.9010 C   0  0  2  0  0  3  0  0  0  0  0  0
  194.2770  173.5150  145.0300 C   0  0  0  0  0  1  0  0  0  0  0  0
  195.7960  172.9930  143.2120 O   0  0  0  0  0  0  0  0  0  0  0  0
  196.8250  174.1100  145.0840 C   0  0  0  0  0  3  0  0  0  0  0  0
  196.9390  173.7410  146.3590 C   0  0  0  0  0  2  0  0  0  0  0  0
  195.1260  170.7590  139.5830 S   0  0  0  0  0  0  0  0  0  0  0  0
  197.0330  169.8970  141.3260 C   0  0  0  0  0  1  0  0  0  0  0  0
  196.8510  170.2670  139.8700 C   0  0  0  0  0  2  0  0  0  0  0  0
  1  5  1  0  0  0  0
  2  3  1  0  0  0  0
  2  6  1  0  0  0  0
  4  3  1  6  0  0  0
  4  1  1  0  0  0  0
  4  5  1  0  0  0  0
  5  8  1  6  0  0  0
  6 34  1  1  0  0  0
  6  4  1  0  0  0  0
  8  7  1  1  0  0  0
  8 12  1  0  0  0  0
  9 11  1  0  0  0  0
  9 20  1  1  0  0  0
 10 14  1  6  0  0  0
 10 19  1  0  0  0  0
 12 15  2  0  0  0  0
 12 13  1  0  0  0  0
 13 10  1  0  0  0  0
 13 19  1  0  0  0  0
 16  9  1  0  0  0  0
 17 18  1  6  0  0  0
 17 11  1  0  0  0  0
 19 16  1  1  0  0  0
 19 17  1  0  0  0  0
 20 21  1  6  0  0  0
 20 29  1  0  0  0  0
 22 21  1  0  0  0  0
 23 20  1  0  0  0  0
 23 24  1  0  0  0  0
 25 28  1  0  0  0  0
 25 24  1  0  0  0  0
 27 28  1  0  0  0  0
 28 26  1  0  0  0  0
 30 31  1  0  0  0  0
 30 33  1  0  0  0  0
 31 29  1  6  0  0  0
 31 33  1  0  0  0  0
 32 30  2  0  0  0  0
 34 37  1  6  0  0  0
 34 38  1  0  0  0  0
 35 37  2  0  0  0  0
 37 36  1  0  0  0  0
 38 44  1  0  0  0  0
 39 38  1  0  0  0  0
 40 39  1  0  0  0  0
 41 42  1  0  0  0  0
 41 40  1  0  0  0  0
 42 43  1  0  0  0  0
 44 45  1  1  0  0  0
 44 58  1  0  0  0  0
 45 47  1  0  0  0  0
 45 46  2  0  0  0  0
 47 48  1  6  0  0  0
 47 49  1  0  0  0  0
 49 50  1  0  0  0  0
 50 51  1  0  0  0  0
 52 54  1  1  0  0  0
 52 56  1  0  0  0  0
 53 51  1  6  0  0  0
 53 55  1  0  0  0  0
 53 52  1  0  0  0  0
 55 52  1  0  0  0  0
 56 57  2  0  0  0  0
 58 60  1  0  0  0  0
 60 59  1  0  0  0  0
M  END
>  <MODEL>
6

>  <REMARK>
 VINA RESULT:      -3.7      2.462     10.643
  Name = 
  27 active torsions:
  status: ('A' for Active; 'I' for Inactive)
    1  A    between atoms: C_1  and  C_18
    2  A    between atoms: C_1  and  N_19
    3  A    between atoms: C_1  and  C_55
    4  A    between atoms: C_2  and  O_41
    5  A    between atoms: C_2  and  C_50
    6  A    between atoms: C_4  and  C_20
    7  A    between atoms: C_6  and  C_20
    8  A    between atoms: C_7  and  C_12
    9  A    between atoms: C_7  and  C_16
   10  A    between atoms: C_8  and  C_17
   11  A    between atoms: S_10  and  C_20
   12  A    between atoms: S_10  and  C_23
   13  A    between atoms: C_12  and  N_19
   14  A    between atoms: C_12  and  S_24
   15  A    between atoms: C_14  and  C_26
   16  A    between atoms: C_14  and  N_57
   17  A    between atoms: C_16  and  C_52
   18  A    between atoms: N_19  and  C_21
   19  A    between atoms: C_20  and  O_29
   20  A    between atoms: C_21  and  O_41
   21  A    between atoms: S_24  and  C_54
   22  A    between atoms: O_29  and  C_39
   23  A    between atoms: C_30  and  C_46
   24  A    between atoms: C_39  and  C_40
   25  A    between atoms: C_40  and  N_48
   26  A    between atoms: C_46  and  C_47
   27  A    between atoms: C_52  and  N_57
                            x       y       z     vdW  Elec       q    Type
                         _______ _______ _______ _____ _____    ______ ____

>  <TORSDO>
F 27

$$$$
=
 OpenBabel11062420403D

 60 65  0  0  1  0  0  0  0  0999 V2000
  190.2240  172.2720  144.3140 C   0  0  0  0  0  2  0  0  0  0  0  0
  192.9350  171.0060  144.3630 O   0  0  0  0  0  0  0  0  0  0  0  0
  191.9430  170.9310  143.3450 C   0  0  0  0  0  2  0  0  0  0  0  0
  191.5670  172.3490  143.5910 C   0  0  1  0  0  0  0  0  0  0  0  0
  190.4040  173.2750  143.2220 C   0  0  1  0  0  3  0  0  0  0  0  0
  192.5980  172.3580  144.6620 C   0  0  2  0  0  3  0  0  0  0  0  0
  188.5100  173.4060  141.7710 O   0  0  0  0  0  1  0  0  0  0  0  0
  189.7510  172.7860  141.9310 C   0  0  1  0  0  3  0  0  0  0  0  0
  193.0350  172.2630  136.8180 C   0  0  1  0  0  3  0  0  0  0  0  0
  190.3290  170.9400  138.9050 C   0  0  2  0  0  3  0  0  0  0  0  0
  191.7250  172.6680  136.1220 C   0  0  0  0  0  2  0  0  0  0  0  0
  190.6400  173.0790  140.7580 C   0  0  0  0  0  0  0  0  0  0  0  0
  190.7010  172.1970  139.6380 N   0  0  0  0  0  0  0  0  0  0  0  0
  191.0260  169.7560  139.5600 C   0  0  0  0  0  1  0  0  0  0  0  0
  191.3210  174.1380  140.7440 O   0  0  0  0  0  0  0  0  0  0  0  0
  192.6810  171.6680  138.1850 C   0  0  0  0  0  2  0  0  0  0  0  0
  190.6320  172.7130  137.1780 C   0  0  2  0  0  3  0  0  0  0  0  0
  190.4980  174.0170  137.6230 F   0  0  0  0  0  0  0  0  0  0  0  0
  191.1800  171.8360  138.2740 C   0  0  1  0  0  0  0  0  0  0  0  0
  193.9170  171.3510  135.9170 C   0  0  1  0  0  0  0  0  0  0  0  0
  193.1700  170.9540  134.6280 C   0  0  0  0  0  2  0  0  0  0  0  0
  193.0750  169.5660  134.5220 O   0  0  0  0  0  1  0  0  0  0  0  0
  195.1740  171.9480  135.6200 O   0  0  0  0  0  0  0  0  0  0  0  0
  195.0060  173.2700  135.1600 C   0  0  0  0  0  2  0  0  0  0  0  0
  196.2030  174.1170  135.5570 C   0  0  0  0  0  2  0  0  0  0  0  0
  197.7440  174.1100  137.3030 C   0  0  0  0  0  1  0  0  0  0  0  0
  195.9150  175.4200  137.3800 O   0  0  0  0  0  1  0  0  0  0  0  0
  196.3260  174.1880  137.0050 N   0  0  0  0  0  0  0  0  0  0  0  0
  194.3000  169.8340  136.8910 S   0  0  0  0  0  0  0  0  0  0  0  0
  196.6030  168.8040  136.0860 C   0  0  0  0  0  0  0  0  0  0  0  0
  196.1250  169.8830  136.7980 C   0  0  2  0  0  3  0  0  0  0  0  0
  196.8360  168.1960  135.0060 O   0  0  0  0  0  0  0  0  0  0  0  0
  196.6380  168.8860  137.5820 O   0  0  0  0  0  0  0  0  0  0  0  0
  193.7570  173.3280  144.3620 C   0  0  1  0  0  3  0  0  0  0  0  0
  195.0320  172.0420  142.6430 O   0  0  0  0  0  0  0  0  0  0  0  0
  195.9000  172.2980  144.7470 O   0  0  0  0  0  1  0  0  0  0  0  0
  194.9680  172.5430  143.9360 C   0  0  0  0  0  0  0  0  0  0  0  0
  193.3620  174.4230  143.4420 N   0  0  0  0  0  0  0  0  0  0  0  0
  194.3940  174.7560  142.4490 C   0  0  0  0  0  2  0  0  0  0  0  0
  195.4020  175.5240  143.0400 O   0  0  0  0  0  0  0  0  0  0  0  0
  195.8450  176.3780  142.0270 C   0  0  0  0  0  2  0  0  0  0  0  0
  196.6500  175.5950  141.0070 C   0  0  0  0  0  2  0  0  0  0  0  0
  197.1990  174.4610  141.6020 O   0  0  0  0  0  1  0  0  0  0  0  0
  193.0600  175.6060  144.2650 C   0  0  1  0  0  3  0  0  0  0  0  0
  192.0160  176.5650  143.7100 C   0  0  0  0  0  0  0  0  0  0  0  0
  192.0570  176.8750  142.5270 O   0  0  0  0  0  0  0  0  0  0  0  0
  190.9770  177.1840  144.5980 C   0  0  1  0  0  3  0  0  0  0  0  0
  190.7790  178.6520  144.2330 C   0  0  0  0  0  1  0  0  0  0  0  0
  189.6580  176.4310  144.5050 C   0  0  0  0  0  2  0  0  0  0  0  0
  189.0060  176.7440  143.2440 N   0  0  0  0  0  2  0  0  0  0  0  0
  187.6510  177.1880  143.5390 C   0  0  0  0  0  2  0  0  0  0  0  0
  185.9610  177.3540  145.4230 C   0  0  1  0  0  0  0  0  0  0  0  0
  187.3710  177.0720  145.0360 C   0  0  2  0  0  3  0  0  0  0  0  0
  185.5240  176.8130  146.7720 C   0  0  0  0  0  1  0  0  0  0  0  0
  186.9650  178.3280  145.5410 O   0  0  0  0  0  0  0  0  0  0  0  0
  184.9330  177.7250  144.3910 C   0  0  0  0  0  3  0  0  0  0  0  0
  184.2670  178.8760  144.4600 C   0  0  0  0  0  2  0  0  0  0  0  0
  192.9490  175.2170  146.0560 S   0  0  0  0  0  0  0  0  0  0  0  0
  194.5230  177.4310  145.8650 C   0  0  0  0  0  1  0  0  0  0  0  0
  194.4810  176.0720  146.5290 C   0  0  0  0  0  2  0  0  0  0  0  0
  2  6  1  0  0  0  0
  3  2  1  0  0  0  0
  4  3  1  6  0  0  0
  4  1  1  0  0  0  0
  4  6  1  0  0  0  0
  5  8  1  6  0  0  0
  5  4  1  0  0  0  0
  5  1  1  0  0  0  0
  6 34  1  6  0  0  0
  8  7  1  6  0  0  0
  9 20  1  6  0  0  0
  9 16  1  0  0  0  0
 10 14  1  1  0  0  0
 10 13  1  0  0  0  0
 11  9  1  0  0  0  0
 11 17  1  0  0  0  0
 12  8  1  0  0  0  0
 13 12  1  0  0  0  0
 15 12  2  0  0  0  0
 17 18  1  1  0  0  0
 17 19  1  0  0  0  0
 19 16  1  6  0  0  0
 19 10  1  0  0  0  0
 19 13  1  0  0  0  0
 20 21  1  6  0  0  0
 20 29  1  0  0  0  0
 22 21  1  0  0  0  0
 23 20  1  0  0  0  0
 24 25  1  0  0  0  0
 24 23  1  0  0  0  0
 25 28  1  0  0  0  0
 28 26  1  0  0  0  0
 28 27  1  0  0  0  0
 30 31  1  0  0  0  0
 30 33  1  0  0  0  0
 31 29  1  1  0  0  0
 31 33  1  0  0  0  0
 32 30  2  0  0  0  0
 34 37  1  6  0  0  0
 35 37  2  0  0  0  0
 37 36  1  0  0  0  0
 38 44  1  0  0  0  0
 38 34  1  0  0  0  0
 39 40  1  0  0  0  0
 39 38  1  0  0  0  0
 41 40  1  0  0  0  0
 42 43  1  0  0  0  0
 42 41  1  0  0  0  0
 44 45  1  6  0  0  0
 44 58  1  0  0  0  0
 45 47  1  0  0  0  0
 46 45  2  0  0  0  0
 47 48  1  6  0  0  0
 49 47  1  0  0  0  0
 50 51  1  0  0  0  0
 50 49  1  0  0  0  0
 52 55  1  0  0  0  0
 52 54  1  1  0  0  0
 53 51  1  6  0  0  0
 53 52  1  0  0  0  0
 53 55  1  0  0  0  0
 56 57  2  0  0  0  0
 56 52  1  0  0  0  0
 58 60  1  0  0  0  0
 59 60  1  0  0  0  0
M  END
>  <MODEL>
7

>  <REMARK>
 VINA RESULT:      -3.6      2.669      6.735
  Name = 
  27 active torsions:
  status: ('A' for Active; 'I' for Inactive)
    1  A    between atoms: C_1  and  C_18
    2  A    between atoms: C_1  and  N_19
    3  A    between atoms: C_1  and  C_55
    4  A    between atoms: C_2  and  O_41
    5  A    between atoms: C_2  and  C_50
    6  A    between atoms: C_4  and  C_20
    7  A    between atoms: C_6  and  C_20
    8  A    between atoms: C_7  and  C_12
    9  A    between atoms: C_7  and  C_16
   10  A    between atoms: C_8  and  C_17
   11  A    between atoms: S_10  and  C_20
   12  A    between atoms: S_10  and  C_23
   13  A    between atoms: C_12  and  N_19
   14  A    between atoms: C_12  and  S_24
   15  A    between atoms: C_14  and  C_26
   16  A    between atoms: C_14  and  N_57
   17  A    between atoms: C_16  and  C_52
   18  A    between atoms: N_19  and  C_21
   19  A    between atoms: C_20  and  O_29
   20  A    between atoms: C_21  and  O_41
   21  A    between atoms: S_24  and  C_54
   22  A    between atoms: O_29  and  C_39
   23  A    between atoms: C_30  and  C_46
   24  A    between atoms: C_39  and  C_40
   25  A    between atoms: C_40  and  N_48
   26  A    between atoms: C_46  and  C_47
   27  A    between atoms: C_52  and  N_57
                            x       y       z     vdW  Elec       q    Type
                         _______ _______ _______ _____ _____    ______ ____

>  <TORSDO>
F 27

$$$$
=
 OpenBabel11062420403D

 60 65  0  0  1  0  0  0  0  0999 V2000
  190.2260  172.3340  144.6500 C   0  0  0  0  0  2  0  0  0  0  0  0
  193.0220  171.2680  144.6980 O   0  0  0  0  0  0  0  0  0  0  0  0
  191.9290  170.8480  143.8870 C   0  0  0  0  0  2  0  0  0  0  0  0
  191.4660  172.2560  143.7630 C   0  0  1  0  0  0  0  0  0  0  0  0
  190.1940  172.9760  143.3020 C   0  0  1  0  0  3  0  0  0  0  0  0
  192.6080  172.6300  144.6380 C   0  0  2  0  0  3  0  0  0  0  0  0
  188.0700  172.3410  142.4100 O   0  0  0  0  0  1  0  0  0  0  0  0
  189.4420  172.0960  142.3070 C   0  0  1  0  0  3  0  0  0  0  0  0
  191.9860  171.5300  136.7930 C   0  0  1  0  0  3  0  0  0  0  0  0
  190.6130  169.8600  139.7510 C   0  0  2  0  0  3  0  0  0  0  0  0
  190.6000  171.0070  136.3800 C   0  0  0  0  0  2  0  0  0  0  0  0
  189.9200  172.3670  140.9110 C   0  0  0  0  0  0  0  0  0  0  0  0
  190.3300  171.3050  140.0510 N   0  0  0  0  0  0  0  0  0  0  0  0
  191.8910  169.4450  140.4650 C   0  0  0  0  0  1  0  0  0  0  0  0
  189.9300  173.5490  140.4760 O   0  0  0  0  0  0  0  0  0  0  0  0
  192.1370  171.3320  138.3040 C   0  0  0  0  0  2  0  0  0  0  0  0
  189.7590  170.8760  137.6390 C   0  0  2  0  0  3  0  0  0  0  0  0
  188.9970  172.0220  137.7870 F   0  0  0  0  0  0  0  0  0  0  0  0
  190.7920  170.7850  138.7330 C   0  0  1  0  0  0  0  0  0  0  0  0
  193.1250  170.9070  135.9350 C   0  0  1  0  0  0  0  0  0  0  0  0
  192.9640  169.3770  135.8250 C   0  0  0  0  0  2  0  0  0  0  0  0
  192.6280  169.0110  134.5210 O   0  0  0  0  0  1  0  0  0  0  0  0
  193.2140  171.5070  134.6480 O   0  0  0  0  0  0  0  0  0  0  0  0
  193.7750  172.7970  134.7330 C   0  0  0  0  0  2  0  0  0  0  0  0
  192.7010  173.8490  134.5160 C   0  0  0  0  0  2  0  0  0  0  0  0
  192.1970  176.1100  134.7580 C   0  0  0  0  0  1  0  0  0  0  0  0
  192.3980  174.7710  136.5560 O   0  0  0  0  0  1  0  0  0  0  0  0
  192.9490  175.0170  135.3470 N   0  0  0  0  0  0  0  0  0  0  0  0
  194.7150  171.2940  136.7810 S   0  0  0  0  0  0  0  0  0  0  0  0
  196.4840  169.6080  137.8000 C   0  0  0  0  0  0  0  0  0  0  0  0
  195.2830  169.5910  137.1260 C   0  0  2  0  0  3  0  0  0  0  0  0
  197.1740  169.7580  138.8450 O   0  0  0  0  0  0  0  0  0  0  0  0
  196.3640  169.3140  136.3360 O   0  0  0  0  0  0  0  0  0  0  0  0
  193.6390  173.5200  143.9180 C   0  0  1  0  0  3  0  0  0  0  0  0
  195.0110  171.9800  142.5120 O   0  0  0  0  0  0  0  0  0  0  0  0
  195.8240  172.7090  144.5250 O   0  0  0  0  0  1  0  0  0  0  0  0
  194.8980  172.7310  143.6730 C   0  0  0  0  0  0  0  0  0  0  0  0
  193.0770  174.1930  142.7210 N   0  0  0  0  0  0  0  0  0  0  0  0
  193.8450  173.9450  141.4930 C   0  0  0  0  0  2  0  0  0  0  0  0
  193.4570  174.8390  140.4900 O   0  0  0  0  0  0  0  0  0  0  0  0
  194.6510  175.2920  139.9270 C   0  0  0  0  0  2  0  0  0  0  0  0
  195.0040  174.4470  138.7170 C   0  0  0  0  0  2  0  0  0  0  0  0
  195.9340  175.1170  137.9240 O   0  0  0  0  0  1  0  0  0  0  0  0
  193.0390  175.6380  143.0020 C   0  0  1  0  0  3  0  0  0  0  0  0
  191.6570  176.2700  143.1010 C   0  0  0  0  0  0  0  0  0  0  0  0
  190.9150  176.2400  142.1290 O   0  0  0  0  0  0  0  0  0  0  0  0
  191.2150  176.9830  144.3460 C   0  0  1  0  0  3  0  0  0  0  0  0
  191.3370  178.4920  144.1600 C   0  0  0  0  0  1  0  0  0  0  0  0
  189.7860  176.6070  144.7120 C   0  0  0  0  0  2  0  0  0  0  0  0
  189.2320  177.6110  145.6070 N   0  0  0  0  0  2  0  0  0  0  0  0
  187.8110  177.3350  145.7630 C   0  0  0  0  0  2  0  0  0  0  0  0
  185.5730  177.7570  144.6460 C   0  0  1  0  0  0  0  0  0  0  0  0
  187.0540  177.7200  144.4940 C   0  0  2  0  0  3  0  0  0  0  0  0
  184.8210  178.5610  143.6030 C   0  0  0  0  0  1  0  0  0  0  0  0
  186.2280  176.6460  144.0910 O   0  0  0  0  0  0  0  0  0  0  0  0
  184.9210  177.4290  145.9600 C   0  0  0  0  0  3  0  0  0  0  0  0
  184.1680  178.3210  146.6000 C   0  0  0  0  0  2  0  0  0  0  0  0
  194.2690  176.1500  144.2650 S   0  0  0  0  0  0  0  0  0  0  0  0
  196.6940  177.1540  143.5400 C   0  0  0  0  0  1  0  0  0  0  0  0
  195.7140  176.0630  143.1670 C   0  0  0  0  0  2  0  0  0  0  0  0
  3  2  1  0  0  0  0
  4  3  1  6  0  0  0
  4  6  1  0  0  0  0
  4  1  1  0  0  0  0
  5  8  1  6  0  0  0
  5  4  1  0  0  0  0
  5  1  1  0  0  0  0
  6 34  1  6  0  0  0
  6  2  1  0  0  0  0
  8  7  1  6  0  0  0
  9 20  1  6  0  0  0
  9 16  1  0  0  0  0
 10 13  1  0  0  0  0
 10 14  1  1  0  0  0
 11  9  1  0  0  0  0
 11 17  1  0  0  0  0
 12  8  1  0  0  0  0
 13 12  1  0  0  0  0
 15 12  2  0  0  0  0
 17 18  1  1  0  0  0
 17 19  1  0  0  0  0
 19 16  1  6  0  0  0
 19 10  1  0  0  0  0
 19 13  1  0  0  0  0
 20 21  1  6  0  0  0
 20 29  1  0  0  0  0
 22 21  1  0  0  0  0
 23 24  1  0  0  0  0
 23 20  1  0  0  0  0
 25 24  1  0  0  0  0
 25 28  1  0  0  0  0
 26 28  1  0  0  0  0
 28 27  1  0  0  0  0
 30 32  2  0  0  0  0
 31 29  1  6  0  0  0
 31 30  1  0  0  0  0
 33 31  1  0  0  0  0
 33 30  1  0  0  0  0
 34 37  1  6  0  0  0
 35 37  2  0  0  0  0
 37 36  1  0  0  0  0
 38 44  1  0  0  0  0
 38 34  1  0  0  0  0
 39 38  1  0  0  0  0
 40 39  1  0  0  0  0
 41 40  1  0  0  0  0
 42 41  1  0  0  0  0
 43 42  1  0  0  0  0
 44 45  1  1  0  0  0
 44 58  1  0  0  0  0
 45 47  1  0  0  0  0
 46 45  2  0  0  0  0
 47 48  1  6  0  0  0
 47 49  1  0  0  0  0
 49 50  1  0  0  0  0
 50 51  1  0  0  0  0
 52 54  1  6  0  0  0
 52 56  1  0  0  0  0
 53 52  1  0  0  0  0
 53 51  1  1  0  0  0
 55 53  1  0  0  0  0
 55 52  1  0  0  0  0
 56 57  2  0  0  0  0
 60 59  1  0  0  0  0
 60 58  1  0  0  0  0
M  END
>  <MODEL>
8

>  <REMARK>
 VINA RESULT:      -3.5      2.860      6.832
  Name = 
  27 active torsions:
  status: ('A' for Active; 'I' for Inactive)
    1  A    between atoms: C_1  and  C_18
    2  A    between atoms: C_1  and  N_19
    3  A    between atoms: C_1  and  C_55
    4  A    between atoms: C_2  and  O_41
    5  A    between atoms: C_2  and  C_50
    6  A    between atoms: C_4  and  C_20
    7  A    between atoms: C_6  and  C_20
    8  A    between atoms: C_7  and  C_12
    9  A    between atoms: C_7  and  C_16
   10  A    between atoms: C_8  and  C_17
   11  A    between atoms: S_10  and  C_20
   12  A    between atoms: S_10  and  C_23
   13  A    between atoms: C_12  and  N_19
   14  A    between atoms: C_12  and  S_24
   15  A    between atoms: C_14  and  C_26
   16  A    between atoms: C_14  and  N_57
   17  A    between atoms: C_16  and  C_52
   18  A    between atoms: N_19  and  C_21
   19  A    between atoms: C_20  and  O_29
   20  A    between atoms: C_21  and  O_41
   21  A    between atoms: S_24  and  C_54
   22  A    between atoms: O_29  and  C_39
   23  A    between atoms: C_30  and  C_46
   24  A    between atoms: C_39  and  C_40
   25  A    between atoms: C_40  and  N_48
   26  A    between atoms: C_46  and  C_47
   27  A    between atoms: C_52  and  N_57
                            x       y       z     vdW  Elec       q    Type
                         _______ _______ _______ _____ _____    ______ ____

>  <TORSDO>
F 27

$$$$
=
 OpenBabel11062420403D

 60 65  0  0  1  0  0  0  0  0999 V2000
  189.4360  171.8800  144.3000 C   0  0  0  0  0  2  0  0  0  0  0  0
  192.0280  170.4000  144.0870 O   0  0  0  0  0  0  0  0  0  0  0  0
  190.9960  170.5220  143.1120 C   0  0  0  0  0  2  0  0  0  0  0  0
  190.7530  171.9280  143.5290 C   0  0  1  0  0  0  0  0  0  0  0  0
  189.6620  172.9820  143.3180 C   0  0  1  0  0  3  0  0  0  0  0  0
  191.8190  171.7320  144.5470 C   0  0  2  0  0  3  0  0  0  0  0  0
  187.6950  173.3630  142.0150 O   0  0  0  0  0  1  0  0  0  0  0  0
  188.9230  172.6970  142.0120 C   0  0  1  0  0  3  0  0  0  0  0  0
  192.3220  172.7140  136.9490 C   0  0  1  0  0  3  0  0  0  0  0  0
  189.9010  170.9300  139.0420 C   0  0  2  0  0  3  0  0  0  0  0  0
  190.9690  172.8340  136.2290 C   0  0  0  0  0  2  0  0  0  0  0  0
  189.7530  173.1320  140.8410 C   0  0  0  0  0  0  0  0  0  0  0  0
  190.0050  172.2530  139.7460 N   0  0  0  0  0  0  0  0  0  0  0  0
  190.8080  169.9250  139.7360 C   0  0  0  0  0  1  0  0  0  0  0  0
  190.2110  174.3060  140.8060 O   0  0  0  0  0  0  0  0  0  0  0  0
  192.0730  172.0940  138.3270 C   0  0  0  0  0  2  0  0  0  0  0  0
  189.8730  172.6870  137.2720 C   0  0  2  0  0  3  0  0  0  0  0  0
  189.4760  173.9490  137.6810 F   0  0  0  0  0  0  0  0  0  0  0  0
  190.5670  171.9620  138.3960 C   0  0  1  0  0  0  0  0  0  0  0  0
  193.3810  171.9740  136.0810 C   0  0  1  0  0  0  0  0  0  0  0  0
  192.9860  170.5000  135.8600 C   0  0  0  0  0  2  0  0  0  0  0  0
  193.1090  170.1560  134.5130 O   0  0  0  0  0  1  0  0  0  0  0  0
  193.6140  172.6350  134.8430 O   0  0  0  0  0  0  0  0  0  0  0  0
  194.4010  173.7890  135.0280 C   0  0  0  0  0  2  0  0  0  0  0  0
  193.6640  175.0130  134.5130 C   0  0  0  0  0  2  0  0  0  0  0  0
  194.7670  175.7140  136.4410 C   0  0  0  0  0  1  0  0  0  0  0  0
  194.8360  176.9440  134.5570 O   0  0  0  0  0  1  0  0  0  0  0  0
  194.0000  176.1870  135.3030 N   0  0  0  0  0  0  0  0  0  0  0  0
  194.9790  172.0470  136.9970 S   0  0  0  0  0  0  0  0  0  0  0  0
  195.8400  170.2880  138.7790 C   0  0  0  0  0  0  0  0  0  0  0  0
  194.9890  170.3590  137.6990 C   0  0  2  0  0  3  0  0  0  0  0  0
  196.1260  170.4990  139.9890 O   0  0  0  0  0  0  0  0  0  0  0  0
  196.1890  169.7670  137.4190 O   0  0  0  0  0  0  0  0  0  0  0  0
  193.0460  172.6310  144.3020 C   0  0  1  0  0  3  0  0  0  0  0  0
  193.3720  171.8940  141.9400 O   0  0  0  0  0  0  0  0  0  0  0  0
  195.0590  171.6120  143.4610 O   0  0  0  0  0  1  0  0  0  0  0  0
  193.8980  172.0310  143.2160 C   0  0  0  0  0  0  0  0  0  0  0  0
  192.6800  174.0550  144.0980 N   0  0  0  0  0  0  0  0  0  0  0  0
  193.2060  174.6230  142.8490 C   0  0  0  0  0  2  0  0  0  0  0  0
  193.5470  175.9670  143.0360 O   0  0  0  0  0  0  0  0  0  0  0  0
  193.6920  176.4850  141.7470 C   0  0  0  0  0  2  0  0  0  0  0  0
  195.1420  176.3880  141.3120 C   0  0  0  0  0  2  0  0  0  0  0  0
  195.2380  175.6460  140.1370 O   0  0  0  0  0  1  0  0  0  0  0  0
  193.1950  174.8140  145.2490 C   0  0  1  0  0  3  0  0  0  0  0  0
  192.1560  175.3510  146.2230 C   0  0  0  0  0  0  0  0  0  0  0  0
  192.4940  175.6270  147.3670 O   0  0  0  0  0  0  0  0  0  0  0  0
  190.7150  175.4890  145.8270 C   0  0  1  0  0  3  0  0  0  0  0  0
  189.8110  174.9560  146.9350 C   0  0  0  0  0  1  0  0  0  0  0  0
  190.3710  176.9370  145.5110 C   0  0  0  0  0  2  0  0  0  0  0  0
  189.2400  177.3570  146.3230 N   0  0  0  0  0  2  0  0  0  0  0  0
  188.0730  177.4370  145.4550 C   0  0  0  0  0  2  0  0  0  0  0  0
  187.4180  177.7150  143.0200 C   0  0  1  0  0  0  0  0  0  0  0  0
  188.4980  177.3820  143.9890 C   0  0  2  0  0  3  0  0  0  0  0  0
  187.8760  178.1280  141.6340 C   0  0  0  0  0  1  0  0  0  0  0  0
  187.7550  176.3850  143.3170 O   0  0  0  0  0  0  0  0  0  0  0  0
  186.0350  178.0650  143.4930 C   0  0  0  0  0  3  0  0  0  0  0  0
  185.7760  179.2390  144.0670 C   0  0  0  0  0  2  0  0  0  0  0  0
  194.6980  174.0580  145.9850 S   0  0  0  0  0  0  0  0  0  0  0  0
  196.8650  174.6100  144.4290 C   0  0  0  0  0  1  0  0  0  0  0  0
  195.8650  175.2910  145.3390 C   0  0  0  0  0  2  0  0  0  0  0  0
  2  6  1  0  0  0  0
  3  2  1  0  0  0  0
  4  3  1  6  0  0  0
  4  1  1  0  0  0  0
  4  6  1  0  0  0  0
  5  8  1  6  0  0  0
  5  4  1  0  0  0  0
  5  1  1  0  0  0  0
  6 34  1  6  0  0  0
  8  7  1  1  0  0  0
  9 20  1  6  0  0  0
  9 16  1  0  0  0  0
 10 14  1  1  0  0  0
 10 13  1  0  0  0  0
 11  9  1  0  0  0  0
 11 17  1  0  0  0  0
 12  8  1  0  0  0  0
 13 12  1  0  0  0  0
 15 12  2  0  0  0  0
 17 18  1  1  0  0  0
 17 19  1  0  0  0  0
 19 16  1  6  0  0  0
 19 10  1  0  0  0  0
 19 13  1  0  0  0  0
 20 21  1  6  0  0  0
 20 29  1  0  0  0  0
 22 21  1  0  0  0  0
 23 24  1  0  0  0  0
 23 20  1  0  0  0  0
 25 24  1  0  0  0  0
 25 28  1  0  0  0  0
 27 28  1  0  0  0  0
 28 26  1  0  0  0  0
 30 32  2  0  0  0  0
 31 29  1  6  0  0  0
 31 30  1  0  0  0  0
 33 31  1  0  0  0  0
 33 30  1  0  0  0  0
 34 37  1  6  0  0  0
 35 37  2  0  0  0  0
 37 36  1  0  0  0  0
 38 34  1  0  0  0  0
 38 44  1  0  0  0  0
 39 40  1  0  0  0  0
 39 38  1  0  0  0  0
 41 40  1  0  0  0  0
 42 41  1  0  0  0  0
 43 42  1  0  0  0  0
 44 58  1  1  0  0  0
 44 45  1  0  0  0  0
 45 46  2  0  0  0  0
 47 45  1  0  0  0  0
 47 48  1  1  0  0  0
 49 47  1  0  0  0  0
 49 50  1  0  0  0  0
 51 50  1  0  0  0  0
 52 54  1  6  0  0  0
 52 55  1  0  0  0  0
 52 56  1  0  0  0  0
 52 53  1  0  0  0  0
 53 51  1  1  0  0  0
 55 53  1  0  0  0  0
 56 57  2  0  0  0  0
 59 60  1  0  0  0  0
 60 58  1  0  0  0  0
M  END
>  <MODEL>
9

>  <REMARK>
 VINA RESULT:      -3.3      2.701      6.655
  Name = 
  27 active torsions:
  status: ('A' for Active; 'I' for Inactive)
    1  A    between atoms: C_1  and  C_18
    2  A    between atoms: C_1  and  N_19
    3  A    between atoms: C_1  and  C_55
    4  A    between atoms: C_2  and  O_41
    5  A    between atoms: C_2  and  C_50
    6  A    between atoms: C_4  and  C_20
    7  A    between atoms: C_6  and  C_20
    8  A    between atoms: C_7  and  C_12
    9  A    between atoms: C_7  and  C_16
   10  A    between atoms: C_8  and  C_17
   11  A    between atoms: S_10  and  C_20
   12  A    between atoms: S_10  and  C_23
   13  A    between atoms: C_12  and  N_19
   14  A    between atoms: C_12  and  S_24
   15  A    between atoms: C_14  and  C_26
   16  A    between atoms: C_14  and  N_57
   17  A    between atoms: C_16  and  C_52
   18  A    between atoms: N_19  and  C_21
   19  A    between atoms: C_20  and  O_29
   20  A    between atoms: C_21  and  O_41
   21  A    between atoms: S_24  and  C_54
   22  A    between atoms: O_29  and  C_39
   23  A    between atoms: C_30  and  C_46
   24  A    between atoms: C_39  and  C_40
   25  A    between atoms: C_40  and  N_48
   26  A    between atoms: C_46  and  C_47
   27  A    between atoms: C_52  and  N_57
                            x       y       z     vdW  Elec       q    Type
                         _______ _______ _______ _____ _____    ______ ____

>  <TORSDO>
F 27

$$$$
