=
 OpenBabel11072408523D

 60 63  0  0  1  0  0  0  0  0999 V2000
  193.6470  172.6330  139.0300 O   0  0  0  0  0  0  0  0  0  0  0  0
  192.6300  171.7330  139.6740 S   0  0  0  0  0  0  0  0  0  0  0  0
  192.1070  170.7860  138.6300 O   0  0  0  0  0  0  0  0  0  0  0  0
  189.0150  173.9130  137.8900 C   0  0  0  0  0  0  0  0  0  0  0  0
  190.2650  173.1310  138.0760 C   0  0  2  0  0  3  0  0  0  0  0  0
  190.4320  173.2610  139.5550 C   0  0  0  0  0  0  0  0  0  0  0  0
  191.3530  172.7170  140.2790 N   0  0  0  0  0  0  0  0  0  0  0  0
  189.2590  173.9820  140.1440 C   0  0  1  0  0  3  0  0  0  0  0  0
  190.9030  173.8410  135.7840 C   0  0  0  0  0  2  0  0  0  0  0  0
  191.3390  173.8380  137.2560 C   0  0  0  0  0  2  0  0  0  0  0  0
  189.5080  174.4050  135.6200 C   0  0  0  0  0  3  0  0  0  0  0  0
  188.4920  174.3810  138.9750 N   0  0  0  0  0  0  0  0  0  0  0  0
  188.6510  174.4180  136.6020 N   0  0  0  0  0  0  0  0  0  0  0  0
  188.4170  173.0490  141.0050 C   0  0  0  0  0  2  0  0  0  0  0  0
  187.9190  173.7360  142.1140 O   0  0  0  0  0  0  0  0  0  0  0  0
  189.0540  174.2420  142.7500 C   0  0  0  0  0  2  0  0  0  0  0  0
  188.6650  175.2590  143.8160 C   0  0  1  0  0  3  0  0  0  0  0  0
  189.5860  175.2170  144.8630 O   0  0  0  0  0  1  0  0  0  0  0  0
  188.5970  176.6800  143.2530 C   0  0  0  0  0  2  0  0  0  0  0  0
  187.1880  177.0900  142.8000 C   0  0  2  0  0  3  0  0  0  0  0  0
  187.2650  178.0730  141.8080 O   0  0  0  0  0  0  0  0  0  0  0  0
  187.4260  177.3680  140.6130 C   0  0  0  0  0  2  0  0  0  0  0  0
  186.1790  177.5080  139.7610 C   0  0  0  0  0  2  0  0  0  0  0  0
  186.3600  176.8490  138.5450 O   0  0  0  0  0  1  0  0  0  0  0  0
  186.3210  177.5640  143.9710 C   0  0  2  0  0  3  0  0  0  0  0  0
  184.1800  178.2030  143.1250 O   0  0  0  0  0  1  0  0  0  0  0  0
  185.4180  178.7060  143.5260 C   0  0  0  0  0  2  0  0  0  0  0  0
  187.1320  177.9980  145.0270 O   0  0  0  0  0  0  0  0  0  0  0  0
  186.2370  178.4220  146.0130 C   0  0  0  0  0  2  0  0  0  0  0  0
  185.8610  177.9010  148.3120 O   0  0  0  0  0  1  0  0  0  0  0  0
  187.3060  176.4660  147.0860 C   0  0  0  0  0  1  0  0  0  0  0  0
  186.0630  177.3310  147.0540 C   0  0  2  0  0  3  0  0  0  0  0  0
  194.8080  170.8570  143.6310 C   0  0  2  0  0  3  0  0  0  0  0  0
  195.4980  170.4820  142.3150 C   0  0  0  0  0  2  0  0  0  0  0  0
  193.3100  170.9120  143.4910 C   0  0  0  0  0  0  0  0  0  0  0  0
  192.7150  171.0830  142.2360 O   0  0  0  0  0  0  0  0  0  0  0  0
  193.4170  170.8480  141.0160 C   0  0  2  0  0  3  0  0  0  0  0  0
  192.5880  170.8730  144.5220 O   0  0  0  0  0  0  0  0  0  0  0  0
  194.8870  171.2340  141.1390 C   0  0  0  0  0  2  0  0  0  0  0  0
  194.7250  173.2190  144.0470 C   0  0  0  0  0  3  0  0  0  0  0  0
  195.3360  172.0920  144.1730 N   0  0  0  0  0  0  0  0  0  0  0  0
  194.5310  176.3040  145.8520 C   0  0  0  0  0  0  0  0  0  0  0  0
  195.1350  175.7570  143.6910 C   0  0  2  0  0  0  0  0  0  0  0  0
  194.1880  177.0370  146.8160 O   0  0  0  0  0  0  0  0  0  0  0  0
  194.5960  174.8320  145.9160 C   0  0  0  0  0  2  0  0  0  0  0  0
  194.8710  176.8060  144.6150 O   0  0  0  0  0  0  0  0  0  0  0  0
  196.6570  174.2660  144.9110 O   0  0  0  0  0  1  0  0  0  0  0  0
  195.3080  174.4850  144.6070 C   0  0  1  0  0  0  0  0  0  0  0  0
  197.0600  177.1130  143.1780 O   0  0  0  0  0  0  0  0  0  0  0  0
  196.7620  175.2550  141.7920 N   0  0  0  0  0  2  0  0  0  0  0  0
  196.3790  176.0860  142.8950 C   0  0  0  0  0  0  0  0  0  0  0  0
  197.8940  175.5580  140.9320 C   0  0  0  0  0  2  0  0  0  0  0  0
  197.3240  173.8570  139.2690 C   0  0  0  0  0  3  0  0  0  0  0  0
  197.5990  175.1330  139.5330 C   0  0  0  0  0  3  0  0  0  0  0  0
  197.0250  173.4110  137.8720 C   0  0  0  0  0  2  0  0  0  0  0  0
  195.8330  173.9360  135.8070 N   0  0  0  0  0  1  0  0  0  0  0  0
  196.1330  174.4100  137.1490 C   0  0  0  0  0  2  0  0  0  0  0  0
  193.8840  174.6450  141.7920 O   0  0  0  0  0  0  0  0  0  0  0  0
  192.9650  176.4310  142.8830 O   0  0  0  0  0  1  0  0  0  0  0  0
  193.9450  175.6480  142.7550 C   0  0  0  0  0  0  0  0  0  0  0  0
  1  2  2  0  0  0  0
  2  7  1  0  0  0  0
  3  2  2  0  0  0  0
  4  5  1  0  0  0  0
  4 12  2  0  0  0  0
  5 10  1  6  0  0  0
  5  6  1  0  0  0  0
  6  8  1  0  0  0  0
  6  7  2  0  0  0  0
  8 14  1  1  0  0  0
  9 10  1  0  0  0  0
 11  9  1  0  0  0  0
 11 13  2  0  0  0  0
 12  8  1  0  0  0  0
 13  4  1  0  0  0  0
 14 15  1  0  0  0  0
 15 16  1  0  0  0  0
 16 17  1  0  0  0  0
 17 18  1  1  0  0  0
 19 17  1  0  0  0  0
 20 19  1  1  0  0  0
 20 25  1  0  0  0  0
 21 20  1  0  0  0  0
 22 21  1  0  0  0  0
 23 22  1  0  0  0  0
 24 23  1  0  0  0  0
 25 27  1  6  0  0  0
 25 28  1  0  0  0  0
 26 27  1  0  0  0  0
 28 29  1  0  0  0  0
 29 32  1  0  0  0  0
 32 31  1  1  0  0  0
 32 30  1  0  0  0  0
 33 41  1  6  0  0  0
 34 33  1  0  0  0  0
 35 33  1  0  0  0  0
 35 38  2  0  0  0  0
 36 35  1  0  0  0  0
 37  2  1  6  0  0  0
 37 39  1  0  0  0  0
 37 36  1  0  0  0  0
 39 34  1  0  0  0  0
 40 41  2  0  0  0  0
 40 48  1  0  0  0  0
 42 45  1  0  0  0  0
 42 44  2  0  0  0  0
 43 60  1  6  0  0  0
 43 48  1  0  0  0  0
 43 46  1  0  0  0  0
 46 42  1  0  0  0  0
 48 47  1  1  0  0  0
 48 45  1  0  0  0  0
 50 51  1  0  0  0  0
 51 49  2  0  0  0  0
 51 43  1  0  0  0  0
 52 50  1  0  0  0  0
 53 54  2  0  0  0  0
 54 52  1  0  0  0  0
 55 53  1  0  0  0  0
 56 57  1  0  0  0  0
 57 55  1  0  0  0  0
 58 60  2  0  0  0  0
 60 59  1  0  0  0  0
M  END
>  <MODEL>
1

>  <REMARK>
 VINA RESULT:      -5.8      0.000      0.000
  Name = 
  24 active torsions:
  status: ('A' for Active; 'I' for Inactive)
    1  A    between atoms: C_3  and  C_26
    2  A    between atoms: C_3  and  C_56
    3  A    between atoms: C_4  and  N_19
    4  A    between atoms: C_5  and  C_48
    5  A    between atoms: C_6  and  C_22
    6  A    between atoms: C_6  and  C_44
    7  A    between atoms: C_7  and  O_50
    8  A    between atoms: C_7  and  C_51
    9  A    between atoms: C_11  and  C_39
   10  A    between atoms: N_17  and  S_46
   11  A    between atoms: C_18  and  C_47
   12  A    between atoms: C_18  and  C_59
   13  A    between atoms: C_24  and  C_53
   14  A    between atoms: C_26  and  O_43
   15  A    between atoms: C_31  and  S_46
   16  A    between atoms: N_32  and  C_53
   17  A    between atoms: C_35  and  C_41
   18  A    between atoms: C_41  and  O_43
   19  A    between atoms: O_45  and  C_48
   20  A    between atoms: O_45  and  C_49
   21  A    between atoms: C_49  and  C_55
   22  A    between atoms: C_49  and  C_56
   23  A    between atoms: O_50  and  C_55
   24  A    between atoms: C_55  and  C_58
                            x       y       z     vdW  Elec       q    Type
                         _______ _______ _______ _____ _____    ______ ____

>  <TORSDO>
F 24

$$$$
=
 OpenBabel11072408523D

 60 63  0  0  1  0  0  0  0  0999 V2000
  189.2330  175.3220  147.3380 O   0  0  0  0  0  0  0  0  0  0  0  0
  189.2720  176.4140  146.3070 S   0  0  0  0  0  0  0  0  0  0  0  0
  188.5060  177.5940  146.8360 O   0  0  0  0  0  0  0  0  0  0  0  0
  185.7330  177.6440  143.6670 C   0  0  0  0  0  0  0  0  0  0  0  0
  186.7420  177.5500  144.7540 C   0  0  2  0  0  3  0  0  0  0  0  0
  187.4890  176.3360  144.3080 C   0  0  0  0  0  0  0  0  0  0  0  0
  188.5290  175.8190  144.8720 N   0  0  0  0  0  0  0  0  0  0  0  0
  186.9730  175.8720  142.9810 C   0  0  1  0  0  3  0  0  0  0  0  0
  185.0510  178.5900  146.2440 C   0  0  0  0  0  2  0  0  0  0  0  0
  185.9600  177.3690  146.0510 C   0  0  0  0  0  2  0  0  0  0  0  0
  184.1970  178.8450  145.0210 C   0  0  0  0  0  3  0  0  0  0  0  0
  185.8370  176.7480  142.7410 N   0  0  0  0  0  0  0  0  0  0  0  0
  184.5360  178.4090  143.8410 N   0  0  0  0  0  0  0  0  0  0  0  0
  188.0100  176.0800  141.8850 C   0  0  0  0  0  2  0  0  0  0  0  0
  188.1630  174.9090  141.1400 O   0  0  0  0  0  0  0  0  0  0  0  0
  189.4790  174.5100  141.3810 C   0  0  0  0  0  2  0  0  0  0  0  0
  189.5310  173.0380  141.7740 C   0  0  1  0  0  3  0  0  0  0  0  0
  188.3060  172.6550  142.3210 O   0  0  0  0  0  1  0  0  0  0  0  0
  189.8620  172.1390  140.5820 C   0  0  0  0  0  2  0  0  0  0  0  0
  190.3690  172.9120  139.3560 C   0  0  2  0  0  3  0  0  0  0  0  0
  189.5610  172.6450  138.2460 O   0  0  0  0  0  0  0  0  0  0  0  0
  188.9980  173.8770  137.9050 C   0  0  0  0  0  2  0  0  0  0  0  0
  189.4140  174.2610  136.4980 C   0  0  0  0  0  2  0  0  0  0  0  0
  188.4450  175.0880  135.9270 O   0  0  0  0  0  1  0  0  0  0  0  0
  191.8380  172.6060  139.0480 C   0  0  2  0  0  3  0  0  0  0  0  0
  192.9480  174.3050  140.3090 O   0  0  0  0  0  1  0  0  0  0  0  0
  192.6470  173.8960  139.0100 C   0  0  0  0  0  2  0  0  0  0  0  0
  191.9460  171.9550  137.8130 O   0  0  0  0  0  0  0  0  0  0  0  0
  193.0220  171.0770  137.9630 C   0  0  0  0  0  2  0  0  0  0  0  0
  194.8130  171.6360  136.4880 O   0  0  0  0  0  1  0  0  0  0  0  0
  192.6980  171.1610  135.5130 C   0  0  0  0  0  1  0  0  0  0  0  0
  193.6800  170.8320  136.6180 C   0  0  2  0  0  3  0  0  0  0  0  0
  193.7220  176.0420  145.1990 C   0  0  2  0  0  3  0  0  0  0  0  0
  193.3530  176.4890  146.6170 C   0  0  0  0  0  2  0  0  0  0  0  0
  192.6320  176.3490  144.2060 C   0  0  0  0  0  0  0  0  0  0  0  0
  191.3130  176.5470  144.6310 O   0  0  0  0  0  0  0  0  0  0  0  0
  190.9800  176.8400  145.9880 C   0  0  2  0  0  3  0  0  0  0  0  0
  192.8970  176.3580  142.9750 O   0  0  0  0  0  0  0  0  0  0  0  0
  191.9150  176.1210  146.9550 C   0  0  0  0  0  2  0  0  0  0  0  0
  194.6920  174.1120  144.1530 C   0  0  0  0  0  3  0  0  0  0  0  0
  194.0940  174.6430  145.1630 N   0  0  0  0  0  0  0  0  0  0  0  0
  196.0950  171.1520  145.5950 C   0  0  0  0  0  0  0  0  0  0  0  0
  196.5160  172.3340  143.6570 C   0  0  2  0  0  0  0  0  0  0  0  0
  196.2930  170.3240  146.5220 O   0  0  0  0  0  0  0  0  0  0  0  0
  194.9670  172.1030  145.5660 C   0  0  0  0  0  2  0  0  0  0  0  0
  196.9270  171.2680  144.5050 O   0  0  0  0  0  0  0  0  0  0  0  0
  194.1060  171.9630  143.3710 O   0  0  0  0  0  1  0  0  0  0  0  0
  195.0500  172.6530  144.1410 C   0  0  1  0  0  0  0  0  0  0  0  0
  197.2530  170.8640  141.8950 O   0  0  0  0  0  0  0  0  0  0  0  0
  195.9020  172.6400  141.2000 N   0  0  0  0  0  2  0  0  0  0  0  0
  196.5770  171.8840  142.2130 C   0  0  0  0  0  0  0  0  0  0  0  0
  195.9880  172.3170  139.7850 C   0  0  0  0  0  2  0  0  0  0  0  0
  196.6450  174.5130  138.9320 C   0  0  0  0  0  3  0  0  0  0  0  0
  196.9550  173.2310  139.1120 C   0  0  0  0  0  3  0  0  0  0  0  0
  197.6020  175.4460  138.2590 C   0  0  0  0  0  2  0  0  0  0  0  0
  197.5710  176.0170  135.8850 N   0  0  0  0  0  1  0  0  0  0  0  0
  197.9260  174.9840  136.8450 C   0  0  0  0  0  2  0  0  0  0  0  0
  197.8970  173.8420  145.1480 O   0  0  0  0  0  1  0  0  0  0  0  0
  197.9370  174.1210  142.8800 O   0  0  0  0  0  0  0  0  0  0  0  0
  197.4700  173.4950  143.8700 C   0  0  0  0  0  0  0  0  0  0  0  0
  2  3  2  0  0  0  0
  2  1  2  0  0  0  0
  4 13  1  0  0  0  0
  4  5  1  0  0  0  0
  5 10  1  1  0  0  0
  6  5  1  0  0  0  0
  6  7  2  0  0  0  0
  7  2  1  0  0  0  0
  8 14  1  6  0  0  0
  8  6  1  0  0  0  0
 10  9  1  0  0  0  0
 11  9  1  0  0  0  0
 12  8  1  0  0  0  0
 12  4  2  0  0  0  0
 13 11  2  0  0  0  0
 15 16  1  0  0  0  0
 15 14  1  0  0  0  0
 16 17  1  0  0  0  0
 17 18  1  6  0  0  0
 19 17  1  0  0  0  0
 20 19  1  1  0  0  0
 21 20  1  0  0  0  0
 22 21  1  0  0  0  0
 23 22  1  0  0  0  0
 24 23  1  0  0  0  0
 25 27  1  6  0  0  0
 25 20  1  0  0  0  0
 27 26  1  0  0  0  0
 28 29  1  0  0  0  0
 28 25  1  0  0  0  0
 30 32  1  0  0  0  0
 32 31  1  6  0  0  0
 32 29  1  0  0  0  0
 33 41  1  1  0  0  0
 33 34  1  0  0  0  0
 34 39  1  0  0  0  0
 35 36  1  0  0  0  0
 35 33  1  0  0  0  0
 36 37  1  0  0  0  0
 37  2  1  1  0  0  0
 37 39  1  0  0  0  0
 38 35  2  0  0  0  0
 40 41  2  0  0  0  0
 42 44  2  0  0  0  0
 43 51  1  6  0  0  0
 43 60  1  0  0  0  0
 43 48  1  0  0  0  0
 43 46  1  0  0  0  0
 45 42  1  0  0  0  0
 46 42  1  0  0  0  0
 48 47  1  6  0  0  0
 48 40  1  0  0  0  0
 48 45  1  0  0  0  0
 49 51  2  0  0  0  0
 50 51  1  0  0  0  0
 52 50  1  0  0  0  0
 53 54  2  0  0  0  0
 54 52  1  0  0  0  0
 55 53  1  0  0  0  0
 56 57  1  0  0  0  0
 57 55  1  0  0  0  0
 59 60  2  0  0  0  0
 60 58  1  0  0  0  0
M  END
>  <MODEL>
2

>  <REMARK>
 VINA RESULT:      -5.5      2.786      7.261
  Name = 
  24 active torsions:
  status: ('A' for Active; 'I' for Inactive)
    1  A    between atoms: C_3  and  C_26
    2  A    between atoms: C_3  and  C_56
    3  A    between atoms: C_4  and  N_19
    4  A    between atoms: C_5  and  C_48
    5  A    between atoms: C_6  and  C_22
    6  A    between atoms: C_6  and  C_44
    7  A    between atoms: C_7  and  O_50
    8  A    between atoms: C_7  and  C_51
    9  A    between atoms: C_11  and  C_39
   10  A    between atoms: N_17  and  S_46
   11  A    between atoms: C_18  and  C_47
   12  A    between atoms: C_18  and  C_59
   13  A    between atoms: C_24  and  C_53
   14  A    between atoms: C_26  and  O_43
   15  A    between atoms: C_31  and  S_46
   16  A    between atoms: N_32  and  C_53
   17  A    between atoms: C_35  and  C_41
   18  A    between atoms: C_41  and  O_43
   19  A    between atoms: O_45  and  C_48
   20  A    between atoms: O_45  and  C_49
   21  A    between atoms: C_49  and  C_55
   22  A    between atoms: C_49  and  C_56
   23  A    between atoms: O_50  and  C_55
   24  A    between atoms: C_55  and  C_58
                            x       y       z     vdW  Elec       q    Type
                         _______ _______ _______ _____ _____    ______ ____

>  <TORSDO>
F 24

$$$$
=
 OpenBabel11072408523D

 60 63  0  0  1  0  0  0  0  0999 V2000
  196.7780  175.8580  141.8640 O   0  0  0  0  0  0  0  0  0  0  0  0
  195.6390  175.0310  141.3370 S   0  0  0  0  0  0  0  0  0  0  0  0
  194.4160  175.9020  141.2610 O   0  0  0  0  0  0  0  0  0  0  0  0
  193.7340  174.5350  145.4770 C   0  0  0  0  0  0  0  0  0  0  0  0
  194.2780  175.0890  144.2090 C   0  0  2  0  0  3  0  0  0  0  0  0
  194.8210  173.8400  143.5940 C   0  0  0  0  0  0  0  0  0  0  0  0
  195.3740  173.7290  142.4330 N   0  0  0  0  0  0  0  0  0  0  0  0
  194.4780  172.6560  144.4450 C   0  0  1  0  0  3  0  0  0  0  0  0
  194.6690  177.2050  145.4470 C   0  0  0  0  0  2  0  0  0  0  0  0
  195.3400  176.1090  144.6080 C   0  0  0  0  0  2  0  0  0  0  0  0
  193.8890  176.6190  146.6040 C   0  0  0  0  0  3  0  0  0  0  0  0
  193.8560  173.2560  145.6150 N   0  0  0  0  0  0  0  0  0  0  0  0
  193.4590  175.3890  146.5920 N   0  0  0  0  0  0  0  0  0  0  0  0
  193.4700  171.7520  143.7470 C   0  0  0  0  0  2  0  0  0  0  0  0
  192.2360  171.8150  144.3970 O   0  0  0  0  0  0  0  0  0  0  0  0
  191.3040  171.9520  143.3670 C   0  0  0  0  0  2  0  0  0  0  0  0
  190.0290  172.6120  143.8790 C   0  0  1  0  0  3  0  0  0  0  0  0
  189.1450  171.6330  144.3340 O   0  0  0  0  0  1  0  0  0  0  0  0
  190.3130  173.6070  145.0070 C   0  0  0  0  0  2  0  0  0  0  0  0
  189.8060  175.0250  144.7100 C   0  0  2  0  0  3  0  0  0  0  0  0
  190.8310  175.7990  144.1540 O   0  0  0  0  0  0  0  0  0  0  0  0
  190.2950  176.3080  142.9680 C   0  0  0  0  0  2  0  0  0  0  0  0
  190.6050  177.7890  142.8570 C   0  0  0  0  0  2  0  0  0  0  0  0
  190.6230  178.3650  144.1280 O   0  0  0  0  0  1  0  0  0  0  0  0
  189.2260  175.7030  145.9550 C   0  0  2  0  0  3  0  0  0  0  0  0
  190.4320  175.1730  147.9490 O   0  0  0  0  0  1  0  0  0  0  0  0
  189.3500  174.7810  147.1600 C   0  0  0  0  0  2  0  0  0  0  0  0
  187.8770  176.0170  145.7480 O   0  0  0  0  0  0  0  0  0  0  0  0
  187.6690  177.1930  146.4740 C   0  0  0  0  0  2  0  0  0  0  0  0
  185.3250  176.7830  146.2840 O   0  0  0  0  0  1  0  0  0  0  0  0
  186.0220  178.4780  147.7970 C   0  0  0  0  0  1  0  0  0  0  0  0
  186.3310  177.1270  147.1880 C   0  0  2  0  0  3  0  0  0  0  0  0
  195.3000  173.3330  137.0750 C   0  0  2  0  0  3  0  0  0  0  0  0
  195.9890  172.4860  138.1500 C   0  0  0  0  0  2  0  0  0  0  0  0
  195.3540  174.8040  137.3910 C   0  0  0  0  0  0  0  0  0  0  0  0
  195.5590  175.2470  138.7030 O   0  0  0  0  0  0  0  0  0  0  0  0
  196.0870  174.4000  139.7240 C   0  0  2  0  0  3  0  0  0  0  0  0
  195.1420  175.6440  136.4780 O   0  0  0  0  0  0  0  0  0  0  0  0
  195.6160  172.9600  139.5480 C   0  0  0  0  0  2  0  0  0  0  0  0
  192.9200  173.5030  137.3300 C   0  0  0  0  0  3  0  0  0  0  0  0
  193.9420  172.8900  136.8400 N   0  0  0  0  0  0  0  0  0  0  0  0
  189.3560  173.7230  137.5810 C   0  0  0  0  0  0  0  0  0  0  0  0
  190.9070  172.1480  138.2510 C   0  0  2  0  0  0  0  0  0  0  0  0
  188.2480  174.3160  137.5240 O   0  0  0  0  0  0  0  0  0  0  0  0
  190.5850  174.2050  136.9220 C   0  0  0  0  0  2  0  0  0  0  0  0
  189.5440  172.5550  138.2870 O   0  0  0  0  0  0  0  0  0  0  0  0
  191.5040  172.2990  135.8730 O   0  0  0  0  0  1  0  0  0  0  0  0
  191.5240  173.0080  137.0810 C   0  0  1  0  0  0  0  0  0  0  0  0
  189.9250  169.9930  137.8020 O   0  0  0  0  0  0  0  0  0  0  0  0
  192.2530  169.9950  138.0080 N   0  0  0  0  0  2  0  0  0  0  0  0
  190.9830  170.6580  137.9930 C   0  0  0  0  0  0  0  0  0  0  0  0
  192.3940  168.5560  137.8540 C   0  0  0  0  0  2  0  0  0  0  0  0
  194.5820  169.1570  136.9420 C   0  0  0  0  0  3  0  0  0  0  0  0
  193.6190  168.2460  137.0640 C   0  0  0  0  0  3  0  0  0  0  0  0
  195.8190  168.8650  136.1530 C   0  0  0  0  0  2  0  0  0  0  0  0
  196.6760  168.9600  138.4380 N   0  0  0  0  0  1  0  0  0  0  0  0
  197.0590  168.8870  137.0370 C   0  0  0  0  0  2  0  0  0  0  0  0
  191.1820  173.6260  140.2860 O   0  0  0  0  0  1  0  0  0  0  0  0
  192.3120  171.6440  140.1440 O   0  0  0  0  0  0  0  0  0  0  0  0
  191.5250  172.4650  139.6000 C   0  0  0  0  0  0  0  0  0  0  0  0
  2  1  2  0  0  0  0
  2  7  1  0  0  0  0
  3  2  2  0  0  0  0
  4 12  2  0  0  0  0
  4 13  1  0  0  0  0
  5 10  1  1  0  0  0
  5  4  1  0  0  0  0
  6  5  1  0  0  0  0
  6  8  1  0  0  0  0
  7  6  2  0  0  0  0
  8 14  1  6  0  0  0
  8 12  1  0  0  0  0
  9 11  1  0  0  0  0
 10  9  1  0  0  0  0
 13 11  2  0  0  0  0
 14 15  1  0  0  0  0
 16 17  1  0  0  0  0
 16 15  1  0  0  0  0
 17 18  1  1  0  0  0
 17 19  1  0  0  0  0
 20 19  1  1  0  0  0
 20 25  1  0  0  0  0
 21 20  1  0  0  0  0
 22 21  1  0  0  0  0
 23 22  1  0  0  0  0
 23 24  1  0  0  0  0
 25 27  1  1  0  0  0
 27 26  1  0  0  0  0
 28 25  1  0  0  0  0
 28 29  1  0  0  0  0
 29 32  1  0  0  0  0
 30 32  1  0  0  0  0
 32 31  1  6  0  0  0
 33 41  1  1  0  0  0
 33 35  1  0  0  0  0
 33 34  1  0  0  0  0
 34 39  1  0  0  0  0
 35 36  1  0  0  0  0
 36 37  1  0  0  0  0
 37  2  1  1  0  0  0
 38 35  2  0  0  0  0
 39 37  1  0  0  0  0
 41 40  2  0  0  0  0
 42 46  1  0  0  0  0
 43 51  1  6  0  0  0
 43 46  1  0  0  0  0
 43 60  1  0  0  0  0
 44 42  2  0  0  0  0
 45 48  1  0  0  0  0
 45 42  1  0  0  0  0
 48 47  1  6  0  0  0
 48 40  1  0  0  0  0
 48 43  1  0  0  0  0
 49 51  2  0  0  0  0
 51 50  1  0  0  0  0
 52 50  1  0  0  0  0
 53 54  2  0  0  0  0
 54 52  1  0  0  0  0
 55 53  1  0  0  0  0
 55 57  1  0  0  0  0
 57 56  1  0  0  0  0
 60 59  2  0  0  0  0
 60 58  1  0  0  0  0
M  END
>  <MODEL>
3

>  <REMARK>
 VINA RESULT:      -5.4      2.639      7.003
  Name = 
  24 active torsions:
  status: ('A' for Active; 'I' for Inactive)
    1  A    between atoms: C_3  and  C_26
    2  A    between atoms: C_3  and  C_56
    3  A    between atoms: C_4  and  N_19
    4  A    between atoms: C_5  and  C_48
    5  A    between atoms: C_6  and  C_22
    6  A    between atoms: C_6  and  C_44
    7  A    between atoms: C_7  and  O_50
    8  A    between atoms: C_7  and  C_51
    9  A    between atoms: C_11  and  C_39
   10  A    between atoms: N_17  and  S_46
   11  A    between atoms: C_18  and  C_47
   12  A    between atoms: C_18  and  C_59
   13  A    between atoms: C_24  and  C_53
   14  A    between atoms: C_26  and  O_43
   15  A    between atoms: C_31  and  S_46
   16  A    between atoms: N_32  and  C_53
   17  A    between atoms: C_35  and  C_41
   18  A    between atoms: C_41  and  O_43
   19  A    between atoms: O_45  and  C_48
   20  A    between atoms: O_45  and  C_49
   21  A    between atoms: C_49  and  C_55
   22  A    between atoms: C_49  and  C_56
   23  A    between atoms: O_50  and  C_55
   24  A    between atoms: C_55  and  C_58
                            x       y       z     vdW  Elec       q    Type
                         _______ _______ _______ _____ _____    ______ ____

>  <TORSDO>
F 24

$$$$
=
 OpenBabel11072408523D

 60 63  0  0  1  0  0  0  0  0999 V2000
  186.5020  175.2990  142.9760 O   0  0  0  0  0  0  0  0  0  0  0  0
  187.1480  176.4340  142.2330 S   0  0  0  0  0  0  0  0  0  0  0  0
  186.0660  177.3550  141.7400 O   0  0  0  0  0  0  0  0  0  0  0  0
  189.3640  172.5200  141.3550 C   0  0  0  0  0  0  0  0  0  0  0  0
  188.6130  173.6230  142.0100 C   0  0  2  0  0  3  0  0  0  0  0  0
  188.6000  174.6210  140.8980 C   0  0  0  0  0  0  0  0  0  0  0  0
  188.0200  175.7740  140.9030 N   0  0  0  0  0  0  0  0  0  0  0  0
  189.2160  174.0300  139.6680 C   0  0  1  0  0  3  0  0  0  0  0  0
  189.5710  172.8320  144.1590 C   0  0  0  0  0  2  0  0  0  0  0  0
  189.4370  174.0410  143.2230 C   0  0  0  0  0  2  0  0  0  0  0  0
  190.0990  171.6180  143.4250 C   0  0  0  0  0  3  0  0  0  0  0  0
  189.7020  172.7380  140.1270 N   0  0  0  0  0  0  0  0  0  0  0  0
  189.9830  171.4910  142.1330 N   0  0  0  0  0  0  0  0  0  0  0  0
  188.1720  173.8160  138.5790 C   0  0  0  0  0  2  0  0  0  0  0  0
  188.5970  172.8250  137.6930 O   0  0  0  0  0  0  0  0  0  0  0  0
  189.4200  173.4940  136.7860 C   0  0  0  0  0  2  0  0  0  0  0  0
  190.7170  172.7260  136.5660 C   0  0  1  0  0  3  0  0  0  0  0  0
  190.4650  171.5900  135.7970 O   0  0  0  0  0  1  0  0  0  0  0  0
  191.7800  173.5830  135.8770 C   0  0  0  0  0  2  0  0  0  0  0  0
  192.9680  173.9290  136.7860 C   0  0  2  0  0  3  0  0  0  0  0  0
  193.6670  175.0270  136.2740 O   0  0  0  0  0  0  0  0  0  0  0  0
  192.7120  176.0400  136.1600 C   0  0  0  0  0  2  0  0  0  0  0  0
  193.3450  177.2790  135.5540 C   0  0  0  0  0  2  0  0  0  0  0  0
  192.3820  178.0110  134.8590 O   0  0  0  0  0  1  0  0  0  0  0  0
  193.9050  172.7340  136.9900 C   0  0  2  0  0  3  0  0  0  0  0  0
  193.0500  172.8170  139.2200 O   0  0  0  0  0  1  0  0  0  0  0  0
  194.1960  172.5420  138.4720 C   0  0  0  0  0  2  0  0  0  0  0  0
  195.1090  172.9430  136.3050 O   0  0  0  0  0  0  0  0  0  0  0  0
  195.6460  171.6650  136.1290 C   0  0  0  0  0  2  0  0  0  0  0  0
  197.8800  170.9020  136.4790 O   0  0  0  0  0  1  0  0  0  0  0  0
  197.5800  173.1930  135.9220 C   0  0  0  0  0  1  0  0  0  0  0  0
  197.1020  171.7710  135.7130 C   0  0  2  0  0  3  0  0  0  0  0  0
  190.8130  177.3720  144.8520 C   0  0  2  0  0  3  0  0  0  0  0  0
  189.4430  177.2420  145.5260 C   0  0  0  0  0  2  0  0  0  0  0  0
  190.6970  177.7570  143.4010 C   0  0  0  0  0  0  0  0  0  0  0  0
  189.5110  177.5290  142.6930 O   0  0  0  0  0  0  0  0  0  0  0  0
  188.2640  177.2840  143.3440 C   0  0  2  0  0  3  0  0  0  0  0  0
  191.6990  178.2250  142.7990 O   0  0  0  0  0  0  0  0  0  0  0  0
  188.4590  176.4950  144.6350 C   0  0  0  0  0  2  0  0  0  0  0  0
  192.8910  176.1760  144.9560 C   0  0  0  0  0  3  0  0  0  0  0  0
  191.6040  176.1710  145.0200 N   0  0  0  0  0  0  0  0  0  0  0  0
  195.8740  174.3410  145.6930 C   0  0  0  0  0  0  0  0  0  0  0  0
  194.4980  174.4690  143.8430 C   0  0  2  0  0  0  0  0  0  0  0  0
  196.9040  174.0690  146.3630 O   0  0  0  0  0  0  0  0  0  0  0  0
  194.7260  175.1050  146.2180 C   0  0  0  0  0  2  0  0  0  0  0  0
  195.7140  173.9610  144.3790 O   0  0  0  0  0  0  0  0  0  0  0  0
  192.8190  173.8890  145.5400 O   0  0  0  0  0  1  0  0  0  0  0  0
  193.6810  174.9090  145.1190 C   0  0  1  0  0  0  0  0  0  0  0  0
  192.7470  173.6460  142.4060 O   0  0  0  0  0  0  0  0  0  0  0  0
  194.3300  172.0510  143.0470 N   0  0  0  0  0  2  0  0  0  0  0  0
  193.8060  173.3850  143.0440 C   0  0  0  0  0  0  0  0  0  0  0  0
  193.6710  170.9440  142.3740 C   0  0  0  0  0  2  0  0  0  0  0  0
  193.6260  169.6380  144.4420 C   0  0  0  0  0  3  0  0  0  0  0  0
  193.8890  169.6820  143.1380 C   0  0  0  0  0  3  0  0  0  0  0  0
  193.8390  168.3820  145.2260 C   0  0  0  0  0  2  0  0  0  0  0  0
  195.9750  168.8060  146.3310 N   0  0  0  0  0  1  0  0  0  0  0  0
  194.5430  168.6640  146.5460 C   0  0  0  0  0  2  0  0  0  0  0  0
  193.9940  175.9930  141.8870 O   0  0  0  0  0  0  0  0  0  0  0  0
  195.8650  176.3320  143.1560 O   0  0  0  0  0  1  0  0  0  0  0  0
  194.8390  175.6350  142.9330 C   0  0  0  0  0  0  0  0  0  0  0  0
  2  1  2  0  0  0  0
  3  2  2  0  0  0  0
  4  5  1  0  0  0  0
  4 13  1  0  0  0  0
  5 10  1  1  0  0  0
  6  7  2  0  0  0  0
  6  5  1  0  0  0  0
  7  2  1  0  0  0  0
  8 14  1  6  0  0  0
  8 12  1  0  0  0  0
  8  6  1  0  0  0  0
 10  9  1  0  0  0  0
 11  9  1  0  0  0  0
 12  4  2  0  0  0  0
 13 11  2  0  0  0  0
 15 14  1  0  0  0  0
 16 15  1  0  0  0  0
 17 18  1  6  0  0  0
 17 16  1  0  0  0  0
 19 17  1  0  0  0  0
 20 19  1  6  0  0  0
 20 25  1  0  0  0  0
 21 20  1  0  0  0  0
 22 21  1  0  0  0  0
 23 22  1  0  0  0  0
 24 23  1  0  0  0  0
 25 27  1  1  0  0  0
 27 26  1  0  0  0  0
 28 25  1  0  0  0  0
 29 28  1  0  0  0  0
 32 31  1  1  0  0  0
 32 29  1  0  0  0  0
 32 30  1  0  0  0  0
 33 41  1  6  0  0  0
 33 34  1  0  0  0  0
 35 33  1  0  0  0  0
 36 37  1  0  0  0  0
 36 35  1  0  0  0  0
 37  2  1  6  0  0  0
 37 39  1  0  0  0  0
 38 35  2  0  0  0  0
 39 34  1  0  0  0  0
 40 41  2  0  0  0  0
 40 48  1  0  0  0  0
 42 45  1  0  0  0  0
 42 44  2  0  0  0  0
 43 60  1  6  0  0  0
 43 46  1  0  0  0  0
 43 48  1  0  0  0  0
 46 42  1  0  0  0  0
 48 47  1  1  0  0  0
 48 45  1  0  0  0  0
 49 51  2  0  0  0  0
 51 50  1  0  0  0  0
 51 43  1  0  0  0  0
 52 50  1  0  0  0  0
 52 54  1  0  0  0  0
 53 55  1  0  0  0  0
 54 53  2  0  0  0  0
 55 57  1  0  0  0  0
 56 57  1  0  0  0  0
 58 60  2  0  0  0  0
 60 59  1  0  0  0  0
M  END
>  <MODEL>
4

>  <REMARK>
 VINA RESULT:      -5.3      2.727      8.094
  Name = 
  24 active torsions:
  status: ('A' for Active; 'I' for Inactive)
    1  A    between atoms: C_3  and  C_26
    2  A    between atoms: C_3  and  C_56
    3  A    between atoms: C_4  and  N_19
    4  A    between atoms: C_5  and  C_48
    5  A    between atoms: C_6  and  C_22
    6  A    between atoms: C_6  and  C_44
    7  A    between atoms: C_7  and  O_50
    8  A    between atoms: C_7  and  C_51
    9  A    between atoms: C_11  and  C_39
   10  A    between atoms: N_17  and  S_46
   11  A    between atoms: C_18  and  C_47
   12  A    between atoms: C_18  and  C_59
   13  A    between atoms: C_24  and  C_53
   14  A    between atoms: C_26  and  O_43
   15  A    between atoms: C_31  and  S_46
   16  A    between atoms: N_32  and  C_53
   17  A    between atoms: C_35  and  C_41
   18  A    between atoms: C_41  and  O_43
   19  A    between atoms: O_45  and  C_48
   20  A    between atoms: O_45  and  C_49
   21  A    between atoms: C_49  and  C_55
   22  A    between atoms: C_49  and  C_56
   23  A    between atoms: O_50  and  C_55
   24  A    between atoms: C_55  and  C_58
                            x       y       z     vdW  Elec       q    Type
                         _______ _______ _______ _____ _____    ______ ____

>  <TORSDO>
F 24

$$$$
=
 OpenBabel11072408523D

 60 63  0  0  1  0  0  0  0  0999 V2000
  192.9700  172.4930  137.1870 O   0  0  0  0  0  0  0  0  0  0  0  0
  191.9550  171.5240  137.7240 S   0  0  0  0  0  0  0  0  0  0  0  0
  191.1040  171.0460  136.5810 O   0  0  0  0  0  0  0  0  0  0  0  0
  188.3700  174.3760  137.5910 C   0  0  0  0  0  0  0  0  0  0  0  0
  189.5130  173.4970  137.2300 C   0  0  2  0  0  3  0  0  0  0  0  0
  190.0130  173.1510  138.5950 C   0  0  0  0  0  0  0  0  0  0  0  0
  190.9860  172.3530  138.8810 N   0  0  0  0  0  0  0  0  0  0  0  0
  189.1060  173.7290  139.6370 C   0  0  1  0  0  3  0  0  0  0  0  0
  189.7280  174.8380  135.1520 C   0  0  0  0  0  2  0  0  0  0  0  0
  190.4690  174.3520  136.4060 C   0  0  0  0  0  2  0  0  0  0  0  0
  188.4210  175.5140  135.5080 C   0  0  0  0  0  3  0  0  0  0  0  0
  188.1650  174.5190  138.8590 N   0  0  0  0  0  0  0  0  0  0  0  0
  187.8080  175.2780  136.6330 N   0  0  0  0  0  0  0  0  0  0  0  0
  188.3510  172.6320  140.3780 C   0  0  0  0  0  2  0  0  0  0  0  0
  188.0060  173.0670  141.6590 O   0  0  0  0  0  0  0  0  0  0  0  0
  189.1950  172.9940  142.3860 C   0  0  0  0  0  2  0  0  0  0  0  0
  189.2190  174.0490  143.4860 C   0  0  1  0  0  3  0  0  0  0  0  0
  190.0370  173.6180  144.5310 O   0  0  0  0  0  1  0  0  0  0  0  0
  189.7170  175.4010  142.9720 C   0  0  0  0  0  2  0  0  0  0  0  0
  188.6700  176.5180  143.0830 C   0  0  2  0  0  3  0  0  0  0  0  0
  188.6390  177.2710  141.9040 O   0  0  0  0  0  0  0  0  0  0  0  0
  187.6490  178.2340  142.1180 C   0  0  0  0  0  2  0  0  0  0  0  0
  186.3960  177.8650  141.3440 C   0  0  0  0  0  2  0  0  0  0  0  0
  185.2810  177.9660  142.1760 O   0  0  0  0  0  1  0  0  0  0  0  0
  188.9130  177.4190  144.2980 C   0  0  2  0  0  3  0  0  0  0  0  0
  190.9040  178.6270  143.7590 O   0  0  0  0  0  1  0  0  0  0  0  0
  190.4080  177.5820  144.5400 C   0  0  0  0  0  2  0  0  0  0  0  0
  188.3180  176.8630  145.4370 O   0  0  0  0  0  0  0  0  0  0  0  0
  186.9480  176.8590  145.1590 C   0  0  0  0  0  2  0  0  0  0  0  0
  186.8600  178.1610  147.1570 O   0  0  0  0  0  1  0  0  0  0  0  0
  184.8000  177.6660  146.0810 C   0  0  0  0  0  1  0  0  0  0  0  0
  186.2680  177.9920  145.9050 C   0  0  2  0  0  3  0  0  0  0  0  0
  194.6580  169.1460  140.5900 C   0  0  2  0  0  3  0  0  0  0  0  0
  195.0140  169.1760  139.1000 C   0  0  0  0  0  2  0  0  0  0  0  0
  193.1920  169.3920  140.8280 C   0  0  0  0  0  0  0  0  0  0  0  0
  192.4090  170.0370  139.8640 O   0  0  0  0  0  0  0  0  0  0  0  0
  192.8190  170.1630  138.5020 C   0  0  2  0  0  3  0  0  0  0  0  0
  192.6800  169.0760  141.9340 O   0  0  0  0  0  0  0  0  0  0  0  0
  194.3300  170.3380  138.3930 C   0  0  0  0  0  2  0  0  0  0  0  0
  194.9840  171.0660  141.9930 C   0  0  0  0  0  3  0  0  0  0  0  0
  195.4800  170.0650  141.3500 N   0  0  0  0  0  0  0  0  0  0  0  0
  196.3800  172.4080  145.0030 C   0  0  0  0  0  0  0  0  0  0  0  0
  195.1490  173.3170  143.2730 C   0  0  2  0  0  0  0  0  0  0  0  0
  196.9110  172.3320  146.1420 O   0  0  0  0  0  0  0  0  0  0  0  0
  196.3820  171.3110  144.0170 C   0  0  0  0  0  2  0  0  0  0  0  0
  195.7220  173.5330  144.5580 O   0  0  0  0  0  0  0  0  0  0  0  0
  196.9810  172.3270  141.9710 O   0  0  0  0  0  1  0  0  0  0  0  0
  195.8670  172.0110  142.7580 C   0  0  1  0  0  0  0  0  0  0  0  0
  195.6840  175.6400  142.9160 O   0  0  0  0  0  0  0  0  0  0  0  0
  195.3090  174.4010  140.9700 N   0  0  0  0  0  2  0  0  0  0  0  0
  195.4120  174.5210  142.3940 C   0  0  0  0  0  0  0  0  0  0  0  0
  195.4630  175.5330  140.0700 C   0  0  0  0  0  2  0  0  0  0  0  0
  196.4430  174.9630  137.9030 C   0  0  0  0  0  3  0  0  0  0  0  0
  196.6340  175.3140  139.1730 C   0  0  0  0  0  3  0  0  0  0  0  0
  197.6050  174.7380  136.9870 C   0  0  0  0  0  2  0  0  0  0  0  0
  196.3370  176.4170  135.7460 N   0  0  0  0  0  1  0  0  0  0  0  0
  197.6330  175.7670  135.8640 C   0  0  0  0  0  2  0  0  0  0  0  0
  192.7750  173.3660  142.3990 O   0  0  0  0  0  0  0  0  0  0  0  0
  193.1960  172.7060  144.5470 O   0  0  0  0  0  1  0  0  0  0  0  0
  193.6540  173.1330  143.4530 C   0  0  0  0  0  0  0  0  0  0  0  0
  1  2  2  0  0  0  0
  2  7  1  0  0  0  0
  3  2  2  0  0  0  0
  4 12  2  0  0  0  0
  5 10  1  6  0  0  0
  5  4  1  0  0  0  0
  5  6  1  0  0  0  0
  6  7  2  0  0  0  0
  6  8  1  0  0  0  0
  8 14  1  6  0  0  0
  9 11  1  0  0  0  0
  9 10  1  0  0  0  0
 11 13  2  0  0  0  0
 12  8  1  0  0  0  0
 13  4  1  0  0  0  0
 14 15  1  0  0  0  0
 15 16  1  0  0  0  0
 16 17  1  0  0  0  0
 17 18  1  1  0  0  0
 19 17  1  0  0  0  0
 20 19  1  6  0  0  0
 20 25  1  0  0  0  0
 21 22  1  0  0  0  0
 21 20  1  0  0  0  0
 23 22  1  0  0  0  0
 23 24  1  0  0  0  0
 25 27  1  1  0  0  0
 25 28  1  0  0  0  0
 26 27  1  0  0  0  0
 29 28  1  0  0  0  0
 29 32  1  0  0  0  0
 32 31  1  1  0  0  0
 32 30  1  0  0  0  0
 33 35  1  0  0  0  0
 33 41  1  1  0  0  0
 34 33  1  0  0  0  0
 35 38  2  0  0  0  0
 36 35  1  0  0  0  0
 37  2  1  1  0  0  0
 37 36  1  0  0  0  0
 39 37  1  0  0  0  0
 39 34  1  0  0  0  0
 40 48  1  0  0  0  0
 41 40  2  0  0  0  0
 42 44  2  0  0  0  0
 43 51  1  6  0  0  0
 43 60  1  0  0  0  0
 43 46  1  0  0  0  0
 45 42  1  0  0  0  0
 46 42  1  0  0  0  0
 48 47  1  6  0  0  0
 48 43  1  0  0  0  0
 48 45  1  0  0  0  0
 50 51  1  0  0  0  0
 51 49  2  0  0  0  0
 52 50  1  0  0  0  0
 53 54  2  0  0  0  0
 54 52  1  0  0  0  0
 55 53  1  0  0  0  0
 56 57  1  0  0  0  0
 57 55  1  0  0  0  0
 58 60  2  0  0  0  0
 60 59  1  0  0  0  0
M  END
>  <MODEL>
5

>  <REMARK>
 VINA RESULT:      -5.2      1.861      2.661
  Name = 
  24 active torsions:
  status: ('A' for Active; 'I' for Inactive)
    1  A    between atoms: C_3  and  C_26
    2  A    between atoms: C_3  and  C_56
    3  A    between atoms: C_4  and  N_19
    4  A    between atoms: C_5  and  C_48
    5  A    between atoms: C_6  and  C_22
    6  A    between atoms: C_6  and  C_44
    7  A    between atoms: C_7  and  O_50
    8  A    between atoms: C_7  and  C_51
    9  A    between atoms: C_11  and  C_39
   10  A    between atoms: N_17  and  S_46
   11  A    between atoms: C_18  and  C_47
   12  A    between atoms: C_18  and  C_59
   13  A    between atoms: C_24  and  C_53
   14  A    between atoms: C_26  and  O_43
   15  A    between atoms: C_31  and  S_46
   16  A    between atoms: N_32  and  C_53
   17  A    between atoms: C_35  and  C_41
   18  A    between atoms: C_41  and  O_43
   19  A    between atoms: O_45  and  C_48
   20  A    between atoms: O_45  and  C_49
   21  A    between atoms: C_49  and  C_55
   22  A    between atoms: C_49  and  C_56
   23  A    between atoms: O_50  and  C_55
   24  A    between atoms: C_55  and  C_58
                            x       y       z     vdW  Elec       q    Type
                         _______ _______ _______ _____ _____    ______ ____

>  <TORSDO>
F 24

$$$$
=
 OpenBabel11072408523D

 60 63  0  0  1  0  0  0  0  0999 V2000
  196.8330  176.0780  142.2930 O   0  0  0  0  0  0  0  0  0  0  0  0
  195.7410  175.2340  141.6990 S   0  0  0  0  0  0  0  0  0  0  0  0
  194.5170  176.0910  141.5290 O   0  0  0  0  0  0  0  0  0  0  0  0
  193.6100  174.7710  145.7300 C   0  0  0  0  0  0  0  0  0  0  0  0
  194.2250  175.3150  144.4910 C   0  0  2  0  0  3  0  0  0  0  0  0
  194.7980  174.0610  143.9160 C   0  0  0  0  0  0  0  0  0  0  0  0
  195.4140  173.9400  142.7880 N   0  0  0  0  0  0  0  0  0  0  0  0
  194.4060  172.8840  144.7550 C   0  0  1  0  0  3  0  0  0  0  0  0
  194.5510  177.4400  145.7330 C   0  0  0  0  0  2  0  0  0  0  0  0
  195.2640  176.3370  144.9390 C   0  0  0  0  0  2  0  0  0  0  0  0
  193.7080  176.8630  146.8500 C   0  0  0  0  0  3  0  0  0  0  0  0
  193.7220  173.4930  145.8850 N   0  0  0  0  0  0  0  0  0  0  0  0
  193.2760  175.6340  146.8220 N   0  0  0  0  0  0  0  0  0  0  0  0
  193.4370  171.9760  144.0090 C   0  0  0  0  0  2  0  0  0  0  0  0
  192.1420  172.1450  144.5040 O   0  0  0  0  0  0  0  0  0  0  0  0
  191.4140  172.6390  143.4210 C   0  0  0  0  0  2  0  0  0  0  0  0
  190.0340  173.1060  143.8670 C   0  0  1  0  0  3  0  0  0  0  0  0
  189.1670  172.0150  143.9300 O   0  0  0  0  0  1  0  0  0  0  0  0
  190.0790  173.8020  145.2290 C   0  0  0  0  0  2  0  0  0  0  0  0
  189.6470  175.2740  145.1760 C   0  0  2  0  0  3  0  0  0  0  0  0
  188.3220  175.4060  145.6050 O   0  0  0  0  0  0  0  0  0  0  0  0
  188.3760  176.3060  146.6720 C   0  0  0  0  0  2  0  0  0  0  0  0
  186.9700  176.7030  147.0820 C   0  0  0  0  0  2  0  0  0  0  0  0
  186.7260  178.0270  146.7160 O   0  0  0  0  0  1  0  0  0  0  0  0
  189.8320  175.8800  143.7820 C   0  0  2  0  0  3  0  0  0  0  0  0
  190.8910  177.7650  142.7640 O   0  0  0  0  0  1  0  0  0  0  0  0
  191.0380  176.8080  143.7680 C   0  0  0  0  0  2  0  0  0  0  0  0
  188.6890  176.6000  143.4140 O   0  0  0  0  0  0  0  0  0  0  0  0
  188.0970  175.8390  142.4020 C   0  0  0  0  0  2  0  0  0  0  0  0
  187.8010  177.8650  141.1760 O   0  0  0  0  0  1  0  0  0  0  0  0
  185.9560  177.0760  142.4500 C   0  0  0  0  0  1  0  0  0  0  0  0
  187.1480  176.7050  141.5940 C   0  0  2  0  0  3  0  0  0  0  0  0
  195.7140  173.4370  137.4630 C   0  0  2  0  0  3  0  0  0  0  0  0
  196.3780  172.6430  138.5930 C   0  0  0  0  0  2  0  0  0  0  0  0
  195.6860  174.9140  137.7490 C   0  0  0  0  0  0  0  0  0  0  0  0
  195.7980  175.3920  139.0590 O   0  0  0  0  0  0  0  0  0  0  0  0
  196.3050  174.5910  140.1270 C   0  0  2  0  0  3  0  0  0  0  0  0
  195.4890  175.7260  136.8060 O   0  0  0  0  0  0  0  0  0  0  0  0
  195.9070  173.1280  139.9580 C   0  0  0  0  0  2  0  0  0  0  0  0
  193.3170  173.5250  137.5540 C   0  0  0  0  0  3  0  0  0  0  0  0
  194.3910  172.9290  137.1640 N   0  0  0  0  0  0  0  0  0  0  0  0
  189.7930  173.8020  136.9940 C   0  0  0  0  0  0  0  0  0  0  0  0
  191.0790  172.6180  138.5030 C   0  0  2  0  0  0  0  0  0  0  0  0
  188.7590  174.3200  136.4980 O   0  0  0  0  0  0  0  0  0  0  0  0
  191.1530  174.0000  136.4580 C   0  0  0  0  0  2  0  0  0  0  0  0
  189.7650  172.9980  138.1120 O   0  0  0  0  0  0  0  0  0  0  0  0
  192.1140  171.8420  136.4150 O   0  0  0  0  0  1  0  0  0  0  0  0
  191.9600  172.9630  137.2410 C   0  0  1  0  0  0  0  0  0  0  0  0
  190.0390  170.4580  138.7540 O   0  0  0  0  0  0  0  0  0  0  0  0
  192.3020  170.5380  139.3320 N   0  0  0  0  0  2  0  0  0  0  0  0
  191.0960  171.1450  138.8510 C   0  0  0  0  0  0  0  0  0  0  0  0
  192.3700  169.1520  139.7660 C   0  0  0  0  0  2  0  0  0  0  0  0
  193.3930  168.7560  141.9510 C   0  0  0  0  0  3  0  0  0  0  0  0
  193.5570  168.9520  140.6450 C   0  0  0  0  0  3  0  0  0  0  0  0
  194.5710  168.5540  142.8510 C   0  0  0  0  0  2  0  0  0  0  0  0
  196.3380  170.2290  142.6640 N   0  0  0  0  0  1  0  0  0  0  0  0
  195.8710  168.9470  142.1610 C   0  0  0  0  0  2  0  0  0  0  0  0
  190.4900  174.1260  140.4480 O   0  0  0  0  0  1  0  0  0  0  0  0
  192.6490  173.4460  140.1340 O   0  0  0  0  0  0  0  0  0  0  0  0
  191.4580  173.4350  139.7250 C   0  0  0  0  0  0  0  0  0  0  0  0
  2  1  2  0  0  0  0
  2  7  1  0  0  0  0
  3  2  2  0  0  0  0
  4 12  2  0  0  0  0
  4 13  1  0  0  0  0
  5 10  1  1  0  0  0
  5  4  1  0  0  0  0
  6  5  1  0  0  0  0
  6  8  1  0  0  0  0
  7  6  2  0  0  0  0
  8 14  1  6  0  0  0
  8 12  1  0  0  0  0
  9 11  1  0  0  0  0
 10  9  1  0  0  0  0
 13 11  2  0  0  0  0
 14 15  1  0  0  0  0
 16 17  1  0  0  0  0
 16 15  1  0  0  0  0
 17 18  1  1  0  0  0
 17 19  1  0  0  0  0
 20 19  1  6  0  0  0
 20 21  1  0  0  0  0
 21 22  1  0  0  0  0
 22 23  1  0  0  0  0
 24 23  1  0  0  0  0
 25 27  1  1  0  0  0
 25 20  1  0  0  0  0
 26 27  1  0  0  0  0
 28 25  1  0  0  0  0
 29 28  1  0  0  0  0
 30 32  1  0  0  0  0
 32 29  1  0  0  0  0
 32 31  1  1  0  0  0
 33 41  1  1  0  0  0
 33 35  1  0  0  0  0
 33 34  1  0  0  0  0
 34 39  1  0  0  0  0
 35 36  1  0  0  0  0
 36 37  1  0  0  0  0
 37  2  1  1  0  0  0
 38 35  2  0  0  0  0
 39 37  1  0  0  0  0
 41 40  2  0  0  0  0
 42 46  1  0  0  0  0
 43 51  1  1  0  0  0
 43 60  1  0  0  0  0
 44 42  2  0  0  0  0
 45 42  1  0  0  0  0
 45 48  1  0  0  0  0
 46 43  1  0  0  0  0
 48 47  1  6  0  0  0
 48 40  1  0  0  0  0
 48 43  1  0  0  0  0
 49 51  2  0  0  0  0
 50 52  1  0  0  0  0
 51 50  1  0  0  0  0
 52 54  1  0  0  0  0
 53 55  1  0  0  0  0
 54 53  2  0  0  0  0
 57 56  1  0  0  0  0
 57 55  1  0  0  0  0
 60 59  2  0  0  0  0
 60 58  1  0  0  0  0
M  END
>  <MODEL>
6

>  <REMARK>
 VINA RESULT:      -5.2      2.314      7.201
  Name = 
  24 active torsions:
  status: ('A' for Active; 'I' for Inactive)
    1  A    between atoms: C_3  and  C_26
    2  A    between atoms: C_3  and  C_56
    3  A    between atoms: C_4  and  N_19
    4  A    between atoms: C_5  and  C_48
    5  A    between atoms: C_6  and  C_22
    6  A    between atoms: C_6  and  C_44
    7  A    between atoms: C_7  and  O_50
    8  A    between atoms: C_7  and  C_51
    9  A    between atoms: C_11  and  C_39
   10  A    between atoms: N_17  and  S_46
   11  A    between atoms: C_18  and  C_47
   12  A    between atoms: C_18  and  C_59
   13  A    between atoms: C_24  and  C_53
   14  A    between atoms: C_26  and  O_43
   15  A    between atoms: C_31  and  S_46
   16  A    between atoms: N_32  and  C_53
   17  A    between atoms: C_35  and  C_41
   18  A    between atoms: C_41  and  O_43
   19  A    between atoms: O_45  and  C_48
   20  A    between atoms: O_45  and  C_49
   21  A    between atoms: C_49  and  C_55
   22  A    between atoms: C_49  and  C_56
   23  A    between atoms: O_50  and  C_55
   24  A    between atoms: C_55  and  C_58
                            x       y       z     vdW  Elec       q    Type
                         _______ _______ _______ _____ _____    ______ ____

>  <TORSDO>
F 24

$$$$
=
 OpenBabel11072408523D

 60 63  0  0  1  0  0  0  0  0999 V2000
  192.3290  172.3810  138.0650 O   0  0  0  0  0  0  0  0  0  0  0  0
  191.5280  171.5740  139.0480 S   0  0  0  0  0  0  0  0  0  0  0  0
  190.6030  170.6720  138.2780 O   0  0  0  0  0  0  0  0  0  0  0  0
  188.0820  174.5180  138.3630 C   0  0  0  0  0  0  0  0  0  0  0  0
  189.1750  173.5270  138.1800 C   0  0  2  0  0  3  0  0  0  0  0  0
  189.6800  173.4400  139.5840 C   0  0  0  0  0  0  0  0  0  0  0  0
  190.6190  172.6670  140.0200 N   0  0  0  0  0  0  0  0  0  0  0  0
  188.8200  174.2610  140.4930 C   0  0  1  0  0  3  0  0  0  0  0  0
  189.4200  174.4080  135.8730 C   0  0  0  0  0  2  0  0  0  0  0  0
  190.1570  174.1490  137.1930 C   0  0  0  0  0  2  0  0  0  0  0  0
  188.1530  175.2070  136.0920 C   0  0  0  0  0  3  0  0  0  0  0  0
  187.9050  174.9240  139.5770 N   0  0  0  0  0  0  0  0  0  0  0  0
  187.5480  175.2340  137.2460 N   0  0  0  0  0  0  0  0  0  0  0  0
  188.0260  173.3760  141.4450 C   0  0  0  0  0  2  0  0  0  0  0  0
  188.1170  173.8690  142.7480 O   0  0  0  0  0  0  0  0  0  0  0  0
  188.9910  172.9940  143.3940 C   0  0  0  0  0  2  0  0  0  0  0  0
  190.0670  173.7670  144.1480 C   0  0  1  0  0  3  0  0  0  0  0  0
  191.3210  173.4620  143.6190 O   0  0  0  0  0  1  0  0  0  0  0  0
  189.8380  175.2780  144.0810 C   0  0  0  0  0  2  0  0  0  0  0  0
  189.4410  175.8950  145.4300 C   0  0  2  0  0  3  0  0  0  0  0  0
  188.9450  174.9070  146.2870 O   0  0  0  0  0  0  0  0  0  0  0  0
  189.7270  175.0040  147.4400 C   0  0  0  0  0  2  0  0  0  0  0  0
  190.9960  175.7780  147.1380 C   0  0  0  0  0  2  0  0  0  0  0  0
  191.1510  176.8120  148.0610 O   0  0  0  0  0  1  0  0  0  0  0  0
  188.4300  177.0340  145.2680 C   0  0  2  0  0  3  0  0  0  0  0  0
  187.2020  177.5260  147.2580 O   0  0  0  0  0  1  0  0  0  0  0  0
  187.1840  176.7520  146.0980 C   0  0  0  0  0  2  0  0  0  0  0  0
  188.0690  177.1710  143.9220 O   0  0  0  0  0  0  0  0  0  0  0  0
  186.6770  177.2970  143.9360 C   0  0  0  0  0  2  0  0  0  0  0  0
  185.9420  179.5670  143.8890 O   0  0  0  0  0  1  0  0  0  0  0  0
  185.0480  178.0920  142.2530 C   0  0  0  0  0  1  0  0  0  0  0  0
  186.2590  178.4770  143.0780 C   0  0  2  0  0  3  0  0  0  0  0  0
  194.6100  170.4970  142.2890 C   0  0  2  0  0  3  0  0  0  0  0  0
  194.9960  170.3120  140.8180 C   0  0  0  0  0  2  0  0  0  0  0  0
  193.1200  170.4410  142.4960 C   0  0  0  0  0  0  0  0  0  0  0  0
  192.2410  170.6850  141.4340 O   0  0  0  0  0  0  0  0  0  0  0  0
  192.6540  170.6300  140.0690 C   0  0  2  0  0  3  0  0  0  0  0  0
  192.6600  170.2410  143.6500 O   0  0  0  0  0  0  0  0  0  0  0  0
  194.0880  171.1230  139.9030 C   0  0  0  0  0  2  0  0  0  0  0  0
  194.5080  172.8110  142.9190 C   0  0  0  0  0  3  0  0  0  0  0  0
  195.1760  171.7120  142.8380 N   0  0  0  0  0  0  0  0  0  0  0  0
  194.4200  175.8820  144.7560 C   0  0  0  0  0  0  0  0  0  0  0  0
  194.9650  175.3420  142.5770 C   0  0  2  0  0  0  0  0  0  0  0  0
  194.1140  176.6110  145.7340 O   0  0  0  0  0  0  0  0  0  0  0  0
  194.4540  174.4070  144.8050 C   0  0  0  0  0  2  0  0  0  0  0  0
  194.7440  176.3880  143.5170 O   0  0  0  0  0  0  0  0  0  0  0  0
  196.4810  173.8070  143.7510 O   0  0  0  0  0  1  0  0  0  0  0  0
  195.1300  174.0580  143.4780 C   0  0  1  0  0  0  0  0  0  0  0  0
  196.6710  176.8250  141.7410 O   0  0  0  0  0  0  0  0  0  0  0  0
  196.8080  174.6240  140.9670 N   0  0  0  0  0  2  0  0  0  0  0  0
  196.2000  175.6520  141.7570 C   0  0  0  0  0  0  0  0  0  0  0  0
  197.9410  174.8690  140.0900 C   0  0  0  0  0  2  0  0  0  0  0  0
  197.0580  172.8940  138.9510 C   0  0  0  0  0  3  0  0  0  0  0  0
  197.9250  173.9030  138.9540 C   0  0  0  0  0  3  0  0  0  0  0  0
  197.0260  171.9130  137.8210 C   0  0  0  0  0  2  0  0  0  0  0  0
  197.1700  169.4860  138.0460 N   0  0  0  0  0  1  0  0  0  0  0  0
  197.9350  170.7220  138.0930 C   0  0  0  0  0  2  0  0  0  0  0  0
  192.5620  175.8990  142.0130 O   0  0  0  0  0  1  0  0  0  0  0  0
  193.8330  174.6840  140.5520 O   0  0  0  0  0  0  0  0  0  0  0  0
  193.7530  175.2680  141.6660 C   0  0  0  0  0  0  0  0  0  0  0  0
  1  2  2  0  0  0  0
  2  7  1  0  0  0  0
  3  2  2  0  0  0  0
  4 12  2  0  0  0  0
  5 10  1  6  0  0  0
  5  4  1  0  0  0  0
  5  6  1  0  0  0  0
  6  7  2  0  0  0  0
  6  8  1  0  0  0  0
  8 14  1  1  0  0  0
  9 11  1  0  0  0  0
  9 10  1  0  0  0  0
 11 13  2  0  0  0  0
 12  8  1  0  0  0  0
 13  4  1  0  0  0  0
 14 15  1  0  0  0  0
 15 16  1  0  0  0  0
 16 17  1  0  0  0  0
 17 18  1  6  0  0  0
 19 17  1  0  0  0  0
 20 19  1  6  0  0  0
 20 21  1  0  0  0  0
 21 22  1  0  0  0  0
 23 22  1  0  0  0  0
 23 24  1  0  0  0  0
 25 20  1  0  0  0  0
 25 27  1  1  0  0  0
 27 26  1  0  0  0  0
 28 29  1  0  0  0  0
 28 25  1  0  0  0  0
 32 31  1  1  0  0  0
 32 30  1  0  0  0  0
 32 29  1  0  0  0  0
 33 35  1  0  0  0  0
 33 41  1  6  0  0  0
 34 33  1  0  0  0  0
 35 38  2  0  0  0  0
 36 35  1  0  0  0  0
 37  2  1  6  0  0  0
 37 36  1  0  0  0  0
 39 37  1  0  0  0  0
 39 34  1  0  0  0  0
 40 48  1  0  0  0  0
 41 40  2  0  0  0  0
 42 45  1  0  0  0  0
 42 44  2  0  0  0  0
 43 60  1  6  0  0  0
 43 48  1  0  0  0  0
 43 46  1  0  0  0  0
 46 42  1  0  0  0  0
 48 47  1  1  0  0  0
 48 45  1  0  0  0  0
 49 51  2  0  0  0  0
 50 51  1  0  0  0  0
 51 43  1  0  0  0  0
 52 50  1  0  0  0  0
 53 54  2  0  0  0  0
 54 52  1  0  0  0  0
 55 57  1  0  0  0  0
 55 53  1  0  0  0  0
 56 57  1  0  0  0  0
 59 60  2  0  0  0  0
 60 58  1  0  0  0  0
M  END
>  <MODEL>
7

>  <REMARK>
 VINA RESULT:      -5.1      1.676      3.052
  Name = 
  24 active torsions:
  status: ('A' for Active; 'I' for Inactive)
    1  A    between atoms: C_3  and  C_26
    2  A    between atoms: C_3  and  C_56
    3  A    between atoms: C_4  and  N_19
    4  A    between atoms: C_5  and  C_48
    5  A    between atoms: C_6  and  C_22
    6  A    between atoms: C_6  and  C_44
    7  A    between atoms: C_7  and  O_50
    8  A    between atoms: C_7  and  C_51
    9  A    between atoms: C_11  and  C_39
   10  A    between atoms: N_17  and  S_46
   11  A    between atoms: C_18  and  C_47
   12  A    between atoms: C_18  and  C_59
   13  A    between atoms: C_24  and  C_53
   14  A    between atoms: C_26  and  O_43
   15  A    between atoms: C_31  and  S_46
   16  A    between atoms: N_32  and  C_53
   17  A    between atoms: C_35  and  C_41
   18  A    between atoms: C_41  and  O_43
   19  A    between atoms: O_45  and  C_48
   20  A    between atoms: O_45  and  C_49
   21  A    between atoms: C_49  and  C_55
   22  A    between atoms: C_49  and  C_56
   23  A    between atoms: O_50  and  C_55
   24  A    between atoms: C_55  and  C_58
                            x       y       z     vdW  Elec       q    Type
                         _______ _______ _______ _____ _____    ______ ____

>  <TORSDO>
F 24

$$$$
=
 OpenBabel11072408523D

 60 63  0  0  1  0  0  0  0  0999 V2000
  189.1050  175.1400  147.0390 O   0  0  0  0  0  0  0  0  0  0  0  0
  189.2310  176.3380  146.1410 S   0  0  0  0  0  0  0  0  0  0  0  0
  188.5320  177.4970  146.7960 O   0  0  0  0  0  0  0  0  0  0  0  0
  185.5830  177.8430  143.8100 C   0  0  0  0  0  0  0  0  0  0  0  0
  186.6210  177.6100  144.8480 C   0  0  2  0  0  3  0  0  0  0  0  0
  187.4040  176.5210  144.1900 C   0  0  0  0  0  0  0  0  0  0  0  0
  188.4770  175.9620  144.6390 N   0  0  0  0  0  0  0  0  0  0  0  0
  186.8730  176.2660  142.8130 C   0  0  1  0  0  3  0  0  0  0  0  0
  184.9280  178.3120  146.5220 C   0  0  0  0  0  2  0  0  0  0  0  0
  185.8790  177.1810  146.1090 C   0  0  0  0  0  2  0  0  0  0  0  0
  184.0350  178.7330  145.3750 C   0  0  0  0  0  3  0  0  0  0  0  0
  185.6990  177.1210  142.7440 N   0  0  0  0  0  0  0  0  0  0  0  0
  184.3620  178.5160  144.1320 N   0  0  0  0  0  0  0  0  0  0  0  0
  187.8740  176.6980  141.7490 C   0  0  0  0  0  2  0  0  0  0  0  0
  188.7840  175.6700  141.4990 O   0  0  0  0  0  0  0  0  0  0  0  0
  188.2310  174.9650  140.4290 C   0  0  0  0  0  2  0  0  0  0  0  0
  188.9130  173.6120  140.2650 C   0  0  1  0  0  3  0  0  0  0  0  0
  188.3310  172.6860  141.1320 O   0  0  0  0  0  1  0  0  0  0  0  0
  188.8210  173.0950  138.8280 C   0  0  0  0  0  2  0  0  0  0  0  0
  188.7690  174.2150  137.7800 C   0  0  2  0  0  3  0  0  0  0  0  0
  187.4440  174.4750  137.4140 O   0  0  0  0  0  0  0  0  0  0  0  0
  187.4720  175.7460  136.8350 C   0  0  0  0  0  2  0  0  0  0  0  0
  186.1500  176.0280  136.1470 C   0  0  0  0  0  2  0  0  0  0  0  0
  185.1210  176.0490  137.0900 O   0  0  0  0  0  1  0  0  0  0  0  0
  189.6210  173.8920  136.5480 C   0  0  2  0  0  3  0  0  0  0  0  0
  189.0200  171.6750  135.8890 O   0  0  0  0  0  1  0  0  0  0  0  0
  190.0020  172.4180  136.5450 C   0  0  0  0  0  2  0  0  0  0  0  0
  190.7840  174.6720  136.5490 O   0  0  0  0  0  0  0  0  0  0  0  0
  191.8080  173.7850  136.8940 C   0  0  0  0  0  2  0  0  0  0  0  0
  193.4490  175.5090  137.0830 O   0  0  0  0  0  1  0  0  0  0  0  0
  193.0620  174.5970  134.9220 C   0  0  0  0  0  1  0  0  0  0  0  0
  193.1420  174.3250  136.4100 C   0  0  2  0  0  3  0  0  0  0  0  0
  193.6430  175.8480  144.9300 C   0  0  2  0  0  3  0  0  0  0  0  0
  193.3050  176.0390  146.4130 C   0  0  0  0  0  2  0  0  0  0  0  0
  192.5830  176.4230  144.0290 C   0  0  0  0  0  0  0  0  0  0  0  0
  191.2820  176.6360  144.4990 O   0  0  0  0  0  0  0  0  0  0  0  0
  190.9680  176.6860  145.8910 C   0  0  2  0  0  3  0  0  0  0  0  0
  192.8520  176.6490  142.8190 O   0  0  0  0  0  0  0  0  0  0  0  0
  191.8410  175.7240  146.6890 C   0  0  0  0  0  2  0  0  0  0  0  0
  195.0490  173.9050  144.8380 C   0  0  0  0  0  3  0  0  0  0  0  0
  193.9050  174.4580  144.6210 N   0  0  0  0  0  0  0  0  0  0  0  0
  196.8100  170.8020  145.1210 C   0  0  0  0  0  0  0  0  0  0  0  0
  196.3680  172.2290  143.3600 C   0  0  2  0  0  0  0  0  0  0  0  0
  197.3660  169.8640  145.7510 O   0  0  0  0  0  0  0  0  0  0  0  0
  195.8360  171.7340  145.7200 C   0  0  0  0  0  2  0  0  0  0  0  0
  197.0670  171.0680  143.7950 O   0  0  0  0  0  0  0  0  0  0  0  0
  194.0720  171.8660  144.1550 O   0  0  0  0  0  1  0  0  0  0  0  0
  195.2940  172.4640  144.4900 C   0  0  1  0  0  0  0  0  0  0  0  0
  194.9990  172.8350  141.4710 O   0  0  0  0  0  0  0  0  0  0  0  0
  195.9830  170.7190  141.3400 N   0  0  0  0  0  2  0  0  0  0  0  0
  195.7500  171.9680  142.0030 C   0  0  0  0  0  0  0  0  0  0  0  0
  195.3530  170.3670  140.0780 C   0  0  0  0  0  2  0  0  0  0  0  0
  192.9670  169.8450  140.1870 C   0  0  0  0  0  3  0  0  0  0  0  0
  194.2230  169.4250  140.3180 C   0  0  0  0  0  3  0  0  0  0  0  0
  191.8180  168.9160  140.4240 C   0  0  0  0  0  2  0  0  0  0  0  0
  191.1010  170.5180  142.1210 N   0  0  0  0  0  1  0  0  0  0  0  0
  191.2320  169.1020  141.8170 C   0  0  0  0  0  2  0  0  0  0  0  0
  197.9160  173.7220  142.0270 O   0  0  0  0  0  0  0  0  0  0  0  0
  197.6680  174.0410  144.2760 O   0  0  0  0  0  1  0  0  0  0  0  0
  197.3690  173.3650  143.2550 C   0  0  0  0  0  0  0  0  0  0  0  0
  2  3  2  0  0  0  0
  2  1  2  0  0  0  0
  4 13  1  0  0  0  0
  4  5  1  0  0  0  0
  5 10  1  1  0  0  0
  6  7  2  0  0  0  0
  6  5  1  0  0  0  0
  7  2  1  0  0  0  0
  8 14  1  6  0  0  0
  8  6  1  0  0  0  0
 10  9  1  0  0  0  0
 11  9  1  0  0  0  0
 12  8  1  0  0  0  0
 12  4  2  0  0  0  0
 13 11  2  0  0  0  0
 15 14  1  0  0  0  0
 16 15  1  0  0  0  0
 17 16  1  0  0  0  0
 17 18  1  1  0  0  0
 19 17  1  0  0  0  0
 20 19  1  1  0  0  0
 21 20  1  0  0  0  0
 22 21  1  0  0  0  0
 23 22  1  0  0  0  0
 23 24  1  0  0  0  0
 25 27  1  1  0  0  0
 25 28  1  0  0  0  0
 25 20  1  0  0  0  0
 26 27  1  0  0  0  0
 28 29  1  0  0  0  0
 32 31  1  6  0  0  0
 32 29  1  0  0  0  0
 32 30  1  0  0  0  0
 33 41  1  1  0  0  0
 33 34  1  0  0  0  0
 34 39  1  0  0  0  0
 35 36  1  0  0  0  0
 35 33  1  0  0  0  0
 36 37  1  0  0  0  0
 37  2  1  6  0  0  0
 37 39  1  0  0  0  0
 38 35  2  0  0  0  0
 41 40  2  0  0  0  0
 42 45  1  0  0  0  0
 42 44  2  0  0  0  0
 43 51  1  6  0  0  0
 43 46  1  0  0  0  0
 43 48  1  0  0  0  0
 46 42  1  0  0  0  0
 48 47  1  6  0  0  0
 48 40  1  0  0  0  0
 48 45  1  0  0  0  0
 49 51  2  0  0  0  0
 50 51  1  0  0  0  0
 52 54  1  0  0  0  0
 52 50  1  0  0  0  0
 53 54  2  0  0  0  0
 53 55  1  0  0  0  0
 55 57  1  0  0  0  0
 57 56  1  0  0  0  0
 58 60  2  0  0  0  0
 60 43  1  0  0  0  0
 60 59  1  0  0  0  0
M  END
>  <MODEL>
8

>  <REMARK>
 VINA RESULT:      -5.0      2.931      7.432
  Name = 
  24 active torsions:
  status: ('A' for Active; 'I' for Inactive)
    1  A    between atoms: C_3  and  C_26
    2  A    between atoms: C_3  and  C_56
    3  A    between atoms: C_4  and  N_19
    4  A    between atoms: C_5  and  C_48
    5  A    between atoms: C_6  and  C_22
    6  A    between atoms: C_6  and  C_44
    7  A    between atoms: C_7  and  O_50
    8  A    between atoms: C_7  and  C_51
    9  A    between atoms: C_11  and  C_39
   10  A    between atoms: N_17  and  S_46
   11  A    between atoms: C_18  and  C_47
   12  A    between atoms: C_18  and  C_59
   13  A    between atoms: C_24  and  C_53
   14  A    between atoms: C_26  and  O_43
   15  A    between atoms: C_31  and  S_46
   16  A    between atoms: N_32  and  C_53
   17  A    between atoms: C_35  and  C_41
   18  A    between atoms: C_41  and  O_43
   19  A    between atoms: O_45  and  C_48
   20  A    between atoms: O_45  and  C_49
   21  A    between atoms: C_49  and  C_55
   22  A    between atoms: C_49  and  C_56
   23  A    between atoms: O_50  and  C_55
   24  A    between atoms: C_55  and  C_58
                            x       y       z     vdW  Elec       q    Type
                         _______ _______ _______ _____ _____    ______ ____

>  <TORSDO>
F 24

$$$$
=
 OpenBabel11072408523D

 60 63  0  0  1  0  0  0  0  0999 V2000
  196.0730  175.5570  143.1510 O   0  0  0  0  0  0  0  0  0  0  0  0
  195.2270  175.0980  141.9970 S   0  0  0  0  0  0  0  0  0  0  0  0
  194.3370  176.2360  141.5790 O   0  0  0  0  0  0  0  0  0  0  0  0
  191.9730  174.4170  145.1530 C   0  0  0  0  0  0  0  0  0  0  0  0
  193.0390  175.0060  144.3020 C   0  0  2  0  0  3  0  0  0  0  0  0
  193.4110  173.8100  143.4890 C   0  0  0  0  0  0  0  0  0  0  0  0
  194.2750  173.7650  142.5310 N   0  0  0  0  0  0  0  0  0  0  0  0
  192.5030  172.6640  143.8140 C   0  0  1  0  0  3  0  0  0  0  0  0
  193.5270  176.5410  146.1910 C   0  0  0  0  0  2  0  0  0  0  0  0
  194.1300  175.4880  145.2520 C   0  0  0  0  0  2  0  0  0  0  0  0
  192.2760  176.0260  146.8720 C   0  0  0  0  0  3  0  0  0  0  0  0
  191.7020  173.1760  144.9140 N   0  0  0  0  0  0  0  0  0  0  0  0
  191.5700  175.0530  146.3700 N   0  0  0  0  0  0  0  0  0  0  0  0
  191.5920  172.3340  142.6380 C   0  0  0  0  0  2  0  0  0  0  0  0
  190.3210  172.8720  142.8490 O   0  0  0  0  0  0  0  0  0  0  0  0
  190.1320  173.7520  141.7830 C   0  0  0  0  0  2  0  0  0  0  0  0
  188.6980  174.2660  141.7570 C   0  0  1  0  0  3  0  0  0  0  0  0
  187.8180  173.1930  141.6100 O   0  0  0  0  0  1  0  0  0  0  0  0
  188.3460  175.0450  143.0270 C   0  0  0  0  0  2  0  0  0  0  0  0
  187.9070  176.4900  142.7530 C   0  0  2  0  0  3  0  0  0  0  0  0
  188.7350  177.3850  143.4390 O   0  0  0  0  0  0  0  0  0  0  0  0
  189.5840  177.9120  142.4620 C   0  0  0  0  0  2  0  0  0  0  0  0
  191.0230  177.5510  142.7810 C   0  0  0  0  0  2  0  0  0  0  0  0
  191.4750  178.3150  143.8580 O   0  0  0  0  0  1  0  0  0  0  0  0
  186.4370  176.7250  143.1120 C   0  0  2  0  0  3  0  0  0  0  0  0
  186.4950  177.4640  140.8400 O   0  0  0  0  0  1  0  0  0  0  0  0
  185.7530  177.5350  142.0190 C   0  0  0  0  0  2  0  0  0  0  0  0
  186.3400  177.4120  144.3280 O   0  0  0  0  0  0  0  0  0  0  0  0
  185.1040  178.0620  144.2740 C   0  0  0  0  0  2  0  0  0  0  0  0
  185.4160  179.4110  146.2180 O   0  0  0  0  0  1  0  0  0  0  0  0
  184.7490  177.1540  146.5470 C   0  0  0  0  0  1  0  0  0  0  0  0
  184.6330  178.3890  145.6790 C   0  0  2  0  0  3  0  0  0  0  0  0
  196.6870  173.3500  138.0000 C   0  0  2  0  0  3  0  0  0  0  0  0
  197.1750  172.7100  139.3040 C   0  0  0  0  0  2  0  0  0  0  0  0
  196.2840  174.7880  138.1910 C   0  0  0  0  0  0  0  0  0  0  0  0
  195.9460  175.2740  139.4590 O   0  0  0  0  0  0  0  0  0  0  0  0
  196.3050  174.5940  140.6610 C   0  0  2  0  0  3  0  0  0  0  0  0
  196.1820  175.5440  137.1880 O   0  0  0  0  0  0  0  0  0  0  0  0
  196.2720  173.0810  140.4720 C   0  0  0  0  0  2  0  0  0  0  0  0
  194.4840  173.0940  137.0820 C   0  0  0  0  0  3  0  0  0  0  0  0
  195.6220  172.5770  137.3950 N   0  0  0  0  0  0  0  0  0  0  0  0
  191.3120  172.6490  135.4830 C   0  0  0  0  0  0  0  0  0  0  0  0
  192.2250  171.8710  137.4570 C   0  0  2  0  0  0  0  0  0  0  0  0
  190.4200  172.9160  134.6370 O   0  0  0  0  0  0  0  0  0  0  0  0
  192.7260  173.0500  135.3450 C   0  0  0  0  0  2  0  0  0  0  0  0
  191.0580  171.9600  136.6480 O   0  0  0  0  0  0  0  0  0  0  0  0
  193.9660  171.1180  135.8970 O   0  0  0  0  0  1  0  0  0  0  0  0
  193.3940  172.2600  136.4710 C   0  0  1  0  0  0  0  0  0  0  0  0
  191.4100  169.6400  137.8610 O   0  0  0  0  0  0  0  0  0  0  0  0
  193.5370  170.0860  138.7210 N   0  0  0  0  0  2  0  0  0  0  0  0
  192.3560  170.4660  138.0040 C   0  0  0  0  0  0  0  0  0  0  0  0
  193.6940  168.7830  139.3470 C   0  0  0  0  0  2  0  0  0  0  0  0
  192.8030  168.7580  141.6250 C   0  0  0  0  0  3  0  0  0  0  0  0
  193.8480  168.9420  140.8220 C   0  0  0  0  0  3  0  0  0  0  0  0
  192.9370  168.9130  143.1070 C   0  0  0  0  0  2  0  0  0  0  0  0
  194.8070  169.9000  144.3280 N   0  0  0  0  0  1  0  0  0  0  0  0
  194.3830  168.7440  143.5540 C   0  0  0  0  0  2  0  0  0  0  0  0
  191.0460  173.7910  138.6090 O   0  0  0  0  0  0  0  0  0  0  0  0
  192.8460  172.7880  139.5980 O   0  0  0  0  0  1  0  0  0  0  0  0
  192.0750  172.8530  138.6040 C   0  0  0  0  0  0  0  0  0  0  0  0
  2  7  1  0  0  0  0
  2  1  2  0  0  0  0
  3  2  2  0  0  0  0
  4 13  1  0  0  0  0
  5  4  1  0  0  0  0
  5 10  1  1  0  0  0
  6  8  1  0  0  0  0
  6  5  1  0  0  0  0
  7  6  2  0  0  0  0
  8 14  1  6  0  0  0
  8 12  1  0  0  0  0
  9 11  1  0  0  0  0
 10  9  1  0  0  0  0
 12  4  2  0  0  0  0
 13 11  2  0  0  0  0
 14 15  1  0  0  0  0
 16 15  1  0  0  0  0
 17 18  1  1  0  0  0
 17 16  1  0  0  0  0
 17 19  1  0  0  0  0
 20 19  1  1  0  0  0
 20 25  1  0  0  0  0
 20 21  1  0  0  0  0
 22 23  1  0  0  0  0
 22 21  1  0  0  0  0
 23 24  1  0  0  0  0
 25 27  1  6  0  0  0
 25 28  1  0  0  0  0
 26 27  1  0  0  0  0
 29 28  1  0  0  0  0
 29 32  1  0  0  0  0
 32 30  1  0  0  0  0
 32 31  1  1  0  0  0
 33 41  1  1  0  0  0
 33 35  1  0  0  0  0
 33 34  1  0  0  0  0
 34 39  1  0  0  0  0
 35 36  1  0  0  0  0
 36 37  1  0  0  0  0
 37  2  1  1  0  0  0
 38 35  2  0  0  0  0
 39 37  1  0  0  0  0
 40 41  2  0  0  0  0
 42 46  1  0  0  0  0
 43 51  1  1  0  0  0
 43 60  1  0  0  0  0
 44 42  2  0  0  0  0
 45 42  1  0  0  0  0
 45 48  1  0  0  0  0
 46 43  1  0  0  0  0
 48 47  1  6  0  0  0
 48 40  1  0  0  0  0
 48 43  1  0  0  0  0
 49 51  2  0  0  0  0
 50 52  1  0  0  0  0
 51 50  1  0  0  0  0
 52 54  1  0  0  0  0
 53 55  1  0  0  0  0
 54 53  2  0  0  0  0
 55 57  1  0  0  0  0
 57 56  1  0  0  0  0
 60 58  2  0  0  0  0
 60 59  1  0  0  0  0
M  END
>  <MODEL>
9

>  <REMARK>
 VINA RESULT:      -5.0      2.444      6.814
  Name = 
  24 active torsions:
  status: ('A' for Active; 'I' for Inactive)
    1  A    between atoms: C_3  and  C_26
    2  A    between atoms: C_3  and  C_56
    3  A    between atoms: C_4  and  N_19
    4  A    between atoms: C_5  and  C_48
    5  A    between atoms: C_6  and  C_22
    6  A    between atoms: C_6  and  C_44
    7  A    between atoms: C_7  and  O_50
    8  A    between atoms: C_7  and  C_51
    9  A    between atoms: C_11  and  C_39
   10  A    between atoms: N_17  and  S_46
   11  A    between atoms: C_18  and  C_47
   12  A    between atoms: C_18  and  C_59
   13  A    between atoms: C_24  and  C_53
   14  A    between atoms: C_26  and  O_43
   15  A    between atoms: C_31  and  S_46
   16  A    between atoms: N_32  and  C_53
   17  A    between atoms: C_35  and  C_41
   18  A    between atoms: C_41  and  O_43
   19  A    between atoms: O_45  and  C_48
   20  A    between atoms: O_45  and  C_49
   21  A    between atoms: C_49  and  C_55
   22  A    between atoms: C_49  and  C_56
   23  A    between atoms: O_50  and  C_55
   24  A    between atoms: C_55  and  C_58
                            x       y       z     vdW  Elec       q    Type
                         _______ _______ _______ _____ _____    ______ ____

>  <TORSDO>
F 24

$$$$
