=
 OpenBabel11062421133D

 33 38  0  0  1  0  0  0  0  0999 V2000
  186.7980  177.5640  147.0240 C   0  0  0  0  0  3  0  0  0  0  0  0
  185.5370  177.3700  143.5600 C   0  0  0  0  0  0  0  0  0  0  0  0
  188.4420  176.3440  145.7020 C   0  0  0  0  0  0  0  0  0  0  0  0
  192.0070  174.3780  140.8330 O   0  0  0  0  0  1  0  0  0  0  0  0
  188.0030  176.8800  146.9230 C   0  0  0  0  0  3  0  0  0  0  0  0
  187.9480  175.9460  143.2490 C   0  0  0  0  0  0  0  0  0  0  0  0
  187.0650  176.1220  142.1780 C   0  0  0  0  0  3  0  0  0  0  0  0
  189.6470  174.2080  145.2340 C   0  0  0  0  0  0  0  0  0  0  0  0
  190.3240  177.3650  142.4770 C   0  0  0  0  0  1  0  0  0  0  0  0
  190.4950  175.8690  142.7040 C   0  0  2  0  0  3  0  0  0  0  0  0
  189.2840  172.1870  142.1130 C   0  0  0  0  0  2  0  0  0  0  0  0
  189.8060  175.1200  141.5670 C   0  0  2  0  0  3  0  0  0  0  0  0
  190.7050  172.6460  141.8630 C   0  0  0  0  0  2  0  0  0  0  0  0
  185.8790  176.8310  142.3260 C   0  0  0  0  0  3  0  0  0  0  0  0
  189.1880  175.1180  142.9810 C   0  0  2  0  0  0  0  0  0  0  0  0
  189.3700  173.9530  143.8520 N   0  0  0  0  0  0  0  0  0  0  0  0
  187.6200  176.4890  144.5350 C   0  0  0  0  0  0  0  0  0  0  0  0
  184.3420  178.0720  143.6800 O   0  0  0  0  0  1  0  0  0  0  0  0
  190.6990  173.9520  141.0790 C   0  0  2  0  0  3  0  0  0  0  0  0
  185.9990  177.7250  145.9010 C   0  0  0  0  0  3  0  0  0  0  0  0
  189.7790  175.6370  145.6810 C   0  0  2  0  0  3  0  0  0  0  0  0
  186.3860  177.2000  144.6650 C   0  0  0  0  0  0  0  0  0  0  0  0
  188.8120  172.6510  143.4830 C   0  0  0  0  0  2  0  0  0  0  0  0
  189.6890  173.2610  146.0650 O   0  0  0  0  0  0  0  0  0  0  0  0
  190.5070  174.9830  147.9150 O   0  0  0  0  0  1  0  0  0  0  0  0
  190.7160  175.9040  146.8810 C   0  0  1  0  0  3  0  0  0  0  0  0
  192.9510  176.8240  147.5980 C   0  0  0  0  0  1  0  0  0  0  0  0
  192.8210  174.6310  146.3810 C   0  0  0  0  0  2  0  0  0  0  0  0
  193.7450  176.7970  144.6360 C   0  0  0  0  0  2  0  0  0  0  0  0
  194.2710  175.3760  144.4850 C   0  0  0  0  0  2  0  0  0  0  0  0
  192.3140  176.7750  145.1770 C   0  0  0  0  0  2  0  0  0  0  0  0
  194.2480  174.6700  145.8340 C   0  0  0  0  0  2  0  0  0  0  0  0
  192.2080  176.0350  146.5200 C   0  0  0  0  0  0  0  0  0  0  0  0
  2 18  1  0  0  0  0
  2 22  1  0  0  0  0
  3  5  2  0  0  0  0
  4 19  1  0  0  0  0
  5  1  1  0  0  0  0
  6 17  1  0  0  0  0
  7 14  1  0  0  0  0
  7  6  2  0  0  0  0
  8 21  1  0  0  0  0
  8 24  2  0  0  0  0
 10  9  1  6  0  0  0
 10 15  1  0  0  0  0
 11 23  1  0  0  0  0
 12 10  1  0  0  0  0
 12 15  1  0  0  0  0
 13 11  1  0  0  0  0
 14  2  2  0  0  0  0
 15  6  1  0  0  0  0
 15 16  1  0  0  0  0
 16  8  1  0  0  0  0
 17 22  2  0  0  0  0
 17  3  1  0  0  0  0
 19 12  1  0  0  0  0
 19 13  1  0  0  0  0
 20  1  2  0  0  0  0
 21  3  1  0  0  0  0
 21 26  1  0  0  0  0
 22 20  1  0  0  0  0
 23 16  1  0  0  0  0
 26 25  1  0  0  0  0
 28 33  1  0  0  0  0
 29 31  1  0  0  0  0
 30 29  1  0  0  0  0
 30 32  1  0  0  0  0
 31 33  1  0  0  0  0
 32 28  1  0  0  0  0
 33 26  1  0  0  0  0
 33 27  1  0  0  0  0
M  END
>  <MODEL>
1

>  <REMARK>
 VINA RESULT:      -8.4      0.000      0.000
  Name = 
  2 active torsions:
  status: ('A' for Active; 'I' for Inactive)
    1  A    between atoms: C_3  and  C_27
    2  A    between atoms: C_3  and  C_33
                            x       y       z     vdW  Elec       q    Type
                         _______ _______ _______ _____ _____    ______ ____

>  <TORSDO>
F 2

$$$$
=
 OpenBabel11062421133D

 33 38  0  0  1  0  0  0  0  0999 V2000
  194.5500  171.4790  143.9380 C   0  0  0  0  0  3  0  0  0  0  0  0
  195.2090  174.5360  145.9010 C   0  0  0  0  0  0  0  0  0  0  0  0
  192.5230  172.8300  143.9120 C   0  0  0  0  0  0  0  0  0  0  0  0
  188.5980  177.8180  143.9620 O   0  0  0  0  0  1  0  0  0  0  0  0
  193.2320  171.6750  143.5480 C   0  0  0  0  0  3  0  0  0  0  0  0
  192.5280  175.0200  145.1870 C   0  0  0  0  0  0  0  0  0  0  0  0
  193.2390  175.9160  145.9930 C   0  0  0  0  0  3  0  0  0  0  0  0
  190.1270  173.0990  144.5620 C   0  0  0  0  0  0  0  0  0  0  0  0
  191.9600  176.4910  142.7850 C   0  0  0  0  0  1  0  0  0  0  0  0
  190.7450  176.0160  143.5680 C   0  0  2  0  0  3  0  0  0  0  0  0
  188.8360  175.6430  146.9730 C   0  0  0  0  0  2  0  0  0  0  0  0
  190.6400  176.8340  144.8520 C   0  0  2  0  0  3  0  0  0  0  0  0
  188.2120  176.2440  145.7300 C   0  0  0  0  0  2  0  0  0  0  0  0
  194.5630  175.6840  146.3400 C   0  0  0  0  0  3  0  0  0  0  0  0
  191.0760  175.3550  144.9110 C   0  0  2  0  0  0  0  0  0  0  0  0
  190.1060  174.3270  145.2990 N   0  0  0  0  0  0  0  0  0  0  0  0
  193.1680  173.8240  144.7210 C   0  0  0  0  0  0  0  0  0  0  0  0
  196.5350  174.3270  146.2670 O   0  0  0  0  0  1  0  0  0  0  0  0
  189.1690  177.2490  145.1030 C   0  0  2  0  0  3  0  0  0  0  0  0
  195.1930  172.4380  144.7070 C   0  0  0  0  0  3  0  0  0  0  0  0
  191.0980  172.9690  143.4220 C   0  0  2  0  0  3  0  0  0  0  0  0
  194.5270  173.6010  145.1060 C   0  0  0  0  0  0  0  0  0  0  0  0
  189.5160  174.3240  146.6380 C   0  0  0  0  0  2  0  0  0  0  0  0
  189.4110  172.1240  144.9190 O   0  0  0  0  0  0  0  0  0  0  0  0
  189.6560  171.1680  142.6340 O   0  0  0  0  0  1  0  0  0  0  0  0
  190.6800  172.0450  142.2560 C   0  0  1  0  0  3  0  0  0  0  0  0
  191.5280  173.6560  140.5130 C   0  0  0  0  0  1  0  0  0  0  0  0
  190.0610  171.7310  139.8440 C   0  0  0  0  0  2  0  0  0  0  0  0
  188.5940  174.2670  139.8650 C   0  0  0  0  0  2  0  0  0  0  0  0
  188.2840  173.1790  138.8450 C   0  0  0  0  0  2  0  0  0  0  0  0
  189.1100  173.6440  141.1620 C   0  0  0  0  0  2  0  0  0  0  0  0
  189.5410  172.3690  138.5560 C   0  0  0  0  0  2  0  0  0  0  0  0
  190.3570  172.7720  140.9370 C   0  0  0  0  0  0  0  0  0  0  0  0
  1 20  1  0  0  0  0
  2 18  1  0  0  0  0
  2 14  2  0  0  0  0
  3 17  2  0  0  0  0
  4 19  1  0  0  0  0
  5  3  1  0  0  0  0
  5  1  2  0  0  0  0
  6  7  2  0  0  0  0
  7 14  1  0  0  0  0
  8 24  2  0  0  0  0
  8 16  1  0  0  0  0
 10  9  1  6  0  0  0
 10 12  1  0  0  0  0
 10 15  1  0  0  0  0
 12 15  1  0  0  0  0
 12 19  1  0  0  0  0
 13 11  1  0  0  0  0
 15  6  1  0  0  0  0
 15 16  1  0  0  0  0
 16 23  1  0  0  0  0
 17 22  1  0  0  0  0
 17  6  1  0  0  0  0
 19 13  1  0  0  0  0
 20 22  2  0  0  0  0
 21  3  1  0  0  0  0
 21  8  1  0  0  0  0
 22  2  1  0  0  0  0
 23 11  1  0  0  0  0
 26 25  1  0  0  0  0
 26 21  1  0  0  0  0
 27 33  1  0  0  0  0
 28 33  1  0  0  0  0
 29 31  1  0  0  0  0
 30 29  1  0  0  0  0
 32 30  1  0  0  0  0
 32 28  1  0  0  0  0
 33 31  1  0  0  0  0
 33 26  1  0  0  0  0
M  END
>  <MODEL>
2

>  <REMARK>
 VINA RESULT:      -8.1      2.366      6.891
  Name = 
  2 active torsions:
  status: ('A' for Active; 'I' for Inactive)
    1  A    between atoms: C_3  and  C_27
    2  A    between atoms: C_3  and  C_33
                            x       y       z     vdW  Elec       q    Type
                         _______ _______ _______ _____ _____    ______ ____

>  <TORSDO>
F 2

$$$$
=
 OpenBabel11062421133D

 33 38  0  0  1  0  0  0  0  0999 V2000
  192.8100  173.8350  139.6430 C   0  0  0  0  0  3  0  0  0  0  0  0
  189.1980  173.2370  140.1120 C   0  0  0  0  0  0  0  0  0  0  0  0
  192.2370  174.4980  141.9160 C   0  0  0  0  0  0  0  0  0  0  0  0
  189.3990  174.7610  147.5880 O   0  0  0  0  0  1  0  0  0  0  0  0
  193.1730  174.3460  140.8820 C   0  0  0  0  0  3  0  0  0  0  0  0
  189.8210  174.2860  142.6510 C   0  0  0  0  0  0  0  0  0  0  0  0
  188.5120  173.9230  142.3160 C   0  0  0  0  0  3  0  0  0  0  0  0
  192.0150  176.3080  143.6220 C   0  0  0  0  0  0  0  0  0  0  0  0
  190.5580  172.4890  144.7680 C   0  0  0  0  0  1  0  0  0  0  0  0
  190.5580  173.9680  145.1300 C   0  0  2  0  0  3  0  0  0  0  0  0
  188.7890  177.4670  145.1060 C   0  0  0  0  0  2  0  0  0  0  0  0
  189.1130  174.4570  145.1880 C   0  0  2  0  0  3  0  0  0  0  0  0
  189.3400  176.8210  146.3610 C   0  0  0  0  0  2  0  0  0  0  0  0
  188.2030  173.3980  141.0680 C   0  0  0  0  0  3  0  0  0  0  0  0
  190.0320  174.8900  144.0250 C   0  0  2  0  0  0  0  0  0  0  0  0
  190.6490  176.2190  144.0440 N   0  0  0  0  0  0  0  0  0  0  0  0
  190.8680  174.1340  141.6840 C   0  0  0  0  0  0  0  0  0  0  0  0
  188.8590  172.7120  138.8700 O   0  0  0  0  0  1  0  0  0  0  0  0
  188.9060  175.3630  146.4270 C   0  0  2  0  0  3  0  0  0  0  0  0
  191.4940  173.4640  139.4070 C   0  0  0  0  0  3  0  0  0  0  0  0
  192.7270  175.0410  143.2410 C   0  0  2  0  0  3  0  0  0  0  0  0
  190.5210  173.6070  140.4010 C   0  0  0  0  0  0  0  0  0  0  0  0
  189.8250  177.4270  143.9930 C   0  0  0  0  0  2  0  0  0  0  0  0
  192.5730  177.4310  143.4900 O   0  0  0  0  0  0  0  0  0  0  0  0
  194.8130  176.2900  143.4270 O   0  0  0  0  0  1  0  0  0  0  0  0
  194.2550  175.0070  143.4730 C   0  0  1  0  0  3  0  0  0  0  0  0
  194.0440  174.8080  145.9770 C   0  0  0  0  0  1  0  0  0  0  0  0
  194.3190  172.7480  144.5660 C   0  0  0  0  0  2  0  0  0  0  0  0
  196.7990  173.4630  145.9530 C   0  0  0  0  0  2  0  0  0  0  0  0
  196.4160  172.0090  145.7090 C   0  0  0  0  0  2  0  0  0  0  0  0
  196.2310  174.3510  144.8460 C   0  0  0  0  0  2  0  0  0  0  0  0
  194.9000  171.8730  145.6770 C   0  0  0  0  0  2  0  0  0  0  0  0
  194.7030  174.2290  144.7260 C   0  0  0  0  0  0  0  0  0  0  0  0
  1  5  1  0  0  0  0
  2 22  2  0  0  0  0
  2 14  1  0  0  0  0
  3 21  1  0  0  0  0
  5  3  2  0  0  0  0
  6 15  1  0  0  0  0
  7  6  1  0  0  0  0
  8 16  1  0  0  0  0
 10  9  1  6  0  0  0
 10 12  1  0  0  0  0
 11 13  1  0  0  0  0
 12 19  1  0  0  0  0
 13 19  1  0  0  0  0
 14  7  2  0  0  0  0
 15 16  1  0  0  0  0
 15 10  1  0  0  0  0
 15 12  1  0  0  0  0
 17  3  1  0  0  0  0
 17  6  2  0  0  0  0
 18  2  1  0  0  0  0
 19  4  1  0  0  0  0
 20  1  2  0  0  0  0
 20 22  1  0  0  0  0
 21 26  1  0  0  0  0
 21  8  1  0  0  0  0
 22 17  1  0  0  0  0
 23 16  1  0  0  0  0
 23 11  1  0  0  0  0
 24  8  2  0  0  0  0
 25 26  1  0  0  0  0
 26 33  1  0  0  0  0
 28 33  1  0  0  0  0
 28 32  1  0  0  0  0
 30 29  1  0  0  0  0
 31 29  1  0  0  0  0
 32 30  1  0  0  0  0
 33 31  1  0  0  0  0
 33 27  1  0  0  0  0
M  END
>  <MODEL>
3

>  <REMARK>
 VINA RESULT:      -7.9      2.435      5.474
  Name = 
  2 active torsions:
  status: ('A' for Active; 'I' for Inactive)
    1  A    between atoms: C_3  and  C_27
    2  A    between atoms: C_3  and  C_33
                            x       y       z     vdW  Elec       q    Type
                         _______ _______ _______ _____ _____    ______ ____

>  <TORSDO>
F 2

$$$$
=
 OpenBabel11062421133D

 33 38  0  0  1  0  0  0  0  0999 V2000
  194.1130  176.0230  146.6070 C   0  0  0  0  0  3  0  0  0  0  0  0
  194.6500  172.6450  145.2190 C   0  0  0  0  0  0  0  0  0  0  0  0
  192.1850  175.4740  145.2210 C   0  0  0  0  0  0  0  0  0  0  0  0
  187.6380  172.2010  142.2390 O   0  0  0  0  0  1  0  0  0  0  0  0
  192.8820  176.3590  146.0580 C   0  0  0  0  0  3  0  0  0  0  0  0
  192.1630  173.2350  144.0350 C   0  0  0  0  0  0  0  0  0  0  0  0
  192.8230  172.0280  143.7760 C   0  0  0  0  0  3  0  0  0  0  0  0
  190.8150  175.9390  143.1860 C   0  0  0  0  0  0  0  0  0  0  0  0
  189.7480  172.4710  145.3900 C   0  0  0  0  0  1  0  0  0  0  0  0
  189.5580  173.1950  144.0650 C   0  0  2  0  0  3  0  0  0  0  0  0
  190.4580  173.6270  140.2730 C   0  0  0  0  0  2  0  0  0  0  0  0
  189.9720  172.2610  142.9320 C   0  0  2  0  0  3  0  0  0  0  0  0
  189.0380  173.4930  140.7820 C   0  0  0  0  0  2  0  0  0  0  0  0
  194.0460  171.7320  144.3650 C   0  0  0  0  0  3  0  0  0  0  0  0
  190.8580  173.4700  143.3010 C   0  0  2  0  0  0  0  0  0  0  0  0
  190.8000  174.6880  142.4880 N   0  0  0  0  0  0  0  0  0  0  0  0
  192.7650  174.1990  144.9100 C   0  0  0  0  0  0  0  0  0  0  0  0
  195.8760  172.3220  145.7920 O   0  0  0  0  0  1  0  0  0  0  0  0
  188.9480  172.3400  141.7730 C   0  0  2  0  0  3  0  0  0  0  0  0
  194.6800  174.7880  146.3270 C   0  0  0  0  0  3  0  0  0  0  0  0
  190.8400  175.9150  144.6890 C   0  0  2  0  0  3  0  0  0  0  0  0
  194.0310  173.8750  145.4900 C   0  0  0  0  0  0  0  0  0  0  0  0
  191.2140  174.6700  141.0840 C   0  0  0  0  0  2  0  0  0  0  0  0
  190.8960  177.0260  142.5520 O   0  0  0  0  0  0  0  0  0  0  0  0
  190.2040  178.2690  144.6290 O   0  0  0  0  0  1  0  0  0  0  0  0
  190.1730  177.1080  145.4120 C   0  0  1  0  0  3  0  0  0  0  0  0
  188.7370  175.4840  146.6980 C   0  0  0  0  0  1  0  0  0  0  0  0
  188.3570  177.9570  146.9230 C   0  0  0  0  0  2  0  0  0  0  0  0
  186.3260  176.6870  145.2350 C   0  0  0  0  0  2  0  0  0  0  0  0
  185.9830  177.8600  146.1450 C   0  0  0  0  0  2  0  0  0  0  0  0
  187.7830  176.7810  144.7800 C   0  0  0  0  0  2  0  0  0  0  0  0
  186.8970  177.8520  147.3630 C   0  0  0  0  0  2  0  0  0  0  0  0
  188.7630  176.8240  145.9640 C   0  0  0  0  0  0  0  0  0  0  0  0
  2 22  1  0  0  0  0
  2 18  1  0  0  0  0
  3  5  1  0  0  0  0
  5  1  2  0  0  0  0
  6 17  1  0  0  0  0
  7  6  2  0  0  0  0
  7 14  1  0  0  0  0
  8 21  1  0  0  0  0
 10  9  1  1  0  0  0
 11 13  1  0  0  0  0
 11 23  1  0  0  0  0
 12 15  1  0  0  0  0
 12 10  1  0  0  0  0
 13 19  1  0  0  0  0
 14  2  2  0  0  0  0
 15  6  1  0  0  0  0
 15 10  1  0  0  0  0
 16  8  1  0  0  0  0
 16 15  1  0  0  0  0
 17  3  2  0  0  0  0
 17 22  1  0  0  0  0
 19  4  1  0  0  0  0
 19 12  1  0  0  0  0
 20  1  1  0  0  0  0
 21  3  1  0  0  0  0
 21 26  1  0  0  0  0
 22 20  2  0  0  0  0
 23 16  1  0  0  0  0
 24  8  2  0  0  0  0
 25 26  1  0  0  0  0
 26 33  1  0  0  0  0
 28 32  1  0  0  0  0
 29 30  1  0  0  0  0
 30 32  1  0  0  0  0
 31 29  1  0  0  0  0
 31 33  1  0  0  0  0
 33 27  1  0  0  0  0
 33 28  1  0  0  0  0
M  END
>  <MODEL>
4

>  <REMARK>
 VINA RESULT:      -7.8      2.194      6.047
  Name = 
  2 active torsions:
  status: ('A' for Active; 'I' for Inactive)
    1  A    between atoms: C_3  and  C_27
    2  A    between atoms: C_3  and  C_33
                            x       y       z     vdW  Elec       q    Type
                         _______ _______ _______ _____ _____    ______ ____

>  <TORSDO>
F 2

$$$$
=
 OpenBabel11062421133D

 33 38  0  0  1  0  0  0  0  0999 V2000
  195.2570  172.7840  145.7630 C   0  0  0  0  0  3  0  0  0  0  0  0
  193.8000  169.8110  144.1280 C   0  0  0  0  0  0  0  0  0  0  0  0
  193.2380  173.4920  144.5960 C   0  0  0  0  0  0  0  0  0  0  0  0
  187.4410  173.4620  142.0130 O   0  0  0  0  0  1  0  0  0  0  0  0
  194.3600  173.7760  145.3900 C   0  0  0  0  0  3  0  0  0  0  0  0
  191.9360  171.7510  143.2940 C   0  0  0  0  0  0  0  0  0  0  0  0
  191.8270  170.4160  142.8880 C   0  0  0  0  0  3  0  0  0  0  0  0
  192.1840  174.8360  142.7750 C   0  0  0  0  0  0  0  0  0  0  0  0
  189.5930  172.2210  144.8910 C   0  0  0  0  0  1  0  0  0  0  0  0
  189.7230  173.0830  143.6430 C   0  0  2  0  0  3  0  0  0  0  0  0
  190.4330  173.4070  139.8000 C   0  0  0  0  0  2  0  0  0  0  0  0
  189.4890  172.2070  142.4160 C   0  0  2  0  0  3  0  0  0  0  0  0
  189.2030  173.9820  140.4710 C   0  0  0  0  0  2  0  0  0  0  0  0
  192.7400  169.4570  143.3040 C   0  0  0  0  0  3  0  0  0  0  0  0
  190.9080  172.7190  142.7420 C   0  0  2  0  0  0  0  0  0  0  0  0
  191.4510  173.8680  142.0140 N   0  0  0  0  0  0  0  0  0  0  0  0
  193.0220  172.1470  144.1430 C   0  0  0  0  0  0  0  0  0  0  0  0
  194.7020  168.8300  144.5260 O   0  0  0  0  0  1  0  0  0  0  0  0
  188.5840  172.9440  141.3980 C   0  0  2  0  0  3  0  0  0  0  0  0
  195.0530  171.4760  145.3450 C   0  0  0  0  0  3  0  0  0  0  0  0
  192.3030  174.6310  144.2590 C   0  0  2  0  0  3  0  0  0  0  0  0
  193.9570  171.1430  144.5440 C   0  0  0  0  0  0  0  0  0  0  0  0
  191.6860  173.7960  140.5710 C   0  0  0  0  0  2  0  0  0  0  0  0
  192.7860  175.7820  142.1990 O   0  0  0  0  0  0  0  0  0  0  0  0
  192.6930  177.0370  144.3450 O   0  0  0  0  0  1  0  0  0  0  0  0
  192.4320  175.9050  145.1260 C   0  0  1  0  0  3  0  0  0  0  0  0
  191.7780  176.7910  147.3940 C   0  0  0  0  0  1  0  0  0  0  0  0
  190.2170  177.0440  145.4420 C   0  0  0  0  0  2  0  0  0  0  0  0
  189.3560  174.9160  147.2640 C   0  0  0  0  0  2  0  0  0  0  0  0
  188.3470  175.7870  146.5270 C   0  0  0  0  0  2  0  0  0  0  0  0
  190.6360  174.7780  146.4390 C   0  0  0  0  0  2  0  0  0  0  0  0
  188.9420  177.1660  146.2760 C   0  0  0  0  0  2  0  0  0  0  0  0
  191.2690  176.1400  146.1090 C   0  0  0  0  0  0  0  0  0  0  0  0
  2 18  1  0  0  0  0
  2 22  1  0  0  0  0
  3  5  2  0  0  0  0
  5  1  1  0  0  0  0
  6 17  1  0  0  0  0
  7  6  2  0  0  0  0
  7 14  1  0  0  0  0
  8 21  1  0  0  0  0
 10  9  1  1  0  0  0
 11 13  1  0  0  0  0
 11 23  1  0  0  0  0
 12 15  1  0  0  0  0
 12 10  1  0  0  0  0
 13 19  1  0  0  0  0
 14  2  2  0  0  0  0
 15  6  1  0  0  0  0
 15 10  1  0  0  0  0
 16 15  1  0  0  0  0
 16  8  1  0  0  0  0
 17 22  2  0  0  0  0
 17  3  1  0  0  0  0
 19  4  1  0  0  0  0
 19 12  1  0  0  0  0
 20  1  2  0  0  0  0
 21  3  1  0  0  0  0
 21 26  1  0  0  0  0
 22 20  1  0  0  0  0
 23 16  1  0  0  0  0
 24  8  2  0  0  0  0
 25 26  1  0  0  0  0
 26 33  1  0  0  0  0
 28 33  1  0  0  0  0
 28 32  1  0  0  0  0
 30 29  1  0  0  0  0
 31 29  1  0  0  0  0
 32 30  1  0  0  0  0
 33 31  1  0  0  0  0
 33 27  1  0  0  0  0
M  END
>  <MODEL>
5

>  <REMARK>
 VINA RESULT:      -7.7      2.638      6.259
  Name = 
  2 active torsions:
  status: ('A' for Active; 'I' for Inactive)
    1  A    between atoms: C_3  and  C_27
    2  A    between atoms: C_3  and  C_33
                            x       y       z     vdW  Elec       q    Type
                         _______ _______ _______ _____ _____    ______ ____

>  <TORSDO>
F 2

$$$$
=
 OpenBabel11062421133D

 33 38  0  0  1  0  0  0  0  0999 V2000
  190.8740  177.9480  143.2930 C   0  0  0  0  0  3  0  0  0  0  0  0
  190.7710  176.5800  146.7210 C   0  0  0  0  0  0  0  0  0  0  0  0
  192.4220  176.0690  143.3900 C   0  0  0  0  0  0  0  0  0  0  0  0
  195.1090  170.5450  144.9880 O   0  0  0  0  0  1  0  0  0  0  0  0
  191.8070  177.1160  142.6870 C   0  0  0  0  0  3  0  0  0  0  0  0
  192.6910  174.8530  145.5970 C   0  0  0  0  0  0  0  0  0  0  0  0
  192.3200  174.7500  146.9420 C   0  0  0  0  0  3  0  0  0  0  0  0
  194.7700  175.2270  143.2760 C   0  0  0  0  0  0  0  0  0  0  0  0
  191.8310  172.3810  144.4110 C   0  0  0  0  0  1  0  0  0  0  0  0
  193.3280  172.6510  144.3560 C   0  0  2  0  0  3  0  0  0  0  0  0
  196.6490  173.7320  146.1380 C   0  0  0  0  0  2  0  0  0  0  0  0
  193.9020  172.5130  145.7630 C   0  0  2  0  0  3  0  0  0  0  0  0
  196.5140  172.4590  145.3290 C   0  0  0  0  0  2  0  0  0  0  0  0
  191.3680  175.5950  147.4970 C   0  0  0  0  0  3  0  0  0  0  0  0
  193.7730  173.9070  145.1130 C   0  0  2  0  0  0  0  0  0  0  0  0
  194.9520  174.5460  144.5230 N   0  0  0  0  0  0  0  0  0  0  0  0
  192.0940  175.8620  144.7720 C   0  0  0  0  0  0  0  0  0  0  0  0
  189.8230  177.4140  147.3040 O   0  0  0  0  0  1  0  0  0  0  0  0
  195.2360  171.7280  145.7200 C   0  0  2  0  0  3  0  0  0  0  0  0
  190.5360  177.7520  144.6250 C   0  0  0  0  0  3  0  0  0  0  0  0
  193.4070  175.1980  142.6420 C   0  0  2  0  0  3  0  0  0  0  0  0
  191.1290  176.7290  145.3710 C   0  0  0  0  0  0  0  0  0  0  0  0
  196.0980  174.9150  145.3560 C   0  0  0  0  0  2  0  0  0  0  0  0
  195.7060  175.9050  142.7730 O   0  0  0  0  0  0  0  0  0  0  0  0
  194.5830  175.6960  140.5640 O   0  0  0  0  0  1  0  0  0  0  0  0
  193.3590  175.2760  141.0990 C   0  0  1  0  0  3  0  0  0  0  0  0
  192.8920  174.1660  138.8840 C   0  0  0  0  0  1  0  0  0  0  0  0
  193.6800  172.8000  140.8400 C   0  0  0  0  0  2  0  0  0  0  0  0
  190.8110  172.4550  140.3490 C   0  0  0  0  0  2  0  0  0  0  0  0
  191.6750  171.3060  140.8520 C   0  0  0  0  0  2  0  0  0  0  0  0
  191.3730  173.7910  140.8390 C   0  0  0  0  0  2  0  0  0  0  0  0
  193.1020  171.4730  140.3470 C   0  0  0  0  0  2  0  0  0  0  0  0
  192.8310  174.0070  140.4030 C   0  0  0  0  0  0  0  0  0  0  0  0
  1 20  1  0  0  0  0
  2 18  1  0  0  0  0
  2 14  2  0  0  0  0
  3 17  2  0  0  0  0
  4 19  1  0  0  0  0
  5  1  2  0  0  0  0
  5  3  1  0  0  0  0
  6  7  2  0  0  0  0
  7 14  1  0  0  0  0
  8 16  1  0  0  0  0
 10  9  1  1  0  0  0
 10 15  1  0  0  0  0
 10 12  1  0  0  0  0
 13 19  1  0  0  0  0
 13 11  1  0  0  0  0
 15  6  1  0  0  0  0
 15 12  1  0  0  0  0
 16 15  1  0  0  0  0
 16 23  1  0  0  0  0
 17 22  1  0  0  0  0
 17  6  1  0  0  0  0
 19 12  1  0  0  0  0
 20 22  2  0  0  0  0
 21  8  1  0  0  0  0
 21  3  1  0  0  0  0
 22  2  1  0  0  0  0
 23 11  1  0  0  0  0
 24  8  2  0  0  0  0
 25 26  1  0  0  0  0
 26 21  1  0  0  0  0
 27 33  1  0  0  0  0
 29 31  1  0  0  0  0
 29 30  1  0  0  0  0
 32 28  1  0  0  0  0
 32 30  1  0  0  0  0
 33 31  1  0  0  0  0
 33 28  1  0  0  0  0
 33 26  1  0  0  0  0
M  END
>  <MODEL>
6

>  <REMARK>
 VINA RESULT:      -7.6      3.209      6.336
  Name = 
  2 active torsions:
  status: ('A' for Active; 'I' for Inactive)
    1  A    between atoms: C_3  and  C_27
    2  A    between atoms: C_3  and  C_33
                            x       y       z     vdW  Elec       q    Type
                         _______ _______ _______ _____ _____    ______ ____

>  <TORSDO>
F 2

$$$$
=
 OpenBabel11062421133D

 33 38  0  0  1  0  0  0  0  0999 V2000
  188.1910  173.4750  141.3810 C   0  0  0  0  0  3  0  0  0  0  0  0
  191.5560  173.6420  139.8720 C   0  0  0  0  0  0  0  0  0  0  0  0
  189.6930  174.4730  143.0210 C   0  0  0  0  0  0  0  0  0  0  0  0
  194.4870  177.7230  145.6170 O   0  0  0  0  0  1  0  0  0  0  0  0
  188.4200  174.0210  142.6380 C   0  0  0  0  0  3  0  0  0  0  0  0
  192.1350  174.7400  142.4010 C   0  0  0  0  0  0  0  0  0  0  0  0
  193.1370  174.5570  141.4410 C   0  0  0  0  0  3  0  0  0  0  0  0
  190.8450  174.3240  145.2310 C   0  0  0  0  0  0  0  0  0  0  0  0
  191.9790  177.5860  142.7620 C   0  0  0  0  0  1  0  0  0  0  0  0
  192.3620  176.7850  143.9990 C   0  0  2  0  0  3  0  0  0  0  0  0
  194.5370  174.0020  145.7020 C   0  0  0  0  0  2  0  0  0  0  0  0
  193.7780  176.2460  143.8150 C   0  0  2  0  0  3  0  0  0  0  0  0
  194.4100  175.4100  146.2460 C   0  0  0  0  0  2  0  0  0  0  0  0
  192.8530  174.0240  140.1910 C   0  0  0  0  0  3  0  0  0  0  0  0
  192.5690  175.2880  143.7450 C   0  0  2  0  0  0  0  0  0  0  0  0
  192.2330  174.4580  144.9050 N   0  0  0  0  0  0  0  0  0  0  0  0
  190.7870  174.3520  142.1010 C   0  0  0  0  0  0  0  0  0  0  0  0
  191.3020  173.1070  138.6130 O   0  0  0  0  0  1  0  0  0  0  0  0
  194.5900  176.4210  145.1210 C   0  0  2  0  0  3  0  0  0  0  0  0
  189.2360  173.3650  140.4750 C   0  0  0  0  0  3  0  0  0  0  0  0
  189.8430  175.0750  144.4000 C   0  0  2  0  0  3  0  0  0  0  0  0
  190.5250  173.7900  140.8130 C   0  0  0  0  0  0  0  0  0  0  0  0
  193.1620  173.4330  145.3840 C   0  0  0  0  0  2  0  0  0  0  0  0
  190.4720  173.5260  146.1330 O   0  0  0  0  0  0  0  0  0  0  0  0
  188.5670  175.1980  146.4750 O   0  0  0  0  0  1  0  0  0  0  0  0
  188.5380  175.5040  145.1080 C   0  0  1  0  0  3  0  0  0  0  0  0
  189.2700  177.9160  145.1430 C   0  0  0  0  0  1  0  0  0  0  0  0
  187.6610  177.1110  143.3900 C   0  0  0  0  0  2  0  0  0  0  0  0
  186.3140  178.6540  145.4860 C   0  0  0  0  0  2  0  0  0  0  0  0
  185.8550  178.7150  144.0350 C   0  0  0  0  0  2  0  0  0  0  0  0
  186.9330  177.2880  145.7870 C   0  0  0  0  0  2  0  0  0  0  0  0
  187.0400  178.4780  143.1080 C   0  0  0  0  0  2  0  0  0  0  0  0
  188.1120  176.9630  144.8540 C   0  0  0  0  0  0  0  0  0  0  0  0
  1  5  1  0  0  0  0
  2 14  2  0  0  0  0
  2 22  1  0  0  0  0
  3 21  1  0  0  0  0
  5  3  2  0  0  0  0
  6 15  1  0  0  0  0
  7  6  2  0  0  0  0
  8 24  2  0  0  0  0
 10  9  1  6  0  0  0
 11 13  1  0  0  0  0
 12 10  1  0  0  0  0
 12 19  1  0  0  0  0
 14  7  1  0  0  0  0
 15 12  1  0  0  0  0
 15 10  1  0  0  0  0
 15 16  1  0  0  0  0
 16  8  1  0  0  0  0
 16 23  1  0  0  0  0
 17  6  1  0  0  0  0
 17  3  1  0  0  0  0
 18  2  1  0  0  0  0
 19  4  1  0  0  0  0
 19 13  1  0  0  0  0
 20 22  1  0  0  0  0
 20  1  2  0  0  0  0
 21 26  1  0  0  0  0
 21  8  1  0  0  0  0
 22 17  2  0  0  0  0
 23 11  1  0  0  0  0
 26 25  1  0  0  0  0
 28 33  1  0  0  0  0
 29 31  1  0  0  0  0
 30 29  1  0  0  0  0
 32 28  1  0  0  0  0
 32 30  1  0  0  0  0
 33 26  1  0  0  0  0
 33 27  1  0  0  0  0
 33 31  1  0  0  0  0
M  END
>  <MODEL>
7

>  <REMARK>
 VINA RESULT:      -7.6      1.902      5.719
  Name = 
  2 active torsions:
  status: ('A' for Active; 'I' for Inactive)
    1  A    between atoms: C_3  and  C_27
    2  A    between atoms: C_3  and  C_33
                            x       y       z     vdW  Elec       q    Type
                         _______ _______ _______ _____ _____    ______ ____

>  <TORSDO>
F 2

$$$$
=
 OpenBabel11062421133D

 33 38  0  0  1  0  0  0  0  0999 V2000
  191.4910  175.6730  148.0110 C   0  0  0  0  0  3  0  0  0  0  0  0
  188.7430  176.6050  145.7290 C   0  0  0  0  0  0  0  0  0  0  0  0
  191.9730  174.6980  145.8310 C   0  0  0  0  0  0  0  0  0  0  0  0
  192.2370  173.7930  139.5540 O   0  0  0  0  0  1  0  0  0  0  0  0
  192.3030  174.9140  147.1770 C   0  0  0  0  0  3  0  0  0  0  0  0
  190.3030  175.0640  143.9600 C   0  0  0  0  0  0  0  0  0  0  0  0
  189.0910  175.6330  143.5530 C   0  0  0  0  0  3  0  0  0  0  0  0
  192.2640  172.6580  144.4200 C   0  0  0  0  0  0  0  0  0  0  0  0
  192.2970  176.3660  142.3520 C   0  0  0  0  0  1  0  0  0  0  0  0
  192.1910  174.8580  142.1760 C   0  0  2  0  0  3  0  0  0  0  0  0
  190.0030  171.6510  141.6220 C   0  0  0  0  0  2  0  0  0  0  0  0
  190.8910  174.5410  141.4410 C   0  0  2  0  0  3  0  0  0  0  0  0
  191.2020  171.9990  140.7650 C   0  0  0  0  0  2  0  0  0  0  0  0
  188.3240  176.3990  144.4210 C   0  0  0  0  0  3  0  0  0  0  0  0
  191.0320  174.2100  142.9420 C   0  0  2  0  0  0  0  0  0  0  0  0
  191.3170  172.8350  143.3600 N   0  0  0  0  0  0  0  0  0  0  0  0
  190.7600  175.2560  145.3060 C   0  0  0  0  0  0  0  0  0  0  0  0
  187.9530  177.3740  146.5770 O   0  0  0  0  0  1  0  0  0  0  0  0
  191.1400  173.4650  140.3550 C   0  0  2  0  0  3  0  0  0  0  0  0
  190.3230  176.2320  147.5150 C   0  0  0  0  0  3  0  0  0  0  0  0
  192.9290  173.8790  144.9910 C   0  0  2  0  0  3  0  0  0  0  0  0
  189.9440  176.0360  146.1830 C   0  0  0  0  0  0  0  0  0  0  0  0
  190.3590  171.7600  143.0970 C   0  0  0  0  0  2  0  0  0  0  0  0
  192.4650  171.5170  144.9170 O   0  0  0  0  0  0  0  0  0  0  0  0
  194.6540  172.3380  145.7630 O   0  0  0  0  0  1  0  0  0  0  0  0
  194.3540  173.6900  145.5600 C   0  0  1  0  0  3  0  0  0  0  0  0
  196.8260  174.1660  145.4270 C   0  0  0  0  0  1  0  0  0  0  0  0
  195.4740  173.9110  143.3250 C   0  0  0  0  0  2  0  0  0  0  0  0
  196.1000  176.7170  143.8880 C   0  0  0  0  0  2  0  0  0  0  0  0
  196.0270  176.1900  142.4610 C   0  0  0  0  0  2  0  0  0  0  0  0
  195.1580  175.9230  144.7930 C   0  0  0  0  0  2  0  0  0  0  0  0
  196.4160  174.7190  142.4330 C   0  0  0  0  0  2  0  0  0  0  0  0
  195.4650  174.4160  144.7780 C   0  0  0  0  0  0  0  0  0  0  0  0
  2 22  1  0  0  0  0
  2 18  1  0  0  0  0
  3  5  1  0  0  0  0
  4 19  1  0  0  0  0
  5  1  2  0  0  0  0
  6 17  1  0  0  0  0
  7  6  2  0  0  0  0
  7 14  1  0  0  0  0
  8 24  2  0  0  0  0
  8 21  1  0  0  0  0
 10  9  1  1  0  0  0
 10 15  1  0  0  0  0
 11 23  1  0  0  0  0
 12 10  1  0  0  0  0
 12 15  1  0  0  0  0
 13 11  1  0  0  0  0
 14  2  2  0  0  0  0
 15 16  1  0  0  0  0
 15  6  1  0  0  0  0
 16  8  1  0  0  0  0
 17  3  2  0  0  0  0
 17 22  1  0  0  0  0
 19 13  1  0  0  0  0
 19 12  1  0  0  0  0
 20  1  1  0  0  0  0
 21 26  1  0  0  0  0
 21  3  1  0  0  0  0
 22 20  2  0  0  0  0
 23 16  1  0  0  0  0
 26 25  1  0  0  0  0
 28 33  1  0  0  0  0
 29 31  1  0  0  0  0
 30 29  1  0  0  0  0
 32 30  1  0  0  0  0
 32 28  1  0  0  0  0
 33 31  1  0  0  0  0
 33 27  1  0  0  0  0
 33 26  1  0  0  0  0
M  END
>  <MODEL>
8

>  <REMARK>
 VINA RESULT:      -7.6      2.065      3.437
  Name = 
  2 active torsions:
  status: ('A' for Active; 'I' for Inactive)
    1  A    between atoms: C_3  and  C_27
    2  A    between atoms: C_3  and  C_33
                            x       y       z     vdW  Elec       q    Type
                         _______ _______ _______ _____ _____    ______ ____

>  <TORSDO>
F 2

$$$$
=
 OpenBabel11062421133D

 33 38  0  0  1  0  0  0  0  0999 V2000
  185.2370  177.2510  143.8630 C   0  0  0  0  0  3  0  0  0  0  0  0
  186.7650  178.0500  147.1280 C   0  0  0  0  0  0  0  0  0  0  0  0
  187.5170  176.3920  143.8470 C   0  0  0  0  0  0  0  0  0  0  0  0
  193.0580  173.9550  145.7590 O   0  0  0  0  0  1  0  0  0  0  0  0
  186.2800  176.5990  143.2180 C   0  0  0  0  0  3  0  0  0  0  0  0
  188.9510  176.7640  145.9030 C   0  0  0  0  0  0  0  0  0  0  0  0
  189.0510  177.2970  147.1930 C   0  0  0  0  0  3  0  0  0  0  0  0
  189.8270  176.4810  142.9040 C   0  0  0  0  0  0  0  0  0  0  0  0
  189.2880  173.9320  146.2560 C   0  0  0  0  0  1  0  0  0  0  0  0
  190.3310  174.6160  145.3830 C   0  0  2  0  0  3  0  0  0  0  0  0
  192.8710  177.5450  144.7910 C   0  0  0  0  0  2  0  0  0  0  0  0
  191.2250  175.4760  146.2710 C   0  0  2  0  0  3  0  0  0  0  0  0
  193.2420  176.0820  144.6650 C   0  0  0  0  0  2  0  0  0  0  0  0
  187.9720  177.9250  147.8020 C   0  0  0  0  0  3  0  0  0  0  0  0
  190.2050  176.1420  145.3230 C   0  0  2  0  0  0  0  0  0  0  0  0
  190.6580  176.7060  144.0490 N   0  0  0  0  0  0  0  0  0  0  0  0
  187.7170  176.8810  145.1810 C   0  0  0  0  0  0  0  0  0  0  0  0
  185.7020  178.6870  147.7610 O   0  0  0  0  0  1  0  0  0  0  0  0
  192.7090  175.3040  145.8610 C   0  0  2  0  0  3  0  0  0  0  0  0
  185.4100  177.7170  145.1590 C   0  0  0  0  0  3  0  0  0  0  0  0
  188.5870  175.6500  143.0770 C   0  0  2  0  0  3  0  0  0  0  0  0
  186.6280  177.5460  145.8250 C   0  0  0  0  0  0  0  0  0  0  0  0
  191.5910  177.8330  144.0200 C   0  0  0  0  0  2  0  0  0  0  0  0
  190.0860  177.0400  141.8040 O   0  0  0  0  0  0  0  0  0  0  0  0
  188.0250  175.6550  140.7040 O   0  0  0  0  0  1  0  0  0  0  0  0
  188.1130  174.8470  141.8440 C   0  0  1  0  0  3  0  0  0  0  0  0
  188.2890  172.7880  140.3990 C   0  0  0  0  0  1  0  0  0  0  0  0
  190.3660  173.9070  141.2600 C   0  0  0  0  0  2  0  0  0  0  0  0
  189.7520  171.4530  142.7390 C   0  0  0  0  0  2  0  0  0  0  0  0
  191.1900  171.8810  142.4710 C   0  0  0  0  0  2  0  0  0  0  0  0
  188.8460  172.6800  142.8380 C   0  0  0  0  0  2  0  0  0  0  0  0
  191.2590  172.6700  141.1710 C   0  0  0  0  0  2  0  0  0  0  0  0
  188.9020  173.5520  141.5720 C   0  0  0  0  0  0  0  0  0  0  0  0
  1 20  1  0  0  0  0
  2 18  1  0  0  0  0
  2 14  2  0  0  0  0
  3 17  2  0  0  0  0
  4 19  1  0  0  0  0
  5  3  1  0  0  0  0
  5  1  2  0  0  0  0
  6  7  2  0  0  0  0
  7 14  1  0  0  0  0
  8 21  1  0  0  0  0
  8 16  1  0  0  0  0
 10  9  1  1  0  0  0
 10 12  1  0  0  0  0
 13 11  1  0  0  0  0
 13 19  1  0  0  0  0
 15 10  1  0  0  0  0
 15  6  1  0  0  0  0
 15 12  1  0  0  0  0
 16 15  1  0  0  0  0
 17 22  1  0  0  0  0
 17  6  1  0  0  0  0
 19 12  1  0  0  0  0
 20 22  2  0  0  0  0
 21  3  1  0  0  0  0
 22  2  1  0  0  0  0
 23 16  1  0  0  0  0
 23 11  1  0  0  0  0
 24  8  2  0  0  0  0
 25 26  1  0  0  0  0
 26 21  1  0  0  0  0
 27 33  1  0  0  0  0
 28 33  1  0  0  0  0
 29 31  1  0  0  0  0
 30 29  1  0  0  0  0
 32 28  1  0  0  0  0
 32 30  1  0  0  0  0
 33 26  1  0  0  0  0
 33 31  1  0  0  0  0
M  END
>  <MODEL>
9

>  <REMARK>
 VINA RESULT:      -7.5      1.740      5.034
  Name = 
  2 active torsions:
  status: ('A' for Active; 'I' for Inactive)
    1  A    between atoms: C_3  and  C_27
    2  A    between atoms: C_3  and  C_33
                            x       y       z     vdW  Elec       q    Type
                         _______ _______ _______ _____ _____    ______ ____

>  <TORSDO>
F 2

$$$$
