=
 OpenBabel11062421093D

 27 30  0  0  1  0  0  0  0  0999 V2000
  188.3820  177.2460  146.0900 C   0  0  0  0  0  2  0  0  0  0  0  0
  191.0580  176.2580  147.0560 N   0  0  0  0  0  0  0  0  0  0  0  0
  191.9300  176.8800  143.5410 N   0  0  0  0  0  0  0  0  0  0  0  0
  192.0200  175.4390  147.3590 C   0  0  0  0  0  3  0  0  0  0  0  0
  190.9050  177.8090  143.0900 C   0  0  0  0  0  2  0  0  0  0  0  0
  189.3680  176.4080  145.2790 C   0  0  1  0  0  3  0  0  0  0  0  0
  192.9680  174.9810  146.3350 C   0  0  0  0  0  3  0  0  0  0  0  0
  189.6620  177.0820  142.8870 N   0  0  0  0  0  0  0  0  0  0  0  0
  188.9940  176.4330  143.8020 C   0  0  0  0  0  0  0  0  0  0  0  0
  191.8780  176.3520  144.7220 C   0  0  0  0  0  0  0  0  0  0  0  0
  190.8030  176.7710  145.7040 C   0  0  2  0  0  3  0  0  0  0  0  0
  192.8890  175.4200  145.1180 N   0  0  0  0  0  0  0  0  0  0  0  0
  187.7720  174.9390  142.2580 C   0  0  0  0  0  1  0  0  0  0  0  0
  187.8440  175.7270  143.4380 O   0  0  0  0  0  0  0  0  0  0  0  0
  187.2020  176.4140  146.5700 C   0  0  0  0  0  2  0  0  0  0  0  0
  185.8890  177.1090  146.2420 C   0  0  0  0  0  2  0  0  0  0  0  0
  186.0130  178.6050  146.4760 C   0  0  0  0  0  2  0  0  0  0  0  0
  183.1120  178.5540  142.8750 N   0  0  0  0  0  2  0  0  0  0  0  0
  186.2910  179.1340  144.1490 O   0  0  0  0  0  0  0  0  0  0  0  0
  184.2170  178.2630  143.6850 N   0  0  2  0  0  0  0  0  0  0  0  0
  185.4910  179.3880  145.2790 C   0  0  1  0  0  3  0  0  0  0  0  0
  184.0790  178.9350  144.9510 C   0  0  0  0  0  2  0  0  0  0  0  0
  185.3550  178.9490  143.1270 C   0  0  2  0  0  3  0  0  0  0  0  0
  185.8820  178.1290  141.9730 C   0  0  0  0  0  2  0  0  0  0  0  0
  184.7250  178.2880  140.5590 S   0  0  0  0  0  0  0  0  0  0  0  0
  183.1590  178.2550  141.4740 C   0  0  0  0  0  0  0  0  0  0  0  0
  181.7630  178.1720  140.6330 S   0  0  0  0  0  0  0  0  0  0  0  0
  1 15  1  0  0  0  0
  2  4  2  0  0  0  0
  3 10  2  0  0  0  0
  5  3  1  0  0  0  0
  6 11  1  0  0  0  0
  6  1  1  1  0  0  0
  7  4  1  0  0  0  0
  8  5  1  0  0  0  0
  8  9  2  0  0  0  0
  9  6  1  0  0  0  0
 10 12  1  0  0  0  0
 11 10  1  6  0  0  0
 11  2  1  0  0  0  0
 12  7  2  0  0  0  0
 13 14  1  0  0  0  0
 14  9  1  0  0  0  0
 16 17  1  0  0  0  0
 16 15  1  0  0  0  0
 18 20  1  0  0  0  0
 19 21  1  0  0  0  0
 20 22  1  1  0  0  0
 21 17  1  1  0  0  0
 22 21  1  0  0  0  0
 23 24  1  6  0  0  0
 23 20  1  0  0  0  0
 23 19  1  0  0  0  0
 25 26  1  0  0  0  0
 25 24  1  0  0  0  0
 26 18  1  0  0  0  0
 27 26  2  0  0  0  0
M  END
>  <MODEL>
1

>  <REMARK>
 VINA RESULT:      -7.2      0.000      0.000
  Name = 
  6 active torsions:
  status: ('A' for Active; 'I' for Inactive)
    1  A    between atoms: C_3  and  C_8
    2  A    between atoms: C_3  and  C_13
    3  A    between atoms: C_13  and  C_14
    4  A    between atoms: C_14  and  C_19
    5  A    between atoms: C_16  and  C_19
    6  A    between atoms: C_21  and  O_27
                            x       y       z     vdW  Elec       q    Type
                         _______ _______ _______ _____ _____    ______ ____

>  <TORSDO>
F 6

$$$$
=
 OpenBabel11062421093D

 27 30  0  0  1  0  0  0  0  0999 V2000
  188.5900  176.9940  146.7310 C   0  0  0  0  0  2  0  0  0  0  0  0
  185.7020  177.7660  146.3610 N   0  0  0  0  0  0  0  0  0  0  0  0
  186.3850  176.5200  142.9720 N   0  0  0  0  0  0  0  0  0  0  0  0
  184.6570  178.4920  146.1000 C   0  0  0  0  0  3  0  0  0  0  0  0
  187.5540  175.6730  143.1440 C   0  0  0  0  0  2  0  0  0  0  0  0
  187.9780  177.5690  145.4560 C   0  0  1  0  0  3  0  0  0  0  0  0
  184.1870  178.6670  144.7200 C   0  0  0  0  0  3  0  0  0  0  0  0
  188.7290  176.5140  143.3150 N   0  0  0  0  0  0  0  0  0  0  0  0
  188.9250  177.3720  144.2790 C   0  0  0  0  0  0  0  0  0  0  0  0
  185.9180  177.2210  143.9550 C   0  0  0  0  0  0  0  0  0  0  0  0
  186.5180  177.0930  145.3420 C   0  0  2  0  0  3  0  0  0  0  0  0
  184.7830  178.0650  143.7390 N   0  0  0  0  0  0  0  0  0  0  0  0
  191.0820  178.0340  143.2700 C   0  0  0  0  0  1  0  0  0  0  0  0
  190.0820  178.1570  144.2710 O   0  0  0  0  0  0  0  0  0  0  0  0
  188.5670  175.4720  146.7260 C   0  0  0  0  0  2  0  0  0  0  0  0
  189.8340  174.9160  147.3550 C   0  0  0  0  0  2  0  0  0  0  0  0
  190.9490  175.9470  147.2920 C   0  0  0  0  0  2  0  0  0  0  0  0
  194.8720  176.4950  144.9060 N   0  0  0  0  0  2  0  0  0  0  0  0
  192.0950  174.5640  145.6960 O   0  0  0  0  0  0  0  0  0  0  0  0
  193.5150  176.2970  145.1880 N   0  0  2  0  0  0  0  0  0  0  0  0
  192.2660  175.3010  146.8840 C   0  0  1  0  0  3  0  0  0  0  0  0
  193.2990  176.3790  146.6090 C   0  0  0  0  0  2  0  0  0  0  0  0
  193.2190  174.9090  144.9400 C   0  0  2  0  0  3  0  0  0  0  0  0
  193.0210  174.7260  143.4530 C   0  0  0  0  0  2  0  0  0  0  0  0
  194.6540  174.8280  142.6230 S   0  0  0  0  0  0  0  0  0  0  0  0
  195.3850  176.1650  143.6090 C   0  0  0  0  0  0  0  0  0  0  0  0
  196.8160  176.7920  143.1370 S   0  0  0  0  0  0  0  0  0  0  0  0
  3  5  1  0  0  0  0
  3 10  2  0  0  0  0
  4  2  2  0  0  0  0
  5  8  1  0  0  0  0
  6  1  1  1  0  0  0
  7  4  1  0  0  0  0
  8  9  2  0  0  0  0
  9  6  1  0  0  0  0
 11 10  1  6  0  0  0
 11  6  1  0  0  0  0
 11  2  1  0  0  0  0
 12 10  1  0  0  0  0
 12  7  2  0  0  0  0
 13 14  1  0  0  0  0
 14  9  1  0  0  0  0
 15  1  1  0  0  0  0
 15 16  1  0  0  0  0
 17 16  1  0  0  0  0
 18 20  1  0  0  0  0
 19 21  1  0  0  0  0
 20 22  1  1  0  0  0
 21 17  1  6  0  0  0
 22 21  1  0  0  0  0
 23 24  1  6  0  0  0
 23 20  1  0  0  0  0
 23 19  1  0  0  0  0
 25 24  1  0  0  0  0
 25 26  1  0  0  0  0
 26 18  1  0  0  0  0
 27 26  2  0  0  0  0
M  END
>  <MODEL>
2

>  <REMARK>
 VINA RESULT:      -7.1      3.785      7.632
  Name = 
  6 active torsions:
  status: ('A' for Active; 'I' for Inactive)
    1  A    between atoms: C_3  and  C_8
    2  A    between atoms: C_3  and  C_13
    3  A    between atoms: C_13  and  C_14
    4  A    between atoms: C_14  and  C_19
    5  A    between atoms: C_16  and  C_19
    6  A    between atoms: C_21  and  O_27
                            x       y       z     vdW  Elec       q    Type
                         _______ _______ _______ _____ _____    ______ ____

>  <TORSDO>
F 6

$$$$
=
 OpenBabel11062421093D

 27 30  0  0  1  0  0  0  0  0999 V2000
  188.0710  176.7930  146.4840 C   0  0  0  0  0  2  0  0  0  0  0  0
  185.2540  177.7770  146.0730 N   0  0  0  0  0  0  0  0  0  0  0  0
  185.9880  176.7270  142.6280 N   0  0  0  0  0  0  0  0  0  0  0  0
  184.2670  178.5860  145.8290 C   0  0  0  0  0  3  0  0  0  0  0  0
  187.0930  175.7950  142.7790 C   0  0  0  0  0  2  0  0  0  0  0  0
  187.5460  177.4950  145.2340 C   0  0  1  0  0  3  0  0  0  0  0  0
  183.8630  178.8870  144.4490 C   0  0  0  0  0  3  0  0  0  0  0  0
  188.3110  176.5440  143.0490 N   0  0  0  0  0  0  0  0  0  0  0  0
  188.5240  177.3180  144.0790 C   0  0  0  0  0  0  0  0  0  0  0  0
  185.5280  177.3860  143.6430 C   0  0  0  0  0  0  0  0  0  0  0  0
  186.0640  177.1240  145.0360 C   0  0  2  0  0  3  0  0  0  0  0  0
  184.4570  178.3160  143.4480 N   0  0  0  0  0  0  0  0  0  0  0  0
  190.7370  177.9410  143.1710 C   0  0  0  0  0  1  0  0  0  0  0  0
  189.7270  178.0240  144.1660 O   0  0  0  0  0  0  0  0  0  0  0  0
  188.7500  175.4750  146.1430 C   0  0  0  0  0  2  0  0  0  0  0  0
  189.4300  174.8910  147.3710 C   0  0  0  0  0  2  0  0  0  0  0  0
  190.9110  175.2330  147.3660 C   0  0  0  0  0  2  0  0  0  0  0  0
  194.1570  174.0880  144.2780 N   0  0  0  0  0  2  0  0  0  0  0  0
  192.3040  176.5350  145.9050 O   0  0  0  0  0  0  0  0  0  0  0  0
  193.5420  174.6690  145.3950 N   0  0  2  0  0  0  0  0  0  0  0  0
  191.4150  175.4440  145.9450 C   0  0  1  0  0  3  0  0  0  0  0  0
  192.1800  174.2140  145.4890 C   0  0  0  0  0  2  0  0  0  0  0  0
  193.3510  176.0670  145.1050 C   0  0  2  0  0  3  0  0  0  0  0  0
  194.6590  176.7840  145.3480 C   0  0  0  0  0  2  0  0  0  0  0  0
  195.8240  176.3630  143.9960 S   0  0  0  0  0  0  0  0  0  0  0  0
  195.4040  174.6090  143.8000 C   0  0  0  0  0  0  0  0  0  0  0  0
  196.3230  173.6890  142.8150 S   0  0  0  0  0  0  0  0  0  0  0  0
  3  5  1  0  0  0  0
  3 10  2  0  0  0  0
  4  2  2  0  0  0  0
  5  8  1  0  0  0  0
  6  1  1  1  0  0  0
  7  4  1  0  0  0  0
  8  9  2  0  0  0  0
  9 14  1  0  0  0  0
  9  6  1  0  0  0  0
 11 10  1  6  0  0  0
 11  6  1  0  0  0  0
 11  2  1  0  0  0  0
 12 10  1  0  0  0  0
 12  7  2  0  0  0  0
 13 14  1  0  0  0  0
 15  1  1  0  0  0  0
 15 16  1  0  0  0  0
 17 16  1  0  0  0  0
 18 20  1  0  0  0  0
 19 21  1  0  0  0  0
 20 22  1  6  0  0  0
 21 17  1  1  0  0  0
 22 21  1  0  0  0  0
 23 24  1  1  0  0  0
 23 20  1  0  0  0  0
 23 19  1  0  0  0  0
 25 24  1  0  0  0  0
 26 25  1  0  0  0  0
 26 18  1  0  0  0  0
 27 26  2  0  0  0  0
M  END
>  <MODEL>
3

>  <REMARK>
 VINA RESULT:      -7.0      4.031      7.819
  Name = 
  6 active torsions:
  status: ('A' for Active; 'I' for Inactive)
    1  A    between atoms: C_3  and  C_8
    2  A    between atoms: C_3  and  C_13
    3  A    between atoms: C_13  and  C_14
    4  A    between atoms: C_14  and  C_19
    5  A    between atoms: C_16  and  C_19
    6  A    between atoms: C_21  and  O_27
                            x       y       z     vdW  Elec       q    Type
                         _______ _______ _______ _____ _____    ______ ____

>  <TORSDO>
F 6

$$$$
=
 OpenBabel11062421093D

 27 30  0  0  1  0  0  0  0  0999 V2000
  188.9120  177.7270  144.4670 C   0  0  0  0  0  2  0  0  0  0  0  0
  187.8480  177.8230  141.6500 N   0  0  0  0  0  0  0  0  0  0  0  0
  184.9920  179.3610  143.3780 N   0  0  0  0  0  0  0  0  0  0  0  0
  187.2470  177.4540  140.5600 C   0  0  0  0  0  3  0  0  0  0  0  0
  185.5580  179.8270  144.6340 C   0  0  0  0  0  2  0  0  0  0  0  0
  187.4520  177.5450  144.0590 C   0  0  1  0  0  3  0  0  0  0  0  0
  185.7970  177.6310  140.4020 C   0  0  0  0  0  3  0  0  0  0  0  0
  185.7640  178.6860  145.5130 N   0  0  0  0  0  0  0  0  0  0  0  0
  186.5440  177.6660  145.2770 C   0  0  0  0  0  0  0  0  0  0  0  0
  185.6980  178.6650  142.5460 C   0  0  0  0  0  0  0  0  0  0  0  0
  187.1680  178.4060  142.8140 C   0  0  2  0  0  3  0  0  0  0  0  0
  185.0970  178.2000  141.3330 N   0  0  0  0  0  0  0  0  0  0  0  0
  186.3170  176.7910  147.5770 C   0  0  0  0  0  1  0  0  0  0  0  0
  186.5880  176.6120  146.1950 O   0  0  0  0  0  0  0  0  0  0  0  0
  189.7180  176.4560  144.2430 C   0  0  0  0  0  2  0  0  0  0  0  0
  189.7760  175.6290  145.5180 C   0  0  0  0  0  2  0  0  0  0  0  0
  190.6420  176.3230  146.5560 C   0  0  0  0  0  2  0  0  0  0  0  0
  194.8470  176.5030  144.6400 N   0  0  0  0  0  2  0  0  0  0  0  0
  192.1200  174.6320  145.7040 O   0  0  0  0  0  0  0  0  0  0  0  0
  193.4780  176.2500  144.8020 N   0  0  2  0  0  0  0  0  0  0  0  0
  192.0490  175.7410  146.5690 C   0  0  1  0  0  3  0  0  0  0  0  0
  193.0340  176.7800  146.0640 C   0  0  0  0  0  2  0  0  0  0  0  0
  193.3240  174.8340  145.0220 C   0  0  2  0  0  3  0  0  0  0  0  0
  193.3790  174.1380  143.6820 C   0  0  0  0  0  2  0  0  0  0  0  0
  195.1110  174.1510  143.0800 S   0  0  0  0  0  0  0  0  0  0  0  0
  195.5810  175.8200  143.6160 C   0  0  0  0  0  0  0  0  0  0  0  0
  197.0210  176.4190  143.1380 S   0  0  0  0  0  0  0  0  0  0  0  0
  3  5  1  0  0  0  0
  4  2  2  0  0  0  0
  5  8  1  0  0  0  0
  6  1  1  1  0  0  0
  6  9  1  0  0  0  0
  7  4  1  0  0  0  0
  7 12  2  0  0  0  0
  9  8  2  0  0  0  0
  9 14  1  0  0  0  0
 10 11  1  0  0  0  0
 10  3  2  0  0  0  0
 11  2  1  6  0  0  0
 11  6  1  0  0  0  0
 12 10  1  0  0  0  0
 14 13  1  0  0  0  0
 15  1  1  0  0  0  0
 15 16  1  0  0  0  0
 16 17  1  0  0  0  0
 18 20  1  0  0  0  0
 19 21  1  0  0  0  0
 20 23  1  0  0  0  0
 20 22  1  1  0  0  0
 21 17  1  6  0  0  0
 22 21  1  0  0  0  0
 23 24  1  6  0  0  0
 23 19  1  0  0  0  0
 25 26  1  0  0  0  0
 25 24  1  0  0  0  0
 26 18  1  0  0  0  0
 27 26  2  0  0  0  0
M  END
>  <MODEL>
4

>  <REMARK>
 VINA RESULT:      -6.5      3.965      8.008
  Name = 
  6 active torsions:
  status: ('A' for Active; 'I' for Inactive)
    1  A    between atoms: C_3  and  C_8
    2  A    between atoms: C_3  and  C_13
    3  A    between atoms: C_13  and  C_14
    4  A    between atoms: C_14  and  C_19
    5  A    between atoms: C_16  and  C_19
    6  A    between atoms: C_21  and  O_27
                            x       y       z     vdW  Elec       q    Type
                         _______ _______ _______ _____ _____    ______ ____

>  <TORSDO>
F 6

$$$$
=
 OpenBabel11062421093D

 27 30  0  0  1  0  0  0  0  0999 V2000
  189.4110  177.6640  145.0810 C   0  0  0  0  0  2  0  0  0  0  0  0
  189.9110  174.9890  143.7910 N   0  0  0  0  0  0  0  0  0  0  0  0
  187.7820  176.4730  141.1890 N   0  0  0  0  0  0  0  0  0  0  0  0
  189.7610  173.7360  143.4820 C   0  0  0  0  0  3  0  0  0  0  0  0
  187.8810  177.9020  141.4360 C   0  0  0  0  0  2  0  0  0  0  0  0
  188.4110  176.8850  144.2290 C   0  0  1  0  0  3  0  0  0  0  0  0
  188.8370  173.3290  142.4140 C   0  0  0  0  0  3  0  0  0  0  0  0
  187.0780  178.2390  142.6010 N   0  0  0  0  0  0  0  0  0  0  0  0
  187.2560  177.7860  143.8130 C   0  0  0  0  0  0  0  0  0  0  0  0
  188.3300  175.6180  141.9920 C   0  0  0  0  0  0  0  0  0  0  0  0
  189.1790  176.0920  143.1550 C   0  0  2  0  0  3  0  0  0  0  0  0
  188.1870  174.2180  141.7310 N   0  0  0  0  0  0  0  0  0  0  0  0
  185.6110  177.2030  145.5630 C   0  0  0  0  0  1  0  0  0  0  0  0
  186.3580  178.1550  144.8190 O   0  0  0  0  0  0  0  0  0  0  0  0
  189.3130  177.2810  146.5500 C   0  0  0  0  0  2  0  0  0  0  0  0
  190.6850  176.9300  147.1030 C   0  0  0  0  0  2  0  0  0  0  0  0
  190.8770  175.4230  147.1160 C   0  0  0  0  0  2  0  0  0  0  0  0
  194.7830  176.3800  144.8320 N   0  0  0  0  0  2  0  0  0  0  0  0
  192.4810  174.0440  145.9770 O   0  0  0  0  0  0  0  0  0  0  0  0
  193.4900  175.9120  145.1000 N   0  0  2  0  0  0  0  0  0  0  0  0
  192.3460  175.0600  146.9420 C   0  0  1  0  0  3  0  0  0  0  0  0
  193.1130  176.2710  146.4420 C   0  0  0  0  0  2  0  0  0  0  0  0
  193.5630  174.4760  145.2040 C   0  0  2  0  0  3  0  0  0  0  0  0
  193.5720  173.9000  143.8080 C   0  0  0  0  0  2  0  0  0  0  0  0
  195.2100  174.2200  143.0460 S   0  0  0  0  0  0  0  0  0  0  0  0
  195.4920  175.8950  143.6850 C   0  0  0  0  0  0  0  0  0  0  0  0
  196.7730  176.7390  143.1280 S   0  0  0  0  0  0  0  0  0  0  0  0
  1 15  1  0  0  0  0
  3  5  1  0  0  0  0
  3 10  2  0  0  0  0
  4  2  2  0  0  0  0
  5  8  1  0  0  0  0
  6  1  1  6  0  0  0
  7  4  1  0  0  0  0
  8  9  2  0  0  0  0
  9  6  1  0  0  0  0
  9 14  1  0  0  0  0
 11 10  1  6  0  0  0
 11  2  1  0  0  0  0
 11  6  1  0  0  0  0
 12 10  1  0  0  0  0
 12  7  2  0  0  0  0
 14 13  1  0  0  0  0
 15 16  1  0  0  0  0
 16 17  1  0  0  0  0
 18 20  1  0  0  0  0
 19 21  1  0  0  0  0
 20 23  1  0  0  0  0
 20 22  1  1  0  0  0
 21 17  1  6  0  0  0
 22 21  1  0  0  0  0
 23 24  1  6  0  0  0
 23 19  1  0  0  0  0
 25 26  1  0  0  0  0
 25 24  1  0  0  0  0
 26 18  1  0  0  0  0
 27 26  2  0  0  0  0
M  END
>  <MODEL>
5

>  <REMARK>
 VINA RESULT:      -6.5      4.134      7.326
  Name = 
  6 active torsions:
  status: ('A' for Active; 'I' for Inactive)
    1  A    between atoms: C_3  and  C_8
    2  A    between atoms: C_3  and  C_13
    3  A    between atoms: C_13  and  C_14
    4  A    between atoms: C_14  and  C_19
    5  A    between atoms: C_16  and  C_19
    6  A    between atoms: C_21  and  O_27
                            x       y       z     vdW  Elec       q    Type
                         _______ _______ _______ _____ _____    ______ ____

>  <TORSDO>
F 6

$$$$
=
 OpenBabel11062421093D

 27 30  0  0  1  0  0  0  0  0999 V2000
  192.4450  174.8920  146.5700 C   0  0  0  0  0  2  0  0  0  0  0  0
  195.1710  175.1900  145.3240 N   0  0  0  0  0  0  0  0  0  0  0  0
  193.1330  176.3230  142.4840 N   0  0  0  0  0  0  0  0  0  0  0  0
  196.2590  174.8880  144.6810 C   0  0  0  0  0  3  0  0  0  0  0  0
  191.8690  176.7020  143.0950 C   0  0  0  0  0  2  0  0  0  0  0  0
  192.7870  174.6420  145.1030 C   0  0  1  0  0  3  0  0  0  0  0  0
  196.3150  174.9690  143.2160 C   0  0  0  0  0  3  0  0  0  0  0  0
  191.1280  175.4980  143.4370 N   0  0  0  0  0  0  0  0  0  0  0  0
  191.5140  174.5690  144.2690 C   0  0  0  0  0  0  0  0  0  0  0  0
  194.0730  175.7700  143.1820 C   0  0  0  0  0  0  0  0  0  0  0  0
  193.9160  175.5990  144.6800 C   0  0  2  0  0  3  0  0  0  0  0  0
  195.2920  175.3860  142.5380 N   0  0  0  0  0  0  0  0  0  0  0  0
  190.7780  172.3140  143.5750 C   0  0  0  0  0  1  0  0  0  0  0  0
  190.7160  173.4340  144.4450 O   0  0  0  0  0  0  0  0  0  0  0  0
  192.1680  176.3650  146.8360 C   0  0  0  0  0  2  0  0  0  0  0  0
  190.8320  176.5380  147.5410 C   0  0  0  0  0  2  0  0  0  0  0  0
  189.9580  177.5200  146.7790 C   0  0  0  0  0  2  0  0  0  0  0  0
  186.3090  177.6530  143.9410 N   0  0  0  0  0  2  0  0  0  0  0  0
  187.5880  177.5580  147.1700 O   0  0  0  0  0  0  0  0  0  0  0  0
  187.2120  178.0130  144.9500 N   0  0  2  0  0  0  0  0  0  0  0  0
  188.6060  176.9020  146.4500 C   0  0  1  0  0  3  0  0  0  0  0  0
  188.3100  177.0830  144.9720 C   0  0  0  0  0  2  0  0  0  0  0  0
  186.5810  177.7330  146.2150 C   0  0  2  0  0  3  0  0  0  0  0  0
  185.6400  178.8700  146.5370 C   0  0  0  0  0  2  0  0  0  0  0  0
  184.1710  178.7470  145.4460 S   0  0  0  0  0  0  0  0  0  0  0  0
  185.0010  178.2370  143.9160 C   0  0  0  0  0  0  0  0  0  0  0  0
  184.1290  178.1730  142.5370 S   0  0  0  0  0  0  0  0  0  0  0  0
  1 15  1  0  0  0  0
  3  5  1  0  0  0  0
  3 10  2  0  0  0  0
  4  2  2  0  0  0  0
  5  8  1  0  0  0  0
  6  1  1  1  0  0  0
  7  4  1  0  0  0  0
  8  9  2  0  0  0  0
  9 14  1  0  0  0  0
  9  6  1  0  0  0  0
 11 10  1  6  0  0  0
 11  6  1  0  0  0  0
 11  2  1  0  0  0  0
 12 10  1  0  0  0  0
 12  7  2  0  0  0  0
 13 14  1  0  0  0  0
 15 16  1  0  0  0  0
 17 16  1  0  0  0  0
 18 20  1  0  0  0  0
 20 22  1  6  0  0  0
 20 23  1  0  0  0  0
 21 17  1  6  0  0  0
 21 19  1  0  0  0  0
 22 21  1  0  0  0  0
 23 24  1  1  0  0  0
 23 19  1  0  0  0  0
 25 24  1  0  0  0  0
 26 18  1  0  0  0  0
 26 25  1  0  0  0  0
 27 26  2  0  0  0  0
M  END
>  <MODEL>
6

>  <REMARK>
 VINA RESULT:      -6.4      2.558      3.890
  Name = 
  6 active torsions:
  status: ('A' for Active; 'I' for Inactive)
    1  A    between atoms: C_3  and  C_8
    2  A    between atoms: C_3  and  C_13
    3  A    between atoms: C_13  and  C_14
    4  A    between atoms: C_14  and  C_19
    5  A    between atoms: C_16  and  C_19
    6  A    between atoms: C_21  and  O_27
                            x       y       z     vdW  Elec       q    Type
                         _______ _______ _______ _____ _____    ______ ____

>  <TORSDO>
F 6

$$$$
=
 OpenBabel11062421093D

 27 30  0  0  1  0  0  0  0  0999 V2000
  194.3980  174.8310  146.0420 C   0  0  0  0  0  2  0  0  0  0  0  0
  195.9760  176.4870  144.0820 N   0  0  0  0  0  0  0  0  0  0  0  0
  193.0060  175.8520  142.0120 N   0  0  0  0  0  0  0  0  0  0  0  0
  196.8160  176.7900  143.1380 C   0  0  0  0  0  3  0  0  0  0  0  0
  191.9780  175.5050  142.9800 C   0  0  0  0  0  2  0  0  0  0  0  0
  194.4220  174.6370  144.5270 C   0  0  1  0  0  3  0  0  0  0  0  0
  196.4270  176.6970  141.7240 C   0  0  0  0  0  3  0  0  0  0  0  0
  192.2130  174.1500  143.4570 N   0  0  0  0  0  0  0  0  0  0  0  0
  193.2750  173.7340  144.0920 C   0  0  0  0  0  0  0  0  0  0  0  0
  194.2330  176.0410  142.3800 C   0  0  0  0  0  0  0  0  0  0  0  0
  194.6080  176.0070  143.8480 C   0  0  2  0  0  3  0  0  0  0  0  0
  195.2220  176.3530  141.3930 N   0  0  0  0  0  0  0  0  0  0  0  0
  194.5610  171.6260  144.1940 C   0  0  0  0  0  1  0  0  0  0  0  0
  193.3820  172.3810  144.4310 O   0  0  0  0  0  0  0  0  0  0  0  0
  193.4060  175.9100  146.4520 C   0  0  0  0  0  2  0  0  0  0  0  0
  192.1950  175.2910  147.1330 C   0  0  0  0  0  2  0  0  0  0  0  0
  191.0740  176.3110  147.2420 C   0  0  0  0  0  2  0  0  0  0  0  0
  187.5550  177.9160  144.7070 N   0  0  0  0  0  2  0  0  0  0  0  0
  188.7490  175.7200  147.1200 O   0  0  0  0  0  0  0  0  0  0  0  0
  188.3300  177.5680  145.8210 N   0  0  2  0  0  0  0  0  0  0  0  0
  189.9050  175.9320  146.3440 C   0  0  1  0  0  3  0  0  0  0  0  0
  189.6090  177.0720  145.3850 C   0  0  0  0  0  2  0  0  0  0  0  0
  187.7510  176.3800  146.3960 C   0  0  2  0  0  3  0  0  0  0  0  0
  186.5700  176.7920  147.2430 C   0  0  0  0  0  2  0  0  0  0  0  0
  185.1910  177.2800  146.1360 S   0  0  0  0  0  0  0  0  0  0  0  0
  186.1490  178.1460  144.8620 C   0  0  0  0  0  0  0  0  0  0  0  0
  185.3470  178.9660  143.7010 S   0  0  0  0  0  0  0  0  0  0  0  0
  1 15  1  0  0  0  0
  3 10  2  0  0  0  0
  3  5  1  0  0  0  0
  4  2  2  0  0  0  0
  5  8  1  0  0  0  0
  6  1  1  1  0  0  0
  7  4  1  0  0  0  0
  8  9  2  0  0  0  0
  9 14  1  0  0  0  0
  9  6  1  0  0  0  0
 11 10  1  6  0  0  0
 11  2  1  0  0  0  0
 11  6  1  0  0  0  0
 12  7  2  0  0  0  0
 12 10  1  0  0  0  0
 13 14  1  0  0  0  0
 15 16  1  0  0  0  0
 16 17  1  0  0  0  0
 18 26  1  0  0  0  0
 18 20  1  0  0  0  0
 20 22  1  6  0  0  0
 20 23  1  0  0  0  0
 21 19  1  0  0  0  0
 21 17  1  1  0  0  0
 22 21  1  0  0  0  0
 23 19  1  0  0  0  0
 23 24  1  1  0  0  0
 25 24  1  0  0  0  0
 26 25  1  0  0  0  0
 27 26  2  0  0  0  0
M  END
>  <MODEL>
7

>  <REMARK>
 VINA RESULT:      -6.4      3.206      5.342
  Name = 
  6 active torsions:
  status: ('A' for Active; 'I' for Inactive)
    1  A    between atoms: C_3  and  C_8
    2  A    between atoms: C_3  and  C_13
    3  A    between atoms: C_13  and  C_14
    4  A    between atoms: C_14  and  C_19
    5  A    between atoms: C_16  and  C_19
    6  A    between atoms: C_21  and  O_27
                            x       y       z     vdW  Elec       q    Type
                         _______ _______ _______ _____ _____    ______ ____

>  <TORSDO>
F 6

$$$$
=
 OpenBabel11062421093D

 27 30  0  0  1  0  0  0  0  0999 V2000
  189.2600  177.7460  144.9960 C   0  0  0  0  0  2  0  0  0  0  0  0
  187.0800  178.4710  143.0480 N   0  0  0  0  0  0  0  0  0  0  0  0
  185.0230  178.0860  146.0700 N   0  0  0  0  0  0  0  0  0  0  0  0
  186.1480  178.3350  142.1540 C   0  0  0  0  0  3  0  0  0  0  0  0
  185.9780  178.2300  147.1580 C   0  0  0  0  0  2  0  0  0  0  0  0
  187.8340  177.1990  145.0100 C   0  0  1  0  0  3  0  0  0  0  0  0
  184.7710  178.0070  142.5450 C   0  0  0  0  0  3  0  0  0  0  0  0
  186.7630  177.0100  147.2640 N   0  0  0  0  0  0  0  0  0  0  0  0
  187.5440  176.5170  146.3410 C   0  0  0  0  0  0  0  0  0  0  0  0
  185.4170  178.0610  144.8370 C   0  0  0  0  0  0  0  0  0  0  0  0
  186.8750  178.2870  144.4910 C   0  0  2  0  0  3  0  0  0  0  0  0
  184.4500  177.8890  143.7950 N   0  0  0  0  0  0  0  0  0  0  0  0
  189.4230  175.2020  147.2620 C   0  0  0  0  0  1  0  0  0  0  0  0
  188.1860  175.2970  146.5700 O   0  0  0  0  0  0  0  0  0  0  0  0
  190.1330  177.0040  143.9950 C   0  0  0  0  0  2  0  0  0  0  0  0
  191.5540  177.5460  144.0210 C   0  0  0  0  0  2  0  0  0  0  0  0
  192.3980  176.7640  145.0130 C   0  0  0  0  0  2  0  0  0  0  0  0
  193.8140  172.3760  145.3800 N   0  0  0  0  0  2  0  0  0  0  0  0
  194.5110  175.6920  144.6160 O   0  0  0  0  0  0  0  0  0  0  0  0
  193.7330  173.7600  145.5840 N   0  0  2  0  0  0  0  0  0  0  0  0
  193.1360  175.6250  144.3220 C   0  0  1  0  0  3  0  0  0  0  0  0
  192.6210  174.2950  144.8420 C   0  0  0  0  0  2  0  0  0  0  0  0
  194.8450  174.3640  144.8950 C   0  0  2  0  0  3  0  0  0  0  0  0
  196.0730  174.2230  145.7640 C   0  0  0  0  0  2  0  0  0  0  0  0
  196.6250  172.4740  145.7300 S   0  0  0  0  0  0  0  0  0  0  0  0
  195.0000  171.6680  145.7610 C   0  0  0  0  0  0  0  0  0  0  0  0
  194.9330  170.0480  145.9410 S   0  0  0  0  0  0  0  0  0  0  0  0
  3  5  1  0  0  0  0
  4  7  1  0  0  0  0
  4  2  2  0  0  0  0
  5  8  1  0  0  0  0
  6  1  1  1  0  0  0
  6  9  1  0  0  0  0
  7 12  2  0  0  0  0
  9 14  1  0  0  0  0
  9  8  2  0  0  0  0
 10  3  2  0  0  0  0
 11  2  1  6  0  0  0
 11 10  1  0  0  0  0
 11  6  1  0  0  0  0
 12 10  1  0  0  0  0
 14 13  1  0  0  0  0
 15 16  1  0  0  0  0
 15  1  1  0  0  0  0
 16 17  1  0  0  0  0
 18 20  1  0  0  0  0
 18 26  1  0  0  0  0
 19 23  1  0  0  0  0
 20 22  1  6  0  0  0
 21 19  1  0  0  0  0
 21 22  1  0  0  0  0
 21 17  1  1  0  0  0
 23 20  1  0  0  0  0
 23 24  1  1  0  0  0
 25 26  1  0  0  0  0
 25 24  1  0  0  0  0
 26 27  2  0  0  0  0
M  END
>  <MODEL>
8

>  <REMARK>
 VINA RESULT:      -6.3      4.700      8.726
  Name = 
  6 active torsions:
  status: ('A' for Active; 'I' for Inactive)
    1  A    between atoms: C_3  and  C_8
    2  A    between atoms: C_3  and  C_13
    3  A    between atoms: C_13  and  C_14
    4  A    between atoms: C_14  and  C_19
    5  A    between atoms: C_16  and  C_19
    6  A    between atoms: C_21  and  O_27
                            x       y       z     vdW  Elec       q    Type
                         _______ _______ _______ _____ _____    ______ ____

>  <TORSDO>
F 6

$$$$
=
 OpenBabel11062421093D

 27 30  0  0  1  0  0  0  0  0999 V2000
  190.1380  177.9370  144.7780 C   0  0  0  0  0  2  0  0  0  0  0  0
  188.3660  178.1010  142.3470 N   0  0  0  0  0  0  0  0  0  0  0  0
  185.8060  177.2650  144.8480 N   0  0  0  0  0  0  0  0  0  0  0  0
  187.7260  177.7380  141.2770 C   0  0  0  0  0  3  0  0  0  0  0  0
  186.4200  177.6430  146.1100 C   0  0  0  0  0  2  0  0  0  0  0  0
  188.9130  177.0660  144.5070 C   0  0  1  0  0  3  0  0  0  0  0  0
  186.4100  177.0930  141.3690 C   0  0  0  0  0  3  0  0  0  0  0  0
  187.4180  176.6480  146.4700 N   0  0  0  0  0  0  0  0  0  0  0  0
  188.4840  176.3460  145.7800 C   0  0  0  0  0  0  0  0  0  0  0  0
  186.4720  177.3230  143.7390 C   0  0  0  0  0  0  0  0  0  0  0  0
  187.8780  177.8870  143.7160 C   0  0  2  0  0  3  0  0  0  0  0  0
  185.8420  176.9140  142.5200 N   0  0  0  0  0  0  0  0  0  0  0  0
  189.0820  174.6100  147.4350 C   0  0  0  0  0  1  0  0  0  0  0  0
  189.3190  175.3170  146.2260 O   0  0  0  0  0  0  0  0  0  0  0  0
  191.4280  177.2150  144.4210 C   0  0  0  0  0  2  0  0  0  0  0  0
  191.1910  176.2210  143.2940 C   0  0  0  0  0  2  0  0  0  0  0  0
  191.6930  174.8440  143.6920 C   0  0  0  0  0  2  0  0  0  0  0  0
  190.6150  171.8110  140.3710 N   0  0  0  0  0  2  0  0  0  0  0  0
  189.6410  174.3360  142.5490 O   0  0  0  0  0  0  0  0  0  0  0  0
  190.7830  173.0270  141.0450 N   0  0  2  0  0  0  0  0  0  0  0  0
  190.7150  173.7610  143.2560 C   0  0  1  0  0  3  0  0  0  0  0  0
  191.4130  172.7920  142.3180 C   0  0  0  0  0  2  0  0  0  0  0  0
  189.4770  173.4760  141.4590 C   0  0  2  0  0  3  0  0  0  0  0  0
  188.8050  174.1310  140.2740 C   0  0  0  0  0  2  0  0  0  0  0  0
  188.3020  172.8280  139.0860 S   0  0  0  0  0  0  0  0  0  0  0  0
  189.7490  171.7430  139.2310 C   0  0  0  0  0  0  0  0  0  0  0  0
  189.8910  170.4860  138.2000 S   0  0  0  0  0  0  0  0  0  0  0  0
  3  5  1  0  0  0  0
  4  7  1  0  0  0  0
  4  2  2  0  0  0  0
  5  8  1  0  0  0  0
  6  1  1  1  0  0  0
  6  9  1  0  0  0  0
  7 12  2  0  0  0  0
  9 14  1  0  0  0  0
  9  8  2  0  0  0  0
 10  3  2  0  0  0  0
 11  2  1  6  0  0  0
 11 10  1  0  0  0  0
 11  6  1  0  0  0  0
 12 10  1  0  0  0  0
 14 13  1  0  0  0  0
 15  1  1  0  0  0  0
 16 17  1  0  0  0  0
 16 15  1  0  0  0  0
 18 20  1  0  0  0  0
 19 21  1  0  0  0  0
 20 23  1  0  0  0  0
 20 22  1  1  0  0  0
 21 17  1  6  0  0  0
 22 21  1  0  0  0  0
 23 24  1  6  0  0  0
 23 19  1  0  0  0  0
 25 26  1  0  0  0  0
 25 24  1  0  0  0  0
 26 18  1  0  0  0  0
 27 26  2  0  0  0  0
M  END
>  <MODEL>
9

>  <REMARK>
 VINA RESULT:      -6.3      3.512      6.798
  Name = 
  6 active torsions:
  status: ('A' for Active; 'I' for Inactive)
    1  A    between atoms: C_3  and  C_8
    2  A    between atoms: C_3  and  C_13
    3  A    between atoms: C_13  and  C_14
    4  A    between atoms: C_14  and  C_19
    5  A    between atoms: C_16  and  C_19
    6  A    between atoms: C_21  and  O_27
                            x       y       z     vdW  Elec       q    Type
                         _______ _______ _______ _____ _____    ______ ____

>  <TORSDO>
F 6

$$$$
