=
 OpenBabel11072408393D

 47 51  0  0  1  0  0  0  0  0999 V2000
  191.9180  172.8480  143.6260 N   0  0  0  0  0  2  0  0  0  0  0  0
  193.1020  172.8840  138.3830 N   0  0  0  0  0  2  0  0  0  0  0  0
  191.5110  173.0450  145.0140 C   0  0  0  0  0  2  0  0  0  0  0  0
  191.1460  173.7900  139.6840 N   0  0  0  0  0  2  0  0  0  0  0  0
  192.8030  174.4210  141.3340 C   0  0  1  0  0  3  0  0  0  0  0  0
  193.3250  175.0470  146.1550 N   0  0  0  0  0  1  0  0  0  0  0  0
  187.9490  174.9640  142.4860 C   0  0  0  0  0  2  0  0  0  0  0  0
  193.7730  174.0050  142.3960 N   0  0  2  0  0  0  0  0  0  0  0  0
  190.3870  174.7350  141.8160 C   0  0  0  0  0  2  0  0  0  0  0  0
  188.6950  173.1410  141.1640 O   0  0  0  0  0  1  0  0  0  0  0  0
  193.6700  173.2600  141.1360 C   0  0  2  0  0  3  0  0  0  0  0  0
  189.5050  176.2470  144.8620 C   0  0  0  0  0  0  0  0  0  0  0  0
  194.7120  173.6580  140.1050 C   0  0  0  0  0  2  0  0  0  0  0  0
  187.9490  176.4640  142.8610 C   0  0  1  0  0  3  0  0  0  0  0  0
  188.1650  176.7260  144.3660 C   0  0  1  0  0  3  0  0  0  0  0  0
  191.4130  173.8340  141.1250 C   0  0  1  0  0  3  0  0  0  0  0  0
  189.8520  174.8910  144.8240 C   0  0  0  0  0  3  0  0  0  0  0  0
  188.9270  174.4960  141.4010 C   0  0  1  0  0  3  0  0  0  0  0  0
  191.6570  176.7440  145.7760 N   0  0  0  0  0  0  0  0  0  0  0  0
  191.7260  172.8140  138.8020 C   0  0  0  0  0  0  0  0  0  0  0  0
  194.0310  173.9510  138.7570 C   0  0  1  0  0  3  0  0  0  0  0  0
  190.4350  177.1680  145.3540 C   0  0  0  0  0  3  0  0  0  0  0  0
  192.0190  175.4280  145.7250 C   0  0  0  0  0  0  0  0  0  0  0  0
  190.9950  171.8940  138.3450 O   0  0  0  0  0  0  0  0  0  0  0  0
  193.3400  173.1690  143.5440 C   0  0  2  0  0  3  0  0  0  0  0  0
  191.1150  174.4720  145.2340 C   0  0  0  0  0  0  0  0  0  0  0  0
  188.8110  177.3720  141.9910 C   0  0  0  0  0  1  0  0  0  0  0  0
  183.6070  179.1850  145.7630 O   0  0  0  0  0  1  0  0  0  0  0  0
  184.6610  178.2850  145.9190 C   0  0  1  0  0  3  0  0  0  0  0  0
  185.6240  176.4180  144.5890 C   0  0  0  0  0  2  0  0  0  0  0  0
  187.1130  178.2500  146.7420 C   0  0  0  0  0  2  0  0  0  0  0  0
  187.0490  176.7240  146.6850 C   0  0  0  0  0  2  0  0  0  0  0  0
  185.1830  177.8780  144.5510 C   0  0  0  0  0  2  0  0  0  0  0  0
  185.7380  178.9170  146.8040 C   0  0  0  0  0  2  0  0  0  0  0  0
  187.0000  176.2080  145.2390 C   0  0  2  0  0  3  0  0  0  0  0  0
  194.2520  171.9690  143.8230 C   0  0  0  0  0  2  0  0  0  0  0  0
  195.0430  172.1710  145.0300 N   0  0  0  0  0  2  0  0  0  0  0  0
  196.3650  172.5990  144.5930 C   0  0  0  0  0  2  0  0  0  0  0  0
  196.7530  173.9110  145.2640 C   0  0  0  0  0  2  0  0  0  0  0  0
  197.1230  174.9030  144.2630 N   0  0  0  0  0  0  0  0  0  0  0  0
  197.1800  174.2310  143.0340 N   0  0  0  0  0  1  0  0  0  0  0  0
  196.0930  175.7770  144.1780 O   0  0  0  0  0  1  0  0  0  0  0  0
  195.0060  174.0930  137.7650 O   0  0  0  0  0  0  0  0  0  0  0  0
  195.4100  176.0950  135.9100 O   0  0  0  0  0  1  0  0  0  0  0  0
  193.7540  173.9850  135.2830 O   0  0  0  0  0  0  0  0  0  0  0  0
  193.0950  175.7710  137.0810 O   0  0  0  0  0  1  0  0  0  0  0  0
  194.2760  175.0020  136.5290 P   0  0  0  0  0  0  0  0  0  0  0  0
  1  3  1  0  0  0  0
  2 21  1  0  0  0  0
  2 20  1  0  0  0  0
  3 26  1  0  0  0  0
  4 16  1  0  0  0  0
  5  8  1  0  0  0  0
  7 14  1  0  0  0  0
  8 25  1  0  0  0  0
 10 18  1  0  0  0  0
 11  5  1  0  0  0  0
 11  8  1  0  0  0  0
 12 22  1  0  0  0  0
 13 11  1  0  0  0  0
 14 15  1  0  0  0  0
 15 12  1  0  0  0  0
 15 35  1  0  0  0  0
 16  5  1  0  0  0  0
 16  9  1  0  0  0  0
 17 12  2  0  0  0  0
 17 26  1  0  0  0  0
 18  9  1  0  0  0  0
 18  7  1  0  0  0  0
 20  4  1  0  0  0  0
 21 13  1  0  0  0  0
 22 19  2  0  0  0  0
 23 19  1  0  0  0  0
 23  6  1  0  0  0  0
 24 20  2  0  0  0  0
 25  1  1  0  0  0  0
 25 36  1  0  0  0  0
 26 23  2  0  0  0  0
 27 14  1  0  0  0  0
 28 29  1  0  0  0  0
 29 34  1  0  0  0  0
 30 35  1  0  0  0  0
 31 34  1  0  0  0  0
 32 31  1  0  0  0  0
 33 30  1  0  0  0  0
 33 29  1  0  0  0  0
 35 32  1  0  0  0  0
 36 37  1  0  0  0  0
 38 37  1  0  0  0  0
 38 39  1  0  0  0  0
 40 39  1  0  0  0  0
 41 40  1  0  0  0  0
 42 40  1  0  0  0  0
 43 21  1  0  0  0  0
 44 47  1  0  0  0  0
 45 47  2  0  0  0  0
 47 46  1  0  0  0  0
 47 43  1  0  0  0  0
M  END
>  <MODEL>
1

>  <REMARK>
 VINA RESULT:      -7.2      0.000      0.000
  Name = 
  8 active torsions:
  status: ('A' for Active; 'I' for Inactive)
    1  A    between atoms: C_3  and  N_11
    2  A    between atoms: C_3  and  C_34
    3  A    between atoms: N_11  and  C_24
    4  A    between atoms: N_20  and  C_34
    5  A    between atoms: C_21  and  C_46
    6  A    between atoms: C_24  and  C_43
    7  A    between atoms: O_36  and  C_38
    8  A    between atoms: O_36  and  P_47
                            x       y       z     vdW  Elec       q    Type
                         _______ _______ _______ _____ _____    ______ ____

>  <TORSDO>
F 8

$$$$
=
 OpenBabel11072408393D

 47 51  0  0  1  0  0  0  0  0999 V2000
  191.8050  172.7430  143.5600 N   0  0  0  0  0  2  0  0  0  0  0  0
  193.1360  172.8350  138.3530 N   0  0  0  0  0  2  0  0  0  0  0  0
  191.3640  172.9280  144.9390 C   0  0  0  0  0  2  0  0  0  0  0  0
  191.1660  173.7660  139.6150 N   0  0  0  0  0  2  0  0  0  0  0  0
  192.7900  174.3310  141.3200 C   0  0  1  0  0  3  0  0  0  0  0  0
  193.1910  174.8680  146.1630 N   0  0  0  0  0  1  0  0  0  0  0  0
  187.9190  174.9710  142.3470 C   0  0  0  0  0  2  0  0  0  0  0  0
  193.7200  173.8760  142.4010 N   0  0  2  0  0  0  0  0  0  0  0  0
  190.3700  174.6940  141.7410 C   0  0  0  0  0  2  0  0  0  0  0  0
  188.6600  173.1520  141.0160 O   0  0  0  0  0  1  0  0  0  0  0  0
  193.6350  173.1530  141.1270 C   0  0  2  0  0  3  0  0  0  0  0  0
  189.4380  176.1780  144.7860 C   0  0  0  0  0  0  0  0  0  0  0  0
  194.7140  173.5430  140.1320 C   0  0  0  0  0  2  0  0  0  0  0  0
  187.9450  176.4640  142.7460 C   0  0  1  0  0  3  0  0  0  0  0  0
  188.1240  176.6970  144.2610 C   0  0  1  0  0  3  0  0  0  0  0  0
  191.3940  173.7810  141.0630 C   0  0  1  0  0  3  0  0  0  0  0  0
  189.7540  174.8150  144.7350 C   0  0  0  0  0  3  0  0  0  0  0  0
  188.9160  174.4970  141.2820 C   0  0  1  0  0  3  0  0  0  0  0  0
  191.5740  176.6090  145.7670 N   0  0  0  0  0  0  0  0  0  0  0  0
  191.7470  172.7900  138.7330 C   0  0  0  0  0  0  0  0  0  0  0  0
  194.0780  173.8740  138.7710 C   0  0  1  0  0  3  0  0  0  0  0  0
  190.3750  177.0690  145.3180 C   0  0  0  0  0  3  0  0  0  0  0  0
  191.9080  175.2870  145.7040 C   0  0  0  0  0  0  0  0  0  0  0  0
  191.0080  171.8960  138.2410 O   0  0  0  0  0  0  0  0  0  0  0  0
  193.2360  173.0310  143.5230 C   0  0  2  0  0  3  0  0  0  0  0  0
  190.9960  174.3600  145.1730 C   0  0  0  0  0  0  0  0  0  0  0  0
  188.8510  177.3650  141.9160 C   0  0  0  0  0  1  0  0  0  0  0  0
  183.6210  179.2670  145.6380 O   0  0  0  0  0  1  0  0  0  0  0  0
  184.6410  178.3270  145.7880 C   0  0  1  0  0  3  0  0  0  0  0  0
  185.5700  176.4690  144.4220 C   0  0  0  0  0  2  0  0  0  0  0  0
  187.0720  178.1830  146.6600 C   0  0  0  0  0  2  0  0  0  0  0  0
  186.9580  176.6630  146.5550 C   0  0  0  0  0  2  0  0  0  0  0  0
  185.1790  177.9440  144.4190 C   0  0  0  0  0  2  0  0  0  0  0  0
  185.7180  178.8940  146.7140 C   0  0  0  0  0  2  0  0  0  0  0  0
  186.9240  176.1930  145.0930 C   0  0  2  0  0  3  0  0  0  0  0  0
  194.1110  171.8060  143.8070 C   0  0  0  0  0  2  0  0  0  0  0  0
  194.8450  171.9540  145.0570 N   0  0  0  0  0  2  0  0  0  0  0  0
  194.6560  170.7150  145.7990 C   0  0  0  0  0  2  0  0  0  0  0  0
  195.9950  170.1650  146.2760 C   0  0  0  0  0  2  0  0  0  0  0  0
  195.8160  168.8620  146.9010 N   0  0  0  0  0  0  0  0  0  0  0  0
  196.9000  168.6800  147.7710 N   0  0  0  0  0  1  0  0  0  0  0  0
  194.7090  168.9480  147.6760 O   0  0  0  0  0  1  0  0  0  0  0  0
  195.0830  174.0080  137.8080 O   0  0  0  0  0  0  0  0  0  0  0  0
  195.6380  176.0660  136.0550 O   0  0  0  0  0  1  0  0  0  0  0  0
  193.8870  174.0780  135.2980 O   0  0  0  0  0  0  0  0  0  0  0  0
  193.2820  175.8160  137.1610 O   0  0  0  0  0  1  0  0  0  0  0  0
  194.4330  175.0090  136.6000 P   0  0  0  0  0  0  0  0  0  0  0  0
  1  3  1  0  0  0  0
  2 20  1  0  0  0  0
  2 21  1  0  0  0  0
  3 26  1  0  0  0  0
  4 16  1  0  0  0  0
  5  8  1  0  0  0  0
  7 14  1  0  0  0  0
  8 25  1  0  0  0  0
 10 18  1  0  0  0  0
 11  5  1  0  0  0  0
 11  8  1  0  0  0  0
 12 22  1  0  0  0  0
 13 11  1  0  0  0  0
 14 15  1  0  0  0  0
 15 12  1  0  0  0  0
 15 35  1  0  0  0  0
 16  5  1  0  0  0  0
 16  9  1  0  0  0  0
 17 12  2  0  0  0  0
 17 26  1  0  0  0  0
 18  9  1  0  0  0  0
 18  7  1  0  0  0  0
 20  4  1  0  0  0  0
 21 13  1  0  0  0  0
 22 19  2  0  0  0  0
 23 19  1  0  0  0  0
 23  6  1  0  0  0  0
 24 20  2  0  0  0  0
 25  1  1  0  0  0  0
 25 36  1  0  0  0  0
 26 23  2  0  0  0  0
 27 14  1  0  0  0  0
 28 29  1  0  0  0  0
 29 34  1  0  0  0  0
 30 35  1  0  0  0  0
 31 34  1  0  0  0  0
 32 31  1  0  0  0  0
 33 30  1  0  0  0  0
 33 29  1  0  0  0  0
 35 32  1  0  0  0  0
 36 37  1  0  0  0  0
 37 38  1  0  0  0  0
 38 39  1  0  0  0  0
 39 40  1  0  0  0  0
 40 42  1  0  0  0  0
 40 41  1  0  0  0  0
 43 21  1  0  0  0  0
 44 47  1  0  0  0  0
 45 47  2  0  0  0  0
 47 46  1  0  0  0  0
 47 43  1  0  0  0  0
M  END
>  <MODEL>
2

>  <REMARK>
 VINA RESULT:      -6.9      1.561      1.978
  Name = 
  8 active torsions:
  status: ('A' for Active; 'I' for Inactive)
    1  A    between atoms: C_3  and  N_11
    2  A    between atoms: C_3  and  C_34
    3  A    between atoms: N_11  and  C_24
    4  A    between atoms: N_20  and  C_34
    5  A    between atoms: C_21  and  C_46
    6  A    between atoms: C_24  and  C_43
    7  A    between atoms: O_36  and  C_38
    8  A    between atoms: O_36  and  P_47
                            x       y       z     vdW  Elec       q    Type
                         _______ _______ _______ _____ _____    ______ ____

>  <TORSDO>
F 8

$$$$
=
 OpenBabel11072408393D

 47 51  0  0  1  0  0  0  0  0999 V2000
  191.8430  172.8280  143.6250 N   0  0  0  0  0  2  0  0  0  0  0  0
  193.0860  172.8460  138.3960 N   0  0  0  0  0  2  0  0  0  0  0  0
  191.4220  173.0310  145.0080 C   0  0  0  0  0  2  0  0  0  0  0  0
  191.1250  173.7740  139.6740 N   0  0  0  0  0  2  0  0  0  0  0  0
  192.7700  174.3890  141.3420 C   0  0  1  0  0  3  0  0  0  0  0  0
  193.2440  175.0150  146.1680 N   0  0  0  0  0  1  0  0  0  0  0  0
  187.9090  174.9850  142.4390 C   0  0  0  0  0  2  0  0  0  0  0  0
  193.7230  173.9650  142.4150 N   0  0  2  0  0  0  0  0  0  0  0  0
  190.3520  174.7290  141.7970 C   0  0  0  0  0  2  0  0  0  0  0  0
  188.6510  173.1520  141.1270 O   0  0  0  0  0  1  0  0  0  0  0  0
  193.6270  173.2190  141.1550 C   0  0  2  0  0  3  0  0  0  0  0  0
  189.4520  176.2540  144.8320 C   0  0  0  0  0  0  0  0  0  0  0  0
  194.6840  173.6050  140.1350 C   0  0  0  0  0  2  0  0  0  0  0  0
  187.9210  176.4850  142.8120 C   0  0  1  0  0  3  0  0  0  0  0  0
  188.1220  176.7460  144.3200 C   0  0  1  0  0  3  0  0  0  0  0  0
  191.3770  173.8170  141.1180 C   0  0  1  0  0  3  0  0  0  0  0  0
  189.7850  174.8940  144.7980 C   0  0  0  0  0  3  0  0  0  0  0  0
  188.8940  174.5050  141.3660 C   0  0  1  0  0  3  0  0  0  0  0  0
  191.5980  176.7290  145.7690 N   0  0  0  0  0  0  0  0  0  0  0  0
  191.7050  172.7910  138.7990 C   0  0  0  0  0  0  0  0  0  0  0  0
  194.0220  173.9040  138.7800 C   0  0  1  0  0  3  0  0  0  0  0  0
  190.3860  177.1660  145.3320 C   0  0  0  0  0  3  0  0  0  0  0  0
  191.9480  175.4100  145.7230 C   0  0  0  0  0  0  0  0  0  0  0  0
  190.9700  171.8790  138.3360 O   0  0  0  0  0  0  0  0  0  0  0  0
  193.2690  173.1340  143.5590 C   0  0  2  0  0  3  0  0  0  0  0  0
  191.0390  174.4620  145.2230 C   0  0  0  0  0  0  0  0  0  0  0  0
  188.8020  177.3830  141.9510 C   0  0  0  0  0  1  0  0  0  0  0  0
  183.5570  179.2390  145.6280 O   0  0  0  0  0  1  0  0  0  0  0  0
  184.6040  178.3350  145.8080 C   0  0  1  0  0  3  0  0  0  0  0  0
  185.5780  176.4520  144.5080 C   0  0  0  0  0  2  0  0  0  0  0  0
  187.0440  178.2960  146.6660 C   0  0  0  0  0  2  0  0  0  0  0  0
  186.9730  176.7700  146.6220 C   0  0  0  0  0  2  0  0  0  0  0  0
  185.1440  177.9140  144.4510 C   0  0  0  0  0  2  0  0  0  0  0  0
  185.6710  178.9690  146.7020 C   0  0  0  0  0  2  0  0  0  0  0  0
  186.9430  176.2420  145.1800 C   0  0  2  0  0  3  0  0  0  0  0  0
  194.1650  171.9250  143.8500 C   0  0  0  0  0  2  0  0  0  0  0  0
  193.3760  170.7290  144.1130 N   0  0  0  0  0  2  0  0  0  0  0  0
  193.5890  169.8340  142.9830 C   0  0  0  0  0  2  0  0  0  0  0  0
  192.3800  168.9270  142.7820 C   0  0  0  0  0  2  0  0  0  0  0  0
  191.8130  169.1230  141.4550 N   0  0  0  0  0  0  0  0  0  0  0  0
  190.7950  168.1700  141.3080 N   0  0  0  0  0  1  0  0  0  0  0  0
  191.2100  170.3340  141.4620 O   0  0  0  0  0  1  0  0  0  0  0  0
  195.0090  174.0350  137.7990 O   0  0  0  0  0  0  0  0  0  0  0  0
  195.5180  176.0340  135.9660 O   0  0  0  0  0  1  0  0  0  0  0  0
  193.7290  174.0370  135.3280 O   0  0  0  0  0  0  0  0  0  0  0  0
  193.1990  175.8350  137.1570 O   0  0  0  0  0  1  0  0  0  0  0  0
  194.3250  175.0040  136.5830 P   0  0  0  0  0  0  0  0  0  0  0  0
  1  3  1  0  0  0  0
  2 21  1  0  0  0  0
  2 20  1  0  0  0  0
  3 26  1  0  0  0  0
  4 16  1  0  0  0  0
  5  8  1  0  0  0  0
  7 14  1  0  0  0  0
  8 25  1  0  0  0  0
 10 18  1  0  0  0  0
 11  5  1  0  0  0  0
 11  8  1  0  0  0  0
 12 22  1  0  0  0  0
 13 11  1  0  0  0  0
 14 15  1  0  0  0  0
 15 12  1  0  0  0  0
 15 35  1  0  0  0  0
 16  5  1  0  0  0  0
 16  9  1  0  0  0  0
 17 12  2  0  0  0  0
 17 26  1  0  0  0  0
 18  9  1  0  0  0  0
 18  7  1  0  0  0  0
 20  4  1  0  0  0  0
 21 13  1  0  0  0  0
 22 19  2  0  0  0  0
 23 19  1  0  0  0  0
 23  6  1  0  0  0  0
 24 20  2  0  0  0  0
 25  1  1  0  0  0  0
 25 36  1  0  0  0  0
 26 23  2  0  0  0  0
 27 14  1  0  0  0  0
 28 29  1  0  0  0  0
 29 34  1  0  0  0  0
 30 35  1  0  0  0  0
 31 34  1  0  0  0  0
 32 31  1  0  0  0  0
 33 30  1  0  0  0  0
 33 29  1  0  0  0  0
 35 32  1  0  0  0  0
 36 37  1  0  0  0  0
 38 37  1  0  0  0  0
 39 38  1  0  0  0  0
 40 42  1  0  0  0  0
 40 39  1  0  0  0  0
 41 40  1  0  0  0  0
 43 21  1  0  0  0  0
 44 47  1  0  0  0  0
 45 47  2  0  0  0  0
 47 46  1  0  0  0  0
 47 43  1  0  0  0  0
M  END
>  <MODEL>
3

>  <REMARK>
 VINA RESULT:      -6.5      1.441      2.462
  Name = 
  8 active torsions:
  status: ('A' for Active; 'I' for Inactive)
    1  A    between atoms: C_3  and  N_11
    2  A    between atoms: C_3  and  C_34
    3  A    between atoms: N_11  and  C_24
    4  A    between atoms: N_20  and  C_34
    5  A    between atoms: C_21  and  C_46
    6  A    between atoms: C_24  and  C_43
    7  A    between atoms: O_36  and  C_38
    8  A    between atoms: O_36  and  P_47
                            x       y       z     vdW  Elec       q    Type
                         _______ _______ _______ _____ _____    ______ ____

>  <TORSDO>
F 8

$$$$
=
 OpenBabel11072408393D

 47 51  0  0  1  0  0  0  0  0999 V2000
  191.4840  172.8230  144.1360 N   0  0  0  0  0  2  0  0  0  0  0  0
  193.9180  172.7560  139.3440 N   0  0  0  0  0  2  0  0  0  0  0  0
  190.7600  173.0520  145.3820 C   0  0  0  0  0  2  0  0  0  0  0  0
  191.7510  173.7690  140.1290 N   0  0  0  0  0  2  0  0  0  0  0  0
  192.9820  174.3310  142.1380 C   0  0  1  0  0  3  0  0  0  0  0  0
  192.3360  174.9710  146.9420 N   0  0  0  0  0  1  0  0  0  0  0  0
  188.0270  175.1230  142.0660 C   0  0  0  0  0  2  0  0  0  0  0  0
  193.6390  173.8770  143.4040 N   0  0  2  0  0  0  0  0  0  0  0  0
  190.5400  174.7680  142.0140 C   0  0  0  0  0  2  0  0  0  0  0  0
  188.9820  173.2540  140.9600 O   0  0  0  0  0  1  0  0  0  0  0  0
  193.8120  173.1260  142.1540 C   0  0  2  0  0  3  0  0  0  0  0  0
  189.0140  176.3470  144.7570 C   0  0  0  0  0  0  0  0  0  0  0  0
  195.0930  173.4640  141.4120 C   0  0  0  0  0  2  0  0  0  0  0  0
  188.0100  176.6240  142.4350 C   0  0  1  0  0  3  0  0  0  0  0  0
  187.8630  176.8880  143.9490 C   0  0  1  0  0  3  0  0  0  0  0  0
  191.6580  173.8110  141.5920 C   0  0  1  0  0  3  0  0  0  0  0  0
  189.2920  174.9750  144.7990 C   0  0  0  0  0  3  0  0  0  0  0  0
  189.2160  174.5980  141.2520 C   0  0  1  0  0  3  0  0  0  0  0  0
  190.8990  176.7450  146.1720 N   0  0  0  0  0  0  0  0  0  0  0  0
  192.4800  172.7570  139.4120 C   0  0  0  0  0  0  0  0  0  0  0  0
  194.7790  173.7790  139.9390 C   0  0  1  0  0  3  0  0  0  0  0  0
  189.8400  177.2260  145.4650 C   0  0  0  0  0  3  0  0  0  0  0  0
  191.1970  175.4120  146.2060 C   0  0  0  0  0  0  0  0  0  0  0  0
  191.8380  171.8710  138.7870 O   0  0  0  0  0  0  0  0  0  0  0  0
  192.8970  173.0720  144.4070 C   0  0  2  0  0  3  0  0  0  0  0  0
  190.3940  174.4970  145.5050 C   0  0  0  0  0  0  0  0  0  0  0  0
  189.1030  177.4810  141.8070 C   0  0  0  0  0  1  0  0  0  0  0  0
  183.2880  179.6530  144.3950 O   0  0  0  0  0  1  0  0  0  0  0  0
  184.2130  178.6680  144.7410 C   0  0  1  0  0  3  0  0  0  0  0  0
  185.3240  176.7750  143.5730 C   0  0  0  0  0  2  0  0  0  0  0  0
  186.4010  178.4120  146.0960 C   0  0  0  0  0  2  0  0  0  0  0  0
  186.2460  176.8990  145.9510 C   0  0  0  0  0  2  0  0  0  0  0  0
  185.0070  178.2660  143.5090 C   0  0  0  0  0  2  0  0  0  0  0  0
  185.0980  179.1830  145.8770 C   0  0  0  0  0  2  0  0  0  0  0  0
  186.4950  176.4360  144.5070 C   0  0  2  0  0  3  0  0  0  0  0  0
  193.6510  171.8310  144.8960 C   0  0  0  0  0  2  0  0  0  0  0  0
  194.8760  172.1940  145.5980 N   0  0  0  0  0  2  0  0  0  0  0  0
  195.7700  171.0490  145.4900 C   0  0  0  0  0  2  0  0  0  0  0  0
  196.1160  170.7750  144.0300 C   0  0  0  0  0  2  0  0  0  0  0  0
  197.5600  170.7030  143.8550 N   0  0  0  0  0  0  0  0  0  0  0  0
  197.8970  169.3420  143.8450 N   0  0  0  0  0  1  0  0  0  0  0  0
  197.8280  171.1770  142.6150 O   0  0  0  0  0  1  0  0  0  0  0  0
  195.9730  173.8640  139.2170 O   0  0  0  0  0  0  0  0  0  0  0  0
  194.2040  175.6180  138.0310 O   0  0  0  0  0  1  0  0  0  0  0  0
  196.8590  175.6720  137.2960 O   0  0  0  0  0  1  0  0  0  0  0  0
  195.2950  173.6630  136.6810 O   0  0  0  0  0  0  0  0  0  0  0  0
  195.5820  174.6700  137.7740 P   0  0  0  0  0  0  0  0  0  0  0  0
  1 25  1  0  0  0  0
  1  3  1  0  0  0  0
  2 20  1  0  0  0  0
  2 21  1  0  0  0  0
  3 26  1  0  0  0  0
  4 16  1  0  0  0  0
  5 11  1  0  0  0  0
  5  8  1  0  0  0  0
  7 14  1  0  0  0  0
  8 25  1  0  0  0  0
 10 18  1  0  0  0  0
 11  8  1  0  0  0  0
 12 17  2  0  0  0  0
 12 22  1  0  0  0  0
 13 11  1  0  0  0  0
 14 15  1  0  0  0  0
 15 35  1  0  0  0  0
 15 12  1  0  0  0  0
 16  9  1  0  0  0  0
 16  5  1  0  0  0  0
 17 26  1  0  0  0  0
 18  9  1  0  0  0  0
 18  7  1  0  0  0  0
 19 23  1  0  0  0  0
 20  4  1  0  0  0  0
 21 13  1  0  0  0  0
 22 19  2  0  0  0  0
 23  6  1  0  0  0  0
 24 20  2  0  0  0  0
 25 36  1  0  0  0  0
 26 23  2  0  0  0  0
 27 14  1  0  0  0  0
 28 29  1  0  0  0  0
 29 34  1  0  0  0  0
 30 35  1  0  0  0  0
 32 31  1  0  0  0  0
 33 30  1  0  0  0  0
 33 29  1  0  0  0  0
 34 31  1  0  0  0  0
 35 32  1  0  0  0  0
 36 37  1  0  0  0  0
 38 37  1  0  0  0  0
 39 38  1  0  0  0  0
 40 39  1  0  0  0  0
 41 40  1  0  0  0  0
 42 40  1  0  0  0  0
 43 21  1  0  0  0  0
 45 47  1  0  0  0  0
 46 47  2  0  0  0  0
 47 44  1  0  0  0  0
 47 43  1  0  0  0  0
M  END
>  <MODEL>
4

>  <REMARK>
 VINA RESULT:      -6.3      1.531      1.818
  Name = 
  8 active torsions:
  status: ('A' for Active; 'I' for Inactive)
    1  A    between atoms: C_3  and  N_11
    2  A    between atoms: C_3  and  C_34
    3  A    between atoms: N_11  and  C_24
    4  A    between atoms: N_20  and  C_34
    5  A    between atoms: C_21  and  C_46
    6  A    between atoms: C_24  and  C_43
    7  A    between atoms: O_36  and  C_38
    8  A    between atoms: O_36  and  P_47
                            x       y       z     vdW  Elec       q    Type
                         _______ _______ _______ _____ _____    ______ ____

>  <TORSDO>
F 8

$$$$
=
 OpenBabel11072408393D

 47 51  0  0  1  0  0  0  0  0999 V2000
  193.6060  173.3660  140.5930 N   0  0  0  0  0  2  0  0  0  0  0  0
  197.5150  171.8530  143.9580 N   0  0  0  0  0  2  0  0  0  0  0  0
  192.4110  173.7770  139.8630 C   0  0  0  0  0  2  0  0  0  0  0  0
  195.5690  173.4290  144.2210 N   0  0  0  0  0  2  0  0  0  0  0  0
  194.3350  171.7890  142.9360 C   0  0  1  0  0  3  0  0  0  0  0  0
  190.6360  171.4450  139.7570 N   0  0  0  0  0  1  0  0  0  0  0  0
  192.1220  176.1710  143.9790 C   0  0  0  0  0  2  0  0  0  0  0  0
  194.0780  171.1260  141.6180 N   0  0  2  0  0  0  0  0  0  0  0  0
  193.2680  173.9460  143.5470 C   0  0  0  0  0  2  0  0  0  0  0  0
  194.4490  176.0520  143.5270 O   0  0  0  0  0  1  0  0  0  0  0  0
  195.4480  171.4000  142.0700 C   0  0  2  0  0  3  0  0  0  0  0  0
  189.9140  174.4380  142.6240 C   0  0  0  0  0  0  0  0  0  0  0  0
  196.1230  170.2090  142.7270 C   0  0  0  0  0  2  0  0  0  0  0  0
  190.8410  175.6440  144.6640 C   0  0  1  0  0  3  0  0  0  0  0  0
  189.6510  175.4640  143.6970 C   0  0  1  0  0  3  0  0  0  0  0  0
  194.5850  173.2760  143.1460 C   0  0  1  0  0  3  0  0  0  0  0  0
  190.9360  174.6160  141.6840 C   0  0  0  0  0  3  0  0  0  0  0  0
  193.4110  175.3550  144.1450 C   0  0  1  0  0  3  0  0  0  0  0  0
  189.3940  172.3320  141.6210 N   0  0  0  0  0  0  0  0  0  0  0  0
  196.9760  173.1850  144.0460 C   0  0  0  0  0  0  0  0  0  0  0  0
  196.7250  170.6270  144.0790 C   0  0  1  0  0  3  0  0  0  0  0  0
  189.1410  173.2740  142.5700 C   0  0  0  0  0  3  0  0  0  0  0  0
  190.4010  172.4790  140.7100 C   0  0  0  0  0  0  0  0  0  0  0  0
  197.7650  174.1670  144.0150 O   0  0  0  0  0  0  0  0  0  0  0  0
  193.7490  171.9240  140.4110 C   0  0  2  0  0  3  0  0  0  0  0  0
  191.2020  173.6320  140.7340 C   0  0  0  0  0  0  0  0  0  0  0  0
  191.0180  174.4440  145.5870 C   0  0  0  0  0  1  0  0  0  0  0  0
  185.8070  178.7260  145.5260 O   0  0  0  0  0  1  0  0  0  0  0  0
  186.6160  178.1420  144.5520 C   0  0  1  0  0  3  0  0  0  0  0  0
  189.0620  177.9200  144.1630 C   0  0  0  0  0  2  0  0  0  0  0  0
  186.7390  175.9840  143.1310 C   0  0  0  0  0  2  0  0  0  0  0  0
  187.8400  176.6560  142.3120 C   0  0  0  0  0  2  0  0  0  0  0  0
  187.9380  177.7270  145.1770 C   0  0  0  0  0  2  0  0  0  0  0  0
  185.8690  176.9720  143.9090 C   0  0  0  0  0  2  0  0  0  0  0  0
  189.1420  176.8000  143.1140 C   0  0  2  0  0  3  0  0  0  0  0  0
  194.5620  171.5460  139.1680 C   0  0  0  0  0  2  0  0  0  0  0  0
  195.4570  172.6240  138.7690 N   0  0  0  0  0  2  0  0  0  0  0  0
  195.5070  172.6040  137.3130 C   0  0  0  0  0  2  0  0  0  0  0  0
  194.5970  173.6800  136.7310 C   0  0  0  0  0  2  0  0  0  0  0  0
  194.9920  174.9960  137.2160 N   0  0  0  0  0  0  0  0  0  0  0  0
  195.5970  175.6570  136.1370 N   0  0  0  0  0  1  0  0  0  0  0  0
  193.8510  175.6700  137.4910 O   0  0  0  0  0  1  0  0  0  0  0  0
  197.5330  169.5960  144.5670 O   0  0  0  0  0  0  0  0  0  0  0  0
  196.3980  170.5970  146.8750 O   0  0  0  0  0  1  0  0  0  0  0  0
  195.5470  168.1680  145.8930 O   0  0  0  0  0  0  0  0  0  0  0  0
  197.9350  168.4820  146.9190 O   0  0  0  0  0  1  0  0  0  0  0  0
  196.8860  169.1830  146.0830 P   0  0  0  0  0  0  0  0  0  0  0  0
  2 20  1  0  0  0  0
  2 21  1  0  0  0  0
  3  1  1  0  0  0  0
  3 26  1  0  0  0  0
  5 16  1  0  0  0  0
  6 23  1  0  0  0  0
  7 18  1  0  0  0  0
  7 14  1  0  0  0  0
  8 11  1  0  0  0  0
  8  5  1  0  0  0  0
  9 18  1  0  0  0  0
 10 18  1  0  0  0  0
 11 13  1  0  0  0  0
 11  5  1  0  0  0  0
 12 15  1  0  0  0  0
 13 21  1  0  0  0  0
 14 27  1  0  0  0  0
 15 14  1  0  0  0  0
 16  9  1  0  0  0  0
 16  4  1  0  0  0  0
 17 12  2  0  0  0  0
 19 22  2  0  0  0  0
 20  4  1  0  0  0  0
 21 43  1  0  0  0  0
 22 12  1  0  0  0  0
 23 26  2  0  0  0  0
 23 19  1  0  0  0  0
 24 20  2  0  0  0  0
 25  1  1  0  0  0  0
 25  8  1  0  0  0  0
 26 17  1  0  0  0  0
 29 33  1  0  0  0  0
 29 28  1  0  0  0  0
 30 33  1  0  0  0  0
 31 34  1  0  0  0  0
 32 35  1  0  0  0  0
 32 31  1  0  0  0  0
 34 29  1  0  0  0  0
 35 15  1  0  0  0  0
 35 30  1  0  0  0  0
 36 25  1  0  0  0  0
 37 36  1  0  0  0  0
 38 37  1  0  0  0  0
 39 40  1  0  0  0  0
 39 38  1  0  0  0  0
 40 42  1  0  0  0  0
 41 40  1  0  0  0  0
 43 47  1  0  0  0  0
 45 47  2  0  0  0  0
 47 44  1  0  0  0  0
 47 46  1  0  0  0  0
M  END
>  <MODEL>
5

>  <REMARK>
 VINA RESULT:      -6.2      3.223      6.306
  Name = 
  8 active torsions:
  status: ('A' for Active; 'I' for Inactive)
    1  A    between atoms: C_3  and  N_11
    2  A    between atoms: C_3  and  C_34
    3  A    between atoms: N_11  and  C_24
    4  A    between atoms: N_20  and  C_34
    5  A    between atoms: C_21  and  C_46
    6  A    between atoms: C_24  and  C_43
    7  A    between atoms: O_36  and  C_38
    8  A    between atoms: O_36  and  P_47
                            x       y       z     vdW  Elec       q    Type
                         _______ _______ _______ _____ _____    ______ ____

>  <TORSDO>
F 8

$$$$
=
 OpenBabel11072408393D

 47 51  0  0  1  0  0  0  0  0999 V2000
  195.1420  172.7880  144.3880 N   0  0  0  0  0  2  0  0  0  0  0  0
  194.4060  169.7060  140.0460 N   0  0  0  0  0  2  0  0  0  0  0  0
  195.1610  173.7410  145.4940 C   0  0  0  0  0  2  0  0  0  0  0  0
  192.7930  170.8390  141.6140 N   0  0  0  0  0  2  0  0  0  0  0  0
  194.3710  172.6750  141.5770 C   0  0  1  0  0  3  0  0  0  0  0  0
  196.0440  176.3090  144.3880 N   0  0  0  0  0  1  0  0  0  0  0  0
  190.5200  172.8890  144.7890 C   0  0  0  0  0  2  0  0  0  0  0  0
  195.7030  173.2250  141.9830 N   0  0  2  0  0  0  0  0  0  0  0  0
  192.4040  172.7560  143.0920 C   0  0  0  0  0  2  0  0  0  0  0  0
  191.5820  170.8270  144.2880 O   0  0  0  0  0  1  0  0  0  0  0  0
  195.5730  171.8460  141.4960 C   0  0  2  0  0  3  0  0  0  0  0  0
  191.9360  175.6560  145.0190 C   0  0  0  0  0  0  0  0  0  0  0  0
  195.9000  171.6870  140.0220 C   0  0  0  0  0  2  0  0  0  0  0  0
  189.9200  174.2490  144.3650 C   0  0  1  0  0  3  0  0  0  0  0  0
  190.4530  175.4440  145.1840 C   0  0  1  0  0  3  0  0  0  0  0  0
  193.4530  171.8380  142.4580 C   0  0  1  0  0  3  0  0  0  0  0  0
  192.8590  174.6840  145.4230 C   0  0  0  0  0  3  0  0  0  0  0  0
  191.1950  172.0350  143.7080 C   0  0  1  0  0  3  0  0  0  0  0  0
  193.7450  177.0190  144.2570 N   0  0  0  0  0  0  0  0  0  0  0  0
  193.4530  169.6570  141.1240 C   0  0  0  0  0  0  0  0  0  0  0  0
  194.7710  170.9190  139.3140 C   0  0  1  0  0  3  0  0  0  0  0  0
  192.4090  176.8350  144.4340 C   0  0  0  0  0  3  0  0  0  0  0  0
  194.6580  176.0720  144.6250 C   0  0  0  0  0  0  0  0  0  0  0  0
  193.1520  168.5400  141.6240 O   0  0  0  0  0  0  0  0  0  0  0  0
  196.1220  173.2470  143.4070 C   0  0  2  0  0  3  0  0  0  0  0  0
  194.2230  174.8720  145.2120 C   0  0  0  0  0  0  0  0  0  0  0  0
  189.9060  174.5390  142.8690 C   0  0  0  0  0  1  0  0  0  0  0  0
  186.1410  177.5540  147.5770 O   0  0  0  0  0  1  0  0  0  0  0  0
  187.4560  177.0920  147.5120 C   0  0  1  0  0  3  0  0  0  0  0  0
  188.5690  174.9650  146.8640 C   0  0  0  0  0  2  0  0  0  0  0  0
  189.7960  177.9140  146.7760 C   0  0  0  0  0  2  0  0  0  0  0  0
  190.3790  176.6700  147.4450 C   0  0  0  0  0  2  0  0  0  0  0  0
  187.5630  176.0280  146.4310 C   0  0  0  0  0  2  0  0  0  0  0  0
  188.3960  178.2760  147.2760 C   0  0  0  0  0  2  0  0  0  0  0  0
  190.0330  175.3900  146.6690 C   0  0  2  0  0  3  0  0  0  0  0  0
  197.5320  172.7010  143.6540 C   0  0  0  0  0  2  0  0  0  0  0  0
  197.6070  171.9700  144.9120 N   0  0  0  0  0  2  0  0  0  0  0  0
  197.8390  170.5740  144.5670 C   0  0  0  0  0  2  0  0  0  0  0  0
  197.5620  169.6720  145.7660 C   0  0  0  0  0  2  0  0  0  0  0  0
  196.1630  169.7660  146.1590 N   0  0  0  0  0  0  0  0  0  0  0  0
  195.4120  169.2240  145.1050 N   0  0  0  0  0  1  0  0  0  0  0  0
  195.9970  168.9380  147.2170 O   0  0  0  0  0  1  0  0  0  0  0  0
  195.1790  170.5800  138.0200 O   0  0  0  0  0  0  0  0  0  0  0  0
  193.1310  169.4860  136.5290 O   0  0  0  0  0  1  0  0  0  0  0  0
  192.7200  171.8710  137.8450 O   0  0  0  0  0  1  0  0  0  0  0  0
  194.3300  171.6880  135.7870 O   0  0  0  0  0  0  0  0  0  0  0  0
  193.8580  170.9360  137.0130 P   0  0  0  0  0  0  0  0  0  0  0  0
  1  3  1  0  0  0  0
  2 20  1  0  0  0  0
  4 16  1  0  0  0  0
  5  8  1  0  0  0  0
  5 16  1  0  0  0  0
  6 23  1  0  0  0  0
  8 25  1  0  0  0  0
  9 18  1  0  0  0  0
 11  5  1  0  0  0  0
 11  8  1  0  0  0  0
 12 15  1  0  0  0  0
 12 17  1  0  0  0  0
 13 11  1  0  0  0  0
 14  7  1  0  0  0  0
 14 15  1  0  0  0  0
 15 35  1  0  0  0  0
 16  9  1  0  0  0  0
 18 10  1  0  0  0  0
 18  7  1  0  0  0  0
 19 22  1  0  0  0  0
 19 23  2  0  0  0  0
 20  4  1  0  0  0  0
 20 24  2  0  0  0  0
 21 13  1  0  0  0  0
 21  2  1  0  0  0  0
 22 12  2  0  0  0  0
 23 26  1  0  0  0  0
 25 36  1  0  0  0  0
 25  1  1  0  0  0  0
 26 17  2  0  0  0  0
 26  3  1  0  0  0  0
 27 14  1  0  0  0  0
 29 28  1  0  0  0  0
 31 34  1  0  0  0  0
 31 32  1  0  0  0  0
 33 30  1  0  0  0  0
 33 29  1  0  0  0  0
 34 29  1  0  0  0  0
 35 30  1  0  0  0  0
 35 32  1  0  0  0  0
 36 37  1  0  0  0  0
 38 37  1  0  0  0  0
 38 39  1  0  0  0  0
 39 40  1  0  0  0  0
 40 42  1  0  0  0  0
 41 40  1  0  0  0  0
 43 21  1  0  0  0  0
 44 47  1  0  0  0  0
 46 47  2  0  0  0  0
 47 45  1  0  0  0  0
 47 43  1  0  0  0  0
M  END
>  <MODEL>
6

>  <REMARK>
 VINA RESULT:      -5.1      2.723      3.762
  Name = 
  8 active torsions:
  status: ('A' for Active; 'I' for Inactive)
    1  A    between atoms: C_3  and  N_11
    2  A    between atoms: C_3  and  C_34
    3  A    between atoms: N_11  and  C_24
    4  A    between atoms: N_20  and  C_34
    5  A    between atoms: C_21  and  C_46
    6  A    between atoms: C_24  and  C_43
    7  A    between atoms: O_36  and  C_38
    8  A    between atoms: O_36  and  P_47
                            x       y       z     vdW  Elec       q    Type
                         _______ _______ _______ _____ _____    ______ ____

>  <TORSDO>
F 8

$$$$
=
 OpenBabel11072408393D

 47 51  0  0  1  0  0  0  0  0999 V2000
  190.7510  176.1880  142.8640 N   0  0  0  0  0  2  0  0  0  0  0  0
  185.7740  177.5360  144.3830 N   0  0  0  0  0  2  0  0  0  0  0  0
  192.0110  175.6260  142.3860 C   0  0  0  0  0  2  0  0  0  0  0  0
  186.6490  176.2100  142.4290 N   0  0  0  0  0  2  0  0  0  0  0  0
  188.2270  175.2960  144.0220 C   0  0  1  0  0  3  0  0  0  0  0  0
  192.7760  173.5230  144.2810 N   0  0  0  0  0  1  0  0  0  0  0  0
  188.8050  174.1730  139.1650 C   0  0  0  0  0  2  0  0  0  0  0  0
  189.4350  175.4950  144.8830 N   0  0  2  0  0  0  0  0  0  0  0  0
  188.4160  174.7180  141.6140 C   0  0  0  0  0  2  0  0  0  0  0  0
  188.0340  176.3120  139.8420 O   0  0  0  0  0  1  0  0  0  0  0  0
  188.3900  176.5230  144.8010 C   0  0  2  0  0  3  0  0  0  0  0  0
  190.9180  172.4410  140.6650 C   0  0  0  0  0  0  0  0  0  0  0  0
  187.3840  176.4620  145.9360 C   0  0  0  0  0  2  0  0  0  0  0  0
  188.8020  172.6310  139.2650 C   0  0  1  0  0  3  0  0  0  0  0  0
  190.2110  172.0160  139.4040 C   0  0  1  0  0  3  0  0  0  0  0  0
  188.0530  175.8260  142.6050 C   0  0  1  0  0  3  0  0  0  0  0  0
  191.2400  173.7840  140.9000 C   0  0  0  0  0  3  0  0  0  0  0  0
  187.9520  174.9580  140.1690 C   0  0  1  0  0  3  0  0  0  0  0  0
  191.8580  171.8710  142.7870 N   0  0  0  0  0  0  0  0  0  0  0  0
  186.0820  177.4110  142.9820 C   0  0  0  0  0  0  0  0  0  0  0  0
  185.9530  176.4700  145.3710 C   0  0  1  0  0  3  0  0  0  0  0  0
  191.2450  171.4880  141.6340 C   0  0  0  0  0  3  0  0  0  0  0  0
  192.1590  173.1780  143.0430 C   0  0  0  0  0  0  0  0  0  0  0  0
  185.8050  178.3670  142.2090 O   0  0  0  0  0  0  0  0  0  0  0  0
  190.7120  175.9900  144.3100 C   0  0  2  0  0  3  0  0  0  0  0  0
  191.8430  174.1670  142.0960 C   0  0  0  0  0  0  0  0  0  0  0  0
  187.8120  172.0250  140.2520 C   0  0  0  0  0  1  0  0  0  0  0  0
  191.1900  168.6460  135.3470 O   0  0  0  0  0  1  0  0  0  0  0  0
  191.4720  169.7010  136.2140 C   0  0  1  0  0  3  0  0  0  0  0  0
  190.3650  171.8360  136.8460 C   0  0  0  0  0  2  0  0  0  0  0  0
  192.3870  170.0950  138.6020 C   0  0  0  0  0  2  0  0  0  0  0  0
  192.4750  171.5820  138.2600 C   0  0  0  0  0  2  0  0  0  0  0  0
  190.1700  170.3320  136.6810 C   0  0  0  0  0  2  0  0  0  0  0  0
  192.3330  169.1890  137.3710 C   0  0  0  0  0  2  0  0  0  0  0  0
  191.0840  172.2240  138.1470 C   0  0  2  0  0  3  0  0  0  0  0  0
  191.3500  177.1380  145.1000 C   0  0  0  0  0  2  0  0  0  0  0  0
  191.6080  176.7550  146.4820 N   0  0  0  0  0  2  0  0  0  0  0  0
  193.0220  176.4130  146.5600 C   0  0  0  0  0  2  0  0  0  0  0  0
  193.8040  177.1080  145.4500 C   0  0  0  0  0  2  0  0  0  0  0  0
  195.1040  176.4760  145.2730 N   0  0  0  0  0  0  0  0  0  0  0  0
  195.1200  175.3490  146.1070 N   0  0  0  0  0  1  0  0  0  0  0  0
  195.1460  176.0160  144.0010 O   0  0  0  0  0  1  0  0  0  0  0  0
  185.0410  176.6430  146.4160 O   0  0  0  0  0  0  0  0  0  0  0  0
  186.3210  179.0800  146.2230 O   0  0  0  0  0  1  0  0  0  0  0  0
  183.6600  178.8910  145.5320 O   0  0  0  0  0  0  0  0  0  0  0  0
  184.4630  178.6540  148.0140 O   0  0  0  0  0  1  0  0  0  0  0  0
  184.8520  178.3220  146.5900 P   0  0  0  0  0  0  0  0  0  0  0  0
  1 25  1  0  0  0  0
  2 21  1  0  0  0  0
  3  1  1  0  0  0  0
  4 16  1  0  0  0  0
  4 20  1  0  0  0  0
  5 11  1  0  0  0  0
  5  8  1  0  0  0  0
  7 14  1  0  0  0  0
  7 18  1  0  0  0  0
  9 16  1  0  0  0  0
 10 18  1  0  0  0  0
 11  8  1  0  0  0  0
 11 13  1  0  0  0  0
 12 17  2  0  0  0  0
 12 22  1  0  0  0  0
 14 15  1  0  0  0  0
 14 27  1  0  0  0  0
 15 12  1  0  0  0  0
 16  5  1  0  0  0  0
 17 26  1  0  0  0  0
 18  9  1  0  0  0  0
 19 23  1  0  0  0  0
 20  2  1  0  0  0  0
 21 13  1  0  0  0  0
 21 43  1  0  0  0  0
 22 19  2  0  0  0  0
 23  6  1  0  0  0  0
 24 20  2  0  0  0  0
 25  8  1  0  0  0  0
 25 36  1  0  0  0  0
 26  3  1  0  0  0  0
 26 23  2  0  0  0  0
 28 29  1  0  0  0  0
 29 33  1  0  0  0  0
 29 34  1  0  0  0  0
 30 35  1  0  0  0  0
 32 31  1  0  0  0  0
 33 30  1  0  0  0  0
 34 31  1  0  0  0  0
 35 32  1  0  0  0  0
 35 15  1  0  0  0  0
 36 37  1  0  0  0  0
 37 38  1  0  0  0  0
 39 38  1  0  0  0  0
 40 39  1  0  0  0  0
 40 41  1  0  0  0  0
 42 40  1  0  0  0  0
 43 47  1  0  0  0  0
 44 47  1  0  0  0  0
 45 47  2  0  0  0  0
 47 46  1  0  0  0  0
M  END
>  <MODEL>
7

>  <REMARK>
 VINA RESULT:      -4.9      3.595      8.598
  Name = 
  8 active torsions:
  status: ('A' for Active; 'I' for Inactive)
    1  A    between atoms: C_3  and  N_11
    2  A    between atoms: C_3  and  C_34
    3  A    between atoms: N_11  and  C_24
    4  A    between atoms: N_20  and  C_34
    5  A    between atoms: C_21  and  C_46
    6  A    between atoms: C_24  and  C_43
    7  A    between atoms: O_36  and  C_38
    8  A    between atoms: O_36  and  P_47
                            x       y       z     vdW  Elec       q    Type
                         _______ _______ _______ _____ _____    ______ ____

>  <TORSDO>
F 8

$$$$
=
 OpenBabel11072408393D

 47 51  0  0  1  0  0  0  0  0999 V2000
  190.7970  176.1990  142.5540 N   0  0  0  0  0  2  0  0  0  0  0  0
  185.8620  177.4800  144.2560 N   0  0  0  0  0  2  0  0  0  0  0  0
  192.0450  175.6530  142.0290 C   0  0  0  0  0  2  0  0  0  0  0  0
  186.6810  176.1700  142.2680 N   0  0  0  0  0  2  0  0  0  0  0  0
  188.3270  175.2730  143.8010 C   0  0  1  0  0  3  0  0  0  0  0  0
  192.9050  173.5570  143.8900 N   0  0  0  0  0  1  0  0  0  0  0  0
  188.7430  174.1660  138.9230 C   0  0  0  0  0  2  0  0  0  0  0  0
  189.5630  175.4850  144.6180 N   0  0  2  0  0  0  0  0  0  0  0  0
  188.4360  174.7010  141.3860 C   0  0  0  0  0  2  0  0  0  0  0  0
  187.9700  176.2940  139.6330 O   0  0  0  0  0  1  0  0  0  0  0  0
  188.5040  176.5000  144.5760 C   0  0  2  0  0  3  0  0  0  0  0  0
  190.9300  172.4580  140.3410 C   0  0  0  0  0  0  0  0  0  0  0  0
  187.5400  176.4240  145.7470 C   0  0  0  0  0  2  0  0  0  0  0  0
  188.7620  172.6230  139.0200 C   0  0  1  0  0  3  0  0  0  0  0  0
  190.1830  172.0260  139.1060 C   0  0  1  0  0  3  0  0  0  0  0  0
  188.0950  175.8030  142.3920 C   0  0  1  0  0  3  0  0  0  0  0  0
  191.2440  173.8040  140.5680 C   0  0  0  0  0  3  0  0  0  0  0  0
  187.9170  174.9390  139.9590 C   0  0  1  0  0  3  0  0  0  0  0  0
  191.9540  171.8960  142.4260 N   0  0  0  0  0  0  0  0  0  0  0  0
  186.1200  177.3620  142.8440 C   0  0  0  0  0  0  0  0  0  0  0  0
  186.0900  176.4160  145.2340 C   0  0  1  0  0  3  0  0  0  0  0  0
  191.3050  171.5070  141.2960 C   0  0  0  0  0  3  0  0  0  0  0  0
  192.2480  173.2070  142.6740 C   0  0  0  0  0  0  0  0  0  0  0  0
  185.8020  178.3150  142.0830 O   0  0  0  0  0  0  0  0  0  0  0  0
  190.8120  175.9970  144.0000 C   0  0  2  0  0  3  0  0  0  0  0  0
  191.8850  174.1930  141.7420 C   0  0  0  0  0  0  0  0  0  0  0  0
  187.8170  172.0030  140.0410 C   0  0  0  0  0  1  0  0  0  0  0  0
  191.1910  168.6220  135.0850 O   0  0  0  0  0  1  0  0  0  0  0  0
  191.4510  169.7060  135.9230 C   0  0  1  0  0  3  0  0  0  0  0  0
  190.2670  171.8020  136.5480 C   0  0  0  0  0  2  0  0  0  0  0  0
  192.4200  170.1890  138.2730 C   0  0  0  0  0  2  0  0  0  0  0  0
  192.4290  171.6710  137.9000 C   0  0  0  0  0  2  0  0  0  0  0  0
  190.1360  170.2870  136.4180 C   0  0  0  0  0  2  0  0  0  0  0  0
  192.3690  169.2560  137.0610 C   0  0  0  0  0  2  0  0  0  0  0  0
  191.0070  172.2480  137.8180 C   0  0  2  0  0  3  0  0  0  0  0  0
  191.4640  177.1520  144.7680 C   0  0  0  0  0  2  0  0  0  0  0  0
  192.8360  176.8350  145.1420 N   0  0  0  0  0  2  0  0  0  0  0  0
  192.8430  176.6690  146.5890 C   0  0  0  0  0  2  0  0  0  0  0  0
  192.3160  175.2900  146.9730 C   0  0  0  0  0  2  0  0  0  0  0  0
  191.3770  175.3970  148.0820 N   0  0  0  0  0  0  0  0  0  0  0  0
  191.1910  176.7660  148.3210 N   0  0  0  0  0  1  0  0  0  0  0  0
  190.1910  174.9190  147.6380 O   0  0  0  0  0  1  0  0  0  0  0  0
  185.2140  176.5750  146.3120 O   0  0  0  0  0  0  0  0  0  0  0  0
  186.4340  179.0170  145.9100 O   0  0  0  0  0  1  0  0  0  0  0  0
  183.6910  178.8290  145.7290 O   0  0  0  0  0  0  0  0  0  0  0  0
  184.9460  178.5670  148.0120 O   0  0  0  0  0  1  0  0  0  0  0  0
  185.0610  178.2520  146.5370 P   0  0  0  0  0  0  0  0  0  0  0  0
  1 25  1  0  0  0  0
  2 21  1  0  0  0  0
  3  1  1  0  0  0  0
  4 16  1  0  0  0  0
  4 20  1  0  0  0  0
  5 11  1  0  0  0  0
  5  8  1  0  0  0  0
  7 14  1  0  0  0  0
  7 18  1  0  0  0  0
  9 16  1  0  0  0  0
 10 18  1  0  0  0  0
 11  8  1  0  0  0  0
 11 13  1  0  0  0  0
 12 17  2  0  0  0  0
 12 22  1  0  0  0  0
 14 15  1  0  0  0  0
 14 27  1  0  0  0  0
 15 12  1  0  0  0  0
 16  5  1  0  0  0  0
 17 26  1  0  0  0  0
 18  9  1  0  0  0  0
 19 23  1  0  0  0  0
 20  2  1  0  0  0  0
 21 13  1  0  0  0  0
 21 43  1  0  0  0  0
 22 19  2  0  0  0  0
 23  6  1  0  0  0  0
 24 20  2  0  0  0  0
 25  8  1  0  0  0  0
 25 36  1  0  0  0  0
 26  3  1  0  0  0  0
 26 23  2  0  0  0  0
 28 29  1  0  0  0  0
 29 33  1  0  0  0  0
 29 34  1  0  0  0  0
 30 35  1  0  0  0  0
 32 31  1  0  0  0  0
 33 30  1  0  0  0  0
 34 31  1  0  0  0  0
 35 32  1  0  0  0  0
 35 15  1  0  0  0  0
 36 37  1  0  0  0  0
 37 38  1  0  0  0  0
 38 39  1  0  0  0  0
 39 40  1  0  0  0  0
 40 41  1  0  0  0  0
 42 40  1  0  0  0  0
 43 47  1  0  0  0  0
 44 47  1  0  0  0  0
 45 47  2  0  0  0  0
 47 46  1  0  0  0  0
M  END
>  <MODEL>
8

>  <REMARK>
 VINA RESULT:      -4.7      3.822      8.788
  Name = 
  8 active torsions:
  status: ('A' for Active; 'I' for Inactive)
    1  A    between atoms: C_3  and  N_11
    2  A    between atoms: C_3  and  C_34
    3  A    between atoms: N_11  and  C_24
    4  A    between atoms: N_20  and  C_34
    5  A    between atoms: C_21  and  C_46
    6  A    between atoms: C_24  and  C_43
    7  A    between atoms: O_36  and  C_38
    8  A    between atoms: O_36  and  P_47
                            x       y       z     vdW  Elec       q    Type
                         _______ _______ _______ _____ _____    ______ ____

>  <TORSDO>
F 8

$$$$
=
 OpenBabel11072408393D

 47 51  0  0  1  0  0  0  0  0999 V2000
  192.6590  174.5930  141.7620 N   0  0  0  0  0  2  0  0  0  0  0  0
  195.8680  172.7340  145.6530 N   0  0  0  0  0  2  0  0  0  0  0  0
  191.6210  175.0800  140.8580 C   0  0  0  0  0  2  0  0  0  0  0  0
  193.8890  174.2920  145.6880 N   0  0  0  0  0  2  0  0  0  0  0  0
  192.9440  172.7920  144.0390 C   0  0  1  0  0  3  0  0  0  0  0  0
  189.9260  172.7820  140.1910 N   0  0  0  0  0  1  0  0  0  0  0  0
  190.5220  177.0690  145.0540 C   0  0  0  0  0  2  0  0  0  0  0  0
  192.9510  172.2610  142.6390 N   0  0  2  0  0  0  0  0  0  0  0  0
  191.7550  174.8880  144.6380 C   0  0  0  0  0  2  0  0  0  0  0  0
  192.8930  176.9780  145.0460 O   0  0  0  0  0  1  0  0  0  0  0  0
  194.2060  172.4800  143.3690 C   0  0  2  0  0  3  0  0  0  0  0  0
  188.6340  175.4910  143.1400 C   0  0  0  0  0  0  0  0  0  0  0  0
  194.7560  171.2270  144.0260 C   0  0  0  0  0  2  0  0  0  0  0  0
  189.1390  176.4880  145.4260 C   0  0  1  0  0  3  0  0  0  0  0  0
  188.1590  176.4100  144.2360 C   0  0  1  0  0  3  0  0  0  0  0  0
  193.1310  174.2500  144.4340 C   0  0  1  0  0  3  0  0  0  0  0  0
  189.8160  175.7510  142.4350 C   0  0  0  0  0  3  0  0  0  0  0  0
  191.7640  176.2320  145.3840 C   0  0  1  0  0  3  0  0  0  0  0  0
  188.3390  173.4960  141.8590 N   0  0  0  0  0  0  0  0  0  0  0  0
  195.3060  174.0560  145.7630 C   0  0  0  0  0  0  0  0  0  0  0  0
  195.0830  171.5080  145.5020 C   0  0  1  0  0  3  0  0  0  0  0  0
  187.8990  174.3440  142.8280 C   0  0  0  0  0  3  0  0  0  0  0  0
  189.5000  173.7220  141.1760 C   0  0  0  0  0  0  0  0  0  0  0  0
  196.0760  175.0300  145.9780 O   0  0  0  0  0  0  0  0  0  0  0  0
  192.8500  173.1740  141.4730 C   0  0  2  0  0  3  0  0  0  0  0  0
  190.2700  174.8620  141.4640 C   0  0  0  0  0  0  0  0  0  0  0  0
  189.1500  175.2040  146.2460 C   0  0  0  0  0  1  0  0  0  0  0  0
  183.4930  179.0150  144.7000 O   0  0  0  0  0  1  0  0  0  0  0  0
  184.7030  178.6810  144.0930 C   0  0  1  0  0  3  0  0  0  0  0  0
  187.0980  178.6890  144.7640 C   0  0  0  0  0  2  0  0  0  0  0  0
  185.6970  176.8500  142.5590 C   0  0  0  0  0  2  0  0  0  0  0  0
  186.9330  177.7350  142.4020 C   0  0  0  0  0  2  0  0  0  0  0  0
  185.6950  178.2350  145.1560 C   0  0  0  0  0  2  0  0  0  0  0  0
  184.4560  177.6140  143.0250 C   0  0  0  0  0  2  0  0  0  0  0  0
  187.7560  177.8010  143.6980 C   0  0  2  0  0  3  0  0  0  0  0  0
  193.8910  172.9110  140.3790 C   0  0  0  0  0  2  0  0  0  0  0  0
  193.2620  172.4610  139.1430 N   0  0  0  0  0  2  0  0  0  0  0  0
  193.5160  171.0300  139.0460 C   0  0  0  0  0  2  0  0  0  0  0  0
  192.3900  170.3360  138.2880 C   0  0  0  0  0  2  0  0  0  0  0  0
  191.9530  169.1460  139.0060 N   0  0  0  0  0  0  0  0  0  0  0  0
  192.1240  169.4150  140.3720 N   0  0  0  0  0  1  0  0  0  0  0  0
  190.6200  169.0310  138.8000 O   0  0  0  0  0  1  0  0  0  0  0  0
  195.7940  170.4290  146.0350 O   0  0  0  0  0  0  0  0  0  0  0  0
  193.3680  169.5220  145.0840 O   0  0  0  0  0  1  0  0  0  0  0  0
  195.6730  168.1670  144.4190 O   0  0  0  0  0  0  0  0  0  0  0  0
  194.7270  168.1680  146.8610 O   0  0  0  0  0  1  0  0  0  0  0  0
  194.8940  169.0440  145.6380 P   0  0  0  0  0  0  0  0  0  0  0  0
  2 20  1  0  0  0  0
  3 26  1  0  0  0  0
  3  1  1  0  0  0  0
  4 20  1  0  0  0  0
  5 16  1  0  0  0  0
  6 23  1  0  0  0  0
  7 18  1  0  0  0  0
  7 14  1  0  0  0  0
  8 11  1  0  0  0  0
  8  5  1  0  0  0  0
  9 18  1  0  0  0  0
 10 18  1  0  0  0  0
 11 13  1  0  0  0  0
 11  5  1  0  0  0  0
 12 15  1  0  0  0  0
 13 21  1  0  0  0  0
 14 27  1  0  0  0  0
 15 14  1  0  0  0  0
 16  9  1  0  0  0  0
 16  4  1  0  0  0  0
 17 12  2  0  0  0  0
 19 22  2  0  0  0  0
 20 24  2  0  0  0  0
 21  2  1  0  0  0  0
 21 43  1  0  0  0  0
 22 12  1  0  0  0  0
 23 26  2  0  0  0  0
 23 19  1  0  0  0  0
 25  1  1  0  0  0  0
 25  8  1  0  0  0  0
 26 17  1  0  0  0  0
 29 28  1  0  0  0  0
 29 33  1  0  0  0  0
 30 33  1  0  0  0  0
 31 34  1  0  0  0  0
 32 31  1  0  0  0  0
 32 35  1  0  0  0  0
 34 29  1  0  0  0  0
 35 15  1  0  0  0  0
 35 30  1  0  0  0  0
 36 25  1  0  0  0  0
 37 36  1  0  0  0  0
 38 37  1  0  0  0  0
 39 40  1  0  0  0  0
 39 38  1  0  0  0  0
 40 41  1  0  0  0  0
 42 40  1  0  0  0  0
 44 47  1  0  0  0  0
 45 47  2  0  0  0  0
 47 43  1  0  0  0  0
 47 46  1  0  0  0  0
M  END
>  <MODEL>
9

>  <REMARK>
 VINA RESULT:      -4.6      3.218      6.201
  Name = 
  8 active torsions:
  status: ('A' for Active; 'I' for Inactive)
    1  A    between atoms: C_3  and  N_11
    2  A    between atoms: C_3  and  C_34
    3  A    between atoms: N_11  and  C_24
    4  A    between atoms: N_20  and  C_34
    5  A    between atoms: C_21  and  C_46
    6  A    between atoms: C_24  and  C_43
    7  A    between atoms: O_36  and  C_38
    8  A    between atoms: O_36  and  P_47
                            x       y       z     vdW  Elec       q    Type
                         _______ _______ _______ _____ _____    ______ ____

>  <TORSDO>
F 8

$$$$
