=
 OpenBabel11072409153D

 39 45  0  0  1  0  0  0  0  0999 V2000
  191.4150  176.0050  145.7970 C   0  0  0  0  0  3  0  0  0  0  0  0
  192.3660  177.0040  147.7280 N   0  0  0  0  0  0  0  0  0  0  0  0
  190.9080  176.9540  147.8450 C   0  0  0  0  0  3  0  0  0  0  0  0
  192.6840  176.5200  146.3810 C   0  0  1  0  0  3  0  0  0  0  0  0
  190.4180  176.2660  146.6210 C   0  0  0  0  0  0  0  0  0  0  0  0
  186.7840  177.1670  146.0450 C   0  0  0  0  0  2  0  0  0  0  0  0
  188.9770  175.9040  146.3450 C   0  0  1  0  0  0  0  0  0  0  0  0
  185.2090  178.3310  141.7690 C   0  0  2  0  0  3  0  0  0  0  0  0
  188.5450  176.7250  142.5810 C   0  0  0  0  0  2  0  0  0  0  0  0
  187.5840  177.6370  141.8350 C   0  0  0  0  0  2  0  0  0  0  0  0
  188.0650  177.0320  146.8690 C   0  0  0  0  0  2  0  0  0  0  0  0
  184.1610  178.2970  142.8500 C   0  0  0  0  0  2  0  0  0  0  0  0
  187.0850  177.5140  144.5780 C   0  0  1  0  0  3  0  0  0  0  0  0
  184.7540  177.8560  144.0450 O   0  0  0  0  0  0  0  0  0  0  0  0
  188.4400  176.9320  144.0930 C   0  0  1  0  0  3  0  0  0  0  0  0
  188.7980  175.6470  144.8360 C   0  0  0  0  0  2  0  0  0  0  0  0
  185.8940  177.1050  143.6910 C   0  0  1  0  0  3  0  0  0  0  0  0
  188.6560  174.7250  147.0250 O   0  0  0  0  0  1  0  0  0  0  0  0
  184.6300  178.0040  140.5410 O   0  0  0  0  0  1  0  0  0  0  0  0
  186.1510  177.2560  142.1890 C   0  0  1  0  0  3  0  0  0  0  0  0
  193.7240  175.4070  146.4580 C   0  0  0  0  0  2  0  0  0  0  0  0
  194.4970  175.1840  145.1800 C   0  0  2  0  0  3  0  0  0  0  0  0
  197.2110  176.9020  143.0840 C   0  0  0  0  0  1  0  0  0  0  0  0
  195.9950  176.0320  143.3220 C   0  0  2  0  0  3  0  0  0  0  0  0
  194.3770  174.0280  144.4740 C   0  0  0  0  0  0  0  0  0  0  0  0
  195.5010  176.2370  144.7510 C   0  0  0  0  0  2  0  0  0  0  0  0
  195.1020  173.8690  143.1610 C   0  0  0  0  0  2  0  0  0  0  0  0
  196.3460  174.6320  143.1340 N   0  0  0  0  0  2  0  0  0  0  0  0
  193.4820  172.9570  144.8290 N   0  0  0  0  0  0  0  0  0  0  0  0
  193.2300  171.8130  144.0510 N   0  0  0  0  0  2  0  0  0  0  0  0
  190.5270  173.6930  142.2140 C   0  0  0  0  0  2  0  0  0  0  0  0
  189.4990  172.1470  144.3920 C   0  0  0  0  0  2  0  0  0  0  0  0
  191.8950  171.9430  143.4860 C   0  0  2  0  0  3  0  0  0  0  0  0
  189.4910  172.6310  141.9720 C   0  0  0  0  0  0  0  0  0  0  0  0
  191.5180  173.4180  143.3690 C   0  0  2  0  0  3  0  0  0  0  0  0
  190.9770  172.5760  144.5250 C   0  0  1  0  0  3  0  0  0  0  0  0
  189.0270  171.9060  142.9910 C   0  0  0  0  0  3  0  0  0  0  0  0
  188.4820  173.4680  139.8610 C   0  0  0  0  0  1  0  0  0  0  0  0
  189.0360  172.4270  140.6620 O   0  0  0  0  0  0  0  0  0  0  0  0
  1  4  1  0  0  0  0
  1  5  2  0  0  0  0
  2  3  2  0  0  0  0
  4 21  1  1  0  0  0
  4  2  1  0  0  0  0
  5  3  1  0  0  0  0
  6 11  1  0  0  0  0
  7  5  1  0  0  0  0
  7 11  1  0  0  0  0
  7 18  1  1  0  0  0
  8 19  1  6  0  0  0
  8 20  1  0  0  0  0
  8 12  1  0  0  0  0
 10  9  1  0  0  0  0
 12 14  1  0  0  0  0
 13  6  1  1  0  0  0
 15  9  1  6  0  0  0
 15 13  1  0  0  0  0
 15 16  1  0  0  0  0
 16  7  1  0  0  0  0
 17 14  1  1  0  0  0
 17 13  1  0  0  0  0
 20 10  1  1  0  0  0
 20 17  1  0  0  0  0
 22 21  1  1  0  0  0
 24 23  1  1  0  0  0
 24 26  1  0  0  0  0
 25 29  2  0  0  0  0
 25 22  1  0  0  0  0
 26 22  1  0  0  0  0
 27 25  1  0  0  0  0
 28 27  1  0  0  0  0
 28 24  1  0  0  0  0
 30 29  1  0  0  0  0
 33 30  1  1  0  0  0
 33 36  1  0  0  0  0
 34 31  1  0  0  0  0
 34 37  2  0  0  0  0
 35 31  1  6  0  0  0
 35 33  1  0  0  0  0
 35 36  1  0  0  0  0
 36 32  1  6  0  0  0
 37 32  1  0  0  0  0
 38 39  1  0  0  0  0
 39 34  1  0  0  0  0
M  END
>  <MODEL>
1

>  <REMARK>
 VINA RESULT:      -8.3      0.000      0.000
  Name = 
  7 active torsions:
  status: ('A' for Active; 'I' for Inactive)
    1  A    between atoms: C_3  and  C_35
    2  A    between atoms: C_6  and  C_32
    3  A    between atoms: N_11  and  C_18
    4  A    between atoms: N_11  and  N_19
    5  A    between atoms: N_19  and  C_23
    6  A    between atoms: C_20  and  O_27
    7  A    between atoms: C_32  and  C_34
                            x       y       z     vdW  Elec       q    Type
                         _______ _______ _______ _____ _____    ______ ____

>  <TORSDO>
F 7

$$$$
=
 OpenBabel11072409153D

 39 45  0  0  1  0  0  0  0  0999 V2000
  190.2250  176.1790  142.7040 C   0  0  0  0  0  3  0  0  0  0  0  0
  188.8540  178.0840  142.3610 N   0  0  0  0  0  0  0  0  0  0  0  0
  188.1580  176.8710  141.9310 C   0  0  0  0  0  3  0  0  0  0  0  0
  190.2090  177.6670  142.7340 C   0  0  1  0  0  3  0  0  0  0  0  0
  189.0720  175.7390  142.2370 C   0  0  0  0  0  0  0  0  0  0  0  0
  189.6140  172.3550  140.6250 C   0  0  0  0  0  2  0  0  0  0  0  0
  188.7380  174.2770  142.0500 C   0  0  1  0  0  0  0  0  0  0  0  0
  192.8080  169.3380  142.3040 C   0  0  2  0  0  3  0  0  0  0  0  0
  191.5210  172.4540  144.0380 C   0  0  0  0  0  2  0  0  0  0  0  0
  192.5500  171.4080  143.6370 C   0  0  0  0  0  2  0  0  0  0  0  0
  189.2090  173.8290  140.6510 C   0  0  0  0  0  2  0  0  0  0  0  0
  192.0060  168.8350  141.1340 C   0  0  0  0  0  2  0  0  0  0  0  0
  190.7880  172.0710  141.5770 C   0  0  1  0  0  3  0  0  0  0  0  0
  191.0410  169.8000  140.7950 O   0  0  0  0  0  0  0  0  0  0  0  0
  190.7940  173.0100  142.8130 C   0  0  1  0  0  3  0  0  0  0  0  0
  189.3820  173.4590  143.1850 C   0  0  0  0  0  2  0  0  0  0  0  0
  190.8070  170.5760  141.9480 C   0  0  1  0  0  3  0  0  0  0  0  0
  187.3530  174.1030  142.1250 O   0  0  0  0  0  1  0  0  0  0  0  0
  193.1780  168.2670  143.1180 O   0  0  0  0  0  1  0  0  0  0  0  0
  191.8360  170.2100  143.0210 C   0  0  1  0  0  3  0  0  0  0  0  0
  190.5460  178.1750  144.1320 C   0  0  0  0  0  2  0  0  0  0  0  0
  191.0120  177.1050  145.0910 C   0  0  0  0  0  0  0  0  0  0  0  0
  194.2300  175.2390  146.0280 C   0  0  0  0  0  1  0  0  0  0  0  0
  192.7360  175.4130  145.8510 C   0  0  2  0  0  3  0  0  0  0  0  0
  190.1830  176.5980  146.0420 C   0  0  0  0  0  0  0  0  0  0  0  0
  192.4670  176.6800  145.0450 C   0  0  0  0  0  2  0  0  0  0  0  0
  190.6550  175.4750  146.9320 C   0  0  0  0  0  2  0  0  0  0  0  0
  192.0960  175.5300  147.1540 N   0  0  0  0  0  2  0  0  0  0  0  0
  188.7990  176.9730  146.1880 N   0  0  0  0  0  2  0  0  0  0  0  0
  187.7000  176.1120  146.0300 N   0  0  0  0  0  2  0  0  0  0  0  0
  185.9510  179.0200  144.3870 C   0  0  0  0  0  2  0  0  0  0  0  0
  185.0280  178.5520  147.0560 C   0  0  0  0  0  2  0  0  0  0  0  0
  186.5300  176.9300  145.7460 C   0  0  2  0  0  3  0  0  0  0  0  0
  184.5000  178.7250  144.6510 C   0  0  0  0  0  0  0  0  0  0  0  0
  186.9620  178.3360  145.3370 C   0  0  2  0  0  3  0  0  0  0  0  0
  186.4640  178.0680  146.7580 C   0  0  1  0  0  3  0  0  0  0  0  0
  184.0810  178.4960  145.8960 C   0  0  0  0  0  3  0  0  0  0  0  0
  183.9870  178.2310  142.2700 C   0  0  0  0  0  1  0  0  0  0  0  0
  183.6150  178.6980  143.5640 O   0  0  0  0  0  0  0  0  0  0  0  0
  1  4  1  0  0  0  0
  2  4  1  0  0  0  0
  3  5  1  0  0  0  0
  3  2  2  0  0  0  0
  4 21  1  1  0  0  0
  5  1  2  0  0  0  0
  6 11  1  0  0  0  0
  7 18  1  1  0  0  0
  7  5  1  0  0  0  0
  7 16  1  0  0  0  0
  8 20  1  0  0  0  0
  8 19  1  1  0  0  0
 10  9  1  0  0  0  0
 11  7  1  0  0  0  0
 12  8  1  0  0  0  0
 13  6  1  1  0  0  0
 13 17  1  0  0  0  0
 13 15  1  0  0  0  0
 14 12  1  0  0  0  0
 15 16  1  1  0  0  0
 15  9  1  0  0  0  0
 17 14  1  6  0  0  0
 17 20  1  0  0  0  0
 20 10  1  6  0  0  0
 21 22  1  0  0  0  0
 22 25  2  0  0  0  0
 24 23  1  1  0  0  0
 24 28  1  0  0  0  0
 25 29  1  0  0  0  0
 25 27  1  0  0  0  0
 26 22  1  0  0  0  0
 26 24  1  0  0  0  0
 27 28  1  0  0  0  0
 30 29  1  0  0  0  0
 31 34  1  0  0  0  0
 33 30  1  1  0  0  0
 33 36  1  0  0  0  0
 34 37  2  0  0  0  0
 35 31  1  6  0  0  0
 35 33  1  0  0  0  0
 35 36  1  0  0  0  0
 36 32  1  6  0  0  0
 37 32  1  0  0  0  0
 38 39  1  0  0  0  0
 39 34  1  0  0  0  0
M  END
>  <MODEL>
2

>  <REMARK>
 VINA RESULT:      -8.2      2.480      7.239
  Name = 
  7 active torsions:
  status: ('A' for Active; 'I' for Inactive)
    1  A    between atoms: C_3  and  C_35
    2  A    between atoms: C_6  and  C_32
    3  A    between atoms: N_11  and  C_18
    4  A    between atoms: N_11  and  N_19
    5  A    between atoms: N_19  and  C_23
    6  A    between atoms: C_20  and  O_27
    7  A    between atoms: C_32  and  C_34
                            x       y       z     vdW  Elec       q    Type
                         _______ _______ _______ _____ _____    ______ ____

>  <TORSDO>
F 7

$$$$
=
 OpenBabel11072409153D

 39 45  0  0  1  0  0  0  0  0999 V2000
  192.1450  175.3520  144.0300 C   0  0  0  0  0  3  0  0  0  0  0  0
  194.1010  175.6600  145.3360 N   0  0  0  0  0  0  0  0  0  0  0  0
  193.4290  176.9400  145.1160 C   0  0  0  0  0  3  0  0  0  0  0  0
  193.3630  174.6700  144.5470 C   0  0  1  0  0  3  0  0  0  0  0  0
  192.1970  176.6330  144.3420 C   0  0  0  0  0  0  0  0  0  0  0  0
  188.8130  177.5620  142.9150 C   0  0  0  0  0  2  0  0  0  0  0  0
  191.1360  177.6390  143.9600 C   0  0  1  0  0  0  0  0  0  0  0  0
  184.9420  177.5010  145.5850 C   0  0  2  0  0  3  0  0  0  0  0  0
  188.5250  177.3210  146.8080 C   0  0  0  0  0  2  0  0  0  0  0  0
  187.0380  177.0040  146.8050 C   0  0  0  0  0  2  0  0  0  0  0  0
  190.2480  177.0390  142.8510 C   0  0  0  0  0  2  0  0  0  0  0  0
  184.7340  177.9600  144.1660 C   0  0  0  0  0  2  0  0  0  0  0  0
  188.1330  177.1950  144.2440 C   0  0  1  0  0  3  0  0  0  0  0  0
  185.9790  178.0080  143.5160 O   0  0  0  0  0  0  0  0  0  0  0  0
  189.1390  177.1040  145.4240 C   0  0  1  0  0  3  0  0  0  0  0  0
  190.3340  178.0330  145.2160 C   0  0  0  0  0  2  0  0  0  0  0  0
  186.9630  178.1590  144.5140 C   0  0  1  0  0  3  0  0  0  0  0  0
  191.7480  178.7920  143.4600 O   0  0  0  0  0  1  0  0  0  0  0  0
  184.0170  178.1260  146.4230 O   0  0  0  0  0  1  0  0  0  0  0  0
  186.3160  177.9880  145.8910 C   0  0  1  0  0  3  0  0  0  0  0  0
  192.9770  173.4840  145.4260 C   0  0  0  0  0  2  0  0  0  0  0  0
  193.6780  172.1930  145.0770 C   0  0  0  0  0  0  0  0  0  0  0  0
  196.9890  170.3940  145.7950 C   0  0  0  0  0  1  0  0  0  0  0  0
  195.7670  170.7650  144.9810 C   0  0  2  0  0  3  0  0  0  0  0  0
  193.0510  171.2170  144.3670 C   0  0  0  0  0  0  0  0  0  0  0  0
  195.0700  171.9560  145.6310 C   0  0  0  0  0  2  0  0  0  0  0  0
  193.8060  169.9740  143.9680 C   0  0  0  0  0  2  0  0  0  0  0  0
  194.8470  169.6380  144.9340 N   0  0  0  0  0  2  0  0  0  0  0  0
  191.7170  171.3370  143.8380 N   0  0  0  0  0  2  0  0  0  0  0  0
  191.2400  170.7030  142.6770 N   0  0  0  0  0  2  0  0  0  0  0  0
  190.3170  173.5070  140.3310 C   0  0  0  0  0  2  0  0  0  0  0  0
  188.8120  173.5750  142.7650 C   0  0  0  0  0  2  0  0  0  0  0  0
  190.2880  171.6010  142.0390 C   0  0  2  0  0  3  0  0  0  0  0  0
  188.8160  173.4330  140.3010 C   0  0  0  0  0  0  0  0  0  0  0  0
  191.0000  172.8640  141.5610 C   0  0  2  0  0  3  0  0  0  0  0  0
  190.1890  172.8830  142.8580 C   0  0  1  0  0  3  0  0  0  0  0  0
  188.1230  173.4520  141.4400 C   0  0  0  0  0  3  0  0  0  0  0  0
  188.8840  173.2560  137.8230 C   0  0  0  0  0  1  0  0  0  0  0  0
  188.1760  173.3420  139.0570 O   0  0  0  0  0  0  0  0  0  0  0  0
  1  5  2  0  0  0  0
  1  4  1  0  0  0  0
  3  2  2  0  0  0  0
  4  2  1  0  0  0  0
  4 21  1  1  0  0  0
  5  3  1  0  0  0  0
  7 18  1  6  0  0  0
  7  5  1  0  0  0  0
  7 16  1  0  0  0  0
  8 20  1  0  0  0  0
  8 19  1  1  0  0  0
 10  9  1  0  0  0  0
 11  6  1  0  0  0  0
 11  7  1  0  0  0  0
 12  8  1  0  0  0  0
 13  6  1  6  0  0  0
 13 17  1  0  0  0  0
 13 15  1  0  0  0  0
 14 12  1  0  0  0  0
 15 16  1  6  0  0  0
 15  9  1  0  0  0  0
 17 14  1  6  0  0  0
 17 20  1  0  0  0  0
 20 10  1  1  0  0  0
 22 21  1  0  0  0  0
 22 26  1  0  0  0  0
 24 26  1  0  0  0  0
 24 23  1  1  0  0  0
 25 22  2  0  0  0  0
 27 25  1  0  0  0  0
 27 28  1  0  0  0  0
 28 24  1  0  0  0  0
 29 25  1  0  0  0  0
 30 29  1  0  0  0  0
 33 30  1  1  0  0  0
 33 36  1  0  0  0  0
 34 31  1  0  0  0  0
 34 37  2  0  0  0  0
 35 31  1  6  0  0  0
 35 33  1  0  0  0  0
 35 36  1  0  0  0  0
 36 32  1  6  0  0  0
 37 32  1  0  0  0  0
 38 39  1  0  0  0  0
 39 34  1  0  0  0  0
M  END
>  <MODEL>
3

>  <REMARK>
 VINA RESULT:      -8.0      2.203      3.520
  Name = 
  7 active torsions:
  status: ('A' for Active; 'I' for Inactive)
    1  A    between atoms: C_3  and  C_35
    2  A    between atoms: C_6  and  C_32
    3  A    between atoms: N_11  and  C_18
    4  A    between atoms: N_11  and  N_19
    5  A    between atoms: N_19  and  C_23
    6  A    between atoms: C_20  and  O_27
    7  A    between atoms: C_32  and  C_34
                            x       y       z     vdW  Elec       q    Type
                         _______ _______ _______ _____ _____    ______ ____

>  <TORSDO>
F 7

$$$$
=
 OpenBabel11072409153D

 39 45  0  0  1  0  0  0  0  0999 V2000
  189.8590  174.7660  141.6560 C   0  0  0  0  0  3  0  0  0  0  0  0
  188.0260  173.2780  141.4270 N   0  0  0  0  0  0  0  0  0  0  0  0
  189.2780  172.6000  141.0900 C   0  0  0  0  0  3  0  0  0  0  0  0
  188.3730  174.6820  141.6650 C   0  0  1  0  0  3  0  0  0  0  0  0
  190.3610  173.5930  141.3170 C   0  0  0  0  0  0  0  0  0  0  0  0
  194.0040  174.5690  141.6700 C   0  0  0  0  0  2  0  0  0  0  0  0
  191.8400  173.3130  141.1870 C   0  0  1  0  0  0  0  0  0  0  0  0
  196.3000  173.9910  145.7340 C   0  0  2  0  0  3  0  0  0  0  0  0
  192.9310  172.5140  144.8200 C   0  0  0  0  0  2  0  0  0  0  0  0
  193.9790  173.1280  145.7340 C   0  0  0  0  0  2  0  0  0  0  0  0
  192.5980  174.6510  141.0740 C   0  0  0  0  0  2  0  0  0  0  0  0
  197.1300  174.5340  144.6020 C   0  0  0  0  0  2  0  0  0  0  0  0
  193.9670  174.2300  143.1690 C   0  0  1  0  0  3  0  0  0  0  0  0
  196.3430  174.5740  143.4380 O   0  0  0  0  0  0  0  0  0  0  0  0
  192.7470  173.3490  143.5520 C   0  0  1  0  0  3  0  0  0  0  0  0
  192.3040  172.4650  142.3870 C   0  0  0  0  0  2  0  0  0  0  0  0
  195.3150  173.6220  143.5990 C   0  0  1  0  0  3  0  0  0  0  0  0
  192.0720  172.5750  140.0220 O   0  0  0  0  0  1  0  0  0  0  0  0
  197.1070  173.2450  146.5950 O   0  0  0  0  0  1  0  0  0  0  0  0
  195.3350  173.0960  145.0370 C   0  0  1  0  0  3  0  0  0  0  0  0
  187.8220  175.1350  143.0130 C   0  0  0  0  0  2  0  0  0  0  0  0
  187.0790  176.4490  142.9740 C   0  0  0  0  0  0  0  0  0  0  0  0
  184.8970  178.4880  140.5660 C   0  0  0  0  0  1  0  0  0  0  0  0
  185.8860  178.2800  141.6950 C   0  0  2  0  0  3  0  0  0  0  0  0
  186.9780  177.2380  144.0770 C   0  0  0  0  0  0  0  0  0  0  0  0
  186.3450  176.8260  141.7000 C   0  0  0  0  0  2  0  0  0  0  0  0
  186.2970  178.5800  143.9840 C   0  0  0  0  0  2  0  0  0  0  0  0
  185.2490  178.5860  142.9680 N   0  0  0  0  0  2  0  0  0  0  0  0
  187.6050  176.9390  145.3400 N   0  0  0  0  0  2  0  0  0  0  0  0
  188.3530  177.8450  146.1130 N   0  0  0  0  0  2  0  0  0  0  0  0
  191.7530  176.4800  145.2210 C   0  0  0  0  0  2  0  0  0  0  0  0
  190.4050  174.8750  147.1720 C   0  0  0  0  0  2  0  0  0  0  0  0
  189.6220  177.2110  146.4370 C   0  0  2  0  0  3  0  0  0  0  0  0
  192.3750  176.2350  146.5680 C   0  0  0  0  0  0  0  0  0  0  0  0
  190.2080  176.5460  145.1940 C   0  0  2  0  0  3  0  0  0  0  0  0
  189.4860  175.7040  146.2470 C   0  0  1  0  0  3  0  0  0  0  0  0
  191.7340  175.4970  147.4760 C   0  0  0  0  0  3  0  0  0  0  0  0
  194.5420  177.1880  145.8150 C   0  0  0  0  0  1  0  0  0  0  0  0
  193.6290  176.7990  146.8370 O   0  0  0  0  0  0  0  0  0  0  0  0
  1  4  1  0  0  0  0
  2  4  1  0  0  0  0
  3  5  1  0  0  0  0
  3  2  2  0  0  0  0
  4 21  1  1  0  0  0
  5  1  2  0  0  0  0
  7 18  1  6  0  0  0
  7  5  1  0  0  0  0
  7 16  1  0  0  0  0
  8 19  1  1  0  0  0
  9 10  1  0  0  0  0
 11  7  1  0  0  0  0
 11  6  1  0  0  0  0
 12  8  1  0  0  0  0
 13  6  1  6  0  0  0
 13 15  1  0  0  0  0
 13 17  1  0  0  0  0
 14 12  1  0  0  0  0
 15 16  1  6  0  0  0
 15  9  1  0  0  0  0
 17 14  1  1  0  0  0
 17 20  1  0  0  0  0
 20 10  1  1  0  0  0
 20  8  1  0  0  0  0
 22 21  1  0  0  0  0
 22 25  2  0  0  0  0
 24 23  1  6  0  0  0
 24 26  1  0  0  0  0
 24 28  1  0  0  0  0
 25 29  1  0  0  0  0
 26 22  1  0  0  0  0
 27 25  1  0  0  0  0
 28 27  1  0  0  0  0
 29 30  1  0  0  0  0
 31 34  1  0  0  0  0
 32 37  1  0  0  0  0
 33 30  1  6  0  0  0
 34 39  1  0  0  0  0
 34 37  2  0  0  0  0
 35 31  1  1  0  0  0
 35 36  1  0  0  0  0
 35 33  1  0  0  0  0
 36 33  1  0  0  0  0
 36 32  1  1  0  0  0
 38 39  1  0  0  0  0
M  END
>  <MODEL>
4

>  <REMARK>
 VINA RESULT:      -8.0      3.445      8.596
  Name = 
  7 active torsions:
  status: ('A' for Active; 'I' for Inactive)
    1  A    between atoms: C_3  and  C_35
    2  A    between atoms: C_6  and  C_32
    3  A    between atoms: N_11  and  C_18
    4  A    between atoms: N_11  and  N_19
    5  A    between atoms: N_19  and  C_23
    6  A    between atoms: C_20  and  O_27
    7  A    between atoms: C_32  and  C_34
                            x       y       z     vdW  Elec       q    Type
                         _______ _______ _______ _____ _____    ______ ____

>  <TORSDO>
F 7

$$$$
=
 OpenBabel11072409153D

 39 45  0  0  1  0  0  0  0  0999 V2000
  191.3370  176.0730  145.0070 C   0  0  0  0  0  3  0  0  0  0  0  0
  193.1750  175.3640  146.3290 N   0  0  0  0  0  0  0  0  0  0  0  0
  191.9450  175.3580  147.1210 C   0  0  0  0  0  3  0  0  0  0  0  0
  192.8190  175.9350  145.0260 C   0  0  1  0  0  3  0  0  0  0  0  0
  190.8540  175.7600  146.1940 C   0  0  0  0  0  0  0  0  0  0  0  0
  187.5930  177.6040  146.7530 C   0  0  0  0  0  2  0  0  0  0  0  0
  189.3860  175.8050  146.5470 C   0  0  1  0  0  0  0  0  0  0  0  0
  184.7000  178.5800  143.1750 C   0  0  2  0  0  3  0  0  0  0  0  0
  187.6410  176.1890  143.1070 C   0  0  0  0  0  2  0  0  0  0  0  0
  186.6820  177.2320  142.5550 C   0  0  0  0  0  2  0  0  0  0  0  0
  189.0360  177.2130  147.0720 C   0  0  0  0  0  2  0  0  0  0  0  0
  184.2070  179.0060  144.5320 C   0  0  0  0  0  2  0  0  0  0  0  0
  187.3350  177.6420  145.2380 C   0  0  1  0  0  3  0  0  0  0  0  0
  185.1250  178.5790  145.5060 O   0  0  0  0  0  0  0  0  0  0  0  0
  188.2120  176.6240  144.4580 C   0  0  1  0  0  3  0  0  0  0  0  0
  188.5540  175.4060  145.3130 C   0  0  0  0  0  2  0  0  0  0  0  0
  185.8280  177.4840  144.9620 C   0  0  1  0  0  3  0  0  0  0  0  0
  189.1230  174.8790  147.5620 O   0  0  0  0  0  1  0  0  0  0  0  0
  183.6150  178.2730  142.3540 O   0  0  0  0  0  1  0  0  0  0  0  0
  185.4740  177.3440  143.4790 C   0  0  1  0  0  3  0  0  0  0  0  0
  193.2830  175.0090  143.9060 C   0  0  0  0  0  2  0  0  0  0  0  0
  193.8600  173.6960  144.3800 C   0  0  0  0  0  0  0  0  0  0  0  0
  197.1840  172.2740  145.6630 C   0  0  0  0  0  1  0  0  0  0  0  0
  195.8430  172.2310  144.9610 C   0  0  2  0  0  3  0  0  0  0  0  0
  193.0770  172.5970  144.5450 C   0  0  0  0  0  0  0  0  0  0  0  0
  195.3240  173.6540  144.7790 C   0  0  0  0  0  2  0  0  0  0  0  0
  193.6980  171.2830  144.9450 C   0  0  0  0  0  2  0  0  0  0  0  0
  194.8920  171.4730  145.7620 N   0  0  0  0  0  2  0  0  0  0  0  0
  191.6710  172.5570  144.2340 N   0  0  0  0  0  2  0  0  0  0  0  0
  191.0110  171.5020  143.5790 N   0  0  0  0  0  2  0  0  0  0  0  0
  190.0790  174.3120  141.2430 C   0  0  0  0  0  2  0  0  0  0  0  0
  187.8380  172.6680  141.9280 C   0  0  0  0  0  2  0  0  0  0  0  0
  190.2810  172.0650  142.4530 C   0  0  2  0  0  3  0  0  0  0  0  0
  189.2970  173.6050  140.1710 C   0  0  0  0  0  0  0  0  0  0  0  0
  190.1730  173.5800  142.6030 C   0  0  2  0  0  3  0  0  0  0  0  0
  188.9850  172.6860  142.9620 C   0  0  1  0  0  3  0  0  0  0  0  0
  188.2610  172.8300  140.5000 C   0  0  0  0  0  3  0  0  0  0  0  0
  188.9340  173.2710  137.7360 C   0  0  0  0  0  1  0  0  0  0  0  0
  189.6830  173.7810  138.8350 O   0  0  0  0  0  0  0  0  0  0  0  0
  1  4  1  0  0  0  0
  1  5  2  0  0  0  0
  2  3  2  0  0  0  0
  4 21  1  6  0  0  0
  4  2  1  0  0  0  0
  5  7  1  0  0  0  0
  5  3  1  0  0  0  0
  6 11  1  0  0  0  0
  7 11  1  0  0  0  0
  7 18  1  1  0  0  0
  8 19  1  6  0  0  0
  8 20  1  0  0  0  0
  8 12  1  0  0  0  0
 10  9  1  0  0  0  0
 12 14  1  0  0  0  0
 13  6  1  1  0  0  0
 15  9  1  6  0  0  0
 15 13  1  0  0  0  0
 15 16  1  0  0  0  0
 16  7  1  0  0  0  0
 17 13  1  0  0  0  0
 17 14  1  6  0  0  0
 20 10  1  6  0  0  0
 20 17  1  0  0  0  0
 21 22  1  0  0  0  0
 22 25  2  0  0  0  0
 22 26  1  0  0  0  0
 24 23  1  1  0  0  0
 24 28  1  0  0  0  0
 25 27  1  0  0  0  0
 26 24  1  0  0  0  0
 27 28  1  0  0  0  0
 29 25  1  0  0  0  0
 30 29  1  0  0  0  0
 33 35  1  0  0  0  0
 33 36  1  0  0  0  0
 33 30  1  1  0  0  0
 34 37  2  0  0  0  0
 34 31  1  0  0  0  0
 35 31  1  6  0  0  0
 35 36  1  0  0  0  0
 36 32  1  6  0  0  0
 37 32  1  0  0  0  0
 38 39  1  0  0  0  0
 39 34  1  0  0  0  0
M  END
>  <MODEL>
5

>  <REMARK>
 VINA RESULT:      -7.9      1.739      2.194
  Name = 
  7 active torsions:
  status: ('A' for Active; 'I' for Inactive)
    1  A    between atoms: C_3  and  C_35
    2  A    between atoms: C_6  and  C_32
    3  A    between atoms: N_11  and  C_18
    4  A    between atoms: N_11  and  N_19
    5  A    between atoms: N_19  and  C_23
    6  A    between atoms: C_20  and  O_27
    7  A    between atoms: C_32  and  C_34
                            x       y       z     vdW  Elec       q    Type
                         _______ _______ _______ _____ _____    ______ ____

>  <TORSDO>
F 7

$$$$
=
 OpenBabel11072409153D

 39 45  0  0  1  0  0  0  0  0999 V2000
  191.6850  175.7780  145.8740 C   0  0  0  0  0  3  0  0  0  0  0  0
  190.6000  177.5900  144.7920 N   0  0  0  0  0  0  0  0  0  0  0  0
  191.9500  177.4100  144.2560 C   0  0  0  0  0  3  0  0  0  0  0  0
  190.4730  176.6420  145.9030 C   0  0  1  0  0  3  0  0  0  0  0  0
  192.5180  176.2260  144.9540 C   0  0  0  0  0  0  0  0  0  0  0  0
  195.5920  174.2510  145.9520 C   0  0  0  0  0  2  0  0  0  0  0  0
  193.8640  175.6060  144.6590 C   0  0  1  0  0  0  0  0  0  0  0  0
  195.6350  169.5520  145.7700 C   0  0  2  0  0  3  0  0  0  0  0  0
  193.0450  171.8430  144.2180 C   0  0  0  0  0  2  0  0  0  0  0  0
  193.5580  170.5930  144.9170 C   0  0  0  0  0  2  0  0  0  0  0  0
  194.6490  175.4540  145.9780 C   0  0  0  0  0  2  0  0  0  0  0  0
  196.9310  170.1870  146.1970 C   0  0  0  0  0  2  0  0  0  0  0  0
  194.8270  172.9310  145.7610 C   0  0  1  0  0  3  0  0  0  0  0  0
  196.7990  171.5850  146.1250 O   0  0  0  0  0  0  0  0  0  0  0  0
  193.5310  173.1090  144.9250 C   0  0  1  0  0  3  0  0  0  0  0  0
  193.6560  174.2630  143.9320 C   0  0  0  0  0  2  0  0  0  0  0  0
  195.7740  171.8570  145.1950 C   0  0  1  0  0  3  0  0  0  0  0  0
  194.5880  176.4480  143.8100 O   0  0  0  0  0  1  0  0  0  0  0  0
  195.8950  168.3500  145.1100 O   0  0  0  0  0  1  0  0  0  0  0  0
  195.0780  170.5480  144.8130 C   0  0  1  0  0  3  0  0  0  0  0  0
  189.2140  175.7980  145.7260 C   0  0  0  0  0  2  0  0  0  0  0  0
  187.9710  176.5920  145.3980 C   0  0  0  0  0  0  0  0  0  0  0  0
  185.5240  179.0020  147.1060 C   0  0  0  0  0  1  0  0  0  0  0  0
  185.9490  177.9350  146.1190 C   0  0  2  0  0  3  0  0  0  0  0  0
  187.4840  176.6500  144.1310 C   0  0  0  0  0  0  0  0  0  0  0  0
  187.3340  177.4200  146.4980 C   0  0  0  0  0  2  0  0  0  0  0  0
  186.1970  177.3870  143.8520 C   0  0  0  0  0  2  0  0  0  0  0  0
  185.9980  178.4980  144.7770 N   0  0  0  0  0  2  0  0  0  0  0  0
  188.0480  175.9320  143.0170 N   0  0  0  0  0  2  0  0  0  0  0  0
  187.4720  174.8120  142.3920 N   0  0  0  0  0  2  0  0  0  0  0  0
  189.9040  171.9700  142.8650 C   0  0  0  0  0  2  0  0  0  0  0  0
  191.0660  174.1870  141.4770 C   0  0  0  0  0  2  0  0  0  0  0  0
  188.5520  173.9420  141.9510 C   0  0  2  0  0  3  0  0  0  0  0  0
  190.4760  171.7910  141.4860 C   0  0  0  0  0  0  0  0  0  0  0  0
  189.2750  173.3510  143.1600 C   0  0  2  0  0  3  0  0  0  0  0  0
  189.8820  174.5350  142.4050 C   0  0  1  0  0  3  0  0  0  0  0  0
  191.0040  172.8320  140.8410 C   0  0  0  0  0  3  0  0  0  0  0  0
  190.8210  169.3330  141.6010 C   0  0  0  0  0  1  0  0  0  0  0  0
  190.4360  170.5150  140.9060 O   0  0  0  0  0  0  0  0  0  0  0  0
  1  4  1  0  0  0  0
  2  4  1  0  0  0  0
  3  2  2  0  0  0  0
  3  5  1  0  0  0  0
  4 21  1  6  0  0  0
  5  1  2  0  0  0  0
  6 11  1  0  0  0  0
  7 18  1  6  0  0  0
  7  5  1  0  0  0  0
  7 11  1  0  0  0  0
  8 19  1  6  0  0  0
  8 12  1  0  0  0  0
  9 10  1  0  0  0  0
  9 15  1  0  0  0  0
 13  6  1  6  0  0  0
 14 12  1  0  0  0  0
 15 16  1  6  0  0  0
 15 13  1  0  0  0  0
 16  7  1  0  0  0  0
 17 13  1  0  0  0  0
 17 14  1  1  0  0  0
 20 10  1  1  0  0  0
 20 17  1  0  0  0  0
 20  8  1  0  0  0  0
 22 21  1  0  0  0  0
 22 26  1  0  0  0  0
 24 26  1  0  0  0  0
 24 23  1  1  0  0  0
 25 22  2  0  0  0  0
 27 25  1  0  0  0  0
 27 28  1  0  0  0  0
 28 24  1  0  0  0  0
 29 25  1  0  0  0  0
 30 29  1  0  0  0  0
 33 30  1  1  0  0  0
 33 36  1  0  0  0  0
 33 35  1  0  0  0  0
 34 31  1  0  0  0  0
 35 31  1  6  0  0  0
 36 32  1  6  0  0  0
 36 35  1  0  0  0  0
 37 32  1  0  0  0  0
 37 34  2  0  0  0  0
 39 34  1  0  0  0  0
 39 38  1  0  0  0  0
M  END
>  <MODEL>
6

>  <REMARK>
 VINA RESULT:      -7.8      3.557      8.049
  Name = 
  7 active torsions:
  status: ('A' for Active; 'I' for Inactive)
    1  A    between atoms: C_3  and  C_35
    2  A    between atoms: C_6  and  C_32
    3  A    between atoms: N_11  and  C_18
    4  A    between atoms: N_11  and  N_19
    5  A    between atoms: N_19  and  C_23
    6  A    between atoms: C_20  and  O_27
    7  A    between atoms: C_32  and  C_34
                            x       y       z     vdW  Elec       q    Type
                         _______ _______ _______ _____ _____    ______ ____

>  <TORSDO>
F 7

$$$$
=
 OpenBabel11072409153D

 39 45  0  0  1  0  0  0  0  0999 V2000
  190.0670  176.3990  146.3110 C   0  0  0  0  0  3  0  0  0  0  0  0
  189.4620  177.9150  144.5900 N   0  0  0  0  0  0  0  0  0  0  0  0
  190.9130  177.7250  144.6150 C   0  0  0  0  0  3  0  0  0  0  0  0
  188.9340  177.1770  145.7410 C   0  0  1  0  0  3  0  0  0  0  0  0
  191.1800  176.7240  145.6820 C   0  0  0  0  0  0  0  0  0  0  0  0
  193.6830  173.8820  145.7640 C   0  0  0  0  0  2  0  0  0  0  0  0
  192.5370  176.1450  146.0100 C   0  0  1  0  0  0  0  0  0  0  0  0
  196.4050  172.9230  142.0490 C   0  0  2  0  0  3  0  0  0  0  0  0
  194.3340  176.0540  142.5770 C   0  0  0  0  0  2  0  0  0  0  0  0
  194.9720  174.9250  141.7830 C   0  0  0  0  0  2  0  0  0  0  0  0
  192.4060  174.6160  146.1720 C   0  0  0  0  0  2  0  0  0  0  0  0
  196.6450  172.0590  143.2590 C   0  0  0  0  0  2  0  0  0  0  0  0
  194.0290  174.1220  144.2840 C   0  0  1  0  0  3  0  0  0  0  0  0
  195.8280  172.5100  144.3100 O   0  0  0  0  0  0  0  0  0  0  0  0
  193.5610  175.5140  143.7810 C   0  0  1  0  0  3  0  0  0  0  0  0
  193.5390  176.5430  144.9090 C   0  0  0  0  0  2  0  0  0  0  0  0
  195.5300  173.8640  144.0530 C   0  0  1  0  0  3  0  0  0  0  0  0
  192.9900  176.6790  147.2200 O   0  0  0  0  0  1  0  0  0  0  0  0
  197.5900  173.0610  141.3260 O   0  0  0  0  0  1  0  0  0  0  0  0
  196.0190  174.2310  142.6480 C   0  0  1  0  0  3  0  0  0  0  0  0
  187.8170  176.2390  145.2910 C   0  0  0  0  0  2  0  0  0  0  0  0
  186.8450  176.8510  144.3120 C   0  0  0  0  0  0  0  0  0  0  0  0
  183.9660  179.3860  144.2690 C   0  0  0  0  0  1  0  0  0  0  0  0
  184.7390  178.1660  143.8120 C   0  0  2  0  0  3  0  0  0  0  0  0
  186.9320  176.6010  142.9780 C   0  0  0  0  0  0  0  0  0  0  0  0
  185.8260  177.8480  144.8330 C   0  0  0  0  0  2  0  0  0  0  0  0
  185.8980  177.1650  142.0370 C   0  0  0  0  0  2  0  0  0  0  0  0
  185.3570  178.4310  142.5210 N   0  0  0  0  0  2  0  0  0  0  0  0
  187.8930  175.7040  142.3890 N   0  0  0  0  0  2  0  0  0  0  0  0
  187.6420  174.3730  142.0120 N   0  0  0  0  0  2  0  0  0  0  0  0
  190.5900  172.7720  143.7330 C   0  0  0  0  0  2  0  0  0  0  0  0
  191.3400  174.1770  141.3550 C   0  0  0  0  0  2  0  0  0  0  0  0
  188.9110  173.6610  142.0170 C   0  0  2  0  0  3  0  0  0  0  0  0
  191.2790  172.0510  142.6070 C   0  0  0  0  0  0  0  0  0  0  0  0
  189.6600  173.9360  143.3190 C   0  0  2  0  0  3  0  0  0  0  0  0
  190.0490  174.6760  142.0380 C   0  0  1  0  0  3  0  0  0  0  0  0
  191.6130  172.7100  141.4970 C   0  0  0  0  0  3  0  0  0  0  0  0
  190.9850  169.6810  141.9200 C   0  0  0  0  0  1  0  0  0  0  0  0
  191.5530  170.6840  142.7570 O   0  0  0  0  0  0  0  0  0  0  0  0
  2  3  2  0  0  0  0
  2  4  1  0  0  0  0
  3  5  1  0  0  0  0
  4 21  1  6  0  0  0
  4  1  1  0  0  0  0
  5  7  1  0  0  0  0
  5  1  2  0  0  0  0
  6 11  1  0  0  0  0
  7 11  1  0  0  0  0
  7 18  1  1  0  0  0
  8 19  1  1  0  0  0
  8 20  1  0  0  0  0
  8 12  1  0  0  0  0
 10  9  1  0  0  0  0
 12 14  1  0  0  0  0
 13  6  1  1  0  0  0
 15  9  1  6  0  0  0
 15 13  1  0  0  0  0
 15 16  1  0  0  0  0
 16  7  1  0  0  0  0
 17 13  1  0  0  0  0
 17 14  1  6  0  0  0
 20 10  1  6  0  0  0
 20 17  1  0  0  0  0
 22 26  1  0  0  0  0
 22 21  1  0  0  0  0
 24 23  1  1  0  0  0
 24 26  1  0  0  0  0
 25 22  2  0  0  0  0
 27 28  1  0  0  0  0
 27 25  1  0  0  0  0
 28 24  1  0  0  0  0
 29 25  1  0  0  0  0
 30 29  1  0  0  0  0
 32 37  1  0  0  0  0
 33 30  1  1  0  0  0
 33 36  1  0  0  0  0
 33 35  1  0  0  0  0
 34 39  1  0  0  0  0
 34 31  1  0  0  0  0
 35 31  1  6  0  0  0
 36 32  1  6  0  0  0
 36 35  1  0  0  0  0
 37 34  2  0  0  0  0
 38 39  1  0  0  0  0
M  END
>  <MODEL>
7

>  <REMARK>
 VINA RESULT:      -7.8      3.387      7.636
  Name = 
  7 active torsions:
  status: ('A' for Active; 'I' for Inactive)
    1  A    between atoms: C_3  and  C_35
    2  A    between atoms: C_6  and  C_32
    3  A    between atoms: N_11  and  C_18
    4  A    between atoms: N_11  and  N_19
    5  A    between atoms: N_19  and  C_23
    6  A    between atoms: C_20  and  O_27
    7  A    between atoms: C_32  and  C_34
                            x       y       z     vdW  Elec       q    Type
                         _______ _______ _______ _____ _____    ______ ____

>  <TORSDO>
F 7

$$$$
=
 OpenBabel11072409153D

 39 45  0  0  1  0  0  0  0  0999 V2000
  191.8380  174.8850  146.7190 C   0  0  0  0  0  3  0  0  0  0  0  0
  190.2260  176.4160  147.5490 N   0  0  0  0  0  0  0  0  0  0  0  0
  191.4890  177.1030  147.2740 C   0  0  0  0  0  3  0  0  0  0  0  0
  190.4800  174.9900  147.3180 C   0  0  1  0  0  3  0  0  0  0  0  0
  192.4050  176.0760  146.7110 C   0  0  0  0  0  0  0  0  0  0  0  0
  195.7040  174.9590  145.2230 C   0  0  0  0  0  2  0  0  0  0  0  0
  193.7980  176.3450  146.1910 C   0  0  1  0  0  0  0  0  0  0  0  0
  196.2410  174.4640  140.5770 C   0  0  2  0  0  3  0  0  0  0  0  0
  193.3690  176.2000  142.3410 C   0  0  0  0  0  2  0  0  0  0  0  0
  194.0360  175.3550  141.2670 C   0  0  0  0  0  2  0  0  0  0  0  0
  194.6390  175.0590  146.3160 C   0  0  0  0  0  2  0  0  0  0  0  0
  197.4750  174.1970  141.3960 C   0  0  0  0  0  2  0  0  0  0  0  0
  195.0770  174.9190  143.8200 C   0  0  1  0  0  3  0  0  0  0  0  0
  197.1930  174.4640  142.7460 O   0  0  0  0  0  0  0  0  0  0  0  0
  193.7420  175.7070  143.7410 C   0  0  1  0  0  3  0  0  0  0  0  0
  193.7090  176.8600  144.7410 C   0  0  0  0  0  2  0  0  0  0  0  0
  196.1140  175.3710  142.7740 C   0  0  1  0  0  3  0  0  0  0  0  0
  194.3990  177.3420  146.9670 O   0  0  0  0  0  1  0  0  0  0  0  0
  196.6040  174.9560  139.3220 O   0  0  0  0  0  1  0  0  0  0  0  0
  195.5480  175.5260  141.3590 C   0  0  1  0  0  3  0  0  0  0  0  0
  189.4320  174.4210  146.3670 C   0  0  0  0  0  2  0  0  0  0  0  0
  189.9290  174.1810  144.9610 C   0  0  0  0  0  0  0  0  0  0  0  0
  191.4650  171.3640  142.8590 C   0  0  0  0  0  1  0  0  0  0  0  0
  191.2170  172.7990  143.2750 C   0  0  2  0  0  3  0  0  0  0  0  0
  189.7840  175.1220  143.9900 C   0  0  0  0  0  0  0  0  0  0  0  0
  190.5000  172.8170  144.6210 C   0  0  0  0  0  2  0  0  0  0  0  0
  190.3620  174.8810  142.6170 C   0  0  0  0  0  2  0  0  0  0  0  0
  190.3860  173.4620  142.2800 N   0  0  0  0  0  2  0  0  0  0  0  0
  189.2160  176.4270  144.2110 N   0  0  0  0  0  2  0  0  0  0  0  0
  188.3050  177.0740  143.3580 N   0  0  0  0  0  2  0  0  0  0  0  0
  185.4280  177.0920  145.7960 C   0  0  0  0  0  2  0  0  0  0  0  0
  185.1870  179.1310  143.8020 C   0  0  0  0  0  2  0  0  0  0  0  0
  187.3130  177.7400  144.1890 C   0  0  2  0  0  3  0  0  0  0  0  0
  185.3400  178.5400  146.1930 C   0  0  0  0  0  0  0  0  0  0  0  0
  186.1360  176.8030  144.4510 C   0  0  2  0  0  3  0  0  0  0  0  0
  186.0240  177.9000  143.3910 C   0  0  1  0  0  3  0  0  0  0  0  0
  185.2410  179.4850  145.2570 C   0  0  0  0  0  3  0  0  0  0  0  0
  186.5750  179.0850  148.2800 C   0  0  0  0  0  1  0  0  0  0  0  0
  185.3670  178.8610  147.5570 O   0  0  0  0  0  0  0  0  0  0  0  0
  1  4  1  0  0  0  0
  3  2  2  0  0  0  0
  4 21  1  6  0  0  0
  4  2  1  0  0  0  0
  5  1  2  0  0  0  0
  5  3  1  0  0  0  0
  6 11  1  0  0  0  0
  7 11  1  0  0  0  0
  7  5  1  0  0  0  0
  7 18  1  1  0  0  0
  8 19  1  6  0  0  0
  8 20  1  0  0  0  0
  8 12  1  0  0  0  0
 10  9  1  0  0  0  0
 12 14  1  0  0  0  0
 13  6  1  1  0  0  0
 15  9  1  6  0  0  0
 15 13  1  0  0  0  0
 15 16  1  0  0  0  0
 16  7  1  0  0  0  0
 17 14  1  6  0  0  0
 17 13  1  0  0  0  0
 20 10  1  1  0  0  0
 20 17  1  0  0  0  0
 22 21  1  0  0  0  0
 24 23  1  6  0  0  0
 24 26  1  0  0  0  0
 25 29  1  0  0  0  0
 25 22  2  0  0  0  0
 26 22  1  0  0  0  0
 27 25  1  0  0  0  0
 28 27  1  0  0  0  0
 28 24  1  0  0  0  0
 30 29  1  0  0  0  0
 31 34  1  0  0  0  0
 32 37  1  0  0  0  0
 33 30  1  6  0  0  0
 33 35  1  0  0  0  0
 34 39  1  0  0  0  0
 35 31  1  1  0  0  0
 36 32  1  1  0  0  0
 36 33  1  0  0  0  0
 36 35  1  0  0  0  0
 37 34  2  0  0  0  0
 39 38  1  0  0  0  0
M  END
>  <MODEL>
8

>  <REMARK>
 VINA RESULT:      -7.6      3.050      7.572
  Name = 
  7 active torsions:
  status: ('A' for Active; 'I' for Inactive)
    1  A    between atoms: C_3  and  C_35
    2  A    between atoms: C_6  and  C_32
    3  A    between atoms: N_11  and  C_18
    4  A    between atoms: N_11  and  N_19
    5  A    between atoms: N_19  and  C_23
    6  A    between atoms: C_20  and  O_27
    7  A    between atoms: C_32  and  C_34
                            x       y       z     vdW  Elec       q    Type
                         _______ _______ _______ _____ _____    ______ ____

>  <TORSDO>
F 7

$$$$
=
 OpenBabel11072409153D

 39 45  0  0  1  0  0  0  0  0999 V2000
  190.7110  175.0030  143.3220 C   0  0  0  0  0  3  0  0  0  0  0  0
  188.8600  176.0070  142.2290 N   0  0  0  0  0  0  0  0  0  0  0  0
  188.7190  174.5500  142.2370 C   0  0  0  0  0  3  0  0  0  0  0  0
  190.1780  176.2920  142.8030 C   0  0  1  0  0  3  0  0  0  0  0  0
  189.8900  174.0250  142.9870 C   0  0  0  0  0  0  0  0  0  0  0  0
  191.6270  170.6960  142.4890 C   0  0  0  0  0  2  0  0  0  0  0  0
  190.1220  172.5720  143.3310 C   0  0  1  0  0  0  0  0  0  0  0  0
  195.7440  169.7600  144.5620 C   0  0  2  0  0  3  0  0  0  0  0  0
  193.4180  172.6420  145.3700 C   0  0  0  0  0  2  0  0  0  0  0  0
  194.7560  171.9440  145.1800 C   0  0  0  0  0  2  0  0  0  0  0  0
  190.7020  171.8490  142.0980 C   0  0  0  0  0  2  0  0  0  0  0  0
  195.1670  168.6330  143.7470 C   0  0  0  0  0  2  0  0  0  0  0  0
  192.8380  171.1880  143.2990 C   0  0  1  0  0  3  0  0  0  0  0  0
  193.9060  169.0220  143.2610 O   0  0  0  0  0  0  0  0  0  0  0  0
  192.5150  172.4440  144.1510 C   0  0  1  0  0  3  0  0  0  0  0  0
  191.0450  172.4820  144.5620 C   0  0  0  0  0  2  0  0  0  0  0  0
  193.4190  170.0250  144.1240 C   0  0  1  0  0  3  0  0  0  0  0  0
  188.9030  171.9720  143.6610 O   0  0  0  0  0  1  0  0  0  0  0  0
  196.5000  169.2420  145.6140 O   0  0  0  0  0  1  0  0  0  0  0  0
  194.5290  170.4390  145.0940 C   0  0  1  0  0  3  0  0  0  0  0  0
  190.0470  177.3080  143.9330 C   0  0  0  0  0  2  0  0  0  0  0  0
  190.7640  176.9240  145.2050 C   0  0  0  0  0  0  0  0  0  0  0  0
  194.3270  176.2080  146.4320 C   0  0  0  0  0  1  0  0  0  0  0  0
  192.8190  176.0730  146.4160 C   0  0  2  0  0  3  0  0  0  0  0  0
  190.1070  176.8500  146.3930 C   0  0  0  0  0  0  0  0  0  0  0  0
  192.2680  176.7270  145.1530 C   0  0  0  0  0  2  0  0  0  0  0  0
  190.8370  176.3870  147.6290 C   0  0  0  0  0  2  0  0  0  0  0  0
  192.2540  176.7340  147.5840 N   0  0  0  0  0  2  0  0  0  0  0  0
  188.6900  177.0630  146.5440 N   0  0  0  0  0  2  0  0  0  0  0  0
  187.6820  176.2150  146.0530 N   0  0  0  0  0  2  0  0  0  0  0  0
  185.8860  179.1680  144.5440 C   0  0  0  0  0  2  0  0  0  0  0  0
  184.9740  178.5650  147.1890 C   0  0  0  0  0  2  0  0  0  0  0  0
  186.4990  177.0270  145.8070 C   0  0  2  0  0  3  0  0  0  0  0  0
  184.4400  178.8390  144.7950 C   0  0  0  0  0  0  0  0  0  0  0  0
  186.9080  178.4570  145.4610 C   0  0  2  0  0  3  0  0  0  0  0  0
  186.4160  178.1170  146.8700 C   0  0  1  0  0  3  0  0  0  0  0  0
  184.0260  178.5470  146.0290 C   0  0  0  0  0  3  0  0  0  0  0  0
  183.8330  178.1950  142.4730 C   0  0  0  0  0  1  0  0  0  0  0  0
  183.5540  178.8480  143.7090 O   0  0  0  0  0  0  0  0  0  0  0  0
  2  3  2  0  0  0  0
  2  4  1  0  0  0  0
  3  5  1  0  0  0  0
  4  1  1  0  0  0  0
  4 21  1  1  0  0  0
  5  1  2  0  0  0  0
  5  7  1  0  0  0  0
  7 18  1  1  0  0  0
  7 16  1  0  0  0  0
  8 20  1  0  0  0  0
  8 19  1  1  0  0  0
 10  9  1  0  0  0  0
 11  6  1  0  0  0  0
 11  7  1  0  0  0  0
 12  8  1  0  0  0  0
 13  6  1  1  0  0  0
 13 17  1  0  0  0  0
 13 15  1  0  0  0  0
 14 12  1  0  0  0  0
 15 16  1  1  0  0  0
 15  9  1  0  0  0  0
 17 14  1  6  0  0  0
 17 20  1  0  0  0  0
 20 10  1  6  0  0  0
 21 22  1  0  0  0  0
 22 25  2  0  0  0  0
 24 23  1  1  0  0  0
 24 28  1  0  0  0  0
 25 29  1  0  0  0  0
 25 27  1  0  0  0  0
 26 22  1  0  0  0  0
 26 24  1  0  0  0  0
 28 27  1  0  0  0  0
 30 29  1  0  0  0  0
 31 34  1  0  0  0  0
 33 30  1  1  0  0  0
 33 36  1  0  0  0  0
 34 37  2  0  0  0  0
 35 31  1  6  0  0  0
 35 33  1  0  0  0  0
 35 36  1  0  0  0  0
 36 32  1  6  0  0  0
 37 32  1  0  0  0  0
 38 39  1  0  0  0  0
 39 34  1  0  0  0  0
M  END
>  <MODEL>
9

>  <REMARK>
 VINA RESULT:      -7.6      2.979      8.008
  Name = 
  7 active torsions:
  status: ('A' for Active; 'I' for Inactive)
    1  A    between atoms: C_3  and  C_35
    2  A    between atoms: C_6  and  C_32
    3  A    between atoms: N_11  and  C_18
    4  A    between atoms: N_11  and  N_19
    5  A    between atoms: N_19  and  C_23
    6  A    between atoms: C_20  and  O_27
    7  A    between atoms: C_32  and  C_34
                            x       y       z     vdW  Elec       q    Type
                         _______ _______ _______ _____ _____    ______ ____

>  <TORSDO>
F 7

$$$$
