=
 OpenBabel11072409013D

 47 49  0  0  1  0  0  0  0  0999 V2000
  195.0140  175.3070  141.7970 C   0  0  0  0  0  2  0  0  0  0  0  0
  195.5250  175.9900  144.1970 C   0  0  1  0  0  3  0  0  0  0  0  0
  195.0140  174.8750  143.2560 C   0  0  1  0  0  3  0  0  0  0  0  0
  196.3500  175.0160  141.1850 C   0  0  0  0  0  3  0  0  0  0  0  0
  197.5250  175.3700  141.7220 C   0  0  0  0  0  3  0  0  0  0  0  0
  197.6670  176.1100  142.9460 N   0  0  0  0  0  2  0  0  0  0  0  0
  196.6070  176.8850  143.5810 C   0  0  0  0  0  2  0  0  0  0  0  0
  194.4080  176.8340  144.8230 C   0  0  0  0  0  2  0  0  0  0  0  0
  194.3010  176.6510  146.3340 C   0  0  0  0  0  2  0  0  0  0  0  0
  193.1020  175.7870  146.6930 C   0  0  0  0  0  2  0  0  0  0  0  0
  190.8580  175.5780  145.7550 C   0  0  0  0  0  3  0  0  0  0  0  0
  191.8620  176.3680  146.1120 C   0  0  0  0  0  3  0  0  0  0  0  0
  190.1920  175.2100  142.9150 C   0  0  0  0  0  2  0  0  0  0  0  0
  187.3430  175.2800  142.4720 O   0  0  0  0  0  0  0  0  0  0  0  0
  188.2370  174.9560  141.4290 C   0  0  0  0  0  2  0  0  0  0  0  0
  187.9290  176.2510  143.3220 C   0  0  1  0  0  3  0  0  0  0  0  0
  189.6080  176.1120  145.1920 C   0  0  0  0  0  0  0  0  0  0  0  0
  189.2340  175.8160  143.8370 N   0  0  0  0  0  0  0  0  0  0  0  0
  189.4710  174.2540  141.9800 C   0  0  0  0  0  2  0  0  0  0  0  0
  188.8480  176.8170  145.9130 O   0  0  0  0  0  0  0  0  0  0  0  0
  187.9760  177.6240  142.7100 C   0  0  0  0  0  0  0  0  0  0  0  0
  189.0420  178.1290  142.3900 O   0  0  0  0  0  0  0  0  0  0  0  0
  186.6990  178.3840  142.5180 C   0  0  0  0  0  2  0  0  0  0  0  0
  184.3960  178.0610  143.0800 F   0  0  0  0  0  0  0  0  0  0  0  0
  185.6740  178.0840  143.6090 C   0  0  2  0  0  3  0  0  0  0  0  0
  185.7680  179.0860  144.7540 C   0  0  0  0  0  2  0  0  0  0  0  0
  185.3390  176.9440  146.1450 C   0  0  0  0  0  1  0  0  0  0  0  0
  185.6490  178.4030  146.0770 C   0  0  0  0  0  0  0  0  0  0  0  0
  185.7200  179.1150  147.2000 C   0  0  0  0  0  2  0  0  0  0  0  0
  193.7460  174.4140  143.6330 O   0  0  0  0  0  0  0  0  0  0  0  0
  193.2560  170.2970  144.2790 C   0  0  0  0  0  0  0  0  0  0  0  0
  194.1180  171.0670  145.2380 C   0  0  0  0  0  2  0  0  0  0  0  0
  192.7680  170.9240  143.0800 N   0  0  0  0  0  0  0  0  0  0  0  0
  193.0380  169.0750  144.4920 O   0  0  0  0  0  0  0  0  0  0  0  0
  192.6820  172.3780  142.9850 C   0  0  0  0  0  2  0  0  0  0  0  0
  193.8640  172.5700  145.1450 C   0  0  0  0  0  2  0  0  0  0  0  0
  193.8670  173.0240  143.6910 C   0  0  2  0  0  3  0  0  0  0  0  0
  192.4380  170.1230  141.9090 C   0  0  0  0  0  2  0  0  0  0  0  0
  191.0810  170.4920  141.4060 C   0  0  0  0  0  0  0  0  0  0  0  0
  190.1560  170.6230  142.1910 O   0  0  0  0  0  0  0  0  0  0  0  0
  190.8630  170.7060  139.9440 C   0  0  0  0  0  2  0  0  0  0  0  0
  191.2520  172.1230  139.5520 C   0  0  0  0  0  2  0  0  0  0  0  0
  192.4760  172.0890  138.7690 N   0  0  0  0  0  2  0  0  0  0  0  0
  192.1150  172.2010  137.4680 O   0  0  0  0  0  0  0  0  0  0  0  0
  192.8210  174.8870  137.4910 O   0  0  0  0  0  0  0  0  0  0  0  0
  190.3610  174.2640  136.8450 O   0  0  0  0  0  0  0  0  0  0  0  0
  191.7510  173.8420  137.2610 P   0  0  0  0  0  0  0  0  0  0  0  0
  1  3  1  0  0  0  0
  2  8  1  6  0  0  0
  3 30  1  1  0  0  0
  3  2  1  0  0  0  0
  4  5  2  0  0  0  0
  4  1  1  0  0  0  0
  5  6  1  0  0  0  0
  6  7  1  0  0  0  0
  7  2  1  0  0  0  0
  8  9  1  0  0  0  0
  9 10  1  0  0  0  0
 11 12  2  0  0  0  0
 12 10  1  0  0  0  0
 13 18  1  0  0  0  0
 14 16  1  0  0  0  0
 15 19  1  0  0  0  0
 15 14  1  0  0  0  0
 16 21  1  6  0  0  0
 16 18  1  0  0  0  0
 17 11  1  0  0  0  0
 17 20  2  0  0  0  0
 18 17  1  0  0  0  0
 19 13  1  0  0  0  0
 22 21  2  0  0  0  0
 23 21  1  0  0  0  0
 23 25  1  0  0  0  0
 25 24  1  6  0  0  0
 25 26  1  0  0  0  0
 26 28  1  0  0  0  0
 28 27  1  0  0  0  0
 28 29  2  0  0  0  0
 31 34  2  0  0  0  0
 31 32  1  0  0  0  0
 33 31  1  0  0  0  0
 35 33  1  0  0  0  0
 35 37  1  0  0  0  0
 36 32  1  0  0  0  0
 37 30  1  1  0  0  0
 37 36  1  0  0  0  0
 38 33  1  0  0  0  0
 39 38  1  0  0  0  0
 39 40  2  0  0  0  0
 41 39  1  0  0  0  0
 42 41  1  0  0  0  0
 43 42  1  0  0  0  0
 44 43  1  0  0  0  0
 46 47  2  0  0  0  0
 47 44  1  0  0  0  0
 47 45  2  0  0  0  0
M  END
>  <MODEL>
1

>  <REMARK>
 VINA RESULT:      -6.3      0.000      0.000
  Name = 
  19 active torsions:
  status: ('A' for Active; 'I' for Inactive)
    1  A    between atoms: O_2  and  C_24
    2  A    between atoms: O_2  and  C_46
    3  A    between atoms: C_4  and  C_32
    4  A    between atoms: C_4  and  C_35
    5  A    between atoms: C_5  and  C_29
    6  A    between atoms: C_5  and  C_37
    7  A    between atoms: N_8  and  C_47
    8  A    between atoms: C_9  and  C_33
    9  A    between atoms: C_11  and  C_19
   10  A    between atoms: C_11  and  C_22
   11  A    between atoms: C_13  and  C_19
   12  A    between atoms: C_15  and  C_17
   13  A    between atoms: C_15  and  C_27
   14  A    between atoms: C_22  and  C_31
   15  A    between atoms: N_23  and  C_32
   16  A    between atoms: N_23  and  O_41
   17  A    between atoms: C_27  and  C_37
   18  A    between atoms: P_30  and  O_41
   19  A    between atoms: C_35  and  C_47
                            x       y       z     vdW  Elec       q    Type
                         _______ _______ _______ _____ _____    ______ ____

>  <TORSDO>
F 19

$$$$
=
 OpenBabel11072409013D

 47 49  0  0  1  0  0  0  0  0999 V2000
  189.8040  177.1560  144.3180 C   0  0  0  0  0  2  0  0  0  0  0  0
  190.3470  174.9620  143.1430 C   0  0  1  0  0  3  0  0  0  0  0  0
  189.4040  176.1840  143.2170 C   0  0  1  0  0  3  0  0  0  0  0  0
  190.8040  178.1370  143.7850 C   0  0  0  0  0  3  0  0  0  0  0  0
  191.9090  177.8020  143.1060 C   0  0  0  0  0  3  0  0  0  0  0  0
  192.3080  176.4510  142.8210 N   0  0  0  0  0  2  0  0  0  0  0  0
  191.8030  175.2690  143.5110 C   0  0  0  0  0  2  0  0  0  0  0  0
  189.8350  173.7370  143.9120 C   0  0  0  0  0  2  0  0  0  0  0  0
  189.7190  172.4930  143.0350 C   0  0  0  0  0  2  0  0  0  0  0  0
  188.4690  172.5520  142.1720 C   0  0  0  0  0  2  0  0  0  0  0  0
  188.1340  172.7100  139.7590 C   0  0  0  0  0  3  0  0  0  0  0  0
  188.7990  173.1120  140.8340 C   0  0  0  0  0  3  0  0  0  0  0  0
  190.0020  171.3550  137.9370 C   0  0  0  0  0  2  0  0  0  0  0  0
  189.4130  171.9420  135.1770 O   0  0  0  0  0  0  0  0  0  0  0  0
  190.3980  170.9950  135.5280 C   0  0  0  0  0  2  0  0  0  0  0  0
  189.4060  173.0010  136.1190 C   0  0  1  0  0  3  0  0  0  0  0  0
  188.4170  173.2500  138.4190 C   0  0  0  0  0  0  0  0  0  0  0  0
  189.2300  172.5130  137.4930 N   0  0  0  0  0  0  0  0  0  0  0  0
  190.0380  170.3080  136.8380 C   0  0  0  0  0  2  0  0  0  0  0  0
  187.9220  174.3590  138.0750 O   0  0  0  0  0  0  0  0  0  0  0  0
  190.5840  173.9260  135.9800 C   0  0  0  0  0  0  0  0  0  0  0  0
  190.8510  174.4410  134.9030 O   0  0  0  0  0  0  0  0  0  0  0  0
  191.4510  174.1930  137.1730 C   0  0  0  0  0  2  0  0  0  0  0  0
  193.4490  172.8980  137.4020 F   0  0  0  0  0  0  0  0  0  0  0  0
  192.9380  174.0610  136.8530 C   0  0  2  0  0  3  0  0  0  0  0  0
  193.7220  175.2760  137.3320 C   0  0  0  0  0  2  0  0  0  0  0  0
  193.8150  174.8900  139.8910 C   0  0  0  0  0  1  0  0  0  0  0  0
  194.5010  174.9600  138.5670 C   0  0  0  0  0  0  0  0  0  0  0  0
  195.8250  174.8390  138.5030 C   0  0  0  0  0  2  0  0  0  0  0  0
  188.0640  175.8030  143.3610 O   0  0  0  0  0  0  0  0  0  0  0  0
  185.4200  177.9780  140.9340 C   0  0  0  0  0  0  0  0  0  0  0  0
  186.8140  177.7410  140.4280 C   0  0  0  0  0  2  0  0  0  0  0  0
  185.0690  177.6250  142.2840 N   0  0  0  0  0  0  0  0  0  0  0  0
  184.5870  178.5670  140.1950 O   0  0  0  0  0  0  0  0  0  0  0  0
  185.8540  176.6370  143.0190 C   0  0  0  0  0  2  0  0  0  0  0  0
  187.5050  176.6080  141.1820 C   0  0  0  0  0  2  0  0  0  0  0  0
  187.3330  176.7840  142.6860 C   0  0  2  0  0  3  0  0  0  0  0  0
  183.9820  178.3100  142.9690 C   0  0  0  0  0  2  0  0  0  0  0  0
  184.5220  179.1010  144.1150 C   0  0  0  0  0  0  0  0  0  0  0  0
  185.4340  179.8900  143.9340 O   0  0  0  0  0  0  0  0  0  0  0  0
  183.9370  178.9280  145.4780 C   0  0  0  0  0  2  0  0  0  0  0  0
  185.0390  178.7260  146.5060 C   0  0  0  0  0  2  0  0  0  0  0  0
  185.0630  177.3320  146.9210 N   0  0  0  0  0  2  0  0  0  0  0  0
  185.9170  176.6880  146.0890 O   0  0  0  0  0  0  0  0  0  0  0  0
  188.1480  175.4090  147.1390 O   0  0  0  0  0  0  0  0  0  0  0  0
  187.9900  178.0120  147.3810 O   0  0  0  0  0  0  0  0  0  0  0  0
  187.4040  176.7050  146.8990 P   0  0  0  0  0  0  0  0  0  0  0  0
  2  3  1  0  0  0  0
  2  7  1  0  0  0  0
  2  8  1  1  0  0  0
  3 30  1  1  0  0  0
  3  1  1  0  0  0  0
  4  1  1  0  0  0  0
  5  4  2  0  0  0  0
  6  5  1  0  0  0  0
  6  7  1  0  0  0  0
  9  8  1  0  0  0  0
 10  9  1  0  0  0  0
 11 12  2  0  0  0  0
 12 10  1  0  0  0  0
 14 15  1  0  0  0  0
 14 16  1  0  0  0  0
 15 19  1  0  0  0  0
 16 21  1  1  0  0  0
 16 18  1  0  0  0  0
 17 11  1  0  0  0  0
 18 13  1  0  0  0  0
 18 17  1  0  0  0  0
 19 13  1  0  0  0  0
 20 17  2  0  0  0  0
 21 23  1  0  0  0  0
 22 21  2  0  0  0  0
 25 23  1  0  0  0  0
 25 26  1  0  0  0  0
 25 24  1  1  0  0  0
 26 28  1  0  0  0  0
 28 27  1  0  0  0  0
 29 28  2  0  0  0  0
 31 33  1  0  0  0  0
 32 31  1  0  0  0  0
 32 36  1  0  0  0  0
 33 38  1  0  0  0  0
 33 35  1  0  0  0  0
 34 31  2  0  0  0  0
 36 37  1  0  0  0  0
 37 35  1  0  0  0  0
 37 30  1  1  0  0  0
 38 39  1  0  0  0  0
 39 41  1  0  0  0  0
 40 39  2  0  0  0  0
 41 42  1  0  0  0  0
 42 43  1  0  0  0  0
 44 47  1  0  0  0  0
 44 43  1  0  0  0  0
 47 45  2  0  0  0  0
 47 46  2  0  0  0  0
M  END
>  <MODEL>
2

>  <REMARK>
 VINA RESULT:      -6.2      4.078      9.269
  Name = 
  19 active torsions:
  status: ('A' for Active; 'I' for Inactive)
    1  A    between atoms: O_2  and  C_24
    2  A    between atoms: O_2  and  C_46
    3  A    between atoms: C_4  and  C_32
    4  A    between atoms: C_4  and  C_35
    5  A    between atoms: C_5  and  C_29
    6  A    between atoms: C_5  and  C_37
    7  A    between atoms: N_8  and  C_47
    8  A    between atoms: C_9  and  C_33
    9  A    between atoms: C_11  and  C_19
   10  A    between atoms: C_11  and  C_22
   11  A    between atoms: C_13  and  C_19
   12  A    between atoms: C_15  and  C_17
   13  A    between atoms: C_15  and  C_27
   14  A    between atoms: C_22  and  C_31
   15  A    between atoms: N_23  and  C_32
   16  A    between atoms: N_23  and  O_41
   17  A    between atoms: C_27  and  C_37
   18  A    between atoms: P_30  and  O_41
   19  A    between atoms: C_35  and  C_47
                            x       y       z     vdW  Elec       q    Type
                         _______ _______ _______ _____ _____    ______ ____

>  <TORSDO>
F 19

$$$$
=
 OpenBabel11072409013D

 47 49  0  0  1  0  0  0  0  0999 V2000
  189.3140  177.5030  143.5580 C   0  0  0  0  0  2  0  0  0  0  0  0
  189.6970  175.3460  142.2580 C   0  0  1  0  0  3  0  0  0  0  0  0
  189.0510  176.7510  142.2610 C   0  0  1  0  0  3  0  0  0  0  0  0
  190.6070  178.2520  143.4530 C   0  0  0  0  0  3  0  0  0  0  0  0
  191.7640  177.7170  143.0430 C   0  0  0  0  0  3  0  0  0  0  0  0
  191.9360  176.3370  142.6780 N   0  0  0  0  0  2  0  0  0  0  0  0
  191.0170  175.2610  143.0320 C   0  0  0  0  0  2  0  0  0  0  0  0
  188.7410  174.2230  142.6800 C   0  0  0  0  0  2  0  0  0  0  0  0
  189.4720  172.9770  143.1720 C   0  0  0  0  0  2  0  0  0  0  0  0
  189.5200  171.9120  142.0880 C   0  0  0  0  0  2  0  0  0  0  0  0
  191.7950  171.2830  142.7110 C   0  0  0  0  0  3  0  0  0  0  0  0
  190.9330  171.5900  141.7510 C   0  0  0  0  0  3  0  0  0  0  0  0
  193.8570  171.4160  144.8030 C   0  0  0  0  0  2  0  0  0  0  0  0
  196.0530  169.6320  144.2480 O   0  0  0  0  0  0  0  0  0  0  0  0
  195.9770  170.3400  145.4670 C   0  0  0  0  0  2  0  0  0  0  0  0
  195.5350  170.4280  143.1970 C   0  0  1  0  0  3  0  0  0  0  0  0
  193.1970  170.9420  142.4200 C   0  0  0  0  0  0  0  0  0  0  0  0
  194.1680  170.8870  143.4770 N   0  0  0  0  0  0  0  0  0  0  0  0
  194.5250  170.5620  145.8670 C   0  0  0  0  0  2  0  0  0  0  0  0
  193.5420  170.6740  141.2360 O   0  0  0  0  0  0  0  0  0  0  0  0
  196.4520  171.5520  142.7960 C   0  0  0  0  0  0  0  0  0  0  0  0
  197.6590  171.3750  142.7190 O   0  0  0  0  0  0  0  0  0  0  0  0
  195.8730  172.9040  142.5130 C   0  0  0  0  0  2  0  0  0  0  0  0
  196.6650  173.2860  144.7390 F   0  0  0  0  0  0  0  0  0  0  0  0
  196.2290  173.9250  143.5910 C   0  0  2  0  0  3  0  0  0  0  0  0
  195.0530  174.8460  143.8980 C   0  0  0  0  0  2  0  0  0  0  0  0
  194.8430  177.0500  145.2410 C   0  0  0  0  0  1  0  0  0  0  0  0
  195.5210  176.2340  144.1910 C   0  0  0  0  0  0  0  0  0  0  0  0
  196.4780  176.7830  143.4450 C   0  0  0  0  0  2  0  0  0  0  0  0
  187.6780  176.6950  141.9940 O   0  0  0  0  0  0  0  0  0  0  0  0
  185.0560  178.7010  144.5850 C   0  0  0  0  0  0  0  0  0  0  0  0
  185.7280  179.4960  143.5020 C   0  0  0  0  0  2  0  0  0  0  0  0
  185.4450  177.3390  144.8310 N   0  0  0  0  0  0  0  0  0  0  0  0
  184.2130  179.2660  145.3310 O   0  0  0  0  0  0  0  0  0  0  0  0
  186.1160  176.5600  143.7940 C   0  0  0  0  0  2  0  0  0  0  0  0
  186.2890  178.5950  142.4050 C   0  0  0  0  0  2  0  0  0  0  0  0
  187.0800  177.4420  143.0120 C   0  0  2  0  0  3  0  0  0  0  0  0
  185.2580  176.7430  146.1470 C   0  0  0  0  0  2  0  0  0  0  0  0
  186.2200  177.3430  147.1190 C   0  0  0  0  0  0  0  0  0  0  0  0
  185.8020  177.9310  148.1030 O   0  0  0  0  0  0  0  0  0  0  0  0
  187.6890  177.2140  146.8870 C   0  0  0  0  0  2  0  0  0  0  0  0
  188.1490  175.7930  147.1730 C   0  0  0  0  0  2  0  0  0  0  0  0
  188.8160  175.2550  145.9980 N   0  0  0  0  0  2  0  0  0  0  0  0
  189.7810  174.4150  146.4430 O   0  0  0  0  0  0  0  0  0  0  0  0
  191.4400  175.1780  148.5360 O   0  0  0  0  0  0  0  0  0  0  0  0
  191.5170  176.5810  146.3260 O   0  0  0  0  0  0  0  0  0  0  0  0
  190.9540  175.4290  147.1240 P   0  0  0  0  0  0  0  0  0  0  0  0
  2  3  1  0  0  0  0
  2  8  1  1  0  0  0
  2  7  1  0  0  0  0
  3 30  1  1  0  0  0
  3  1  1  0  0  0  0
  4  1  1  0  0  0  0
  5  4  2  0  0  0  0
  6  7  1  0  0  0  0
  6  5  1  0  0  0  0
  8  9  1  0  0  0  0
 10  9  1  0  0  0  0
 12 10  1  0  0  0  0
 12 11  2  0  0  0  0
 13 19  1  0  0  0  0
 14 15  1  0  0  0  0
 15 19  1  0  0  0  0
 16 21  1  1  0  0  0
 16 18  1  0  0  0  0
 16 14  1  0  0  0  0
 17 11  1  0  0  0  0
 17 18  1  0  0  0  0
 18 13  1  0  0  0  0
 20 17  2  0  0  0  0
 22 21  2  0  0  0  0
 23 21  1  0  0  0  0
 23 25  1  0  0  0  0
 25 26  1  0  0  0  0
 25 24  1  1  0  0  0
 26 28  1  0  0  0  0
 28 27  1  0  0  0  0
 29 28  2  0  0  0  0
 31 33  1  0  0  0  0
 31 34  2  0  0  0  0
 32 31  1  0  0  0  0
 33 38  1  0  0  0  0
 35 33  1  0  0  0  0
 36 37  1  0  0  0  0
 36 32  1  0  0  0  0
 37 30  1  6  0  0  0
 37 35  1  0  0  0  0
 38 39  1  0  0  0  0
 39 40  2  0  0  0  0
 41 39  1  0  0  0  0
 41 42  1  0  0  0  0
 43 44  1  0  0  0  0
 43 42  1  0  0  0  0
 44 47  1  0  0  0  0
 46 47  2  0  0  0  0
 47 45  2  0  0  0  0
M  END
>  <MODEL>
3

>  <REMARK>
 VINA RESULT:      -6.1      3.489      9.183
  Name = 
  19 active torsions:
  status: ('A' for Active; 'I' for Inactive)
    1  A    between atoms: O_2  and  C_24
    2  A    between atoms: O_2  and  C_46
    3  A    between atoms: C_4  and  C_32
    4  A    between atoms: C_4  and  C_35
    5  A    between atoms: C_5  and  C_29
    6  A    between atoms: C_5  and  C_37
    7  A    between atoms: N_8  and  C_47
    8  A    between atoms: C_9  and  C_33
    9  A    between atoms: C_11  and  C_19
   10  A    between atoms: C_11  and  C_22
   11  A    between atoms: C_13  and  C_19
   12  A    between atoms: C_15  and  C_17
   13  A    between atoms: C_15  and  C_27
   14  A    between atoms: C_22  and  C_31
   15  A    between atoms: N_23  and  C_32
   16  A    between atoms: N_23  and  O_41
   17  A    between atoms: C_27  and  C_37
   18  A    between atoms: P_30  and  O_41
   19  A    between atoms: C_35  and  C_47
                            x       y       z     vdW  Elec       q    Type
                         _______ _______ _______ _____ _____    ______ ____

>  <TORSDO>
F 19

$$$$
=
 OpenBabel11072409013D

 47 49  0  0  1  0  0  0  0  0999 V2000
  193.7630  175.0470  142.9770 C   0  0  0  0  0  2  0  0  0  0  0  0
  195.4610  175.4250  144.8380 C   0  0  1  0  0  3  0  0  0  0  0  0
  194.7630  174.3950  143.9200 C   0  0  1  0  0  3  0  0  0  0  0  0
  194.4600  175.4810  141.7240 C   0  0  0  0  0  3  0  0  0  0  0  0
  195.5890  176.2010  141.6930 C   0  0  0  0  0  3  0  0  0  0  0  0
  196.2720  176.6880  142.8600 N   0  0  0  0  0  2  0  0  0  0  0  0
  195.6810  176.7960  144.1890 C   0  0  0  0  0  2  0  0  0  0  0  0
  194.8040  175.5710  146.2170 C   0  0  0  0  0  2  0  0  0  0  0  0
  193.6710  176.5930  146.2290 C   0  0  0  0  0  2  0  0  0  0  0  0
  192.3310  175.9160  146.4670 C   0  0  0  0  0  2  0  0  0  0  0  0
  190.2800  177.0320  145.7550 C   0  0  0  0  0  3  0  0  0  0  0  0
  191.3560  176.3320  145.4220 C   0  0  0  0  0  3  0  0  0  0  0  0
  187.3910  176.7530  146.2250 C   0  0  0  0  0  2  0  0  0  0  0  0
  185.8770  178.7030  144.7350 O   0  0  0  0  0  0  0  0  0  0  0  0
  185.2510  177.8490  145.6690 C   0  0  0  0  0  2  0  0  0  0  0  0
  186.9320  178.0140  144.0870 C   0  0  1  0  0  3  0  0  0  0  0  0
  189.2990  177.4780  144.7520 C   0  0  0  0  0  0  0  0  0  0  0  0
  187.8940  177.4540  145.0460 N   0  0  0  0  0  0  0  0  0  0  0  0
  186.2050  177.5060  146.8040 C   0  0  0  0  0  2  0  0  0  0  0  0
  189.7000  177.9050  143.6330 O   0  0  0  0  0  0  0  0  0  0  0  0
  186.4520  176.9970  143.0890 C   0  0  0  0  0  0  0  0  0  0  0  0
  186.4510  175.8050  143.3610 O   0  0  0  0  0  0  0  0  0  0  0  0
  185.9940  177.4560  141.7380 C   0  0  0  0  0  2  0  0  0  0  0  0
  188.1050  178.1530  140.8520 F   0  0  0  0  0  0  0  0  0  0  0  0
  187.0630  177.2610  140.6650 C   0  0  2  0  0  3  0  0  0  0  0  0
  186.4780  177.3970  139.2640 C   0  0  0  0  0  2  0  0  0  0  0  0
  187.6570  175.1090  138.9800 C   0  0  0  0  0  1  0  0  0  0  0  0
  186.8120  176.2070  138.4250 C   0  0  0  0  0  0  0  0  0  0  0  0
  186.4390  176.1700  137.1470 C   0  0  0  0  0  2  0  0  0  0  0  0
  194.1520  173.3700  144.6540 O   0  0  0  0  0  0  0  0  0  0  0  0
  191.6800  170.7030  142.5600 C   0  0  0  0  0  0  0  0  0  0  0  0
  193.1190  170.8110  142.1440 C   0  0  0  0  0  2  0  0  0  0  0  0
  191.1340  171.6200  143.5250 N   0  0  0  0  0  0  0  0  0  0  0  0
  190.9360  169.8600  141.9930 O   0  0  0  0  0  0  0  0  0  0  0  0
  192.0110  172.3350  144.4470 C   0  0  0  0  0  2  0  0  0  0  0  0
  193.9740  171.4630  143.2280 C   0  0  0  0  0  2  0  0  0  0  0  0
  193.3050  172.7300  143.7470 C   0  0  2  0  0  3  0  0  0  0  0  0
  189.7090  171.9180  143.5370 C   0  0  0  0  0  2  0  0  0  0  0  0
  189.4500  173.2030  142.8210 C   0  0  0  0  0  0  0  0  0  0  0  0
  189.2330  174.2210  143.4580 O   0  0  0  0  0  0  0  0  0  0  0  0
  189.4660  173.2380  141.3290 C   0  0  0  0  0  2  0  0  0  0  0  0
  190.7580  173.8640  140.8270 C   0  0  0  0  0  2  0  0  0  0  0  0
  191.3200  173.0350  139.7720 N   0  0  0  0  0  2  0  0  0  0  0  0
  190.3170  172.7770  138.8980 O   0  0  0  0  0  0  0  0  0  0  0  0
  192.2760  173.1070  136.9570 O   0  0  0  0  0  0  0  0  0  0  0  0
  189.9450  174.2330  136.5620 O   0  0  0  0  0  0  0  0  0  0  0  0
  190.8640  173.3960  137.4200 P   0  0  0  0  0  0  0  0  0  0  0  0
  1  3  1  0  0  0  0
  2  8  1  1  0  0  0
  3 30  1  1  0  0  0
  3  2  1  0  0  0  0
  4  1  1  0  0  0  0
  5  4  2  0  0  0  0
  5  6  1  0  0  0  0
  6  7  1  0  0  0  0
  7  2  1  0  0  0  0
  8  9  1  0  0  0  0
  9 10  1  0  0  0  0
 12 11  2  0  0  0  0
 12 10  1  0  0  0  0
 13 19  1  0  0  0  0
 14 15  1  0  0  0  0
 15 19  1  0  0  0  0
 16 21  1  1  0  0  0
 16 14  1  0  0  0  0
 16 18  1  0  0  0  0
 17 18  1  0  0  0  0
 17 11  1  0  0  0  0
 18 13  1  0  0  0  0
 20 17  2  0  0  0  0
 21 22  2  0  0  0  0
 23 21  1  0  0  0  0
 25 24  1  1  0  0  0
 25 23  1  0  0  0  0
 26 25  1  0  0  0  0
 28 27  1  0  0  0  0
 28 26  1  0  0  0  0
 29 28  2  0  0  0  0
 31 33  1  0  0  0  0
 32 31  1  0  0  0  0
 32 36  1  0  0  0  0
 33 38  1  0  0  0  0
 33 35  1  0  0  0  0
 34 31  2  0  0  0  0
 36 37  1  0  0  0  0
 37 35  1  0  0  0  0
 37 30  1  1  0  0  0
 39 40  2  0  0  0  0
 39 38  1  0  0  0  0
 41 39  1  0  0  0  0
 42 41  1  0  0  0  0
 43 42  1  0  0  0  0
 44 43  1  0  0  0  0
 45 47  2  0  0  0  0
 46 47  2  0  0  0  0
 47 44  1  0  0  0  0
M  END
>  <MODEL>
4

>  <REMARK>
 VINA RESULT:      -5.9      1.921      3.548
  Name = 
  19 active torsions:
  status: ('A' for Active; 'I' for Inactive)
    1  A    between atoms: O_2  and  C_24
    2  A    between atoms: O_2  and  C_46
    3  A    between atoms: C_4  and  C_32
    4  A    between atoms: C_4  and  C_35
    5  A    between atoms: C_5  and  C_29
    6  A    between atoms: C_5  and  C_37
    7  A    between atoms: N_8  and  C_47
    8  A    between atoms: C_9  and  C_33
    9  A    between atoms: C_11  and  C_19
   10  A    between atoms: C_11  and  C_22
   11  A    between atoms: C_13  and  C_19
   12  A    between atoms: C_15  and  C_17
   13  A    between atoms: C_15  and  C_27
   14  A    between atoms: C_22  and  C_31
   15  A    between atoms: N_23  and  C_32
   16  A    between atoms: N_23  and  O_41
   17  A    between atoms: C_27  and  C_37
   18  A    between atoms: P_30  and  O_41
   19  A    between atoms: C_35  and  C_47
                            x       y       z     vdW  Elec       q    Type
                         _______ _______ _______ _____ _____    ______ ____

>  <TORSDO>
F 19

$$$$
=
 OpenBabel11072409013D

 47 49  0  0  1  0  0  0  0  0999 V2000
  194.0140  175.5560  142.0940 C   0  0  0  0  0  2  0  0  0  0  0  0
  193.9240  175.2700  144.6230 C   0  0  1  0  0  3  0  0  0  0  0  0
  193.8950  174.5690  143.2460 C   0  0  1  0  0  3  0  0  0  0  0  0
  195.4600  175.7970  141.7840 C   0  0  0  0  0  3  0  0  0  0  0  0
  196.3910  176.1090  142.6950 C   0  0  0  0  0  3  0  0  0  0  0  0
  196.1260  176.2900  144.0960 N   0  0  0  0  0  2  0  0  0  0  0  0
  194.8060  176.5230  144.6720 C   0  0  0  0  0  2  0  0  0  0  0  0
  192.5320  175.5580  145.2020 C   0  0  0  0  0  2  0  0  0  0  0  0
  192.5730  175.9550  146.6750 C   0  0  0  0  0  2  0  0  0  0  0  0
  191.1760  176.2500  147.1980 C   0  0  0  0  0  2  0  0  0  0  0  0
  189.0600  177.0770  146.3050 C   0  0  0  0  0  3  0  0  0  0  0  0
  190.3660  176.9150  146.1420 C   0  0  0  0  0  3  0  0  0  0  0  0
  186.1290  177.1030  146.5330 C   0  0  0  0  0  2  0  0  0  0  0  0
  184.9760  179.3720  145.1760 O   0  0  0  0  0  0  0  0  0  0  0  0
  184.1810  178.5060  145.9570 C   0  0  0  0  0  2  0  0  0  0  0  0
  185.9980  178.6330  144.5290 C   0  0  1  0  0  3  0  0  0  0  0  0
  188.2240  177.7440  145.2930 C   0  0  0  0  0  0  0  0  0  0  0  0
  186.8060  177.8600  145.4820 N   0  0  0  0  0  0  0  0  0  0  0  0
  184.9910  177.9290  147.1090 C   0  0  0  0  0  2  0  0  0  0  0  0
  188.7630  178.2360  144.2640 O   0  0  0  0  0  0  0  0  0  0  0  0
  185.4910  177.7950  143.3860 C   0  0  0  0  0  0  0  0  0  0  0  0
  184.6900  178.2510  142.5840 O   0  0  0  0  0  0  0  0  0  0  0  0
  185.9600  176.3780  143.2540 C   0  0  0  0  0  2  0  0  0  0  0  0
  186.6450  176.5080  140.9650 F   0  0  0  0  0  0  0  0  0  0  0  0
  187.0970  176.2340  142.2440 C   0  0  2  0  0  3  0  0  0  0  0  0
  187.7300  174.8500  142.3100 C   0  0  0  0  0  2  0  0  0  0  0  0
  190.1310  175.8170  142.3730 C   0  0  0  0  0  1  0  0  0  0  0  0
  189.0870  174.9090  142.9320 C   0  0  0  0  0  0  0  0  0  0  0  0
  189.4000  174.0760  143.9230 C   0  0  0  0  0  2  0  0  0  0  0  0
  192.7560  173.7680  143.0910 O   0  0  0  0  0  0  0  0  0  0  0  0
  193.2720  169.6380  143.6230 C   0  0  0  0  0  0  0  0  0  0  0  0
  193.7730  170.5590  144.6990 C   0  0  0  0  0  2  0  0  0  0  0  0
  192.7990  170.1720  142.3750 N   0  0  0  0  0  0  0  0  0  0  0  0
  193.3530  168.3920  143.7920 O   0  0  0  0  0  0  0  0  0  0  0  0
  192.3510  171.5590  142.2840 C   0  0  0  0  0  2  0  0  0  0  0  0
  193.1510  171.9490  144.5870 C   0  0  0  0  0  2  0  0  0  0  0  0
  193.2260  172.4540  143.1520 C   0  0  2  0  0  3  0  0  0  0  0  0
  192.8430  169.3670  141.1620 C   0  0  0  0  0  2  0  0  0  0  0  0
  191.4550  169.0560  140.7070 C   0  0  0  0  0  0  0  0  0  0  0  0
  190.6400  168.6130  141.4990 O   0  0  0  0  0  0  0  0  0  0  0  0
  191.0680  169.2950  139.2850 C   0  0  0  0  0  2  0  0  0  0  0  0
  191.6270  170.6230  138.7990 C   0  0  0  0  0  2  0  0  0  0  0  0
  190.7600  171.1630  137.7630 N   0  0  0  0  0  2  0  0  0  0  0  0
  191.1050  172.4620  137.5980 O   0  0  0  0  0  0  0  0  0  0  0  0
  188.9460  174.1530  137.1580 O   0  0  0  0  0  0  0  0  0  0  0  0
  189.3720  173.3050  139.5990 O   0  0  0  0  0  0  0  0  0  0  0  0
  189.7600  173.3380  138.1400 P   0  0  0  0  0  0  0  0  0  0  0  0
  1  3  1  0  0  0  0
  2  7  1  0  0  0  0
  2  8  1  6  0  0  0
  3 30  1  6  0  0  0
  3  2  1  0  0  0  0
  4  1  1  0  0  0  0
  4  5  2  0  0  0  0
  5  6  1  0  0  0  0
  6  7  1  0  0  0  0
  8  9  1  0  0  0  0
  9 10  1  0  0  0  0
 12 11  2  0  0  0  0
 12 10  1  0  0  0  0
 13 19  1  0  0  0  0
 14 15  1  0  0  0  0
 15 19  1  0  0  0  0
 16 21  1  6  0  0  0
 16 14  1  0  0  0  0
 16 18  1  0  0  0  0
 17 18  1  0  0  0  0
 17 11  1  0  0  0  0
 18 13  1  0  0  0  0
 20 17  2  0  0  0  0
 22 21  2  0  0  0  0
 23 21  1  0  0  0  0
 25 24  1  6  0  0  0
 25 26  1  0  0  0  0
 25 23  1  0  0  0  0
 26 28  1  0  0  0  0
 27 28  1  0  0  0  0
 28 29  2  0  0  0  0
 31 34  2  0  0  0  0
 31 32  1  0  0  0  0
 33 31  1  0  0  0  0
 35 33  1  0  0  0  0
 35 37  1  0  0  0  0
 36 32  1  0  0  0  0
 37 30  1  1  0  0  0
 37 36  1  0  0  0  0
 38 33  1  0  0  0  0
 39 38  1  0  0  0  0
 39 40  2  0  0  0  0
 41 39  1  0  0  0  0
 42 41  1  0  0  0  0
 43 42  1  0  0  0  0
 44 43  1  0  0  0  0
 44 47  1  0  0  0  0
 45 47  2  0  0  0  0
 47 46  2  0  0  0  0
M  END
>  <MODEL>
5

>  <REMARK>
 VINA RESULT:      -5.9      1.787      3.275
  Name = 
  19 active torsions:
  status: ('A' for Active; 'I' for Inactive)
    1  A    between atoms: O_2  and  C_24
    2  A    between atoms: O_2  and  C_46
    3  A    between atoms: C_4  and  C_32
    4  A    between atoms: C_4  and  C_35
    5  A    between atoms: C_5  and  C_29
    6  A    between atoms: C_5  and  C_37
    7  A    between atoms: N_8  and  C_47
    8  A    between atoms: C_9  and  C_33
    9  A    between atoms: C_11  and  C_19
   10  A    between atoms: C_11  and  C_22
   11  A    between atoms: C_13  and  C_19
   12  A    between atoms: C_15  and  C_17
   13  A    between atoms: C_15  and  C_27
   14  A    between atoms: C_22  and  C_31
   15  A    between atoms: N_23  and  C_32
   16  A    between atoms: N_23  and  O_41
   17  A    between atoms: C_27  and  C_37
   18  A    between atoms: P_30  and  O_41
   19  A    between atoms: C_35  and  C_47
                            x       y       z     vdW  Elec       q    Type
                         _______ _______ _______ _____ _____    ______ ____

>  <TORSDO>
F 19

$$$$
=
 OpenBabel11072409013D

 47 49  0  0  1  0  0  0  0  0999 V2000
  193.2860  170.4260  143.3070 C   0  0  0  0  0  2  0  0  0  0  0  0
  194.5390  171.6160  145.1790 C   0  0  1  0  0  3  0  0  0  0  0  0
  193.2070  171.4740  144.4080 C   0  0  1  0  0  3  0  0  0  0  0  0
  192.9430  169.0800  143.8670 C   0  0  0  0  0  3  0  0  0  0  0  0
  193.4830  168.5570  144.9750 C   0  0  0  0  0  3  0  0  0  0  0  0
  194.4960  169.2030  145.7660 N   0  0  0  0  0  2  0  0  0  0  0  0
  195.3300  170.3100  145.3110 C   0  0  0  0  0  2  0  0  0  0  0  0
  195.4360  172.7490  144.6640 C   0  0  0  0  0  2  0  0  0  0  0  0
  195.3720  173.9990  145.5370 C   0  0  0  0  0  2  0  0  0  0  0  0
  195.6610  175.2480  144.7190 C   0  0  0  0  0  2  0  0  0  0  0  0
  193.4460  176.0940  145.2980 C   0  0  0  0  0  3  0  0  0  0  0  0
  194.3900  175.9420  144.3790 C   0  0  0  0  0  3  0  0  0  0  0  0
  190.8750  175.0240  146.2430 C   0  0  0  0  0  2  0  0  0  0  0  0
  188.9040  177.1060  146.5530 O   0  0  0  0  0  0  0  0  0  0  0  0
  188.6400  175.7820  146.9650 C   0  0  0  0  0  2  0  0  0  0  0  0
  189.7110  177.0940  145.3880 C   0  0  1  0  0  3  0  0  0  0  0  0
  192.1800  176.7880  145.0090 C   0  0  0  0  0  0  0  0  0  0  0  0
  190.9480  176.3250  145.5830 N   0  0  0  0  0  0  0  0  0  0  0  0
  189.9210  175.0980  147.4230 C   0  0  0  0  0  2  0  0  0  0  0  0
  192.1830  177.8100  144.2680 O   0  0  0  0  0  0  0  0  0  0  0  0
  188.9620  176.6800  144.1510 C   0  0  0  0  0  0  0  0  0  0  0  0
  189.3140  175.7050  143.5030 O   0  0  0  0  0  0  0  0  0  0  0  0
  187.7860  177.4930  143.7010 C   0  0  0  0  0  2  0  0  0  0  0  0
  186.2910  175.9000  142.7250 F   0  0  0  0  0  0  0  0  0  0  0  0
  186.4700  176.7280  143.8200 C   0  0  2  0  0  3  0  0  0  0  0  0
  185.2870  177.6740  143.9830 C   0  0  0  0  0  2  0  0  0  0  0  0
  184.0930  178.9360  145.9030 C   0  0  0  0  0  1  0  0  0  0  0  0
  184.8520  177.7490  145.4100 C   0  0  0  0  0  0  0  0  0  0  0  0
  185.2290  176.8040  146.2690 C   0  0  0  0  0  2  0  0  0  0  0  0
  192.7690  172.7000  143.8900 O   0  0  0  0  0  0  0  0  0  0  0  0
  189.0190  172.6450  142.0080 C   0  0  0  0  0  0  0  0  0  0  0  0
  189.1680  171.9160  143.3120 C   0  0  0  0  0  2  0  0  0  0  0  0
  190.1750  173.1860  141.3440 N   0  0  0  0  0  0  0  0  0  0  0  0
  187.8870  172.7020  141.4590 O   0  0  0  0  0  0  0  0  0  0  0  0
  191.3970  173.4650  142.0940 C   0  0  0  0  0  2  0  0  0  0  0  0
  190.4110  172.3680  144.0740 C   0  0  0  0  0  2  0  0  0  0  0  0
  191.6240  172.3930  143.1520 C   0  0  2  0  0  3  0  0  0  0  0  0
  190.1760  173.3800  139.9010 C   0  0  0  0  0  2  0  0  0  0  0  0
  191.0290  172.3420  139.2480 C   0  0  0  0  0  0  0  0  0  0  0  0
  190.8110  171.1590  139.4530 O   0  0  0  0  0  0  0  0  0  0  0  0
  192.1410  172.7560  138.3420 C   0  0  0  0  0  2  0  0  0  0  0  0
  193.2360  171.7010  138.3300 C   0  0  0  0  0  2  0  0  0  0  0  0
  194.4550  172.2640  138.8900 N   0  0  0  0  0  2  0  0  0  0  0  0
  194.6130  173.4910  138.3370 O   0  0  0  0  0  0  0  0  0  0  0  0
  196.7160  175.3050  138.3530 O   0  0  0  0  0  0  0  0  0  0  0  0
  197.1520  172.9030  139.3000 O   0  0  0  0  0  0  0  0  0  0  0  0
  196.2180  173.9120  138.6750 P   0  0  0  0  0  0  0  0  0  0  0  0
  1  4  1  0  0  0  0
  1  3  1  0  0  0  0
  2  8  1  6  0  0  0
  2  7  1  0  0  0  0
  3 30  1  6  0  0  0
  3  2  1  0  0  0  0
  4  5  2  0  0  0  0
  5  6  1  0  0  0  0
  7  6  1  0  0  0  0
  8  9  1  0  0  0  0
 10  9  1  0  0  0  0
 12 10  1  0  0  0  0
 12 11  2  0  0  0  0
 13 19  1  0  0  0  0
 14 15  1  0  0  0  0
 15 19  1  0  0  0  0
 16 21  1  6  0  0  0
 16 18  1  0  0  0  0
 16 14  1  0  0  0  0
 17 11  1  0  0  0  0
 17 18  1  0  0  0  0
 18 13  1  0  0  0  0
 20 17  2  0  0  0  0
 22 21  2  0  0  0  0
 23 25  1  0  0  0  0
 23 21  1  0  0  0  0
 25 24  1  6  0  0  0
 25 26  1  0  0  0  0
 26 28  1  0  0  0  0
 28 27  1  0  0  0  0
 28 29  2  0  0  0  0
 31 32  1  0  0  0  0
 32 36  1  0  0  0  0
 33 31  1  0  0  0  0
 33 35  1  0  0  0  0
 34 31  2  0  0  0  0
 35 37  1  0  0  0  0
 37 30  1  1  0  0  0
 37 36  1  0  0  0  0
 38 33  1  0  0  0  0
 39 40  2  0  0  0  0
 39 38  1  0  0  0  0
 41 39  1  0  0  0  0
 42 41  1  0  0  0  0
 42 43  1  0  0  0  0
 44 47  1  0  0  0  0
 44 43  1  0  0  0  0
 45 47  2  0  0  0  0
 47 46  2  0  0  0  0
M  END
>  <MODEL>
6

>  <REMARK>
 VINA RESULT:      -5.8      2.364      4.222
  Name = 
  19 active torsions:
  status: ('A' for Active; 'I' for Inactive)
    1  A    between atoms: O_2  and  C_24
    2  A    between atoms: O_2  and  C_46
    3  A    between atoms: C_4  and  C_32
    4  A    between atoms: C_4  and  C_35
    5  A    between atoms: C_5  and  C_29
    6  A    between atoms: C_5  and  C_37
    7  A    between atoms: N_8  and  C_47
    8  A    between atoms: C_9  and  C_33
    9  A    between atoms: C_11  and  C_19
   10  A    between atoms: C_11  and  C_22
   11  A    between atoms: C_13  and  C_19
   12  A    between atoms: C_15  and  C_17
   13  A    between atoms: C_15  and  C_27
   14  A    between atoms: C_22  and  C_31
   15  A    between atoms: N_23  and  C_32
   16  A    between atoms: N_23  and  O_41
   17  A    between atoms: C_27  and  C_37
   18  A    between atoms: P_30  and  O_41
   19  A    between atoms: C_35  and  C_47
                            x       y       z     vdW  Elec       q    Type
                         _______ _______ _______ _____ _____    ______ ____

>  <TORSDO>
F 19

$$$$
=
 OpenBabel11072409013D

 47 49  0  0  1  0  0  0  0  0999 V2000
  189.4820  177.4490  143.7590 C   0  0  0  0  0  2  0  0  0  0  0  0
  190.0390  175.4070  142.3410 C   0  0  1  0  0  3  0  0  0  0  0  0
  189.2630  176.7410  142.4290 C   0  0  1  0  0  3  0  0  0  0  0  0
  190.6960  178.3230  143.6710 C   0  0  0  0  0  3  0  0  0  0  0  0
  191.8890  177.9230  143.2130 C   0  0  0  0  0  3  0  0  0  0  0  0
  192.1820  176.5860  142.7730 N   0  0  0  0  0  2  0  0  0  0  0  0
  191.3790  175.4100  143.0860 C   0  0  0  0  0  2  0  0  0  0  0  0
  189.2040  174.1770  142.7200 C   0  0  0  0  0  2  0  0  0  0  0  0
  189.8430  173.3460  143.8300 C   0  0  0  0  0  2  0  0  0  0  0  0
  190.0450  171.9070  143.3820 C   0  0  0  0  0  2  0  0  0  0  0  0
  192.3820  171.8920  144.0860 C   0  0  0  0  0  3  0  0  0  0  0  0
  191.4890  171.6470  143.1360 C   0  0  0  0  0  3  0  0  0  0  0  0
  194.3890  173.9720  144.6300 C   0  0  0  0  0  2  0  0  0  0  0  0
  196.9530  172.8310  145.2890 O   0  0  0  0  0  0  0  0  0  0  0  0
  196.7260  174.2210  145.3820 C   0  0  0  0  0  2  0  0  0  0  0  0
  196.2260  172.2970  144.1960 C   0  0  1  0  0  3  0  0  0  0  0  0
  193.8180  171.6340  143.8910 C   0  0  0  0  0  0  0  0  0  0  0  0
  194.7940  172.6120  144.2810 N   0  0  0  0  0  0  0  0  0  0  0  0
  195.2750  174.5030  145.7440 C   0  0  0  0  0  2  0  0  0  0  0  0
  194.1940  170.5340  143.3970 O   0  0  0  0  0  0  0  0  0  0  0  0
  196.8190  172.6530  142.8590 C   0  0  0  0  0  0  0  0  0  0  0  0
  197.9100  172.2170  142.5240 O   0  0  0  0  0  0  0  0  0  0  0  0
  196.0670  173.5750  141.9470 C   0  0  0  0  0  2  0  0  0  0  0  0
  197.2730  175.6410  141.9080 F   0  0  0  0  0  0  0  0  0  0  0  0
  196.9940  174.5050  141.1680 C   0  0  2  0  0  3  0  0  0  0  0  0
  196.4040  174.8720  139.8120 C   0  0  0  0  0  2  0  0  0  0  0  0
  197.6790  172.9880  138.5750 C   0  0  0  0  0  1  0  0  0  0  0  0
  197.2960  174.4250  138.6990 C   0  0  0  0  0  0  0  0  0  0  0  0
  197.8310  175.3240  137.8760 C   0  0  0  0  0  2  0  0  0  0  0  0
  187.8950  176.5670  142.1840 O   0  0  0  0  0  0  0  0  0  0  0  0
  185.1660  178.7250  144.5300 C   0  0  0  0  0  0  0  0  0  0  0  0
  185.9440  179.4700  143.4840 C   0  0  0  0  0  2  0  0  0  0  0  0
  185.4850  177.3560  144.8330 N   0  0  0  0  0  0  0  0  0  0  0  0
  184.2910  179.3370  145.2000 O   0  0  0  0  0  0  0  0  0  0  0  0
  186.2010  176.5300  143.8650 C   0  0  0  0  0  2  0  0  0  0  0  0
  186.5510  178.5240  142.4500 C   0  0  0  0  0  2  0  0  0  0  0  0
  187.2520  177.3590  143.1390 C   0  0  2  0  0  3  0  0  0  0  0  0
  185.1800  176.7980  146.1440 C   0  0  0  0  0  2  0  0  0  0  0  0
  186.2280  177.2060  147.1270 C   0  0  0  0  0  0  0  0  0  0  0  0
  185.9000  177.6680  148.2080 O   0  0  0  0  0  0  0  0  0  0  0  0
  187.6720  177.0390  146.7880 C   0  0  0  0  0  2  0  0  0  0  0  0
  188.1820  175.6960  147.2860 C   0  0  0  0  0  2  0  0  0  0  0  0
  189.3510  175.3070  146.5130 N   0  0  0  0  0  2  0  0  0  0  0  0
  190.3040  174.9350  147.4020 O   0  0  0  0  0  0  0  0  0  0  0  0
  192.3860  176.4500  146.3590 O   0  0  0  0  0  0  0  0  0  0  0  0
  191.3110  177.2210  148.6190 O   0  0  0  0  0  0  0  0  0  0  0  0
  191.3710  176.2490  147.4640 P   0  0  0  0  0  0  0  0  0  0  0  0
  2  3  1  0  0  0  0
  2  8  1  1  0  0  0
  2  7  1  0  0  0  0
  3 30  1  1  0  0  0
  3  1  1  0  0  0  0
  4  1  1  0  0  0  0
  5  4  2  0  0  0  0
  6  7  1  0  0  0  0
  6  5  1  0  0  0  0
  8  9  1  0  0  0  0
 10  9  1  0  0  0  0
 12 10  1  0  0  0  0
 12 11  2  0  0  0  0
 13 19  1  0  0  0  0
 14 15  1  0  0  0  0
 15 19  1  0  0  0  0
 16 21  1  6  0  0  0
 16 18  1  0  0  0  0
 16 14  1  0  0  0  0
 17 11  1  0  0  0  0
 17 18  1  0  0  0  0
 18 13  1  0  0  0  0
 20 17  2  0  0  0  0
 22 21  2  0  0  0  0
 23 21  1  0  0  0  0
 25 24  1  1  0  0  0
 25 23  1  0  0  0  0
 26 25  1  0  0  0  0
 27 28  1  0  0  0  0
 28 26  1  0  0  0  0
 29 28  2  0  0  0  0
 31 33  1  0  0  0  0
 31 34  2  0  0  0  0
 32 31  1  0  0  0  0
 33 38  1  0  0  0  0
 35 33  1  0  0  0  0
 36 37  1  0  0  0  0
 36 32  1  0  0  0  0
 37 30  1  6  0  0  0
 37 35  1  0  0  0  0
 38 39  1  0  0  0  0
 39 40  2  0  0  0  0
 41 39  1  0  0  0  0
 41 42  1  0  0  0  0
 43 42  1  0  0  0  0
 43 44  1  0  0  0  0
 44 47  1  0  0  0  0
 45 47  2  0  0  0  0
 47 46  2  0  0  0  0
M  END
>  <MODEL>
7

>  <REMARK>
 VINA RESULT:      -5.8      3.759      9.513
  Name = 
  19 active torsions:
  status: ('A' for Active; 'I' for Inactive)
    1  A    between atoms: O_2  and  C_24
    2  A    between atoms: O_2  and  C_46
    3  A    between atoms: C_4  and  C_32
    4  A    between atoms: C_4  and  C_35
    5  A    between atoms: C_5  and  C_29
    6  A    between atoms: C_5  and  C_37
    7  A    between atoms: N_8  and  C_47
    8  A    between atoms: C_9  and  C_33
    9  A    between atoms: C_11  and  C_19
   10  A    between atoms: C_11  and  C_22
   11  A    between atoms: C_13  and  C_19
   12  A    between atoms: C_15  and  C_17
   13  A    between atoms: C_15  and  C_27
   14  A    between atoms: C_22  and  C_31
   15  A    between atoms: N_23  and  C_32
   16  A    between atoms: N_23  and  O_41
   17  A    between atoms: C_27  and  C_37
   18  A    between atoms: P_30  and  O_41
   19  A    between atoms: C_35  and  C_47
                            x       y       z     vdW  Elec       q    Type
                         _______ _______ _______ _____ _____    ______ ____

>  <TORSDO>
F 19

$$$$
=
 OpenBabel11072409013D

 47 49  0  0  1  0  0  0  0  0999 V2000
  195.1150  170.2570  143.5970 C   0  0  0  0  0  2  0  0  0  0  0  0
  195.4460  171.8760  145.5350 C   0  0  1  0  0  3  0  0  0  0  0  0
  194.4730  171.3280  144.4670 C   0  0  1  0  0  3  0  0  0  0  0  0
  194.9430  168.9150  144.2400 C   0  0  0  0  0  3  0  0  0  0  0  0
  195.2370  168.6410  145.5170 C   0  0  0  0  0  3  0  0  0  0  0  0
  195.7920  169.5910  146.4440 N   0  0  0  0  0  2  0  0  0  0  0  0
  196.4430  170.8400  146.0670 C   0  0  0  0  0  2  0  0  0  0  0  0
  196.1670  173.1630  145.1140 C   0  0  0  0  0  2  0  0  0  0  0  0
  196.0280  174.2840  146.1410 C   0  0  0  0  0  2  0  0  0  0  0  0
  195.2280  175.4450  145.5720 C   0  0  0  0  0  2  0  0  0  0  0  0
  193.1040  175.9100  146.6810 C   0  0  0  0  0  3  0  0  0  0  0  0
  193.7730  175.2100  145.7740 C   0  0  0  0  0  3  0  0  0  0  0  0
  191.1350  176.7480  144.6650 C   0  0  0  0  0  2  0  0  0  0  0  0
  188.6970  175.2200  144.8570 O   0  0  0  0  0  0  0  0  0  0  0  0
  188.9030  176.1380  143.8040 C   0  0  0  0  0  2  0  0  0  0  0  0
  189.2950  175.7090  146.0450 C   0  0  1  0  0  3  0  0  0  0  0  0
  191.6610  175.7210  146.9020 C   0  0  0  0  0  0  0  0  0  0  0  0
  190.7190  176.0160  145.8590 N   0  0  0  0  0  0  0  0  0  0  0  0
  190.3820  176.2270  143.4530 C   0  0  0  0  0  2  0  0  0  0  0  0
  191.2510  175.2740  148.0100 O   0  0  0  0  0  0  0  0  0  0  0  0
  188.5340  176.8490  146.6660 C   0  0  0  0  0  0  0  0  0  0  0  0
  189.1180  177.8410  147.0760 O   0  0  0  0  0  0  0  0  0  0  0  0
  187.0450  176.7460  146.8030 C   0  0  0  0  0  2  0  0  0  0  0  0
  186.2510  178.5980  148.0940 F   0  0  0  0  0  0  0  0  0  0  0  0
  186.3660  178.1130  146.8020 C   0  0  2  0  0  3  0  0  0  0  0  0
  185.0030  178.0590  146.1220 C   0  0  0  0  0  2  0  0  0  0  0  0
  183.8270  178.7420  143.9180 C   0  0  0  0  0  1  0  0  0  0  0  0
  185.0600  178.6610  144.7560 C   0  0  0  0  0  0  0  0  0  0  0  0
  186.2310  179.0340  144.2440 C   0  0  0  0  0  2  0  0  0  0  0  0
  193.9370  172.3500  143.6740 O   0  0  0  0  0  0  0  0  0  0  0  0
  189.7960  172.2690  143.0000 C   0  0  0  0  0  0  0  0  0  0  0  0
  190.2830  172.2590  144.4200 C   0  0  0  0  0  2  0  0  0  0  0  0
  190.7280  172.1270  141.9140 N   0  0  0  0  0  0  0  0  0  0  0  0
  188.5580  172.3150  142.7730 O   0  0  0  0  0  0  0  0  0  0  0  0
  192.1420  172.4390  142.1040 C   0  0  0  0  0  2  0  0  0  0  0  0
  191.7360  172.7170  144.5240 C   0  0  0  0  0  2  0  0  0  0  0  0
  192.5960  172.0020  143.4900 C   0  0  2  0  0  3  0  0  0  0  0  0
  190.2940  171.5840  140.6340 C   0  0  0  0  0  2  0  0  0  0  0  0
  190.3090  172.6570  139.5940 C   0  0  0  0  0  0  0  0  0  0  0  0
  189.5760  173.6250  139.7100 O   0  0  0  0  0  0  0  0  0  0  0  0
  191.2260  172.5430  138.4210 C   0  0  0  0  0  2  0  0  0  0  0  0
  192.0670  173.8020  138.2820 C   0  0  0  0  0  2  0  0  0  0  0  0
  193.4600  173.4850  138.5530 N   0  0  0  0  0  2  0  0  0  0  0  0
  194.1570  174.6410  138.4340 O   0  0  0  0  0  0  0  0  0  0  0  0
  193.9890  175.0070  141.1830 O   0  0  0  0  0  0  0  0  0  0  0  0
  196.3680  174.9500  140.0890 O   0  0  0  0  0  0  0  0  0  0  0  0
  194.8650  174.8750  139.9550 P   0  0  0  0  0  0  0  0  0  0  0  0
  1  4  1  0  0  0  0
  1  3  1  0  0  0  0
  2  8  1  6  0  0  0
  2  7  1  0  0  0  0
  3 30  1  6  0  0  0
  3  2  1  0  0  0  0
  4  5  2  0  0  0  0
  5  6  1  0  0  0  0
  7  6  1  0  0  0  0
  8  9  1  0  0  0  0
 10 12  1  0  0  0  0
 10  9  1  0  0  0  0
 11 17  1  0  0  0  0
 12 11  2  0  0  0  0
 13 18  1  0  0  0  0
 14 16  1  0  0  0  0
 15 14  1  0  0  0  0
 16 21  1  6  0  0  0
 17 20  2  0  0  0  0
 18 16  1  0  0  0  0
 18 17  1  0  0  0  0
 19 15  1  0  0  0  0
 19 13  1  0  0  0  0
 21 23  1  0  0  0  0
 21 22  2  0  0  0  0
 25 23  1  0  0  0  0
 25 24  1  1  0  0  0
 26 25  1  0  0  0  0
 27 28  1  0  0  0  0
 28 26  1  0  0  0  0
 29 28  2  0  0  0  0
 31 32  1  0  0  0  0
 32 36  1  0  0  0  0
 33 35  1  0  0  0  0
 33 31  1  0  0  0  0
 34 31  2  0  0  0  0
 35 37  1  0  0  0  0
 37 30  1  1  0  0  0
 37 36  1  0  0  0  0
 38 33  1  0  0  0  0
 39 40  2  0  0  0  0
 39 38  1  0  0  0  0
 41 39  1  0  0  0  0
 42 41  1  0  0  0  0
 42 43  1  0  0  0  0
 44 43  1  0  0  0  0
 44 47  1  0  0  0  0
 47 46  2  0  0  0  0
 47 45  2  0  0  0  0
M  END
>  <MODEL>
8

>  <REMARK>
 VINA RESULT:      -5.8      2.534      3.947
  Name = 
  19 active torsions:
  status: ('A' for Active; 'I' for Inactive)
    1  A    between atoms: O_2  and  C_24
    2  A    between atoms: O_2  and  C_46
    3  A    between atoms: C_4  and  C_32
    4  A    between atoms: C_4  and  C_35
    5  A    between atoms: C_5  and  C_29
    6  A    between atoms: C_5  and  C_37
    7  A    between atoms: N_8  and  C_47
    8  A    between atoms: C_9  and  C_33
    9  A    between atoms: C_11  and  C_19
   10  A    between atoms: C_11  and  C_22
   11  A    between atoms: C_13  and  C_19
   12  A    between atoms: C_15  and  C_17
   13  A    between atoms: C_15  and  C_27
   14  A    between atoms: C_22  and  C_31
   15  A    between atoms: N_23  and  C_32
   16  A    between atoms: N_23  and  O_41
   17  A    between atoms: C_27  and  C_37
   18  A    between atoms: P_30  and  O_41
   19  A    between atoms: C_35  and  C_47
                            x       y       z     vdW  Elec       q    Type
                         _______ _______ _______ _____ _____    ______ ____

>  <TORSDO>
F 19

$$$$
=
 OpenBabel11072409013D

 47 49  0  0  1  0  0  0  0  0999 V2000
  186.9180  178.9170  146.3270 C   0  0  0  0  0  2  0  0  0  0  0  0
  185.5190  177.9980  144.4070 C   0  0  1  0  0  3  0  0  0  0  0  0
  186.7590  177.7990  145.3070 C   0  0  1  0  0  3  0  0  0  0  0  0
  186.1400  178.5850  147.5640 C   0  0  0  0  0  3  0  0  0  0  0  0
  184.8600  178.1930  147.5750 C   0  0  0  0  0  3  0  0  0  0  0  0
  184.0400  178.0680  146.4010 N   0  0  0  0  0  2  0  0  0  0  0  0
  184.3360  178.6760  145.1080 C   0  0  0  0  0  2  0  0  0  0  0  0
  185.8270  178.6830  143.0690 C   0  0  0  0  0  2  0  0  0  0  0  0
  185.8040  177.7170  141.8880 C   0  0  0  0  0  2  0  0  0  0  0  0
  187.0800  177.8290  141.0700 C   0  0  0  0  0  2  0  0  0  0  0  0
  188.1830  175.6680  141.3430 C   0  0  0  0  0  3  0  0  0  0  0  0
  187.4840  176.4870  140.5680 C   0  0  0  0  0  3  0  0  0  0  0  0
  190.1360  174.0810  142.8630 C   0  0  0  0  0  2  0  0  0  0  0  0
  189.7860  171.2530  142.4220 O   0  0  0  0  0  0  0  0  0  0  0  0
  190.7050  171.7350  143.3780 C   0  0  0  0  0  2  0  0  0  0  0  0
  189.7450  172.1310  141.3100 C   0  0  1  0  0  3  0  0  0  0  0  0
  188.5890  174.3270  140.8930 C   0  0  0  0  0  0  0  0  0  0  0  0
  189.4440  173.5120  141.7100 N   0  0  0  0  0  0  0  0  0  0  0  0
  190.2180  173.0490  143.9750 C   0  0  0  0  0  2  0  0  0  0  0  0
  188.1640  173.8820  139.7900 O   0  0  0  0  0  0  0  0  0  0  0  0
  190.9640  172.0340  140.4330 C   0  0  0  0  0  0  0  0  0  0  0  0
  191.2180  171.0030  139.8280 O   0  0  0  0  0  0  0  0  0  0  0  0
  191.8850  173.2110  140.3270 C   0  0  0  0  0  2  0  0  0  0  0  0
  193.2520  173.6410  142.2430 F   0  0  0  0  0  0  0  0  0  0  0  0
  193.2180  172.9720  141.0320 C   0  0  2  0  0  3  0  0  0  0  0  0
  194.3940  173.3810  140.1540 C   0  0  0  0  0  2  0  0  0  0  0  0
  194.7560  175.9100  140.5760 C   0  0  0  0  0  1  0  0  0  0  0  0
  195.1720  174.4920  140.7820 C   0  0  0  0  0  0  0  0  0  0  0  0
  196.2970  174.2230  141.4430 C   0  0  0  0  0  2  0  0  0  0  0  0
  187.9320  177.6490  144.5560 O   0  0  0  0  0  0  0  0  0  0  0  0
  190.8930  175.5070  146.6190 C   0  0  0  0  0  0  0  0  0  0  0  0
  189.4590  175.2870  147.0080 C   0  0  0  0  0  2  0  0  0  0  0  0
  191.2410  176.5530  145.6950 N   0  0  0  0  0  0  0  0  0  0  0  0
  191.7940  174.8250  147.1760 O   0  0  0  0  0  0  0  0  0  0  0  0
  190.2420  177.0930  144.7770 C   0  0  0  0  0  2  0  0  0  0  0  0
  188.4980  175.7770  145.9270 C   0  0  0  0  0  2  0  0  0  0  0  0
  188.8840  177.1750  145.4610 C   0  0  2  0  0  3  0  0  0  0  0  0
  192.5680  177.1520  145.7220 C   0  0  0  0  0  2  0  0  0  0  0  0
  193.4050  176.5850  144.6220 C   0  0  0  0  0  0  0  0  0  0  0  0
  192.9060  176.3670  143.5290 O   0  0  0  0  0  0  0  0  0  0  0  0
  194.8490  176.2950  144.8610 C   0  0  0  0  0  2  0  0  0  0  0  0
  195.0040  175.1080  145.8000 C   0  0  0  0  0  2  0  0  0  0  0  0
  194.2810  173.9680  145.2600 N   0  0  0  0  0  2  0  0  0  0  0  0
  195.1680  173.2490  144.5300 O   0  0  0  0  0  0  0  0  0  0  0  0
  194.6750  170.7740  145.6890 O   0  0  0  0  0  0  0  0  0  0  0  0
  196.9230  171.9820  146.2720 O   0  0  0  0  0  0  0  0  0  0  0  0
  195.6060  171.9570  145.5340 P   0  0  0  0  0  0  0  0  0  0  0  0
  1  4  1  0  0  0  0
  2  8  1  6  0  0  0
  2  7  1  0  0  0  0
  2  3  1  0  0  0  0
  3 30  1  6  0  0  0
  3  1  1  0  0  0  0
  4  5  2  0  0  0  0
  6  5  1  0  0  0  0
  7  6  1  0  0  0  0
  9  8  1  0  0  0  0
 10  9  1  0  0  0  0
 12 10  1  0  0  0  0
 12 11  2  0  0  0  0
 13 19  1  0  0  0  0
 14 15  1  0  0  0  0
 15 19  1  0  0  0  0
 16 21  1  1  0  0  0
 16 18  1  0  0  0  0
 16 14  1  0  0  0  0
 17 11  1  0  0  0  0
 17 18  1  0  0  0  0
 18 13  1  0  0  0  0
 20 17  2  0  0  0  0
 22 21  2  0  0  0  0
 23 21  1  0  0  0  0
 23 25  1  0  0  0  0
 25 24  1  1  0  0  0
 26 28  1  0  0  0  0
 26 25  1  0  0  0  0
 27 28  1  0  0  0  0
 28 29  2  0  0  0  0
 31 32  1  0  0  0  0
 31 34  2  0  0  0  0
 33 38  1  0  0  0  0
 33 31  1  0  0  0  0
 35 37  1  0  0  0  0
 35 33  1  0  0  0  0
 36 32  1  0  0  0  0
 37 30  1  6  0  0  0
 37 36  1  0  0  0  0
 39 41  1  0  0  0  0
 39 38  1  0  0  0  0
 40 39  2  0  0  0  0
 41 42  1  0  0  0  0
 43 42  1  0  0  0  0
 44 43  1  0  0  0  0
 44 47  1  0  0  0  0
 47 45  2  0  0  0  0
 47 46  2  0  0  0  0
M  END
>  <MODEL>
9

>  <REMARK>
 VINA RESULT:      -5.8      3.031      8.532
  Name = 
  19 active torsions:
  status: ('A' for Active; 'I' for Inactive)
    1  A    between atoms: O_2  and  C_24
    2  A    between atoms: O_2  and  C_46
    3  A    between atoms: C_4  and  C_32
    4  A    between atoms: C_4  and  C_35
    5  A    between atoms: C_5  and  C_29
    6  A    between atoms: C_5  and  C_37
    7  A    between atoms: N_8  and  C_47
    8  A    between atoms: C_9  and  C_33
    9  A    between atoms: C_11  and  C_19
   10  A    between atoms: C_11  and  C_22
   11  A    between atoms: C_13  and  C_19
   12  A    between atoms: C_15  and  C_17
   13  A    between atoms: C_15  and  C_27
   14  A    between atoms: C_22  and  C_31
   15  A    between atoms: N_23  and  C_32
   16  A    between atoms: N_23  and  O_41
   17  A    between atoms: C_27  and  C_37
   18  A    between atoms: P_30  and  O_41
   19  A    between atoms: C_35  and  C_47
                            x       y       z     vdW  Elec       q    Type
                         _______ _______ _______ _____ _____    ______ ____

>  <TORSDO>
F 19

$$$$
