=
 OpenBabel11062420123D

 52 57  0  0  1  0  0  0  0  0999 V2000
  189.1860  174.1290  142.0060 C   0  0  1  0  0  3  0  0  0  0  0  0
  190.5260  174.1210  141.2740 C   0  0  0  0  0  1  0  0  0  0  0  0
  188.1400  174.9940  141.3030 C   0  0  2  0  0  3  0  0  0  0  0  0
  188.1940  174.8140  139.9160 O   0  0  0  0  0  1  0  0  0  0  0  0
  188.3040  176.4730  141.6760 C   0  0  2  0  0  3  0  0  0  0  0  0
  189.4150  177.8940  143.4090 C   0  0  0  0  0  1  0  0  0  0  0  0
  188.6530  176.6130  143.1530 C   0  0  0  0  0  2  0  0  0  0  0  0
  187.0560  177.2960  141.3470 C   0  0  0  0  0  2  0  0  0  0  0  0
  185.9300  176.8240  142.0410 O   0  0  0  0  0  0  0  0  0  0  0  0
  185.2030  177.9630  142.4260 C   0  0  1  0  0  3  0  0  0  0  0  0
  184.0190  178.1750  141.5300 C   0  0  0  0  0  0  0  0  0  0  0  0
  182.8530  178.0720  141.9970 O   0  0  0  0  0  1  0  0  0  0  0  0
  184.1940  178.4690  140.1830 O   0  0  0  0  0  0  0  0  0  0  0  0
  184.7450  177.8520  143.8860 C   0  0  2  0  0  3  0  0  0  0  0  0
  185.5260  180.2330  144.3050 C   0  0  0  0  0  1  0  0  0  0  0  0
  184.4110  179.2150  144.4950 C   0  0  0  0  0  2  0  0  0  0  0  0
  185.7160  177.0430  144.7430 C   0  0  0  0  0  2  0  0  0  0  0  0
  185.4760  177.2660  146.1030 O   0  0  0  0  0  0  0  0  0  0  0  0
  186.7240  177.5840  146.6460 C   0  0  0  0  0  2  0  0  0  0  0  0
  187.4760  176.3130  147.0200 C   0  0  0  0  0  2  0  0  0  0  0  0
  188.9610  176.5050  146.7750 C   0  0  0  0  0  2  0  0  0  0  0  0
  188.9070  174.2760  147.6210 O   0  0  0  0  0  1  0  0  0  0  0  0
  189.6930  175.1760  146.8900 C   0  0  2  0  0  3  0  0  0  0  0  0
  191.9310  176.2830  146.7540 C   0  0  0  0  0  2  0  0  0  0  0  0
  191.1640  176.8730  147.9160 C   0  0  0  0  0  2  0  0  0  0  0  0
  191.0260  175.3990  147.5940 C   0  0  0  0  0  3  0  0  0  0  0  0
  188.6480  172.7160  142.2210 C   0  0  0  0  0  2  0  0  0  0  0  0
  189.7050  171.8050  142.7600 C   0  0  0  0  0  0  0  0  0  0  0  0
  190.1010  170.8600  142.0290 O   0  0  0  0  0  0  0  0  0  0  0  0
  189.5210  171.9790  145.1390 N   0  0  0  0  0  2  0  0  0  0  0  0
  190.2980  171.9880  144.1040 C   0  0  0  0  0  0  0  0  0  0  0  0
  192.1890  173.0450  145.0820 O   0  0  0  0  0  0  0  0  0  0  0  0
  191.7510  172.1600  144.2960 C   0  0  0  0  0  0  0  0  0  0  0  0
  192.7320  171.2800  143.5800 C   0  0  0  0  0  2  0  0  0  0  0  0
  194.0260  172.8680  141.9040 C   0  0  1  0  0  3  0  0  0  0  0  0
  195.0470  172.1030  144.0280 O   0  0  0  0  0  1  0  0  0  0  0  0
  194.4700  171.5250  141.8690 O   0  0  0  0  0  0  0  0  0  0  0  0
  194.0030  171.9960  143.1090 C   0  0  1  0  0  0  0  0  0  0  0  0
  195.2270  173.8040  141.8860 C   0  0  1  0  0  3  0  0  0  0  0  0
  196.9310  174.1810  137.2540 O   0  0  0  0  0  0  0  0  0  0  0  0
  197.4670  175.0390  139.5540 C   0  0  0  0  0  2  0  0  0  0  0  0
  195.4210  174.6700  140.6440 C   0  0  2  0  0  0  0  0  0  0  0  0
  196.3620  176.9320  141.4180 C   0  0  0  0  0  1  0  0  0  0  0  0
  194.8260  175.2670  142.9200 S   0  0  0  0  0  0  0  0  0  0  0  0
  196.2550  174.1780  139.4260 C   0  0  1  0  0  0  0  0  0  0  0  0
  197.9260  175.1180  137.4110 C   0  0  0  0  0  2  0  0  0  0  0  0
  195.1480  176.0290  141.2810 C   0  0  2  0  0  3  0  0  0  0  0  0
  196.7000  175.1430  138.2790 C   0  0  2  0  0  0  0  0  0  0  0  0
  194.7430  174.5150  139.3250 C   0  0  1  0  0  3  0  0  0  0  0  0
  193.9660  173.2260  139.0900 C   0  0  0  0  0  2  0  0  0  0  0  0
  192.8480  173.4710  138.2930 O   0  0  0  0  0  0  0  0  0  0  0  0
  193.0840  174.7300  137.7400 C   0  0  0  0  0  1  0  0  0  0  0  0
  1  2  1  6  0  0  0
  1 27  1  0  0  0  0
  3  4  1  6  0  0  0
  3  5  1  0  0  0  0
  3  1  1  0  0  0  0
  5  8  1  1  0  0  0
  5  7  1  0  0  0  0
  7  6  1  0  0  0  0
  8  9  1  0  0  0  0
  9 10  1  0  0  0  0
 10 11  1  6  0  0  0
 10 14  1  0  0  0  0
 11 12  1  0  0  0  0
 13 11  2  0  0  0  0
 14 16  1  1  0  0  0
 14 17  1  0  0  0  0
 15 16  1  0  0  0  0
 17 18  1  0  0  0  0
 18 19  1  0  0  0  0
 19 20  1  0  0  0  0
 21 23  1  0  0  0  0
 21 20  1  0  0  0  0
 23 26  1  0  0  0  0
 23 22  1  1  0  0  0
 24 26  1  0  0  0  0
 24 25  1  0  0  0  0
 26 25  1  0  0  0  0
 27 28  1  0  0  0  0
 28 31  1  0  0  0  0
 29 28  2  0  0  0  0
 31 33  1  0  0  0  0
 31 30  2  0  0  0  0
 33 32  2  0  0  0  0
 34 33  1  0  0  0  0
 35 37  1  6  0  0  0
 35 38  1  0  0  0  0
 37 38  1  0  0  0  0
 38 34  1  0  0  0  0
 38 36  1  1  0  0  0
 39 35  1  0  0  0  0
 39 44  1  1  0  0  0
 40 46  1  0  0  0  0
 40 48  1  0  0  0  0
 42 47  1  0  0  0  0
 42 39  1  0  0  0  0
 45 41  1  0  0  0  0
 45 42  1  0  0  0  0
 46 48  1  0  0  0  0
 47 43  1  0  0  0  0
 47 44  1  0  0  0  0
 48 45  1  0  0  0  0
 48 41  1  0  0  0  0
 49 45  1  0  0  0  0
 49 42  1  0  0  0  0
 50 49  1  0  0  0  0
 51 50  1  0  0  0  0
 52 51  1  0  0  0  0
M  END
>  <MODEL>
1

>  <REMARK>
 VINA RESULT:      -5.9      0.000      0.000
  Name = 
  25 active torsions:
  status: ('A' for Active; 'I' for Inactive)
    1  A    between atoms: C_2  and  C_6
    2  A    between atoms: C_7  and  O_42
    3  A    between atoms: C_7  and  C_50
    4  A    between atoms: C_11  and  C_18
    5  A    between atoms: C_11  and  C_22
    6  A    between atoms: C_11  and  O_35
    7  A    between atoms: C_12  and  C_43
    8  A    between atoms: C_12  and  C_47
    9  A    between atoms: C_13  and  C_25
   10  A    between atoms: C_13  and  C_30
   11  A    between atoms: C_14  and  C_26
   12  A    between atoms: C_14  and  O_35
   13  A    between atoms: C_19  and  C_22
   14  A    between atoms: O_20  and  C_38
   15  A    between atoms: O_20  and  C_47
   16  A    between atoms: C_21  and  C_26
   17  A    between atoms: C_21  and  C_37
   18  A    between atoms: C_22  and  C_38
   19  A    between atoms: C_25  and  C_40
   20  A    between atoms: C_26  and  C_31
   21  A    between atoms: C_30  and  C_44
   22  A    between atoms: C_37  and  C_44
   23  A    between atoms: C_40  and  C_51
   24  A    between atoms: C_41  and  C_43
   25  A    between atoms: C_41  and  C_48
                            x       y       z     vdW  Elec       q    Type
                         _______ _______ _______ _____ _____    ______ ____

>  <TORSDO>
F 25

$$$$
=
 OpenBabel11062420123D

 52 57  0  0  1  0  0  0  0  0999 V2000
  193.2320  171.9840  143.9310 C   0  0  1  0  0  3  0  0  0  0  0  0
  192.2490  172.8820  144.6780 C   0  0  0  0  0  1  0  0  0  0  0  0
  194.5030  171.7130  144.7360 C   0  0  2  0  0  3  0  0  0  0  0  0
  194.2010  171.4730  146.0820 O   0  0  0  0  0  1  0  0  0  0  0  0
  195.5070  172.8650  144.5910 C   0  0  2  0  0  3  0  0  0  0  0  0
  197.9400  173.4420  144.5420 C   0  0  0  0  0  1  0  0  0  0  0  0
  196.9260  172.3210  144.4790 C   0  0  0  0  0  2  0  0  0  0  0  0
  195.4120  173.8640  145.7470 C   0  0  0  0  0  2  0  0  0  0  0  0
  195.4940  175.1900  145.2910 O   0  0  0  0  0  0  0  0  0  0  0  0
  194.1710  175.6320  145.1360 C   0  0  1  0  0  3  0  0  0  0  0  0
  193.7640  176.5230  146.2710 C   0  0  0  0  0  0  0  0  0  0  0  0
  192.6180  176.4050  146.7830 O   0  0  0  0  0  1  0  0  0  0  0  0
  194.6330  177.4930  146.7560 O   0  0  0  0  0  0  0  0  0  0  0  0
  193.9930  176.3670  143.8010 C   0  0  2  0  0  3  0  0  0  0  0  0
  191.8910  177.6210  143.1160 C   0  0  0  0  0  1  0  0  0  0  0  0
  192.5630  176.2640  143.2670 C   0  0  0  0  0  2  0  0  0  0  0  0
  195.0410  175.9620  142.7660 C   0  0  0  0  0  2  0  0  0  0  0  0
  196.1480  176.8150  142.8260 O   0  0  0  0  0  0  0  0  0  0  0  0
  197.1320  176.1880  142.0570 C   0  0  0  0  0  2  0  0  0  0  0  0
  196.5460  174.9860  141.3270 C   0  0  0  0  0  2  0  0  0  0  0  0
  197.6650  174.0810  140.8490 C   0  0  0  0  0  2  0  0  0  0  0  0
  197.0260  173.8670  138.5610 O   0  0  0  0  0  1  0  0  0  0  0  0
  197.1620  173.1500  139.7560 C   0  0  2  0  0  3  0  0  0  0  0  0
  195.6970  171.1240  139.7200 C   0  0  0  0  0  2  0  0  0  0  0  0
  196.0610  171.4380  141.1540 C   0  0  0  0  0  2  0  0  0  0  0  0
  195.8180  172.5680  140.1740 C   0  0  0  0  0  3  0  0  0  0  0  0
  192.5860  170.6690  143.5010 C   0  0  0  0  0  2  0  0  0  0  0  0
  192.5250  170.5520  142.0110 C   0  0  0  0  0  0  0  0  0  0  0  0
  193.0980  169.5710  141.4710 O   0  0  0  0  0  0  0  0  0  0  0  0
  192.2520  171.7830  139.9770 N   0  0  0  0  0  2  0  0  0  0  0  0
  191.8090  171.5370  141.1680 C   0  0  0  0  0  0  0  0  0  0  0  0
  189.6650  171.5770  142.1910 O   0  0  0  0  0  0  0  0  0  0  0  0
  190.5960  172.2290  141.6430 C   0  0  0  0  0  0  0  0  0  0  0  0
  190.4530  173.7160  141.5030 C   0  0  0  0  0  2  0  0  0  0  0  0
  189.0010  175.5040  142.8050 C   0  0  1  0  0  3  0  0  0  0  0  0
  187.9630  173.8090  141.3270 O   0  0  0  0  0  1  0  0  0  0  0  0
  188.9500  174.2100  143.3750 O   0  0  0  0  0  0  0  0  0  0  0  0
  189.1060  174.2730  141.9780 C   0  0  1  0  0  0  0  0  0  0  0  0
  187.6030  176.1070  142.7780 C   0  0  1  0  0  3  0  0  0  0  0  0
  186.2500  177.3000  147.3870 O   0  0  0  0  0  0  0  0  0  0  0  0
  185.3200  177.3650  145.0550 C   0  0  0  0  0  2  0  0  0  0  0  0
  187.2930  177.2030  143.7930 C   0  0  2  0  0  0  0  0  0  0  0  0
  185.7300  178.8940  142.6520 C   0  0  0  0  0  1  0  0  0  0  0  0
  187.5190  177.2910  141.3790 S   0  0  0  0  0  0  0  0  0  0  0  0
  186.7210  176.8750  145.2030 C   0  0  1  0  0  0  0  0  0  0  0  0
  185.0360  177.9040  147.1610 C   0  0  0  0  0  2  0  0  0  0  0  0
  187.1460  178.3670  142.8190 C   0  0  2  0  0  3  0  0  0  0  0  0
  186.1350  177.9800  146.1410 C   0  0  2  0  0  0  0  0  0  0  0  0
  188.0940  177.5670  144.9960 C   0  0  1  0  0  3  0  0  0  0  0  0
  189.1990  176.6040  145.4130 C   0  0  0  0  0  2  0  0  0  0  0  0
  189.3460  176.6050  146.8000 O   0  0  0  0  0  0  0  0  0  0  0  0
  189.3920  175.2550  147.1460 C   0  0  0  0  0  1  0  0  0  0  0  0
  1  2  1  1  0  0  0
  1  3  1  0  0  0  0
  3  4  1  1  0  0  0
  5  7  1  1  0  0  0
  5  3  1  0  0  0  0
  5  8  1  0  0  0  0
  7  6  1  0  0  0  0
  9  8  1  0  0  0  0
 10  9  1  1  0  0  0
 10 11  1  0  0  0  0
 11 13  2  0  0  0  0
 11 12  1  0  0  0  0
 14 17  1  6  0  0  0
 14 10  1  0  0  0  0
 15 16  1  0  0  0  0
 16 14  1  0  0  0  0
 17 18  1  0  0  0  0
 19 18  1  0  0  0  0
 20 19  1  0  0  0  0
 21 20  1  0  0  0  0
 23 22  1  6  0  0  0
 23 26  1  0  0  0  0
 23 21  1  0  0  0  0
 24 26  1  0  0  0  0
 24 25  1  0  0  0  0
 26 25  1  0  0  0  0
 27  1  1  0  0  0  0
 28 27  1  0  0  0  0
 29 28  2  0  0  0  0
 30 31  2  0  0  0  0
 31 33  1  0  0  0  0
 31 28  1  0  0  0  0
 33 32  2  0  0  0  0
 34 33  1  0  0  0  0
 34 38  1  0  0  0  0
 35 37  1  1  0  0  0
 38 36  1  6  0  0  0
 38 35  1  0  0  0  0
 38 37  1  0  0  0  0
 39 44  1  6  0  0  0
 39 35  1  0  0  0  0
 39 42  1  0  0  0  0
 41 45  1  0  0  0  0
 41 48  1  0  0  0  0
 42 49  1  0  0  0  0
 42 45  1  0  0  0  0
 43 47  1  0  0  0  0
 44 47  1  0  0  0  0
 45 48  1  0  0  0  0
 46 40  1  0  0  0  0
 47 42  1  0  0  0  0
 48 46  1  0  0  0  0
 48 40  1  0  0  0  0
 49 45  1  0  0  0  0
 49 50  1  0  0  0  0
 50 51  1  0  0  0  0
 51 52  1  0  0  0  0
M  END
>  <MODEL>
2

>  <REMARK>
 VINA RESULT:      -5.9      2.645      9.307
  Name = 
  25 active torsions:
  status: ('A' for Active; 'I' for Inactive)
    1  A    between atoms: C_2  and  C_6
    2  A    between atoms: C_7  and  O_42
    3  A    between atoms: C_7  and  C_50
    4  A    between atoms: C_11  and  C_18
    5  A    between atoms: C_11  and  C_22
    6  A    between atoms: C_11  and  O_35
    7  A    between atoms: C_12  and  C_43
    8  A    between atoms: C_12  and  C_47
    9  A    between atoms: C_13  and  C_25
   10  A    between atoms: C_13  and  C_30
   11  A    between atoms: C_14  and  C_26
   12  A    between atoms: C_14  and  O_35
   13  A    between atoms: C_19  and  C_22
   14  A    between atoms: O_20  and  C_38
   15  A    between atoms: O_20  and  C_47
   16  A    between atoms: C_21  and  C_26
   17  A    between atoms: C_21  and  C_37
   18  A    between atoms: C_22  and  C_38
   19  A    between atoms: C_25  and  C_40
   20  A    between atoms: C_26  and  C_31
   21  A    between atoms: C_30  and  C_44
   22  A    between atoms: C_37  and  C_44
   23  A    between atoms: C_40  and  C_51
   24  A    between atoms: C_41  and  C_43
   25  A    between atoms: C_41  and  C_48
                            x       y       z     vdW  Elec       q    Type
                         _______ _______ _______ _____ _____    ______ ____

>  <TORSDO>
F 25

$$$$
=
 OpenBabel11062420123D

 52 57  0  0  1  0  0  0  0  0999 V2000
  193.2940  174.9840  142.3840 C   0  0  1  0  0  3  0  0  0  0  0  0
  191.9340  174.9560  141.6890 C   0  0  0  0  0  1  0  0  0  0  0  0
  194.4530  174.7730  141.4090 C   0  0  2  0  0  3  0  0  0  0  0  0
  194.5300  175.8250  140.4890 O   0  0  0  0  0  1  0  0  0  0  0  0
  194.3360  173.4200  140.6950 C   0  0  2  0  0  3  0  0  0  0  0  0
  195.8500  172.7390  142.5660 C   0  0  0  0  0  1  0  0  0  0  0  0
  195.4700  172.4950  141.1220 C   0  0  0  0  0  2  0  0  0  0  0  0
  194.3210  173.5690  139.1720 C   0  0  0  0  0  2  0  0  0  0  0  0
  193.2970  172.8060  138.5880 O   0  0  0  0  0  0  0  0  0  0  0  0
  192.3660  173.7260  138.0800 C   0  0  1  0  0  3  0  0  0  0  0  0
  192.8930  174.4020  136.8490 C   0  0  0  0  0  0  0  0  0  0  0  0
  193.2080  173.7140  135.8410 O   0  0  0  0  0  0  0  0  0  0  0  0
  193.0540  175.7820  136.8140 O   0  0  0  0  0  1  0  0  0  0  0  0
  191.0300  173.0380  137.7690 C   0  0  2  0  0  3  0  0  0  0  0  0
  188.6760  173.9720  137.9810 C   0  0  0  0  0  1  0  0  0  0  0  0
  189.9150  173.4820  138.7180 C   0  0  0  0  0  2  0  0  0  0  0  0
  191.1620  171.5190  137.6810 C   0  0  0  0  0  2  0  0  0  0  0  0
  190.3540  170.8980  138.6400 O   0  0  0  0  0  0  0  0  0  0  0  0
  191.2050  170.0220  139.3200 C   0  0  0  0  0  2  0  0  0  0  0  0
  190.9450  170.0910  140.8190 C   0  0  0  0  0  2  0  0  0  0  0  0
  191.3940  171.4370  141.3550 C   0  0  0  0  0  2  0  0  0  0  0  0
  193.0100  170.0560  142.4370 O   0  0  0  0  0  1  0  0  0  0  0  0
  192.2900  171.2500  142.5700 C   0  0  2  0  0  3  0  0  0  0  0  0
  191.5080  172.5210  144.5770 C   0  0  0  0  0  2  0  0  0  0  0  0
  190.3180  172.2280  143.6900 C   0  0  0  0  0  2  0  0  0  0  0  0
  191.4270  171.2040  143.8250 C   0  0  0  0  0  3  0  0  0  0  0  0
  193.4980  176.2700  143.1810 C   0  0  0  0  0  2  0  0  0  0  0  0
  194.3480  176.0350  144.3890 C   0  0  0  0  0  0  0  0  0  0  0  0
  195.5190  176.4960  144.3880 O   0  0  0  0  0  0  0  0  0  0  0  0
  194.2010  174.0600  145.7330 N   0  0  0  0  0  2  0  0  0  0  0  0
  193.8540  175.2970  145.5740 C   0  0  0  0  0  0  0  0  0  0  0  0
  193.4420  176.8740  147.3030 O   0  0  0  0  0  0  0  0  0  0  0  0
  192.9920  175.9380  146.5850 C   0  0  0  0  0  0  0  0  0  0  0  0
  191.5660  175.5090  146.7680 C   0  0  0  0  0  2  0  0  0  0  0  0
  189.3880  176.0790  145.3790 C   0  0  1  0  0  3  0  0  0  0  0  0
  190.4710  177.7510  146.8520 O   0  0  0  0  0  1  0  0  0  0  0  0
  190.5690  176.6350  144.8330 O   0  0  0  0  0  0  0  0  0  0  0  0
  190.5290  176.5020  146.2330 C   0  0  1  0  0  0  0  0  0  0  0  0
  188.2720  177.1150  145.3430 C   0  0  1  0  0  3  0  0  0  0  0  0
  186.5450  177.4970  140.7210 O   0  0  0  0  0  0  0  0  0  0  0  0
  186.1540  178.5080  142.9870 C   0  0  0  0  0  2  0  0  0  0  0  0
  187.1250  176.8750  144.3660 C   0  0  2  0  0  0  0  0  0  0  0  0
  184.9680  177.7120  145.4850 C   0  0  0  0  0  1  0  0  0  0  0  0
  187.1810  176.8270  146.7910 S   0  0  0  0  0  0  0  0  0  0  0  0
  187.1660  177.4150  142.9070 C   0  0  1  0  0  0  0  0  0  0  0  0
  185.5060  178.3810  140.8960 C   0  0  0  0  0  2  0  0  0  0  0  0
  186.0190  176.6190  145.3850 C   0  0  2  0  0  3  0  0  0  0  0  0
  185.9010  177.4290  141.9890 C   0  0  2  0  0  0  0  0  0  0  0  0
  187.0930  175.9010  143.2380 C   0  0  1  0  0  3  0  0  0  0  0  0
  188.4120  175.2460  142.8480 C   0  0  0  0  0  2  0  0  0  0  0  0
  188.3270  174.7090  141.5630 O   0  0  0  0  0  0  0  0  0  0  0  0
  187.5880  173.5380  141.7230 C   0  0  0  0  0  1  0  0  0  0  0  0
  1  2  1  6  0  0  0
  1 27  1  0  0  0  0
  3  4  1  6  0  0  0
  3  1  1  0  0  0  0
  5  8  1  6  0  0  0
  5  7  1  0  0  0  0
  5  3  1  0  0  0  0
  7  6  1  0  0  0  0
  9  8  1  0  0  0  0
 10 11  1  6  0  0  0
 10  9  1  0  0  0  0
 12 11  2  0  0  0  0
 13 11  1  0  0  0  0
 14 17  1  1  0  0  0
 14 10  1  0  0  0  0
 14 16  1  0  0  0  0
 15 16  1  0  0  0  0
 17 18  1  0  0  0  0
 18 19  1  0  0  0  0
 19 20  1  0  0  0  0
 20 21  1  0  0  0  0
 21 23  1  0  0  0  0
 23 22  1  6  0  0  0
 23 26  1  0  0  0  0
 25 26  1  0  0  0  0
 25 24  1  0  0  0  0
 26 24  1  0  0  0  0
 27 28  1  0  0  0  0
 28 31  1  0  0  0  0
 29 28  2  0  0  0  0
 31 30  2  0  0  0  0
 31 33  1  0  0  0  0
 33 34  1  0  0  0  0
 33 32  2  0  0  0  0
 35 37  1  6  0  0  0
 35 38  1  0  0  0  0
 37 38  1  0  0  0  0
 38 34  1  0  0  0  0
 38 36  1  1  0  0  0
 39 35  1  0  0  0  0
 39 44  1  1  0  0  0
 40 46  1  0  0  0  0
 40 48  1  0  0  0  0
 42 39  1  0  0  0  0
 42 47  1  0  0  0  0
 45 41  1  0  0  0  0
 45 49  1  0  0  0  0
 45 42  1  0  0  0  0
 46 48  1  0  0  0  0
 47 43  1  0  0  0  0
 47 44  1  0  0  0  0
 48 45  1  0  0  0  0
 48 41  1  0  0  0  0
 49 42  1  0  0  0  0
 50 49  1  0  0  0  0
 51 52  1  0  0  0  0
 51 50  1  0  0  0  0
M  END
>  <MODEL>
3

>  <REMARK>
 VINA RESULT:      -5.7      2.653      8.490
  Name = 
  25 active torsions:
  status: ('A' for Active; 'I' for Inactive)
    1  A    between atoms: C_2  and  C_6
    2  A    between atoms: C_7  and  O_42
    3  A    between atoms: C_7  and  C_50
    4  A    between atoms: C_11  and  C_18
    5  A    between atoms: C_11  and  C_22
    6  A    between atoms: C_11  and  O_35
    7  A    between atoms: C_12  and  C_43
    8  A    between atoms: C_12  and  C_47
    9  A    between atoms: C_13  and  C_25
   10  A    between atoms: C_13  and  C_30
   11  A    between atoms: C_14  and  C_26
   12  A    between atoms: C_14  and  O_35
   13  A    between atoms: C_19  and  C_22
   14  A    between atoms: O_20  and  C_38
   15  A    between atoms: O_20  and  C_47
   16  A    between atoms: C_21  and  C_26
   17  A    between atoms: C_21  and  C_37
   18  A    between atoms: C_22  and  C_38
   19  A    between atoms: C_25  and  C_40
   20  A    between atoms: C_26  and  C_31
   21  A    between atoms: C_30  and  C_44
   22  A    between atoms: C_37  and  C_44
   23  A    between atoms: C_40  and  C_51
   24  A    between atoms: C_41  and  C_43
   25  A    between atoms: C_41  and  C_48
                            x       y       z     vdW  Elec       q    Type
                         _______ _______ _______ _____ _____    ______ ____

>  <TORSDO>
F 25

$$$$
=
 OpenBabel11062420123D

 52 57  0  0  1  0  0  0  0  0999 V2000
  192.1050  172.1470  143.3080 C   0  0  1  0  0  3  0  0  0  0  0  0
  191.9870  173.0640  144.5240 C   0  0  0  0  0  1  0  0  0  0  0  0
  193.3400  171.2490  143.3710 C   0  0  2  0  0  3  0  0  0  0  0  0
  193.6650  170.9370  144.6960 O   0  0  0  0  0  1  0  0  0  0  0  0
  194.5300  171.8920  142.6460 C   0  0  2  0  0  3  0  0  0  0  0  0
  194.2720  169.6680  141.5310 C   0  0  0  0  0  1  0  0  0  0  0  0
  195.0640  170.9560  141.5680 C   0  0  0  0  0  2  0  0  0  0  0  0
  195.6510  172.2850  143.6100 C   0  0  0  0  0  2  0  0  0  0  0  0
  196.2090  173.5300  143.2740 O   0  0  0  0  0  0  0  0  0  0  0  0
  195.3060  174.5000  143.7390 C   0  0  1  0  0  3  0  0  0  0  0  0
  195.4130  174.6670  145.2260 C   0  0  0  0  0  0  0  0  0  0  0  0
  196.5280  174.5230  145.7950 O   0  0  0  0  0  0  0  0  0  0  0  0
  194.2890  174.9640  145.9870 O   0  0  0  0  0  1  0  0  0  0  0  0
  195.5420  175.8450  143.0410 C   0  0  2  0  0  3  0  0  0  0  0  0
  193.5730  175.0740  141.6310 C   0  0  0  0  0  1  0  0  0  0  0  0
  194.3560  176.2630  142.1700 C   0  0  0  0  0  2  0  0  0  0  0  0
  196.8710  175.8890  142.2900 C   0  0  0  0  0  2  0  0  0  0  0  0
  196.6820  176.3400  140.9800 O   0  0  0  0  0  0  0  0  0  0  0  0
  197.4890  175.5150  140.1910 C   0  0  0  0  0  2  0  0  0  0  0  0
  196.7390  174.2420  139.8210 C   0  0  0  0  0  2  0  0  0  0  0  0
  197.1770  173.7700  138.4480 C   0  0  0  0  0  2  0  0  0  0  0  0
  195.4850  175.0220  137.3240 O   0  0  0  0  0  1  0  0  0  0  0  0
  195.9880  173.7260  137.4990 C   0  0  2  0  0  3  0  0  0  0  0  0
  194.2890  171.9600  137.0030 C   0  0  0  0  0  2  0  0  0  0  0  0
  195.3450  171.3800  137.9180 C   0  0  0  0  0  2  0  0  0  0  0  0
  194.9120  172.8220  138.0870 C   0  0  0  0  0  3  0  0  0  0  0  0
  190.8460  171.3060  143.1080 C   0  0  0  0  0  2  0  0  0  0  0  0
  190.7810  170.7420  141.7230 C   0  0  0  0  0  0  0  0  0  0  0  0
  190.6160  169.5020  141.5970 O   0  0  0  0  0  0  0  0  0  0  0  0
  191.8730  171.3950  139.6970 N   0  0  0  0  0  2  0  0  0  0  0  0
  190.8910  171.5930  140.5160 C   0  0  0  0  0  0  0  0  0  0  0  0
  188.9230  172.4000  139.4570 O   0  0  0  0  0  0  0  0  0  0  0  0
  189.9010  172.6450  140.2150 C   0  0  0  0  0  0  0  0  0  0  0  0
  190.0260  174.0150  140.8150 C   0  0  0  0  0  2  0  0  0  0  0  0
  188.6740  175.8300  142.1850 C   0  0  1  0  0  3  0  0  0  0  0  0
  187.7220  173.5990  141.6840 O   0  0  0  0  0  1  0  0  0  0  0  0
  189.2040  174.7930  142.9890 O   0  0  0  0  0  0  0  0  0  0  0  0
  188.8330  174.4410  141.6790 C   0  0  1  0  0  0  0  0  0  0  0  0
  187.2450  176.1320  142.6180 C   0  0  1  0  0  3  0  0  0  0  0  0
  187.2240  177.4270  147.3940 O   0  0  0  0  0  0  0  0  0  0  0  0
  185.6010  177.0960  145.5060 C   0  0  0  0  0  2  0  0  0  0  0  0
  187.0450  177.2270  143.6610 C   0  0  2  0  0  0  0  0  0  0  0  0
  184.8660  178.4590  143.0810 C   0  0  0  0  0  1  0  0  0  0  0  0
  186.4550  177.1470  141.3090 S   0  0  0  0  0  0  0  0  0  0  0  0
  187.0460  176.9150  145.1850 C   0  0  1  0  0  0  0  0  0  0  0  0
  185.9000  177.7490  147.5780 C   0  0  0  0  0  2  0  0  0  0  0  0
  186.3400  178.2470  142.7740 C   0  0  2  0  0  3  0  0  0  0  0  0
  186.5660  177.9570  146.2480 C   0  0  2  0  0  0  0  0  0  0  0  0
  188.0910  177.8500  144.5210 C   0  0  1  0  0  3  0  0  0  0  0  0
  189.4550  177.1720  144.5600 C   0  0  0  0  0  2  0  0  0  0  0  0
  190.1030  177.4520  145.7630 O   0  0  0  0  0  0  0  0  0  0  0  0
  191.0840  176.4670  145.8680 C   0  0  0  0  0  1  0  0  0  0  0  0
  1  3  1  0  0  0  0
  1  2  1  1  0  0  0
  3  4  1  1  0  0  0
  5  7  1  6  0  0  0
  5  3  1  0  0  0  0
  5  8  1  0  0  0  0
  6  7  1  0  0  0  0
  9  8  1  0  0  0  0
 10  9  1  6  0  0  0
 10 11  1  0  0  0  0
 11 12  2  0  0  0  0
 11 13  1  0  0  0  0
 14 16  1  6  0  0  0
 14 10  1  0  0  0  0
 15 16  1  0  0  0  0
 17 14  1  0  0  0  0
 18 17  1  0  0  0  0
 19 18  1  0  0  0  0
 20 19  1  0  0  0  0
 21 20  1  0  0  0  0
 23 22  1  1  0  0  0
 23 26  1  0  0  0  0
 23 21  1  0  0  0  0
 24 25  1  0  0  0  0
 24 26  1  0  0  0  0
 25 26  1  0  0  0  0
 27  1  1  0  0  0  0
 28 27  1  0  0  0  0
 29 28  2  0  0  0  0
 30 31  2  0  0  0  0
 31 28  1  0  0  0  0
 32 33  2  0  0  0  0
 33 31  1  0  0  0  0
 33 34  1  0  0  0  0
 34 38  1  0  0  0  0
 35 39  1  0  0  0  0
 35 37  1  1  0  0  0
 38 36  1  6  0  0  0
 38 35  1  0  0  0  0
 38 37  1  0  0  0  0
 39 44  1  6  0  0  0
 39 42  1  0  0  0  0
 40 46  1  0  0  0  0
 41 48  1  0  0  0  0
 42 49  1  0  0  0  0
 42 45  1  0  0  0  0
 44 47  1  0  0  0  0
 45 41  1  0  0  0  0
 45 48  1  0  0  0  0
 47 43  1  0  0  0  0
 47 42  1  0  0  0  0
 48 40  1  0  0  0  0
 48 46  1  0  0  0  0
 49 50  1  0  0  0  0
 49 45  1  0  0  0  0
 50 51  1  0  0  0  0
 51 52  1  0  0  0  0
M  END
>  <MODEL>
4

>  <REMARK>
 VINA RESULT:      -5.7      2.602      9.776
  Name = 
  25 active torsions:
  status: ('A' for Active; 'I' for Inactive)
    1  A    between atoms: C_2  and  C_6
    2  A    between atoms: C_7  and  O_42
    3  A    between atoms: C_7  and  C_50
    4  A    between atoms: C_11  and  C_18
    5  A    between atoms: C_11  and  C_22
    6  A    between atoms: C_11  and  O_35
    7  A    between atoms: C_12  and  C_43
    8  A    between atoms: C_12  and  C_47
    9  A    between atoms: C_13  and  C_25
   10  A    between atoms: C_13  and  C_30
   11  A    between atoms: C_14  and  C_26
   12  A    between atoms: C_14  and  O_35
   13  A    between atoms: C_19  and  C_22
   14  A    between atoms: O_20  and  C_38
   15  A    between atoms: O_20  and  C_47
   16  A    between atoms: C_21  and  C_26
   17  A    between atoms: C_21  and  C_37
   18  A    between atoms: C_22  and  C_38
   19  A    between atoms: C_25  and  C_40
   20  A    between atoms: C_26  and  C_31
   21  A    between atoms: C_30  and  C_44
   22  A    between atoms: C_37  and  C_44
   23  A    between atoms: C_40  and  C_51
   24  A    between atoms: C_41  and  C_43
   25  A    between atoms: C_41  and  C_48
                            x       y       z     vdW  Elec       q    Type
                         _______ _______ _______ _____ _____    ______ ____

>  <TORSDO>
F 25

$$$$
=
 OpenBabel11062420123D

 52 57  0  0  1  0  0  0  0  0999 V2000
  194.2320  175.9910  144.9740 C   0  0  1  0  0  3  0  0  0  0  0  0
  194.1590  176.7110  146.3190 C   0  0  0  0  0  1  0  0  0  0  0  0
  195.2800  174.8780  144.9620 C   0  0  2  0  0  3  0  0  0  0  0  0
  195.8470  174.7120  146.2310 O   0  0  0  0  0  1  0  0  0  0  0  0
  196.3590  175.1440  143.9050 C   0  0  2  0  0  3  0  0  0  0  0  0
  196.3840  176.6250  141.8890 C   0  0  0  0  0  1  0  0  0  0  0  0
  196.2610  176.5770  143.3960 C   0  0  0  0  0  2  0  0  0  0  0  0
  196.2800  174.1610  142.7350 C   0  0  0  0  0  2  0  0  0  0  0  0
  195.4700  173.0560  143.0430 O   0  0  0  0  0  0  0  0  0  0  0  0
  195.7270  172.0950  142.0530 C   0  0  1  0  0  3  0  0  0  0  0  0
  196.9080  171.2460  142.4190 C   0  0  0  0  0  0  0  0  0  0  0  0
  197.5580  170.6530  141.5170 O   0  0  0  0  0  0  0  0  0  0  0  0
  197.2860  171.0940  143.7480 O   0  0  0  0  0  1  0  0  0  0  0  0
  194.4960  171.2090  141.8180 C   0  0  2  0  0  3  0  0  0  0  0  0
  193.5830  170.2920  144.0050 C   0  0  0  0  0  1  0  0  0  0  0  0
  194.4440  170.0200  142.7790 C   0  0  0  0  0  2  0  0  0  0  0  0
  194.3470  170.7930  140.3550 C   0  0  0  0  0  2  0  0  0  0  0  0
  194.1730  171.9160  139.5400 O   0  0  0  0  0  0  0  0  0  0  0  0
  192.8090  171.9360  139.2340 C   0  0  0  0  0  2  0  0  0  0  0  0
  192.3490  170.5560  138.7820 C   0  0  0  0  0  2  0  0  0  0  0  0
  191.2830  170.6960  137.7130 C   0  0  0  0  0  2  0  0  0  0  0  0
  189.2290  171.3290  138.7480 O   0  0  0  0  0  1  0  0  0  0  0  0
  190.3360  171.8370  138.0570 C   0  0  2  0  0  3  0  0  0  0  0  0
  190.1000  174.0170  136.8550 C   0  0  0  0  0  2  0  0  0  0  0  0
  191.0890  173.1510  136.1060 C   0  0  0  0  0  2  0  0  0  0  0  0
  189.8840  172.5160  136.7700 C   0  0  0  0  0  3  0  0  0  0  0  0
  192.8720  175.4430  144.5480 C   0  0  0  0  0  2  0  0  0  0  0  0
  192.5270  175.8600  143.1540 C   0  0  0  0  0  0  0  0  0  0  0  0
  192.3060  177.0800  142.9380 O   0  0  0  0  0  0  0  0  0  0  0  0
  193.3150  174.9740  141.0750 N   0  0  0  0  0  2  0  0  0  0  0  0
  192.4500  174.8940  142.0340 C   0  0  0  0  0  0  0  0  0  0  0  0
  191.5520  172.7990  142.7090 O   0  0  0  0  0  0  0  0  0  0  0  0
  191.4260  173.8310  141.9940 C   0  0  0  0  0  0  0  0  0  0  0  0
  190.2120  173.9640  141.1220 C   0  0  0  0  0  2  0  0  0  0  0  0
  188.7910  175.7860  142.4110 C   0  0  1  0  0  3  0  0  0  0  0  0
  187.8040  173.6300  141.6930 O   0  0  0  0  0  1  0  0  0  0  0  0
  189.1730  174.6900  143.2200 O   0  0  0  0  0  0  0  0  0  0  0  0
  188.9460  174.4140  141.8600 C   0  0  1  0  0  0  0  0  0  0  0  0
  187.3370  176.1420  142.6870 C   0  0  1  0  0  3  0  0  0  0  0  0
  186.8770  177.6040  147.3930 O   0  0  0  0  0  0  0  0  0  0  0  0
  185.4410  177.2520  145.3610 C   0  0  0  0  0  2  0  0  0  0  0  0
  187.0670  177.2780  143.6690 C   0  0  2  0  0  0  0  0  0  0  0  0
  184.9970  178.5500  142.8320 C   0  0  0  0  0  1  0  0  0  0  0  0
  186.7140  177.1330  141.2730 S   0  0  0  0  0  0  0  0  0  0  0  0
  186.9060  177.0200  145.1950 C   0  0  1  0  0  0  0  0  0  0  0  0
  185.5510  177.9690  147.4310 C   0  0  0  0  0  2  0  0  0  0  0  0
  186.4860  178.2860  142.6820 C   0  0  2  0  0  3  0  0  0  0  0  0
  186.3540  178.1120  146.1690 C   0  0  2  0  0  0  0  0  0  0  0  0
  188.0400  177.9020  144.6100 C   0  0  1  0  0  3  0  0  0  0  0  0
  189.3720  177.1880  144.8080 C   0  0  0  0  0  2  0  0  0  0  0  0
  189.9870  177.6240  145.9820 O   0  0  0  0  0  0  0  0  0  0  0  0
  190.1640  176.4640  146.7350 C   0  0  0  0  0  1  0  0  0  0  0  0
  1  2  1  1  0  0  0
  3  1  1  0  0  0  0
  3  4  1  1  0  0  0
  5  8  1  6  0  0  0
  5  3  1  0  0  0  0
  6  7  1  0  0  0  0
  7  5  1  0  0  0  0
  8  9  1  0  0  0  0
 10 11  1  1  0  0  0
 10  9  1  0  0  0  0
 11 13  1  0  0  0  0
 12 11  2  0  0  0  0
 14 17  1  6  0  0  0
 14 10  1  0  0  0  0
 14 16  1  0  0  0  0
 16 15  1  0  0  0  0
 18 17  1  0  0  0  0
 19 18  1  0  0  0  0
 20 19  1  0  0  0  0
 21 23  1  0  0  0  0
 21 20  1  0  0  0  0
 23 22  1  6  0  0  0
 25 26  1  0  0  0  0
 25 24  1  0  0  0  0
 26 24  1  0  0  0  0
 26 23  1  0  0  0  0
 27  1  1  0  0  0  0
 28 27  1  0  0  0  0
 29 28  2  0  0  0  0
 30 31  2  0  0  0  0
 31 28  1  0  0  0  0
 33 31  1  0  0  0  0
 33 32  2  0  0  0  0
 34 38  1  0  0  0  0
 34 33  1  0  0  0  0
 35 39  1  0  0  0  0
 35 37  1  1  0  0  0
 38 36  1  6  0  0  0
 38 35  1  0  0  0  0
 38 37  1  0  0  0  0
 39 44  1  6  0  0  0
 39 42  1  0  0  0  0
 40 46  1  0  0  0  0
 41 48  1  0  0  0  0
 42 49  1  0  0  0  0
 42 45  1  0  0  0  0
 44 47  1  0  0  0  0
 45 41  1  0  0  0  0
 45 48  1  0  0  0  0
 47 43  1  0  0  0  0
 47 42  1  0  0  0  0
 48 40  1  0  0  0  0
 48 46  1  0  0  0  0
 49 50  1  0  0  0  0
 49 45  1  0  0  0  0
 50 51  1  0  0  0  0
 51 52  1  0  0  0  0
M  END
>  <MODEL>
5

>  <REMARK>
 VINA RESULT:      -5.7      2.917     10.106
  Name = 
  25 active torsions:
  status: ('A' for Active; 'I' for Inactive)
    1  A    between atoms: C_2  and  C_6
    2  A    between atoms: C_7  and  O_42
    3  A    between atoms: C_7  and  C_50
    4  A    between atoms: C_11  and  C_18
    5  A    between atoms: C_11  and  C_22
    6  A    between atoms: C_11  and  O_35
    7  A    between atoms: C_12  and  C_43
    8  A    between atoms: C_12  and  C_47
    9  A    between atoms: C_13  and  C_25
   10  A    between atoms: C_13  and  C_30
   11  A    between atoms: C_14  and  C_26
   12  A    between atoms: C_14  and  O_35
   13  A    between atoms: C_19  and  C_22
   14  A    between atoms: O_20  and  C_38
   15  A    between atoms: O_20  and  C_47
   16  A    between atoms: C_21  and  C_26
   17  A    between atoms: C_21  and  C_37
   18  A    between atoms: C_22  and  C_38
   19  A    between atoms: C_25  and  C_40
   20  A    between atoms: C_26  and  C_31
   21  A    between atoms: C_30  and  C_44
   22  A    between atoms: C_37  and  C_44
   23  A    between atoms: C_40  and  C_51
   24  A    between atoms: C_41  and  C_43
   25  A    between atoms: C_41  and  C_48
                            x       y       z     vdW  Elec       q    Type
                         _______ _______ _______ _____ _____    ______ ____

>  <TORSDO>
F 25

$$$$
=
 OpenBabel11062420123D

 52 57  0  0  1  0  0  0  0  0999 V2000
  195.7240  173.9120  145.3020 C   0  0  1  0  0  3  0  0  0  0  0  0
  196.8610  173.3350  146.1430 C   0  0  0  0  0  1  0  0  0  0  0  0
  194.9350  172.8300  144.5640 C   0  0  2  0  0  3  0  0  0  0  0  0
  194.7910  171.6870  145.3600 O   0  0  0  0  0  1  0  0  0  0  0  0
  195.5890  172.4880  143.2190 C   0  0  2  0  0  3  0  0  0  0  0  0
  197.9390  172.9790  142.5140 C   0  0  0  0  0  1  0  0  0  0  0  0
  196.5820  173.5740  142.8210 C   0  0  0  0  0  2  0  0  0  0  0  0
  194.5570  172.2820  142.1080 C   0  0  0  0  0  2  0  0  0  0  0  0
  193.3350  172.9010  142.4180 O   0  0  0  0  0  0  0  0  0  0  0  0
  192.3600  172.2460  141.6480 C   0  0  1  0  0  3  0  0  0  0  0  0
  191.6710  171.1790  142.4460 C   0  0  0  0  0  0  0  0  0  0  0  0
  191.6300  171.2630  143.7030 O   0  0  0  0  0  1  0  0  0  0  0  0
  191.0880  170.0880  141.8130 O   0  0  0  0  0  0  0  0  0  0  0  0
  191.3300  173.2450  141.1060 C   0  0  2  0  0  3  0  0  0  0  0  0
  188.8140  173.6020  141.0630 C   0  0  0  0  0  1  0  0  0  0  0  0
  190.0250  173.2250  141.9040 C   0  0  0  0  0  2  0  0  0  0  0  0
  191.1050  173.0930  139.6020 C   0  0  0  0  0  2  0  0  0  0  0  0
  192.0030  172.1670  139.0610 O   0  0  0  0  0  0  0  0  0  0  0  0
  192.3130  172.6620  137.7910 C   0  0  0  0  0  2  0  0  0  0  0  0
  192.9370  174.0470  137.9020 C   0  0  0  0  0  2  0  0  0  0  0  0
  194.3840  173.9940  137.4500 C   0  0  0  0  0  2  0  0  0  0  0  0
  193.6920  175.7240  135.9600 O   0  0  0  0  0  1  0  0  0  0  0  0
  194.7660  175.2880  136.7470 C   0  0  2  0  0  3  0  0  0  0  0  0
  197.1490  175.9130  136.3170 C   0  0  0  0  0  2  0  0  0  0  0  0
  197.0920  174.4590  136.7340 C   0  0  0  0  0  2  0  0  0  0  0  0
  195.9890  175.0400  135.8720 C   0  0  0  0  0  3  0  0  0  0  0  0
  194.7830  174.7770  146.1370 C   0  0  0  0  0  2  0  0  0  0  0  0
  194.6330  176.1450  145.5490 C   0  0  0  0  0  0  0  0  0  0  0  0
  194.6250  177.1280  146.3330 O   0  0  0  0  0  0  0  0  0  0  0  0
  195.5370  176.7850  143.4280 N   0  0  0  0  0  2  0  0  0  0  0  0
  194.5060  176.3700  144.0910 C   0  0  0  0  0  0  0  0  0  0  0  0
  193.1330  176.4170  142.1520 O   0  0  0  0  0  0  0  0  0  0  0  0
  193.2420  176.1170  143.3730 C   0  0  0  0  0  0  0  0  0  0  0  0
  192.0740  175.4840  144.0690 C   0  0  0  0  0  2  0  0  0  0  0  0
  189.5810  176.2950  144.4270 C   0  0  1  0  0  3  0  0  0  0  0  0
  191.4820  177.3680  145.5980 O   0  0  0  0  0  1  0  0  0  0  0  0
  190.3430  177.1550  143.6010 O   0  0  0  0  0  0  0  0  0  0  0  0
  191.0440  176.4790  144.6160 C   0  0  1  0  0  0  0  0  0  0  0  0
  188.7580  177.1220  145.4060 C   0  0  1  0  0  3  0  0  0  0  0  0
  184.7900  178.9420  143.0730 O   0  0  0  0  0  0  0  0  0  0  0  0
  185.8510  179.0000  145.3500 C   0  0  0  0  0  2  0  0  0  0  0  0
  187.2420  177.1130  145.2300 C   0  0  2  0  0  0  0  0  0  0  0  0
  186.1910  177.2060  147.5730 C   0  0  0  0  0  1  0  0  0  0  0  0
  188.6440  176.1930  146.9840 S   0  0  0  0  0  0  0  0  0  0  0  0
  186.5180  178.1480  144.3220 C   0  0  1  0  0  0  0  0  0  0  0  0
  184.1320  179.5630  144.1090 C   0  0  0  0  0  2  0  0  0  0  0  0
  186.8790  176.3660  146.5090 C   0  0  2  0  0  3  0  0  0  0  0  0
  184.9650  178.3360  144.3500 C   0  0  2  0  0  0  0  0  0  0  0  0
  186.4770  176.6210  144.0490 C   0  0  1  0  0  3  0  0  0  0  0  0
  187.2690  176.3260  142.7810 C   0  0  0  0  0  2  0  0  0  0  0  0
  186.4890  176.5740  141.6520 O   0  0  0  0  0  0  0  0  0  0  0  0
  187.3760  177.1250  140.7290 C   0  0  0  0  0  1  0  0  0  0  0  0
  1 27  1  0  0  0  0
  1  2  1  1  0  0  0
  3  1  1  0  0  0  0
  3  4  1  1  0  0  0
  5  8  1  6  0  0  0
  5  3  1  0  0  0  0
  6  7  1  0  0  0  0
  7  5  1  0  0  0  0
  8  9  1  0  0  0  0
 10  9  1  1  0  0  0
 10 11  1  0  0  0  0
 11 12  1  0  0  0  0
 13 11  2  0  0  0  0
 14 17  1  6  0  0  0
 14 10  1  0  0  0  0
 14 16  1  0  0  0  0
 15 16  1  0  0  0  0
 18 17  1  0  0  0  0
 19 20  1  0  0  0  0
 19 18  1  0  0  0  0
 21 20  1  0  0  0  0
 23 22  1  6  0  0  0
 23 21  1  0  0  0  0
 24 25  1  0  0  0  0
 26 24  1  0  0  0  0
 26 25  1  0  0  0  0
 26 23  1  0  0  0  0
 28 27  1  0  0  0  0
 28 29  2  0  0  0  0
 30 31  2  0  0  0  0
 31 28  1  0  0  0  0
 32 33  2  0  0  0  0
 33 34  1  0  0  0  0
 33 31  1  0  0  0  0
 34 38  1  0  0  0  0
 35 37  1  6  0  0  0
 35 38  1  0  0  0  0
 35 39  1  0  0  0  0
 37 38  1  0  0  0  0
 38 36  1  1  0  0  0
 39 44  1  1  0  0  0
 40 46  1  0  0  0  0
 40 48  1  0  0  0  0
 42 39  1  0  0  0  0
 42 47  1  0  0  0  0
 45 48  1  0  0  0  0
 45 42  1  0  0  0  0
 45 41  1  0  0  0  0
 46 48  1  0  0  0  0
 47 44  1  0  0  0  0
 47 43  1  0  0  0  0
 48 41  1  0  0  0  0
 49 45  1  0  0  0  0
 49 42  1  0  0  0  0
 50 49  1  0  0  0  0
 51 50  1  0  0  0  0
 52 51  1  0  0  0  0
M  END
>  <MODEL>
6

>  <REMARK>
 VINA RESULT:      -5.4      2.739      9.626
  Name = 
  25 active torsions:
  status: ('A' for Active; 'I' for Inactive)
    1  A    between atoms: C_2  and  C_6
    2  A    between atoms: C_7  and  O_42
    3  A    between atoms: C_7  and  C_50
    4  A    between atoms: C_11  and  C_18
    5  A    between atoms: C_11  and  C_22
    6  A    between atoms: C_11  and  O_35
    7  A    between atoms: C_12  and  C_43
    8  A    between atoms: C_12  and  C_47
    9  A    between atoms: C_13  and  C_25
   10  A    between atoms: C_13  and  C_30
   11  A    between atoms: C_14  and  C_26
   12  A    between atoms: C_14  and  O_35
   13  A    between atoms: C_19  and  C_22
   14  A    between atoms: O_20  and  C_38
   15  A    between atoms: O_20  and  C_47
   16  A    between atoms: C_21  and  C_26
   17  A    between atoms: C_21  and  C_37
   18  A    between atoms: C_22  and  C_38
   19  A    between atoms: C_25  and  C_40
   20  A    between atoms: C_26  and  C_31
   21  A    between atoms: C_30  and  C_44
   22  A    between atoms: C_37  and  C_44
   23  A    between atoms: C_40  and  C_51
   24  A    between atoms: C_41  and  C_43
   25  A    between atoms: C_41  and  C_48
                            x       y       z     vdW  Elec       q    Type
                         _______ _______ _______ _____ _____    ______ ____

>  <TORSDO>
F 25

$$$$
=
 OpenBabel11062420123D

 52 57  0  0  1  0  0  0  0  0999 V2000
  186.5110  177.0440  142.8740 C   0  0  1  0  0  3  0  0  0  0  0  0
  185.5110  177.6510  141.8920 C   0  0  0  0  0  1  0  0  0  0  0  0
  186.1340  177.3110  144.3320 C   0  0  2  0  0  3  0  0  0  0  0  0
  185.5120  178.5580  144.4670 O   0  0  0  0  0  1  0  0  0  0  0  0
  187.3590  177.2010  145.2490 C   0  0  2  0  0  3  0  0  0  0  0  0
  186.1830  176.7950  147.4190 C   0  0  0  0  0  1  0  0  0  0  0  0
  187.0400  177.7610  146.6300 C   0  0  0  0  0  2  0  0  0  0  0  0
  188.5860  177.9040  144.6630 C   0  0  0  0  0  2  0  0  0  0  0  0
  189.7040  177.7780  145.5040 O   0  0  0  0  0  0  0  0  0  0  0  0
  190.4260  176.6720  145.0300 C   0  0  1  0  0  3  0  0  0  0  0  0
  191.4410  177.0880  144.0080 C   0  0  0  0  0  0  0  0  0  0  0  0
  191.9880  176.2200  143.2760 O   0  0  0  0  0  0  0  0  0  0  0  0
  191.7970  178.4240  143.8680 O   0  0  0  0  0  1  0  0  0  0  0  0
  191.1160  175.9340  146.1850 C   0  0  2  0  0  3  0  0  0  0  0  0
  189.1890  174.6810  147.2680 C   0  0  0  0  0  1  0  0  0  0  0  0
  190.2120  175.7990  147.4110 C   0  0  0  0  0  2  0  0  0  0  0  0
  192.4840  176.5250  146.5210 C   0  0  0  0  0  2  0  0  0  0  0  0
  193.4240  175.5080  146.7200 O   0  0  0  0  0  0  0  0  0  0  0  0
  194.5930  175.9690  146.1060 C   0  0  0  0  0  2  0  0  0  0  0  0
  195.6450  174.8680  146.0830 C   0  0  0  0  0  2  0  0  0  0  0  0
  195.8580  174.3920  144.6590 C   0  0  0  0  0  2  0  0  0  0  0  0
  193.9250  173.0680  144.2140 O   0  0  0  0  0  1  0  0  0  0  0  0
  195.2980  172.9890  144.4800 C   0  0  2  0  0  3  0  0  0  0  0  0
  195.7280  170.7160  145.4300 C   0  0  0  0  0  2  0  0  0  0  0  0
  196.9320  171.5930  145.6960 C   0  0  0  0  0  2  0  0  0  0  0  0
  195.5390  172.1880  145.7540 C   0  0  0  0  0  3  0  0  0  0  0  0
  186.6980  175.5470  142.6400 C   0  0  0  0  0  2  0  0  0  0  0  0
  188.0370  175.2510  142.0400 C   0  0  0  0  0  0  0  0  0  0  0  0
  188.5150  176.0810  141.2240 O   0  0  0  0  0  0  0  0  0  0  0  0
  189.4680  174.0020  143.4940 N   0  0  0  0  0  2  0  0  0  0  0  0
  188.8070  174.0340  142.3820 C   0  0  0  0  0  0  0  0  0  0  0  0
  189.3180  171.7630  141.9040 O   0  0  0  0  0  0  0  0  0  0  0  0
  188.8240  172.8520  141.5000 C   0  0  0  0  0  0  0  0  0  0  0  0
  188.2400  172.9120  140.1190 C   0  0  0  0  0  2  0  0  0  0  0  0
  190.7390  172.8680  139.2500 C   0  0  1  0  0  3  0  0  0  0  0  0
  188.8220  172.4930  137.7270 O   0  0  0  0  0  1  0  0  0  0  0  0
  190.0430  174.0520  138.9120 O   0  0  0  0  0  0  0  0  0  0  0  0
  189.2750  172.8770  138.9890 C   0  0  1  0  0  0  0  0  0  0  0  0
  191.5420  172.3860  138.0490 C   0  0  1  0  0  3  0  0  0  0  0  0
  195.5480  175.2430  137.5130 O   0  0  0  0  0  0  0  0  0  0  0  0
  194.4460  173.2830  136.3940 C   0  0  0  0  0  2  0  0  0  0  0  0
  193.0610  172.5140  138.1250 C   0  0  2  0  0  0  0  0  0  0  0  0
  194.0690  170.4790  136.9220 C   0  0  0  0  0  1  0  0  0  0  0  0
  191.6290  170.5540  138.1180 S   0  0  0  0  0  0  0  0  0  0  0  0
  193.8000  173.7930  137.6380 C   0  0  1  0  0  0  0  0  0  0  0  0
  196.1860  174.6150  136.4690 C   0  0  0  0  0  2  0  0  0  0  0  0
  193.4020  171.0280  138.1730 C   0  0  2  0  0  3  0  0  0  0  0  0
  195.3510  173.8340  137.4430 C   0  0  2  0  0  0  0  0  0  0  0  0
  193.8480  173.3080  139.1110 C   0  0  1  0  0  3  0  0  0  0  0  0
  193.0790  174.2960  139.9800 C   0  0  0  0  0  2  0  0  0  0  0  0
  193.6110  174.3240  141.2690 O   0  0  0  0  0  0  0  0  0  0  0  0
  194.9040  174.8190  141.1030 C   0  0  0  0  0  1  0  0  0  0  0  0
  1  2  1  6  0  0  0
  1  3  1  0  0  0  0
  3  4  1  6  0  0  0
  3  5  1  0  0  0  0
  5  8  1  6  0  0  0
  5  7  1  0  0  0  0
  7  6  1  0  0  0  0
  8  9  1  0  0  0  0
 10 11  1  6  0  0  0
 10  9  1  0  0  0  0
 10 14  1  0  0  0  0
 12 11  2  0  0  0  0
 13 11  1  0  0  0  0
 14 17  1  1  0  0  0
 14 16  1  0  0  0  0
 15 16  1  0  0  0  0
 17 18  1  0  0  0  0
 19 18  1  0  0  0  0
 20 19  1  0  0  0  0
 21 20  1  0  0  0  0
 23 22  1  1  0  0  0
 23 21  1  0  0  0  0
 23 26  1  0  0  0  0
 24 25  1  0  0  0  0
 24 26  1  0  0  0  0
 25 26  1  0  0  0  0
 27  1  1  0  0  0  0
 28 31  1  0  0  0  0
 28 27  1  0  0  0  0
 29 28  2  0  0  0  0
 31 30  2  0  0  0  0
 33 32  2  0  0  0  0
 33 31  1  0  0  0  0
 34 33  1  0  0  0  0
 35 37  1  6  0  0  0
 37 38  1  0  0  0  0
 38 36  1  6  0  0  0
 38 35  1  0  0  0  0
 38 34  1  0  0  0  0
 39 44  1  1  0  0  0
 39 42  1  0  0  0  0
 39 35  1  0  0  0  0
 41 48  1  0  0  0  0
 41 45  1  0  0  0  0
 42 47  1  0  0  0  0
 42 49  1  0  0  0  0
 43 47  1  0  0  0  0
 44 47  1  0  0  0  0
 45 42  1  0  0  0  0
 45 49  1  0  0  0  0
 46 48  1  0  0  0  0
 46 40  1  0  0  0  0
 48 40  1  0  0  0  0
 48 45  1  0  0  0  0
 49 50  1  0  0  0  0
 50 51  1  0  0  0  0
 52 51  1  0  0  0  0
M  END
>  <MODEL>
7

>  <REMARK>
 VINA RESULT:      -5.3      2.553      5.817
  Name = 
  25 active torsions:
  status: ('A' for Active; 'I' for Inactive)
    1  A    between atoms: C_2  and  C_6
    2  A    between atoms: C_7  and  O_42
    3  A    between atoms: C_7  and  C_50
    4  A    between atoms: C_11  and  C_18
    5  A    between atoms: C_11  and  C_22
    6  A    between atoms: C_11  and  O_35
    7  A    between atoms: C_12  and  C_43
    8  A    between atoms: C_12  and  C_47
    9  A    between atoms: C_13  and  C_25
   10  A    between atoms: C_13  and  C_30
   11  A    between atoms: C_14  and  C_26
   12  A    between atoms: C_14  and  O_35
   13  A    between atoms: C_19  and  C_22
   14  A    between atoms: O_20  and  C_38
   15  A    between atoms: O_20  and  C_47
   16  A    between atoms: C_21  and  C_26
   17  A    between atoms: C_21  and  C_37
   18  A    between atoms: C_22  and  C_38
   19  A    between atoms: C_25  and  C_40
   20  A    between atoms: C_26  and  C_31
   21  A    between atoms: C_30  and  C_44
   22  A    between atoms: C_37  and  C_44
   23  A    between atoms: C_40  and  C_51
   24  A    between atoms: C_41  and  C_43
   25  A    between atoms: C_41  and  C_48
                            x       y       z     vdW  Elec       q    Type
                         _______ _______ _______ _____ _____    ______ ____

>  <TORSDO>
F 25

$$$$
=
 OpenBabel11062420123D

 52 57  0  0  1  0  0  0  0  0999 V2000
  187.0150  176.9280  142.1040 C   0  0  1  0  0  3  0  0  0  0  0  0
  186.3730  177.4420  140.8170 C   0  0  0  0  0  1  0  0  0  0  0  0
  186.3220  177.4640  143.3570 C   0  0  2  0  0  3  0  0  0  0  0  0
  185.9290  178.7950  143.1800 O   0  0  0  0  0  1  0  0  0  0  0  0
  187.2190  177.3120  144.5930 C   0  0  2  0  0  3  0  0  0  0  0  0
  185.5720  176.9970  146.4490 C   0  0  0  0  0  1  0  0  0  0  0  0
  186.5580  177.9490  145.8100 C   0  0  0  0  0  2  0  0  0  0  0  0
  188.6120  177.9070  144.3750 C   0  0  0  0  0  2  0  0  0  0  0  0
  189.4930  177.5540  145.4090 O   0  0  0  0  0  0  0  0  0  0  0  0
  190.4310  176.6770  144.8410 C   0  0  1  0  0  3  0  0  0  0  0  0
  191.4920  177.4310  144.0970 C   0  0  0  0  0  0  0  0  0  0  0  0
  191.5470  178.6870  144.1830 O   0  0  0  0  0  1  0  0  0  0  0  0
  192.4110  176.7580  143.3000 O   0  0  0  0  0  0  0  0  0  0  0  0
  191.0720  175.7900  145.9160 C   0  0  2  0  0  3  0  0  0  0  0  0
  193.3730  176.3110  146.8610 C   0  0  0  0  0  1  0  0  0  0  0  0
  191.8800  176.6000  146.9310 C   0  0  0  0  0  2  0  0  0  0  0  0
  191.8660  174.6290  145.3190 C   0  0  0  0  0  2  0  0  0  0  0  0
  191.0420  173.8270  144.5230 O   0  0  0  0  0  0  0  0  0  0  0  0
  191.6920  172.5910  144.4560 C   0  0  0  0  0  2  0  0  0  0  0  0
  193.1780  172.7600  144.7480 C   0  0  0  0  0  2  0  0  0  0  0  0
  193.9560  171.6180  144.1240 C   0  0  0  0  0  2  0  0  0  0  0  0
  195.4530  171.8430  142.2800 O   0  0  0  0  0  1  0  0  0  0  0  0
  195.3180  172.1020  143.6500 C   0  0  2  0  0  3  0  0  0  0  0  0
  197.5670  172.3090  144.7240 C   0  0  0  0  0  2  0  0  0  0  0  0
  196.5390  172.0200  145.7950 C   0  0  0  0  0  2  0  0  0  0  0  0
  196.4070  171.3750  144.4300 C   0  0  0  0  0  3  0  0  0  0  0  0
  187.0710  175.4030  142.1400 C   0  0  0  0  0  2  0  0  0  0  0  0
  188.3770  174.8910  141.6180 C   0  0  0  0  0  0  0  0  0  0  0  0
  189.3780  175.6500  141.6850 O   0  0  0  0  0  0  0  0  0  0  0  0
  188.5070  172.5120  141.8370 N   0  0  0  0  0  2  0  0  0  0  0  0
  188.5230  173.5350  141.0440 C   0  0  0  0  0  0  0  0  0  0  0  0
  188.1800  174.1460  138.7730 O   0  0  0  0  0  0  0  0  0  0  0  0
  188.6670  173.3180  139.5910 C   0  0  0  0  0  0  0  0  0  0  0  0
  189.4070  172.1260  139.0600 C   0  0  0  0  0  2  0  0  0  0  0  0
  191.7380  173.3570  138.8440 C   0  0  1  0  0  3  0  0  0  0  0  0
  191.4840  171.2650  140.1460 O   0  0  0  0  0  1  0  0  0  0  0  0
  191.6340  172.1980  138.0400 O   0  0  0  0  0  0  0  0  0  0  0  0
  190.9260  172.1810  139.2550 C   0  0  1  0  0  0  0  0  0  0  0  0
  193.1020  173.3880  139.5220 C   0  0  1  0  0  3  0  0  0  0  0  0
  196.5320  174.7520  136.2250 O   0  0  0  0  0  0  0  0  0  0  0  0
  196.3770  174.0780  138.6400 C   0  0  0  0  0  2  0  0  0  0  0  0
  194.0950  174.4460  139.0490 C   0  0  2  0  0  0  0  0  0  0  0  0
  195.4290  175.2260  141.1020 C   0  0  0  0  0  1  0  0  0  0  0  0
  192.9100  174.2070  141.1530 S   0  0  0  0  0  0  0  0  0  0  0  0
  195.0920  174.1710  137.8870 C   0  0  1  0  0  0  0  0  0  0  0  0
  197.6540  174.8180  137.0180 C   0  0  0  0  0  2  0  0  0  0  0  0
  194.1300  175.2940  140.3160 C   0  0  2  0  0  3  0  0  0  0  0  0
  196.2940  175.1230  137.5790 C   0  0  2  0  0  0  0  0  0  0  0  0
  194.0050  175.2750  137.8140 C   0  0  1  0  0  3  0  0  0  0  0  0
  192.9610  174.8720  136.7800 C   0  0  0  0  0  2  0  0  0  0  0  0
  192.3500  176.0040  136.2390 O   0  0  0  0  0  0  0  0  0  0  0  0
  193.4110  176.8320  135.8760 C   0  0  0  0  0  1  0  0  0  0  0  0
  1  2  1  6  0  0  0
  1 27  1  0  0  0  0
  1  3  1  0  0  0  0
  3  4  1  6  0  0  0
  3  5  1  0  0  0  0
  5  8  1  6  0  0  0
  5  7  1  0  0  0  0
  7  6  1  0  0  0  0
  8  9  1  0  0  0  0
 10 11  1  1  0  0  0
 10  9  1  0  0  0  0
 10 14  1  0  0  0  0
 11 12  1  0  0  0  0
 13 11  2  0  0  0  0
 14 17  1  6  0  0  0
 14 16  1  0  0  0  0
 15 16  1  0  0  0  0
 18 17  1  0  0  0  0
 19 18  1  0  0  0  0
 19 20  1  0  0  0  0
 21 20  1  0  0  0  0
 23 22  1  6  0  0  0
 23 21  1  0  0  0  0
 23 26  1  0  0  0  0
 24 25  1  0  0  0  0
 26 24  1  0  0  0  0
 26 25  1  0  0  0  0
 28 29  2  0  0  0  0
 28 27  1  0  0  0  0
 31 28  1  0  0  0  0
 31 30  2  0  0  0  0
 32 33  2  0  0  0  0
 33 31  1  0  0  0  0
 34 38  1  0  0  0  0
 34 33  1  0  0  0  0
 35 37  1  6  0  0  0
 35 38  1  0  0  0  0
 35 39  1  0  0  0  0
 37 38  1  0  0  0  0
 38 36  1  1  0  0  0
 39 44  1  1  0  0  0
 40 46  1  0  0  0  0
 40 48  1  0  0  0  0
 42 39  1  0  0  0  0
 42 47  1  0  0  0  0
 45 41  1  0  0  0  0
 45 42  1  0  0  0  0
 46 48  1  0  0  0  0
 47 43  1  0  0  0  0
 47 44  1  0  0  0  0
 48 45  1  0  0  0  0
 48 41  1  0  0  0  0
 49 45  1  0  0  0  0
 49 42  1  0  0  0  0
 50 49  1  0  0  0  0
 51 50  1  0  0  0  0
 52 51  1  0  0  0  0
M  END
>  <MODEL>
8

>  <REMARK>
 VINA RESULT:      -5.2      2.173      5.422
  Name = 
  25 active torsions:
  status: ('A' for Active; 'I' for Inactive)
    1  A    between atoms: C_2  and  C_6
    2  A    between atoms: C_7  and  O_42
    3  A    between atoms: C_7  and  C_50
    4  A    between atoms: C_11  and  C_18
    5  A    between atoms: C_11  and  C_22
    6  A    between atoms: C_11  and  O_35
    7  A    between atoms: C_12  and  C_43
    8  A    between atoms: C_12  and  C_47
    9  A    between atoms: C_13  and  C_25
   10  A    between atoms: C_13  and  C_30
   11  A    between atoms: C_14  and  C_26
   12  A    between atoms: C_14  and  O_35
   13  A    between atoms: C_19  and  C_22
   14  A    between atoms: O_20  and  C_38
   15  A    between atoms: O_20  and  C_47
   16  A    between atoms: C_21  and  C_26
   17  A    between atoms: C_21  and  C_37
   18  A    between atoms: C_22  and  C_38
   19  A    between atoms: C_25  and  C_40
   20  A    between atoms: C_26  and  C_31
   21  A    between atoms: C_30  and  C_44
   22  A    between atoms: C_37  and  C_44
   23  A    between atoms: C_40  and  C_51
   24  A    between atoms: C_41  and  C_43
   25  A    between atoms: C_41  and  C_48
                            x       y       z     vdW  Elec       q    Type
                         _______ _______ _______ _____ _____    ______ ____

>  <TORSDO>
F 25

$$$$
=
 OpenBabel11062420123D

 52 57  0  0  1  0  0  0  0  0999 V2000
  195.2220  172.3160  144.7710 C   0  0  1  0  0  3  0  0  0  0  0  0
  195.8340  171.2220  145.6430 C   0  0  0  0  0  1  0  0  0  0  0  0
  193.8970  171.8880  144.1400 C   0  0  2  0  0  3  0  0  0  0  0  0
  193.4320  170.6990  144.7130 O   0  0  0  0  0  1  0  0  0  0  0  0
  194.0280  171.7540  142.6170 C   0  0  2  0  0  3  0  0  0  0  0  0
  196.1620  171.0110  141.5450 C   0  0  0  0  0  1  0  0  0  0  0  0
  195.4210  172.1750  142.1650 C   0  0  0  0  0  2  0  0  0  0  0  0
  192.9630  172.5610  141.8710 C   0  0  0  0  0  2  0  0  0  0  0  0
  193.1380  172.4870  140.4800 O   0  0  0  0  0  0  0  0  0  0  0  0
  192.1110  171.6590  140.0000 C   0  0  1  0  0  3  0  0  0  0  0  0
  190.9370  172.4690  139.5370 C   0  0  0  0  0  0  0  0  0  0  0  0
  191.0800  173.6960  139.2880 O   0  0  0  0  0  0  0  0  0  0  0  0
  189.6850  171.8840  139.3950 O   0  0  0  0  0  1  0  0  0  0  0  0
  192.6150  170.7660  138.8590 C   0  0  2  0  0  3  0  0  0  0  0  0
  192.6650  168.9460  140.6320 C   0  0  0  0  0  1  0  0  0  0  0  0
  193.3120  169.5050  139.3730 C   0  0  0  0  0  2  0  0  0  0  0  0
  193.4580  171.5360  137.8440 C   0  0  0  0  0  2  0  0  0  0  0  0
  192.7890  171.6320  136.6190 O   0  0  0  0  0  0  0  0  0  0  0  0
  193.6290  172.3970  135.8050 C   0  0  0  0  0  2  0  0  0  0  0  0
  194.0510  173.6690  136.5300 C   0  0  0  0  0  2  0  0  0  0  0  0
  195.4920  173.9970  136.1910 C   0  0  0  0  0  2  0  0  0  0  0  0
  196.9690  175.8470  136.4850 O   0  0  0  0  0  1  0  0  0  0  0  0
  196.0370  175.0420  137.1530 C   0  0  2  0  0  3  0  0  0  0  0  0
  197.3940  175.3480  139.2310 C   0  0  0  0  0  2  0  0  0  0  0  0
  196.0350  174.8050  139.6110 C   0  0  0  0  0  2  0  0  0  0  0  0
  196.7010  174.3400  138.3320 C   0  0  0  0  0  3  0  0  0  0  0  0
  195.0450  173.6230  145.5410 C   0  0  0  0  0  2  0  0  0  0  0  0
  195.5150  174.7970  144.7410 C   0  0  0  0  0  0  0  0  0  0  0  0
  196.6880  174.7720  144.2870 O   0  0  0  0  0  0  0  0  0  0  0  0
  194.9290  177.1010  145.0130 N   0  0  0  0  0  2  0  0  0  0  0  0
  194.6470  175.9640  144.4620 C   0  0  0  0  0  0  0  0  0  0  0  0
  193.5740  176.2540  142.3620 O   0  0  0  0  0  0  0  0  0  0  0  0
  193.4830  175.8690  143.5600 C   0  0  0  0  0  0  0  0  0  0  0  0
  192.1810  175.2980  144.0400 C   0  0  0  0  0  2  0  0  0  0  0  0
  189.6960  176.1680  144.2980 C   0  0  1  0  0  3  0  0  0  0  0  0
  191.5950  177.2940  145.4220 O   0  0  0  0  0  1  0  0  0  0  0  0
  190.4840  176.9570  143.4270 O   0  0  0  0  0  0  0  0  0  0  0  0
  191.1590  176.3440  144.4980 C   0  0  1  0  0  0  0  0  0  0  0  0
  188.8710  177.0750  145.2020 C   0  0  1  0  0  3  0  0  0  0  0  0
  184.9100  178.6940  142.7150 O   0  0  0  0  0  0  0  0  0  0  0  0
  185.9650  178.9410  144.9820 C   0  0  0  0  0  2  0  0  0  0  0  0
  187.3560  177.0510  145.0230 C   0  0  2  0  0  0  0  0  0  0  0  0
  186.2990  177.3390  147.3480 C   0  0  0  0  0  1  0  0  0  0  0  0
  188.7520  176.2790  146.8520 S   0  0  0  0  0  0  0  0  0  0  0  0
  186.6340  178.0070  144.0300 C   0  0  1  0  0  0  0  0  0  0  0  0
  184.2500  179.3990  143.6940 C   0  0  0  0  0  2  0  0  0  0  0  0
  186.9890  176.4130  146.3590 C   0  0  2  0  0  3  0  0  0  0  0  0
  185.0820  178.1970  144.0390 C   0  0  2  0  0  0  0  0  0  0  0  0
  186.5940  176.4620  143.8850 C   0  0  1  0  0  3  0  0  0  0  0  0
  187.3890  176.0620  142.6490 C   0  0  0  0  0  2  0  0  0  0  0  0
  187.2850  174.6890  142.4280 O   0  0  0  0  0  0  0  0  0  0  0  0
  188.2540  174.4160  141.4630 C   0  0  0  0  0  1  0  0  0  0  0  0
  1 27  1  0  0  0  0
  1  2  1  1  0  0  0
  3  4  1  1  0  0  0
  3  1  1  0  0  0  0
  5  8  1  6  0  0  0
  5  3  1  0  0  0  0
  6  7  1  0  0  0  0
  7  5  1  0  0  0  0
  9  8  1  0  0  0  0
 10 11  1  6  0  0  0
 10  9  1  0  0  0  0
 12 11  2  0  0  0  0
 13 11  1  0  0  0  0
 14 17  1  1  0  0  0
 14 16  1  0  0  0  0
 14 10  1  0  0  0  0
 16 15  1  0  0  0  0
 18 17  1  0  0  0  0
 19 20  1  0  0  0  0
 19 18  1  0  0  0  0
 21 20  1  0  0  0  0
 21 23  1  0  0  0  0
 23 22  1  6  0  0  0
 23 26  1  0  0  0  0
 24 25  1  0  0  0  0
 26 24  1  0  0  0  0
 26 25  1  0  0  0  0
 28 27  1  0  0  0  0
 29 28  2  0  0  0  0
 31 28  1  0  0  0  0
 31 30  2  0  0  0  0
 32 33  2  0  0  0  0
 33 34  1  0  0  0  0
 33 31  1  0  0  0  0
 34 38  1  0  0  0  0
 35 37  1  6  0  0  0
 35 38  1  0  0  0  0
 35 39  1  0  0  0  0
 37 38  1  0  0  0  0
 38 36  1  1  0  0  0
 39 44  1  1  0  0  0
 40 46  1  0  0  0  0
 40 48  1  0  0  0  0
 42 39  1  0  0  0  0
 42 47  1  0  0  0  0
 45 48  1  0  0  0  0
 45 41  1  0  0  0  0
 45 42  1  0  0  0  0
 46 48  1  0  0  0  0
 47 44  1  0  0  0  0
 47 43  1  0  0  0  0
 48 41  1  0  0  0  0
 49 45  1  0  0  0  0
 49 42  1  0  0  0  0
 50 49  1  0  0  0  0
 51 50  1  0  0  0  0
 52 51  1  0  0  0  0
M  END
>  <MODEL>
9

>  <REMARK>
 VINA RESULT:      -5.1      2.761      9.767
  Name = 
  25 active torsions:
  status: ('A' for Active; 'I' for Inactive)
    1  A    between atoms: C_2  and  C_6
    2  A    between atoms: C_7  and  O_42
    3  A    between atoms: C_7  and  C_50
    4  A    between atoms: C_11  and  C_18
    5  A    between atoms: C_11  and  C_22
    6  A    between atoms: C_11  and  O_35
    7  A    between atoms: C_12  and  C_43
    8  A    between atoms: C_12  and  C_47
    9  A    between atoms: C_13  and  C_25
   10  A    between atoms: C_13  and  C_30
   11  A    between atoms: C_14  and  C_26
   12  A    between atoms: C_14  and  O_35
   13  A    between atoms: C_19  and  C_22
   14  A    between atoms: O_20  and  C_38
   15  A    between atoms: O_20  and  C_47
   16  A    between atoms: C_21  and  C_26
   17  A    between atoms: C_21  and  C_37
   18  A    between atoms: C_22  and  C_38
   19  A    between atoms: C_25  and  C_40
   20  A    between atoms: C_26  and  C_31
   21  A    between atoms: C_30  and  C_44
   22  A    between atoms: C_37  and  C_44
   23  A    between atoms: C_40  and  C_51
   24  A    between atoms: C_41  and  C_43
   25  A    between atoms: C_41  and  C_48
                            x       y       z     vdW  Elec       q    Type
                         _______ _______ _______ _____ _____    ______ ____

>  <TORSDO>
F 25

$$$$
