=
 OpenBabel11062419083D

 32 35  0  0  1  0  0  0  0  0999 V2000
  192.4730  174.4910  146.1680 C   0  0  0  0  0  3  0  0  0  0  0  0
  187.4810  176.1910  143.4060 C   0  0  1  0  0  3  0  0  0  0  0  0
  189.1870  175.2770  145.8960 C   0  0  0  0  0  2  0  0  0  0  0  0
  190.5710  171.2350  141.8260 C   0  0  0  0  0  2  0  0  0  0  0  0
  192.6050  176.8940  145.5740 C   0  0  0  0  0  1  0  0  0  0  0  0
  189.7020  175.5170  144.4810 C   0  0  1  0  0  3  0  0  0  0  0  0
  193.3870  174.0740  145.0530 C   0  0  2  0  0  3  0  0  0  0  0  0
  189.7750  172.3140  141.1030 C   0  0  0  0  0  2  0  0  0  0  0  0
  189.7130  176.3600  146.8360 C   0  0  0  0  0  2  0  0  0  0  0  0
  191.8460  171.7560  142.4310 C   0  0  0  0  0  0  0  0  0  0  0  0
  189.7060  174.2530  143.6680 C   0  0  0  0  0  0  0  0  0  0  0  0
  192.1210  175.7560  146.4230 C   0  0  0  0  0  0  0  0  0  0  0  0
  192.9270  172.7100  144.5510 C   0  0  0  0  0  2  0  0  0  0  0  0
  191.4850  177.0400  148.4560 C   0  0  0  0  0  1  0  0  0  0  0  0
  191.8530  172.7770  143.4990 C   0  0  0  0  0  0  0  0  0  0  0  0
  187.4090  174.7480  142.8590 C   0  0  0  0  0  2  0  0  0  0  0  0
  188.9110  176.6270  143.7810 C   0  0  0  0  0  2  0  0  0  0  0  0
  191.0570  175.9790  147.4580 C   0  0  1  0  0  3  0  0  0  0  0  0
  188.7700  174.1660  142.4820 C   0  0  2  0  0  3  0  0  0  0  0  0
  192.9370  171.2530  142.0510 O   0  0  0  0  0  0  0  0  0  0  0  0
  190.7990  173.5390  143.6460 C   0  0  0  0  0  0  0  0  0  0  0  0
  188.5840  172.7430  141.9520 C   0  0  0  0  0  2  0  0  0  0  0  0
  186.8450  177.1860  142.4290 C   0  0  0  0  0  3  0  0  0  0  0  0
  184.6310  178.0570  141.5220 C   0  0  0  0  0  2  0  0  0  0  0  0
  185.3370  177.3440  142.6860 C   0  0  0  0  0  2  0  0  0  0  0  0
  185.5590  178.6390  140.6390 O   0  0  0  0  0  0  0  0  0  0  0  0
  187.1090  176.7940  140.9670 C   0  0  0  0  0  2  0  0  0  0  0  0
  186.2060  177.5690  139.9960 C   0  0  0  0  0  2  0  0  0  0  0  0
  194.8130  173.9370  145.5670 C   0  0  0  0  0  2  0  0  0  0  0  0
  195.7710  174.7030  144.7200 C   0  0  0  0  0  0  0  0  0  0  0  0
  197.1390  174.5600  144.9160 O   0  0  0  0  0  1  0  0  0  0  0  0
  195.3420  175.4950  143.8410 O   0  0  0  0  0  0  0  0  0  0  0  0
  1 12  2  0  0  0  0
  2 23  1  6  0  0  0
  2 17  1  0  0  0  0
  3  9  1  0  0  0  0
  4 10  1  0  0  0  0
  5 12  1  0  0  0  0
  6 17  1  6  0  0  0
  6  3  1  0  0  0  0
  7 29  1  1  0  0  0
  7  1  1  0  0  0  0
  8  4  1  0  0  0  0
  8 22  1  0  0  0  0
  9 18  1  0  0  0  0
 10 15  1  0  0  0  0
 11  6  1  0  0  0  0
 12 18  1  0  0  0  0
 13  7  1  0  0  0  0
 15 21  2  0  0  0  0
 15 13  1  0  0  0  0
 16  2  1  0  0  0  0
 18 14  1  1  0  0  0
 19 22  1  1  0  0  0
 19 16  1  0  0  0  0
 19 11  1  0  0  0  0
 20 10  2  0  0  0  0
 21 11  2  0  0  0  0
 23 25  1  0  0  0  0
 24 25  1  0  0  0  0
 26 24  1  0  0  0  0
 27 23  1  0  0  0  0
 28 26  1  0  0  0  0
 28 27  1  0  0  0  0
 30 31  1  0  0  0  0
 30 29  1  0  0  0  0
 32 30  2  0  0  0  0
M  END
>  <MODEL>
1

>  <REMARK>
 VINA RESULT:      -7.8      0.000      0.000
  Name = 
  3 active torsions:
  status: ('A' for Active; 'I' for Inactive)
    1  A    between atoms: C_2  and  C_15
    2  A    between atoms: C_7  and  C_14
    3  A    between atoms: C_14  and  C_22
                            x       y       z     vdW  Elec       q    Type
                         _______ _______ _______ _____ _____    ______ ____

>  <TORSDO>
F 3

$$$$
=
 OpenBabel11062419083D

 32 35  0  0  1  0  0  0  0  0999 V2000
  189.0700  177.0650  146.1450 C   0  0  0  0  0  3  0  0  0  0  0  0
  191.5030  172.4920  143.2100 C   0  0  1  0  0  3  0  0  0  0  0  0
  191.5730  175.2110  144.8080 C   0  0  0  0  0  2  0  0  0  0  0  0
  187.4860  176.2420  140.6770 C   0  0  0  0  0  2  0  0  0  0  0  0
  188.9130  175.0000  147.5060 C   0  0  0  0  0  1  0  0  0  0  0  0
  190.3370  174.3750  144.4900 C   0  0  1  0  0  3  0  0  0  0  0  0
  187.6210  177.0240  145.7540 C   0  0  2  0  0  3  0  0  0  0  0  0
  187.8060  174.7540  140.6010 C   0  0  0  0  0  2  0  0  0  0  0  0
  191.8750  175.1500  146.3040 C   0  0  0  0  0  2  0  0  0  0  0  0
  186.9260  176.6510  142.0130 C   0  0  0  0  0  0  0  0  0  0  0  0
  189.6760  174.8230  143.2170 C   0  0  0  0  0  0  0  0  0  0  0  0
  189.6640  176.1690  146.9410 C   0  0  0  0  0  0  0  0  0  0  0  0
  187.4990  177.5700  144.3370 C   0  0  0  0  0  2  0  0  0  0  0  0
  191.5660  176.2110  148.5420 C   0  0  0  0  0  1  0  0  0  0  0  0
  187.7050  176.5350  143.2630 C   0  0  0  0  0  0  0  0  0  0  0  0
  191.0400  173.2020  141.9190 C   0  0  0  0  0  2  0  0  0  0  0  0
  190.6710  172.8810  144.4490 C   0  0  0  0  0  2  0  0  0  0  0  0
  191.1560  176.2540  147.0810 C   0  0  1  0  0  3  0  0  0  0  0  0
  189.6710  173.8690  142.0420 C   0  0  2  0  0  3  0  0  0  0  0  0
  185.7780  177.1660  142.0470 O   0  0  0  0  0  0  0  0  0  0  0  0
  188.7160  175.7050  143.3000 C   0  0  0  0  0  0  0  0  0  0  0  0
  189.3100  174.5360  140.7140 C   0  0  0  0  0  2  0  0  0  0  0  0
  191.5320  170.9710  143.0270 C   0  0  0  0  0  3  0  0  0  0  0  0
  192.9580  169.0160  142.2330 C   0  0  0  0  0  2  0  0  0  0  0  0
  192.9580  170.4620  142.7530 C   0  0  0  0  0  2  0  0  0  0  0  0
  191.6970  168.4130  142.3950 O   0  0  0  0  0  0  0  0  0  0  0  0
  190.5700  170.5150  141.9180 C   0  0  0  0  0  2  0  0  0  0  0  0
  190.8370  169.0630  141.4930 C   0  0  0  0  0  2  0  0  0  0  0  0
  186.8030  177.9120  146.6810 C   0  0  0  0  0  2  0  0  0  0  0  0
  185.3410  177.7470  146.4400 C   0  0  0  0  0  0  0  0  0  0  0  0
  184.5550  178.8560  146.1550 O   0  0  0  0  0  0  0  0  0  0  0  0
  184.8150  176.6070  146.5140 O   0  0  0  0  0  1  0  0  0  0  0  0
  1 12  2  0  0  0  0
  2 23  1  6  0  0  0
  2 17  1  0  0  0  0
  3  9  1  0  0  0  0
  4 10  1  0  0  0  0
  6 17  1  6  0  0  0
  6  3  1  0  0  0  0
  7  1  1  0  0  0  0
  7 29  1  1  0  0  0
  8  4  1  0  0  0  0
  8 22  1  0  0  0  0
  9 18  1  0  0  0  0
 10 20  2  0  0  0  0
 10 15  1  0  0  0  0
 11 21  2  0  0  0  0
 11  6  1  0  0  0  0
 12 18  1  0  0  0  0
 12  5  1  0  0  0  0
 13  7  1  0  0  0  0
 15 21  2  0  0  0  0
 15 13  1  0  0  0  0
 16 19  1  0  0  0  0
 16  2  1  0  0  0  0
 18 14  1  1  0  0  0
 19 22  1  6  0  0  0
 19 11  1  0  0  0  0
 24 26  1  0  0  0  0
 24 25  1  0  0  0  0
 25 23  1  0  0  0  0
 27 23  1  0  0  0  0
 28 27  1  0  0  0  0
 28 26  1  0  0  0  0
 30 32  1  0  0  0  0
 30 29  1  0  0  0  0
 31 30  2  0  0  0  0
M  END
>  <MODEL>
2

>  <REMARK>
 VINA RESULT:      -7.7      2.684      6.983
  Name = 
  3 active torsions:
  status: ('A' for Active; 'I' for Inactive)
    1  A    between atoms: C_2  and  C_15
    2  A    between atoms: C_7  and  C_14
    3  A    between atoms: C_14  and  C_22
                            x       y       z     vdW  Elec       q    Type
                         _______ _______ _______ _____ _____    ______ ____

>  <TORSDO>
F 3

$$$$
=
 OpenBabel11062419083D

 32 35  0  0  1  0  0  0  0  0999 V2000
  191.1160  172.4410  141.8900 C   0  0  0  0  0  3  0  0  0  0  0  0
  188.8160  177.1850  144.6560 C   0  0  1  0  0  3  0  0  0  0  0  0
  189.7970  175.5540  142.1410 C   0  0  0  0  0  2  0  0  0  0  0  0
  194.3500  175.0550  145.8630 C   0  0  0  0  0  2  0  0  0  0  0  0
  188.8320  171.9270  142.7050 C   0  0  0  0  0  1  0  0  0  0  0  0
  189.7710  175.0670  143.5860 C   0  0  1  0  0  3  0  0  0  0  0  0
  191.7780  171.6610  142.9880 C   0  0  2  0  0  3  0  0  0  0  0  0
  193.2140  175.6870  146.6590 C   0  0  0  0  0  2  0  0  0  0  0  0
  188.7460  174.8120  141.3190 C   0  0  0  0  0  2  0  0  0  0  0  0
  194.0080  173.6860  145.3430 C   0  0  0  0  0  0  0  0  0  0  0  0
  191.0810  175.3140  144.2800 C   0  0  0  0  0  0  0  0  0  0  0  0
  189.7910  172.5620  141.7420 C   0  0  0  0  0  0  0  0  0  0  0  0
  193.0780  172.3670  143.3500 C   0  0  0  0  0  2  0  0  0  0  0  0
  188.2490  172.8810  139.8180 C   0  0  0  0  0  1  0  0  0  0  0  0
  192.9160  173.4590  144.3740 C   0  0  0  0  0  0  0  0  0  0  0  0
  190.2660  177.5250  145.0670 C   0  0  0  0  0  2  0  0  0  0  0  0
  188.6040  175.6870  144.3620 C   0  0  0  0  0  2  0  0  0  0  0  0
  189.3000  173.5270  140.7020 C   0  0  1  0  0  3  0  0  0  0  0  0
  191.1050  176.3010  145.4270 C   0  0  2  0  0  3  0  0  0  0  0  0
  194.7230  172.7140  145.7060 O   0  0  0  0  0  0  0  0  0  0  0  0
  191.9730  174.3600  144.2680 C   0  0  0  0  0  0  0  0  0  0  0  0
  192.5140  176.7490  145.8190 C   0  0  0  0  0  2  0  0  0  0  0  0
  187.8120  177.6840  145.7010 C   0  0  0  0  0  3  0  0  0  0  0  0
  186.1590  176.9460  147.4910 C   0  0  0  0  0  2  0  0  0  0  0  0
  187.4000  176.5630  146.6700 C   0  0  0  0  0  2  0  0  0  0  0  0
  185.8660  178.3160  147.3690 O   0  0  0  0  0  0  0  0  0  0  0  0
  186.5750  178.3150  145.0430 C   0  0  0  0  0  2  0  0  0  0  0  0
  185.4270  178.5030  146.0460 C   0  0  0  0  0  2  0  0  0  0  0  0
  192.1160  170.2580  142.5030 C   0  0  0  0  0  2  0  0  0  0  0  0
  193.0900  169.5890  143.4120 C   0  0  0  0  0  0  0  0  0  0  0  0
  194.3630  169.2760  142.9560 O   0  0  0  0  0  0  0  0  0  0  0  0
  192.7520  169.2900  144.5870 O   0  0  0  0  0  1  0  0  0  0  0  0
  1  7  1  0  0  0  0
  2 16  1  0  0  0  0
  2 23  1  1  0  0  0
  4  8  1  0  0  0  0
  6  3  1  6  0  0  0
  6 11  1  0  0  0  0
  6 17  1  0  0  0  0
  7 29  1  6  0  0  0
  7 13  1  0  0  0  0
  9  3  1  0  0  0  0
 10 20  2  0  0  0  0
 10  4  1  0  0  0  0
 11 19  1  0  0  0  0
 12  1  2  0  0  0  0
 12  5  1  0  0  0  0
 13 15  1  0  0  0  0
 15 10  1  0  0  0  0
 17  2  1  0  0  0  0
 18 14  1  1  0  0  0
 18  9  1  0  0  0  0
 18 12  1  0  0  0  0
 19 16  1  6  0  0  0
 19 22  1  0  0  0  0
 21 11  2  0  0  0  0
 21 15  2  0  0  0  0
 22  8  1  0  0  0  0
 23 25  1  0  0  0  0
 25 24  1  0  0  0  0
 26 24  1  0  0  0  0
 27 23  1  0  0  0  0
 27 28  1  0  0  0  0
 28 26  1  0  0  0  0
 29 30  1  0  0  0  0
 30 32  1  0  0  0  0
 31 30  2  0  0  0  0
M  END
>  <MODEL>
3

>  <REMARK>
 VINA RESULT:      -7.6      2.343      5.272
  Name = 
  3 active torsions:
  status: ('A' for Active; 'I' for Inactive)
    1  A    between atoms: C_2  and  C_15
    2  A    between atoms: C_7  and  C_14
    3  A    between atoms: C_14  and  C_22
                            x       y       z     vdW  Elec       q    Type
                         _______ _______ _______ _____ _____    ______ ____

>  <TORSDO>
F 3

$$$$
=
 OpenBabel11062419083D

 32 35  0  0  1  0  0  0  0  0999 V2000
  190.8230  173.2380  141.6060 C   0  0  0  0  0  3  0  0  0  0  0  0
  187.4180  177.1880  144.4790 C   0  0  1  0  0  3  0  0  0  0  0  0
  189.0270  176.0860  141.9990 C   0  0  0  0  0  2  0  0  0  0  0  0
  192.9430  175.6260  146.3900 C   0  0  0  0  0  2  0  0  0  0  0  0
  188.5420  172.3230  141.9250 C   0  0  0  0  0  1  0  0  0  0  0  0
  188.8420  175.3910  143.3440 C   0  0  1  0  0  3  0  0  0  0  0  0
  191.4110  172.3950  142.6990 C   0  0  2  0  0  3  0  0  0  0  0  0
  191.6120  175.9820  147.0390 C   0  0  0  0  0  2  0  0  0  0  0  0
  188.2460  175.3460  140.9150 C   0  0  0  0  0  2  0  0  0  0  0  0
  192.9010  174.3160  145.6510 C   0  0  0  0  0  0  0  0  0  0  0  0
  189.9710  175.6970  144.2870 C   0  0  0  0  0  0  0  0  0  0  0  0
  189.5370  173.2100  141.2370 C   0  0  0  0  0  0  0  0  0  0  0  0
  192.5140  173.2000  143.3750 C   0  0  0  0  0  2  0  0  0  0  0  0
  188.2950  173.6110  139.1210 C   0  0  0  0  0  1  0  0  0  0  0  0
  192.0260  174.0980  144.4800 C   0  0  0  0  0  0  0  0  0  0  0  0
  188.7150  177.6450  145.1830 C   0  0  0  0  0  2  0  0  0  0  0  0
  187.4860  175.7350  143.9670 C   0  0  0  0  0  2  0  0  0  0  0  0
  189.0800  174.2470  140.2540 C   0  0  1  0  0  3  0  0  0  0  0  0
  189.6600  176.4980  145.5330 C   0  0  2  0  0  3  0  0  0  0  0  0
  193.6860  173.4000  146.0130 O   0  0  0  0  0  0  0  0  0  0  0  0
  190.9870  174.8770  144.3180 C   0  0  0  0  0  0  0  0  0  0  0  0
  190.9040  177.0590  146.2260 C   0  0  0  0  0  2  0  0  0  0  0  0
  186.1960  177.3940  145.3790 C   0  0  0  0  0  3  0  0  0  0  0  0
  184.0650  178.7540  145.6840 C   0  0  0  0  0  2  0  0  0  0  0  0
  185.1250  178.2570  144.6890 C   0  0  0  0  0  2  0  0  0  0  0  0
  184.1630  178.0830  146.9170 O   0  0  0  0  0  0  0  0  0  0  0  0
  186.5880  177.9970  146.7370 C   0  0  0  0  0  2  0  0  0  0  0  0
  185.3640  178.5220  147.5030 C   0  0  0  0  0  2  0  0  0  0  0  0
  192.0300  171.1340  142.1130 C   0  0  0  0  0  2  0  0  0  0  0  0
  192.9010  170.4450  143.1080 C   0  0  0  0  0  0  0  0  0  0  0  0
  194.2490  170.2510  142.8330 O   0  0  0  0  0  0  0  0  0  0  0  0
  192.4120  170.0200  144.1860 O   0  0  0  0  0  1  0  0  0  0  0  0
  1  7  1  0  0  0  0
  2 16  1  0  0  0  0
  2 23  1  1  0  0  0
  4  8  1  0  0  0  0
  6  3  1  6  0  0  0
  6 17  1  0  0  0  0
  6 11  1  0  0  0  0
  7 29  1  6  0  0  0
  7 13  1  0  0  0  0
  9  3  1  0  0  0  0
 10 20  2  0  0  0  0
 10  4  1  0  0  0  0
 11 21  2  0  0  0  0
 11 19  1  0  0  0  0
 12  1  2  0  0  0  0
 12  5  1  0  0  0  0
 13 15  1  0  0  0  0
 15 10  1  0  0  0  0
 17  2  1  0  0  0  0
 18 14  1  6  0  0  0
 18  9  1  0  0  0  0
 18 12  1  0  0  0  0
 19 16  1  6  0  0  0
 19 22  1  0  0  0  0
 21 15  2  0  0  0  0
 22  8  1  0  0  0  0
 23 27  1  0  0  0  0
 24 26  1  0  0  0  0
 25 23  1  0  0  0  0
 25 24  1  0  0  0  0
 26 28  1  0  0  0  0
 27 28  1  0  0  0  0
 29 30  1  0  0  0  0
 30 32  1  0  0  0  0
 31 30  2  0  0  0  0
M  END
>  <MODEL>
4

>  <REMARK>
 VINA RESULT:      -7.5      2.303      5.214
  Name = 
  3 active torsions:
  status: ('A' for Active; 'I' for Inactive)
    1  A    between atoms: C_2  and  C_15
    2  A    between atoms: C_7  and  C_14
    3  A    between atoms: C_14  and  C_22
                            x       y       z     vdW  Elec       q    Type
                         _______ _______ _______ _____ _____    ______ ____

>  <TORSDO>
F 3

$$$$
=
 OpenBabel11062419083D

 32 35  0  0  1  0  0  0  0  0999 V2000
  193.0980  174.4400  145.7430 C   0  0  0  0  0  3  0  0  0  0  0  0
  187.7950  175.2910  143.1730 C   0  0  1  0  0  3  0  0  0  0  0  0
  189.7150  174.4230  145.5210 C   0  0  0  0  0  2  0  0  0  0  0  0
  191.9920  171.5880  140.8730 C   0  0  0  0  0  2  0  0  0  0  0  0
  192.6200  176.8650  145.5590 C   0  0  0  0  0  1  0  0  0  0  0  0
  190.1320  175.0170  144.1790 C   0  0  1  0  0  3  0  0  0  0  0  0
  194.0680  174.4540  144.5980 C   0  0  2  0  0  3  0  0  0  0  0  0
  190.9410  172.5420  140.3190 C   0  0  0  0  0  2  0  0  0  0  0  0
  189.9710  175.4300  146.6400 C   0  0  0  0  0  2  0  0  0  0  0  0
  193.1070  172.2990  141.5890 C   0  0  0  0  0  0  0  0  0  0  0  0
  190.4350  173.9470  143.1680 C   0  0  0  0  0  0  0  0  0  0  0  0
  192.4470  175.5180  146.1950 C   0  0  0  0  0  0  0  0  0  0  0  0
  193.9520  173.1230  143.8650 C   0  0  0  0  0  2  0  0  0  0  0  0
  191.5470  176.2460  148.3960 C   0  0  0  0  0  1  0  0  0  0  0  0
  192.8780  173.0970  142.8110 C   0  0  0  0  0  0  0  0  0  0  0  0
  188.0750  173.9870  142.3930 C   0  0  0  0  0  2  0  0  0  0  0  0
  189.0790  175.9980  143.6530 C   0  0  0  0  0  2  0  0  0  0  0  0
  191.3780  175.2950  147.2250 C   0  0  1  0  0  3  0  0  0  0  0  0
  189.5310  173.8310  141.9600 C   0  0  2  0  0  3  0  0  0  0  0  0
  194.2820  172.1530  141.1590 O   0  0  0  0  0  0  0  0  0  0  0  0
  191.6710  173.5400  143.0550 C   0  0  0  0  0  0  0  0  0  0  0  0
  189.6950  172.5160  141.1970 C   0  0  0  0  0  2  0  0  0  0  0  0
  186.9160  176.2460  142.3600 C   0  0  0  0  0  3  0  0  0  0  0  0
  186.7910  177.6140  140.2160 C   0  0  0  0  0  2  0  0  0  0  0  0
  187.4440  176.4180  140.9260 C   0  0  0  0  0  2  0  0  0  0  0  0
  185.6780  178.0900  140.9330 O   0  0  0  0  0  0  0  0  0  0  0  0
  186.7700  177.6100  143.0530 C   0  0  0  0  0  2  0  0  0  0  0  0
  186.1910  178.6720  142.1060 C   0  0  0  0  0  2  0  0  0  0  0  0
  195.4920  174.5910  145.1190 C   0  0  0  0  0  2  0  0  0  0  0  0
  196.3210  175.4410  144.2170 C   0  0  0  0  0  0  0  0  0  0  0  0
  195.8790  176.7090  143.8600 O   0  0  0  0  0  1  0  0  0  0  0  0
  197.4090  175.0040  143.7640 O   0  0  0  0  0  0  0  0  0  0  0  0
  1 12  2  0  0  0  0
  2 23  1  6  0  0  0
  2 17  1  0  0  0  0
  3  9  1  0  0  0  0
  4 10  1  0  0  0  0
  5 12  1  0  0  0  0
  6 17  1  6  0  0  0
  6  3  1  0  0  0  0
  7 29  1  1  0  0  0
  7  1  1  0  0  0  0
  8  4  1  0  0  0  0
  8 22  1  0  0  0  0
  9 18  1  0  0  0  0
 10 15  1  0  0  0  0
 11  6  1  0  0  0  0
 12 18  1  0  0  0  0
 13  7  1  0  0  0  0
 15 21  2  0  0  0  0
 15 13  1  0  0  0  0
 16  2  1  0  0  0  0
 18 14  1  1  0  0  0
 19 22  1  1  0  0  0
 19 16  1  0  0  0  0
 19 11  1  0  0  0  0
 20 10  2  0  0  0  0
 21 11  2  0  0  0  0
 23 27  1  0  0  0  0
 24 25  1  0  0  0  0
 24 26  1  0  0  0  0
 25 23  1  0  0  0  0
 26 28  1  0  0  0  0
 28 27  1  0  0  0  0
 30 29  1  0  0  0  0
 31 30  1  0  0  0  0
 32 30  2  0  0  0  0
M  END
>  <MODEL>
5

>  <REMARK>
 VINA RESULT:      -7.4      1.033      1.463
  Name = 
  3 active torsions:
  status: ('A' for Active; 'I' for Inactive)
    1  A    between atoms: C_2  and  C_15
    2  A    between atoms: C_7  and  C_14
    3  A    between atoms: C_14  and  C_22
                            x       y       z     vdW  Elec       q    Type
                         _______ _______ _______ _____ _____    ______ ____

>  <TORSDO>
F 3

$$$$
=
 OpenBabel11062419083D

 32 35  0  0  1  0  0  0  0  0999 V2000
  186.4260  177.3620  142.5400 C   0  0  0  0  0  3  0  0  0  0  0  0
  191.3420  174.0060  142.6510 C   0  0  1  0  0  3  0  0  0  0  0  0
  188.3950  174.7110  141.7740 C   0  0  0  0  0  2  0  0  0  0  0  0
  188.1930  175.3650  147.6360 C   0  0  0  0  0  2  0  0  0  0  0  0
  188.2420  178.4690  141.2660 C   0  0  0  0  0  1  0  0  0  0  0  0
  189.3110  175.5610  142.6500 C   0  0  1  0  0  3  0  0  0  0  0  0
  186.5780  178.2760  143.7210 C   0  0  2  0  0  3  0  0  0  0  0  0
  189.6620  175.1790  147.2770 C   0  0  0  0  0  2  0  0  0  0  0  0
  188.1980  175.3830  140.4170 C   0  0  0  0  0  2  0  0  0  0  0  0
  187.5870  176.5860  147.0000 C   0  0  0  0  0  0  0  0  0  0  0  0
  189.1010  175.2790  144.1110 C   0  0  0  0  0  0  0  0  0  0  0  0
  187.1590  177.4430  141.4230 C   0  0  0  0  0  0  0  0  0  0  0  0
  186.2780  177.4720  144.9800 C   0  0  0  0  0  2  0  0  0  0  0  0
  186.7910  176.9030  139.0240 C   0  0  0  0  0  1  0  0  0  0  0  0
  187.4690  176.7370  145.5350 C   0  0  0  0  0  0  0  0  0  0  0  0
  190.8710  173.5360  144.0450 C   0  0  0  0  0  2  0  0  0  0  0  0
  190.7800  175.3850  142.2530 C   0  0  0  0  0  2  0  0  0  0  0  0
  187.0050  176.3400  140.4170 C   0  0  1  0  0  3  0  0  0  0  0  0
  190.2370  174.6430  144.8840 C   0  0  2  0  0  3  0  0  0  0  0  0
  187.1100  177.4780  147.7520 O   0  0  0  0  0  0  0  0  0  0  0  0
  188.2490  176.0220  144.7650 C   0  0  0  0  0  0  0  0  0  0  0  0
  189.8110  174.0730  146.2380 C   0  0  0  0  0  2  0  0  0  0  0  0
  192.8710  173.9870  142.5470 C   0  0  0  0  0  3  0  0  0  0  0  0
  195.0130  173.3330  143.7580 C   0  0  0  0  0  2  0  0  0  0  0  0
  193.5000  173.0950  143.6300 C   0  0  0  0  0  2  0  0  0  0  0  0
  195.5050  174.0920  142.6800 O   0  0  0  0  0  0  0  0  0  0  0  0
  193.4600  175.4060  142.6000 C   0  0  0  0  0  2  0  0  0  0  0  0
  194.9770  175.3850  142.8420 C   0  0  0  0  0  2  0  0  0  0  0  0
  185.5750  179.4180  143.6330 C   0  0  0  0  0  2  0  0  0  0  0  0
  184.1830  178.9360  143.8620 C   0  0  0  0  0  0  0  0  0  0  0  0
  183.4580  178.3850  142.8130 O   0  0  0  0  0  0  0  0  0  0  0  0
  183.6570  179.0460  144.9990 O   0  0  0  0  0  1  0  0  0  0  0  0
  1  7  1  0  0  0  0
  2 23  1  1  0  0  0
  2 16  1  0  0  0  0
  5 12  1  0  0  0  0
  6  3  1  6  0  0  0
  6 11  1  0  0  0  0
  7 29  1  6  0  0  0
  7 13  1  0  0  0  0
  8  4  1  0  0  0  0
  9  3  1  0  0  0  0
 10  4  1  0  0  0  0
 10 20  2  0  0  0  0
 11 21  2  0  0  0  0
 11 19  1  0  0  0  0
 12  1  2  0  0  0  0
 13 15  1  0  0  0  0
 15 10  1  0  0  0  0
 17  6  1  0  0  0  0
 17  2  1  0  0  0  0
 18 14  1  6  0  0  0
 18  9  1  0  0  0  0
 18 12  1  0  0  0  0
 19 16  1  6  0  0  0
 19 22  1  0  0  0  0
 21 15  2  0  0  0  0
 22  8  1  0  0  0  0
 23 27  1  0  0  0  0
 23 25  1  0  0  0  0
 25 24  1  0  0  0  0
 26 28  1  0  0  0  0
 26 24  1  0  0  0  0
 27 28  1  0  0  0  0
 29 30  1  0  0  0  0
 30 32  1  0  0  0  0
 31 30  2  0  0  0  0
M  END
>  <MODEL>
6

>  <REMARK>
 VINA RESULT:      -7.3      2.303      8.059
  Name = 
  3 active torsions:
  status: ('A' for Active; 'I' for Inactive)
    1  A    between atoms: C_2  and  C_15
    2  A    between atoms: C_7  and  C_14
    3  A    between atoms: C_14  and  C_22
                            x       y       z     vdW  Elec       q    Type
                         _______ _______ _______ _____ _____    ______ ____

>  <TORSDO>
F 3

$$$$
=
 OpenBabel11062419083D

 32 35  0  0  1  0  0  0  0  0999 V2000
  187.7980  176.6910  143.7260 C   0  0  0  0  0  3  0  0  0  0  0  0
  193.3950  174.7630  143.0860 C   0  0  1  0  0  3  0  0  0  0  0  0
  190.2550  174.4720  142.9960 C   0  0  0  0  0  2  0  0  0  0  0  0
  191.1910  176.7270  148.3690 C   0  0  0  0  0  2  0  0  0  0  0  0
  188.8530  177.7760  141.7630 C   0  0  0  0  0  1  0  0  0  0  0  0
  191.0410  175.7290  143.3560 C   0  0  1  0  0  3  0  0  0  0  0  0
  187.9260  177.9160  144.5830 C   0  0  2  0  0  3  0  0  0  0  0  0
  192.5260  176.7950  147.6380 C   0  0  0  0  0  2  0  0  0  0  0  0
  189.5610  174.6570  141.6480 C   0  0  0  0  0  2  0  0  0  0  0  0
  190.1150  177.5330  147.6960 C   0  0  0  0  0  0  0  0  0  0  0  0
  191.2620  175.8410  144.8380 C   0  0  0  0  0  0  0  0  0  0  0  0
  188.1990  176.6150  142.4510 C   0  0  0  0  0  0  0  0  0  0  0  0
  188.1780  177.4630  146.0160 C   0  0  0  0  0  2  0  0  0  0  0  0
  187.4820  175.3340  140.4440 C   0  0  0  0  0  1  0  0  0  0  0  0
  189.6290  177.2220  146.3350 C   0  0  0  0  0  0  0  0  0  0  0  0
  193.4160  174.6200  144.6240 C   0  0  0  0  0  2  0  0  0  0  0  0
  192.3650  175.7970  142.5880 C   0  0  0  0  0  2  0  0  0  0  0  0
  188.1650  175.2640  141.7980 C   0  0  1  0  0  3  0  0  0  0  0  0
  192.6810  175.7410  145.3560 C   0  0  2  0  0  3  0  0  0  0  0  0
  189.5720  178.4660  148.3460 O   0  0  0  0  0  0  0  0  0  0  0  0
  190.3950  176.5190  145.5410 C   0  0  0  0  0  0  0  0  0  0  0  0
  192.7670  175.5040  146.8640 C   0  0  0  0  0  2  0  0  0  0  0  0
  194.7910  175.0760  142.5390 C   0  0  0  0  0  3  0  0  0  0  0  0
  197.0900  175.9840  143.1480 C   0  0  0  0  0  2  0  0  0  0  0  0
  195.7960  175.3420  143.6720 C   0  0  0  0  0  2  0  0  0  0  0  0
  197.1640  175.9180  141.7450 O   0  0  0  0  0  0  0  0  0  0  0  0
  194.7630  176.2520  141.5500 C   0  0  0  0  0  2  0  0  0  0  0  0
  196.1720  176.7910  141.2630 C   0  0  0  0  0  2  0  0  0  0  0  0
  186.6300  178.7140  144.5550 C   0  0  0  0  0  2  0  0  0  0  0  0
  185.4410  177.8160  144.5180 C   0  0  0  0  0  0  0  0  0  0  0  0
  184.8160  177.5410  143.3080 O   0  0  0  0  0  0  0  0  0  0  0  0
  184.9900  177.3230  145.5840 O   0  0  0  0  0  1  0  0  0  0  0  0
  1  7  1  0  0  0  0
  2 23  1  1  0  0  0
  2 16  1  0  0  0  0
  3  6  1  0  0  0  0
  5 12  1  0  0  0  0
  6 17  1  6  0  0  0
  6 11  1  0  0  0  0
  7 29  1  1  0  0  0
  7 13  1  0  0  0  0
  8  4  1  0  0  0  0
  9 18  1  0  0  0  0
  9  3  1  0  0  0  0
 10 20  2  0  0  0  0
 10  4  1  0  0  0  0
 11 19  1  0  0  0  0
 11 21  2  0  0  0  0
 12  1  2  0  0  0  0
 13 15  1  0  0  0  0
 15 10  1  0  0  0  0
 17  2  1  0  0  0  0
 18 14  1  6  0  0  0
 18 12  1  0  0  0  0
 19 16  1  6  0  0  0
 19 22  1  0  0  0  0
 21 15  2  0  0  0  0
 22  8  1  0  0  0  0
 23 25  1  0  0  0  0
 24 25  1  0  0  0  0
 26 24  1  0  0  0  0
 27 23  1  0  0  0  0
 28 27  1  0  0  0  0
 28 26  1  0  0  0  0
 30 29  1  0  0  0  0
 30 32  1  0  0  0  0
 31 30  2  0  0  0  0
M  END
>  <MODEL>
7

>  <REMARK>
 VINA RESULT:      -7.3      2.557      7.933
  Name = 
  3 active torsions:
  status: ('A' for Active; 'I' for Inactive)
    1  A    between atoms: C_2  and  C_15
    2  A    between atoms: C_7  and  C_14
    3  A    between atoms: C_14  and  C_22
                            x       y       z     vdW  Elec       q    Type
                         _______ _______ _______ _____ _____    ______ ____

>  <TORSDO>
F 3

$$$$
=
 OpenBabel11062419083D

 32 35  0  0  1  0  0  0  0  0999 V2000
  193.3610  174.7360  143.9860 C   0  0  0  0  0  3  0  0  0  0  0  0
  187.6770  176.5080  143.9900 C   0  0  1  0  0  3  0  0  0  0  0  0
  190.2070  175.0540  145.1880 C   0  0  0  0  0  2  0  0  0  0  0  0
  189.9950  172.9540  139.6760 C   0  0  0  0  0  2  0  0  0  0  0  0
  193.2330  177.1850  144.3480 C   0  0  0  0  0  1  0  0  0  0  0  0
  190.1470  175.8500  143.8880 C   0  0  1  0  0  3  0  0  0  0  0  0
  193.7900  174.8810  142.5550 C   0  0  2  0  0  3  0  0  0  0  0  0
  188.9740  174.0820  139.7430 C   0  0  0  0  0  2  0  0  0  0  0  0
  191.0370  175.8070  146.2250 C   0  0  0  0  0  2  0  0  0  0  0  0
  191.3990  173.4190  139.9540 C   0  0  0  0  0  0  0  0  0  0  0  0
  189.8570  174.9670  142.7070 C   0  0  0  0  0  0  0  0  0  0  0  0
  193.1170  175.7620  144.8090 C   0  0  0  0  0  0  0  0  0  0  0  0
  193.1900  173.7260  141.7630 C   0  0  0  0  0  2  0  0  0  0  0  0
  193.2820  176.1400  147.2620 C   0  0  0  0  0  1  0  0  0  0  0  0
  191.7970  173.9910  141.2570 C   0  0  0  0  0  0  0  0  0  0  0  0
  187.4200  175.3540  142.9950 C   0  0  0  0  0  2  0  0  0  0  0  0
  189.1390  176.9990  143.9850 C   0  0  0  0  0  2  0  0  0  0  0  0
  192.5200  175.4430  146.1490 C   0  0  1  0  0  3  0  0  0  0  0  0
  188.5440  175.1580  141.9800 C   0  0  2  0  0  3  0  0  0  0  0  0
  192.2710  173.2550  139.0600 O   0  0  0  0  0  0  0  0  0  0  0  0
  190.8690  174.4820  142.0380 C   0  0  0  0  0  0  0  0  0  0  0  0
  188.1870  173.9990  141.0460 C   0  0  0  0  0  2  0  0  0  0  0  0
  186.7080  177.6720  143.7520 C   0  0  0  0  0  3  0  0  0  0  0  0
  185.0460  179.2350  144.8820 C   0  0  0  0  0  2  0  0  0  0  0  0
  186.2590  178.3120  145.0760 C   0  0  0  0  0  2  0  0  0  0  0  0
  184.8120  179.4930  143.5190 O   0  0  0  0  0  0  0  0  0  0  0  0
  185.4930  177.2360  142.9190 C   0  0  0  0  0  2  0  0  0  0  0  0
  184.3660  178.2790  142.9650 C   0  0  0  0  0  2  0  0  0  0  0  0
  195.3070  174.7940  142.4520 C   0  0  0  0  0  2  0  0  0  0  0  0
  195.9200  176.1460  142.3190 C   0  0  0  0  0  0  0  0  0  0  0  0
  196.6280  176.6950  143.3810 O   0  0  0  0  0  1  0  0  0  0  0  0
  195.7800  176.8000  141.2530 O   0  0  0  0  0  0  0  0  0  0  0  0
  1 12  2  0  0  0  0
  2 23  1  6  0  0  0
  3  9  1  0  0  0  0
  4  8  1  0  0  0  0
  4 10  1  0  0  0  0
  5 12  1  0  0  0  0
  6 17  1  1  0  0  0
  6  3  1  0  0  0  0
  7 29  1  1  0  0  0
  7  1  1  0  0  0  0
  8 22  1  0  0  0  0
 10 15  1  0  0  0  0
 11  6  1  0  0  0  0
 12 18  1  0  0  0  0
 13  7  1  0  0  0  0
 15 13  1  0  0  0  0
 15 21  2  0  0  0  0
 16  2  1  0  0  0  0
 17  2  1  0  0  0  0
 18  9  1  0  0  0  0
 18 14  1  1  0  0  0
 19 22  1  1  0  0  0
 19 11  1  0  0  0  0
 19 16  1  0  0  0  0
 20 10  2  0  0  0  0
 21 11  2  0  0  0  0
 23 25  1  0  0  0  0
 24 25  1  0  0  0  0
 26 24  1  0  0  0  0
 27 28  1  0  0  0  0
 27 23  1  0  0  0  0
 28 26  1  0  0  0  0
 30 29  1  0  0  0  0
 30 31  1  0  0  0  0
 32 30  2  0  0  0  0
M  END
>  <MODEL>
8

>  <REMARK>
 VINA RESULT:      -7.3      1.947      2.368
  Name = 
  3 active torsions:
  status: ('A' for Active; 'I' for Inactive)
    1  A    between atoms: C_2  and  C_15
    2  A    between atoms: C_7  and  C_14
    3  A    between atoms: C_14  and  C_22
                            x       y       z     vdW  Elec       q    Type
                         _______ _______ _______ _____ _____    ______ ____

>  <TORSDO>
F 3

$$$$
=
 OpenBabel11062419083D

 32 35  0  0  1  0  0  0  0  0999 V2000
  191.6940  176.3200  144.6850 C   0  0  0  0  0  3  0  0  0  0  0  0
  195.0360  171.3950  144.5540 C   0  0  1  0  0  3  0  0  0  0  0  0
  194.4790  174.4690  144.1240 C   0  0  0  0  0  2  0  0  0  0  0  0
  189.8730  171.9320  141.4450 C   0  0  0  0  0  2  0  0  0  0  0  0
  192.2790  175.6270  146.9920 C   0  0  0  0  0  1  0  0  0  0  0  0
  193.5110  173.4430  144.7050 C   0  0  1  0  0  3  0  0  0  0  0  0
  190.2880  175.8080  144.7920 C   0  0  2  0  0  3  0  0  0  0  0  0
  190.5990  170.8200  142.1910 C   0  0  0  0  0  2  0  0  0  0  0  0
  194.9340  175.4350  145.2150 C   0  0  0  0  0  2  0  0  0  0  0  0
  189.3570  173.0090  142.3590 C   0  0  0  0  0  0  0  0  0  0  0  0
  192.6230  172.8540  143.6450 C   0  0  0  0  0  0  0  0  0  0  0  0
  192.5990  176.2570  145.6690 C   0  0  0  0  0  0  0  0  0  0  0  0
  189.8710  175.2840  143.4240 C   0  0  0  0  0  2  0  0  0  0  0  0
  194.5600  177.6220  146.3590 C   0  0  0  0  0  1  0  0  0  0  0  0
  190.2570  173.8510  143.1740 C   0  0  0  0  0  0  0  0  0  0  0  0
  194.2590  171.0200  143.2720 C   0  0  0  0  0  2  0  0  0  0  0  0
  194.2560  172.3510  145.4790 C   0  0  0  0  0  2  0  0  0  0  0  0
  194.0090  176.6470  145.3340 C   0  0  1  0  0  3  0  0  0  0  0  0
  192.7770  171.3820  143.3260 C   0  0  2  0  0  3  0  0  0  0  0  0
  188.1170  173.2340  142.3780 O   0  0  0  0  0  0  0  0  0  0  0  0
  191.4630  173.4140  143.4320 C   0  0  0  0  0  0  0  0  0  0  0  0
  192.1060  170.9680  142.0150 C   0  0  0  0  0  2  0  0  0  0  0  0
  195.4850  170.1430  145.3160 C   0  0  0  0  0  3  0  0  0  0  0  0
  194.8830  168.5570  147.2150 C   0  0  0  0  0  2  0  0  0  0  0  0
  194.3570  169.5850  146.2010 C   0  0  0  0  0  2  0  0  0  0  0  0
  196.1990  168.1660  146.9120 O   0  0  0  0  0  0  0  0  0  0  0  0
  196.7490  170.4090  146.1490 C   0  0  0  0  0  2  0  0  0  0  0  0
  197.0070  169.2880  147.1680 C   0  0  0  0  0  2  0  0  0  0  0  0
  189.3460  176.9400  145.1780 C   0  0  0  0  0  2  0  0  0  0  0  0
  188.4300  176.5310  146.2820 C   0  0  0  0  0  0  0  0  0  0  0  0
  187.3800  177.3590  146.6540 O   0  0  0  0  0  0  0  0  0  0  0  0
  188.6210  175.4460  146.8900 O   0  0  0  0  0  1  0  0  0  0  0  0
  1  7  1  0  0  0  0
  1 12  2  0  0  0  0
  2 23  1  1  0  0  0
  2 17  1  0  0  0  0
  3  9  1  0  0  0  0
  4  8  1  0  0  0  0
  4 10  1  0  0  0  0
  6  3  1  6  0  0  0
  6 17  1  0  0  0  0
  7 29  1  6  0  0  0
  9 18  1  0  0  0  0
 10 20  2  0  0  0  0
 10 15  1  0  0  0  0
 11  6  1  0  0  0  0
 12  5  1  0  0  0  0
 13  7  1  0  0  0  0
 15 13  1  0  0  0  0
 15 21  2  0  0  0  0
 16 19  1  0  0  0  0
 16  2  1  0  0  0  0
 18 12  1  0  0  0  0
 18 14  1  1  0  0  0
 19 22  1  6  0  0  0
 19 11  1  0  0  0  0
 21 11  2  0  0  0  0
 22  8  1  0  0  0  0
 23 27  1  0  0  0  0
 23 25  1  0  0  0  0
 25 24  1  0  0  0  0
 26 28  1  0  0  0  0
 26 24  1  0  0  0  0
 27 28  1  0  0  0  0
 29 30  1  0  0  0  0
 30 31  2  0  0  0  0
 30 32  1  0  0  0  0
M  END
>  <MODEL>
9

>  <REMARK>
 VINA RESULT:      -7.2      3.193      7.645
  Name = 
  3 active torsions:
  status: ('A' for Active; 'I' for Inactive)
    1  A    between atoms: C_2  and  C_15
    2  A    between atoms: C_7  and  C_14
    3  A    between atoms: C_14  and  C_22
                            x       y       z     vdW  Elec       q    Type
                         _______ _______ _______ _____ _____    ______ ____

>  <TORSDO>
F 3

$$$$
