=
 OpenBabel11062420163D

 25 27  0  0  0  0  0  0  0  0999 V2000
  188.3690  176.8170  145.8000 C   0  0  0  0  0  3  0  0  0  0  0  0
  187.4260  176.4510  146.6640 C   0  0  0  0  0  3  0  0  0  0  0  0
  189.7860  176.4280  145.9340 C   0  0  0  0  0  0  0  0  0  0  0  0
  190.4910  176.7960  147.0930 C   0  0  0  0  0  3  0  0  0  0  0  0
  191.8040  175.3460  145.1140 C   0  0  0  0  0  3  0  0  0  0  0  0
  190.4550  175.6890  144.9190 C   0  0  0  0  0  0  0  0  0  0  0  0
  191.8290  176.4450  147.2620 C   0  0  0  0  0  3  0  0  0  0  0  0
  192.4860  175.7190  146.2720 C   0  0  0  0  0  0  0  0  0  0  0  0
  193.8510  175.3590  146.4400 N   0  0  0  0  0  1  0  0  0  0  0  0
  189.3160  174.0500  143.4370 C   0  0  0  0  0  3  0  0  0  0  0  0
  188.7850  174.0080  142.1990 N   0  0  0  0  0  0  0  0  0  0  0  0
  188.9770  175.2580  141.7260 C   0  0  0  0  0  3  0  0  0  0  0  0
  189.5990  176.0330  142.6330 N   0  0  0  0  0  0  0  0  0  0  0  0
  189.8060  175.2760  143.6960 N   0  0  0  0  0  0  0  0  0  0  0  0
  186.0090  176.8800  146.4760 C   0  0  0  0  0  2  0  0  0  0  0  0
  185.9170  178.3420  146.0580 C   0  0  0  0  0  2  0  0  0  0  0  0
  184.7400  178.5750  145.1680 C   0  0  0  0  0  0  0  0  0  0  0  0
  183.6340  178.8890  145.6840 O   0  0  0  0  0  0  0  0  0  0  0  0
  186.0670  178.0370  140.2170 O   0  0  0  0  0  0  0  0  0  0  0  0
  186.4600  178.3230  142.8680 S   0  0  0  0  0  0  0  0  0  0  0  0
  183.7940  178.3400  142.9620 N   0  0  0  0  0  0  0  0  0  0  0  0
  184.8530  178.4170  143.7090 C   0  0  0  0  0  0  0  0  0  0  0  0
  185.5390  178.1620  141.3530 C   0  0  0  0  0  0  0  0  0  0  0  0
  183.2450  178.0980  140.6910 O   0  0  0  0  0  0  0  0  0  0  0  0
  184.1190  178.1920  141.5930 C   0  0  0  0  0  0  0  0  0  0  0  0
  1  3  1  0  0  0  0
  1  2  2  0  0  0  0
  3  4  1  0  0  0  0
  4  7  2  0  0  0  0
  5  8  2  0  0  0  0
  6  5  1  0  0  0  0
  6  3  2  0  0  0  0
  8  9  1  0  0  0  0
  8  7  1  0  0  0  0
 10 14  1  0  0  0  0
 11 10  2  0  0  0  0
 12 11  1  0  0  0  0
 12 13  2  0  0  0  0
 13 14  1  0  0  0  0
 14  6  1  0  0  0  0
 15  2  1  0  0  0  0
 16 15  1  0  0  0  0
 17 18  2  0  0  0  0
 17 16  1  0  0  0  0
 19 23  2  0  0  0  0
 20 22  1  0  0  0  0
 21 22  2  0  0  0  0
 22 17  1  0  0  0  0
 23 25  1  0  0  0  0
 23 20  1  0  0  0  0
 24 25  2  0  0  0  0
 25 21  1  0  0  0  0
M  END
>  <MODEL>
1

>  <REMARK>
 VINA RESULT:      -6.8      0.000      0.000
  Name = 
  6 active torsions:
  status: ('A' for Active; 'I' for Inactive)
    1  A    between atoms: C_1  and  C_2
    2  A    between atoms: C_7  and  C_10
    3  A    between atoms: C_7  and  C_25
    4  A    between atoms: C_10  and  C_16
    5  A    between atoms: C_13  and  N_21
    6  A    between atoms: C_14  and  C_16
                            x       y       z     vdW  Elec       q    Type
                         _______ _______ _______ _____ _____    ______ ____

>  <TORSDO>
F 6

$$$$
=
 OpenBabel11062420163D

 25 27  0  0  0  0  0  0  0  0999 V2000
  187.9140  177.8940  143.1900 C   0  0  0  0  0  3  0  0  0  0  0  0
  189.0420  177.9050  142.4850 C   0  0  0  0  0  3  0  0  0  0  0  0
  186.5750  177.9970  142.5780 C   0  0  0  0  0  0  0  0  0  0  0  0
  186.4580  177.9620  141.1770 C   0  0  0  0  0  3  0  0  0  0  0  0
  184.1570  178.2140  142.7220 C   0  0  0  0  0  3  0  0  0  0  0  0
  185.4020  178.1290  143.3700 C   0  0  0  0  0  0  0  0  0  0  0  0
  185.2120  178.0510  140.5590 C   0  0  0  0  0  3  0  0  0  0  0  0
  184.0600  178.1770  141.3320 C   0  0  0  0  0  0  0  0  0  0  0  0
  182.7880  178.2670  140.7040 N   0  0  0  0  0  1  0  0  0  0  0  0
  185.3480  177.1210  145.6420 C   0  0  0  0  0  3  0  0  0  0  0  0
  185.4040  177.5250  146.9270 N   0  0  0  0  0  0  0  0  0  0  0  0
  185.5270  178.8660  146.8350 C   0  0  0  0  0  3  0  0  0  0  0  0
  185.5440  179.2680  145.5510 N   0  0  0  0  0  0  0  0  0  0  0  0
  185.4340  178.1780  144.8140 N   0  0  0  0  0  0  0  0  0  0  0  0
  190.3670  177.8010  143.1640 C   0  0  0  0  0  2  0  0  0  0  0  0
  191.1200  176.5470  142.7350 C   0  0  0  0  0  2  0  0  0  0  0  0
  190.5760  175.3340  143.4170 C   0  0  0  0  0  0  0  0  0  0  0  0
  190.1210  174.3900  142.7170 O   0  0  0  0  0  0  0  0  0  0  0  0
  191.3580  175.3270  148.5110 O   0  0  0  0  0  0  0  0  0  0  0  0
  191.9770  175.6850  145.9120 S   0  0  0  0  0  0  0  0  0  0  0  0
  189.4810  174.8350  145.5060 N   0  0  0  0  0  0  0  0  0  0  0  0
  190.5460  175.2420  144.8860 C   0  0  0  0  0  0  0  0  0  0  0  0
  190.9690  175.2560  147.3160 C   0  0  0  0  0  0  0  0  0  0  0  0
  188.7520  174.4580  147.7070 O   0  0  0  0  0  0  0  0  0  0  0  0
  189.6580  174.8200  146.9100 C   0  0  0  0  0  0  0  0  0  0  0  0
  2 15  1  0  0  0  0
  2  1  2  0  0  0  0
  3  1  1  0  0  0  0
  3  6  1  0  0  0  0
  4  3  2  0  0  0  0
  5  6  2  0  0  0  0
  6 14  1  0  0  0  0
  7  4  1  0  0  0  0
  7  8  2  0  0  0  0
  8  5  1  0  0  0  0
  9  8  1  0  0  0  0
 10 11  2  0  0  0  0
 12 11  1  0  0  0  0
 13 12  2  0  0  0  0
 14 13  1  0  0  0  0
 14 10  1  0  0  0  0
 16 15  1  0  0  0  0
 16 17  1  0  0  0  0
 17 22  1  0  0  0  0
 18 17  2  0  0  0  0
 20 23  1  0  0  0  0
 21 25  1  0  0  0  0
 22 21  2  0  0  0  0
 22 20  1  0  0  0  0
 23 19  2  0  0  0  0
 25 23  1  0  0  0  0
 25 24  2  0  0  0  0
M  END
>  <MODEL>
2

>  <REMARK>
 VINA RESULT:      -6.8      3.489      7.575
  Name = 
  6 active torsions:
  status: ('A' for Active; 'I' for Inactive)
    1  A    between atoms: C_1  and  C_2
    2  A    between atoms: C_7  and  C_10
    3  A    between atoms: C_7  and  C_25
    4  A    between atoms: C_10  and  C_16
    5  A    between atoms: C_13  and  N_21
    6  A    between atoms: C_14  and  C_16
                            x       y       z     vdW  Elec       q    Type
                         _______ _______ _______ _____ _____    ______ ____

>  <TORSDO>
F 6

$$$$
=
 OpenBabel11062420163D

 25 27  0  0  0  0  0  0  0  0999 V2000
  188.4290  177.6400  144.1210 C   0  0  0  0  0  3  0  0  0  0  0  0
  189.7070  177.5830  143.7550 C   0  0  0  0  0  3  0  0  0  0  0  0
  187.3170  177.7920  143.1640 C   0  0  0  0  0  0  0  0  0  0  0  0
  187.5930  177.7810  141.7860 C   0  0  0  0  0  3  0  0  0  0  0  0
  184.9600  178.0800  142.6360 C   0  0  0  0  0  3  0  0  0  0  0  0
  185.9730  177.9470  143.6020 C   0  0  0  0  0  0  0  0  0  0  0  0
  186.5710  177.9170  140.8470 C   0  0  0  0  0  3  0  0  0  0  0  0
  185.2540  178.0660  141.2730 C   0  0  0  0  0  0  0  0  0  0  0  0
  184.2090  178.2040  140.3190 N   0  0  0  0  0  1  0  0  0  0  0  0
  185.4160  179.0780  145.7450 C   0  0  0  0  0  3  0  0  0  0  0  0
  185.0850  178.7410  147.0070 N   0  0  0  0  0  0  0  0  0  0  0  0
  185.0830  177.3910  146.9880 C   0  0  0  0  0  3  0  0  0  0  0  0
  185.3990  176.9200  145.7680 N   0  0  0  0  0  0  0  0  0  0  0  0
  185.6030  177.9740  144.9990 N   0  0  0  0  0  0  0  0  0  0  0  0
  190.7880  177.4330  144.7720 C   0  0  0  0  0  2  0  0  0  0  0  0
  190.2300  176.9950  146.1220 C   0  0  0  0  0  2  0  0  0  0  0  0
  191.3290  176.6130  147.0600 C   0  0  0  0  0  0  0  0  0  0  0  0
  191.2360  176.9330  148.2750 O   0  0  0  0  0  0  0  0  0  0  0  0
  195.9400  174.9180  145.5030 O   0  0  0  0  0  0  0  0  0  0  0  0
  194.1410  176.6980  146.4320 S   0  0  0  0  0  0  0  0  0  0  0  0
  192.4480  174.6450  146.2320 N   0  0  0  0  0  0  0  0  0  0  0  0
  192.5190  175.8950  146.5770 C   0  0  0  0  0  0  0  0  0  0  0  0
  194.7460  175.1320  145.8400 C   0  0  0  0  0  0  0  0  0  0  0  0
  193.8600  172.9540  145.4160 O   0  0  0  0  0  0  0  0  0  0  0  0
  193.6990  174.1440  145.7980 C   0  0  0  0  0  0  0  0  0  0  0  0
  2  1  2  0  0  0  0
  2 15  1  0  0  0  0
  3  6  1  0  0  0  0
  3  1  1  0  0  0  0
  4  3  2  0  0  0  0
  5  6  2  0  0  0  0
  6 14  1  0  0  0  0
  7  8  2  0  0  0  0
  7  4  1  0  0  0  0
  8  5  1  0  0  0  0
  9  8  1  0  0  0  0
 10 11  2  0  0  0  0
 12 11  1  0  0  0  0
 13 12  2  0  0  0  0
 14 10  1  0  0  0  0
 14 13  1  0  0  0  0
 15 16  1  0  0  0  0
 16 17  1  0  0  0  0
 17 18  2  0  0  0  0
 19 23  2  0  0  0  0
 20 22  1  0  0  0  0
 21 22  2  0  0  0  0
 22 17  1  0  0  0  0
 23 20  1  0  0  0  0
 24 25  2  0  0  0  0
 25 23  1  0  0  0  0
 25 21  1  0  0  0  0
M  END
>  <MODEL>
3

>  <REMARK>
 VINA RESULT:      -6.6      4.381      8.019
  Name = 
  6 active torsions:
  status: ('A' for Active; 'I' for Inactive)
    1  A    between atoms: C_1  and  C_2
    2  A    between atoms: C_7  and  C_10
    3  A    between atoms: C_7  and  C_25
    4  A    between atoms: C_10  and  C_16
    5  A    between atoms: C_13  and  N_21
    6  A    between atoms: C_14  and  C_16
                            x       y       z     vdW  Elec       q    Type
                         _______ _______ _______ _____ _____    ______ ____

>  <TORSDO>
F 6

$$$$
=
 OpenBabel11062420163D

 25 27  0  0  0  0  0  0  0  0999 V2000
  188.8210  175.3030  146.3870 C   0  0  0  0  0  3  0  0  0  0  0  0
  188.3030  176.5220  146.5090 C   0  0  0  0  0  3  0  0  0  0  0  0
  190.2440  175.0540  146.0910 C   0  0  0  0  0  0  0  0  0  0  0  0
  191.2050  175.2940  147.0890 C   0  0  0  0  0  3  0  0  0  0  0  0
  192.0400  174.3510  144.6070 C   0  0  0  0  0  3  0  0  0  0  0  0
  190.6680  174.5740  144.8200 C   0  0  0  0  0  0  0  0  0  0  0  0
  192.5600  175.0670  146.8520 C   0  0  0  0  0  3  0  0  0  0  0  0
  192.9770  174.5940  145.6100 C   0  0  0  0  0  0  0  0  0  0  0  0
  194.3580  174.3610  145.3650 N   0  0  0  0  0  1  0  0  0  0  0  0
  189.3110  173.0930  143.3560 C   0  0  0  0  0  3  0  0  0  0  0  0
  188.4680  173.2050  142.3110 N   0  0  0  0  0  0  0  0  0  0  0  0
  188.4170  174.5350  142.0820 C   0  0  0  0  0  3  0  0  0  0  0  0
  189.1950  175.2090  142.9480 N   0  0  0  0  0  0  0  0  0  0  0  0
  189.7480  174.3060  143.7390 N   0  0  0  0  0  0  0  0  0  0  0  0
  186.8520  176.7090  146.8060 C   0  0  0  0  0  2  0  0  0  0  0  0
  186.4030  178.1390  146.5280 C   0  0  0  0  0  2  0  0  0  0  0  0
  185.3330  178.1740  145.4860 C   0  0  0  0  0  0  0  0  0  0  0  0
  184.1260  178.1760  145.8470 O   0  0  0  0  0  0  0  0  0  0  0  0
  185.5900  178.1750  140.3390 O   0  0  0  0  0  0  0  0  0  0  0  0
  184.4020  178.1460  142.7580 S   0  0  0  0  0  0  0  0  0  0  0  0
  186.9110  178.2120  143.6630 N   0  0  0  0  0  0  0  0  0  0  0  0
  185.6730  178.1810  144.0540 C   0  0  0  0  0  0  0  0  0  0  0  0
  185.7430  178.1790  141.5880 C   0  0  0  0  0  0  0  0  0  0  0  0
  188.1300  178.2400  141.6550 O   0  0  0  0  0  0  0  0  0  0  0  0
  187.0210  178.2130  142.2520 C   0  0  0  0  0  0  0  0  0  0  0  0
  1  2  2  0  0  0  0
  2 15  1  0  0  0  0
  3  1  1  0  0  0  0
  3  4  1  0  0  0  0
  5  6  1  0  0  0  0
  5  8  2  0  0  0  0
  6  3  2  0  0  0  0
  7  4  2  0  0  0  0
  8  7  1  0  0  0  0
  9  8  1  0  0  0  0
 10 14  1  0  0  0  0
 11 10  2  0  0  0  0
 12 11  1  0  0  0  0
 12 13  2  0  0  0  0
 13 14  1  0  0  0  0
 14  6  1  0  0  0  0
 16 15  1  0  0  0  0
 17 18  2  0  0  0  0
 17 16  1  0  0  0  0
 19 23  2  0  0  0  0
 20 22  1  0  0  0  0
 21 22  2  0  0  0  0
 22 17  1  0  0  0  0
 23 25  1  0  0  0  0
 23 20  1  0  0  0  0
 24 25  2  0  0  0  0
 25 21  1  0  0  0  0
M  END
>  <MODEL>
4

>  <REMARK>
 VINA RESULT:      -6.6      1.359      1.729
  Name = 
  6 active torsions:
  status: ('A' for Active; 'I' for Inactive)
    1  A    between atoms: C_1  and  C_2
    2  A    between atoms: C_7  and  C_10
    3  A    between atoms: C_7  and  C_25
    4  A    between atoms: C_10  and  C_16
    5  A    between atoms: C_13  and  N_21
    6  A    between atoms: C_14  and  C_16
                            x       y       z     vdW  Elec       q    Type
                         _______ _______ _______ _____ _____    ______ ____

>  <TORSDO>
F 6

$$$$
=
 OpenBabel11062420163D

 25 27  0  0  0  0  0  0  0  0999 V2000
  188.5250  175.7720  146.7380 C   0  0  0  0  0  3  0  0  0  0  0  0
  189.6570  176.2600  147.2390 C   0  0  0  0  0  3  0  0  0  0  0  0
  187.3870  176.6190  146.3330 C   0  0  0  0  0  0  0  0  0  0  0  0
  186.3090  176.7870  147.2200 C   0  0  0  0  0  3  0  0  0  0  0  0
  186.2430  178.0700  144.7500 C   0  0  0  0  0  3  0  0  0  0  0  0
  187.3560  177.2710  145.0690 C   0  0  0  0  0  0  0  0  0  0  0  0
  185.2160  177.5830  146.8790 C   0  0  0  0  0  3  0  0  0  0  0  0
  185.1840  178.2250  145.6430 C   0  0  0  0  0  0  0  0  0  0  0  0
  184.0710  179.0380  145.2920 N   0  0  0  0  0  1  0  0  0  0  0  0
  188.4900  176.2300  143.1180 C   0  0  0  0  0  3  0  0  0  0  0  0
  189.6180  176.3960  142.3990 N   0  0  0  0  0  0  0  0  0  0  0  0
  190.2200  177.4510  142.9900 C   0  0  0  0  0  3  0  0  0  0  0  0
  189.4950  177.9110  144.0250 N   0  0  0  0  0  0  0  0  0  0  0  0
  188.4190  177.1480  144.0990 N   0  0  0  0  0  0  0  0  0  0  0  0
  190.7720  175.3500  147.6340 C   0  0  0  0  0  2  0  0  0  0  0  0
  192.0940  175.7780  147.0080 C   0  0  0  0  0  2  0  0  0  0  0  0
  192.2400  175.2240  145.6280 C   0  0  0  0  0  0  0  0  0  0  0  0
  191.3970  174.3840  145.2120 O   0  0  0  0  0  0  0  0  0  0  0  0
  196.6280  176.7880  143.4230 O   0  0  0  0  0  0  0  0  0  0  0  0
  194.9540  176.1760  145.4460 S   0  0  0  0  0  0  0  0  0  0  0  0
  193.2510  175.6080  143.4730 N   0  0  0  0  0  0  0  0  0  0  0  0
  193.3620  175.6280  144.7660 C   0  0  0  0  0  0  0  0  0  0  0  0
  195.4840  176.3840  143.7590 C   0  0  0  0  0  0  0  0  0  0  0  0
  194.5540  176.0900  141.5790 O   0  0  0  0  0  0  0  0  0  0  0  0
  194.4390  176.0320  142.8320 C   0  0  0  0  0  0  0  0  0  0  0  0
  1  2  2  0  0  0  0
  2 15  1  0  0  0  0
  3  1  1  0  0  0  0
  3  4  1  0  0  0  0
  5  6  1  0  0  0  0
  5  8  2  0  0  0  0
  6  3  2  0  0  0  0
  7  4  2  0  0  0  0
  8  7  1  0  0  0  0
  9  8  1  0  0  0  0
 10 14  1  0  0  0  0
 11 12  1  0  0  0  0
 11 10  2  0  0  0  0
 12 13  2  0  0  0  0
 13 14  1  0  0  0  0
 14  6  1  0  0  0  0
 16 15  1  0  0  0  0
 17 16  1  0  0  0  0
 18 17  2  0  0  0  0
 19 23  2  0  0  0  0
 21 22  2  0  0  0  0
 22 20  1  0  0  0  0
 22 17  1  0  0  0  0
 23 20  1  0  0  0  0
 24 25  2  0  0  0  0
 25 21  1  0  0  0  0
 25 23  1  0  0  0  0
M  END
>  <MODEL>
5

>  <REMARK>
 VINA RESULT:      -6.5      4.149      7.175
  Name = 
  6 active torsions:
  status: ('A' for Active; 'I' for Inactive)
    1  A    between atoms: C_1  and  C_2
    2  A    between atoms: C_7  and  C_10
    3  A    between atoms: C_7  and  C_25
    4  A    between atoms: C_10  and  C_16
    5  A    between atoms: C_13  and  N_21
    6  A    between atoms: C_14  and  C_16
                            x       y       z     vdW  Elec       q    Type
                         _______ _______ _______ _____ _____    ______ ____

>  <TORSDO>
F 6

$$$$
=
 OpenBabel11062420163D

 25 27  0  0  0  0  0  0  0  0999 V2000
  187.5530  178.1740  142.9870 C   0  0  0  0  0  3  0  0  0  0  0  0
  188.5490  177.5230  142.3920 C   0  0  0  0  0  3  0  0  0  0  0  0
  186.1790  178.2180  142.4520 C   0  0  0  0  0  0  0  0  0  0  0  0
  185.9860  178.2270  141.0600 C   0  0  0  0  0  3  0  0  0  0  0  0
  183.7640  178.2830  142.7350 C   0  0  0  0  0  3  0  0  0  0  0  0
  185.0460  178.2490  143.3110 C   0  0  0  0  0  0  0  0  0  0  0  0
  184.7040  178.2630  140.5130 C   0  0  0  0  0  3  0  0  0  0  0  0
  183.5920  178.2910  141.3510 C   0  0  0  0  0  0  0  0  0  0  0  0
  182.2830  178.3270  140.7970 N   0  0  0  0  0  1  0  0  0  0  0  0
  185.1920  179.3350  145.5430 C   0  0  0  0  0  3  0  0  0  0  0  0
  185.3060  178.9730  146.8360 N   0  0  0  0  0  0  0  0  0  0  0  0
  185.3360  177.6240  146.7880 C   0  0  0  0  0  3  0  0  0  0  0  0
  185.2460  177.1780  145.5220 N   0  0  0  0  0  0  0  0  0  0  0  0
  185.1560  178.2480  144.7520 N   0  0  0  0  0  0  0  0  0  0  0  0
  189.9200  177.5200  142.9810 C   0  0  0  0  0  2  0  0  0  0  0  0
  189.8980  177.9160  144.4530 C   0  0  0  0  0  2  0  0  0  0  0  0
  189.9350  176.7100  145.3350 C   0  0  0  0  0  0  0  0  0  0  0  0
  188.8810  176.3490  145.9240 O   0  0  0  0  0  0  0  0  0  0  0  0
  193.8170  173.3450  145.7440 O   0  0  0  0  0  0  0  0  0  0  0  0
  191.3140  174.1830  145.1960 S   0  0  0  0  0  0  0  0  0  0  0  0
  192.2530  176.5540  145.9780 N   0  0  0  0  0  0  0  0  0  0  0  0
  191.1850  175.9610  145.5390 C   0  0  0  0  0  0  0  0  0  0  0  0
  193.0110  174.3120  145.7180 C   0  0  0  0  0  0  0  0  0  0  0  0
  194.4770  176.0220  146.5130 O   0  0  0  0  0  0  0  0  0  0  0  0
  193.3430  175.6600  146.1030 C   0  0  0  0  0  0  0  0  0  0  0  0
  2 15  1  0  0  0  0
  2  1  2  0  0  0  0
  3  1  1  0  0  0  0
  3  6  1  0  0  0  0
  4  3  2  0  0  0  0
  5  6  2  0  0  0  0
  6 14  1  0  0  0  0
  7  4  1  0  0  0  0
  7  8  2  0  0  0  0
  8  5  1  0  0  0  0
  9  8  1  0  0  0  0
 10 11  2  0  0  0  0
 12 11  1  0  0  0  0
 13 12  2  0  0  0  0
 14 13  1  0  0  0  0
 14 10  1  0  0  0  0
 15 16  1  0  0  0  0
 16 17  1  0  0  0  0
 17 22  1  0  0  0  0
 17 18  2  0  0  0  0
 20 22  1  0  0  0  0
 20 23  1  0  0  0  0
 21 25  1  0  0  0  0
 22 21  2  0  0  0  0
 23 19  2  0  0  0  0
 23 25  1  0  0  0  0
 25 24  2  0  0  0  0
M  END
>  <MODEL>
6

>  <REMARK>
 VINA RESULT:      -6.5      3.937      8.002
  Name = 
  6 active torsions:
  status: ('A' for Active; 'I' for Inactive)
    1  A    between atoms: C_1  and  C_2
    2  A    between atoms: C_7  and  C_10
    3  A    between atoms: C_7  and  C_25
    4  A    between atoms: C_10  and  C_16
    5  A    between atoms: C_13  and  N_21
    6  A    between atoms: C_14  and  C_16
                            x       y       z     vdW  Elec       q    Type
                         _______ _______ _______ _____ _____    ______ ____

>  <TORSDO>
F 6

$$$$
=
 OpenBabel11062420163D

 25 27  0  0  0  0  0  0  0  0999 V2000
  189.2210  176.4600  145.1240 C   0  0  0  0  0  3  0  0  0  0  0  0
  190.3280  177.1730  145.3120 C   0  0  0  0  0  3  0  0  0  0  0  0
  187.8790  176.9260  145.5220 C   0  0  0  0  0  0  0  0  0  0  0  0
  187.5510  176.9860  146.8880 C   0  0  0  0  0  3  0  0  0  0  0  0
  185.6530  177.7600  145.0050 C   0  0  0  0  0  3  0  0  0  0  0  0
  186.9110  177.3180  144.5570 C   0  0  0  0  0  0  0  0  0  0  0  0
  186.2960  177.4260  147.3060 C   0  0  0  0  0  3  0  0  0  0  0  0
  185.3470  177.8140  146.3640 C   0  0  0  0  0  0  0  0  0  0  0  0
  184.0660  178.2630  146.7870 N   0  0  0  0  0  1  0  0  0  0  0  0
  187.0090  176.2140  142.3320 C   0  0  0  0  0  3  0  0  0  0  0  0
  187.3400  176.5270  141.0640 N   0  0  0  0  0  0  0  0  0  0  0  0
  187.7010  177.8270  141.1390 C   0  0  0  0  0  3  0  0  0  0  0  0
  187.5960  178.2900  142.3980 N   0  0  0  0  0  0  0  0  0  0  0  0
  187.1640  177.2820  143.1350 N   0  0  0  0  0  0  0  0  0  0  0  0
  191.6580  176.6440  144.8910 C   0  0  0  0  0  2  0  0  0  0  0  0
  192.3220  175.8450  146.0070 C   0  0  0  0  0  2  0  0  0  0  0  0
  193.6910  176.3670  146.3010 C   0  0  0  0  0  0  0  0  0  0  0  0
  193.8480  177.1660  147.2630 O   0  0  0  0  0  0  0  0  0  0  0  0
  197.7260  174.2230  143.9170 O   0  0  0  0  0  0  0  0  0  0  0  0
  195.7160  174.4040  145.7040 S   0  0  0  0  0  0  0  0  0  0  0  0
  195.2790  176.7600  144.5300 N   0  0  0  0  0  0  0  0  0  0  0  0
  194.8420  175.9790  145.4700 C   0  0  0  0  0  0  0  0  0  0  0  0
  196.7700  174.9110  144.3620 C   0  0  0  0  0  0  0  0  0  0  0  0
  196.9730  176.7910  142.9030 O   0  0  0  0  0  0  0  0  0  0  0  0
  196.3890  176.2030  143.8510 C   0  0  0  0  0  0  0  0  0  0  0  0
  1  2  2  0  0  0  0
  1  3  1  0  0  0  0
  3  4  1  0  0  0  0
  4  7  2  0  0  0  0
  5  8  2  0  0  0  0
  6  5  1  0  0  0  0
  6  3  2  0  0  0  0
  8  9  1  0  0  0  0
  8  7  1  0  0  0  0
 10 14  1  0  0  0  0
 11 12  1  0  0  0  0
 11 10  2  0  0  0  0
 12 13  2  0  0  0  0
 13 14  1  0  0  0  0
 14  6  1  0  0  0  0
 15  2  1  0  0  0  0
 15 16  1  0  0  0  0
 16 17  1  0  0  0  0
 17 18  2  0  0  0  0
 19 23  2  0  0  0  0
 21 22  2  0  0  0  0
 22 20  1  0  0  0  0
 22 17  1  0  0  0  0
 23 20  1  0  0  0  0
 24 25  2  0  0  0  0
 25 23  1  0  0  0  0
 25 21  1  0  0  0  0
M  END
>  <MODEL>
7

>  <REMARK>
 VINA RESULT:      -6.4      5.027      8.055
  Name = 
  6 active torsions:
  status: ('A' for Active; 'I' for Inactive)
    1  A    between atoms: C_1  and  C_2
    2  A    between atoms: C_7  and  C_10
    3  A    between atoms: C_7  and  C_25
    4  A    between atoms: C_10  and  C_16
    5  A    between atoms: C_13  and  N_21
    6  A    between atoms: C_14  and  C_16
                            x       y       z     vdW  Elec       q    Type
                         _______ _______ _______ _____ _____    ______ ____

>  <TORSDO>
F 6

$$$$
=
 OpenBabel11062420163D

 25 27  0  0  0  0  0  0  0  0999 V2000
  188.1490  177.1330  143.9350 C   0  0  0  0  0  3  0  0  0  0  0  0
  189.2090  177.9160  144.1150 C   0  0  0  0  0  3  0  0  0  0  0  0
  187.0060  177.5000  143.0780 C   0  0  0  0  0  0  0  0  0  0  0  0
  187.1210  177.3550  141.6840 C   0  0  0  0  0  3  0  0  0  0  0  0
  184.7390  178.3200  142.7530 C   0  0  0  0  0  3  0  0  0  0  0  0
  185.7910  177.9950  143.6270 C   0  0  0  0  0  0  0  0  0  0  0  0
  186.0630  177.6860  140.8380 C   0  0  0  0  0  3  0  0  0  0  0  0
  184.8710  178.1680  141.3730 C   0  0  0  0  0  0  0  0  0  0  0  0
  183.7900  178.5050  140.5130 N   0  0  0  0  0  1  0  0  0  0  0  0
  185.2000  177.2320  145.9180 C   0  0  0  0  0  3  0  0  0  0  0  0
  185.1080  177.7450  147.1600 N   0  0  0  0  0  0  0  0  0  0  0  0
  185.4590  179.0390  146.9980 C   0  0  0  0  0  3  0  0  0  0  0  0
  185.7530  179.3080  145.7130 N   0  0  0  0  0  0  0  0  0  0  0  0
  185.5920  178.1790  145.0460 N   0  0  0  0  0  0  0  0  0  0  0  0
  190.3330  177.4890  144.9990 C   0  0  0  0  0  2  0  0  0  0  0  0
  189.8240  176.9590  146.3350 C   0  0  0  0  0  2  0  0  0  0  0  0
  190.6070  175.7640  146.7720 C   0  0  0  0  0  0  0  0  0  0  0  0
  191.1380  175.7640  147.9150 O   0  0  0  0  0  0  0  0  0  0  0  0
  192.1410  171.9260  143.6940 O   0  0  0  0  0  0  0  0  0  0  0  0
  192.4180  174.0830  145.2860 S   0  0  0  0  0  0  0  0  0  0  0  0
  189.7620  173.9140  145.4770 N   0  0  0  0  0  0  0  0  0  0  0  0
  190.7830  174.6080  145.8780 C   0  0  0  0  0  0  0  0  0  0  0  0
  191.5680  172.7870  144.4110 C   0  0  0  0  0  0  0  0  0  0  0  0
  189.3150  172.0480  144.1220 O   0  0  0  0  0  0  0  0  0  0  0  0
  190.1450  172.8490  144.6280 C   0  0  0  0  0  0  0  0  0  0  0  0
  1  2  2  0  0  0  0
  2 15  1  0  0  0  0
  3  6  1  0  0  0  0
  3  1  1  0  0  0  0
  4  3  2  0  0  0  0
  5  6  2  0  0  0  0
  6 14  1  0  0  0  0
  7  8  2  0  0  0  0
  7  4  1  0  0  0  0
  8  5  1  0  0  0  0
  9  8  1  0  0  0  0
 10 11  2  0  0  0  0
 12 11  1  0  0  0  0
 13 12  2  0  0  0  0
 14 13  1  0  0  0  0
 14 10  1  0  0  0  0
 15 16  1  0  0  0  0
 16 17  1  0  0  0  0
 17 18  2  0  0  0  0
 19 23  2  0  0  0  0
 20 22  1  0  0  0  0
 21 22  2  0  0  0  0
 22 17  1  0  0  0  0
 23 25  1  0  0  0  0
 23 20  1  0  0  0  0
 24 25  2  0  0  0  0
 25 21  1  0  0  0  0
M  END
>  <MODEL>
8

>  <REMARK>
 VINA RESULT:      -6.4      3.854      7.292
  Name = 
  6 active torsions:
  status: ('A' for Active; 'I' for Inactive)
    1  A    between atoms: C_1  and  C_2
    2  A    between atoms: C_7  and  C_10
    3  A    between atoms: C_7  and  C_25
    4  A    between atoms: C_10  and  C_16
    5  A    between atoms: C_13  and  N_21
    6  A    between atoms: C_14  and  C_16
                            x       y       z     vdW  Elec       q    Type
                         _______ _______ _______ _____ _____    ______ ____

>  <TORSDO>
F 6

$$$$
=
 OpenBabel11062420163D

 25 27  0  0  0  0  0  0  0  0999 V2000
  189.3300  176.9960  145.0400 C   0  0  0  0  0  3  0  0  0  0  0  0
  190.2140  177.9110  144.6490 C   0  0  0  0  0  3  0  0  0  0  0  0
  187.9590  177.3270  145.4700 C   0  0  0  0  0  0  0  0  0  0  0  0
  187.6920  177.4950  146.8400 C   0  0  0  0  0  3  0  0  0  0  0  0
  185.6180  177.8030  145.0100 C   0  0  0  0  0  3  0  0  0  0  0  0
  186.9000  177.4810  144.5320 C   0  0  0  0  0  0  0  0  0  0  0  0
  186.4110  177.8130  147.2890 C   0  0  0  0  0  3  0  0  0  0  0  0
  185.3730  177.9670  146.3730 C   0  0  0  0  0  0  0  0  0  0  0  0
  184.0660  178.2910  146.8270 N   0  0  0  0  0  1  0  0  0  0  0  0
  187.0470  176.1580  142.4330 C   0  0  0  0  0  3  0  0  0  0  0  0
  187.2690  176.3690  141.1200 N   0  0  0  0  0  0  0  0  0  0  0  0
  187.4440  177.7050  141.0370 C   0  0  0  0  0  3  0  0  0  0  0  0
  187.3350  178.2880  142.2440 N   0  0  0  0  0  0  0  0  0  0  0  0
  187.0870  177.3200  143.1080 N   0  0  0  0  0  0  0  0  0  0  0  0
  191.5890  177.5130  144.2280 C   0  0  0  0  0  2  0  0  0  0  0  0
  192.0760  176.2870  144.9910 C   0  0  0  0  0  2  0  0  0  0  0  0
  192.3580  175.1520  144.0610 C   0  0  0  0  0  0  0  0  0  0  0  0
  193.5510  174.7900  143.8800 O   0  0  0  0  0  0  0  0  0  0  0  0
  188.3340  172.4010  142.3880 O   0  0  0  0  0  0  0  0  0  0  0  0
  190.1170  173.3420  144.1770 S   0  0  0  0  0  0  0  0  0  0  0  0
  191.0840  174.6660  142.0720 N   0  0  0  0  0  0  0  0  0  0  0  0
  191.2660  174.4740  143.3430 C   0  0  0  0  0  0  0  0  0  0  0  0
  189.3330  173.1390  142.5910 C   0  0  0  0  0  0  0  0  0  0  0  0
  189.6300  173.9600  140.3680 O   0  0  0  0  0  0  0  0  0  0  0  0
  189.9850  173.9250  141.5760 C   0  0  0  0  0  0  0  0  0  0  0  0
  1  3  1  0  0  0  0
  2  1  2  0  0  0  0
  3  4  1  0  0  0  0
  4  7  2  0  0  0  0
  5  8  2  0  0  0  0
  6  5  1  0  0  0  0
  6  3  2  0  0  0  0
  8  9  1  0  0  0  0
  8  7  1  0  0  0  0
 10 14  1  0  0  0  0
 11 10  2  0  0  0  0
 12 11  1  0  0  0  0
 12 13  2  0  0  0  0
 13 14  1  0  0  0  0
 14  6  1  0  0  0  0
 15  2  1  0  0  0  0
 15 16  1  0  0  0  0
 17 16  1  0  0  0  0
 18 17  2  0  0  0  0
 19 23  2  0  0  0  0
 21 22  2  0  0  0  0
 22 17  1  0  0  0  0
 22 20  1  0  0  0  0
 23 20  1  0  0  0  0
 24 25  2  0  0  0  0
 25 21  1  0  0  0  0
 25 23  1  0  0  0  0
M  END
>  <MODEL>
9

>  <REMARK>
 VINA RESULT:      -6.3      3.477      6.189
  Name = 
  6 active torsions:
  status: ('A' for Active; 'I' for Inactive)
    1  A    between atoms: C_1  and  C_2
    2  A    between atoms: C_7  and  C_10
    3  A    between atoms: C_7  and  C_25
    4  A    between atoms: C_10  and  C_16
    5  A    between atoms: C_13  and  N_21
    6  A    between atoms: C_14  and  C_16
                            x       y       z     vdW  Elec       q    Type
                         _______ _______ _______ _____ _____    ______ ____

>  <TORSDO>
F 6

$$$$
