=
 OpenBabel11062418173D

 49 54  0  0  1  0  0  0  0  0999 V2000
  194.1860  173.7170  140.6260 C   0  0  2  0  0  3  0  0  0  0  0  0
  193.9430  173.9360  145.4220 O   0  0  0  0  0  0  0  0  0  0  0  0
  194.8760  174.8650  143.4910 N   0  0  0  0  0  0  0  0  0  0  0  0
  195.0730  173.6240  142.8750 N   0  0  0  0  0  2  0  0  0  0  0  0
  193.6310  176.2380  145.1460 N   0  0  0  0  0  2  0  0  0  0  0  0
  194.1500  174.9700  144.7260 C   0  0  0  0  0  0  0  0  0  0  0  0
  196.5870  176.8870  143.4240 Cl  0  0  0  0  0  0  0  0  0  0  0  0
  194.8550  175.9750  140.3380 O   0  0  0  0  0  0  0  0  0  0  0  0
  195.2230  176.0180  142.6890 C   0  0  1  0  0  3  0  0  0  0  0  0
  195.6490  175.4320  141.3650 C   0  0  1  0  0  3  0  0  0  0  0  0
  194.2290  174.8950  139.6940 C   0  0  0  0  0  2  0  0  0  0  0  0
  195.3940  173.9340  141.4820 C   0  0  2  0  0  3  0  0  0  0  0  0
  192.8150  176.3900  146.3420 C   0  0  0  0  0  2  0  0  0  0  0  0
  191.3720  176.6550  145.9570 C   0  0  0  0  0  2  0  0  0  0  0  0
  190.1530  175.8490  143.9430 C   0  0  1  0  0  3  0  0  0  0  0  0
  191.2350  176.8170  144.4490 C   0  0  1  0  0  3  0  0  0  0  0  0
  189.8690  177.3480  144.0260 C   0  0  1  0  0  0  0  0  0  0  0  0
  191.6000  175.4010  142.0650 O   0  0  0  0  0  0  0  0  0  0  0  0
  187.9940  174.7540  142.1980 C   0  0  0  0  0  1  0  0  0  0  0  0
  189.3720  174.8680  141.7190 N   0  0  0  0  0  2  0  0  0  0  0  0
  190.4300  175.3740  142.5350 C   0  0  0  0  0  0  0  0  0  0  0  0
  189.8360  178.0950  142.7870 N   0  0  0  0  0  0  0  0  0  0  0  0
  188.8060  178.2400  142.1940 O   0  0  0  0  0  0  0  0  0  0  0  0
  188.9120  177.7440  145.0590 N   0  0  0  0  0  2  0  0  0  0  0  0
  187.7040  176.2870  146.6210 C   0  0  0  0  0  2  0  0  0  0  0  0
  186.5700  177.2760  144.5590 C   0  0  0  0  0  2  0  0  0  0  0  0
  186.6600  177.1350  147.3520 C   0  0  0  0  0  2  0  0  0  0  0  0
  187.8750  176.7310  145.1580 C   0  0  1  0  0  3  0  0  0  0  0  0
  185.3210  177.1470  146.5970 C   0  0  0  0  0  2  0  0  0  0  0  0
  185.4250  176.6480  145.2140 N   0  0  0  0  0  2  0  0  0  0  0  0
  194.2740  172.5270  139.8870 O   0  0  0  0  0  0  0  0  0  0  0  0
  193.3150  172.5780  138.9740 O   0  0  0  0  0  0  0  0  0  0  0  0
  193.2330  171.2940  138.4080 C   0  0  0  0  0  2  0  0  0  0  0  0
  189.0360  172.7860  138.7830 O   0  0  0  0  0  0  0  0  0  0  0  0
  190.4370  171.4330  140.2040 C   0  0  0  0  0  0  0  0  0  0  0  0
  189.7700  171.5990  141.4540 N   0  0  0  0  0  2  0  0  0  0  0  0
  189.9860  171.9770  138.9540 C   0  0  0  0  0  0  0  0  0  0  0  0
  191.8490  170.6700  138.6080 C   0  0  2  0  0  3  0  0  0  0  0  0
  190.8300  171.4830  137.9330 N   0  0  0  0  0  0  0  0  0  0  0  0
  191.4820  170.6890  140.0360 N   0  0  0  0  0  0  0  0  0  0  0  0
  190.8430  171.9090  136.5370 C   0  0  0  0  0  0  0  0  0  0  0  0
  191.2580  170.8210  135.5720 C   0  0  0  0  0  2  0  0  0  0  0  0
  189.8040  171.2820  135.6420 C   0  0  0  0  0  2  0  0  0  0  0  0
  191.3630  173.2900  136.1920 C   0  0  0  0  0  2  0  0  0  0  0  0
  190.2420  174.1670  135.6650 C   0  0  0  0  0  1  0  0  0  0  0  0
  190.2160  170.9170  142.6650 C   0  0  0  0  0  2  0  0  0  0  0  0
  190.7330  171.9140  143.6470 C   0  0  0  0  0  0  0  0  0  0  0  0
  192.0250  172.4090  143.5120 O   0  0  0  0  0  0  0  0  0  0  0  0
  190.0130  172.2950  144.6020 O   0  0  0  0  0  1  0  0  0  0  0  0
  1 31  1  6  0  0  0
  1 12  1  0  0  0  0
  3  6  1  0  0  0  0
  4  3  1  0  0  0  0
  5 13  1  0  0  0  0
  6  5  1  0  0  0  0
  6  2  2  0  0  0  0
  9  7  1  1  0  0  0
  9  3  1  0  0  0  0
 10  8  1  6  0  0  0
 10 12  1  0  0  0  0
 10  9  1  0  0  0  0
 11  8  1  0  0  0  0
 11  1  1  0  0  0  0
 12  4  1  1  0  0  0
 14 13  1  0  0  0  0
 15 21  1  6  0  0  0
 15 17  1  0  0  0  0
 15 16  1  0  0  0  0
 16 14  1  1  0  0  0
 17 22  1  6  0  0  0
 17 16  1  0  0  0  0
 17 24  1  0  0  0  0
 18 21  2  0  0  0  0
 20 19  1  0  0  0  0
 20 21  1  0  0  0  0
 23 22  2  0  0  0  0
 25 27  1  0  0  0  0
 26 28  1  0  0  0  0
 26 30  1  0  0  0  0
 28 24  1  1  0  0  0
 28 25  1  0  0  0  0
 29 27  1  0  0  0  0
 30 29  1  0  0  0  0
 32 31  1  0  0  0  0
 33 32  1  0  0  0  0
 34 37  2  0  0  0  0
 35 36  1  0  0  0  0
 36 46  1  0  0  0  0
 37 35  1  0  0  0  0
 38 33  1  1  0  0  0
 38 40  1  0  0  0  0
 39 38  1  0  0  0  0
 39 37  1  0  0  0  0
 40 35  2  0  0  0  0
 41 39  1  0  0  0  0
 42 43  1  0  0  0  0
 42 41  1  0  0  0  0
 43 41  1  0  0  0  0
 44 41  1  0  0  0  0
 45 44  1  0  0  0  0
 46 47  1  0  0  0  0
 47 49  1  0  0  0  0
 48 47  2  0  0  0  0
M  END
>  <MODEL>
1

>  <REMARK>
 VINA RESULT:      -6.1      0.000      0.000
  Name = 
  15 active torsions:
  status: ('A' for Active; 'I' for Inactive)
    1  A    between atoms: C_1  and  O_23
    2  A    between atoms: C_5  and  C_20
    3  A    between atoms: C_6  and  N_9
    4  A    between atoms: C_6  and  C_17
    5  A    between atoms: C_11  and  C_18
    6  A    between atoms: C_11  and  N_21
    7  A    between atoms: C_12  and  C_40
    8  A    between atoms: C_19  and  N_27
    9  A    between atoms: C_19  and  C_28
   10  A    between atoms: O_23  and  O_24
   11  A    between atoms: O_24  and  C_40
   12  A    between atoms: C_25  and  C_28
   13  A    between atoms: C_30  and  N_37
   14  A    between atoms: N_37  and  C_41
   15  A    between atoms: N_38  and  C_41
                            x       y       z     vdW  Elec       q    Type
                         _______ _______ _______ _____ _____    ______ ____

>  <TORSDO>
F 15

$$$$
=
 OpenBabel11062418173D

 49 54  0  0  1  0  0  0  0  0999 V2000
  194.7510  175.2460  145.3150 C   0  0  2  0  0  3  0  0  0  0  0  0
  191.5460  172.4080  143.1290 O   0  0  0  0  0  0  0  0  0  0  0  0
  191.9170  173.9100  144.8800 N   0  0  0  0  0  0  0  0  0  0  0  0
  193.1890  173.4040  145.1700 N   0  0  0  0  0  2  0  0  0  0  0  0
  190.0910  174.2370  143.2280 N   0  0  0  0  0  2  0  0  0  0  0  0
  191.1910  173.4640  143.7250 C   0  0  0  0  0  0  0  0  0  0  0  0
  190.1250  174.6490  146.6860 Cl  0  0  0  0  0  0  0  0  0  0  0  0
  193.1370  176.6800  146.3000 O   0  0  0  0  0  0  0  0  0  0  0  0
  191.5150  175.0600  145.6590 C   0  0  1  0  0  3  0  0  0  0  0  0
  192.7140  175.3570  146.5260 C   0  0  1  0  0  3  0  0  0  0  0  0
  194.4760  176.6110  145.8770 C   0  0  0  0  0  2  0  0  0  0  0  0
  193.7940  174.3810  146.0740 C   0  0  2  0  0  3  0  0  0  0  0  0
  189.3720  173.8820  142.0130 C   0  0  0  0  0  2  0  0  0  0  0  0
  187.9640  174.4450  142.0580 C   0  0  0  0  0  2  0  0  0  0  0  0
  186.5150  176.4410  141.7270 C   0  0  1  0  0  3  0  0  0  0  0  0
  187.9410  175.8870  141.5720 C   0  0  1  0  0  3  0  0  0  0  0  0
  187.6230  176.8870  142.6800 C   0  0  1  0  0  0  0  0  0  0  0  0
  186.8990  177.5800  139.6360 O   0  0  0  0  0  0  0  0  0  0  0  0
  184.1460  178.2390  141.9650 C   0  0  0  0  0  1  0  0  0  0  0  0
  185.0540  178.3280  140.8210 N   0  0  0  0  0  2  0  0  0  0  0  0
  186.1880  177.4710  140.6720 C   0  0  0  0  0  0  0  0  0  0  0  0
  188.1630  178.2180  142.5050 N   0  0  0  0  0  0  0  0  0  0  0  0
  189.2490  178.3740  142.0260 O   0  0  0  0  0  0  0  0  0  0  0  0
  187.4950  176.4040  144.0550 N   0  0  0  0  0  2  0  0  0  0  0  0
  185.6500  177.5850  145.1620 C   0  0  0  0  0  2  0  0  0  0  0  0
  187.9600  177.4010  146.2330 C   0  0  0  0  0  2  0  0  0  0  0  0
  185.2380  176.7740  146.3930 C   0  0  0  0  0  2  0  0  0  0  0  0
  187.1690  177.5230  144.9220 C   0  0  1  0  0  3  0  0  0  0  0  0
  186.0320  177.2040  147.6370 C   0  0  0  0  0  2  0  0  0  0  0  0
  187.2130  178.0260  147.3220 N   0  0  0  0  0  2  0  0  0  0  0  0
  196.0870  174.8940  145.5640 O   0  0  0  0  0  0  0  0  0  0  0  0
  196.3290  173.8020  144.8510 O   0  0  0  0  0  0  0  0  0  0  0  0
  197.1080  174.2070  143.7540 C   0  0  0  0  0  2  0  0  0  0  0  0
  193.8460  173.1490  140.8860 O   0  0  0  0  0  0  0  0  0  0  0  0
  195.1820  171.8480  142.4140 C   0  0  0  0  0  0  0  0  0  0  0  0
  194.3620  170.6900  142.5480 N   0  0  0  0  0  2  0  0  0  0  0  0
  194.9020  172.9560  141.5440 C   0  0  0  0  0  0  0  0  0  0  0  0
  196.9450  173.2610  142.5610 C   0  0  2  0  0  3  0  0  0  0  0  0
  196.0080  173.8360  141.5880 N   0  0  0  0  0  0  0  0  0  0  0  0
  196.3300  171.9930  142.9940 N   0  0  0  0  0  0  0  0  0  0  0  0
  196.0810  175.1680  140.9940 C   0  0  0  0  0  0  0  0  0  0  0  0
  194.8160  175.9800  141.1600 C   0  0  0  0  0  2  0  0  0  0  0  0
  196.0700  176.3270  141.9590 C   0  0  0  0  0  2  0  0  0  0  0  0
  196.7700  175.3410  139.6560 C   0  0  0  0  0  2  0  0  0  0  0  0
  195.7990  175.0910  138.5170 C   0  0  0  0  0  1  0  0  0  0  0  0
  194.7670  169.5450  143.3580 C   0  0  0  0  0  2  0  0  0  0  0  0
  194.0230  169.5490  144.6510 C   0  0  0  0  0  0  0  0  0  0  0  0
  194.4910  170.3120  145.7140 O   0  0  0  0  0  1  0  0  0  0  0  0
  192.9860  168.8540  144.7870 O   0  0  0  0  0  0  0  0  0  0  0  0
  1 31  1  1  0  0  0
  1 11  1  0  0  0  0
  1 12  1  0  0  0  0
  2  6  2  0  0  0  0
  3  4  1  0  0  0  0
  3  9  1  0  0  0  0
  5  6  1  0  0  0  0
  6  3  1  0  0  0  0
  9 10  1  0  0  0  0
  9  7  1  1  0  0  0
 10  8  1  6  0  0  0
 11  8  1  0  0  0  0
 12  4  1  6  0  0  0
 12 10  1  0  0  0  0
 13 14  1  0  0  0  0
 13  5  1  0  0  0  0
 15 21  1  6  0  0  0
 15 17  1  0  0  0  0
 16 15  1  0  0  0  0
 16 14  1  1  0  0  0
 16 17  1  0  0  0  0
 17 22  1  6  0  0  0
 17 24  1  0  0  0  0
 18 21  2  0  0  0  0
 20 19  1  0  0  0  0
 21 20  1  0  0  0  0
 23 22  2  0  0  0  0
 25 27  1  0  0  0  0
 26 30  1  0  0  0  0
 27 29  1  0  0  0  0
 28 24  1  6  0  0  0
 28 25  1  0  0  0  0
 28 26  1  0  0  0  0
 30 29  1  0  0  0  0
 32 31  1  0  0  0  0
 33 32  1  0  0  0  0
 34 37  2  0  0  0  0
 35 36  1  0  0  0  0
 35 40  2  0  0  0  0
 36 46  1  0  0  0  0
 37 39  1  0  0  0  0
 37 35  1  0  0  0  0
 38 40  1  0  0  0  0
 38 33  1  1  0  0  0
 39 38  1  0  0  0  0
 41 42  1  0  0  0  0
 41 39  1  0  0  0  0
 41 43  1  0  0  0  0
 42 43  1  0  0  0  0
 44 41  1  0  0  0  0
 45 44  1  0  0  0  0
 46 47  1  0  0  0  0
 47 49  2  0  0  0  0
 47 48  1  0  0  0  0
M  END
>  <MODEL>
2

>  <REMARK>
 VINA RESULT:      -6.0      3.263      5.248
  Name = 
  15 active torsions:
  status: ('A' for Active; 'I' for Inactive)
    1  A    between atoms: C_1  and  O_23
    2  A    between atoms: C_5  and  C_20
    3  A    between atoms: C_6  and  N_9
    4  A    between atoms: C_6  and  C_17
    5  A    between atoms: C_11  and  C_18
    6  A    between atoms: C_11  and  N_21
    7  A    between atoms: C_12  and  C_40
    8  A    between atoms: C_19  and  N_27
    9  A    between atoms: C_19  and  C_28
   10  A    between atoms: O_23  and  O_24
   11  A    between atoms: O_24  and  C_40
   12  A    between atoms: C_25  and  C_28
   13  A    between atoms: C_30  and  N_37
   14  A    between atoms: N_37  and  C_41
   15  A    between atoms: N_38  and  C_41
                            x       y       z     vdW  Elec       q    Type
                         _______ _______ _______ _____ _____    ______ ____

>  <TORSDO>
F 15

$$$$
=
 OpenBabel11062418173D

 49 54  0  0  1  0  0  0  0  0999 V2000
  195.2810  174.3390  141.1850 C   0  0  2  0  0  3  0  0  0  0  0  0
  192.9890  172.7060  145.0810 O   0  0  0  0  0  0  0  0  0  0  0  0
  194.0210  174.5470  144.0780 N   0  0  0  0  0  0  0  0  0  0  0  0
  195.0590  173.7860  143.5290 N   0  0  0  0  0  2  0  0  0  0  0  0
  191.6940  174.6490  144.9430 N   0  0  0  0  0  2  0  0  0  0  0  0
  192.9070  173.9170  144.7290 C   0  0  0  0  0  0  0  0  0  0  0  0
  194.3030  176.9430  145.1720 Cl  0  0  0  0  0  0  0  0  0  0  0  0
  194.7520  176.6220  141.5600 O   0  0  0  0  0  0  0  0  0  0  0  0
  194.0270  175.9500  143.7250 C   0  0  1  0  0  3  0  0  0  0  0  0
  195.1980  176.0900  142.7840 C   0  0  1  0  0  3  0  0  0  0  0  0
  195.1000  175.6950  140.5630 C   0  0  0  0  0  2  0  0  0  0  0  0
  195.7220  174.6740  142.5750 C   0  0  2  0  0  3  0  0  0  0  0  0
  190.5040  174.0390  145.5190 C   0  0  0  0  0  2  0  0  0  0  0  0
  189.2810  174.8750  145.1920 C   0  0  0  0  0  2  0  0  0  0  0  0
  188.0520  175.8450  143.2580 C   0  0  1  0  0  3  0  0  0  0  0  0
  189.4460  175.5730  143.8490 C   0  0  1  0  0  3  0  0  0  0  0  0
  188.8810  176.9910  143.8390 C   0  0  1  0  0  0  0  0  0  0  0  0
  188.9100  175.1200  141.1230 O   0  0  0  0  0  0  0  0  0  0  0  0
  186.0430  177.3460  141.6400 C   0  0  0  0  0  1  0  0  0  0  0  0
  187.0940  176.5540  141.0000 N   0  0  0  0  0  2  0  0  0  0  0  0
  188.0620  175.8130  141.7470 C   0  0  0  0  0  0  0  0  0  0  0  0
  189.4990  177.9120  142.9090 N   0  0  0  0  0  0  0  0  0  0  0  0
  190.6590  178.1890  143.0120 O   0  0  0  0  0  0  0  0  0  0  0  0
  188.3690  177.5580  145.0860 N   0  0  0  0  0  2  0  0  0  0  0  0
  186.4710  176.7410  146.4110 C   0  0  0  0  0  2  0  0  0  0  0  0
  186.2810  178.8100  144.9270 C   0  0  0  0  0  2  0  0  0  0  0  0
  186.1920  177.7590  147.5190 C   0  0  0  0  0  2  0  0  0  0  0  0
  186.9220  177.4260  145.1090 C   0  0  1  0  0  3  0  0  0  0  0  0
  185.1880  178.8280  147.0560 C   0  0  0  0  0  2  0  0  0  0  0  0
  184.9830  178.8450  145.5970 N   0  0  0  0  0  2  0  0  0  0  0  0
  196.2630  173.6250  140.4810 O   0  0  0  0  0  0  0  0  0  0  0  0
  195.7380  172.4410  140.1960 O   0  0  0  0  0  0  0  0  0  0  0  0
  196.1090  172.1470  138.8730 C   0  0  0  0  0  2  0  0  0  0  0  0
  193.1070  175.1440  137.4610 O   0  0  0  0  0  0  0  0  0  0  0  0
  192.9110  173.0120  138.5700 C   0  0  0  0  0  0  0  0  0  0  0  0
  191.5990  173.1260  139.1150 N   0  0  0  0  0  2  0  0  0  0  0  0
  193.5400  173.9920  137.7300 C   0  0  0  0  0  0  0  0  0  0  0  0
  194.9030  172.1480  137.9300 C   0  0  2  0  0  3  0  0  0  0  0  0
  194.7710  173.4590  137.2840 N   0  0  0  0  0  0  0  0  0  0  0  0
  193.6560  171.9610  138.6950 N   0  0  0  0  0  0  0  0  0  0  0  0
  195.8120  174.1750  136.5510 C   0  0  0  0  0  0  0  0  0  0  0  0
  196.7120  173.2750  135.7360 C   0  0  0  0  0  2  0  0  0  0  0  0
  195.6860  174.1730  135.0480 C   0  0  0  0  0  2  0  0  0  0  0  0
  196.5190  175.3360  137.2210 C   0  0  0  0  0  2  0  0  0  0  0  0
  197.9360  174.9510  137.6020 C   0  0  0  0  0  1  0  0  0  0  0  0
  190.9730  172.0390  139.8600 C   0  0  0  0  0  2  0  0  0  0  0  0
  191.0690  172.3060  141.3250 C   0  0  0  0  0  0  0  0  0  0  0  0
  189.9400  172.1750  142.1260 O   0  0  0  0  0  1  0  0  0  0  0  0
  192.1600  172.6630  141.8340 O   0  0  0  0  0  0  0  0  0  0  0  0
  1 31  1  6  0  0  0
  1 12  1  0  0  0  0
  3  6  1  0  0  0  0
  4  3  1  0  0  0  0
  5 13  1  0  0  0  0
  6  5  1  0  0  0  0
  6  2  2  0  0  0  0
  9  3  1  0  0  0  0
  9  7  1  1  0  0  0
 10  8  1  6  0  0  0
 10  9  1  0  0  0  0
 11  1  1  0  0  0  0
 11  8  1  0  0  0  0
 12 10  1  0  0  0  0
 12  4  1  1  0  0  0
 14 13  1  0  0  0  0
 15 21  1  6  0  0  0
 15 17  1  0  0  0  0
 15 16  1  0  0  0  0
 16 14  1  1  0  0  0
 17 22  1  6  0  0  0
 17 16  1  0  0  0  0
 17 24  1  0  0  0  0
 18 21  2  0  0  0  0
 20 19  1  0  0  0  0
 20 21  1  0  0  0  0
 22 23  2  0  0  0  0
 25 27  1  0  0  0  0
 26 28  1  0  0  0  0
 26 30  1  0  0  0  0
 28 24  1  1  0  0  0
 28 25  1  0  0  0  0
 29 27  1  0  0  0  0
 30 29  1  0  0  0  0
 32 31  1  0  0  0  0
 33 32  1  0  0  0  0
 34 37  2  0  0  0  0
 35 40  2  0  0  0  0
 35 36  1  0  0  0  0
 36 46  1  0  0  0  0
 37 35  1  0  0  0  0
 38 40  1  0  0  0  0
 38 33  1  1  0  0  0
 39 37  1  0  0  0  0
 39 38  1  0  0  0  0
 41 44  1  0  0  0  0
 41 39  1  0  0  0  0
 42 41  1  0  0  0  0
 43 42  1  0  0  0  0
 43 41  1  0  0  0  0
 44 45  1  0  0  0  0
 46 47  1  0  0  0  0
 47 49  2  0  0  0  0
 47 48  1  0  0  0  0
M  END
>  <MODEL>
3

>  <REMARK>
 VINA RESULT:      -5.8      2.283      3.141
  Name = 
  15 active torsions:
  status: ('A' for Active; 'I' for Inactive)
    1  A    between atoms: C_1  and  O_23
    2  A    between atoms: C_5  and  C_20
    3  A    between atoms: C_6  and  N_9
    4  A    between atoms: C_6  and  C_17
    5  A    between atoms: C_11  and  C_18
    6  A    between atoms: C_11  and  N_21
    7  A    between atoms: C_12  and  C_40
    8  A    between atoms: C_19  and  N_27
    9  A    between atoms: C_19  and  C_28
   10  A    between atoms: O_23  and  O_24
   11  A    between atoms: O_24  and  C_40
   12  A    between atoms: C_25  and  C_28
   13  A    between atoms: C_30  and  N_37
   14  A    between atoms: N_37  and  C_41
   15  A    between atoms: N_38  and  C_41
                            x       y       z     vdW  Elec       q    Type
                         _______ _______ _______ _____ _____    ______ ____

>  <TORSDO>
F 15

$$$$
=
 OpenBabel11062418173D

 49 54  0  0  1  0  0  0  0  0999 V2000
  194.9340  174.0890  142.9650 C   0  0  2  0  0  3  0  0  0  0  0  0
  192.3850  174.5670  147.0110 O   0  0  0  0  0  0  0  0  0  0  0  0
  193.9090  175.5800  145.5590 N   0  0  0  0  0  0  0  0  0  0  0  0
  194.6330  174.4020  145.3450 N   0  0  0  0  0  2  0  0  0  0  0  0
  191.7660  176.6680  146.1890 N   0  0  0  0  0  2  0  0  0  0  0  0
  192.6770  175.5660  146.2960 C   0  0  0  0  0  0  0  0  0  0  0  0
  194.9730  177.9860  145.8710 Cl  0  0  0  0  0  0  0  0  0  0  0  0
  195.1680  176.4180  142.5770 O   0  0  0  0  0  0  0  0  0  0  0  0
  194.3460  176.7240  144.7890 C   0  0  1  0  0  3  0  0  0  0  0  0
  195.4660  176.1890  143.9330 C   0  0  1  0  0  3  0  0  0  0  0  0
  195.1690  175.1640  141.9430 C   0  0  0  0  0  2  0  0  0  0  0  0
  195.5080  174.6900  144.2100 C   0  0  2  0  0  3  0  0  0  0  0  0
  190.4660  176.6720  146.8450 C   0  0  0  0  0  2  0  0  0  0  0  0
  189.4160  176.0840  145.9200 C   0  0  0  0  0  2  0  0  0  0  0  0
  189.2560  175.1680  143.6120 C   0  0  1  0  0  3  0  0  0  0  0  0
  189.7740  176.3400  144.4630 C   0  0  1  0  0  3  0  0  0  0  0  0
  188.5500  176.5240  143.5700 C   0  0  1  0  0  0  0  0  0  0  0  0
  191.3090  175.3520  142.3600 O   0  0  0  0  0  0  0  0  0  0  0  0
  188.2920  173.5700  141.2840 C   0  0  0  0  0  1  0  0  0  0  0  0
  189.6330  174.1570  141.2980 N   0  0  0  0  0  2  0  0  0  0  0  0
  190.1280  174.9150  142.4050 C   0  0  0  0  0  0  0  0  0  0  0  0
  188.7420  177.3440  142.3930 N   0  0  0  0  0  0  0  0  0  0  0  0
  189.5710  178.2090  142.3870 O   0  0  0  0  0  0  0  0  0  0  0  0
  187.2230  176.5540  144.1840 N   0  0  0  0  0  2  0  0  0  0  0  0
  185.9100  178.5360  143.5720 C   0  0  0  0  0  2  0  0  0  0  0  0
  186.3790  177.9380  146.0090 C   0  0  0  0  0  2  0  0  0  0  0  0
  184.4620  178.2980  144.0040 C   0  0  0  0  0  2  0  0  0  0  0  0
  186.9090  177.9210  144.5670 C   0  0  1  0  0  3  0  0  0  0  0  0
  184.2180  178.7920  145.4390 C   0  0  0  0  0  2  0  0  0  0  0  0
  185.4600  179.0600  146.1840 N   0  0  0  0  0  2  0  0  0  0  0  0
  195.6140  172.9210  142.5860 O   0  0  0  0  0  0  0  0  0  0  0  0
  195.2100  172.6310  141.3570 O   0  0  0  0  0  0  0  0  0  0  0  0
  194.3730  171.5070  141.4670 C   0  0  0  0  0  2  0  0  0  0  0  0
  190.4390  169.3920  141.6550 O   0  0  0  0  0  0  0  0  0  0  0  0
  191.6290  170.5050  139.8770 C   0  0  0  0  0  0  0  0  0  0  0  0
  190.9950  169.9210  138.7410 N   0  0  0  0  0  2  0  0  0  0  0  0
  191.2610  170.2530  141.2420 C   0  0  0  0  0  0  0  0  0  0  0  0
  192.9120  171.8540  141.1630 C   0  0  2  0  0  3  0  0  0  0  0  0
  192.0230  171.1140  142.0650 N   0  0  0  0  0  0  0  0  0  0  0  0
  192.5540  171.4060  139.8050 N   0  0  0  0  0  0  0  0  0  0  0  0
  192.0960  171.0790  143.5230 C   0  0  0  0  0  0  0  0  0  0  0  0
  192.1190  172.4480  144.1650 C   0  0  0  0  0  2  0  0  0  0  0  0
  190.8750  171.5670  144.2620 C   0  0  0  0  0  2  0  0  0  0  0  0
  192.9900  170.0540  144.1920 C   0  0  0  0  0  2  0  0  0  0  0  0
  194.0430  170.7370  145.0450 C   0  0  0  0  0  1  0  0  0  0  0  0
  191.3370  170.3140  137.3780 C   0  0  0  0  0  2  0  0  0  0  0  0
  190.2550  171.1690  136.8090 C   0  0  0  0  0  0  0  0  0  0  0  0
  190.1620  171.3390  135.4320 O   0  0  0  0  0  0  0  0  0  0  0  0
  189.4380  171.7460  137.5680 O   0  0  0  0  0  1  0  0  0  0  0  0
  1 31  1  6  0  0  0
  1 12  1  0  0  0  0
  3  6  1  0  0  0  0
  4  3  1  0  0  0  0
  5  6  1  0  0  0  0
  5 13  1  0  0  0  0
  6  2  2  0  0  0  0
  9  3  1  0  0  0  0
  9  7  1  1  0  0  0
 10  8  1  6  0  0  0
 10 12  1  0  0  0  0
 10  9  1  0  0  0  0
 11  8  1  0  0  0  0
 11  1  1  0  0  0  0
 12  4  1  1  0  0  0
 14 13  1  0  0  0  0
 15 21  1  6  0  0  0
 15 16  1  0  0  0  0
 16 14  1  1  0  0  0
 17 22  1  6  0  0  0
 17 15  1  0  0  0  0
 17 24  1  0  0  0  0
 17 16  1  0  0  0  0
 18 21  2  0  0  0  0
 19 20  1  0  0  0  0
 20 21  1  0  0  0  0
 23 22  2  0  0  0  0
 25 27  1  0  0  0  0
 25 28  1  0  0  0  0
 26 30  1  0  0  0  0
 27 29  1  0  0  0  0
 28 24  1  6  0  0  0
 28 26  1  0  0  0  0
 29 30  1  0  0  0  0
 32 33  1  0  0  0  0
 32 31  1  0  0  0  0
 35 37  1  0  0  0  0
 36 35  1  0  0  0  0
 37 34  2  0  0  0  0
 37 39  1  0  0  0  0
 38 33  1  1  0  0  0
 38 39  1  0  0  0  0
 39 41  1  0  0  0  0
 40 35  2  0  0  0  0
 40 38  1  0  0  0  0
 41 42  1  0  0  0  0
 41 44  1  0  0  0  0
 41 43  1  0  0  0  0
 42 43  1  0  0  0  0
 44 45  1  0  0  0  0
 46 36  1  0  0  0  0
 47 46  1  0  0  0  0
 47 49  1  0  0  0  0
 48 47  2  0  0  0  0
M  END
>  <MODEL>
4

>  <REMARK>
 VINA RESULT:      -5.7      1.941      4.170
  Name = 
  15 active torsions:
  status: ('A' for Active; 'I' for Inactive)
    1  A    between atoms: C_1  and  O_23
    2  A    between atoms: C_5  and  C_20
    3  A    between atoms: C_6  and  N_9
    4  A    between atoms: C_6  and  C_17
    5  A    between atoms: C_11  and  C_18
    6  A    between atoms: C_11  and  N_21
    7  A    between atoms: C_12  and  C_40
    8  A    between atoms: C_19  and  N_27
    9  A    between atoms: C_19  and  C_28
   10  A    between atoms: O_23  and  O_24
   11  A    between atoms: O_24  and  C_40
   12  A    between atoms: C_25  and  C_28
   13  A    between atoms: C_30  and  N_37
   14  A    between atoms: N_37  and  C_41
   15  A    between atoms: N_38  and  C_41
                            x       y       z     vdW  Elec       q    Type
                         _______ _______ _______ _____ _____    ______ ____

>  <TORSDO>
F 15

$$$$
=
 OpenBabel11062418173D

 49 54  0  0  1  0  0  0  0  0999 V2000
  196.1200  174.4180  142.2510 C   0  0  2  0  0  3  0  0  0  0  0  0
  193.3850  173.3440  146.0550 O   0  0  0  0  0  0  0  0  0  0  0  0
  194.5480  175.0280  144.9270 N   0  0  0  0  0  0  0  0  0  0  0  0
  195.6300  174.2000  144.6100 N   0  0  0  0  0  2  0  0  0  0  0  0
  192.1410  175.2470  145.5010 N   0  0  0  0  0  2  0  0  0  0  0  0
  193.3600  174.4930  145.5300 C   0  0  0  0  0  0  0  0  0  0  0  0
  194.7400  177.5550  145.7000 Cl  0  0  0  0  0  0  0  0  0  0  0  0
  195.5850  176.7300  142.2420 O   0  0  0  0  0  0  0  0  0  0  0  0
  194.6140  176.3670  144.3840 C   0  0  1  0  0  3  0  0  0  0  0  0
  195.8840  176.3760  143.5700 C   0  0  1  0  0  3  0  0  0  0  0  0
  196.0290  175.6720  141.4300 C   0  0  0  0  0  2  0  0  0  0  0  0
  196.4090  174.9450  143.6220 C   0  0  2  0  0  3  0  0  0  0  0  0
  190.8860  174.7210  146.0200 C   0  0  0  0  0  2  0  0  0  0  0  0
  189.7230  175.5470  145.5020 C   0  0  0  0  0  2  0  0  0  0  0  0
  188.4230  175.3200  143.3920 C   0  0  1  0  0  3  0  0  0  0  0  0
  189.7920  175.6890  143.9870 C   0  0  1  0  0  3  0  0  0  0  0  0
  188.8730  176.7800  143.4470 C   0  0  1  0  0  0  0  0  0  0  0  0
  188.3420  175.4040  140.9830 O   0  0  0  0  0  0  0  0  0  0  0  0
  189.2260  172.4740  143.0000 C   0  0  0  0  0  1  0  0  0  0  0  0
  188.9210  173.3400  141.8610 N   0  0  0  0  0  2  0  0  0  0  0  0
  188.5480  174.7110  142.0160 C   0  0  0  0  0  0  0  0  0  0  0  0
  189.2890  177.4000  142.2070 N   0  0  0  0  0  0  0  0  0  0  0  0
  188.7300  178.3790  141.8020 O   0  0  0  0  0  0  0  0  0  0  0  0
  188.1420  177.6230  144.3920 N   0  0  0  0  0  2  0  0  0  0  0  0
  186.3080  177.0350  145.9140 C   0  0  0  0  0  2  0  0  0  0  0  0
  185.8760  178.1610  143.6640 C   0  0  0  0  0  2  0  0  0  0  0  0
  185.7020  178.3330  146.4520 C   0  0  0  0  0  2  0  0  0  0  0  0
  186.7590  177.1810  144.4500 C   0  0  1  0  0  3  0  0  0  0  0  0
  184.5630  178.8340  145.5490 C   0  0  0  0  0  2  0  0  0  0  0  0
  184.5290  178.1770  144.2310 N   0  0  0  0  0  2  0  0  0  0  0  0
  197.1650  173.6130  141.7690 O   0  0  0  0  0  0  0  0  0  0  0  0
  196.9060  172.3770  142.1720 O   0  0  0  0  0  0  0  0  0  0  0  0
  195.7200  171.9870  141.5280 C   0  0  0  0  0  2  0  0  0  0  0  0
  192.2930  170.8460  144.1620 O   0  0  0  0  0  0  0  0  0  0  0  0
  194.6740  170.5040  144.3160 C   0  0  0  0  0  0  0  0  0  0  0  0
  194.8070  170.2520  145.7130 N   0  0  0  0  0  2  0  0  0  0  0  0
  193.4280  170.7120  143.6330 C   0  0  0  0  0  0  0  0  0  0  0  0
  195.1550  170.6890  142.1120 C   0  0  2  0  0  3  0  0  0  0  0  0
  193.6970  170.7920  142.2480 N   0  0  0  0  0  0  0  0  0  0  0  0
  195.6630  170.4820  143.4810 N   0  0  0  0  0  0  0  0  0  0  0  0
  192.7510  171.1660  141.2010 C   0  0  0  0  0  0  0  0  0  0  0  0
  192.8630  170.3240  139.9500 C   0  0  0  0  0  2  0  0  0  0  0  0
  191.6720  170.1590  140.8900 C   0  0  0  0  0  2  0  0  0  0  0  0
  192.4710  172.6340  140.9510 C   0  0  0  0  0  2  0  0  0  0  0  0
  192.6440  173.4360  142.2270 C   0  0  0  0  0  1  0  0  0  0  0  0
  196.0930  169.9270  146.3220 C   0  0  0  0  0  2  0  0  0  0  0  0
  195.8980  168.9430  147.4270 C   0  0  0  0  0  0  0  0  0  0  0  0
  197.0040  168.3650  148.0390 O   0  0  0  0  0  1  0  0  0  0  0  0
  194.7400  168.6250  147.7950 O   0  0  0  0  0  0  0  0  0  0  0  0
  1 31  1  6  0  0  0
  1 12  1  0  0  0  0
  3  6  1  0  0  0  0
  4  3  1  0  0  0  0
  5  6  1  0  0  0  0
  5 13  1  0  0  0  0
  6  2  2  0  0  0  0
  9  3  1  0  0  0  0
  9  7  1  1  0  0  0
 10  8  1  6  0  0  0
 10 12  1  0  0  0  0
 10  9  1  0  0  0  0
 11  8  1  0  0  0  0
 11  1  1  0  0  0  0
 12  4  1  1  0  0  0
 14 13  1  0  0  0  0
 15 21  1  6  0  0  0
 15 17  1  0  0  0  0
 15 16  1  0  0  0  0
 16 14  1  1  0  0  0
 17 22  1  6  0  0  0
 17 16  1  0  0  0  0
 17 24  1  0  0  0  0
 18 21  2  0  0  0  0
 20 21  1  0  0  0  0
 20 19  1  0  0  0  0
 23 22  2  0  0  0  0
 25 27  1  0  0  0  0
 26 30  1  0  0  0  0
 26 28  1  0  0  0  0
 28 24  1  1  0  0  0
 28 25  1  0  0  0  0
 29 27  1  0  0  0  0
 30 29  1  0  0  0  0
 31 32  1  0  0  0  0
 33 32  1  0  0  0  0
 35 36  1  0  0  0  0
 36 46  1  0  0  0  0
 37 34  2  0  0  0  0
 37 35  1  0  0  0  0
 38 33  1  1  0  0  0
 38 39  1  0  0  0  0
 38 40  1  0  0  0  0
 39 37  1  0  0  0  0
 40 35  2  0  0  0  0
 41 39  1  0  0  0  0
 42 43  1  0  0  0  0
 42 41  1  0  0  0  0
 43 41  1  0  0  0  0
 44 41  1  0  0  0  0
 44 45  1  0  0  0  0
 46 47  1  0  0  0  0
 47 49  2  0  0  0  0
 47 48  1  0  0  0  0
M  END
>  <MODEL>
5

>  <REMARK>
 VINA RESULT:      -5.7      2.736      3.975
  Name = 
  15 active torsions:
  status: ('A' for Active; 'I' for Inactive)
    1  A    between atoms: C_1  and  O_23
    2  A    between atoms: C_5  and  C_20
    3  A    between atoms: C_6  and  N_9
    4  A    between atoms: C_6  and  C_17
    5  A    between atoms: C_11  and  C_18
    6  A    between atoms: C_11  and  N_21
    7  A    between atoms: C_12  and  C_40
    8  A    between atoms: C_19  and  N_27
    9  A    between atoms: C_19  and  C_28
   10  A    between atoms: O_23  and  O_24
   11  A    between atoms: O_24  and  C_40
   12  A    between atoms: C_25  and  C_28
   13  A    between atoms: C_30  and  N_37
   14  A    between atoms: N_37  and  C_41
   15  A    between atoms: N_38  and  C_41
                            x       y       z     vdW  Elec       q    Type
                         _______ _______ _______ _____ _____    ______ ____

>  <TORSDO>
F 15

$$$$
=
 OpenBabel11062418173D

 49 54  0  0  1  0  0  0  0  0999 V2000
  194.5480  174.0860  140.7520 C   0  0  2  0  0  3  0  0  0  0  0  0
  193.8790  173.8320  145.5050 O   0  0  0  0  0  0  0  0  0  0  0  0
  194.9010  175.0020  143.7590 N   0  0  0  0  0  0  0  0  0  0  0  0
  195.2440  173.8410  143.0560 N   0  0  0  0  0  2  0  0  0  0  0  0
  193.4170  176.1230  145.4060 N   0  0  0  0  0  2  0  0  0  0  0  0
  194.0660  174.9390  144.9250 C   0  0  0  0  0  0  0  0  0  0  0  0
  196.4510  177.1330  144.0280 Cl  0  0  0  0  0  0  0  0  0  0  0  0
  195.0650  176.4020  140.7270 O   0  0  0  0  0  0  0  0  0  0  0  0
  195.2260  176.2460  143.0970 C   0  0  1  0  0  3  0  0  0  0  0  0
  195.8070  175.8190  141.7720 C   0  0  1  0  0  3  0  0  0  0  0  0
  194.5810  175.3460  139.9360 C   0  0  0  0  0  2  0  0  0  0  0  0
  195.6590  174.3030  141.7320 C   0  0  2  0  0  3  0  0  0  0  0  0
  192.4930  176.1050  146.5310 C   0  0  0  0  0  2  0  0  0  0  0  0
  191.0900  176.4390  146.0560 C   0  0  0  0  0  2  0  0  0  0  0  0
  189.8840  175.7290  143.9990 C   0  0  1  0  0  3  0  0  0  0  0  0
  191.0500  176.5740  144.5400 C   0  0  1  0  0  3  0  0  0  0  0  0
  189.7810  177.2540  144.0340 C   0  0  1  0  0  0  0  0  0  0  0  0
  191.3560  175.0680  142.2060 O   0  0  0  0  0  0  0  0  0  0  0  0
  187.6980  174.8290  142.1780 C   0  0  0  0  0  1  0  0  0  0  0  0
  189.1010  174.7750  141.7640 N   0  0  0  0  0  2  0  0  0  0  0  0
  190.1710  175.1850  142.6190 C   0  0  0  0  0  0  0  0  0  0  0  0
  189.9010  177.9640  142.7790 N   0  0  0  0  0  0  0  0  0  0  0  0
  188.9220  178.2850  142.1680 O   0  0  0  0  0  0  0  0  0  0  0  0
  188.8300  177.7910  145.0060 N   0  0  0  0  0  2  0  0  0  0  0  0
  187.3650  176.4720  146.4680 C   0  0  0  0  0  2  0  0  0  0  0  0
  186.4610  177.7070  144.4250 C   0  0  0  0  0  2  0  0  0  0  0  0
  186.4380  177.4380  147.2100 C   0  0  0  0  0  2  0  0  0  0  0  0
  187.6480  176.9450  145.0320 C   0  0  1  0  0  3  0  0  0  0  0  0
  185.1420  177.6860  146.4220 C   0  0  0  0  0  2  0  0  0  0  0  0
  185.2140  177.2350  145.0210 N   0  0  0  0  0  2  0  0  0  0  0  0
  194.7900  172.9800  139.9220 O   0  0  0  0  0  0  0  0  0  0  0  0
  194.2870  171.9230  140.5440 O   0  0  0  0  0  0  0  0  0  0  0  0
  193.8830  171.0250  139.5420 C   0  0  0  0  0  2  0  0  0  0  0  0
  190.2450  171.1270  142.1390 O   0  0  0  0  0  0  0  0  0  0  0  0
  192.3240  169.9120  142.2620 C   0  0  0  0  0  0  0  0  0  0  0  0
  192.3350  169.5630  143.6440 N   0  0  0  0  0  2  0  0  0  0  0  0
  191.2550  170.6020  141.5980 C   0  0  0  0  0  0  0  0  0  0  0  0
  192.8670  170.0060  140.0670 C   0  0  2  0  0  3  0  0  0  0  0  0
  191.5520  170.6410  140.2160 N   0  0  0  0  0  0  0  0  0  0  0  0
  193.2430  169.5600  141.4200 N   0  0  0  0  0  0  0  0  0  0  0  0
  190.8270  171.3900  139.1940 C   0  0  0  0  0  0  0  0  0  0  0  0
  190.8930  170.7650  137.8190 C   0  0  0  0  0  2  0  0  0  0  0  0
  189.5980  170.7240  138.6280 C   0  0  0  0  0  2  0  0  0  0  0  0
  190.8950  172.9040  139.2030 C   0  0  0  0  0  2  0  0  0  0  0  0
  190.0650  173.4840  138.0720 C   0  0  0  0  0  1  0  0  0  0  0  0
  193.3990  168.7530  144.2290 C   0  0  0  0  0  2  0  0  0  0  0  0
  194.4760  169.6370  144.7630 C   0  0  0  0  0  0  0  0  0  0  0  0
  195.7060  169.6940  144.1170 O   0  0  0  0  0  0  0  0  0  0  0  0
  194.2810  170.3180  145.8000 O   0  0  0  0  0  1  0  0  0  0  0  0
  1 31  1  6  0  0  0
  1 12  1  0  0  0  0
  3  6  1  0  0  0  0
  4  3  1  0  0  0  0
  5 13  1  0  0  0  0
  6  5  1  0  0  0  0
  6  2  2  0  0  0  0
  9  3  1  0  0  0  0
  9  7  1  1  0  0  0
 10  8  1  6  0  0  0
 10  9  1  0  0  0  0
 11  8  1  0  0  0  0
 11  1  1  0  0  0  0
 12 10  1  0  0  0  0
 12  4  1  1  0  0  0
 14 13  1  0  0  0  0
 15 21  1  6  0  0  0
 15 17  1  0  0  0  0
 15 16  1  0  0  0  0
 16 14  1  1  0  0  0
 17 22  1  6  0  0  0
 17 16  1  0  0  0  0
 17 24  1  0  0  0  0
 18 21  2  0  0  0  0
 20 19  1  0  0  0  0
 20 21  1  0  0  0  0
 23 22  2  0  0  0  0
 25 27  1  0  0  0  0
 26 30  1  0  0  0  0
 26 28  1  0  0  0  0
 28 24  1  1  0  0  0
 28 25  1  0  0  0  0
 29 27  1  0  0  0  0
 30 29  1  0  0  0  0
 31 32  1  0  0  0  0
 33 32  1  0  0  0  0
 35 36  1  0  0  0  0
 36 46  1  0  0  0  0
 37 34  2  0  0  0  0
 37 35  1  0  0  0  0
 38 33  1  1  0  0  0
 38 39  1  0  0  0  0
 38 40  1  0  0  0  0
 39 37  1  0  0  0  0
 40 35  2  0  0  0  0
 41 44  1  0  0  0  0
 41 39  1  0  0  0  0
 42 43  1  0  0  0  0
 42 41  1  0  0  0  0
 43 41  1  0  0  0  0
 45 44  1  0  0  0  0
 46 47  1  0  0  0  0
 47 49  1  0  0  0  0
 48 47  2  0  0  0  0
M  END
>  <MODEL>
6

>  <REMARK>
 VINA RESULT:      -5.6      1.626      2.017
  Name = 
  15 active torsions:
  status: ('A' for Active; 'I' for Inactive)
    1  A    between atoms: C_1  and  O_23
    2  A    between atoms: C_5  and  C_20
    3  A    between atoms: C_6  and  N_9
    4  A    between atoms: C_6  and  C_17
    5  A    between atoms: C_11  and  C_18
    6  A    between atoms: C_11  and  N_21
    7  A    between atoms: C_12  and  C_40
    8  A    between atoms: C_19  and  N_27
    9  A    between atoms: C_19  and  C_28
   10  A    between atoms: O_23  and  O_24
   11  A    between atoms: O_24  and  C_40
   12  A    between atoms: C_25  and  C_28
   13  A    between atoms: C_30  and  N_37
   14  A    between atoms: N_37  and  C_41
   15  A    between atoms: N_38  and  C_41
                            x       y       z     vdW  Elec       q    Type
                         _______ _______ _______ _____ _____    ______ ____

>  <TORSDO>
F 15

$$$$
=
 OpenBabel11062418173D

 49 54  0  0  1  0  0  0  0  0999 V2000
  193.2900  175.7480  145.4840 C   0  0  2  0  0  3  0  0  0  0  0  0
  195.6440  176.8490  141.4410 O   0  0  0  0  0  0  0  0  0  0  0  0
  195.6960  175.6310  143.4350 N   0  0  0  0  0  0  0  0  0  0  0  0
  195.1180  176.6590  144.1880 N   0  0  0  0  0  2  0  0  0  0  0  0
  196.0270  174.5520  141.2220 N   0  0  0  0  0  2  0  0  0  0  0  0
  195.7950  175.7290  142.0060 C   0  0  0  0  0  0  0  0  0  0  0  0
  197.6870  174.0840  144.2460 Cl  0  0  0  0  0  0  0  0  0  0  0  0
  194.4260  173.6960  145.8470 O   0  0  0  0  0  0  0  0  0  0  0  0
  195.9420  174.4000  144.1520 C   0  0  1  0  0  3  0  0  0  0  0  0
  195.4000  174.6630  145.5350 C   0  0  1  0  0  3  0  0  0  0  0  0
  193.2380  174.3920  146.1290 C   0  0  0  0  0  2  0  0  0  0  0  0
  194.7580  176.0430  145.4650 C   0  0  2  0  0  3  0  0  0  0  0  0
  196.0510  174.5750  139.7660 C   0  0  0  0  0  2  0  0  0  0  0  0
  194.6550  174.3370  139.2190 C   0  0  0  0  0  2  0  0  0  0  0  0
  193.6740  172.1120  139.7470 C   0  0  1  0  0  3  0  0  0  0  0  0
  194.5050  172.9060  138.7240 C   0  0  1  0  0  3  0  0  0  0  0  0
  193.0590  172.5300  138.4110 C   0  0  1  0  0  0  0  0  0  0  0  0
  195.2320  170.2930  139.4660 O   0  0  0  0  0  0  0  0  0  0  0  0
  191.7770  169.9960  140.6550 C   0  0  0  0  0  1  0  0  0  0  0  0
  193.1330  169.6620  140.2150 N   0  0  0  0  0  2  0  0  0  0  0  0
  194.0690  170.6550  139.7890 C   0  0  0  0  0  0  0  0  0  0  0  0
  192.8750  171.5040  137.4070 N   0  0  0  0  0  0  0  0  0  0  0  0
  193.5800  171.4700  136.4400 O   0  0  0  0  0  0  0  0  0  0  0  0
  192.0250  173.5610  138.4970 N   0  0  0  0  0  2  0  0  0  0  0  0
  189.7910  172.6380  138.9220 C   0  0  0  0  0  2  0  0  0  0  0  0
  190.2580  174.1560  136.9230 C   0  0  0  0  0  2  0  0  0  0  0  0
  188.8690  173.7920  139.3240 C   0  0  0  0  0  2  0  0  0  0  0  0
  190.8150  173.0720  137.8580 C   0  0  1  0  0  3  0  0  0  0  0  0
  188.1890  174.4190  138.0960 C   0  0  0  0  0  2  0  0  0  0  0  0
  188.8070  174.0210  136.8190 N   0  0  0  0  0  2  0  0  0  0  0  0
  192.5800  176.6700  146.2690 O   0  0  0  0  0  0  0  0  0  0  0  0
  191.3360  176.2200  146.3470 O   0  0  0  0  0  0  0  0  0  0  0  0
  190.6740  176.6740  145.1940 C   0  0  0  0  0  2  0  0  0  0  0  0
  187.6870  176.0520  141.9270 O   0  0  0  0  0  0  0  0  0  0  0  0
  187.6030  177.2160  144.0370 C   0  0  0  0  0  0  0  0  0  0  0  0
  186.4990  178.0880  143.8050 N   0  0  0  0  0  2  0  0  0  0  0  0
  188.0700  176.2190  143.1150 C   0  0  0  0  0  0  0  0  0  0  0  0
  189.2650  176.0860  145.0780 C   0  0  2  0  0  3  0  0  0  0  0  0
  189.0840  175.4720  143.7570 N   0  0  0  0  0  0  0  0  0  0  0  0
  188.2560  177.1580  145.1530 N   0  0  0  0  0  0  0  0  0  0  0  0
  189.9510  174.4740  143.1360 C   0  0  0  0  0  0  0  0  0  0  0  0
  190.3730  173.3660  144.0730 C   0  0  0  0  0  2  0  0  0  0  0  0
  189.3610  173.0980  142.9620 C   0  0  0  0  0  2  0  0  0  0  0  0
  191.0290  174.9320  142.1740 C   0  0  0  0  0  2  0  0  0  0  0  0
  192.3180  174.1670  142.4120 C   0  0  0  0  0  1  0  0  0  0  0  0
  186.0000  178.9950  144.8340 C   0  0  0  0  0  2  0  0  0  0  0  0
  184.5550  178.7250  145.0910 C   0  0  0  0  0  0  0  0  0  0  0  0
  184.1690  178.1060  146.2740 O   0  0  0  0  0  1  0  0  0  0  0  0
  183.6900  179.0410  144.2380 O   0  0  0  0  0  0  0  0  0  0  0  0
  1 11  1  0  0  0  0
  1 31  1  1  0  0  0
  2  6  2  0  0  0  0
  3  9  1  0  0  0  0
  3  4  1  0  0  0  0
  5  6  1  0  0  0  0
  6  3  1  0  0  0  0
  8 11  1  0  0  0  0
  9  7  1  1  0  0  0
  9 10  1  0  0  0  0
 10  8  1  6  0  0  0
 12  4  1  6  0  0  0
 12  1  1  0  0  0  0
 12 10  1  0  0  0  0
 13  5  1  0  0  0  0
 14 13  1  0  0  0  0
 15 21  1  6  0  0  0
 16 14  1  1  0  0  0
 16 15  1  0  0  0  0
 17 22  1  6  0  0  0
 17 24  1  0  0  0  0
 17 16  1  0  0  0  0
 17 15  1  0  0  0  0
 18 21  2  0  0  0  0
 20 19  1  0  0  0  0
 21 20  1  0  0  0  0
 23 22  2  0  0  0  0
 25 27  1  0  0  0  0
 26 28  1  0  0  0  0
 28 24  1  1  0  0  0
 28 25  1  0  0  0  0
 29 27  1  0  0  0  0
 30 26  1  0  0  0  0
 30 29  1  0  0  0  0
 31 32  1  0  0  0  0
 33 32  1  0  0  0  0
 34 37  2  0  0  0  0
 35 40  2  0  0  0  0
 36 35  1  0  0  0  0
 36 46  1  0  0  0  0
 37 39  1  0  0  0  0
 37 35  1  0  0  0  0
 38 40  1  0  0  0  0
 38 33  1  6  0  0  0
 39 38  1  0  0  0  0
 41 39  1  0  0  0  0
 41 42  1  0  0  0  0
 43 41  1  0  0  0  0
 43 42  1  0  0  0  0
 44 45  1  0  0  0  0
 44 41  1  0  0  0  0
 46 47  1  0  0  0  0
 47 48  1  0  0  0  0
 49 47  2  0  0  0  0
M  END
>  <MODEL>
7

>  <REMARK>
 VINA RESULT:      -5.6      2.271      7.388
  Name = 
  15 active torsions:
  status: ('A' for Active; 'I' for Inactive)
    1  A    between atoms: C_1  and  O_23
    2  A    between atoms: C_5  and  C_20
    3  A    between atoms: C_6  and  N_9
    4  A    between atoms: C_6  and  C_17
    5  A    between atoms: C_11  and  C_18
    6  A    between atoms: C_11  and  N_21
    7  A    between atoms: C_12  and  C_40
    8  A    between atoms: C_19  and  N_27
    9  A    between atoms: C_19  and  C_28
   10  A    between atoms: O_23  and  O_24
   11  A    between atoms: O_24  and  C_40
   12  A    between atoms: C_25  and  C_28
   13  A    between atoms: C_30  and  N_37
   14  A    between atoms: N_37  and  C_41
   15  A    between atoms: N_38  and  C_41
                            x       y       z     vdW  Elec       q    Type
                         _______ _______ _______ _____ _____    ______ ____

>  <TORSDO>
F 15

$$$$
=
 OpenBabel11062418173D

 49 54  0  0  1  0  0  0  0  0999 V2000
  189.4970  173.6560  141.1150 C   0  0  2  0  0  3  0  0  0  0  0  0
  192.0570  169.8820  142.6320 O   0  0  0  0  0  0  0  0  0  0  0  0
  190.7450  170.7570  140.9080 N   0  0  0  0  0  0  0  0  0  0  0  0
  189.8280  171.3540  141.7810 N   0  0  0  0  0  2  0  0  0  0  0  0
  193.0390  169.8920  140.5090 N   0  0  0  0  0  2  0  0  0  0  0  0
  191.9500  170.1520  141.4020 C   0  0  0  0  0  0  0  0  0  0  0  0
  190.1140  169.5050  138.6610 Cl  0  0  0  0  0  0  0  0  0  0  0  0
  189.6760  173.1290  138.8080 O   0  0  0  0  0  0  0  0  0  0  0  0
  190.5210  171.0150  139.5030 C   0  0  1  0  0  3  0  0  0  0  0  0
  189.3310  171.9430  139.4820 C   0  0  1  0  0  3  0  0  0  0  0  0
  189.4610  174.1860  139.7100 C   0  0  0  0  0  2  0  0  0  0  0  0
  189.0260  172.2450  140.9440 C   0  0  2  0  0  3  0  0  0  0  0  0
  194.3150  169.3600  140.9670 C   0  0  0  0  0  2  0  0  0  0  0  0
  195.1510  170.4690  141.5780 C   0  0  0  0  0  2  0  0  0  0  0  0
  194.3060  172.8100  141.5630 C   0  0  1  0  0  3  0  0  0  0  0  0
  195.0530  171.7410  140.7470 C   0  0  1  0  0  3  0  0  0  0  0  0
  195.8170  172.9140  141.3560 C   0  0  1  0  0  0  0  0  0  0  0  0
  193.0790  173.3680  139.5630 O   0  0  0  0  0  0  0  0  0  0  0  0
  193.6730  175.6000  142.4090 C   0  0  0  0  0  1  0  0  0  0  0  0
  193.2440  175.0860  141.1080 N   0  0  0  0  0  2  0  0  0  0  0  0
  193.5190  173.7500  140.6810 C   0  0  0  0  0  0  0  0  0  0  0  0
  196.2990  173.9080  140.4210 N   0  0  0  0  0  0  0  0  0  0  0  0
  196.7470  174.9460  140.8180 O   0  0  0  0  0  0  0  0  0  0  0  0
  196.6270  172.6870  142.5520 N   0  0  0  0  0  2  0  0  0  0  0  0
  195.7530  172.0850  144.7660 C   0  0  0  0  0  2  0  0  0  0  0  0
  196.6490  174.4230  144.2660 C   0  0  0  0  0  2  0  0  0  0  0  0
  196.9250  172.0670  145.7500 C   0  0  0  0  0  2  0  0  0  0  0  0
  195.9130  173.1950  143.7110 C   0  0  1  0  0  3  0  0  0  0  0  0
  197.1340  173.4460  146.3970 C   0  0  0  0  0  2  0  0  0  0  0  0
  196.4160  174.5310  145.7050 N   0  0  0  0  0  2  0  0  0  0  0  0
  188.6260  174.4040  141.9230 O   0  0  0  0  0  0  0  0  0  0  0  0
  189.0390  175.6620  141.8590 O   0  0  0  0  0  0  0  0  0  0  0  0
  190.0020  175.8190  142.8700 C   0  0  0  0  0  2  0  0  0  0  0  0
  188.2490  175.6750  146.9800 O   0  0  0  0  0  0  0  0  0  0  0  0
  187.5320  176.6980  144.9170 C   0  0  0  0  0  0  0  0  0  0  0  0
  186.1420  176.8680  145.1860 N   0  0  0  0  0  2  0  0  0  0  0  0
  188.4920  176.1830  145.8530 C   0  0  0  0  0  0  0  0  0  0  0  0
  189.5600  176.8400  143.9230 C   0  0  2  0  0  3  0  0  0  0  0  0
  189.7740  176.2960  145.2690 N   0  0  0  0  0  0  0  0  0  0  0  0
  188.1090  177.0800  143.8240 N   0  0  0  0  0  0  0  0  0  0  0  0
  191.0190  175.7410  145.7950 C   0  0  0  0  0  0  0  0  0  0  0  0
  192.2050  176.6680  145.6580 C   0  0  0  0  0  2  0  0  0  0  0  0
  191.5770  176.4100  147.0260 C   0  0  0  0  0  2  0  0  0  0  0  0
  191.3310  174.2770  145.5560 C   0  0  0  0  0  2  0  0  0  0  0  0
  192.8200  174.0200  145.6880 C   0  0  0  0  0  1  0  0  0  0  0  0
  185.2430  177.5120  144.2330 C   0  0  0  0  0  2  0  0  0  0  0  0
  184.8730  178.8720  144.7230 C   0  0  0  0  0  0  0  0  0  0  0  0
  183.7910  179.0240  145.5830 O   0  0  0  0  0  1  0  0  0  0  0  0
  185.5250  179.8790  144.3520 O   0  0  0  0  0  0  0  0  0  0  0  0
  1 31  1  1  0  0  0
  3  6  1  0  0  0  0
  3  4  1  0  0  0  0
  5 13  1  0  0  0  0
  5  6  1  0  0  0  0
  6  2  2  0  0  0  0
  8 11  1  0  0  0  0
  9  7  1  6  0  0  0
  9  3  1  0  0  0  0
 10  8  1  6  0  0  0
 10  9  1  0  0  0  0
 10 12  1  0  0  0  0
 11  1  1  0  0  0  0
 12  1  1  0  0  0  0
 12  4  1  1  0  0  0
 13 14  1  0  0  0  0
 15 21  1  6  0  0  0
 16 17  1  0  0  0  0
 16 15  1  0  0  0  0
 16 14  1  1  0  0  0
 17 22  1  6  0  0  0
 17 15  1  0  0  0  0
 17 24  1  0  0  0  0
 18 21  2  0  0  0  0
 20 19  1  0  0  0  0
 21 20  1  0  0  0  0
 22 23  2  0  0  0  0
 25 27  1  0  0  0  0
 26 30  1  0  0  0  0
 27 29  1  0  0  0  0
 28 24  1  6  0  0  0
 28 26  1  0  0  0  0
 28 25  1  0  0  0  0
 30 29  1  0  0  0  0
 32 31  1  0  0  0  0
 32 33  1  0  0  0  0
 35 36  1  0  0  0  0
 35 37  1  0  0  0  0
 37 34  2  0  0  0  0
 38 33  1  6  0  0  0
 38 39  1  0  0  0  0
 39 41  1  0  0  0  0
 39 37  1  0  0  0  0
 40 38  1  0  0  0  0
 40 35  2  0  0  0  0
 41 43  1  0  0  0  0
 42 41  1  0  0  0  0
 42 43  1  0  0  0  0
 44 45  1  0  0  0  0
 44 41  1  0  0  0  0
 46 47  1  0  0  0  0
 46 36  1  0  0  0  0
 47 48  1  0  0  0  0
 49 47  2  0  0  0  0
M  END
>  <MODEL>
8

>  <REMARK>
 VINA RESULT:      -5.6      2.833      8.328
  Name = 
  15 active torsions:
  status: ('A' for Active; 'I' for Inactive)
    1  A    between atoms: C_1  and  O_23
    2  A    between atoms: C_5  and  C_20
    3  A    between atoms: C_6  and  N_9
    4  A    between atoms: C_6  and  C_17
    5  A    between atoms: C_11  and  C_18
    6  A    between atoms: C_11  and  N_21
    7  A    between atoms: C_12  and  C_40
    8  A    between atoms: C_19  and  N_27
    9  A    between atoms: C_19  and  C_28
   10  A    between atoms: O_23  and  O_24
   11  A    between atoms: O_24  and  C_40
   12  A    between atoms: C_25  and  C_28
   13  A    between atoms: C_30  and  N_37
   14  A    between atoms: N_37  and  C_41
   15  A    between atoms: N_38  and  C_41
                            x       y       z     vdW  Elec       q    Type
                         _______ _______ _______ _____ _____    ______ ____

>  <TORSDO>
F 15

$$$$
=
 OpenBabel11062418173D

 49 54  0  0  1  0  0  0  0  0999 V2000
  194.3550  174.2790  141.0290 C   0  0  2  0  0  3  0  0  0  0  0  0
  192.0040  173.4800  145.1440 O   0  0  0  0  0  0  0  0  0  0  0  0
  193.5780  174.8140  144.0480 N   0  0  0  0  0  0  0  0  0  0  0  0
  194.1670  173.7350  143.3780 N   0  0  0  0  0  2  0  0  0  0  0  0
  191.5840  175.7810  145.1700 N   0  0  0  0  0  2  0  0  0  0  0  0
  192.3770  174.6410  144.8140 C   0  0  0  0  0  0  0  0  0  0  0  0
  194.9010  176.8410  145.1250 Cl  0  0  0  0  0  0  0  0  0  0  0  0
  194.8210  176.5620  141.4820 O   0  0  0  0  0  0  0  0  0  0  0  0
  194.1080  176.1170  143.7090 C   0  0  1  0  0  3  0  0  0  0  0  0
  195.1370  175.8320  142.6430 C   0  0  1  0  0  3  0  0  0  0  0  0
  194.6690  175.6270  140.4440 C   0  0  0  0  0  2  0  0  0  0  0  0
  195.0300  174.3370  142.3640 C   0  0  2  0  0  3  0  0  0  0  0  0
  190.3140  175.6610  145.8710 C   0  0  0  0  0  2  0  0  0  0  0  0
  189.2720  175.0430  144.9570 C   0  0  0  0  0  2  0  0  0  0  0  0
  187.9140  175.5450  142.9330 C   0  0  1  0  0  3  0  0  0  0  0  0
  189.2990  175.7010  143.5840 C   0  0  1  0  0  3  0  0  0  0  0  0
  188.3630  176.9010  143.4770 C   0  0  1  0  0  0  0  0  0  0  0  0
  187.6480  176.4160  140.7000 O   0  0  0  0  0  0  0  0  0  0  0  0
  188.9890  173.1170  141.5710 C   0  0  0  0  0  1  0  0  0  0  0  0
  188.5090  174.2680  140.8040 N   0  0  0  0  0  2  0  0  0  0  0  0
  188.0030  175.4500  141.4280 C   0  0  0  0  0  0  0  0  0  0  0  0
  188.7430  177.9160  142.5190 N   0  0  0  0  0  0  0  0  0  0  0  0
  189.8910  178.2340  142.3960 O   0  0  0  0  0  0  0  0  0  0  0  0
  187.6560  177.3560  144.6740 N   0  0  0  0  0  2  0  0  0  0  0  0
  185.5840  176.7010  145.8160 C   0  0  0  0  0  2  0  0  0  0  0  0
  185.5910  178.4240  143.9320 C   0  0  0  0  0  2  0  0  0  0  0  0
  185.0940  177.8980  146.6350 C   0  0  0  0  0  2  0  0  0  0  0  0
  186.2300  177.1440  144.4920 C   0  0  1  0  0  3  0  0  0  0  0  0
  184.1540  178.7930  145.8110 C   0  0  0  0  0  2  0  0  0  0  0  0
  184.1980  178.5110  144.3650 N   0  0  0  0  0  2  0  0  0  0  0  0
  194.8950  173.2730  140.2120 O   0  0  0  0  0  0  0  0  0  0  0  0
  194.3590  173.4340  139.0100 O   0  0  0  0  0  0  0  0  0  0  0  0
  193.5410  172.3140  138.7850 C   0  0  0  0  0  2  0  0  0  0  0  0
  189.6290  170.2070  138.2990 O   0  0  0  0  0  0  0  0  0  0  0  0
  190.4320  172.3700  137.6020 C   0  0  0  0  0  0  0  0  0  0  0  0
  189.5050  172.6640  136.5590 N   0  0  0  0  0  2  0  0  0  0  0  0
  190.3860  171.2040  138.4380 C   0  0  0  0  0  0  0  0  0  0  0  0
  192.0780  172.5970  139.1390 C   0  0  2  0  0  3  0  0  0  0  0  0
  191.3810  171.3390  139.4330 N   0  0  0  0  0  0  0  0  0  0  0  0
  191.3740  173.1740  137.9790 N   0  0  0  0  0  0  0  0  0  0  0  0
  191.7990  170.3160  140.3870 C   0  0  0  0  0  0  0  0  0  0  0  0
  192.1820  170.8660  141.7410 C   0  0  0  0  0  2  0  0  0  0  0  0
  190.8810  170.0880  141.5610 C   0  0  0  0  0  2  0  0  0  0  0  0
  192.6630  169.1680  139.9040 C   0  0  0  0  0  2  0  0  0  0  0  0
  192.8940  168.1660  141.0200 C   0  0  0  0  0  1  0  0  0  0  0  0
  189.5380  173.9270  135.8290 C   0  0  0  0  0  2  0  0  0  0  0  0
  188.5020  174.8540  136.3700 C   0  0  0  0  0  0  0  0  0  0  0  0
  187.8090  174.5150  137.5270 O   0  0  0  0  0  1  0  0  0  0  0  0
  188.2430  175.9310  135.7780 O   0  0  0  0  0  0  0  0  0  0  0  0
  1 31  1  6  0  0  0
  1 12  1  0  0  0  0
  3  6  1  0  0  0  0
  4  3  1  0  0  0  0
  5 13  1  0  0  0  0
  6  2  2  0  0  0  0
  6  5  1  0  0  0  0
  9  3  1  0  0  0  0
  9  7  1  1  0  0  0
 10  8  1  6  0  0  0
 10  9  1  0  0  0  0
 11  1  1  0  0  0  0
 11  8  1  0  0  0  0
 12 10  1  0  0  0  0
 12  4  1  1  0  0  0
 14 13  1  0  0  0  0
 15 21  1  6  0  0  0
 15 17  1  0  0  0  0
 15 16  1  0  0  0  0
 16 14  1  1  0  0  0
 17 22  1  6  0  0  0
 17 16  1  0  0  0  0
 17 24  1  0  0  0  0
 18 21  2  0  0  0  0
 20 21  1  0  0  0  0
 20 19  1  0  0  0  0
 23 22  2  0  0  0  0
 25 27  1  0  0  0  0
 26 30  1  0  0  0  0
 26 28  1  0  0  0  0
 28 24  1  1  0  0  0
 28 25  1  0  0  0  0
 29 27  1  0  0  0  0
 30 29  1  0  0  0  0
 32 31  1  0  0  0  0
 33 32  1  0  0  0  0
 34 37  2  0  0  0  0
 35 40  2  0  0  0  0
 35 37  1  0  0  0  0
 36 35  1  0  0  0  0
 37 39  1  0  0  0  0
 38 33  1  6  0  0  0
 38 39  1  0  0  0  0
 39 41  1  0  0  0  0
 40 38  1  0  0  0  0
 41 43  1  0  0  0  0
 41 42  1  0  0  0  0
 43 42  1  0  0  0  0
 44 41  1  0  0  0  0
 44 45  1  0  0  0  0
 46 47  1  0  0  0  0
 46 36  1  0  0  0  0
 47 48  1  0  0  0  0
 49 47  2  0  0  0  0
M  END
>  <MODEL>
9

>  <REMARK>
 VINA RESULT:      -5.5      1.773      3.661
  Name = 
  15 active torsions:
  status: ('A' for Active; 'I' for Inactive)
    1  A    between atoms: C_1  and  O_23
    2  A    between atoms: C_5  and  C_20
    3  A    between atoms: C_6  and  N_9
    4  A    between atoms: C_6  and  C_17
    5  A    between atoms: C_11  and  C_18
    6  A    between atoms: C_11  and  N_21
    7  A    between atoms: C_12  and  C_40
    8  A    between atoms: C_19  and  N_27
    9  A    between atoms: C_19  and  C_28
   10  A    between atoms: O_23  and  O_24
   11  A    between atoms: O_24  and  C_40
   12  A    between atoms: C_25  and  C_28
   13  A    between atoms: C_30  and  N_37
   14  A    between atoms: N_37  and  C_41
   15  A    between atoms: N_38  and  C_41
                            x       y       z     vdW  Elec       q    Type
                         _______ _______ _______ _____ _____    ______ ____

>  <TORSDO>
F 15

$$$$
