=
 OpenBabel11062420343D

 32 36  0  0  1  0  0  0  0  0999 V2000
  189.0040  175.1670  142.5030 C   0  0  0  0  0  0  0  0  0  0  0  0
  187.2770  176.3930  141.9360 C   0  0  0  0  0  0  0  0  0  0  0  0
  187.6380  176.6020  143.2470 C   0  0  0  0  0  0  0  0  0  0  0  0
  186.9350  177.4770  144.0680 C   0  0  0  0  0  0  0  0  0  0  0  0
  190.0220  174.2310  142.3180 C   0  0  0  0  0  0  0  0  0  0  0  0
  188.1680  175.4670  141.4640 C   0  0  0  0  0  0  0  0  0  0  0  0
  188.6800  175.8570  143.5780 O   0  0  0  0  0  0  0  0  0  0  0  0
  190.1370  173.6630  141.0810 N   0  0  0  0  0  0  0  0  0  0  0  0
  185.8360  178.1890  143.4970 C   0  0  0  0  0  0  0  0  0  0  0  0
  186.2000  177.0340  141.3490 C   0  0  0  0  0  3  0  0  0  0  0  0
  188.2810  174.8950  140.2430 N   0  0  0  0  0  0  0  0  0  0  0  0
  189.2820  173.9840  140.0560 C   0  0  0  0  0  3  0  0  0  0  0  0
  185.4670  177.9500  142.1370 C   0  0  0  0  0  0  0  0  0  0  0  0
  185.1290  179.2410  144.2590 C   0  0  0  0  0  0  0  0  0  0  0  0
  184.0660  178.9090  145.0900 O   0  0  0  0  0  1  0  0  0  0  0  0
  185.5050  180.4410  144.1890 O   0  0  0  0  0  0  0  0  0  0  0  0
  183.7290  178.2340  140.3910 C   0  0  0  0  0  1  0  0  0  0  0  0
  184.3890  178.6500  141.5800 O   0  0  0  0  0  0  0  0  0  0  0  0
  187.3170  177.5700  145.4490 N   0  0  0  0  0  2  0  0  0  0  0  0
  186.2070  177.3900  147.5930 C   0  0  0  0  0  1  0  0  0  0  0  0
  186.9130  176.6310  146.4870 C   0  0  2  0  0  3  0  0  0  0  0  0
  188.1360  175.9220  147.0440 C   0  0  0  0  0  2  0  0  0  0  0  0
  189.2820  176.6810  146.8010 O   0  0  0  0  0  1  0  0  0  0  0  0
  190.9320  173.8570  143.3600 N   0  0  0  0  0  2  0  0  0  0  0  0
  193.6280  176.7450  144.9620 C   0  0  0  0  0  2  0  0  0  0  0  0
  191.7360  174.8060  144.1170 C   0  0  2  0  0  3  0  0  0  0  0  0
  194.1270  174.6770  145.6940 C   0  0  0  0  0  2  0  0  0  0  0  0
  193.1770  174.8560  143.5510 C   0  0  0  0  0  2  0  0  0  0  0  0
  192.8670  175.1490  146.3540 C   0  0  2  0  0  3  0  0  0  0  0  0
  191.7150  174.4540  145.6160 C   0  0  0  0  0  2  0  0  0  0  0  0
  194.1480  175.4630  144.4870 N   0  0  1  0  0  0  0  0  0  0  0  0
  192.8130  176.5320  146.1030 O   0  0  0  0  0  0  0  0  0  0  0  0
  1  7  1  0  0  0  0
  2  3  1  0  0  0  0
  3  7  1  0  0  0  0
  3  4  2  0  0  0  0
  4 19  1  0  0  0  0
  5  1  1  0  0  0  0
  5 24  1  0  0  0  0
  6  2  1  0  0  0  0
  6  1  2  0  0  0  0
  8  5  2  0  0  0  0
  9  4  1  0  0  0  0
  9 14  1  0  0  0  0
 10  2  2  0  0  0  0
 10 13  1  0  0  0  0
 11  6  1  0  0  0  0
 12 11  2  0  0  0  0
 12  8  1  0  0  0  0
 13  9  2  0  0  0  0
 14 15  1  0  0  0  0
 16 14  2  0  0  0  0
 17 18  1  0  0  0  0
 18 13  1  0  0  0  0
 19 21  1  0  0  0  0
 21 22  1  0  0  0  0
 21 20  1  1  0  0  0
 23 22  1  0  0  0  0
 25 32  1  0  0  0  0
 26 24  1  6  0  0  0
 26 30  1  0  0  0  0
 27 29  1  0  0  0  0
 28 26  1  0  0  0  0
 29 30  1  6  0  0  0
 31 28  1  6  0  0  0
 31 25  1  0  0  0  0
 31 27  1  0  0  0  0
 32 29  1  0  0  0  0
M  END
>  <MODEL>
1

>  <REMARK>
 VINA RESULT:      -7.1      0.000      0.000
  Name = 
  7 active torsions:
  status: ('A' for Active; 'I' for Inactive)
    1  A    between atoms: C_1  and  CA_25
    2  A    between atoms: C_3  and  N_29
    3  A    between atoms: C_7  and  N_22
    4  A    between atoms: C_9  and  N_29
    5  A    between atoms: O_15  and  C_30
    6  A    between atoms: C_18  and  C_19
    7  A    between atoms: N_22  and  CA_25
                            x       y       z     vdW  Elec       q    Type
                         _______ _______ _______ _____ _____    ______ ____

>  <TORSDO>
F 7

$$$$
=
 OpenBabel11062420343D

 32 36  0  0  1  0  0  0  0  0999 V2000
  190.5970  176.0680  145.2090 C   0  0  0  0  0  0  0  0  0  0  0  0
  188.7920  177.0170  146.0130 C   0  0  0  0  0  0  0  0  0  0  0  0
  188.8470  177.1150  144.6420 C   0  0  0  0  0  0  0  0  0  0  0  0
  187.8600  177.7730  143.9150 C   0  0  0  0  0  0  0  0  0  0  0  0
  191.8110  175.3820  145.2610 C   0  0  0  0  0  0  0  0  0  0  0  0
  189.9240  176.3360  146.3690 C   0  0  0  0  0  0  0  0  0  0  0  0
  189.9400  176.5400  144.1680 O   0  0  0  0  0  0  0  0  0  0  0  0
  192.2650  174.9990  146.4910 N   0  0  0  0  0  0  0  0  0  0  0  0
  186.7560  178.3200  144.6370 C   0  0  0  0  0  0  0  0  0  0  0  0
  187.7590  177.5610  146.7570 C   0  0  0  0  0  3  0  0  0  0  0  0
  190.3830  175.9610  147.5860 N   0  0  0  0  0  0  0  0  0  0  0  0
  191.5680  175.2830  147.6390 C   0  0  0  0  0  3  0  0  0  0  0  0
  186.7200  178.2210  146.0630 C   0  0  0  0  0  0  0  0  0  0  0  0
  185.5970  178.9080  143.9290 C   0  0  0  0  0  0  0  0  0  0  0  0
  184.6150  178.0860  143.3920 O   0  0  0  0  0  0  0  0  0  0  0  0
  185.4720  180.1580  143.8390 O   0  0  0  0  0  1  0  0  0  0  0  0
  184.4520  178.0200  147.0440 C   0  0  0  0  0  1  0  0  0  0  0  0
  185.6360  178.7580  146.7670 O   0  0  0  0  0  0  0  0  0  0  0  0
  188.0380  177.9120  142.4970 N   0  0  0  0  0  2  0  0  0  0  0  0
  186.7500  177.4950  140.4910 C   0  0  0  0  0  1  0  0  0  0  0  0
  187.6940  176.8950  141.5150 C   0  0  2  0  0  3  0  0  0  0  0  0
  187.0270  175.7160  142.2060 C   0  0  0  0  0  2  0  0  0  0  0  0
  187.8400  174.5860  142.1150 O   0  0  0  0  0  1  0  0  0  0  0  0
  192.5780  175.0720  144.0910 N   0  0  0  0  0  2  0  0  0  0  0  0
  196.4650  176.6040  143.2480 C   0  0  0  0  0  2  0  0  0  0  0  0
  193.9860  175.4040  143.9290 C   0  0  2  0  0  3  0  0  0  0  0  0
  196.0530  174.7410  142.0570 C   0  0  0  0  0  2  0  0  0  0  0  0
  194.2150  176.1130  142.5710 C   0  0  0  0  0  2  0  0  0  0  0  0
  196.2580  174.3780  143.4960 C   0  0  2  0  0  3  0  0  0  0  0  0
  194.8580  174.1430  144.0780 C   0  0  0  0  0  2  0  0  0  0  0  0
  195.6330  176.1160  142.1490 N   0  0  1  0  0  0  0  0  0  0  0  0
  196.8220  175.5210  144.0900 O   0  0  0  0  0  0  0  0  0  0  0  0
  1  5  1  0  0  0  0
  1  6  2  0  0  0  0
  2  6  1  0  0  0  0
  2 10  1  0  0  0  0
  3  2  2  0  0  0  0
  4  9  2  0  0  0  0
  4  3  1  0  0  0  0
  5  8  2  0  0  0  0
  6 11  1  0  0  0  0
  7  3  1  0  0  0  0
  7  1  1  0  0  0  0
  8 12  1  0  0  0  0
  9 13  1  0  0  0  0
 11 12  2  0  0  0  0
 13 10  2  0  0  0  0
 13 18  1  0  0  0  0
 14  9  1  0  0  0  0
 15 14  2  0  0  0  0
 16 14  1  0  0  0  0
 18 17  1  0  0  0  0
 19  4  1  0  0  0  0
 21 20  1  6  0  0  0
 21 22  1  0  0  0  0
 21 19  1  0  0  0  0
 23 22  1  0  0  0  0
 24  5  1  0  0  0  0
 25 32  1  0  0  0  0
 26 30  1  0  0  0  0
 26 24  1  6  0  0  0
 28 26  1  0  0  0  0
 29 27  1  6  0  0  0
 29 30  1  0  0  0  0
 29 32  1  0  0  0  0
 31 27  1  1  0  0  0
 31 28  1  0  0  0  0
 31 25  1  0  0  0  0
M  END
>  <MODEL>
2

>  <REMARK>
 VINA RESULT:      -6.8      2.183      4.362
  Name = 
  7 active torsions:
  status: ('A' for Active; 'I' for Inactive)
    1  A    between atoms: C_1  and  CA_25
    2  A    between atoms: C_3  and  N_29
    3  A    between atoms: C_7  and  N_22
    4  A    between atoms: C_9  and  N_29
    5  A    between atoms: O_15  and  C_30
    6  A    between atoms: C_18  and  C_19
    7  A    between atoms: N_22  and  CA_25
                            x       y       z     vdW  Elec       q    Type
                         _______ _______ _______ _____ _____    ______ ____

>  <TORSDO>
F 7

$$$$
=
 OpenBabel11062420343D

 32 36  0  0  1  0  0  0  0  0999 V2000
  190.4690  175.9540  145.1610 C   0  0  0  0  0  0  0  0  0  0  0  0
  188.7450  177.0000  146.0200 C   0  0  0  0  0  0  0  0  0  0  0  0
  188.7200  177.0270  144.6450 C   0  0  0  0  0  0  0  0  0  0  0  0
  187.7110  177.6800  143.9450 C   0  0  0  0  0  0  0  0  0  0  0  0
  191.6630  175.2320  145.1760 C   0  0  0  0  0  0  0  0  0  0  0  0
  189.8770  176.3010  146.3430 C   0  0  0  0  0  0  0  0  0  0  0  0
  189.7640  176.3940  144.1370 O   0  0  0  0  0  0  0  0  0  0  0  0
  192.1790  174.8970  146.3960 N   0  0  0  0  0  0  0  0  0  0  0  0
  186.6690  178.2990  144.7010 C   0  0  0  0  0  0  0  0  0  0  0  0
  187.7770  177.6150  146.7950 C   0  0  0  0  0  3  0  0  0  0  0  0
  190.3980  175.9740  147.5480 N   0  0  0  0  0  0  0  0  0  0  0  0
  191.5630  175.2600  147.5660 C   0  0  0  0  0  3  0  0  0  0  0  0
  186.7180  178.2730  146.1300 C   0  0  0  0  0  0  0  0  0  0  0  0
  185.4870  178.8880  144.0340 C   0  0  0  0  0  0  0  0  0  0  0  0
  184.4160  178.0830  143.6690 O   0  0  0  0  0  0  0  0  0  0  0  0
  185.4260  180.1290  143.8230 O   0  0  0  0  0  1  0  0  0  0  0  0
  184.5270  178.1860  147.2880 C   0  0  0  0  0  1  0  0  0  0  0  0
  185.6940  178.8800  146.8680 O   0  0  0  0  0  0  0  0  0  0  0  0
  187.8060  177.7420  142.5130 N   0  0  0  0  0  2  0  0  0  0  0  0
  187.9910  175.6880  141.2470 C   0  0  0  0  0  1  0  0  0  0  0  0
  187.0970  176.8610  141.5960 C   0  0  2  0  0  3  0  0  0  0  0  0
  186.7260  177.6230  140.3350 C   0  0  0  0  0  2  0  0  0  0  0  0
  185.5420  178.3340  140.5350 O   0  0  0  0  0  1  0  0  0  0  0  0
  192.3480  174.8380  143.9800 N   0  0  0  0  0  2  0  0  0  0  0  0
  191.4450  171.7970  141.1330 C   0  0  0  0  0  2  0  0  0  0  0  0
  192.0100  173.6560  143.2010 C   0  0  2  0  0  3  0  0  0  0  0  0
  189.5940  172.4570  142.2280 C   0  0  0  0  0  2  0  0  0  0  0  0
  191.2760  174.0660  141.9000 C   0  0  0  0  0  2  0  0  0  0  0  0
  190.4610  171.6560  143.1510 C   0  0  2  0  0  3  0  0  0  0  0  0
  191.1790  172.6730  144.0480 C   0  0  0  0  0  2  0  0  0  0  0  0
  190.5480  172.9450  141.2650 N   0  0  1  0  0  0  0  0  0  0  0  0
  191.4010  171.0230  142.3200 O   0  0  0  0  0  0  0  0  0  0  0  0
  1  5  1  0  0  0  0
  1  6  2  0  0  0  0
  2  6  1  0  0  0  0
  2 10  1  0  0  0  0
  3  2  2  0  0  0  0
  4  3  1  0  0  0  0
  4  9  2  0  0  0  0
  5  8  2  0  0  0  0
  6 11  1  0  0  0  0
  7  3  1  0  0  0  0
  7  1  1  0  0  0  0
  8 12  1  0  0  0  0
  9 13  1  0  0  0  0
 11 12  2  0  0  0  0
 13 10  2  0  0  0  0
 13 18  1  0  0  0  0
 14  9  1  0  0  0  0
 15 14  2  0  0  0  0
 16 14  1  0  0  0  0
 18 17  1  0  0  0  0
 19  4  1  0  0  0  0
 21 20  1  6  0  0  0
 21 19  1  0  0  0  0
 22 23  1  0  0  0  0
 22 21  1  0  0  0  0
 24  5  1  0  0  0  0
 25 32  1  0  0  0  0
 26 24  1  1  0  0  0
 26 30  1  0  0  0  0
 28 26  1  0  0  0  0
 29 27  1  6  0  0  0
 29 30  1  0  0  0  0
 31 25  1  1  0  0  0
 31 28  1  0  0  0  0
 31 27  1  0  0  0  0
 32 29  1  0  0  0  0
M  END
>  <MODEL>
3

>  <REMARK>
 VINA RESULT:      -6.7      2.106      4.852
  Name = 
  7 active torsions:
  status: ('A' for Active; 'I' for Inactive)
    1  A    between atoms: C_1  and  CA_25
    2  A    between atoms: C_3  and  N_29
    3  A    between atoms: C_7  and  N_22
    4  A    between atoms: C_9  and  N_29
    5  A    between atoms: O_15  and  C_30
    6  A    between atoms: C_18  and  C_19
    7  A    between atoms: N_22  and  CA_25
                            x       y       z     vdW  Elec       q    Type
                         _______ _______ _______ _____ _____    ______ ____

>  <TORSDO>
F 7

$$$$
=
 OpenBabel11062420343D

 32 36  0  0  1  0  0  0  0  0999 V2000
  189.9450  174.9290  142.2230 C   0  0  0  0  0  0  0  0  0  0  0  0
  192.1170  175.0400  142.4920 C   0  0  0  0  0  0  0  0  0  0  0  0
  191.4480  175.6960  143.4990 C   0  0  0  0  0  0  0  0  0  0  0  0
  192.1260  176.3530  144.5210 C   0  0  0  0  0  0  0  0  0  0  0  0
  188.7520  174.5720  141.5930 C   0  0  0  0  0  0  0  0  0  0  0  0
  191.1370  174.5450  141.6750 C   0  0  0  0  0  0  0  0  0  0  0  0
  190.1390  175.6230  143.3270 O   0  0  0  0  0  0  0  0  0  0  0  0
  188.8430  173.8340  140.4460 N   0  0  0  0  0  0  0  0  0  0  0  0
  193.5530  176.2990  144.5150 C   0  0  0  0  0  0  0  0  0  0  0  0
  193.4990  174.9900  142.4260 C   0  0  0  0  0  3  0  0  0  0  0  0
  191.2210  173.8220  140.5340 N   0  0  0  0  0  0  0  0  0  0  0  0
  190.0540  173.4640  139.9190 C   0  0  0  0  0  3  0  0  0  0  0  0
  194.2330  175.6240  143.4530 C   0  0  0  0  0  0  0  0  0  0  0  0
  194.3430  176.8480  145.6380 C   0  0  0  0  0  0  0  0  0  0  0  0
  194.5560  176.0880  146.7810 O   0  0  0  0  0  1  0  0  0  0  0  0
  194.8610  177.9940  145.5550 O   0  0  0  0  0  0  0  0  0  0  0  0
  196.4370  176.4240  142.6450 C   0  0  0  0  0  1  0  0  0  0  0  0
  195.6330  175.5720  143.4510 O   0  0  0  0  0  0  0  0  0  0  0  0
  191.3580  177.0920  145.4820 N   0  0  0  0  0  2  0  0  0  0  0  0
  191.0730  175.0570  146.7620 C   0  0  0  0  0  1  0  0  0  0  0  0
  190.8950  176.5630  146.7570 C   0  0  2  0  0  3  0  0  0  0  0  0
  189.4290  176.9110  146.9580 C   0  0  0  0  0  2  0  0  0  0  0  0
  188.8780  177.3660  145.7600 O   0  0  0  0  0  1  0  0  0  0  0  0
  187.4640  174.9430  142.1000 N   0  0  0  0  0  2  0  0  0  0  0  0
  186.1960  178.6950  143.6750 C   0  0  0  0  0  2  0  0  0  0  0  0
  187.0780  176.3100  142.4160 C   0  0  2  0  0  3  0  0  0  0  0  0
  184.6670  177.8540  142.2560 C   0  0  0  0  0  2  0  0  0  0  0  0
  185.9530  176.3150  143.4810 C   0  0  0  0  0  2  0  0  0  0  0  0
  185.8610  178.3230  141.4820 C   0  0  2  0  0  3  0  0  0  0  0  0
  186.6650  177.0630  141.1370 C   0  0  0  0  0  2  0  0  0  0  0  0
  185.2300  177.6030  143.5580 N   0  0  1  0  0  0  0  0  0  0  0  0
  186.5990  179.1130  142.3820 O   0  0  0  0  0  0  0  0  0  0  0  0
  1  7  1  0  0  0  0
  2  3  1  0  0  0  0
  3  4  2  0  0  0  0
  4 19  1  0  0  0  0
  5 24  1  0  0  0  0
  5  1  1  0  0  0  0
  6  1  2  0  0  0  0
  6  2  1  0  0  0  0
  7  3  1  0  0  0  0
  8  5  2  0  0  0  0
  9  4  1  0  0  0  0
  9 14  1  0  0  0  0
 10  2  2  0  0  0  0
 10 13  1  0  0  0  0
 11  6  1  0  0  0  0
 12  8  1  0  0  0  0
 12 11  2  0  0  0  0
 13  9  2  0  0  0  0
 14 15  1  0  0  0  0
 16 14  2  0  0  0  0
 17 18  1  0  0  0  0
 18 13  1  0  0  0  0
 19 21  1  0  0  0  0
 21 20  1  6  0  0  0
 21 22  1  0  0  0  0
 23 22  1  0  0  0  0
 26 24  1  6  0  0  0
 26 28  1  0  0  0  0
 28 31  1  0  0  0  0
 29 30  1  1  0  0  0
 29 27  1  0  0  0  0
 29 32  1  0  0  0  0
 30 26  1  0  0  0  0
 31 27  1  6  0  0  0
 31 25  1  0  0  0  0
 32 25  1  0  0  0  0
M  END
>  <MODEL>
4

>  <REMARK>
 VINA RESULT:      -6.5      1.869      6.929
  Name = 
  7 active torsions:
  status: ('A' for Active; 'I' for Inactive)
    1  A    between atoms: C_1  and  CA_25
    2  A    between atoms: C_3  and  N_29
    3  A    between atoms: C_7  and  N_22
    4  A    between atoms: C_9  and  N_29
    5  A    between atoms: O_15  and  C_30
    6  A    between atoms: C_18  and  C_19
    7  A    between atoms: N_22  and  CA_25
                            x       y       z     vdW  Elec       q    Type
                         _______ _______ _______ _____ _____    ______ ____

>  <TORSDO>
F 7

$$$$
=
 OpenBabel11062420343D

 32 36  0  0  1  0  0  0  0  0999 V2000
  188.3630  176.8620  142.9360 C   0  0  0  0  0  0  0  0  0  0  0  0
  190.0510  175.5240  142.5310 C   0  0  0  0  0  0  0  0  0  0  0  0
  190.1790  176.1450  143.7520 C   0  0  0  0  0  0  0  0  0  0  0  0
  191.2830  175.9290  144.5710 C   0  0  0  0  0  0  0  0  0  0  0  0
  187.1560  177.5110  142.6740 C   0  0  0  0  0  0  0  0  0  0  0  0
  188.8740  175.9910  142.0140 C   0  0  0  0  0  0  0  0  0  0  0  0
  189.1560  176.9500  143.9850 O   0  0  0  0  0  0  0  0  0  0  0  0
  186.5330  177.2260  141.4920 N   0  0  0  0  0  0  0  0  0  0  0  0
  192.2760  175.0070  144.1200 C   0  0  0  0  0  0  0  0  0  0  0  0
  191.0040  174.6490  142.0380 C   0  0  0  0  0  3  0  0  0  0  0  0
  188.2560  175.7190  140.8410 N   0  0  0  0  0  0  0  0  0  0  0  0
  187.0690  176.3460  140.5850 C   0  0  0  0  0  3  0  0  0  0  0  0
  192.1340  174.3790  142.8430 C   0  0  0  0  0  0  0  0  0  0  0  0
  193.4040  174.6130  144.9920 C   0  0  0  0  0  0  0  0  0  0  0  0
  193.3260  173.4600  145.7610 O   0  0  0  0  0  1  0  0  0  0  0  0
  194.4610  175.3000  145.0160 O   0  0  0  0  0  0  0  0  0  0  0  0
  192.8700  172.0780  142.2870 C   0  0  0  0  0  1  0  0  0  0  0  0
  193.1090  173.4740  142.4050 O   0  0  0  0  0  0  0  0  0  0  0  0
  191.3870  176.6860  145.7870 N   0  0  0  0  0  2  0  0  0  0  0  0
  191.4920  176.7840  148.2030 C   0  0  0  0  0  1  0  0  0  0  0  0
  190.6430  176.4030  147.0060 C   0  0  2  0  0  3  0  0  0  0  0  0
  190.2980  174.9240  147.0660 C   0  0  0  0  0  2  0  0  0  0  0  0
  188.9350  174.7600  147.3150 O   0  0  0  0  0  1  0  0  0  0  0  0
  186.5620  178.4430  143.5860 N   0  0  0  0  0  2  0  0  0  0  0  0
  186.2800  177.1040  147.6220 C   0  0  0  0  0  2  0  0  0  0  0  0
  186.4530  178.2210  145.0200 C   0  0  2  0  0  3  0  0  0  0  0  0
  184.3080  177.9030  146.8950 C   0  0  0  0  0  2  0  0  0  0  0  0
  185.7080  176.8930  145.3010 C   0  0  0  0  0  2  0  0  0  0  0  0
  185.2630  179.0400  147.0970 C   0  0  2  0  0  3  0  0  0  0  0  0
  185.7690  179.4220  145.7010 C   0  0  0  0  0  2  0  0  0  0  0  0
  185.2010  176.7920  146.6860 N   0  0  1  0  0  0  0  0  0  0  0  0
  186.3250  178.5030  147.8460 O   0  0  0  0  0  0  0  0  0  0  0  0
  1  7  1  0  0  0  0
  2  3  1  0  0  0  0
  3  7  1  0  0  0  0
  3  4  2  0  0  0  0
  4 19  1  0  0  0  0
  5  1  1  0  0  0  0
  5 24  1  0  0  0  0
  6  2  1  0  0  0  0
  6  1  2  0  0  0  0
  8  5  2  0  0  0  0
  9  4  1  0  0  0  0
  9 14  1  0  0  0  0
 10  2  2  0  0  0  0
 10 13  1  0  0  0  0
 11  6  1  0  0  0  0
 12 11  2  0  0  0  0
 12  8  1  0  0  0  0
 13  9  2  0  0  0  0
 14 16  2  0  0  0  0
 14 15  1  0  0  0  0
 17 18  1  0  0  0  0
 18 13  1  0  0  0  0
 19 21  1  0  0  0  0
 21 22  1  0  0  0  0
 21 20  1  1  0  0  0
 22 23  1  0  0  0  0
 25 32  1  0  0  0  0
 26 24  1  6  0  0  0
 26 28  1  0  0  0  0
 26 30  1  0  0  0  0
 27 29  1  0  0  0  0
 29 30  1  6  0  0  0
 29 32  1  0  0  0  0
 31 28  1  6  0  0  0
 31 27  1  0  0  0  0
 31 25  1  0  0  0  0
M  END
>  <MODEL>
5

>  <REMARK>
 VINA RESULT:      -6.4      2.313      6.693
  Name = 
  7 active torsions:
  status: ('A' for Active; 'I' for Inactive)
    1  A    between atoms: C_1  and  CA_25
    2  A    between atoms: C_3  and  N_29
    3  A    between atoms: C_7  and  N_22
    4  A    between atoms: C_9  and  N_29
    5  A    between atoms: O_15  and  C_30
    6  A    between atoms: C_18  and  C_19
    7  A    between atoms: N_22  and  CA_25
                            x       y       z     vdW  Elec       q    Type
                         _______ _______ _______ _____ _____    ______ ____

>  <TORSDO>
F 7

$$$$
=
 OpenBabel11062420343D

 32 36  0  0  1  0  0  0  0  0999 V2000
  189.8220  174.3140  142.9470 C   0  0  0  0  0  0  0  0  0  0  0  0
  187.9970  175.4710  142.5790 C   0  0  0  0  0  0  0  0  0  0  0  0
  188.3830  175.5400  143.8970 C   0  0  0  0  0  0  0  0  0  0  0  0
  187.6460  176.2520  144.8390 C   0  0  0  0  0  0  0  0  0  0  0  0
  190.8960  173.4850  142.6220 C   0  0  0  0  0  0  0  0  0  0  0  0
  188.9350  174.6800  141.9730 C   0  0  0  0  0  0  0  0  0  0  0  0
  189.4840  174.8380  144.1080 O   0  0  0  0  0  0  0  0  0  0  0  0
  191.0120  173.0870  141.3200 N   0  0  0  0  0  0  0  0  0  0  0  0
  186.4830  176.9470  144.3870 C   0  0  0  0  0  0  0  0  0  0  0  0
  186.8590  176.1000  142.1020 C   0  0  0  0  0  3  0  0  0  0  0  0
  189.0500  174.2750  140.6860 N   0  0  0  0  0  0  0  0  0  0  0  0
  190.1060  173.4700  140.3640 C   0  0  0  0  0  3  0  0  0  0  0  0
  186.0890  176.8540  143.0150 C   0  0  0  0  0  0  0  0  0  0  0  0
  185.7280  177.8410  145.2920 C   0  0  0  0  0  0  0  0  0  0  0  0
  184.7210  177.3300  146.1010 O   0  0  0  0  0  1  0  0  0  0  0  0
  186.0140  179.0660  145.3640 O   0  0  0  0  0  0  0  0  0  0  0  0
  184.9090  178.2730  141.3590 C   0  0  0  0  0  1  0  0  0  0  0  0
  184.9490  177.5380  142.5760 O   0  0  0  0  0  0  0  0  0  0  0  0
  188.0640  176.1990  146.2110 N   0  0  0  0  0  2  0  0  0  0  0  0
  189.7760  177.8260  145.6840 C   0  0  0  0  0  1  0  0  0  0  0  0
  189.1590  176.9740  146.7760 C   0  0  2  0  0  3  0  0  0  0  0  0
  190.2060  176.0370  147.3560 C   0  0  0  0  0  2  0  0  0  0  0  0
  189.6900  174.7450  147.4570 O   0  0  0  0  0  1  0  0  0  0  0  0
  191.8620  173.0520  143.5880 N   0  0  0  0  0  2  0  0  0  0  0  0
  195.0470  175.1030  145.5420 C   0  0  0  0  0  2  0  0  0  0  0  0
  192.9790  173.8660  144.0430 C   0  0  2  0  0  3  0  0  0  0  0  0
  193.2850  176.4640  145.2190 C   0  0  0  0  0  2  0  0  0  0  0  0
  192.8310  174.1810  145.5520 C   0  0  0  0  0  2  0  0  0  0  0  0
  193.9560  176.1970  143.9070 C   0  0  2  0  0  3  0  0  0  0  0  0
  193.0930  175.1470  143.1940 C   0  0  0  0  0  2  0  0  0  0  0  0
  193.6730  175.3130  145.9960 N   0  0  1  0  0  0  0  0  0  0  0  0
  195.2010  175.6300  144.2350 O   0  0  0  0  0  0  0  0  0  0  0  0
  1  7  1  0  0  0  0
  2  3  1  0  0  0  0
  3  7  1  0  0  0  0
  3  4  2  0  0  0  0
  4 19  1  0  0  0  0
  5  1  1  0  0  0  0
  5 24  1  0  0  0  0
  6  2  1  0  0  0  0
  6  1  2  0  0  0  0
  8  5  2  0  0  0  0
  9  4  1  0  0  0  0
  9 14  1  0  0  0  0
 10  2  2  0  0  0  0
 10 13  1  0  0  0  0
 11  6  1  0  0  0  0
 12 11  2  0  0  0  0
 12  8  1  0  0  0  0
 13  9  2  0  0  0  0
 14 16  2  0  0  0  0
 14 15  1  0  0  0  0
 17 18  1  0  0  0  0
 18 13  1  0  0  0  0
 19 21  1  0  0  0  0
 21 20  1  6  0  0  0
 21 22  1  0  0  0  0
 22 23  1  0  0  0  0
 25 31  1  0  0  0  0
 26 24  1  6  0  0  0
 26 28  1  0  0  0  0
 28 31  1  0  0  0  0
 29 30  1  6  0  0  0
 29 32  1  0  0  0  0
 29 27  1  0  0  0  0
 30 26  1  0  0  0  0
 31 27  1  6  0  0  0
 32 25  1  0  0  0  0
M  END
>  <MODEL>
6

>  <REMARK>
 VINA RESULT:      -6.4      1.505      1.931
  Name = 
  7 active torsions:
  status: ('A' for Active; 'I' for Inactive)
    1  A    between atoms: C_1  and  CA_25
    2  A    between atoms: C_3  and  N_29
    3  A    between atoms: C_7  and  N_22
    4  A    between atoms: C_9  and  N_29
    5  A    between atoms: O_15  and  C_30
    6  A    between atoms: C_18  and  C_19
    7  A    between atoms: N_22  and  CA_25
                            x       y       z     vdW  Elec       q    Type
                         _______ _______ _______ _____ _____    ______ ____

>  <TORSDO>
F 7

$$$$
=
 OpenBabel11062420343D

 32 36  0  0  1  0  0  0  0  0999 V2000
  187.8810  176.4450  142.1130 C   0  0  0  0  0  0  0  0  0  0  0  0
  188.5630  174.7680  140.8780 C   0  0  0  0  0  0  0  0  0  0  0  0
  189.0680  174.6940  142.1560 C   0  0  0  0  0  0  0  0  0  0  0  0
  189.9250  173.6700  142.5450 C   0  0  0  0  0  0  0  0  0  0  0  0
  187.1980  177.6290  142.3960 C   0  0  0  0  0  0  0  0  0  0  0  0
  187.7950  175.9000  140.8620 C   0  0  0  0  0  0  0  0  0  0  0  0
  188.6510  175.7110  142.8910 O   0  0  0  0  0  0  0  0  0  0  0  0
  186.4580  178.1840  141.3900 N   0  0  0  0  0  0  0  0  0  0  0  0
  190.2420  172.6640  141.5820 C   0  0  0  0  0  0  0  0  0  0  0  0
  188.8700  173.8360  139.9010 C   0  0  0  0  0  3  0  0  0  0  0  0
  187.0670  176.4590  139.8670 N   0  0  0  0  0  0  0  0  0  0  0  0
  186.3910  177.6140  140.1440 C   0  0  0  0  0  3  0  0  0  0  0  0
  189.7190  172.7630  140.2550 C   0  0  0  0  0  0  0  0  0  0  0  0
  191.0270  171.4680  141.9560 C   0  0  0  0  0  0  0  0  0  0  0  0
  192.4140  171.4900  141.8860 O   0  0  0  0  0  0  0  0  0  0  0  0
  190.4480  170.4310  142.3770 O   0  0  0  0  0  1  0  0  0  0  0  0
  190.4020  172.0740  137.9730 C   0  0  0  0  0  1  0  0  0  0  0  0
  190.0310  171.7750  139.3130 O   0  0  0  0  0  0  0  0  0  0  0  0
  190.4820  173.7150  143.8680 N   0  0  0  0  0  2  0  0  0  0  0  0
  192.5970  173.4220  145.0070 C   0  0  0  0  0  1  0  0  0  0  0  0
  191.7260  174.3820  144.2210 C   0  0  2  0  0  3  0  0  0  0  0  0
  191.4290  175.6160  145.0580 C   0  0  0  0  0  2  0  0  0  0  0  0
  190.3710  175.3580  145.9300 O   0  0  0  0  0  1  0  0  0  0  0  0
  187.2460  178.2650  143.6790 N   0  0  0  0  0  2  0  0  0  0  0  0
  184.2740  178.0440  146.7270 C   0  0  0  0  0  2  0  0  0  0  0  0
  186.3250  177.9710  144.7670 C   0  0  2  0  0  3  0  0  0  0  0  0
  186.3220  178.3300  147.6120 C   0  0  0  0  0  2  0  0  0  0  0  0
  185.9260  179.2780  145.4970 C   0  0  0  0  0  2  0  0  0  0  0  0
  186.2010  176.9380  147.0730 C   0  0  2  0  0  3  0  0  0  0  0  0
  186.9400  176.9370  145.7290 C   0  0  0  0  0  2  0  0  0  0  0  0
  185.3390  179.0410  146.8340 N   0  0  1  0  0  0  0  0  0  0  0  0
  184.8260  176.7450  146.8490 O   0  0  0  0  0  0  0  0  0  0  0  0
  1  5  1  0  0  0  0
  1  7  1  0  0  0  0
  2  3  1  0  0  0  0
  3  4  2  0  0  0  0
  3  7  1  0  0  0  0
  4 19  1  0  0  0  0
  5 24  1  0  0  0  0
  6  2  1  0  0  0  0
  6  1  2  0  0  0  0
  8  5  2  0  0  0  0
  9 14  1  0  0  0  0
  9  4  1  0  0  0  0
 10 13  1  0  0  0  0
 10  2  2  0  0  0  0
 11 12  2  0  0  0  0
 11  6  1  0  0  0  0
 12  8  1  0  0  0  0
 13  9  2  0  0  0  0
 14 16  1  0  0  0  0
 15 14  2  0  0  0  0
 17 18  1  0  0  0  0
 18 13  1  0  0  0  0
 19 21  1  0  0  0  0
 21 20  1  1  0  0  0
 21 22  1  0  0  0  0
 22 23  1  0  0  0  0
 25 31  1  0  0  0  0
 25 32  1  0  0  0  0
 26 24  1  6  0  0  0
 26 28  1  0  0  0  0
 26 30  1  0  0  0  0
 29 30  1  6  0  0  0
 29 27  1  0  0  0  0
 31 28  1  6  0  0  0
 31 27  1  0  0  0  0
 32 29  1  0  0  0  0
M  END
>  <MODEL>
7

>  <REMARK>
 VINA RESULT:      -6.4      2.465      6.796
  Name = 
  7 active torsions:
  status: ('A' for Active; 'I' for Inactive)
    1  A    between atoms: C_1  and  CA_25
    2  A    between atoms: C_3  and  N_29
    3  A    between atoms: C_7  and  N_22
    4  A    between atoms: C_9  and  N_29
    5  A    between atoms: O_15  and  C_30
    6  A    between atoms: C_18  and  C_19
    7  A    between atoms: N_22  and  CA_25
                            x       y       z     vdW  Elec       q    Type
                         _______ _______ _______ _____ _____    ______ ____

>  <TORSDO>
F 7

$$$$
=
 OpenBabel11062420343D

 32 36  0  0  1  0  0  0  0  0999 V2000
  190.0130  175.0670  142.4410 C   0  0  0  0  0  0  0  0  0  0  0  0
  192.0370  174.6790  141.6960 C   0  0  0  0  0  0  0  0  0  0  0  0
  192.0570  175.4200  142.8550 C   0  0  0  0  0  0  0  0  0  0  0  0
  193.2490  175.8620  143.4190 C   0  0  0  0  0  0  0  0  0  0  0  0
  188.6180  175.0140  142.4380 C   0  0  0  0  0  0  0  0  0  0  0  0
  190.7120  174.4530  141.4390 C   0  0  0  0  0  0  0  0  0  0  0  0
  190.8310  175.6490  143.2950 O   0  0  0  0  0  0  0  0  0  0  0  0
  188.0170  174.3280  141.4200 N   0  0  0  0  0  0  0  0  0  0  0  0
  194.4690  175.4920  142.7750 C   0  0  0  0  0  0  0  0  0  0  0  0
  193.1910  174.3250  141.0180 C   0  0  0  0  0  3  0  0  0  0  0  0
  190.1110  173.7830  140.4290 N   0  0  0  0  0  0  0  0  0  0  0  0
  188.7460  173.7220  140.4280 C   0  0  0  0  0  3  0  0  0  0  0  0
  194.4300  174.7320  141.5640 C   0  0  0  0  0  0  0  0  0  0  0  0
  195.7800  175.7990  143.3870 C   0  0  0  0  0  0  0  0  0  0  0  0
  196.3180  174.9550  144.3510 O   0  0  0  0  0  1  0  0  0  0  0  0
  196.4380  176.8070  143.0150 O   0  0  0  0  0  0  0  0  0  0  0  0
  196.0930  174.9900  139.7430 C   0  0  0  0  0  1  0  0  0  0  0  0
  195.6270  174.3700  140.9350 O   0  0  0  0  0  0  0  0  0  0  0  0
  193.1810  176.7090  144.5770 N   0  0  0  0  0  2  0  0  0  0  0  0
  191.9130  176.3990  146.6150 C   0  0  0  0  0  1  0  0  0  0  0  0
  193.2670  176.2400  145.9530 C   0  0  2  0  0  3  0  0  0  0  0  0
  194.3100  177.0480  146.7080 C   0  0  0  0  0  2  0  0  0  0  0  0
  194.8650  178.0160  145.8690 O   0  0  0  0  0  1  0  0  0  0  0  0
  187.8150  175.6390  143.4470 N   0  0  0  0  0  2  0  0  0  0  0  0
  184.9080  178.4270  142.0510 C   0  0  0  0  0  2  0  0  0  0  0  0
  186.6930  176.5210  143.1630 C   0  0  2  0  0  3  0  0  0  0  0  0
  185.9290  179.1820  143.9080 C   0  0  0  0  0  2  0  0  0  0  0  0
  187.1910  177.8140  142.4720 C   0  0  0  0  0  2  0  0  0  0  0  0
  185.0100  178.0540  144.2680 C   0  0  2  0  0  3  0  0  0  0  0  0
  185.9040  176.8210  144.4520 C   0  0  0  0  0  2  0  0  0  0  0  0
  186.2050  178.9160  142.5190 N   0  0  1  0  0  0  0  0  0  0  0  0
  184.1900  177.8700  143.1400 O   0  0  0  0  0  0  0  0  0  0  0  0
  1  7  1  0  0  0  0
  2  3  1  0  0  0  0
  3  7  1  0  0  0  0
  3  4  2  0  0  0  0
  4 19  1  0  0  0  0
  5  1  1  0  0  0  0
  5 24  1  0  0  0  0
  6  2  1  0  0  0  0
  6  1  2  0  0  0  0
  8  5  2  0  0  0  0
  9 14  1  0  0  0  0
  9  4  1  0  0  0  0
 10 13  1  0  0  0  0
 10  2  2  0  0  0  0
 11  6  1  0  0  0  0
 12 11  2  0  0  0  0
 12  8  1  0  0  0  0
 13  9  2  0  0  0  0
 14 15  1  0  0  0  0
 16 14  2  0  0  0  0
 17 18  1  0  0  0  0
 18 13  1  0  0  0  0
 19 21  1  0  0  0  0
 21 20  1  1  0  0  0
 21 22  1  0  0  0  0
 23 22  1  0  0  0  0
 25 32  1  0  0  0  0
 26 24  1  1  0  0  0
 26 30  1  0  0  0  0
 28 31  1  0  0  0  0
 28 26  1  0  0  0  0
 29 27  1  6  0  0  0
 29 30  1  0  0  0  0
 31 25  1  6  0  0  0
 31 27  1  0  0  0  0
 32 29  1  0  0  0  0
M  END
>  <MODEL>
8

>  <REMARK>
 VINA RESULT:      -6.4      2.434      7.521
  Name = 
  7 active torsions:
  status: ('A' for Active; 'I' for Inactive)
    1  A    between atoms: C_1  and  CA_25
    2  A    between atoms: C_3  and  N_29
    3  A    between atoms: C_7  and  N_22
    4  A    between atoms: C_9  and  N_29
    5  A    between atoms: O_15  and  C_30
    6  A    between atoms: C_18  and  C_19
    7  A    between atoms: N_22  and  CA_25
                            x       y       z     vdW  Elec       q    Type
                         _______ _______ _______ _____ _____    ______ ____

>  <TORSDO>
F 7

$$$$
=
 OpenBabel11062420343D

 32 36  0  0  1  0  0  0  0  0999 V2000
  187.4790  176.9450  142.3120 C   0  0  0  0  0  0  0  0  0  0  0  0
  188.6990  175.2690  141.6010 C   0  0  0  0  0  0  0  0  0  0  0  0
  188.9050  175.5130  142.9390 C   0  0  0  0  0  0  0  0  0  0  0  0
  189.8110  174.7690  143.6870 C   0  0  0  0  0  0  0  0  0  0  0  0
  186.5600  177.9900  142.2100 C   0  0  0  0  0  0  0  0  0  0  0  0
  187.7740  176.1970  141.2070 C   0  0  0  0  0  0  0  0  0  0  0  0
  188.1650  176.5260  143.3570 O   0  0  0  0  0  0  0  0  0  0  0  0
  185.9850  178.2050  140.9890 N   0  0  0  0  0  0  0  0  0  0  0  0
  190.5060  173.7080  143.0290 C   0  0  0  0  0  0  0  0  0  0  0  0
  189.3740  174.2750  140.9130 C   0  0  0  0  0  3  0  0  0  0  0  0
  187.2080  176.4200  139.9980 N   0  0  0  0  0  0  0  0  0  0  0  0
  186.3010  177.4370  139.8970 C   0  0  0  0  0  3  0  0  0  0  0  0
  190.2890  173.4760  141.6350 C   0  0  0  0  0  0  0  0  0  0  0  0
  191.3760  172.7810  143.7840 C   0  0  0  0  0  0  0  0  0  0  0  0
  192.7450  173.0030  143.8500 O   0  0  0  0  0  0  0  0  0  0  0  0
  190.8800  171.8020  144.4040 O   0  0  0  0  0  1  0  0  0  0  0  0
  192.0090  172.6580  140.0470 C   0  0  0  0  0  1  0  0  0  0  0  0
  190.9710  172.4350  140.9930 O   0  0  0  0  0  0  0  0  0  0  0  0
  190.0370  175.1460  145.0540 N   0  0  0  0  0  2  0  0  0  0  0  0
  192.1650  176.2960  145.1470 C   0  0  0  0  0  1  0  0  0  0  0  0
  190.6880  176.3770  145.4780 C   0  0  2  0  0  3  0  0  0  0  0  0
  190.5020  176.5690  146.9750 C   0  0  0  0  0  2  0  0  0  0  0  0
  190.0390  175.3870  147.5540 O   0  0  0  0  0  1  0  0  0  0  0  0
  186.2050  178.8240  143.3200 N   0  0  0  0  0  2  0  0  0  0  0  0
  186.1930  176.9060  147.1270 C   0  0  0  0  0  2  0  0  0  0  0  0
  186.2470  178.3900  144.7090 C   0  0  2  0  0  3  0  0  0  0  0  0
  184.3560  178.1740  146.8530 C   0  0  0  0  0  2  0  0  0  0  0  0
  185.2820  177.1980  144.9260 C   0  0  0  0  0  2  0  0  0  0  0  0
  185.5480  179.0600  147.0470 C   0  0  2  0  0  3  0  0  0  0  0  0
  185.9310  179.5670  145.6510 C   0  0  0  0  0  2  0  0  0  0  0  0
  184.9560  176.9650  146.3500 N   0  0  1  0  0  0  0  0  0  0  0  0
  186.5640  178.2140  147.5290 O   0  0  0  0  0  0  0  0  0  0  0  0
  1  7  1  0  0  0  0
  2  3  1  0  0  0  0
  3  7  1  0  0  0  0
  3  4  2  0  0  0  0
  4 19  1  0  0  0  0
  5  1  1  0  0  0  0
  5 24  1  0  0  0  0
  6  2  1  0  0  0  0
  6  1  2  0  0  0  0
  8  5  2  0  0  0  0
  9  4  1  0  0  0  0
  9 14  1  0  0  0  0
 10  2  2  0  0  0  0
 10 13  1  0  0  0  0
 11  6  1  0  0  0  0
 12 11  2  0  0  0  0
 12  8  1  0  0  0  0
 13  9  2  0  0  0  0
 14 15  2  0  0  0  0
 14 16  1  0  0  0  0
 17 18  1  0  0  0  0
 18 13  1  0  0  0  0
 19 21  1  0  0  0  0
 21 20  1  1  0  0  0
 21 22  1  0  0  0  0
 22 23  1  0  0  0  0
 25 32  1  0  0  0  0
 26 24  1  6  0  0  0
 26 28  1  0  0  0  0
 26 30  1  0  0  0  0
 27 29  1  0  0  0  0
 29 30  1  6  0  0  0
 29 32  1  0  0  0  0
 31 28  1  6  0  0  0
 31 27  1  0  0  0  0
 31 25  1  0  0  0  0
M  END
>  <MODEL>
9

>  <REMARK>
 VINA RESULT:      -6.4      2.306      6.547
  Name = 
  7 active torsions:
  status: ('A' for Active; 'I' for Inactive)
    1  A    between atoms: C_1  and  CA_25
    2  A    between atoms: C_3  and  N_29
    3  A    between atoms: C_7  and  N_22
    4  A    between atoms: C_9  and  N_29
    5  A    between atoms: O_15  and  C_30
    6  A    between atoms: C_18  and  C_19
    7  A    between atoms: N_22  and  CA_25
                            x       y       z     vdW  Elec       q    Type
                         _______ _______ _______ _____ _____    ______ ____

>  <TORSDO>
F 7

$$$$
