=
 OpenBabel11062420583D

 31 33  0  0  1  0  0  0  0  0999 V2000
  190.4970  175.0770  143.7350 C   0  0  1  0  0  3  0  0  0  0  0  0
  188.4380  177.5040  147.0570 N   0  0  0  0  0  2  0  0  0  0  0  0
  189.4160  176.9050  144.9580 N   0  0  0  0  0  0  0  0  0  0  0  0
  190.8790  176.7930  146.7650 C   0  0  1  0  0  3  0  0  0  0  0  0
  191.6710  176.4150  145.5180 C   0  0  0  0  0  2  0  0  0  0  0  0
  190.6660  176.4660  144.3620 C   0  0  1  0  0  3  0  0  0  0  0  0
  189.5250  177.0660  146.2290 C   0  0  0  0  0  0  0  0  0  0  0  0
  185.4770  179.0610  145.4140 C   0  0  0  0  0  0  0  0  0  0  0  0
  186.0360  176.8730  147.0560 C   0  0  0  0  0  3  0  0  0  0  0  0
  187.0800  177.7190  146.6470 C   0  0  0  0  0  0  0  0  0  0  0  0
  185.2060  180.1240  144.6190 F   0  0  0  0  0  0  0  0  0  0  0  0
  184.7240  177.1190  146.6440 C   0  0  0  0  0  3  0  0  0  0  0  0
  184.4440  178.2150  145.8230 C   0  0  0  0  0  3  0  0  0  0  0  0
  186.7900  178.8150  145.8270 C   0  0  0  0  0  3  0  0  0  0  0  0
  189.8350  174.7420  147.5060 O   0  0  0  0  0  1  0  0  0  0  0  0
  190.8660  175.6480  147.7750 C   0  0  0  0  0  2  0  0  0  0  0  0
  188.1450  175.8220  141.1680 C   0  0  0  0  0  0  0  0  0  0  0  0
  188.2270  174.4630  140.9380 C   0  0  0  0  0  3  0  0  0  0  0  0
  189.5250  175.0990  142.5960 C   0  0  0  0  0  0  0  0  0  0  0  0
  189.1300  173.9880  141.8770 C   0  0  0  0  0  3  0  0  0  0  0  0
  188.9270  176.1780  142.1540 O   0  0  0  0  0  0  0  0  0  0  0  0
  187.3080  176.7720  140.3880 C   0  0  0  0  0  2  0  0  0  0  0  0
  187.0620  177.9140  141.1520 O   0  0  0  0  0  0  0  0  0  0  0  0
  185.7090  178.1950  140.9510 C   0  0  1  0  0  3  0  0  0  0  0  0
  185.2710  177.5720  139.7820 O   0  0  0  0  0  1  0  0  0  0  0  0
  183.7480  178.1390  142.3000 O   0  0  0  0  0  0  0  0  0  0  0  0
  185.4550  176.7740  142.9900 O   0  0  0  0  0  1  0  0  0  0  0  0
  184.9140  177.7040  142.1110 C   0  0  0  0  0  0  0  0  0  0  0  0
  192.2570  173.4480  143.8010 O   0  0  0  0  0  0  0  0  0  0  0  0
  192.5570  175.1740  142.2780 N   0  0  0  0  0  1  0  0  0  0  0  0
  191.8080  174.5060  143.2860 C   0  0  0  0  0  0  0  0  0  0  0  0
  1 31  1  6  0  0  0
  3  7  2  0  0  0  0
  4 16  1  1  0  0  0
  5  4  1  0  0  0  0
  6  1  1  1  0  0  0
  6  3  1  0  0  0  0
  6  5  1  0  0  0  0
  7  4  1  0  0  0  0
  7  2  1  0  0  0  0
  8 13  2  0  0  0  0
  8 14  1  0  0  0  0
 10  9  1  0  0  0  0
 10  2  1  0  0  0  0
 11  8  1  0  0  0  0
 12  9  2  0  0  0  0
 13 12  1  0  0  0  0
 14 10  2  0  0  0  0
 15 16  1  0  0  0  0
 17 21  1  0  0  0  0
 18 17  2  0  0  0  0
 18 20  1  0  0  0  0
 19  1  1  0  0  0  0
 20 19  2  0  0  0  0
 21 19  1  0  0  0  0
 22 23  1  0  0  0  0
 22 17  1  0  0  0  0
 24 25  1  6  0  0  0
 24 23  1  0  0  0  0
 24 28  1  0  0  0  0
 28 26  2  0  0  0  0
 28 27  1  0  0  0  0
 30 31  1  0  0  0  0
 31 29  2  0  0  0  0
M  END
>  <MODEL>
1

>  <REMARK>
 VINA RESULT:      -6.8      0.000      0.000
  Name = 
  9 active torsions:
  status: ('A' for Active; 'I' for Inactive)
    1  A    between atoms: C_4  and  N_5
    2  A    between atoms: C_6  and  C_16
    3  A    between atoms: C_9  and  C_24
    4  A    between atoms: C_11  and  O_15
    5  A    between atoms: C_11  and  C_21
    6  A    between atoms: C_14  and  C_18
    7  A    between atoms: C_14  and  C_23
    8  A    between atoms: C_14  and  C_30
    9  A    between atoms: O_15  and  C_16
                            x       y       z     vdW  Elec       q    Type
                         _______ _______ _______ _____ _____    ______ ____

>  <TORSDO>
F 9

$$$$
=
 OpenBabel11062420583D

 31 33  0  0  1  0  0  0  0  0999 V2000
  188.9470  177.0510  146.4800 C   0  0  1  0  0  3  0  0  0  0  0  0
  191.8140  173.9750  144.6100 N   0  0  0  0  0  2  0  0  0  0  0  0
  189.9320  174.9350  145.7350 N   0  0  0  0  0  0  0  0  0  0  0  0
  191.9750  175.3140  146.7850 C   0  0  1  0  0  3  0  0  0  0  0  0
  190.8960  175.9610  147.6480 C   0  0  0  0  0  2  0  0  0  0  0  0
  189.5770  175.7190  146.9050 C   0  0  1  0  0  3  0  0  0  0  0  0
  191.2000  174.7310  145.6650 C   0  0  0  0  0  0  0  0  0  0  0  0
  190.3600  171.4940  142.2390 C   0  0  0  0  0  0  0  0  0  0  0  0
  190.7180  174.2590  142.4000 C   0  0  0  0  0  3  0  0  0  0  0  0
  191.1630  173.4390  143.4490 C   0  0  0  0  0  0  0  0  0  0  0  0
  190.1880  170.1530  142.1600 F   0  0  0  0  0  0  0  0  0  0  0  0
  190.0960  173.6990  141.2810 C   0  0  0  0  0  3  0  0  0  0  0  0
  189.9180  172.3160  141.1990 C   0  0  0  0  0  3  0  0  0  0  0  0
  190.9820  172.0540  143.3590 C   0  0  0  0  0  3  0  0  0  0  0  0
  194.2800  176.0380  146.7040 O   0  0  0  0  0  1  0  0  0  0  0  0
  192.9810  176.3540  146.2940 C   0  0  0  0  0  2  0  0  0  0  0  0
  188.7210  177.2790  142.9350 C   0  0  0  0  0  0  0  0  0  0  0  0
  189.9260  177.9390  143.0730 C   0  0  0  0  0  3  0  0  0  0  0  0
  189.1090  177.2960  145.0110 C   0  0  0  0  0  0  0  0  0  0  0  0
  190.1820  177.9470  144.4350 C   0  0  0  0  0  3  0  0  0  0  0  0
  188.2530  176.9090  144.0980 O   0  0  0  0  0  0  0  0  0  0  0  0
  188.0210  177.0400  141.6440 C   0  0  0  0  0  2  0  0  0  0  0  0
  186.6450  176.9560  141.8680 O   0  0  0  0  0  0  0  0  0  0  0  0
  186.1740  178.2580  141.6920 C   0  0  1  0  0  3  0  0  0  0  0  0
  185.4520  178.3370  140.5010 O   0  0  0  0  0  1  0  0  0  0  0  0
  184.2090  178.0330  143.0190 O   0  0  0  0  0  0  0  0  0  0  0  0
  185.6750  179.6590  143.6990 O   0  0  0  0  0  1  0  0  0  0  0  0
  185.2990  178.6370  142.8370 C   0  0  0  0  0  0  0  0  0  0  0  0
  186.8910  176.1120  147.2840 O   0  0  0  0  0  0  0  0  0  0  0  0
  186.8060  178.3650  146.7310 N   0  0  0  0  0  1  0  0  0  0  0  0
  187.5000  177.1300  146.8620 C   0  0  0  0  0  0  0  0  0  0  0  0
  1 31  1  6  0  0  0
  2  7  1  0  0  0  0
  3  6  1  0  0  0  0
  4 16  1  6  0  0  0
  4  5  1  0  0  0  0
  6  1  1  6  0  0  0
  6  5  1  0  0  0  0
  7  3  2  0  0  0  0
  7  4  1  0  0  0  0
  8 14  1  0  0  0  0
  9 10  1  0  0  0  0
 10  2  1  0  0  0  0
 11  8  1  0  0  0  0
 12  9  2  0  0  0  0
 13 12  1  0  0  0  0
 13  8  2  0  0  0  0
 14 10  2  0  0  0  0
 16 15  1  0  0  0  0
 17 18  2  0  0  0  0
 17 21  1  0  0  0  0
 18 20  1  0  0  0  0
 19  1  1  0  0  0  0
 20 19  2  0  0  0  0
 21 19  1  0  0  0  0
 22 23  1  0  0  0  0
 22 17  1  0  0  0  0
 24 25  1  6  0  0  0
 24 23  1  0  0  0  0
 24 28  1  0  0  0  0
 28 26  2  0  0  0  0
 28 27  1  0  0  0  0
 30 31  1  0  0  0  0
 31 29  2  0  0  0  0
M  END
>  <MODEL>
2

>  <REMARK>
 VINA RESULT:      -6.8      2.809      5.314
  Name = 
  9 active torsions:
  status: ('A' for Active; 'I' for Inactive)
    1  A    between atoms: C_4  and  N_5
    2  A    between atoms: C_6  and  C_16
    3  A    between atoms: C_9  and  C_24
    4  A    between atoms: C_11  and  O_15
    5  A    between atoms: C_11  and  C_21
    6  A    between atoms: C_14  and  C_18
    7  A    between atoms: C_14  and  C_23
    8  A    between atoms: C_14  and  C_30
    9  A    between atoms: O_15  and  C_16
                            x       y       z     vdW  Elec       q    Type
                         _______ _______ _______ _____ _____    ______ ____

>  <TORSDO>
F 9

$$$$
=
 OpenBabel11062420583D

 31 33  0  0  1  0  0  0  0  0999 V2000
  190.7160  173.6290  144.3620 C   0  0  1  0  0  3  0  0  0  0  0  0
  189.3770  177.6420  142.5510 N   0  0  0  0  0  2  0  0  0  0  0  0
  189.8430  175.3090  142.8060 N   0  0  0  0  0  0  0  0  0  0  0  0
  191.7140  176.6840  142.9670 C   0  0  1  0  0  3  0  0  0  0  0  0
  192.1960  175.2450  143.1180 C   0  0  0  0  0  2  0  0  0  0  0  0
  190.9340  174.3790  143.0420 C   0  0  1  0  0  3  0  0  0  0  0  0
  190.2520  176.5280  142.7780 C   0  0  0  0  0  0  0  0  0  0  0  0
  185.9790  177.7920  141.0280 C   0  0  0  0  0  0  0  0  0  0  0  0
  187.1170  177.3610  143.5410 C   0  0  0  0  0  3  0  0  0  0  0  0
  187.9470  177.5990  142.4340 C   0  0  0  0  0  0  0  0  0  0  0  0
  185.4270  178.0030  139.8090 F   0  0  0  0  0  0  0  0  0  0  0  0
  185.7280  177.3360  143.3900 C   0  0  0  0  0  3  0  0  0  0  0  0
  185.1580  177.5530  142.1330 C   0  0  0  0  0  3  0  0  0  0  0  0
  187.3690  177.8170  141.1790 C   0  0  0  0  0  3  0  0  0  0  0  0
  193.2210  177.0720  144.8170 O   0  0  0  0  0  1  0  0  0  0  0  0
  192.0360  177.5050  144.2140 C   0  0  0  0  0  2  0  0  0  0  0  0
  188.7600  175.6980  146.4990 C   0  0  0  0  0  0  0  0  0  0  0  0
  189.9500  175.8120  147.1910 C   0  0  0  0  0  3  0  0  0  0  0  0
  190.1450  174.5240  145.4190 C   0  0  0  0  0  0  0  0  0  0  0  0
  190.8590  175.0430  146.4800 C   0  0  0  0  0  3  0  0  0  0  0  0
  188.8980  174.9260  145.4530 O   0  0  0  0  0  0  0  0  0  0  0  0
  187.4770  176.3380  146.8950 C   0  0  0  0  0  2  0  0  0  0  0  0
  187.6500  177.7210  146.9740 O   0  0  0  0  0  0  0  0  0  0  0  0
  186.5530  178.1780  147.7060 C   0  0  1  0  0  3  0  0  0  0  0  0
  186.9390  179.2550  148.5050 O   0  0  0  0  0  1  0  0  0  0  0  0
  185.6370  179.6060  146.0340 O   0  0  0  0  0  0  0  0  0  0  0  0
  184.2670  177.9070  146.7350 O   0  0  0  0  0  1  0  0  0  0  0  0
  185.4680  178.6040  146.7780 C   0  0  0  0  0  0  0  0  0  0  0  0
  189.3910  171.8020  145.1770 O   0  0  0  0  0  0  0  0  0  0  0  0
  189.5470  171.9650  142.8660 N   0  0  0  0  0  1  0  0  0  0  0  0
  189.8460  172.4220  144.1800 C   0  0  0  0  0  0  0  0  0  0  0  0
  1 31  1  6  0  0  0
  1 19  1  0  0  0  0
  2  7  1  0  0  0  0
  3  6  1  0  0  0  0
  4  5  1  0  0  0  0
  4 16  1  1  0  0  0
  6  5  1  0  0  0  0
  6  1  1  1  0  0  0
  7  3  2  0  0  0  0
  7  4  1  0  0  0  0
  8 14  2  0  0  0  0
  8 13  1  0  0  0  0
 10  2  1  0  0  0  0
 10  9  2  0  0  0  0
 11  8  1  0  0  0  0
 12  9  1  0  0  0  0
 13 12  2  0  0  0  0
 14 10  1  0  0  0  0
 16 15  1  0  0  0  0
 17 22  1  0  0  0  0
 17 18  2  0  0  0  0
 19 21  1  0  0  0  0
 19 20  2  0  0  0  0
 20 18  1  0  0  0  0
 21 17  1  0  0  0  0
 22 23  1  0  0  0  0
 23 24  1  0  0  0  0
 24 25  1  6  0  0  0
 26 28  2  0  0  0  0
 27 28  1  0  0  0  0
 28 24  1  0  0  0  0
 30 31  1  0  0  0  0
 31 29  2  0  0  0  0
M  END
>  <MODEL>
3

>  <REMARK>
 VINA RESULT:      -6.7      2.865      4.646
  Name = 
  9 active torsions:
  status: ('A' for Active; 'I' for Inactive)
    1  A    between atoms: C_4  and  N_5
    2  A    between atoms: C_6  and  C_16
    3  A    between atoms: C_9  and  C_24
    4  A    between atoms: C_11  and  O_15
    5  A    between atoms: C_11  and  C_21
    6  A    between atoms: C_14  and  C_18
    7  A    between atoms: C_14  and  C_23
    8  A    between atoms: C_14  and  C_30
    9  A    between atoms: O_15  and  C_16
                            x       y       z     vdW  Elec       q    Type
                         _______ _______ _______ _____ _____    ______ ____

>  <TORSDO>
F 9

$$$$
=
 OpenBabel11062420583D

 31 33  0  0  1  0  0  0  0  0999 V2000
  186.2880  177.9490  143.9080 C   0  0  1  0  0  3  0  0  0  0  0  0
  188.6450  176.1060  147.4030 N   0  0  0  0  0  2  0  0  0  0  0  0
  187.3930  176.3290  145.3760 N   0  0  0  0  0  0  0  0  0  0  0  0
  186.2590  177.0240  147.2870 C   0  0  1  0  0  3  0  0  0  0  0  0
  185.3090  177.2030  146.1070 C   0  0  0  0  0  2  0  0  0  0  0  0
  186.1050  176.7690  144.8700 C   0  0  1  0  0  3  0  0  0  0  0  0
  187.4800  176.4740  146.6510 C   0  0  0  0  0  0  0  0  0  0  0  0
  191.1020  173.9960  145.5590 C   0  0  0  0  0  0  0  0  0  0  0  0
  191.1060  176.3000  147.1360 C   0  0  0  0  0  3  0  0  0  0  0  0
  189.8950  175.6400  146.8730 C   0  0  0  0  0  0  0  0  0  0  0  0
  191.1000  172.8770  144.7940 F   0  0  0  0  0  0  0  0  0  0  0  0
  192.3060  175.8110  146.6100 C   0  0  0  0  0  3  0  0  0  0  0  0
  192.3040  174.6580  145.8220 C   0  0  0  0  0  3  0  0  0  0  0  0
  189.9020  174.4850  146.0840 C   0  0  0  0  0  3  0  0  0  0  0  0
  185.7390  179.3800  147.4490 O   0  0  0  0  0  1  0  0  0  0  0  0
  186.5350  178.3580  147.9770 C   0  0  0  0  0  2  0  0  0  0  0  0
  187.5070  176.2740  141.0140 C   0  0  0  0  0  0  0  0  0  0  0  0
  187.1300  177.4460  140.3880 C   0  0  0  0  0  3  0  0  0  0  0  0
  186.7160  177.4920  142.5480 C   0  0  0  0  0  0  0  0  0  0  0  0
  186.6140  178.2460  141.3960 C   0  0  0  0  0  3  0  0  0  0  0  0
  187.2480  176.3220  142.2940 O   0  0  0  0  0  0  0  0  0  0  0  0
  188.1000  175.0930  140.3300 C   0  0  0  0  0  2  0  0  0  0  0  0
  188.2360  174.0450  141.2420 O   0  0  0  0  0  0  0  0  0  0  0  0
  189.5870  173.6960  141.1860 C   0  0  1  0  0  3  0  0  0  0  0  0
  190.2990  174.4270  142.1370 O   0  0  0  0  0  1  0  0  0  0  0  0
  189.3060  171.7480  142.5260 O   0  0  0  0  0  1  0  0  0  0  0  0
  190.3760  171.4190  140.5260 O   0  0  0  0  0  0  0  0  0  0  0  0
  189.7430  172.2380  141.4530 C   0  0  0  0  0  0  0  0  0  0  0  0
  183.9720  178.2850  143.3790 O   0  0  0  0  0  0  0  0  0  0  0  0
  185.0890  180.1530  144.1850 N   0  0  0  0  0  1  0  0  0  0  0  0
  185.0460  178.7830  143.8070 C   0  0  0  0  0  0  0  0  0  0  0  0
  1 31  1  6  0  0  0
  3  7  2  0  0  0  0
  4 16  1  6  0  0  0
  5  4  1  0  0  0  0
  6  1  1  6  0  0  0
  6  3  1  0  0  0  0
  6  5  1  0  0  0  0
  7  4  1  0  0  0  0
  7  2  1  0  0  0  0
  8 13  2  0  0  0  0
  8 14  1  0  0  0  0
 10  9  1  0  0  0  0
 10  2  1  0  0  0  0
 11  8  1  0  0  0  0
 12  9  2  0  0  0  0
 13 12  1  0  0  0  0
 14 10  2  0  0  0  0
 15 16  1  0  0  0  0
 17 21  1  0  0  0  0
 18 17  2  0  0  0  0
 18 20  1  0  0  0  0
 19  1  1  0  0  0  0
 20 19  2  0  0  0  0
 21 19  1  0  0  0  0
 22 17  1  0  0  0  0
 22 23  1  0  0  0  0
 24 23  1  0  0  0  0
 24 28  1  0  0  0  0
 24 25  1  1  0  0  0
 27 28  2  0  0  0  0
 28 26  1  0  0  0  0
 29 31  2  0  0  0  0
 31 30  1  0  0  0  0
M  END
>  <MODEL>
4

>  <REMARK>
 VINA RESULT:      -6.7      2.777      5.969
  Name = 
  9 active torsions:
  status: ('A' for Active; 'I' for Inactive)
    1  A    between atoms: C_4  and  N_5
    2  A    between atoms: C_6  and  C_16
    3  A    between atoms: C_9  and  C_24
    4  A    between atoms: C_11  and  O_15
    5  A    between atoms: C_11  and  C_21
    6  A    between atoms: C_14  and  C_18
    7  A    between atoms: C_14  and  C_23
    8  A    between atoms: C_14  and  C_30
    9  A    between atoms: O_15  and  C_16
                            x       y       z     vdW  Elec       q    Type
                         _______ _______ _______ _____ _____    ______ ____

>  <TORSDO>
F 9

$$$$
=
 OpenBabel11062420583D

 31 33  0  0  1  0  0  0  0  0999 V2000
  190.7740  176.4420  143.9080 C   0  0  1  0  0  3  0  0  0  0  0  0
  187.6250  176.0130  147.2360 N   0  0  0  0  0  2  0  0  0  0  0  0
  189.4060  176.8800  145.8930 N   0  0  0  0  0  0  0  0  0  0  0  0
  189.8620  174.8210  146.8770 C   0  0  1  0  0  3  0  0  0  0  0  0
  191.1040  175.2330  146.0950 C   0  0  0  0  0  2  0  0  0  0  0  0
  190.7490  176.5710  145.4360 C   0  0  1  0  0  3  0  0  0  0  0  0
  188.9310  175.9510  146.6450 C   0  0  0  0  0  0  0  0  0  0  0  0
  185.8240  179.2700  147.4440 C   0  0  0  0  0  0  0  0  0  0  0  0
  185.5070  176.7900  146.2000 C   0  0  0  0  0  3  0  0  0  0  0  0
  186.6290  177.0210  147.0110 C   0  0  0  0  0  0  0  0  0  0  0  0
  185.9780  180.4720  148.0500 F   0  0  0  0  0  0  0  0  0  0  0  0
  184.5530  177.7940  146.0110 C   0  0  0  0  0  3  0  0  0  0  0  0
  184.7110  179.0340  146.6340 C   0  0  0  0  0  3  0  0  0  0  0  0
  186.7790  178.2660  147.6330 C   0  0  0  0  0  3  0  0  0  0  0  0
  189.9160  173.1200  145.1600 O   0  0  0  0  0  1  0  0  0  0  0  0
  189.2930  173.5050  146.3520 C   0  0  0  0  0  2  0  0  0  0  0  0
  187.5400  177.2610  142.6680 C   0  0  0  0  0  0  0  0  0  0  0  0
  187.4780  175.9020  142.4280 C   0  0  0  0  0  3  0  0  0  0  0  0
  189.3960  176.4950  143.3260 C   0  0  0  0  0  0  0  0  0  0  0  0
  188.6950  175.4000  142.8630 C   0  0  0  0  0  3  0  0  0  0  0  0
  188.6890  177.5910  143.1980 O   0  0  0  0  0  0  0  0  0  0  0  0
  186.4650  178.2360  142.3430 C   0  0  0  0  0  2  0  0  0  0  0  0
  185.2850  177.5490  142.0480 O   0  0  0  0  0  0  0  0  0  0  0  0
  184.6730  178.3030  141.0460 C   0  0  1  0  0  3  0  0  0  0  0  0
  185.1360  177.8850  139.7980 O   0  0  0  0  0  1  0  0  0  0  0  0
  182.5810  178.4210  142.1780 O   0  0  0  0  0  1  0  0  0  0  0  0
  182.4900  177.6490  140.0210 O   0  0  0  0  0  0  0  0  0  0  0  0
  183.1950  178.1320  141.1170 C   0  0  0  0  0  0  0  0  0  0  0  0
  191.4660  178.7060  143.5230 O   0  0  0  0  0  0  0  0  0  0  0  0
  192.6730  177.0890  142.3760 N   0  0  0  0  0  1  0  0  0  0  0  0
  191.6450  177.4850  143.2760 C   0  0  0  0  0  0  0  0  0  0  0  0
  1 31  1  6  0  0  0
  3  7  2  0  0  0  0
  4 16  1  6  0  0  0
  5  4  1  0  0  0  0
  6  1  1  6  0  0  0
  6  3  1  0  0  0  0
  6  5  1  0  0  0  0
  7  4  1  0  0  0  0
  7  2  1  0  0  0  0
  8 14  1  0  0  0  0
  8 11  1  0  0  0  0
  9 10  1  0  0  0  0
 10  2  1  0  0  0  0
 10 14  2  0  0  0  0
 12  9  2  0  0  0  0
 12 13  1  0  0  0  0
 13  8  2  0  0  0  0
 15 16  1  0  0  0  0
 17 21  1  0  0  0  0
 18 17  2  0  0  0  0
 18 20  1  0  0  0  0
 19  1  1  0  0  0  0
 20 19  2  0  0  0  0
 21 19  1  0  0  0  0
 22 17  1  0  0  0  0
 23 22  1  0  0  0  0
 24 25  1  6  0  0  0
 24 28  1  0  0  0  0
 24 23  1  0  0  0  0
 27 28  2  0  0  0  0
 28 26  1  0  0  0  0
 30 31  1  0  0  0  0
 31 29  2  0  0  0  0
M  END
>  <MODEL>
5

>  <REMARK>
 VINA RESULT:      -6.7      1.804      2.219
  Name = 
  9 active torsions:
  status: ('A' for Active; 'I' for Inactive)
    1  A    between atoms: C_4  and  N_5
    2  A    between atoms: C_6  and  C_16
    3  A    between atoms: C_9  and  C_24
    4  A    between atoms: C_11  and  O_15
    5  A    between atoms: C_11  and  C_21
    6  A    between atoms: C_14  and  C_18
    7  A    between atoms: C_14  and  C_23
    8  A    between atoms: C_14  and  C_30
    9  A    between atoms: O_15  and  C_16
                            x       y       z     vdW  Elec       q    Type
                         _______ _______ _______ _____ _____    ______ ____

>  <TORSDO>
F 9

$$$$
=
 OpenBabel11062420583D

 31 33  0  0  1  0  0  0  0  0999 V2000
  189.0120  175.5750  145.6030 C   0  0  1  0  0  3  0  0  0  0  0  0
  185.6210  178.5180  144.5970 N   0  0  0  0  0  2  0  0  0  0  0  0
  187.7710  177.4710  144.6710 N   0  0  0  0  0  0  0  0  0  0  0  0
  186.9860  178.1980  146.7380 C   0  0  1  0  0  3  0  0  0  0  0  0
  188.3680  177.5940  146.9660 C   0  0  0  0  0  2  0  0  0  0  0  0
  188.8310  177.0980  145.5910 C   0  0  1  0  0  3  0  0  0  0  0  0
  186.7910  178.0420  145.2770 C   0  0  0  0  0  0  0  0  0  0  0  0
  186.0930  178.0840  140.9250 C   0  0  0  0  0  0  0  0  0  0  0  0
  183.9840  178.2940  142.7430 C   0  0  0  0  0  3  0  0  0  0  0  0
  185.3080  178.3460  143.2070 C   0  0  0  0  0  0  0  0  0  0  0  0
  187.1170  177.9840  140.0440 F   0  0  0  0  0  0  0  0  0  0  0  0
  183.7180  178.1350  141.3800 C   0  0  0  0  0  3  0  0  0  0  0  0
  184.7740  178.0310  140.4700 C   0  0  0  0  0  3  0  0  0  0  0  0
  186.3590  178.2430  142.2890 C   0  0  0  0  0  3  0  0  0  0  0  0
  185.4610  176.3250  146.8350 O   0  0  0  0  0  1  0  0  0  0  0  0
  185.9200  177.4470  147.5330 C   0  0  0  0  0  2  0  0  0  0  0  0
  191.5670  175.1410  143.1630 C   0  0  0  0  0  0  0  0  0  0  0  0
  190.9560  173.9150  142.9910 C   0  0  0  0  0  3  0  0  0  0  0  0
  189.9640  175.1240  144.5380 C   0  0  0  0  0  0  0  0  0  0  0  0
  189.9020  173.9050  143.8920 C   0  0  0  0  0  3  0  0  0  0  0  0
  190.9650  175.8400  144.0880 O   0  0  0  0  0  0  0  0  0  0  0  0
  192.7710  175.6060  142.4230 C   0  0  0  0  0  2  0  0  0  0  0  0
  193.4600  176.5450  143.1940 O   0  0  0  0  0  0  0  0  0  0  0  0
  194.5840  175.8650  143.6660 C   0  0  1  0  0  3  0  0  0  0  0  0
  195.7060  176.2520  142.9340 O   0  0  0  0  0  1  0  0  0  0  0  0
  194.5790  177.3410  145.5350 O   0  0  0  0  0  0  0  0  0  0  0  0
  195.2300  175.1890  145.9830 O   0  0  0  0  0  1  0  0  0  0  0  0
  194.7930  176.1760  145.1090 C   0  0  0  0  0  0  0  0  0  0  0  0
  188.6540  174.4940  147.7150 O   0  0  0  0  0  0  0  0  0  0  0  0
  190.8080  175.2810  147.3530 N   0  0  0  0  0  1  0  0  0  0  0  0
  189.4610  175.0780  146.9430 C   0  0  0  0  0  0  0  0  0  0  0  0
  1 31  1  1  0  0  0
  2  7  1  0  0  0  0
  3  7  2  0  0  0  0
  3  6  1  0  0  0  0
  4  5  1  0  0  0  0
  4 16  1  1  0  0  0
  6  1  1  1  0  0  0
  6  5  1  0  0  0  0
  7  4  1  0  0  0  0
  8 14  1  0  0  0  0
  9 10  1  0  0  0  0
 10  2  1  0  0  0  0
 11  8  1  0  0  0  0
 12  9  2  0  0  0  0
 13  8  2  0  0  0  0
 13 12  1  0  0  0  0
 14 10  2  0  0  0  0
 15 16  1  0  0  0  0
 17 21  1  0  0  0  0
 18 17  2  0  0  0  0
 18 20  1  0  0  0  0
 19  1  1  0  0  0  0
 20 19  2  0  0  0  0
 21 19  1  0  0  0  0
 22 17  1  0  0  0  0
 22 23  1  0  0  0  0
 23 24  1  0  0  0  0
 24 25  1  6  0  0  0
 24 28  1  0  0  0  0
 28 26  2  0  0  0  0
 28 27  1  0  0  0  0
 31 30  1  0  0  0  0
 31 29  2  0  0  0  0
M  END
>  <MODEL>
6

>  <REMARK>
 VINA RESULT:      -6.3      2.954      5.802
  Name = 
  9 active torsions:
  status: ('A' for Active; 'I' for Inactive)
    1  A    between atoms: C_4  and  N_5
    2  A    between atoms: C_6  and  C_16
    3  A    between atoms: C_9  and  C_24
    4  A    between atoms: C_11  and  O_15
    5  A    between atoms: C_11  and  C_21
    6  A    between atoms: C_14  and  C_18
    7  A    between atoms: C_14  and  C_23
    8  A    between atoms: C_14  and  C_30
    9  A    between atoms: O_15  and  C_16
                            x       y       z     vdW  Elec       q    Type
                         _______ _______ _______ _____ _____    ______ ____

>  <TORSDO>
F 9

$$$$
=
 OpenBabel11062420583D

 31 33  0  0  1  0  0  0  0  0999 V2000
  188.9930  175.4790  145.7320 C   0  0  1  0  0  3  0  0  0  0  0  0
  185.8320  178.4020  144.1100 N   0  0  0  0  0  2  0  0  0  0  0  0
  187.9360  177.3600  144.5710 N   0  0  0  0  0  0  0  0  0  0  0  0
  186.8050  178.1160  146.4600 C   0  0  1  0  0  3  0  0  0  0  0  0
  188.1250  177.5160  146.9330 C   0  0  0  0  0  2  0  0  0  0  0  0
  188.8190  177.0010  145.6670 C   0  0  1  0  0  3  0  0  0  0  0  0
  186.8660  177.9380  144.9900 C   0  0  0  0  0  0  0  0  0  0  0  0
  184.4150  178.1200  140.6740 C   0  0  0  0  0  0  0  0  0  0  0  0
  186.9030  177.9100  141.9250 C   0  0  0  0  0  3  0  0  0  0  0  0
  185.7650  178.2100  142.6900 C   0  0  0  0  0  0  0  0  0  0  0  0
  183.2080  178.2200  140.0690 F   0  0  0  0  0  0  0  0  0  0  0  0
  186.7970  177.7200  140.5440 C   0  0  0  0  0  3  0  0  0  0  0  0
  185.5520  177.8240  139.9190 C   0  0  0  0  0  3  0  0  0  0  0  0
  184.5210  178.3100  142.0560 C   0  0  0  0  0  3  0  0  0  0  0  0
  184.5440  178.2400  147.3070 O   0  0  0  0  0  1  0  0  0  0  0  0
  185.6160  177.3750  147.0690 C   0  0  0  0  0  2  0  0  0  0  0  0
  190.8880  173.6740  143.3190 C   0  0  0  0  0  0  0  0  0  0  0  0
  191.4870  174.9020  143.1240 C   0  0  0  0  0  3  0  0  0  0  0  0
  189.9200  174.9820  144.6650 C   0  0  0  0  0  0  0  0  0  0  0  0
  190.8530  175.7600  144.0100 C   0  0  0  0  0  3  0  0  0  0  0  0
  189.9580  173.7450  144.2360 O   0  0  0  0  0  0  0  0  0  0  0  0
  191.2230  172.4320  142.5720 C   0  0  0  0  0  2  0  0  0  0  0  0
  190.0520  171.8540  142.0770 O   0  0  0  0  0  0  0  0  0  0  0  0
  189.9300  172.3500  140.7780 C   0  0  1  0  0  3  0  0  0  0  0  0
  190.0150  171.2990  139.8660 O   0  0  0  0  0  1  0  0  0  0  0  0
  187.7290  172.9020  141.5020 O   0  0  0  0  0  1  0  0  0  0  0  0
  188.3750  173.8420  139.5130 O   0  0  0  0  0  0  0  0  0  0  0  0
  188.6200  173.0450  140.6240 C   0  0  0  0  0  0  0  0  0  0  0  0
  188.7150  174.3630  147.8380 O   0  0  0  0  0  0  0  0  0  0  0  0
  190.7790  175.3740  147.5130 N   0  0  0  0  0  1  0  0  0  0  0  0
  189.4690  175.0300  147.0810 C   0  0  0  0  0  0  0  0  0  0  0  0
  1 31  1  1  0  0  0
  2  7  1  0  0  0  0
  3  7  2  0  0  0  0
  3  6  1  0  0  0  0
  4  5  1  0  0  0  0
  4 16  1  1  0  0  0
  6  1  1  1  0  0  0
  6  5  1  0  0  0  0
  7  4  1  0  0  0  0
  8 14  1  0  0  0  0
  9 10  1  0  0  0  0
 10  2  1  0  0  0  0
 11  8  1  0  0  0  0
 12  9  2  0  0  0  0
 13 12  1  0  0  0  0
 13  8  2  0  0  0  0
 14 10  2  0  0  0  0
 16 15  1  0  0  0  0
 17 21  1  0  0  0  0
 18 17  2  0  0  0  0
 18 20  1  0  0  0  0
 19  1  1  0  0  0  0
 20 19  2  0  0  0  0
 21 19  1  0  0  0  0
 22 17  1  0  0  0  0
 23 22  1  0  0  0  0
 24 25  1  6  0  0  0
 24 23  1  0  0  0  0
 27 28  2  0  0  0  0
 28 24  1  0  0  0  0
 28 26  1  0  0  0  0
 31 30  1  0  0  0  0
 31 29  2  0  0  0  0
M  END
>  <MODEL>
7

>  <REMARK>
 VINA RESULT:      -6.3      2.661      5.052
  Name = 
  9 active torsions:
  status: ('A' for Active; 'I' for Inactive)
    1  A    between atoms: C_4  and  N_5
    2  A    between atoms: C_6  and  C_16
    3  A    between atoms: C_9  and  C_24
    4  A    between atoms: C_11  and  O_15
    5  A    between atoms: C_11  and  C_21
    6  A    between atoms: C_14  and  C_18
    7  A    between atoms: C_14  and  C_23
    8  A    between atoms: C_14  and  C_30
    9  A    between atoms: O_15  and  C_16
                            x       y       z     vdW  Elec       q    Type
                         _______ _______ _______ _____ _____    ______ ____

>  <TORSDO>
F 9

$$$$
=
 OpenBabel11062420583D

 31 33  0  0  1  0  0  0  0  0999 V2000
  191.9560  176.4070  146.5830 C   0  0  1  0  0  3  0  0  0  0  0  0
  191.9010  174.0690  142.6200 N   0  0  0  0  0  2  0  0  0  0  0  0
  191.6940  174.6060  144.9420 N   0  0  0  0  0  0  0  0  0  0  0  0
  193.8510  174.8280  144.0940 C   0  0  1  0  0  3  0  0  0  0  0  0
  193.9110  175.1740  145.5790 C   0  0  0  0  0  2  0  0  0  0  0  0
  192.4700  175.0500  146.0870 C   0  0  1  0  0  3  0  0  0  0  0  0
  192.4210  174.5000  143.8860 C   0  0  0  0  0  0  0  0  0  0  0  0
  188.3480  174.6620  141.6650 C   0  0  0  0  0  0  0  0  0  0  0  0
  189.9940  172.5060  142.3280 C   0  0  0  0  0  3  0  0  0  0  0  0
  190.5270  173.8050  142.3020 C   0  0  0  0  0  0  0  0  0  0  0  0
  187.5490  175.7080  141.3450 F   0  0  0  0  0  0  0  0  0  0  0  0
  188.6480  172.2880  142.0220 C   0  0  0  0  0  3  0  0  0  0  0  0
  187.8240  173.3670  141.6910 C   0  0  0  0  0  3  0  0  0  0  0  0
  189.6950  174.8800  141.9710 C   0  0  0  0  0  3  0  0  0  0  0  0
  195.5930  176.4110  143.5430 O   0  0  0  0  0  1  0  0  0  0  0  0
  194.2880  176.0130  143.2360 C   0  0  0  0  0  2  0  0  0  0  0  0
  188.8530  177.2370  145.0500 C   0  0  0  0  0  0  0  0  0  0  0  0
  189.6700  177.9050  144.1580 C   0  0  0  0  0  3  0  0  0  0  0  0
  190.8200  176.9080  145.7450 C   0  0  0  0  0  0  0  0  0  0  0  0
  190.9610  177.6860  144.6130 C   0  0  0  0  0  3  0  0  0  0  0  0
  189.5570  176.6560  145.9850 O   0  0  0  0  0  0  0  0  0  0  0  0
  187.3670  177.2010  144.9850 C   0  0  0  0  0  2  0  0  0  0  0  0
  186.8570  178.4720  145.2560 O   0  0  0  0  0  0  0  0  0  0  0  0
  185.9840  178.7390  144.2000 C   0  0  1  0  0  3  0  0  0  0  0  0
  186.0000  177.6750  143.2980 O   0  0  0  0  0  1  0  0  0  0  0  0
  183.6360  179.0240  143.9230 O   0  0  0  0  0  0  0  0  0  0  0  0
  184.3770  179.0240  146.0920 O   0  0  0  0  0  1  0  0  0  0  0  0
  184.6020  178.9330  144.7240 C   0  0  0  0  0  0  0  0  0  0  0  0
  191.1920  175.2730  148.5540 O   0  0  0  0  0  0  0  0  0  0  0  0
  191.5660  177.5510  148.7990 N   0  0  0  0  0  1  0  0  0  0  0  0
  191.5540  176.3570  148.0250 C   0  0  0  0  0  0  0  0  0  0  0  0
  1 31  1  1  0  0  0
  2  7  1  0  0  0  0
  3  6  1  0  0  0  0
  4 16  1  6  0  0  0
  4  5  1  0  0  0  0
  5  6  1  0  0  0  0
  6  1  1  6  0  0  0
  7  4  1  0  0  0  0
  7  3  2  0  0  0  0
  8 13  2  0  0  0  0
  8 14  1  0  0  0  0
 10  9  1  0  0  0  0
 10  2  1  0  0  0  0
 11  8  1  0  0  0  0
 12  9  2  0  0  0  0
 13 12  1  0  0  0  0
 14 10  2  0  0  0  0
 16 15  1  0  0  0  0
 17 21  1  0  0  0  0
 18 20  1  0  0  0  0
 18 17  2  0  0  0  0
 19 21  1  0  0  0  0
 19  1  1  0  0  0  0
 20 19  2  0  0  0  0
 22 17  1  0  0  0  0
 22 23  1  0  0  0  0
 24 25  1  6  0  0  0
 24 28  1  0  0  0  0
 24 23  1  0  0  0  0
 26 28  2  0  0  0  0
 28 27  1  0  0  0  0
 31 29  2  0  0  0  0
 31 30  1  0  0  0  0
M  END
>  <MODEL>
8

>  <REMARK>
 VINA RESULT:      -6.2      2.420      5.160
  Name = 
  9 active torsions:
  status: ('A' for Active; 'I' for Inactive)
    1  A    between atoms: C_4  and  N_5
    2  A    between atoms: C_6  and  C_16
    3  A    between atoms: C_9  and  C_24
    4  A    between atoms: C_11  and  O_15
    5  A    between atoms: C_11  and  C_21
    6  A    between atoms: C_14  and  C_18
    7  A    between atoms: C_14  and  C_23
    8  A    between atoms: C_14  and  C_30
    9  A    between atoms: O_15  and  C_16
                            x       y       z     vdW  Elec       q    Type
                         _______ _______ _______ _____ _____    ______ ____

>  <TORSDO>
F 9

$$$$
=
 OpenBabel11062420583D

 31 33  0  0  1  0  0  0  0  0999 V2000
  189.4580  174.7750  142.0990 C   0  0  1  0  0  3  0  0  0  0  0  0
  186.1660  177.6640  143.5120 N   0  0  0  0  0  2  0  0  0  0  0  0
  187.3490  175.6510  142.9900 N   0  0  0  0  0  0  0  0  0  0  0  0
  186.9460  177.0290  141.1580 C   0  0  1  0  0  3  0  0  0  0  0  0
  187.6710  175.7900  140.6410 C   0  0  0  0  0  2  0  0  0  0  0  0
  187.9480  174.9310  141.8800 C   0  0  1  0  0  3  0  0  0  0  0  0
  186.8300  176.7650  142.6120 C   0  0  0  0  0  0  0  0  0  0  0  0
  186.9760  176.6280  146.9990 C   0  0  0  0  0  0  0  0  0  0  0  0
  185.0290  178.1250  145.6700 C   0  0  0  0  0  3  0  0  0  0  0  0
  186.0710  177.5350  144.9380 C   0  0  0  0  0  0  0  0  0  0  0  0
  187.9200  175.9010  147.6430 F   0  0  0  0  0  0  0  0  0  0  0  0
  184.9630  177.9690  147.0570 C   0  0  0  0  0  3  0  0  0  0  0  0
  185.9370  177.2190  147.7220 C   0  0  0  0  0  3  0  0  0  0  0  0
  187.0410  176.7840  145.6110 C   0  0  0  0  0  3  0  0  0  0  0  0
  188.8970  178.3590  141.6790 O   0  0  0  0  0  1  0  0  0  0  0  0
  187.7530  178.2950  140.8770 C   0  0  0  0  0  2  0  0  0  0  0  0
  190.5340  175.4100  145.4320 C   0  0  0  0  0  0  0  0  0  0  0  0
  190.0700  174.1270  145.6430 C   0  0  0  0  0  3  0  0  0  0  0  0
  189.8070  174.7690  143.5550 C   0  0  0  0  0  0  0  0  0  0  0  0
  189.5960  173.7050  144.4100 C   0  0  0  0  0  3  0  0  0  0  0  0
  190.3640  175.7720  144.1870 O   0  0  0  0  0  0  0  0  0  0  0  0
  191.1220  176.2880  146.4790 C   0  0  0  0  0  2  0  0  0  0  0  0
  192.3620  175.7790  146.8720 O   0  0  0  0  0  0  0  0  0  0  0  0
  193.2930  176.4520  146.0790 C   0  0  1  0  0  3  0  0  0  0  0  0
  194.2000  177.1290  146.8950 O   0  0  0  0  0  1  0  0  0  0  0  0
  193.8340  175.4790  143.9740 O   0  0  0  0  0  0  0  0  0  0  0  0
  194.8990  174.5600  145.7840 O   0  0  0  0  0  1  0  0  0  0  0  0
  194.0210  175.4770  145.2180 C   0  0  0  0  0  0  0  0  0  0  0  0
  191.2240  173.4290  141.1910 O   0  0  0  0  0  0  0  0  0  0  0  0
  189.0990  172.5050  141.0560 N   0  0  0  0  0  1  0  0  0  0  0  0
  189.9930  173.5440  141.4330 C   0  0  0  0  0  0  0  0  0  0  0  0
  1 31  1  1  0  0  0
  1 19  1  0  0  0  0
  2 10  1  0  0  0  0
  4 16  1  1  0  0  0
  4  7  1  0  0  0  0
  5  4  1  0  0  0  0
  5  6  1  0  0  0  0
  6  1  1  1  0  0  0
  6  3  1  0  0  0  0
  7  3  2  0  0  0  0
  7  2  1  0  0  0  0
  8 11  1  0  0  0  0
  8 13  1  0  0  0  0
  9 12  1  0  0  0  0
 10 14  1  0  0  0  0
 10  9  2  0  0  0  0
 12 13  2  0  0  0  0
 14  8  2  0  0  0  0
 16 15  1  0  0  0  0
 17 18  2  0  0  0  0
 17 22  1  0  0  0  0
 19 21  1  0  0  0  0
 19 20  2  0  0  0  0
 20 18  1  0  0  0  0
 21 17  1  0  0  0  0
 22 23  1  0  0  0  0
 24 23  1  0  0  0  0
 24 25  1  1  0  0  0
 26 28  2  0  0  0  0
 28 27  1  0  0  0  0
 28 24  1  0  0  0  0
 29 31  2  0  0  0  0
 30 31  1  0  0  0  0
M  END
>  <MODEL>
9

>  <REMARK>
 VINA RESULT:      -6.2      2.532      5.897
  Name = 
  9 active torsions:
  status: ('A' for Active; 'I' for Inactive)
    1  A    between atoms: C_4  and  N_5
    2  A    between atoms: C_6  and  C_16
    3  A    between atoms: C_9  and  C_24
    4  A    between atoms: C_11  and  O_15
    5  A    between atoms: C_11  and  C_21
    6  A    between atoms: C_14  and  C_18
    7  A    between atoms: C_14  and  C_23
    8  A    between atoms: C_14  and  C_30
    9  A    between atoms: O_15  and  C_16
                            x       y       z     vdW  Elec       q    Type
                         _______ _______ _______ _____ _____    ______ ____

>  <TORSDO>
F 9

$$$$
