=
 OpenBabel11072409193D

 64 71  0  0  1  0  0  0  0  0999 V2000
  188.1410  175.1490  141.2200 C   0  0  1  0  0  3  0  0  0  0  0  0
  187.7030  176.1490  143.6130 C   0  0  2  0  0  3  0  0  0  0  0  0
  191.4020  175.7460  146.7930 F   0  0  0  0  0  0  0  0  0  0  0  0
  191.6400  174.5810  144.7500 C   0  0  1  0  0  3  0  0  0  0  0  0
  192.4620  173.7030  143.7590 C   0  0  1  0  0  3  0  0  0  0  0  0
  195.5940  172.2010  141.6840 C   0  0  0  0  0  3  0  0  0  0  0  0
  189.7100  171.1620  139.9970 C   0  0  0  0  0  1  0  0  0  0  0  0
  189.2880  172.9370  141.7320 C   0  0  1  0  0  3  0  0  0  0  0  0
  189.0000  174.0080  140.6760 C   0  0  0  0  0  2  0  0  0  0  0  0
  194.4760  171.7420  142.2610 C   0  0  0  0  0  0  0  0  0  0  0  0
  192.5860  170.2020  142.4170 O   0  0  0  0  0  1  0  0  0  0  0  0
  188.5860  177.1720  142.9120 C   0  0  0  0  0  2  0  0  0  0  0  0
  188.7200  175.6970  142.5560 C   0  0  2  0  0  0  0  0  0  0  0  0
  192.3530  175.3780  145.8630 C   0  0  0  0  0  0  0  0  0  0  0  0
  189.7730  174.8650  143.2270 C   0  0  0  0  0  0  0  0  0  0  0  0
  190.2790  171.8980  141.2040 C   0  0  2  0  0  3  0  0  0  0  0  0
  193.5080  174.3890  142.8750 C   0  0  1  0  0  3  0  0  0  0  0  0
  190.6230  175.3830  144.0640 N   0  0  0  0  0  0  0  0  0  0  0  0
  193.7290  171.1660  144.5260 O   0  0  0  0  0  1  0  0  0  0  0  0
  193.0120  176.6530  145.3420 C   0  0  0  0  0  2  0  0  0  0  0  0
  192.6800  171.5460  140.4200 C   0  0  0  0  0  2  0  0  0  0  0  0
  194.1600  176.3840  144.3880 C   0  0  0  0  0  2  0  0  0  0  0  0
  189.8280  173.5020  142.9260 O   0  0  0  0  0  0  0  0  0  0  0  0
  193.2880  174.5920  146.5100 F   0  0  0  0  0  0  0  0  0  0  0  0
  191.6300  172.5460  140.8760 C   0  0  0  0  0  2  0  0  0  0  0  0
  193.6160  175.9140  143.0450 C   0  0  0  0  0  2  0  0  0  0  0  0
  193.4600  170.8610  141.5480 C   0  0  1  0  0  3  0  0  0  0  0  0
  193.9330  173.5460  144.0810 C   0  0  2  0  0  3  0  0  0  0  0  0
  194.3750  172.1130  143.7310 C   0  0  2  0  0  3  0  0  0  0  0  0
  196.5450  170.2850  138.8590 O   0  0  0  0  0  0  0  0  0  0  0  0
  197.9370  170.6290  142.0790 O   0  0  0  0  0  1  0  0  0  0  0  0
  196.6690  170.7610  140.0160 C   0  0  0  0  0  0  0  0  0  0  0  0
  197.4220  170.0240  140.9860 N   0  0  0  0  0  2  0  0  0  0  0  0
  196.0780  172.0330  140.3360 N   0  0  0  0  0  0  0  0  0  0  0  0
  194.9380  173.6000  137.1340 C   0  0  0  0  0  3  0  0  0  0  0  0
  196.4000  175.1410  138.2770 C   0  0  0  0  0  3  0  0  0  0  0  0
  195.5850  174.8450  137.1770 C   0  0  0  0  0  0  0  0  0  0  0  0
  195.8930  172.9920  139.2800 C   0  0  0  0  0  0  0  0  0  0  0  0
  197.4330  174.6030  140.4730 C   0  0  0  0  0  1  0  0  0  0  0  0
  195.0850  172.6800  138.1770 C   0  0  0  0  0  3  0  0  0  0  0  0
  196.5720  174.2260  139.3170 C   0  0  0  0  0  0  0  0  0  0  0  0
  196.5920  176.4760  135.5750 C   0  0  0  0  0  1  0  0  0  0  0  0
  195.4090  175.8140  136.1190 N   0  0  0  0  0  0  0  0  0  0  0  0
  194.0790  176.1600  135.5740 C   0  0  2  0  0  0  0  0  0  0  0  0
  193.0410  176.0310  136.6740 C   0  0  0  0  0  1  0  0  0  0  0  0
  193.7440  175.2510  134.5540 O   0  0  0  0  0  1  0  0  0  0  0  0
  194.0650  177.5200  135.1430 O   0  0  0  0  0  0  0  0  0  0  0  0
  192.7670  177.9830  134.8740 C   0  0  0  0  0  1  0  0  0  0  0  0
  186.8660  177.0950  140.3050 N   0  0  0  0  0  2  0  0  0  0  0  0
  186.2750  177.3690  139.0520 N   0  0  0  0  0  2  0  0  0  0  0  0
  187.7830  175.5440  138.7440 C   0  0  0  0  0  2  0  0  0  0  0  0
  186.9920  176.6010  138.0360 C   0  0  1  0  0  3  0  0  0  0  0  0
  187.9820  176.1780  140.0840 C   0  0  2  0  0  3  0  0  0  0  0  0
  186.0360  175.9980  137.0660 C   0  0  0  0  0  0  0  0  0  0  0  0
  184.8130  175.9310  137.3550 O   0  0  0  0  0  1  0  0  0  0  0  0
  186.4840  175.4910  135.8510 O   0  0  0  0  0  0  0  0  0  0  0  0
  186.3420  176.2140  143.0970 N   0  0  0  0  0  2  0  0  0  0  0  0
  186.2190  176.8000  145.4600 C   0  0  0  0  0  2  0  0  0  0  0  0
  184.7600  178.2600  146.9030 C   0  0  0  0  0  2  0  0  0  0  0  0
  184.0740  178.9620  145.7410 C   0  0  0  0  0  2  0  0  0  0  0  0
  185.3280  178.3640  143.6260 C   0  0  0  0  0  2  0  0  0  0  0  0
  185.5490  176.9160  144.0920 C   0  0  0  0  0  3  0  0  0  0  0  0
  185.1650  176.8350  146.5570 C   0  0  0  0  0  2  0  0  0  0  0  0
  185.1150  179.4050  144.7230 C   0  0  0  0  0  2  0  0  0  0  0  0
  1  9  1  6  0  0  0
  1 13  1  0  0  0  0
  2 57  1  6  0  0  0
  4 18  1  6  0  0  0
  4 14  1  0  0  0  0
  5 28  1  0  0  0  0
  5  4  1  0  0  0  0
  6 10  2  0  0  0  0
  7 16  1  0  0  0  0
  8 23  1  0  0  0  0
  9  8  1  0  0  0  0
 10 29  1  0  0  0  0
 12  2  1  0  0  0  0
 13 12  1  0  0  0  0
 13 15  1  0  0  0  0
 13  2  1  0  0  0  0
 14 24  1  0  0  0  0
 14  3  1  0  0  0  0
 15 18  2  0  0  0  0
 16  8  1  0  0  0  0
 17 26  1  0  0  0  0
 17  5  1  0  0  0  0
 17 28  1  0  0  0  0
 20 14  1  0  0  0  0
 21 25  1  0  0  0  0
 21 27  1  0  0  0  0
 22 20  1  0  0  0  0
 23 15  1  0  0  0  0
 25 16  1  0  0  0  0
 26 22  1  0  0  0  0
 27 10  1  0  0  0  0
 27 11  1  0  0  0  0
 29 28  1  0  0  0  0
 29 19  1  0  0  0  0
 30 32  2  0  0  0  0
 32 34  1  0  0  0  0
 32 33  1  0  0  0  0
 33 31  1  0  0  0  0
 34  6  1  0  0  0  0
 35 37  2  0  0  0  0
 35 40  1  0  0  0  0
 36 41  2  0  0  0  0
 37 36  1  0  0  0  0
 38 41  1  0  0  0  0
 38 34  1  0  0  0  0
 40 38  2  0  0  0  0
 41 39  1  0  0  0  0
 42 43  1  0  0  0  0
 43 37  1  0  0  0  0
 44 43  1  0  0  0  0
 44 45  1  0  0  0  0
 46 44  1  0  0  0  0
 47 44  1  0  0  0  0
 48 47  1  0  0  0  0
 50 49  1  0  0  0  0
 51 53  1  0  0  0  0
 52 51  1  0  0  0  0
 52 50  1  0  0  0  0
 53 49  1  0  0  0  0
 53  1  1  0  0  0  0
 54 55  1  0  0  0  0
 54 52  1  0  0  0  0
 56 54  2  0  0  0  0
 57 62  1  0  0  0  0
 58 63  1  0  0  0  0
 60 59  1  0  0  0  0
 61 62  1  0  0  0  0
 61 64  1  0  0  0  0
 62 58  1  0  0  0  0
 63 59  1  0  0  0  0
 64 60  1  0  0  0  0
M  END
>  <MODEL>
1

>  <REMARK>
 VINA RESULT:      -8.9      0.000      0.000
  Name = 
  9 active torsions:
  status: ('A' for Active; 'I' for Inactive)
    1  A    between atoms: C_1  and  C_53
    2  A    between atoms: C_2  and  N_43
    3  A    between atoms: O_10  and  C_20
    4  A    between atoms: C_11  and  C_37
    5  A    between atoms: C_13  and  N_39
    6  A    between atoms: C_14  and  N_54
    7  A    between atoms: C_16  and  N_54
    8  A    between atoms: C_20  and  N_39
    9  A    between atoms: N_43  and  C_51
                            x       y       z     vdW  Elec       q    Type
                         _______ _______ _______ _____ _____    ______ ____

>  <TORSDO>
F 9

$$$$
=
 OpenBabel11072409193D

 64 71  0  0  1  0  0  0  0  0999 V2000
  188.6910  175.4670  142.4130 C   0  0  1  0  0  3  0  0  0  0  0  0
  188.7580  175.9690  144.9940 C   0  0  2  0  0  3  0  0  0  0  0  0
  193.0840  175.2870  147.1800 F   0  0  0  0  0  0  0  0  0  0  0  0
  192.9070  174.5430  144.9420 C   0  0  1  0  0  3  0  0  0  0  0  0
  193.5210  173.9320  143.6470 C   0  0  1  0  0  3  0  0  0  0  0  0
  196.1700  173.0990  140.7040 C   0  0  0  0  0  3  0  0  0  0  0  0
  190.1020  171.9160  140.1220 C   0  0  0  0  0  1  0  0  0  0  0  0
  190.0080  173.2990  142.2240 C   0  0  1  0  0  3  0  0  0  0  0  0
  189.4510  174.5200  141.4850 C   0  0  0  0  0  2  0  0  0  0  0  0
  195.2260  172.4520  141.4010 C   0  0  0  0  0  0  0  0  0  0  0  0
  193.4790  170.7620  141.6430 O   0  0  0  0  0  1  0  0  0  0  0  0
  189.4220  177.1720  144.3400 C   0  0  0  0  0  2  0  0  0  0  0  0
  189.5310  175.8040  143.6790 C   0  0  2  0  0  0  0  0  0  0  0  0
  193.8170  175.1750  146.0160 C   0  0  0  0  0  0  0  0  0  0  0  0
  190.7380  174.9510  143.9340 C   0  0  0  0  0  0  0  0  0  0  0  0
  190.8970  172.4590  141.3040 C   0  0  2  0  0  3  0  0  0  0  0  0
  194.3170  174.8530  142.7160 C   0  0  1  0  0  3  0  0  0  0  0  0
  191.7330  175.3730  144.6590 N   0  0  0  0  0  0  0  0  0  0  0  0
  195.0240  171.4080  143.6120 O   0  0  0  0  0  1  0  0  0  0  0  0
  194.2950  176.5740  145.6300 C   0  0  0  0  0  2  0  0  0  0  0  0
  193.0750  172.4540  139.9780 C   0  0  0  0  0  2  0  0  0  0  0  0
  195.2110  176.5800  144.4220 C   0  0  0  0  0  2  0  0  0  0  0  0
  190.7780  173.6760  143.3650 O   0  0  0  0  0  0  0  0  0  0  0  0
  194.9030  174.3620  146.2830 F   0  0  0  0  0  0  0  0  0  0  0  0
  192.1140  173.2650  140.8330 C   0  0  0  0  0  2  0  0  0  0  0  0
  194.4010  176.3240  143.1580 C   0  0  0  0  0  2  0  0  0  0  0  0
  194.1120  171.6380  140.7570 C   0  0  1  0  0  3  0  0  0  0  0  0
  195.0320  173.8390  143.6140 C   0  0  2  0  0  3  0  0  0  0  0  0
  195.4410  172.5350  142.9030 C   0  0  2  0  0  3  0  0  0  0  0  0
  197.9410  174.0590  137.7900 O   0  0  0  0  0  0  0  0  0  0  0  0
  196.4250  175.9170  140.3740 O   0  0  0  0  0  1  0  0  0  0  0  0
  197.2560  174.2430  138.8280 C   0  0  0  0  0  0  0  0  0  0  0  0
  197.3860  175.4860  139.5270 N   0  0  0  0  0  2  0  0  0  0  0  0
  196.3480  173.2220  139.2780 N   0  0  0  0  0  0  0  0  0  0  0  0
  194.1970  171.8700  136.5300 C   0  0  0  0  0  3  0  0  0  0  0  0
  195.6420  170.1100  137.3250 C   0  0  0  0  0  3  0  0  0  0  0  0
  194.6330  170.5380  136.4520 C   0  0  0  0  0  0  0  0  0  0  0  0
  195.7860  172.3230  138.3070 C   0  0  0  0  0  0  0  0  0  0  0  0
  197.2930  170.4750  139.1470 C   0  0  0  0  0  1  0  0  0  0  0  0
  194.7680  172.7590  137.4460 C   0  0  0  0  0  3  0  0  0  0  0  0
  196.2090  170.9800  138.2580 C   0  0  0  0  0  0  0  0  0  0  0  0
  194.9680  168.9980  134.5140 C   0  0  0  0  0  1  0  0  0  0  0  0
  194.0720  169.6250  135.4830 N   0  0  0  0  0  0  0  0  0  0  0  0
  192.6290  169.3080  135.4360 C   0  0  2  0  0  0  0  0  0  0  0  0
  192.1430  168.9850  136.8370 C   0  0  0  0  0  1  0  0  0  0  0  0
  192.4300  168.1680  134.6360 O   0  0  0  0  0  1  0  0  0  0  0  0
  191.8920  170.4440  134.9880 O   0  0  0  0  0  0  0  0  0  0  0  0
  190.7370  170.6690  135.7550 C   0  0  0  0  0  1  0  0  0  0  0  0
  188.2100  177.9190  142.3230 N   0  0  0  0  0  2  0  0  0  0  0  0
  187.1140  178.6790  141.8620 N   0  0  0  0  0  2  0  0  0  0  0  0
  186.8930  176.4850  140.9480 C   0  0  0  0  0  2  0  0  0  0  0  0
  186.4270  177.9040  140.8310 C   0  0  1  0  0  3  0  0  0  0  0  0
  188.2430  176.6720  141.5630 C   0  0  2  0  0  3  0  0  0  0  0  0
  184.9510  178.0010  141.0000 C   0  0  0  0  0  0  0  0  0  0  0  0
  184.2250  178.2630  140.0050 O   0  0  0  0  0  0  0  0  0  0  0  0
  184.3660  177.8250  142.2500 O   0  0  0  0  0  1  0  0  0  0  0  0
  187.3140  176.0170  144.8000 N   0  0  0  0  0  2  0  0  0  0  0  0
  185.3270  177.3170  145.3520 C   0  0  0  0  0  2  0  0  0  0  0  0
  184.7180  179.0920  147.0310 C   0  0  0  0  0  2  0  0  0  0  0  0
  185.9740  178.9230  147.8730 C   0  0  0  0  0  2  0  0  0  0  0  0
  187.1530  176.8250  147.0920 C   0  0  0  0  0  2  0  0  0  0  0  0
  186.8170  177.1100  145.6190 C   0  0  0  0  0  3  0  0  0  0  0  0
  184.9620  178.7790  145.5630 C   0  0  0  0  0  2  0  0  0  0  0  0
  186.2230  177.4430  148.1320 C   0  0  0  0  0  2  0  0  0  0  0  0
  1  9  1  6  0  0  0
  1 13  1  0  0  0  0
  2 57  1  6  0  0  0
  4 18  1  6  0  0  0
  4 14  1  0  0  0  0
  5  4  1  0  0  0  0
  6 10  2  0  0  0  0
  7 16  1  0  0  0  0
  8 23  1  0  0  0  0
  9  8  1  0  0  0  0
 10 29  1  0  0  0  0
 12  2  1  0  0  0  0
 13 15  1  0  0  0  0
 13 12  1  0  0  0  0
 13  2  1  0  0  0  0
 14 24  1  0  0  0  0
 14  3  1  0  0  0  0
 15 18  2  0  0  0  0
 16  8  1  0  0  0  0
 17 26  1  0  0  0  0
 17 28  1  0  0  0  0
 17  5  1  0  0  0  0
 20 14  1  0  0  0  0
 21 27  1  0  0  0  0
 21 25  1  0  0  0  0
 22 20  1  0  0  0  0
 23 15  1  0  0  0  0
 25 16  1  0  0  0  0
 26 22  1  0  0  0  0
 27 10  1  0  0  0  0
 27 11  1  0  0  0  0
 28  5  1  0  0  0  0
 29 19  1  0  0  0  0
 29 28  1  0  0  0  0
 30 32  2  0  0  0  0
 32 34  1  0  0  0  0
 32 33  1  0  0  0  0
 33 31  1  0  0  0  0
 34  6  1  0  0  0  0
 35 40  1  0  0  0  0
 36 41  2  0  0  0  0
 37 35  2  0  0  0  0
 37 36  1  0  0  0  0
 38 34  1  0  0  0  0
 40 38  2  0  0  0  0
 41 38  1  0  0  0  0
 41 39  1  0  0  0  0
 42 43  1  0  0  0  0
 43 37  1  0  0  0  0
 44 43  1  0  0  0  0
 44 45  1  0  0  0  0
 46 44  1  0  0  0  0
 47 44  1  0  0  0  0
 47 48  1  0  0  0  0
 50 49  1  0  0  0  0
 51 53  1  0  0  0  0
 52 51  1  0  0  0  0
 52 54  1  0  0  0  0
 52 50  1  0  0  0  0
 53 49  1  0  0  0  0
 53  1  1  0  0  0  0
 54 56  1  0  0  0  0
 55 54  2  0  0  0  0
 57 62  1  0  0  0  0
 58 63  1  0  0  0  0
 58 62  1  0  0  0  0
 59 60  1  0  0  0  0
 60 64  1  0  0  0  0
 61 64  1  0  0  0  0
 62 61  1  0  0  0  0
 63 59  1  0  0  0  0
M  END
>  <MODEL>
2

>  <REMARK>
 VINA RESULT:      -8.5      2.533      3.474
  Name = 
  9 active torsions:
  status: ('A' for Active; 'I' for Inactive)
    1  A    between atoms: C_1  and  C_53
    2  A    between atoms: C_2  and  N_43
    3  A    between atoms: O_10  and  C_20
    4  A    between atoms: C_11  and  C_37
    5  A    between atoms: C_13  and  N_39
    6  A    between atoms: C_14  and  N_54
    7  A    between atoms: C_16  and  N_54
    8  A    between atoms: C_20  and  N_39
    9  A    between atoms: N_43  and  C_51
                            x       y       z     vdW  Elec       q    Type
                         _______ _______ _______ _____ _____    ______ ____

>  <TORSDO>
F 9

$$$$
=
 OpenBabel11072409193D

 64 71  0  0  1  0  0  0  0  0999 V2000
  188.8820  175.5580  142.5810 C   0  0  1  0  0  3  0  0  0  0  0  0
  189.1270  177.3030  144.5330 C   0  0  2  0  0  3  0  0  0  0  0  0
  193.3280  177.1150  147.0380 F   0  0  0  0  0  0  0  0  0  0  0  0
  192.9430  175.3630  145.4970 C   0  0  1  0  0  3  0  0  0  0  0  0
  193.3910  174.0740  144.7450 C   0  0  1  0  0  3  0  0  0  0  0  0
  195.7420  171.3920  142.8330 C   0  0  0  0  0  3  0  0  0  0  0  0
  189.5440  171.1510  142.5450 C   0  0  0  0  0  1  0  0  0  0  0  0
  189.7760  173.4150  143.6220 C   0  0  1  0  0  3  0  0  0  0  0  0
  189.4250  174.1510  142.3260 C   0  0  0  0  0  2  0  0  0  0  0  0
  194.7210  171.3750  143.7000 C   0  0  0  0  0  0  0  0  0  0  0  0
  192.7040  170.3870  144.6620 O   0  0  0  0  0  1  0  0  0  0  0  0
  189.9770  177.8570  143.3990 C   0  0  0  0  0  2  0  0  0  0  0  0
  189.8120  176.3500  143.5450 C   0  0  2  0  0  0  0  0  0  0  0  0
  193.9890  176.2910  146.1490 C   0  0  0  0  0  0  0  0  0  0  0  0
  190.8510  175.5580  144.2820 C   0  0  0  0  0  0  0  0  0  0  0  0
  190.4640  172.0810  143.3270 C   0  0  2  0  0  3  0  0  0  0  0  0
  194.3090  174.2250  143.5280 C   0  0  1  0  0  3  0  0  0  0  0  0
  191.9310  176.1150  144.7500 N   0  0  0  0  0  0  0  0  0  0  0  0
  194.4070  171.6820  146.1140 O   0  0  0  0  0  1  0  0  0  0  0  0
  194.7000  177.1810  145.1300 C   0  0  0  0  0  2  0  0  0  0  0  0
  192.5580  171.0120  142.3400 C   0  0  0  0  0  2  0  0  0  0  0  0
  195.5610  176.4010  144.1560 C   0  0  0  0  0  2  0  0  0  0  0  0
  190.6390  174.1880  144.4550 O   0  0  0  0  0  0  0  0  0  0  0  0
  194.9170  175.5600  146.8670 F   0  0  0  0  0  0  0  0  0  0  0  0
  191.7910  172.3010  142.5910 C   0  0  0  0  0  2  0  0  0  0  0  0
  194.6750  175.6720  143.1530 C   0  0  0  0  0  2  0  0  0  0  0  0
  193.4560  170.5530  143.4950 C   0  0  1  0  0  3  0  0  0  0  0  0
  194.8570  173.7170  144.8640 C   0  0  2  0  0  3  0  0  0  0  0  0
  194.9980  172.1860  144.9540 C   0  0  2  0  0  3  0  0  0  0  0  0
  195.8330  168.5490  140.7210 O   0  0  0  0  0  0  0  0  0  0  0  0
  197.9410  169.6490  143.3240 O   0  0  0  0  0  1  0  0  0  0  0  0
  196.2620  169.3370  141.6020 C   0  0  0  0  0  0  0  0  0  0  0  0
  197.1340  168.8280  142.6160 N   0  0  0  0  0  2  0  0  0  0  0  0
  195.8910  170.7270  141.5620 N   0  0  0  0  0  0  0  0  0  0  0  0
  194.2640  171.3390  138.2480 C   0  0  0  0  0  3  0  0  0  0  0  0
  196.0250  172.9590  138.5610 C   0  0  0  0  0  3  0  0  0  0  0  0
  194.9940  172.4390  137.7680 C   0  0  0  0  0  0  0  0  0  0  0  0
  195.5720  171.3200  140.2910 C   0  0  0  0  0  0  0  0  0  0  0  0
  197.4240  173.0100  140.6160 C   0  0  0  0  0  1  0  0  0  0  0  0
  194.5460  170.7840  139.5000 C   0  0  0  0  0  3  0  0  0  0  0  0
  196.3300  172.4030  139.8050 C   0  0  0  0  0  0  0  0  0  0  0  0
  195.4710  172.6460  135.3250 C   0  0  0  0  0  1  0  0  0  0  0  0
  194.6840  173.0400  136.4910 N   0  0  0  0  0  0  0  0  0  0  0  0
  193.6070  174.0380  136.3240 C   0  0  2  0  0  0  0  0  0  0  0  0
  193.6890  174.6320  134.9300 C   0  0  0  0  0  1  0  0  0  0  0  0
  193.7920  175.0810  137.2500 O   0  0  0  0  0  1  0  0  0  0  0  0
  192.3320  173.4070  136.4360 O   0  0  0  0  0  0  0  0  0  0  0  0
  191.4290  174.1580  137.2060 C   0  0  0  0  0  1  0  0  0  0  0  0
  187.2400  176.6000  141.0110 N   0  0  0  0  0  2  0  0  0  0  0  0
  186.9090  176.3720  139.6570 N   0  0  0  0  0  2  0  0  0  0  0  0
  189.0100  175.3130  140.0630 C   0  0  0  0  0  2  0  0  0  0  0  0
  188.0790  175.8000  138.9950 C   0  0  1  0  0  3  0  0  0  0  0  0
  188.6330  176.2040  141.2050 C   0  0  2  0  0  3  0  0  0  0  0  0
  187.6760  174.6910  138.0870 C   0  0  0  0  0  0  0  0  0  0  0  0
  187.0690  174.9520  137.0150 O   0  0  0  0  0  0  0  0  0  0  0  0
  187.9450  173.3670  138.4190 O   0  0  0  0  0  1  0  0  0  0  0  0
  187.7110  177.4930  144.2470 N   0  0  0  0  0  2  0  0  0  0  0  0
  185.5720  178.0320  145.2850 C   0  0  0  0  0  2  0  0  0  0  0  0
  184.7220  178.3900  147.6290 C   0  0  0  0  0  2  0  0  0  0  0  0
  185.9710  177.8550  148.3130 C   0  0  0  0  0  2  0  0  0  0  0  0
  187.4080  176.7500  146.5470 C   0  0  0  0  0  2  0  0  0  0  0  0
  187.0700  177.8310  145.5070 C   0  0  0  0  0  3  0  0  0  0  0  0
  185.0320  179.0400  146.2890 C   0  0  0  0  0  2  0  0  0  0  0  0
  186.3890  176.5420  147.6640 C   0  0  0  0  0  2  0  0  0  0  0  0
  1  9  1  6  0  0  0
  1 13  1  0  0  0  0
  2 57  1  6  0  0  0
  4 18  1  6  0  0  0
  4 14  1  0  0  0  0
  5 28  1  0  0  0  0
  5  4  1  0  0  0  0
  6 10  2  0  0  0  0
  7 16  1  0  0  0  0
  8 23  1  0  0  0  0
  9  8  1  0  0  0  0
 10 29  1  0  0  0  0
 12 13  1  0  0  0  0
 12  2  1  0  0  0  0
 13 15  1  0  0  0  0
 13  2  1  0  0  0  0
 14 24  1  0  0  0  0
 14  3  1  0  0  0  0
 15 23  1  0  0  0  0
 15 18  2  0  0  0  0
 16  8  1  0  0  0  0
 17  5  1  0  0  0  0
 17 28  1  0  0  0  0
 20 14  1  0  0  0  0
 21 25  1  0  0  0  0
 21 27  1  0  0  0  0
 22 20  1  0  0  0  0
 25 16  1  0  0  0  0
 26 17  1  0  0  0  0
 26 22  1  0  0  0  0
 27 10  1  0  0  0  0
 27 11  1  0  0  0  0
 28 29  1  0  0  0  0
 29 19  1  0  0  0  0
 30 32  2  0  0  0  0
 32 33  1  0  0  0  0
 33 31  1  0  0  0  0
 34 32  1  0  0  0  0
 34  6  1  0  0  0  0
 35 40  1  0  0  0  0
 36 41  2  0  0  0  0
 37 35  2  0  0  0  0
 37 36  1  0  0  0  0
 38 34  1  0  0  0  0
 40 38  2  0  0  0  0
 41 38  1  0  0  0  0
 41 39  1  0  0  0  0
 42 43  1  0  0  0  0
 43 37  1  0  0  0  0
 44 47  1  0  0  0  0
 44 43  1  0  0  0  0
 44 46  1  0  0  0  0
 45 44  1  0  0  0  0
 47 48  1  0  0  0  0
 49 53  1  0  0  0  0
 50 49  1  0  0  0  0
 51 53  1  0  0  0  0
 52 50  1  0  0  0  0
 52 51  1  0  0  0  0
 53  1  1  0  0  0  0
 54 56  1  0  0  0  0
 54 52  1  0  0  0  0
 55 54  2  0  0  0  0
 57 62  1  0  0  0  0
 58 62  1  0  0  0  0
 58 63  1  0  0  0  0
 59 60  1  0  0  0  0
 61 64  1  0  0  0  0
 62 61  1  0  0  0  0
 63 59  1  0  0  0  0
 64 60  1  0  0  0  0
M  END
>  <MODEL>
3

>  <REMARK>
 VINA RESULT:      -7.6      1.770      2.273
  Name = 
  9 active torsions:
  status: ('A' for Active; 'I' for Inactive)
    1  A    between atoms: C_1  and  C_53
    2  A    between atoms: C_2  and  N_43
    3  A    between atoms: O_10  and  C_20
    4  A    between atoms: C_11  and  C_37
    5  A    between atoms: C_13  and  N_39
    6  A    between atoms: C_14  and  N_54
    7  A    between atoms: C_16  and  N_54
    8  A    between atoms: C_20  and  N_39
    9  A    between atoms: N_43  and  C_51
                            x       y       z     vdW  Elec       q    Type
                         _______ _______ _______ _____ _____    ______ ____

>  <TORSDO>
F 9

$$$$
=
 OpenBabel11072409193D

 64 71  0  0  1  0  0  0  0  0999 V2000
  192.6330  171.9190  137.3670 C   0  0  1  0  0  3  0  0  0  0  0  0
  193.5150  169.4500  137.5790 C   0  0  2  0  0  3  0  0  0  0  0  0
  195.1990  168.1670  141.9920 F   0  0  0  0  0  0  0  0  0  0  0  0
  194.7010  170.4580  141.6810 C   0  0  1  0  0  3  0  0  0  0  0  0
  194.5640  171.9160  142.2130 C   0  0  1  0  0  3  0  0  0  0  0  0
  193.7720  175.0200  144.6840 C   0  0  0  0  0  3  0  0  0  0  0  0
  194.5170  175.7740  138.5670 C   0  0  0  0  0  1  0  0  0  0  0  0
  194.3970  173.2600  138.6160 C   0  0  1  0  0  3  0  0  0  0  0  0
  192.9730  173.2420  138.0530 C   0  0  0  0  0  2  0  0  0  0  0  0
  194.6880  174.6970  143.7620 C   0  0  0  0  0  0  0  0  0  0  0  0
  196.2720  175.2480  141.9860 O   0  0  0  0  0  1  0  0  0  0  0  0
  192.1450  169.4390  138.2390 C   0  0  0  0  0  2  0  0  0  0  0  0
  192.9840  170.7090  138.2790 C   0  0  2  0  0  0  0  0  0  0  0  0
  194.7000  169.2660  142.6620 C   0  0  0  0  0  0  0  0  0  0  0  0
  193.8450  170.9920  139.4750 C   0  0  0  0  0  0  0  0  0  0  0  0
  194.6480  174.5280  139.4340 C   0  0  2  0  0  3  0  0  0  0  0  0
  193.2950  172.2930  142.9830 C   0  0  1  0  0  3  0  0  0  0  0  0
  193.8470  170.2110  140.5160 N   0  0  0  0  0  0  0  0  0  0  0  0
  196.7130  173.3160  143.6460 O   0  0  0  0  0  1  0  0  0  0  0  0
  193.2980  168.9130  143.1550 C   0  0  0  0  0  2  0  0  0  0  0  0
  193.9690  175.7950  141.5410 C   0  0  0  0  0  2  0  0  0  0  0  0
  192.6740  170.0000  144.0080 C   0  0  0  0  0  2  0  0  0  0  0  0
  194.6520  172.1320  139.4520 O   0  0  0  0  0  0  0  0  0  0  0  0
  195.5310  169.5120  143.7380 F   0  0  0  0  0  0  0  0  0  0  0  0
  193.7110  174.5920  140.6460 C   0  0  0  0  0  2  0  0  0  0  0  0
  192.2540  171.1700  143.1270 C   0  0  0  0  0  2  0  0  0  0  0  0
  195.0640  175.6000  142.5950 C   0  0  1  0  0  3  0  0  0  0  0  0
  194.6220  172.0780  143.7160 C   0  0  2  0  0  3  0  0  0  0  0  0
  195.3800  173.3760  144.0550 C   0  0  2  0  0  3  0  0  0  0  0  0
  193.1910  178.5140  144.7830 O   0  0  0  0  0  0  0  0  0  0  0  0
  194.8530  176.3150  146.9810 O   0  0  0  0  0  1  0  0  0  0  0  0
  193.5830  177.4040  145.2250 C   0  0  0  0  0  0  0  0  0  0  0  0
  194.6550  177.3800  146.1730 N   0  0  0  0  0  2  0  0  0  0  0  0
  192.9390  176.1920  144.7930 N   0  0  0  0  0  0  0  0  0  0  0  0
  189.9010  176.5290  142.6320 C   0  0  0  0  0  3  0  0  0  0  0  0
  189.2000  176.2730  144.9260 C   0  0  0  0  0  3  0  0  0  0  0  0
  188.8660  176.4400  143.5760 C   0  0  0  0  0  0  0  0  0  0  0  0
  191.5630  176.2520  144.3790 C   0  0  0  0  0  0  0  0  0  0  0  0
  190.8280  175.9940  146.7840 C   0  0  0  0  0  1  0  0  0  0  0  0
  191.2390  176.4330  143.0260 C   0  0  0  0  0  3  0  0  0  0  0  0
  190.5320  176.1940  145.3370 C   0  0  0  0  0  0  0  0  0  0  0  0
  186.9140  175.3740  142.4380 C   0  0  0  0  0  1  0  0  0  0  0  0
  187.4800  176.5040  143.1720 N   0  0  0  0  0  0  0  0  0  0  0  0
  186.6200  177.6680  143.4690 C   0  0  2  0  0  0  0  0  0  0  0  0
  186.7010  178.6560  142.3190 C   0  0  0  0  0  1  0  0  0  0  0  0
  187.0920  178.3130  144.6270 O   0  0  0  0  0  1  0  0  0  0  0  0
  185.2570  177.2580  143.5710 O   0  0  0  0  0  0  0  0  0  0  0  0
  184.4450  178.2380  144.1650 C   0  0  0  0  0  1  0  0  0  0  0  0
  190.9660  172.9950  135.8460 N   0  0  0  0  0  2  0  0  0  0  0  0
  189.7140  173.6120  136.0560 N   0  0  0  0  0  2  0  0  0  0  0  0
  190.2240  172.3540  138.0190 C   0  0  0  0  0  2  0  0  0  0  0  0
  189.1280  173.0470  137.2690 C   0  0  1  0  0  3  0  0  0  0  0  0
  191.1650  172.0110  136.9070 C   0  0  2  0  0  3  0  0  0  0  0  0
  188.5050  174.1170  138.0960 C   0  0  0  0  0  0  0  0  0  0  0  0
  188.7440  174.1700  139.3310 O   0  0  0  0  0  1  0  0  0  0  0  0
  187.6450  175.0480  137.5220 O   0  0  0  0  0  0  0  0  0  0  0  0
  193.3800  169.5100  136.1290 N   0  0  0  0  0  2  0  0  0  0  0  0
  195.4640  170.7240  135.7730 C   0  0  0  0  0  2  0  0  0  0  0  0
  197.7730  170.1750  134.9300 C   0  0  0  0  0  2  0  0  0  0  0  0
  197.5780  168.6670  134.9620 C   0  0  0  0  0  2  0  0  0  0  0  0
  195.4270  168.1920  136.2080 C   0  0  0  0  0  2  0  0  0  0  0  0
  194.7210  169.4040  135.5780 C   0  0  0  0  0  3  0  0  0  0  0  0
  196.4760  170.9190  134.6520 C   0  0  0  0  0  2  0  0  0  0  0  0
  196.9500  168.2600  136.2880 C   0  0  0  0  0  2  0  0  0  0  0  0
  1  9  1  1  0  0  0
  1 13  1  0  0  0  0
  2 57  1  6  0  0  0
  2 12  1  0  0  0  0
  2 13  1  0  0  0  0
  3 14  1  0  0  0  0
  4 18  1  6  0  0  0
  4  5  1  0  0  0  0
  4 14  1  0  0  0  0
  5 17  1  0  0  0  0
  5 28  1  0  0  0  0
  6 34  1  0  0  0  0
  7 16  1  0  0  0  0
  8 16  1  0  0  0  0
  8 23  1  0  0  0  0
  9  8  1  0  0  0  0
 10 29  1  0  0  0  0
 10  6  2  0  0  0  0
 11 27  1  0  0  0  0
 12 13  1  0  0  0  0
 13 15  1  0  0  0  0
 14 20  1  0  0  0  0
 14 24  1  0  0  0  0
 15 18  2  0  0  0  0
 16 25  1  0  0  0  0
 17 26  1  0  0  0  0
 17 28  1  0  0  0  0
 19 29  1  0  0  0  0
 20 22  1  0  0  0  0
 21 27  1  0  0  0  0
 23 15  1  0  0  0  0
 25 21  1  0  0  0  0
 26 22  1  0  0  0  0
 27 10  1  0  0  0  0
 28 29  1  0  0  0  0
 30 32  2  0  0  0  0
 32 33  1  0  0  0  0
 33 31  1  0  0  0  0
 34 32  1  0  0  0  0
 35 40  2  0  0  0  0
 35 37  1  0  0  0  0
 36 41  1  0  0  0  0
 37 36  2  0  0  0  0
 38 34  1  0  0  0  0
 38 41  2  0  0  0  0
 40 38  1  0  0  0  0
 41 39  1  0  0  0  0
 42 43  1  0  0  0  0
 43 44  1  0  0  0  0
 43 37  1  0  0  0  0
 44 47  1  0  0  0  0
 44 46  1  0  0  0  0
 45 44  1  0  0  0  0
 47 48  1  0  0  0  0
 49 50  1  0  0  0  0
 49 53  1  0  0  0  0
 50 52  1  0  0  0  0
 52 51  1  0  0  0  0
 52 54  1  0  0  0  0
 53  1  1  0  0  0  0
 53 51  1  0  0  0  0
 54 55  1  0  0  0  0
 56 54  2  0  0  0  0
 59 60  1  0  0  0  0
 60 64  1  0  0  0  0
 61 64  1  0  0  0  0
 62 58  1  0  0  0  0
 62 57  1  0  0  0  0
 62 61  1  0  0  0  0
 63 59  1  0  0  0  0
 63 58  1  0  0  0  0
M  END
>  <MODEL>
4

>  <REMARK>
 VINA RESULT:      -7.5      3.405      9.170
  Name = 
  9 active torsions:
  status: ('A' for Active; 'I' for Inactive)
    1  A    between atoms: C_1  and  C_53
    2  A    between atoms: C_2  and  N_43
    3  A    between atoms: O_10  and  C_20
    4  A    between atoms: C_11  and  C_37
    5  A    between atoms: C_13  and  N_39
    6  A    between atoms: C_14  and  N_54
    7  A    between atoms: C_16  and  N_54
    8  A    between atoms: C_20  and  N_39
    9  A    between atoms: N_43  and  C_51
                            x       y       z     vdW  Elec       q    Type
                         _______ _______ _______ _____ _____    ______ ____

>  <TORSDO>
F 9

$$$$
=
 OpenBabel11072409193D

 64 71  0  0  1  0  0  0  0  0999 V2000
  194.7550  173.3520  138.8180 C   0  0  1  0  0  3  0  0  0  0  0  0
  196.5010  171.4080  139.1100 C   0  0  2  0  0  3  0  0  0  0  0  0
  197.3590  169.9980  143.7180 F   0  0  0  0  0  0  0  0  0  0  0  0
  196.0470  171.9460  143.4420 C   0  0  1  0  0  3  0  0  0  0  0  0
  195.1800  173.1080  144.0110 C   0  0  1  0  0  3  0  0  0  0  0  0
  192.5510  175.1260  146.3320 C   0  0  0  0  0  3  0  0  0  0  0  0
  194.4690  177.3100  140.8460 C   0  0  0  0  0  1  0  0  0  0  0  0
  195.4050  174.9790  140.6630 C   0  0  1  0  0  3  0  0  0  0  0  0
  194.3190  174.5400  139.6760 C   0  0  0  0  0  2  0  0  0  0  0  0
  193.7220  175.3610  145.7270 C   0  0  0  0  0  0  0  0  0  0  0  0
  195.3300  176.8100  144.5950 O   0  0  0  0  0  1  0  0  0  0  0  0
  195.1420  170.7500  139.2980 C   0  0  0  0  0  2  0  0  0  0  0  0
  195.3310  172.2070  139.6990 C   0  0  2  0  0  0  0  0  0  0  0  0
  196.2910  170.6710  144.2760 C   0  0  0  0  0  0  0  0  0  0  0  0
  195.6500  172.5480  141.1250 C   0  0  0  0  0  0  0  0  0  0  0  0
  194.8800  176.0580  141.6120 C   0  0  2  0  0  3  0  0  0  0  0  0
  193.7180  172.8180  144.3640 C   0  0  1  0  0  3  0  0  0  0  0  0
  195.7090  171.6340  142.0500 N   0  0  0  0  0  0  0  0  0  0  0  0
  196.0930  174.8960  146.1560 O   0  0  0  0  0  1  0  0  0  0  0  0
  195.0910  169.7260  144.2690 C   0  0  0  0  0  2  0  0  0  0  0  0
  193.2130  176.5280  143.4830 C   0  0  0  0  0  2  0  0  0  0  0  0
  193.8720  170.3050  144.9600 C   0  0  0  0  0  2  0  0  0  0  0  0
  195.8820  173.8870  141.4480 O   0  0  0  0  0  0  0  0  0  0  0  0
  196.6330  170.9910  145.5770 F   0  0  0  0  0  0  0  0  0  0  0  0
  193.7230  175.5220  142.4640 C   0  0  0  0  0  2  0  0  0  0  0  0
  193.2440  171.3820  144.0840 C   0  0  0  0  0  2  0  0  0  0  0  0
  193.9740  176.5520  144.8130 C   0  0  1  0  0  3  0  0  0  0  0  0
  194.7730  172.9760  145.4630 C   0  0  2  0  0  3  0  0  0  0  0  0
  194.8010  174.3680  146.1230 C   0  0  2  0  0  3  0  0  0  0  0  0
  190.3060  177.6980  147.2800 O   0  0  0  0  0  0  0  0  0  0  0  0
  191.5550  174.8800  148.9900 O   0  0  0  0  0  1  0  0  0  0  0  0
  190.9390  176.6210  147.4170 C   0  0  0  0  0  0  0  0  0  0  0  0
  191.2600  176.1750  148.7400 N   0  0  0  0  0  2  0  0  0  0  0  0
  191.3060  175.8510  146.2590 N   0  0  0  0  0  0  0  0  0  0  0  0
  189.4650  177.3040  143.3420 C   0  0  0  0  0  3  0  0  0  0  0  0
  189.0480  174.9290  143.4210 C   0  0  0  0  0  3  0  0  0  0  0  0
  188.8440  176.1680  142.7990 C   0  0  0  0  0  0  0  0  0  0  0  0
  190.4940  175.9550  145.0760 C   0  0  0  0  0  0  0  0  0  0  0  0
  190.0490  173.4680  145.1650 C   0  0  0  0  0  1  0  0  0  0  0  0
  190.2860  177.2020  144.4690 C   0  0  0  0  0  3  0  0  0  0  0  0
  189.8500  174.8140  144.5570 C   0  0  0  0  0  0  0  0  0  0  0  0
  188.0840  175.1790  140.6350 C   0  0  0  0  0  1  0  0  0  0  0  0
  188.0220  176.2610  141.6140 N   0  0  0  0  0  0  0  0  0  0  0  0
  187.1290  177.4100  141.3570 C   0  0  2  0  0  0  0  0  0  0  0  0
  186.5220  177.2710  139.9730 C   0  0  0  0  0  1  0  0  0  0  0  0
  187.8810  178.5990  141.3820 O   0  0  0  0  0  1  0  0  0  0  0  0
  186.0490  177.4090  142.2890 O   0  0  0  0  0  0  0  0  0  0  0  0
  185.7450  178.6980  142.7580 C   0  0  0  0  0  1  0  0  0  0  0  0
  192.8580  174.1440  137.3950 N   0  0  0  0  0  2  0  0  0  0  0  0
  191.4800  173.8440  137.3560 N   0  0  0  0  0  2  0  0  0  0  0  0
  192.5460  172.1280  138.6270 C   0  0  0  0  0  2  0  0  0  0  0  0
  191.2940  172.4970  137.8910 C   0  0  1  0  0  3  0  0  0  0  0  0
  193.5570  172.9760  137.9240 C   0  0  2  0  0  3  0  0  0  0  0  0
  190.1080  172.4500  138.7900 C   0  0  0  0  0  0  0  0  0  0  0  0
  188.9850  172.8210  138.3600 O   0  0  0  0  0  0  0  0  0  0  0  0
  190.2320  172.0200  140.1070 O   0  0  0  0  0  1  0  0  0  0  0  0
  196.7340  171.7010  137.7020 N   0  0  0  0  0  2  0  0  0  0  0  0
  195.4130  171.1910  135.7180 C   0  0  0  0  0  2  0  0  0  0  0  0
  194.6580  169.1100  134.5160 C   0  0  0  0  0  2  0  0  0  0  0  0
  195.5700  168.1670  135.2840 C   0  0  0  0  0  2  0  0  0  0  0  0
  197.2030  169.5760  136.6080 C   0  0  0  0  0  2  0  0  0  0  0  0
  196.1270  170.6210  136.9430 C   0  0  0  0  0  3  0  0  0  0  0  0
  194.2300  170.3070  135.3520 C   0  0  0  0  0  2  0  0  0  0  0  0
  196.9760  168.7490  135.3450 C   0  0  0  0  0  2  0  0  0  0  0  0
  1  9  1  1  0  0  0
  1 13  1  0  0  0  0
  2 57  1  6  0  0  0
  2 12  1  0  0  0  0
  2 13  1  0  0  0  0
  3 14  1  0  0  0  0
  4 18  1  6  0  0  0
  4  5  1  0  0  0  0
  4 14  1  0  0  0  0
  5 17  1  0  0  0  0
  5 28  1  0  0  0  0
  7 16  1  0  0  0  0
  8 23  1  0  0  0  0
  8 16  1  0  0  0  0
  9  8  1  0  0  0  0
 10 29  1  0  0  0  0
 10  6  2  0  0  0  0
 11 27  1  0  0  0  0
 12 13  1  0  0  0  0
 13 15  1  0  0  0  0
 14 24  1  0  0  0  0
 15 23  1  0  0  0  0
 15 18  2  0  0  0  0
 16 25  1  0  0  0  0
 17 28  1  0  0  0  0
 20 14  1  0  0  0  0
 20 22  1  0  0  0  0
 21 27  1  0  0  0  0
 25 21  1  0  0  0  0
 26 17  1  0  0  0  0
 26 22  1  0  0  0  0
 27 10  1  0  0  0  0
 28 29  1  0  0  0  0
 29 19  1  0  0  0  0
 30 32  2  0  0  0  0
 32 33  1  0  0  0  0
 33 31  1  0  0  0  0
 34  6  1  0  0  0  0
 34 32  1  0  0  0  0
 35 40  1  0  0  0  0
 36 41  2  0  0  0  0
 37 35  2  0  0  0  0
 37 36  1  0  0  0  0
 38 34  1  0  0  0  0
 40 38  2  0  0  0  0
 41 38  1  0  0  0  0
 41 39  1  0  0  0  0
 42 43  1  0  0  0  0
 43 37  1  0  0  0  0
 44 46  1  0  0  0  0
 44 43  1  0  0  0  0
 44 47  1  0  0  0  0
 45 44  1  0  0  0  0
 47 48  1  0  0  0  0
 49 53  1  0  0  0  0
 50 49  1  0  0  0  0
 50 52  1  0  0  0  0
 52 51  1  0  0  0  0
 52 54  1  0  0  0  0
 53 51  1  0  0  0  0
 53  1  1  0  0  0  0
 54 56  1  0  0  0  0
 55 54  2  0  0  0  0
 58 62  1  0  0  0  0
 59 60  1  0  0  0  0
 59 63  1  0  0  0  0
 60 64  1  0  0  0  0
 61 62  1  0  0  0  0
 62 57  1  0  0  0  0
 63 58  1  0  0  0  0
 64 61  1  0  0  0  0
M  END
>  <MODEL>
5

>  <REMARK>
 VINA RESULT:      -7.5      3.109      9.195
  Name = 
  9 active torsions:
  status: ('A' for Active; 'I' for Inactive)
    1  A    between atoms: C_1  and  C_53
    2  A    between atoms: C_2  and  N_43
    3  A    between atoms: O_10  and  C_20
    4  A    between atoms: C_11  and  C_37
    5  A    between atoms: C_13  and  N_39
    6  A    between atoms: C_14  and  N_54
    7  A    between atoms: C_16  and  N_54
    8  A    between atoms: C_20  and  N_39
    9  A    between atoms: N_43  and  C_51
                            x       y       z     vdW  Elec       q    Type
                         _______ _______ _______ _____ _____    ______ ____

>  <TORSDO>
F 9

$$$$
=
 OpenBabel11072409193D

 64 71  0  0  1  0  0  0  0  0999 V2000
  193.7820  173.1920  138.7330 C   0  0  1  0  0  3  0  0  0  0  0  0
  195.4770  171.1880  138.9060 C   0  0  2  0  0  3  0  0  0  0  0  0
  196.7340  169.8550  143.4450 F   0  0  0  0  0  0  0  0  0  0  0  0
  195.4730  171.8460  143.2450 C   0  0  1  0  0  3  0  0  0  0  0  0
  194.7080  173.0540  143.8640 C   0  0  1  0  0  3  0  0  0  0  0  0
  192.3960  175.2260  146.3750 C   0  0  0  0  0  3  0  0  0  0  0  0
  193.8420  177.2040  140.6700 C   0  0  0  0  0  1  0  0  0  0  0  0
  194.6700  174.8360  140.4600 C   0  0  1  0  0  3  0  0  0  0  0  0
  193.4760  174.4160  139.5970 C   0  0  0  0  0  2  0  0  0  0  0  0
  193.5100  175.4020  145.6520 C   0  0  0  0  0  0  0  0  0  0  0  0
  195.0500  176.7600  144.3290 O   0  0  0  0  0  1  0  0  0  0  0  0
  194.1200  170.5890  139.2430 C   0  0  0  0  0  2  0  0  0  0  0  0
  194.4000  172.0460  139.5850 C   0  0  2  0  0  0  0  0  0  0  0  0
  195.7510  170.5820  144.0860 C   0  0  0  0  0  0  0  0  0  0  0  0
  194.8710  172.4080  140.9620 C   0  0  0  0  0  0  0  0  0  0  0  0
  194.2810  175.9560  141.4270 C   0  0  2  0  0  3  0  0  0  0  0  0
  193.2790  172.8290  144.3660 C   0  0  1  0  0  3  0  0  0  0  0  0
  194.9880  171.5150  141.9020 N   0  0  0  0  0  0  0  0  0  0  0  0
  195.8920  174.8550  145.8610 O   0  0  0  0  0  1  0  0  0  0  0  0
  194.5230  169.6850  144.2220 C   0  0  0  0  0  2  0  0  0  0  0  0
  192.8240  176.5340  143.4380 C   0  0  0  0  0  2  0  0  0  0  0  0
  193.3990  170.3270  145.0130 C   0  0  0  0  0  2  0  0  0  0  0  0
  195.1820  173.7450  141.2240 O   0  0  0  0  0  0  0  0  0  0  0  0
  196.2300  170.9200  145.3380 F   0  0  0  0  0  0  0  0  0  0  0  0
  193.1950  175.4850  142.4020 C   0  0  0  0  0  2  0  0  0  0  0  0
  192.7280  171.4060  144.1730 C   0  0  0  0  0  2  0  0  0  0  0  0
  193.7130  176.5600  144.6860 C   0  0  1  0  0  3  0  0  0  0  0  0
  194.4420  172.9720  145.3520 C   0  0  2  0  0  3  0  0  0  0  0  0
  194.5860  174.3770  145.9680 C   0  0  2  0  0  3  0  0  0  0  0  0
  190.3050  177.8310  147.5580 O   0  0  0  0  0  0  0  0  0  0  0  0
  191.5410  174.8980  149.0720 O   0  0  0  0  0  1  0  0  0  0  0  0
  190.9040  176.7270  147.6130 C   0  0  0  0  0  0  0  0  0  0  0  0
  191.2810  176.2120  148.8950 N   0  0  0  0  0  2  0  0  0  0  0  0
  191.1770  175.9980  146.4040 N   0  0  0  0  0  0  0  0  0  0  0  0
  189.2580  177.6380  143.6410 C   0  0  0  0  0  3  0  0  0  0  0  0
  188.7070  175.2900  143.6830 C   0  0  0  0  0  3  0  0  0  0  0  0
  188.5410  176.5560  143.1070 C   0  0  0  0  0  0  0  0  0  0  0  0
  190.3050  176.1820  145.2750 C   0  0  0  0  0  0  0  0  0  0  0  0
  189.7200  173.7230  145.3260 C   0  0  0  0  0  1  0  0  0  0  0  0
  190.1360  177.4560  144.7140 C   0  0  0  0  0  3  0  0  0  0  0  0
  189.5660  175.0960  144.7670 C   0  0  0  0  0  0  0  0  0  0  0  0
  187.8130  175.8430  140.8270 C   0  0  0  0  0  1  0  0  0  0  0  0
  187.6580  176.7310  141.9760 N   0  0  0  0  0  0  0  0  0  0  0  0
  186.6120  177.7740  141.9400 C   0  0  2  0  0  0  0  0  0  0  0  0
  186.0930  177.9120  140.5210 C   0  0  0  0  0  1  0  0  0  0  0  0
  187.1730  179.0080  142.3170 O   0  0  0  0  0  1  0  0  0  0  0  0
  185.5060  177.3880  142.7540 O   0  0  0  0  0  0  0  0  0  0  0  0
  184.3400  178.1080  142.4500 C   0  0  0  0  0  1  0  0  0  0  0  0
  191.8590  174.0090  137.3600 N   0  0  0  0  0  2  0  0  0  0  0  0
  190.4600  173.8430  137.4500 N   0  0  0  0  0  2  0  0  0  0  0  0
  191.4640  172.1760  138.8320 C   0  0  0  0  0  2  0  0  0  0  0  0
  190.1970  172.5860  138.1460 C   0  0  1  0  0  3  0  0  0  0  0  0
  192.4900  172.8410  137.9700 C   0  0  2  0  0  3  0  0  0  0  0  0
  189.0850  172.7510  139.1220 C   0  0  0  0  0  0  0  0  0  0  0  0
  187.9420  173.0840  138.7150 O   0  0  0  0  0  0  0  0  0  0  0  0
  189.3020  172.5600  140.4830 O   0  0  0  0  0  1  0  0  0  0  0  0
  195.5810  171.4390  137.4740 N   0  0  0  0  0  2  0  0  0  0  0  0
  197.3280  173.0250  138.0840 C   0  0  0  0  0  2  0  0  0  0  0  0
  197.9400  175.3900  137.4700 C   0  0  0  0  0  2  0  0  0  0  0  0
  196.9860  175.4770  136.2880 C   0  0  0  0  0  2  0  0  0  0  0  0
  196.1150  173.1470  135.8230 C   0  0  0  0  0  2  0  0  0  0  0  0
  196.0220  172.8150  137.3210 C   0  0  0  0  0  3  0  0  0  0  0  0
  197.4220  174.4670  138.5620 C   0  0  0  0  0  2  0  0  0  0  0  0
  197.1190  174.2270  135.4280 C   0  0  0  0  0  2  0  0  0  0  0  0
  1 13  1  0  0  0  0
  1  9  1  1  0  0  0
  2 57  1  6  0  0  0
  2 12  1  0  0  0  0
  2 13  1  0  0  0  0
  3 14  1  0  0  0  0
  4 18  1  6  0  0  0
  4  5  1  0  0  0  0
  4 14  1  0  0  0  0
  5 17  1  0  0  0  0
  5 28  1  0  0  0  0
  6 34  1  0  0  0  0
  7 16  1  0  0  0  0
  8 23  1  0  0  0  0
  8 16  1  0  0  0  0
  9  8  1  0  0  0  0
 10 29  1  0  0  0  0
 10  6  2  0  0  0  0
 11 27  1  0  0  0  0
 12 13  1  0  0  0  0
 13 15  1  0  0  0  0
 14 20  1  0  0  0  0
 14 24  1  0  0  0  0
 15 23  1  0  0  0  0
 15 18  2  0  0  0  0
 16 25  1  0  0  0  0
 17 28  1  0  0  0  0
 19 29  1  0  0  0  0
 20 22  1  0  0  0  0
 21 27  1  0  0  0  0
 25 21  1  0  0  0  0
 26 17  1  0  0  0  0
 26 22  1  0  0  0  0
 27 10  1  0  0  0  0
 28 29  1  0  0  0  0
 30 32  2  0  0  0  0
 32 33  1  0  0  0  0
 33 31  1  0  0  0  0
 34 32  1  0  0  0  0
 35 40  1  0  0  0  0
 36 41  2  0  0  0  0
 37 35  2  0  0  0  0
 37 36  1  0  0  0  0
 38 34  1  0  0  0  0
 40 38  2  0  0  0  0
 41 38  1  0  0  0  0
 41 39  1  0  0  0  0
 42 43  1  0  0  0  0
 43 37  1  0  0  0  0
 44 43  1  0  0  0  0
 44 46  1  0  0  0  0
 44 47  1  0  0  0  0
 45 44  1  0  0  0  0
 48 47  1  0  0  0  0
 49 50  1  0  0  0  0
 49 53  1  0  0  0  0
 50 52  1  0  0  0  0
 52 51  1  0  0  0  0
 52 54  1  0  0  0  0
 53  1  1  0  0  0  0
 53 51  1  0  0  0  0
 54 56  1  0  0  0  0
 55 54  2  0  0  0  0
 58 63  1  0  0  0  0
 59 63  1  0  0  0  0
 60 59  1  0  0  0  0
 61 62  1  0  0  0  0
 62 57  1  0  0  0  0
 62 58  1  0  0  0  0
 64 61  1  0  0  0  0
 64 60  1  0  0  0  0
M  END
>  <MODEL>
6

>  <REMARK>
 VINA RESULT:      -7.0      2.999      8.836
  Name = 
  9 active torsions:
  status: ('A' for Active; 'I' for Inactive)
    1  A    between atoms: C_1  and  C_53
    2  A    between atoms: C_2  and  N_43
    3  A    between atoms: O_10  and  C_20
    4  A    between atoms: C_11  and  C_37
    5  A    between atoms: C_13  and  N_39
    6  A    between atoms: C_14  and  N_54
    7  A    between atoms: C_16  and  N_54
    8  A    between atoms: C_20  and  N_39
    9  A    between atoms: N_43  and  C_51
                            x       y       z     vdW  Elec       q    Type
                         _______ _______ _______ _____ _____    ______ ____

>  <TORSDO>
F 9

$$$$
=
 OpenBabel11072409193D

 64 71  0  0  1  0  0  0  0  0999 V2000
  190.9190  175.0500  143.3550 C   0  0  1  0  0  3  0  0  0  0  0  0
  188.6980  175.7140  142.1120 C   0  0  2  0  0  3  0  0  0  0  0  0
  188.1310  173.8370  137.6280 F   0  0  0  0  0  0  0  0  0  0  0  0
  190.2460  173.5240  138.6390 C   0  0  1  0  0  3  0  0  0  0  0  0
  191.6860  172.9300  138.6510 C   0  0  1  0  0  3  0  0  0  0  0  0
  194.7600  170.3600  138.0920 C   0  0  0  0  0  3  0  0  0  0  0  0
  195.1540  175.1860  141.9780 C   0  0  0  0  0  1  0  0  0  0  0  0
  192.6780  175.2730  141.5310 C   0  0  1  0  0  3  0  0  0  0  0  0
  192.3330  174.6870  142.9040 C   0  0  0  0  0  2  0  0  0  0  0  0
  194.5510  171.6820  138.0360 C   0  0  0  0  0  0  0  0  0  0  0  0
  195.2610  174.0060  138.2840 O   0  0  0  0  0  1  0  0  0  0  0  0
  188.4690  174.2910  142.5980 C   0  0  0  0  0  2  0  0  0  0  0  0
  189.8790  174.7420  142.2400 C   0  0  2  0  0  0  0  0  0  0  0  0
  189.1600  172.9210  137.7240 C   0  0  0  0  0  0  0  0  0  0  0  0
  190.4210  174.4620  140.8700 C   0  0  0  0  0  0  0  0  0  0  0  0
  194.0320  174.7590  141.0390 C   0  0  2  0  0  3  0  0  0  0  0  0
  191.8650  171.4670  139.0680 C   0  0  1  0  0  3  0  0  0  0  0  0
  189.7430  173.7830  139.9910 N   0  0  0  0  0  0  0  0  0  0  0  0
  193.5930  173.2840  136.4450 O   0  0  0  0  0  1  0  0  0  0  0  0
  188.5770  171.6230  138.2810 C   0  0  0  0  0  2  0  0  0  0  0  0
  195.3040  172.6790  140.2930 C   0  0  0  0  0  2  0  0  0  0  0  0
  189.5840  170.4910  138.3330 C   0  0  0  0  0  2  0  0  0  0  0  0
  191.6930  174.9450  140.5520 O   0  0  0  0  0  0  0  0  0  0  0  0
  189.6510  172.7090  136.4490 F   0  0  0  0  0  0  0  0  0  0  0  0
  194.0060  173.2370  140.8570 C   0  0  0  0  0  2  0  0  0  0  0  0
  190.5740  170.7320  139.4660 C   0  0  0  0  0  2  0  0  0  0  0  0
  195.4140  172.7020  138.7650 C   0  0  1  0  0  3  0  0  0  0  0  0
  191.9760  171.8830  137.5980 C   0  0  2  0  0  3  0  0  0  0  0  0
  193.4210  172.0610  137.0940 C   0  0  2  0  0  3  0  0  0  0  0  0
  197.9410  168.8600  138.5230 O   0  0  0  0  0  0  0  0  0  0  0  0
  195.2580  168.1660  136.3440 O   0  0  0  0  0  1  0  0  0  0  0  0
  196.7830  168.9750  138.0480 C   0  0  0  0  0  0  0  0  0  0  0  0
  196.5180  168.4480  136.7430 N   0  0  0  0  0  2  0  0  0  0  0  0
  195.7490  169.6070  138.8230 N   0  0  0  0  0  0  0  0  0  0  0  0
  197.0650  169.9870  142.3060 C   0  0  0  0  0  3  0  0  0  0  0  0
  194.9220  168.8840  142.4010 C   0  0  0  0  0  3  0  0  0  0  0  0
  196.0410  169.4020  143.0670 C   0  0  0  0  0  0  0  0  0  0  0  0
  195.8370  169.5590  140.2580 C   0  0  0  0  0  0  0  0  0  0  0  0
  193.5950  168.3940  140.3560 C   0  0  0  0  0  1  0  0  0  0  0  0
  196.9670  170.0700  140.9140 C   0  0  0  0  0  3  0  0  0  0  0  0
  194.8170  168.9420  141.0100 C   0  0  0  0  0  0  0  0  0  0  0  0
  196.7180  168.1660  145.1280 C   0  0  0  0  0  1  0  0  0  0  0  0
  196.1200  169.3450  144.5080 N   0  0  0  0  0  0  0  0  0  0  0  0
  195.6160  170.4320  145.3740 C   0  0  2  0  0  0  0  0  0  0  0  0
  196.5890  171.5970  145.3300 C   0  0  0  0  0  1  0  0  0  0  0  0
  195.5480  169.9760  146.7030 O   0  0  0  0  0  1  0  0  0  0  0  0
  194.3670  170.9130  144.8800 O   0  0  0  0  0  0  0  0  0  0  0  0
  194.0450  172.1840  145.3840 C   0  0  0  0  0  1  0  0  0  0  0  0
  189.3150  174.5140  145.1970 N   0  0  0  0  0  2  0  0  0  0  0  0
  189.3690  174.6410  146.6020 N   0  0  0  0  0  2  0  0  0  0  0  0
  191.6040  174.8290  145.7840 C   0  0  0  0  0  2  0  0  0  0  0  0
  190.7720  174.5910  147.0070 C   0  0  1  0  0  3  0  0  0  0  0  0
  190.6820  174.3500  144.7080 C   0  0  2  0  0  3  0  0  0  0  0  0
  191.0500  175.6130  148.0540 C   0  0  0  0  0  0  0  0  0  0  0  0
  191.6200  175.2720  149.1230 O   0  0  0  0  0  1  0  0  0  0  0  0
  190.6700  176.9390  147.8700 O   0  0  0  0  0  0  0  0  0  0  0  0
  188.6140  176.6510  143.2250 N   0  0  0  0  0  2  0  0  0  0  0  0
  187.1030  178.2700  144.2450 C   0  0  0  0  0  2  0  0  0  0  0  0
  184.6560  178.8400  144.0720 C   0  0  0  0  0  2  0  0  0  0  0  0
  184.4040  177.9970  142.8310 C   0  0  0  0  0  2  0  0  0  0  0  0
  186.6500  177.2670  141.9230 C   0  0  0  0  0  2  0  0  0  0  0  0
  187.2210  177.0490  143.3330 C   0  0  0  0  0  3  0  0  0  0  0  0
  185.7550  178.2610  144.9500 C   0  0  0  0  0  2  0  0  0  0  0  0
  185.4960  178.2590  141.8030 C   0  0  0  0  0  2  0  0  0  0  0  0
  1  9  1  6  0  0  0
  1 53  1  0  0  0  0
  2 13  1  0  0  0  0
  2 12  1  0  0  0  0
  2 57  1  1  0  0  0
  3 14  1  0  0  0  0
  4  5  1  0  0  0  0
  4 18  1  1  0  0  0
  5 17  1  0  0  0  0
  6 34  1  0  0  0  0
  8  9  1  0  0  0  0
 10  6  2  0  0  0  0
 10 27  1  0  0  0  0
 11 27  1  0  0  0  0
 13 12  1  0  0  0  0
 13  1  1  0  0  0  0
 14 20  1  0  0  0  0
 14  4  1  0  0  0  0
 15 13  1  0  0  0  0
 16  8  1  0  0  0  0
 16  7  1  0  0  0  0
 17 26  1  0  0  0  0
 18 15  2  0  0  0  0
 19 29  1  0  0  0  0
 20 22  1  0  0  0  0
 21 25  1  0  0  0  0
 22 26  1  0  0  0  0
 23 15  1  0  0  0  0
 23  8  1  0  0  0  0
 24 14  1  0  0  0  0
 25 16  1  0  0  0  0
 27 21  1  0  0  0  0
 28  5  1  0  0  0  0
 28 17  1  0  0  0  0
 29 28  1  0  0  0  0
 29 10  1  0  0  0  0
 31 33  1  0  0  0  0
 32 30  2  0  0  0  0
 32 34  1  0  0  0  0
 33 32  1  0  0  0  0
 34 38  1  0  0  0  0
 35 37  1  0  0  0  0
 36 37  2  0  0  0  0
 37 43  1  0  0  0  0
 38 40  1  0  0  0  0
 38 41  2  0  0  0  0
 39 41  1  0  0  0  0
 40 35  2  0  0  0  0
 41 36  1  0  0  0  0
 43 42  1  0  0  0  0
 43 44  1  0  0  0  0
 44 46  1  0  0  0  0
 45 44  1  0  0  0  0
 47 44  1  0  0  0  0
 47 48  1  0  0  0  0
 49 50  1  0  0  0  0
 50 52  1  0  0  0  0
 51 52  1  0  0  0  0
 52 54  1  0  0  0  0
 53 49  1  0  0  0  0
 53 51  1  0  0  0  0
 54 55  1  0  0  0  0
 56 54  2  0  0  0  0
 57 62  1  0  0  0  0
 58 63  1  0  0  0  0
 59 63  1  0  0  0  0
 60 59  1  0  0  0  0
 61 62  1  0  0  0  0
 62 58  1  0  0  0  0
 64 61  1  0  0  0  0
 64 60  1  0  0  0  0
M  END
>  <MODEL>
7

>  <REMARK>
 VINA RESULT:      -6.6      3.436      7.141
  Name = 
  9 active torsions:
  status: ('A' for Active; 'I' for Inactive)
    1  A    between atoms: C_1  and  C_53
    2  A    between atoms: C_2  and  N_43
    3  A    between atoms: O_10  and  C_20
    4  A    between atoms: C_11  and  C_37
    5  A    between atoms: C_13  and  N_39
    6  A    between atoms: C_14  and  N_54
    7  A    between atoms: C_16  and  N_54
    8  A    between atoms: C_20  and  N_39
    9  A    between atoms: N_43  and  C_51
                            x       y       z     vdW  Elec       q    Type
                         _______ _______ _______ _____ _____    ______ ____

>  <TORSDO>
F 9

$$$$
=
 OpenBabel11072409193D

 64 71  0  0  1  0  0  0  0  0999 V2000
  191.2900  175.9800  144.3470 C   0  0  1  0  0  3  0  0  0  0  0  0
  188.8990  176.4770  143.3690 C   0  0  2  0  0  3  0  0  0  0  0  0
  187.7820  174.1600  139.2060 F   0  0  0  0  0  0  0  0  0  0  0  0
  190.0250  173.9880  139.9360 C   0  0  1  0  0  3  0  0  0  0  0  0
  191.4710  173.4250  139.8030 C   0  0  1  0  0  3  0  0  0  0  0  0
  194.5210  170.8710  139.0630 C   0  0  0  0  0  3  0  0  0  0  0  0
  195.2890  176.0600  142.3840 C   0  0  0  0  0  1  0  0  0  0  0  0
  192.7730  176.0570  142.2820 C   0  0  1  0  0  3  0  0  0  0  0  0
  192.6400  175.6010  143.7380 C   0  0  0  0  0  2  0  0  0  0  0  0
  194.2630  172.1770  138.9140 C   0  0  0  0  0  0  0  0  0  0  0  0
  194.9250  174.5270  138.8390 O   0  0  0  0  0  1  0  0  0  0  0  0
  188.7850  175.1040  144.0150 C   0  0  0  0  0  2  0  0  0  0  0  0
  190.1170  175.5450  143.4220 C   0  0  2  0  0  0  0  0  0  0  0  0
  188.8430  173.2780  139.2430 C   0  0  0  0  0  0  0  0  0  0  0  0
  190.4750  175.1420  142.0220 C   0  0  0  0  0  0  0  0  0  0  0  0
  194.0630  175.5230  141.6550 C   0  0  2  0  0  3  0  0  0  0  0  0
  191.7530  172.0140  140.3260 C   0  0  1  0  0  3  0  0  0  0  0  0
  189.7040  174.3690  141.3140 N   0  0  0  0  0  0  0  0  0  0  0  0
  193.0450  173.5980  137.3280 O   0  0  0  0  0  1  0  0  0  0  0  0
  188.3840  172.0300  139.9950 C   0  0  0  0  0  2  0  0  0  0  0  0
  195.2870  173.4040  140.9390 C   0  0  0  0  0  2  0  0  0  0  0  0
  189.4260  170.9280  140.0120 C   0  0  0  0  0  2  0  0  0  0  0  0
  191.6740  175.6160  141.4850 O   0  0  0  0  0  0  0  0  0  0  0  0
  189.1610  172.9520  137.9370 F   0  0  0  0  0  0  0  0  0  0  0  0
  194.0620  173.9900  141.6230 C   0  0  0  0  0  2  0  0  0  0  0  0
  190.5530  171.2970  140.9680 C   0  0  0  0  0  2  0  0  0  0  0  0
  195.1850  173.2800  139.4150 C   0  0  1  0  0  3  0  0  0  0  0  0
  191.6480  172.2860  138.8220 C   0  0  2  0  0  3  0  0  0  0  0  0
  193.0030  172.4410  138.1070 C   0  0  2  0  0  3  0  0  0  0  0  0
  197.9410  170.0450  139.4760 O   0  0  0  0  0  0  0  0  0  0  0  0
  195.5930  169.2700  136.9650 O   0  0  0  0  0  1  0  0  0  0  0  0
  196.8100  170.0040  138.9290 C   0  0  0  0  0  0  0  0  0  0  0  0
  196.7330  169.7270  137.5270 N   0  0  0  0  0  2  0  0  0  0  0  0
  195.6250  170.2120  139.7170 N   0  0  0  0  0  0  0  0  0  0  0  0
  196.7130  170.0370  143.2940 C   0  0  0  0  0  3  0  0  0  0  0  0
  194.7740  168.6320  143.0020 C   0  0  0  0  0  3  0  0  0  0  0  0
  195.7640  169.1590  143.8410 C   0  0  0  0  0  0  0  0  0  0  0  0
  195.6580  169.8750  141.1150 C   0  0  0  0  0  0  0  0  0  0  0  0
  193.6320  168.3950  140.8060 C   0  0  0  0  0  1  0  0  0  0  0  0
  196.6610  170.3980  141.9440 C   0  0  0  0  0  3  0  0  0  0  0  0
  194.7200  168.9680  141.6470 C   0  0  0  0  0  0  0  0  0  0  0  0
  196.9870  168.1660  145.7790 C   0  0  0  0  0  1  0  0  0  0  0  0
  195.7910  168.8100  145.2430 N   0  0  0  0  0  0  0  0  0  0  0  0
  194.6530  169.0770  146.1480 C   0  0  2  0  0  0  0  0  0  0  0  0
  194.7530  168.1660  147.3570 C   0  0  0  0  0  1  0  0  0  0  0  0
  193.4500  168.7820  145.4820 O   0  0  0  0  0  1  0  0  0  0  0  0
  194.7150  170.4190  146.6300 O   0  0  0  0  0  0  0  0  0  0  0  0
  194.3650  171.3580  145.6470 C   0  0  0  0  0  1  0  0  0  0  0  0
  189.9070  175.1910  146.2740 N   0  0  0  0  0  2  0  0  0  0  0  0
  189.8930  175.4980  147.6520 N   0  0  0  0  0  2  0  0  0  0  0  0
  191.9660  176.2860  146.7690 C   0  0  0  0  0  2  0  0  0  0  0  0
  191.2310  175.9470  148.0300 C   0  0  1  0  0  3  0  0  0  0  0  0
  191.2640  175.4120  145.7790 C   0  0  2  0  0  3  0  0  0  0  0  0
  191.1510  177.1240  148.9380 C   0  0  0  0  0  0  0  0  0  0  0  0
  191.7660  177.1080  150.0360 O   0  0  0  0  0  1  0  0  0  0  0  0
  190.3870  178.2350  148.5950 O   0  0  0  0  0  0  0  0  0  0  0  0
  188.9390  177.5170  144.3900 N   0  0  0  0  0  2  0  0  0  0  0  0
  187.6950  177.9850  146.4330 C   0  0  0  0  0  2  0  0  0  0  0  0
  185.2730  178.2450  147.0750 C   0  0  0  0  0  2  0  0  0  0  0  0
  184.7570  178.3100  145.6450 C   0  0  0  0  0  2  0  0  0  0  0  0
  186.7550  178.5590  144.1120 C   0  0  0  0  0  2  0  0  0  0  0  0
  187.6040  177.5970  144.9590 C   0  0  0  0  0  3  0  0  0  0  0  0
  186.5230  177.3870  147.1990 C   0  0  0  0  0  2  0  0  0  0  0  0
  185.6140  179.2720  144.8340 C   0  0  0  0  0  2  0  0  0  0  0  0
  1  9  1  6  0  0  0
  1 53  1  0  0  0  0
  2 13  1  0  0  0  0
  2 12  1  0  0  0  0
  2 57  1  1  0  0  0
  3 14  1  0  0  0  0
  4 18  1  1  0  0  0
  5  4  1  0  0  0  0
  5 17  1  0  0  0  0
  6 34  1  0  0  0  0
  8  9  1  0  0  0  0
 10  6  2  0  0  0  0
 10 27  1  0  0  0  0
 11 27  1  0  0  0  0
 13 12  1  0  0  0  0
 13  1  1  0  0  0  0
 14  4  1  0  0  0  0
 14 20  1  0  0  0  0
 15 13  1  0  0  0  0
 16  8  1  0  0  0  0
 16  7  1  0  0  0  0
 17 26  1  0  0  0  0
 18 15  2  0  0  0  0
 19 29  1  0  0  0  0
 20 22  1  0  0  0  0
 21 25  1  0  0  0  0
 22 26  1  0  0  0  0
 23 15  1  0  0  0  0
 23  8  1  0  0  0  0
 24 14  1  0  0  0  0
 25 16  1  0  0  0  0
 27 21  1  0  0  0  0
 28  5  1  0  0  0  0
 28 17  1  0  0  0  0
 29 28  1  0  0  0  0
 29 10  1  0  0  0  0
 31 33  1  0  0  0  0
 32 30  2  0  0  0  0
 32 34  1  0  0  0  0
 33 32  1  0  0  0  0
 34 38  1  0  0  0  0
 35 37  1  0  0  0  0
 36 37  2  0  0  0  0
 37 43  1  0  0  0  0
 38 41  2  0  0  0  0
 38 40  1  0  0  0  0
 39 41  1  0  0  0  0
 40 35  2  0  0  0  0
 41 36  1  0  0  0  0
 43 42  1  0  0  0  0
 43 44  1  0  0  0  0
 44 47  1  0  0  0  0
 44 45  1  0  0  0  0
 46 44  1  0  0  0  0
 48 47  1  0  0  0  0
 49 50  1  0  0  0  0
 50 52  1  0  0  0  0
 51 52  1  0  0  0  0
 52 54  1  0  0  0  0
 53 49  1  0  0  0  0
 53 51  1  0  0  0  0
 54 55  1  0  0  0  0
 56 54  2  0  0  0  0
 57 62  1  0  0  0  0
 58 63  1  0  0  0  0
 59 63  1  0  0  0  0
 60 59  1  0  0  0  0
 61 64  1  0  0  0  0
 61 62  1  0  0  0  0
 62 58  1  0  0  0  0
 64 60  1  0  0  0  0
M  END
>  <MODEL>
8

>  <REMARK>
 VINA RESULT:      -6.5      3.323      7.258
  Name = 
  9 active torsions:
  status: ('A' for Active; 'I' for Inactive)
    1  A    between atoms: C_1  and  C_53
    2  A    between atoms: C_2  and  N_43
    3  A    between atoms: O_10  and  C_20
    4  A    between atoms: C_11  and  C_37
    5  A    between atoms: C_13  and  N_39
    6  A    between atoms: C_14  and  N_54
    7  A    between atoms: C_16  and  N_54
    8  A    between atoms: C_20  and  N_39
    9  A    between atoms: N_43  and  C_51
                            x       y       z     vdW  Elec       q    Type
                         _______ _______ _______ _____ _____    ______ ____

>  <TORSDO>
F 9

$$$$
=
 OpenBabel11072409193D

 64 71  0  0  1  0  0  0  0  0999 V2000
  192.8550  171.7370  141.4920 C   0  0  1  0  0  3  0  0  0  0  0  0
  195.3850  172.4120  141.7350 C   0  0  2  0  0  3  0  0  0  0  0  0
  196.2590  176.5050  144.2730 F   0  0  0  0  0  0  0  0  0  0  0  0
  193.9960  176.0470  143.7640 C   0  0  1  0  0  3  0  0  0  0  0  0
  192.4740  176.3680  143.8650 C   0  0  1  0  0  3  0  0  0  0  0  0
  188.9150  177.5530  145.3820 C   0  0  0  0  0  3  0  0  0  0  0  0
  189.3320  174.1450  140.2080 C   0  0  0  0  0  1  0  0  0  0  0  0
  191.7250  173.9560  140.9680 C   0  0  1  0  0  3  0  0  0  0  0  0
  191.5380  172.5130  141.4460 C   0  0  0  0  0  2  0  0  0  0  0  0
  189.5670  177.6210  144.2130 C   0  0  0  0  0  0  0  0  0  0  0  0
  189.6510  177.6800  141.7730 O   0  0  0  0  0  1  0  0  0  0  0  0
  195.0050  171.8120  143.0810 C   0  0  0  0  0  2  0  0  0  0  0  0
  193.9480  172.5370  142.2590 C   0  0  2  0  0  0  0  0  0  0  0  0
  194.9860  176.6250  144.7950 C   0  0  0  0  0  0  0  0  0  0  0  0
  193.6590  173.9830  142.5310 C   0  0  0  0  0  0  0  0  0  0  0  0
  190.4210  174.7470  141.0880 C   0  0  2  0  0  3  0  0  0  0  0  0
  191.7230  175.9350  145.1270 C   0  0  1  0  0  3  0  0  0  0  0  0
  194.2450  174.6260  143.5000 N   0  0  0  0  0  0  0  0  0  0  0  0
  191.3380  178.9990  143.2210 O   0  0  0  0  0  1  0  0  0  0  0  0
  194.9570  175.8730  146.1240 C   0  0  0  0  0  2  0  0  0  0  0  0
  188.7180  175.6820  142.7390 C   0  0  0  0  0  2  0  0  0  0  0  0
  193.6400  176.0200  146.8620 C   0  0  0  0  0  2  0  0  0  0  0  0
  192.7310  174.6370  141.7170 O   0  0  0  0  0  0  0  0  0  0  0  0
  194.7470  177.9700  145.0080 F   0  0  0  0  0  0  0  0  0  0  0  0
  189.9690  174.8380  142.5510 C   0  0  0  0  0  2  0  0  0  0  0  0
  192.5660  175.1870  146.1730 C   0  0  0  0  0  2  0  0  0  0  0  0
  188.9630  177.1880  142.8850 C   0  0  1  0  0  3  0  0  0  0  0  0
  192.0870  177.4050  144.8960 C   0  0  2  0  0  3  0  0  0  0  0  0
  190.9370  178.2660  144.3390 C   0  0  2  0  0  3  0  0  0  0  0  0
  186.4170  176.2350  147.5210 O   0  0  0  0  0  0  0  0  0  0  0  0
  189.4610  174.9200  146.3240 O   0  0  0  0  0  1  0  0  0  0  0  0
  187.4690  176.2070  146.8330 C   0  0  0  0  0  0  0  0  0  0  0  0
  188.5130  175.3020  147.2080 N   0  0  0  0  0  2  0  0  0  0  0  0
  187.5940  177.0570  145.6790 N   0  0  0  0  0  0  0  0  0  0  0  0
  184.8240  177.1550  143.1640 C   0  0  0  0  0  3  0  0  0  0  0  0
  184.5500  178.9990  144.6950 C   0  0  0  0  0  3  0  0  0  0  0  0
  184.0990  178.2830  143.5790 C   0  0  0  0  0  0  0  0  0  0  0  0
  186.4000  177.4570  144.9840 C   0  0  0  0  0  0  0  0  0  0  0  0
  186.1190  179.3950  146.5830 C   0  0  0  0  0  1  0  0  0  0  0  0
  185.9640  176.7400  143.8600 C   0  0  0  0  0  3  0  0  0  0  0  0
  185.6970  178.6080  145.3900 C   0  0  0  0  0  0  0  0  0  0  0  0
  181.8290  179.3240  143.6560 C   0  0  0  0  0  1  0  0  0  0  0  0
  182.9010  178.6970  142.8860 N   0  0  0  0  0  0  0  0  0  0  0  0
  182.7200  178.5040  141.4310 C   0  0  2  0  0  0  0  0  0  0  0  0
  181.6390  179.4470  140.9340 C   0  0  0  0  0  1  0  0  0  0  0  0
  182.2900  177.1870  141.1860 O   0  0  0  0  0  1  0  0  0  0  0  0
  183.9200  178.8420  140.7390 O   0  0  0  0  0  0  0  0  0  0  0  0
  184.2930  177.8630  139.8040 C   0  0  0  0  0  1  0  0  0  0  0  0
  191.7280  170.3780  143.2620 N   0  0  0  0  0  2  0  0  0  0  0  0
  192.1570  169.3300  144.1050 N   0  0  0  0  0  2  0  0  0  0  0  0
  193.7600  169.5320  142.3480 C   0  0  0  0  0  2  0  0  0  0  0  0
  193.2600  168.6390  143.4410 C   0  0  1  0  0  3  0  0  0  0  0  0
  192.5350  170.3350  142.0450 C   0  0  2  0  0  3  0  0  0  0  0  0
  194.3410  168.3240  144.4160 C   0  0  0  0  0  0  0  0  0  0  0  0
  195.5210  168.1660  144.0090 O   0  0  0  0  0  0  0  0  0  0  0  0
  194.0570  168.1850  145.7710 O   0  0  0  0  0  1  0  0  0  0  0  0
  195.5340  171.3640  140.7340 N   0  0  0  0  0  2  0  0  0  0  0  0
  195.0760  172.6050  138.6870 C   0  0  0  0  0  2  0  0  0  0  0  0
  196.4400  173.7490  136.9050 C   0  0  0  0  0  2  0  0  0  0  0  0
  197.7510  173.6870  137.6720 C   0  0  0  0  0  2  0  0  0  0  0  0
  197.2280  172.9710  140.0420 C   0  0  0  0  0  2  0  0  0  0  0  0
  196.1520  171.9790  139.5720 C   0  0  0  0  0  3  0  0  0  0  0  0
  195.5240  172.5800  137.2320 C   0  0  0  0  0  2  0  0  0  0  0  0
  197.5280  174.1400  139.1080 C   0  0  0  0  0  2  0  0  0  0  0  0
  1  9  1  1  0  0  0
  1 53  1  0  0  0  0
  1 13  1  0  0  0  0
  2 57  1  6  0  0  0
  2 13  1  0  0  0  0
  2 12  1  0  0  0  0
  3 14  1  0  0  0  0
  4 18  1  1  0  0  0
  4  5  1  0  0  0  0
  4 14  1  0  0  0  0
  5 28  1  0  0  0  0
  5 17  1  0  0  0  0
  6 34  1  0  0  0  0
  7 16  1  0  0  0  0
  8 16  1  0  0  0  0
  8  9  1  0  0  0  0
  8 23  1  0  0  0  0
 10 29  1  0  0  0  0
 10  6  2  0  0  0  0
 11 27  1  0  0  0  0
 13 15  1  0  0  0  0
 13 12  1  0  0  0  0
 14 24  1  0  0  0  0
 14 20  1  0  0  0  0
 15 18  2  0  0  0  0
 16 25  1  0  0  0  0
 17 26  1  0  0  0  0
 19 29  1  0  0  0  0
 20 22  1  0  0  0  0
 21 27  1  0  0  0  0
 23 15  1  0  0  0  0
 25 21  1  0  0  0  0
 26 22  1  0  0  0  0
 27 10  1  0  0  0  0
 28 17  1  0  0  0  0
 29 28  1  0  0  0  0
 31 33  1  0  0  0  0
 32 33  1  0  0  0  0
 32 30  2  0  0  0  0
 34 32  1  0  0  0  0
 35 37  2  0  0  0  0
 35 40  1  0  0  0  0
 36 41  2  0  0  0  0
 37 36  1  0  0  0  0
 38 41  1  0  0  0  0
 38 34  1  0  0  0  0
 40 38  2  0  0  0  0
 41 39  1  0  0  0  0
 43 37  1  0  0  0  0
 43 42  1  0  0  0  0
 44 43  1  0  0  0  0
 45 44  1  0  0  0  0
 46 44  1  0  0  0  0
 47 44  1  0  0  0  0
 48 47  1  0  0  0  0
 49 50  1  0  0  0  0
 51 52  1  0  0  0  0
 52 50  1  0  0  0  0
 52 54  1  0  0  0  0
 53 51  1  0  0  0  0
 53 49  1  0  0  0  0
 54 56  1  0  0  0  0
 55 54  2  0  0  0  0
 58 62  1  0  0  0  0
 59 63  1  0  0  0  0
 59 60  1  0  0  0  0
 60 64  1  0  0  0  0
 62 61  1  0  0  0  0
 62 57  1  0  0  0  0
 63 58  1  0  0  0  0
 64 61  1  0  0  0  0
M  END
>  <MODEL>
9

>  <REMARK>
 VINA RESULT:      -6.2      3.021     10.212
  Name = 
  9 active torsions:
  status: ('A' for Active; 'I' for Inactive)
    1  A    between atoms: C_1  and  C_53
    2  A    between atoms: C_2  and  N_43
    3  A    between atoms: O_10  and  C_20
    4  A    between atoms: C_11  and  C_37
    5  A    between atoms: C_13  and  N_39
    6  A    between atoms: C_14  and  N_54
    7  A    between atoms: C_16  and  N_54
    8  A    between atoms: C_20  and  N_39
    9  A    between atoms: N_43  and  C_51
                            x       y       z     vdW  Elec       q    Type
                         _______ _______ _______ _____ _____    ______ ____

>  <TORSDO>
F 9

$$$$
