=
 OpenBabel11062421423D

 41 46  0  0  1  0  0  0  0  0999 V2000
  194.3450  175.0630  140.3660 C   0  0  0  0  0  2  0  0  0  0  0  0
  193.3830  174.7800  141.5240 C   0  0  2  0  0  3  0  0  0  0  0  0
  189.7260  172.9820  140.1260 C   0  0  0  0  0  3  0  0  0  0  0  0
  190.9190  172.7980  139.4240 C   0  0  0  0  0  3  0  0  0  0  0  0
  192.0740  174.2290  141.0130 C   0  0  0  0  0  0  0  0  0  0  0  0
  194.3840  173.9240  139.3760 C   0  0  0  0  0  0  0  0  0  0  0  0
  189.6910  173.7820  141.2760 C   0  0  0  0  0  0  0  0  0  0  0  0
  193.3130  173.2250  139.1370 N   0  0  0  0  0  0  0  0  0  0  0  0
  192.0920  173.4190  139.8610 C   0  0  0  0  0  0  0  0  0  0  0  0
  190.8750  174.3900  141.7220 C   0  0  0  0  0  3  0  0  0  0  0  0
  195.5600  173.6810  138.6020 N   0  0  0  0  0  2  0  0  0  0  0  0
  197.7590  173.7010  139.6080 C   0  0  0  0  0  2  0  0  0  0  0  0
  196.7730  174.4670  138.7510 C   0  0  0  0  0  3  0  0  0  0  0  0
  197.9290  173.7330  138.1040 C   0  0  0  0  0  2  0  0  0  0  0  0
  188.4230  173.9780  142.0030 C   0  0  0  0  0  0  0  0  0  0  0  0
  187.5320  173.0840  141.9710 O   0  0  0  0  0  0  0  0  0  0  0  0
  188.1580  175.2460  142.7560 C   0  0  0  0  0  2  0  0  0  0  0  0
  187.3820  176.5850  141.0410 C   0  0  0  0  0  1  0  0  0  0  0  0
  186.9530  175.8980  142.2520 N   0  0  0  0  0  0  0  0  0  0  0  0
  185.2640  178.9350  142.6110 O   0  0  0  0  0  0  0  0  0  0  0  0
  186.0280  178.3590  145.8710 N   0  0  0  0  0  0  0  0  0  0  0  0
  187.1790  177.5500  145.5840 C   0  0  0  0  0  3  0  0  0  0  0  0
  185.5790  179.4290  144.9880 C   0  0  0  0  0  2  0  0  0  0  0  0
  184.6780  178.8640  143.8960 C   0  0  0  0  0  2  0  0  0  0  0  0
  186.5140  176.9090  143.2260 C   0  0  1  0  0  3  0  0  0  0  0  0
  187.4220  176.9260  144.4250 C   0  0  0  0  0  3  0  0  0  0  0  0
  186.5350  178.3140  142.6100 C   0  0  0  0  0  2  0  0  0  0  0  0
  185.5940  178.4230  147.2530 C   0  0  0  0  0  1  0  0  0  0  0  0
  193.1960  176.0330  142.3830 C   0  0  0  0  0  2  0  0  0  0  0  0
  194.8540  176.0400  144.2600 C   0  0  0  0  0  0  0  0  0  0  0  0
  192.5170  175.2660  144.7510 C   0  0  2  0  0  3  0  0  0  0  0  0
  192.9970  174.8570  146.1430 C   0  0  1  0  0  3  0  0  0  0  0  0
  193.5880  175.8110  143.8250 C   0  0  0  0  0  0  0  0  0  0  0  0
  195.9210  176.5430  143.3400 C   0  0  0  0  0  1  0  0  0  0  0  0
  190.7740  175.8740  146.3100 C   0  0  2  0  0  3  0  0  0  0  0  0
  194.1100  175.7760  146.6310 C   0  0  0  0  0  2  0  0  0  0  0  0
  191.7910  175.0180  147.0520 C   0  0  0  0  0  2  0  0  0  0  0  0
  195.2780  175.6980  145.6620 C   0  0  0  0  0  2  0  0  0  0  0  0
  191.4020  176.2640  144.9830 C   0  0  0  0  0  2  0  0  0  0  0  0
  191.2220  177.1320  148.2890 O   0  0  0  0  0  1  0  0  0  0  0  0
  190.4530  177.1120  147.1260 C   0  0  0  0  0  2  0  0  0  0  0  0
  1  2  1  0  0  0  0
  2 29  1  6  0  0  0
  3  7  1  0  0  0  0
  4  9  1  0  0  0  0
  4  3  2  0  0  0  0
  5  2  1  0  0  0  0
  5 10  1  0  0  0  0
  6  1  1  0  0  0  0
  7 10  2  0  0  0  0
  7 15  1  0  0  0  0
  8  6  2  0  0  0  0
  8  9  1  0  0  0  0
  9  5  2  0  0  0  0
 11 13  1  0  0  0  0
 11  6  1  0  0  0  0
 13 12  1  0  0  0  0
 14 13  1  0  0  0  0
 14 12  1  0  0  0  0
 15 17  1  0  0  0  0
 16 15  2  0  0  0  0
 18 19  1  0  0  0  0
 19 17  1  0  0  0  0
 20 24  1  0  0  0  0
 21 28  1  0  0  0  0
 22 21  1  0  0  0  0
 23 21  1  0  0  0  0
 24 23  1  0  0  0  0
 25 19  1  6  0  0  0
 25 26  1  0  0  0  0
 26 22  2  0  0  0  0
 27 20  1  0  0  0  0
 27 25  1  0  0  0  0
 29 33  1  0  0  0  0
 30 38  1  0  0  0  0
 31 39  1  1  0  0  0
 31 32  1  0  0  0  0
 32 36  1  1  0  0  0
 32 37  1  0  0  0  0
 33 30  2  0  0  0  0
 33 31  1  0  0  0  0
 34 30  1  0  0  0  0
 35 37  1  0  0  0  0
 35 41  1  1  0  0  0
 38 36  1  0  0  0  0
 39 35  1  0  0  0  0
 41 40  1  0  0  0  0
M  END
>  <MODEL>
1

>  <REMARK>
 VINA RESULT:      -7.8      0.000      0.000
  Name = 
  8 active torsions:
  status: ('A' for Active; 'I' for Inactive)
    1  A    between atoms: C_8  and  C_27
    2  A    between atoms: C_9  and  C_27
    3  A    between atoms: C_11  and  N_38
    4  A    between atoms: N_18  and  C_26
    5  A    between atoms: N_18  and  C_39
    6  A    between atoms: C_21  and  C_24
    7  A    between atoms: C_25  and  C_28
    8  A    between atoms: C_28  and  C_39
                            x       y       z     vdW  Elec       q    Type
                         _______ _______ _______ _____ _____    ______ ____

>  <TORSDO>
F 8

$$$$
=
 OpenBabel11062421423D

 41 46  0  0  1  0  0  0  0  0999 V2000
  193.8240  171.9080  143.7720 C   0  0  0  0  0  2  0  0  0  0  0  0
  192.6860  172.9210  143.9370 C   0  0  2  0  0  3  0  0  0  0  0  0
  189.3130  171.9140  141.4540 C   0  0  0  0  0  3  0  0  0  0  0  0
  190.1700  170.9160  141.9230 C   0  0  0  0  0  3  0  0  0  0  0  0
  191.5460  172.6050  143.0000 C   0  0  0  0  0  0  0  0  0  0  0  0
  193.3100  170.4900  143.7210 C   0  0  0  0  0  0  0  0  0  0  0  0
  189.5550  173.2610  141.7540 C   0  0  0  0  0  0  0  0  0  0  0  0
  192.1600  170.2270  143.1710 N   0  0  0  0  0  0  0  0  0  0  0  0
  191.2850  171.2560  142.6930 C   0  0  0  0  0  0  0  0  0  0  0  0
  190.6670  173.5970  142.5420 C   0  0  0  0  0  3  0  0  0  0  0  0
  194.1330  169.4080  144.1620 N   0  0  0  0  0  2  0  0  0  0  0  0
  195.3700  169.6460  146.2260 C   0  0  0  0  0  2  0  0  0  0  0  0
  195.4620  169.6090  144.7150 C   0  0  0  0  0  3  0  0  0  0  0  0
  195.8560  168.3940  145.5280 C   0  0  0  0  0  2  0  0  0  0  0  0
  188.6490  174.3070  141.2440 C   0  0  0  0  0  0  0  0  0  0  0  0
  188.6050  174.5570  140.0080 O   0  0  0  0  0  0  0  0  0  0  0  0
  187.7980  175.1090  142.1810 C   0  0  0  0  0  2  0  0  0  0  0  0
  189.1540  176.9470  142.5330 C   0  0  0  0  0  1  0  0  0  0  0  0
  187.9150  176.5330  141.8860 N   0  0  0  0  0  0  0  0  0  0  0  0
  184.8840  178.1640  141.2880 O   0  0  0  0  0  0  0  0  0  0  0  0
  185.0150  178.5010  144.6660 N   0  0  0  0  0  0  0  0  0  0  0  0
  186.4470  178.4270  144.7400 C   0  0  0  0  0  3  0  0  0  0  0  0
  184.3120  179.0330  143.5040 C   0  0  0  0  0  2  0  0  0  0  0  0
  184.1240  177.9390  142.4590 C   0  0  0  0  0  2  0  0  0  0  0  0
  186.7990  177.2470  142.5270 C   0  0  1  0  0  3  0  0  0  0  0  0
  187.2480  177.9030  143.8040 C   0  0  0  0  0  3  0  0  0  0  0  0
  186.2490  178.3470  141.6090 C   0  0  0  0  0  2  0  0  0  0  0  0
  184.2880  178.4820  145.9210 C   0  0  0  0  0  1  0  0  0  0  0  0
  193.2110  174.3480  143.7610 C   0  0  0  0  0  2  0  0  0  0  0  0
  194.1290  176.0940  145.3040 C   0  0  0  0  0  0  0  0  0  0  0  0
  192.1520  174.7550  146.0790 C   0  0  2  0  0  3  0  0  0  0  0  0
  192.3030  175.4160  147.4480 C   0  0  1  0  0  3  0  0  0  0  0  0
  193.2040  175.1310  145.0520 C   0  0  0  0  0  0  0  0  0  0  0  0
  195.1900  176.4420  144.3070 C   0  0  0  0  0  1  0  0  0  0  0  0
  189.9260  175.2430  146.8790 C   0  0  2  0  0  3  0  0  0  0  0  0
  192.8440  176.8350  147.3150 C   0  0  0  0  0  2  0  0  0  0  0  0
  190.8990  175.4780  148.0250 C   0  0  0  0  0  2  0  0  0  0  0  0
  194.2040  176.7840  146.6380 C   0  0  0  0  0  2  0  0  0  0  0  0
  190.7530  175.0970  145.6140 C   0  0  0  0  0  2  0  0  0  0  0  0
  187.6580  175.9920  146.8650 O   0  0  0  0  0  1  0  0  0  0  0  0
  188.9800  176.4240  146.7580 C   0  0  0  0  0  2  0  0  0  0  0  0
  1  2  1  0  0  0  0
  2 29  1  6  0  0  0
  3  7  2  0  0  0  0
  3  4  1  0  0  0  0
  4  9  2  0  0  0  0
  5  2  1  0  0  0  0
  6  1  1  0  0  0  0
  6 11  1  0  0  0  0
  7 10  1  0  0  0  0
  8  6  2  0  0  0  0
  9  5  1  0  0  0  0
  9  8  1  0  0  0  0
 10  5  2  0  0  0  0
 11 13  1  0  0  0  0
 13 14  1  0  0  0  0
 13 12  1  0  0  0  0
 14 12  1  0  0  0  0
 15  7  1  0  0  0  0
 15 17  1  0  0  0  0
 16 15  2  0  0  0  0
 19 17  1  0  0  0  0
 19 18  1  0  0  0  0
 20 27  1  0  0  0  0
 20 24  1  0  0  0  0
 21 22  1  0  0  0  0
 21 28  1  0  0  0  0
 23 21  1  0  0  0  0
 24 23  1  0  0  0  0
 25 19  1  6  0  0  0
 25 26  1  0  0  0  0
 26 22  2  0  0  0  0
 27 25  1  0  0  0  0
 29 33  1  0  0  0  0
 30 38  1  0  0  0  0
 31 39  1  6  0  0  0
 31 32  1  0  0  0  0
 32 36  1  6  0  0  0
 32 37  1  0  0  0  0
 33 30  2  0  0  0  0
 33 31  1  0  0  0  0
 34 30  1  0  0  0  0
 35 41  1  6  0  0  0
 35 37  1  0  0  0  0
 38 36  1  0  0  0  0
 39 35  1  0  0  0  0
 41 40  1  0  0  0  0
M  END
>  <MODEL>
2

>  <REMARK>
 VINA RESULT:      -7.8      2.819      3.397
  Name = 
  8 active torsions:
  status: ('A' for Active; 'I' for Inactive)
    1  A    between atoms: C_8  and  C_27
    2  A    between atoms: C_9  and  C_27
    3  A    between atoms: C_11  and  N_38
    4  A    between atoms: N_18  and  C_26
    5  A    between atoms: N_18  and  C_39
    6  A    between atoms: C_21  and  C_24
    7  A    between atoms: C_25  and  C_28
    8  A    between atoms: C_28  and  C_39
                            x       y       z     vdW  Elec       q    Type
                         _______ _______ _______ _____ _____    ______ ____

>  <TORSDO>
F 8

$$$$
=
 OpenBabel11062421423D

 41 46  0  0  1  0  0  0  0  0999 V2000
  185.5690  177.7070  142.0190 C   0  0  0  0  0  2  0  0  0  0  0  0
  186.4580  176.6190  142.6300 C   0  0  2  0  0  3  0  0  0  0  0  0
  186.8630  177.1260  146.8890 C   0  0  0  0  0  3  0  0  0  0  0  0
  185.7160  177.5730  146.2280 C   0  0  0  0  0  3  0  0  0  0  0  0
  186.6600  176.8570  144.1070 C   0  0  0  0  0  0  0  0  0  0  0  0
  184.3570  177.9870  142.8740 C   0  0  0  0  0  0  0  0  0  0  0  0
  187.9140  176.5380  146.1740 C   0  0  0  0  0  0  0  0  0  0  0  0
  184.4320  177.9020  144.1700 N   0  0  0  0  0  0  0  0  0  0  0  0
  185.6120  177.4420  144.8420 C   0  0  0  0  0  0  0  0  0  0  0  0
  187.7980  176.3920  144.7830 C   0  0  0  0  0  3  0  0  0  0  0  0
  183.1500  178.4680  142.2780 N   0  0  0  0  0  2  0  0  0  0  0  0
  182.1770  177.5410  140.2680 C   0  0  0  0  0  2  0  0  0  0  0  0
  183.0090  178.6660  140.8450 C   0  0  0  0  0  3  0  0  0  0  0  0
  181.5490  178.8960  140.5130 C   0  0  0  0  0  2  0  0  0  0  0  0
  189.1250  176.0780  146.8810 C   0  0  0  0  0  0  0  0  0  0  0  0
  189.0770  175.0510  147.6120 O   0  0  0  0  0  0  0  0  0  0  0  0
  190.4110  176.8380  146.7730 C   0  0  0  0  0  2  0  0  0  0  0  0
  192.1060  176.6980  148.3380 C   0  0  0  0  0  1  0  0  0  0  0  0
  191.5340  176.0040  147.1910 N   0  0  0  0  0  0  0  0  0  0  0  0
  194.9440  175.6620  146.5120 O   0  0  0  0  0  0  0  0  0  0  0  0
  193.8030  176.0520  143.3360 N   0  0  0  0  0  0  0  0  0  0  0  0
  192.6320  176.7900  143.7180 C   0  0  0  0  0  3  0  0  0  0  0  0
  195.0430  176.0890  144.1040 C   0  0  0  0  0  2  0  0  0  0  0  0
  194.9920  175.0640  145.2310 C   0  0  0  0  0  2  0  0  0  0  0  0
  192.5390  175.9820  146.1160 C   0  0  1  0  0  3  0  0  0  0  0  0
  192.0770  176.7910  144.9360 C   0  0  0  0  0  3  0  0  0  0  0  0
  193.8700  176.5770  146.5940 C   0  0  0  0  0  2  0  0  0  0  0  0
  193.9030  175.6450  141.9480 C   0  0  0  0  0  1  0  0  0  0  0  0
  187.7800  176.5160  141.8660 C   0  0  0  0  0  2  0  0  0  0  0  0
  188.0000  174.7050  140.1520 C   0  0  0  0  0  0  0  0  0  0  0  0
  188.4820  174.1290  142.5470 C   0  0  2  0  0  3  0  0  0  0  0  0
  188.5940  172.6650  142.1210 C   0  0  1  0  0  3  0  0  0  0  0  0
  188.1000  175.1010  141.4470 C   0  0  0  0  0  0  0  0  0  0  0  0
  187.5880  175.6530  139.0700 C   0  0  0  0  0  1  0  0  0  0  0  0
  190.3360  173.1760  143.7680 C   0  0  2  0  0  3  0  0  0  0  0  0
  189.1340  172.5470  140.7010 C   0  0  0  0  0  2  0  0  0  0  0  0
  189.5910  172.0400  143.0810 C   0  0  0  0  0  2  0  0  0  0  0  0
  188.1910  173.2680  139.7520 C   0  0  0  0  0  2  0  0  0  0  0  0
  189.8170  174.4730  143.1730 C   0  0  0  0  0  2  0  0  0  0  0  0
  192.3990  172.2000  144.4720 O   0  0  0  0  0  1  0  0  0  0  0  0
  191.8260  173.0380  143.5150 C   0  0  0  0  0  2  0  0  0  0  0  0
  1  2  1  0  0  0  0
  1  6  1  0  0  0  0
  2 29  1  6  0  0  0
  2  5  1  0  0  0  0
  4  3  1  0  0  0  0
  5 10  2  0  0  0  0
  5  9  1  0  0  0  0
  6  8  2  0  0  0  0
  7 15  1  0  0  0  0
  7  3  2  0  0  0  0
  8  9  1  0  0  0  0
  9  4  2  0  0  0  0
 10  7  1  0  0  0  0
 11  6  1  0  0  0  0
 12 14  1  0  0  0  0
 12 13  1  0  0  0  0
 13 11  1  0  0  0  0
 14 13  1  0  0  0  0
 15 16  2  0  0  0  0
 17 15  1  0  0  0  0
 17 19  1  0  0  0  0
 19 18  1  0  0  0  0
 20 27  1  0  0  0  0
 21 22  1  0  0  0  0
 21 23  1  0  0  0  0
 22 26  2  0  0  0  0
 23 24  1  0  0  0  0
 24 20  1  0  0  0  0
 25 27  1  0  0  0  0
 25 19  1  1  0  0  0
 26 25  1  0  0  0  0
 28 21  1  0  0  0  0
 30 33  2  0  0  0  0
 31 39  1  6  0  0  0
 32 36  1  6  0  0  0
 32 31  1  0  0  0  0
 32 37  1  0  0  0  0
 33 29  1  0  0  0  0
 33 31  1  0  0  0  0
 34 30  1  0  0  0  0
 35 41  1  6  0  0  0
 37 35  1  0  0  0  0
 38 30  1  0  0  0  0
 38 36  1  0  0  0  0
 39 35  1  0  0  0  0
 41 40  1  0  0  0  0
M  END
>  <MODEL>
3

>  <REMARK>
 VINA RESULT:      -7.7      2.796      8.812
  Name = 
  8 active torsions:
  status: ('A' for Active; 'I' for Inactive)
    1  A    between atoms: C_8  and  C_27
    2  A    between atoms: C_9  and  C_27
    3  A    between atoms: C_11  and  N_38
    4  A    between atoms: N_18  and  C_26
    5  A    between atoms: N_18  and  C_39
    6  A    between atoms: C_21  and  C_24
    7  A    between atoms: C_25  and  C_28
    8  A    between atoms: C_28  and  C_39
                            x       y       z     vdW  Elec       q    Type
                         _______ _______ _______ _____ _____    ______ ____

>  <TORSDO>
F 8

$$$$
=
 OpenBabel11062421423D

 41 46  0  0  1  0  0  0  0  0999 V2000
  189.1520  177.0300  144.7090 C   0  0  0  0  0  2  0  0  0  0  0  0
  190.1700  175.9870  144.2390 C   0  0  2  0  0  3  0  0  0  0  0  0
  193.8130  176.2030  146.5290 C   0  0  0  0  0  3  0  0  0  0  0  0
  192.5960  176.5890  147.0950 C   0  0  0  0  0  3  0  0  0  0  0  0
  191.4710  176.1290  144.9910 C   0  0  0  0  0  0  0  0  0  0  0  0
  189.1030  177.1290  146.2140 C   0  0  0  0  0  0  0  0  0  0  0  0
  193.8740  175.7720  145.1970 C   0  0  0  0  0  0  0  0  0  0  0  0
  190.1810  176.9530  146.9200 N   0  0  0  0  0  0  0  0  0  0  0  0
  191.4270  176.5560  146.3320 C   0  0  0  0  0  0  0  0  0  0  0  0
  192.6940  175.7220  144.4390 C   0  0  0  0  0  3  0  0  0  0  0  0
  187.9010  177.5390  146.8710 N   0  0  0  0  0  2  0  0  0  0  0  0
  185.6310  176.7940  146.5030 C   0  0  0  0  0  2  0  0  0  0  0  0
  186.6740  177.8320  146.1500 C   0  0  0  0  0  3  0  0  0  0  0  0
  185.5780  178.1660  147.1400 C   0  0  0  0  0  2  0  0  0  0  0  0
  195.1670  175.3750  144.6060 C   0  0  0  0  0  0  0  0  0  0  0  0
  195.9720  176.2580  144.1990 O   0  0  0  0  0  0  0  0  0  0  0  0
  195.5270  173.9300  144.4470 C   0  0  0  0  0  2  0  0  0  0  0  0
  197.0290  173.4570  146.1380 C   0  0  0  0  0  1  0  0  0  0  0  0
  195.6350  173.2830  145.7510 N   0  0  0  0  0  0  0  0  0  0  0  0
  196.7300  170.0940  146.6650 O   0  0  0  0  0  0  0  0  0  0  0  0
  194.0830  169.2150  144.7250 N   0  0  0  0  0  0  0  0  0  0  0  0
  194.1140  170.4100  143.9300 C   0  0  0  0  0  3  0  0  0  0  0  0
  195.2790  168.6420  145.3310 C   0  0  0  0  0  2  0  0  0  0  0  0
  195.5550  169.3060  146.6750 C   0  0  0  0  0  2  0  0  0  0  0  0
  195.3760  171.8430  145.5940 C   0  0  1  0  0  3  0  0  0  0  0  0
  194.6940  171.5640  144.2820 C   0  0  0  0  0  3  0  0  0  0  0  0
  196.6840  171.0410  145.6170 C   0  0  0  0  0  2  0  0  0  0  0  0
  192.9520  168.3270  144.5380 C   0  0  0  0  0  1  0  0  0  0  0  0
  190.3580  176.0670  142.7220 C   0  0  0  0  0  2  0  0  0  0  0  0
  188.7900  174.6680  141.3610 C   0  0  0  0  0  0  0  0  0  0  0  0
  190.9360  173.6220  142.1350 C   0  0  2  0  0  3  0  0  0  0  0  0
  190.4220  172.2870  141.5970 C   0  0  1  0  0  3  0  0  0  0  0  0
  189.9710  174.7870  142.0210 C   0  0  0  0  0  0  0  0  0  0  0  0
  187.8200  175.8050  141.2780 C   0  0  0  0  0  1  0  0  0  0  0  0
  192.8080  172.5130  141.0860 C   0  0  2  0  0  3  0  0  0  0  0  0
  189.5310  172.4930  140.3780 C   0  0  0  0  0  2  0  0  0  0  0  0
  191.6620  171.5170  141.1760 C   0  0  0  0  0  2  0  0  0  0  0  0
  188.3450  173.3570  140.7740 C   0  0  0  0  0  2  0  0  0  0  0  0
  192.2350  173.8830  141.4020 C   0  0  0  0  0  2  0  0  0  0  0  0
  192.6110  173.2670  138.8290 O   0  0  0  0  0  1  0  0  0  0  0  0
  193.3950  172.4960  139.6860 C   0  0  0  0  0  2  0  0  0  0  0  0
  1  6  1  0  0  0  0
  2 29  1  6  0  0  0
  2  1  1  0  0  0  0
  2  5  1  0  0  0  0
  3  4  1  0  0  0  0
  5  9  1  0  0  0  0
  6 11  1  0  0  0  0
  6  8  2  0  0  0  0
  7  3  2  0  0  0  0
  9  8  1  0  0  0  0
  9  4  2  0  0  0  0
 10  5  2  0  0  0  0
 10  7  1  0  0  0  0
 12 14  1  0  0  0  0
 13 12  1  0  0  0  0
 13 11  1  0  0  0  0
 13 14  1  0  0  0  0
 15  7  1  0  0  0  0
 16 15  2  0  0  0  0
 17 15  1  0  0  0  0
 17 19  1  0  0  0  0
 19 18  1  0  0  0  0
 20 24  1  0  0  0  0
 21 23  1  0  0  0  0
 22 26  2  0  0  0  0
 22 21  1  0  0  0  0
 23 24  1  0  0  0  0
 25 27  1  0  0  0  0
 25 19  1  6  0  0  0
 26 25  1  0  0  0  0
 27 20  1  0  0  0  0
 28 21  1  0  0  0  0
 30 33  2  0  0  0  0
 31 39  1  6  0  0  0
 32 36  1  6  0  0  0
 32 31  1  0  0  0  0
 33 31  1  0  0  0  0
 33 29  1  0  0  0  0
 34 30  1  0  0  0  0
 35 41  1  6  0  0  0
 35 37  1  0  0  0  0
 35 39  1  0  0  0  0
 36 38  1  0  0  0  0
 37 32  1  0  0  0  0
 38 30  1  0  0  0  0
 40 41  1  0  0  0  0
M  END
>  <MODEL>
4

>  <REMARK>
 VINA RESULT:      -7.6      3.647      9.573
  Name = 
  8 active torsions:
  status: ('A' for Active; 'I' for Inactive)
    1  A    between atoms: C_8  and  C_27
    2  A    between atoms: C_9  and  C_27
    3  A    between atoms: C_11  and  N_38
    4  A    between atoms: N_18  and  C_26
    5  A    between atoms: N_18  and  C_39
    6  A    between atoms: C_21  and  C_24
    7  A    between atoms: C_25  and  C_28
    8  A    between atoms: C_28  and  C_39
                            x       y       z     vdW  Elec       q    Type
                         _______ _______ _______ _____ _____    ______ ____

>  <TORSDO>
F 8

$$$$
=
 OpenBabel11062421423D

 41 46  0  0  1  0  0  0  0  0999 V2000
  188.0720  177.2460  144.8960 C   0  0  0  0  0  2  0  0  0  0  0  0
  189.3180  176.4170  144.5690 C   0  0  2  0  0  3  0  0  0  0  0  0
  192.3110  176.8000  147.6440 C   0  0  0  0  0  3  0  0  0  0  0  0
  190.9560  176.9440  147.9520 C   0  0  0  0  0  3  0  0  0  0  0  0
  190.3910  176.6260  145.6100 C   0  0  0  0  0  0  0  0  0  0  0  0
  187.6890  177.1350  146.3520 C   0  0  0  0  0  0  0  0  0  0  0  0
  192.7210  176.5630  146.3260 C   0  0  0  0  0  0  0  0  0  0  0  0
  188.6080  177.0080  147.2650 N   0  0  0  0  0  0  0  0  0  0  0  0
  189.9960  176.8600  146.9420 C   0  0  0  0  0  0  0  0  0  0  0  0
  191.7520  176.4620  145.3160 C   0  0  0  0  0  3  0  0  0  0  0  0
  186.3270  177.2910  146.7540 N   0  0  0  0  0  2  0  0  0  0  0  0
  184.0560  178.0920  146.5330 C   0  0  0  0  0  2  0  0  0  0  0  0
  185.2500  177.5150  145.8030 C   0  0  0  0  0  3  0  0  0  0  0  0
  184.9550  178.9980  145.7210 C   0  0  0  0  0  2  0  0  0  0  0  0
  194.1550  176.4230  146.0100 C   0  0  0  0  0  0  0  0  0  0  0  0
  194.8720  177.4510  145.8570 O   0  0  0  0  0  0  0  0  0  0  0  0
  194.7730  175.0700  145.8320 C   0  0  0  0  0  2  0  0  0  0  0  0
  194.1240  173.0400  144.9400 C   0  0  0  0  0  1  0  0  0  0  0  0
  194.2950  174.4470  144.6020 N   0  0  0  0  0  0  0  0  0  0  0  0
  197.5470  173.4820  143.7690 O   0  0  0  0  0  0  0  0  0  0  0  0
  196.7980  175.2900  140.9920 N   0  0  0  0  0  0  0  0  0  0  0  0
  195.8270  176.1210  141.6470 C   0  0  0  0  0  3  0  0  0  0  0  0
  197.9410  174.7140  141.6900 C   0  0  0  0  0  2  0  0  0  0  0  0
  197.5420  173.4020  142.3570 C   0  0  0  0  0  2  0  0  0  0  0  0
  195.3420  174.5510  143.5740 C   0  0  1  0  0  3  0  0  0  0  0  0
  195.1960  175.8260  142.7900 C   0  0  0  0  0  3  0  0  0  0  0  0
  196.7400  174.5550  144.2090 C   0  0  0  0  0  2  0  0  0  0  0  0
  196.9000  175.4060  139.5500 C   0  0  0  0  0  1  0  0  0  0  0  0
  189.8090  176.7240  143.1520 C   0  0  0  0  0  2  0  0  0  0  0  0
  188.5510  175.5950  141.3050 C   0  0  0  0  0  0  0  0  0  0  0  0
  190.5050  174.3850  142.3160 C   0  0  2  0  0  3  0  0  0  0  0  0
  190.1150  173.1630  141.4840 C   0  0  1  0  0  3  0  0  0  0  0  0
  189.5760  175.5790  142.1960 C   0  0  0  0  0  0  0  0  0  0  0  0
  187.6120  176.7560  141.2110 C   0  0  0  0  0  1  0  0  0  0  0  0
  192.5540  173.4020  141.4980 C   0  0  2  0  0  3  0  0  0  0  0  0
  189.4850  173.5790  140.1610 C   0  0  0  0  0  2  0  0  0  0  0  0
  191.4170  172.4340  141.2020 C   0  0  0  0  0  2  0  0  0  0  0  0
  188.2390  174.4020  140.4430 C   0  0  0  0  0  2  0  0  0  0  0  0
  191.9220  174.7210  141.9050 C   0  0  0  0  0  2  0  0  0  0  0  0
  192.6770  174.2350  139.2640 O   0  0  0  0  0  1  0  0  0  0  0  0
  193.4090  173.5850  140.2580 C   0  0  0  0  0  2  0  0  0  0  0  0
  1  6  1  0  0  0  0
  2 29  1  6  0  0  0
  2  1  1  0  0  0  0
  2  5  1  0  0  0  0
  3  4  1  0  0  0  0
  5  9  1  0  0  0  0
  6 11  1  0  0  0  0
  6  8  2  0  0  0  0
  7  3  2  0  0  0  0
  9  8  1  0  0  0  0
  9  4  2  0  0  0  0
 10  5  2  0  0  0  0
 10  7  1  0  0  0  0
 13 12  1  0  0  0  0
 13 11  1  0  0  0  0
 14 13  1  0  0  0  0
 14 12  1  0  0  0  0
 15  7  1  0  0  0  0
 16 15  2  0  0  0  0
 17 15  1  0  0  0  0
 19 18  1  0  0  0  0
 19 17  1  0  0  0  0
 20 27  1  0  0  0  0
 21 22  1  0  0  0  0
 21 23  1  0  0  0  0
 22 26  2  0  0  0  0
 23 24  1  0  0  0  0
 24 20  1  0  0  0  0
 25 27  1  0  0  0  0
 25 19  1  1  0  0  0
 26 25  1  0  0  0  0
 28 21  1  0  0  0  0
 30 33  2  0  0  0  0
 31 39  1  6  0  0  0
 32 36  1  6  0  0  0
 32 31  1  0  0  0  0
 33 31  1  0  0  0  0
 33 29  1  0  0  0  0
 34 30  1  0  0  0  0
 35 41  1  6  0  0  0
 35 39  1  0  0  0  0
 36 38  1  0  0  0  0
 37 32  1  0  0  0  0
 37 35  1  0  0  0  0
 38 30  1  0  0  0  0
 40 41  1  0  0  0  0
M  END
>  <MODEL>
5

>  <REMARK>
 VINA RESULT:      -7.6      2.574      9.477
  Name = 
  8 active torsions:
  status: ('A' for Active; 'I' for Inactive)
    1  A    between atoms: C_8  and  C_27
    2  A    between atoms: C_9  and  C_27
    3  A    between atoms: C_11  and  N_38
    4  A    between atoms: N_18  and  C_26
    5  A    between atoms: N_18  and  C_39
    6  A    between atoms: C_21  and  C_24
    7  A    between atoms: C_25  and  C_28
    8  A    between atoms: C_28  and  C_39
                            x       y       z     vdW  Elec       q    Type
                         _______ _______ _______ _____ _____    ______ ____

>  <TORSDO>
F 8

$$$$
=
 OpenBabel11062421423D

 41 46  0  0  1  0  0  0  0  0999 V2000
  192.3400  173.1920  142.5740 C   0  0  0  0  0  2  0  0  0  0  0  0
  191.2670  174.2310  142.9150 C   0  0  2  0  0  3  0  0  0  0  0  0
  187.9260  173.9870  140.2060 C   0  0  0  0  0  3  0  0  0  0  0  0
  188.6970  172.8560  140.4830 C   0  0  0  0  0  3  0  0  0  0  0  0
  190.1430  174.1920  141.9090 C   0  0  0  0  0  0  0  0  0  0  0  0
  191.7350  171.8540  142.2260 C   0  0  0  0  0  0  0  0  0  0  0  0
  188.2460  175.2260  140.7770 C   0  0  0  0  0  0  0  0  0  0  0  0
  190.5910  171.7900  141.6100 N   0  0  0  0  0  0  0  0  0  0  0  0
  189.8040  172.9540  141.3300 C   0  0  0  0  0  0  0  0  0  0  0  0
  189.3490  175.3170  141.6400 C   0  0  0  0  0  3  0  0  0  0  0  0
  192.4680  170.6480  142.4580 N   0  0  0  0  0  2  0  0  0  0  0  0
  193.6490  170.3110  144.5410 C   0  0  0  0  0  2  0  0  0  0  0  0
  193.7870  170.6390  143.0690 C   0  0  0  0  0  3  0  0  0  0  0  0
  194.0970  169.2430  143.5670 C   0  0  0  0  0  2  0  0  0  0  0  0
  187.4310  176.4160  140.4690 C   0  0  0  0  0  0  0  0  0  0  0  0
  187.0040  176.6030  139.2960 O   0  0  0  0  0  0  0  0  0  0  0  0
  187.1280  177.4330  141.5260 C   0  0  0  0  0  2  0  0  0  0  0  0
  185.0170  178.3070  141.1810 C   0  0  0  0  0  1  0  0  0  0  0  0
  185.7410  177.3160  141.9670 N   0  0  0  0  0  0  0  0  0  0  0  0
  184.1260  179.4240  144.2370 O   0  0  0  0  0  0  0  0  0  0  0  0
  186.1620  177.7710  146.3960 N   0  0  0  0  0  0  0  0  0  0  0  0
  187.1570  177.4590  145.4100 C   0  0  0  0  0  3  0  0  0  0  0  0
  185.3250  178.9620  146.3210 C   0  0  0  0  0  2  0  0  0  0  0  0
  184.1060  178.6920  145.4460 C   0  0  0  0  0  2  0  0  0  0  0  0
  185.6560  177.6990  143.3850 C   0  0  1  0  0  3  0  0  0  0  0  0
  186.9620  177.4440  144.0860 C   0  0  0  0  0  3  0  0  0  0  0  0
  185.3310  179.1910  143.5350 C   0  0  0  0  0  2  0  0  0  0  0  0
  186.3100  177.1540  147.7010 C   0  0  0  0  0  1  0  0  0  0  0  0
  191.8920  175.6230  143.0420 C   0  0  0  0  0  2  0  0  0  0  0  0
  193.8770  176.1990  144.4550 C   0  0  0  0  0  0  0  0  0  0  0  0
  191.7440  175.5660  145.6170 C   0  0  2  0  0  3  0  0  0  0  0  0
  192.5140  175.5840  146.9370 C   0  0  1  0  0  3  0  0  0  0  0  0
  192.5710  175.8340  144.3740 C   0  0  0  0  0  0  0  0  0  0  0  0
  194.7050  176.4290  143.2300 C   0  0  0  0  0  1  0  0  0  0  0  0
  190.2970  176.5730  147.2690 C   0  0  2  0  0  3  0  0  0  0  0  0
  193.6300  176.6220  146.9060 C   0  0  0  0  0  2  0  0  0  0  0  0
  191.4990  175.9840  147.9930 C   0  0  0  0  0  2  0  0  0  0  0  0
  194.5900  176.2830  145.7770 C   0  0  0  0  0  2  0  0  0  0  0  0
  190.6250  176.5710  145.7860 C   0  0  0  0  0  2  0  0  0  0  0  0
  190.8190  178.2500  148.8870 O   0  0  0  0  0  1  0  0  0  0  0  0
  190.0490  177.9900  147.7530 C   0  0  0  0  0  2  0  0  0  0  0  0
  1  2  1  0  0  0  0
  2 29  1  6  0  0  0
  3  4  2  0  0  0  0
  3  7  1  0  0  0  0
  4  9  1  0  0  0  0
  5  2  1  0  0  0  0
  6 11  1  0  0  0  0
  6  1  1  0  0  0  0
  7 10  2  0  0  0  0
  8  6  2  0  0  0  0
  9  8  1  0  0  0  0
  9  5  2  0  0  0  0
 10  5  1  0  0  0  0
 11 13  1  0  0  0  0
 13 14  1  0  0  0  0
 13 12  1  0  0  0  0
 14 12  1  0  0  0  0
 15  7  1  0  0  0  0
 15 17  1  0  0  0  0
 16 15  2  0  0  0  0
 17 19  1  0  0  0  0
 18 19  1  0  0  0  0
 20 24  1  0  0  0  0
 21 28  1  0  0  0  0
 22 21  1  0  0  0  0
 23 21  1  0  0  0  0
 24 23  1  0  0  0  0
 25 19  1  6  0  0  0
 25 27  1  0  0  0  0
 25 26  1  0  0  0  0
 26 22  2  0  0  0  0
 27 20  1  0  0  0  0
 29 33  1  0  0  0  0
 30 38  1  0  0  0  0
 31 39  1  1  0  0  0
 31 32  1  0  0  0  0
 32 36  1  6  0  0  0
 32 37  1  0  0  0  0
 33 30  2  0  0  0  0
 33 31  1  0  0  0  0
 34 30  1  0  0  0  0
 35 41  1  1  0  0  0
 35 37  1  0  0  0  0
 38 36  1  0  0  0  0
 39 35  1  0  0  0  0
 41 40  1  0  0  0  0
M  END
>  <MODEL>
6

>  <REMARK>
 VINA RESULT:      -7.6      2.494      2.971
  Name = 
  8 active torsions:
  status: ('A' for Active; 'I' for Inactive)
    1  A    between atoms: C_8  and  C_27
    2  A    between atoms: C_9  and  C_27
    3  A    between atoms: C_11  and  N_38
    4  A    between atoms: N_18  and  C_26
    5  A    between atoms: N_18  and  C_39
    6  A    between atoms: C_21  and  C_24
    7  A    between atoms: C_25  and  C_28
    8  A    between atoms: C_28  and  C_39
                            x       y       z     vdW  Elec       q    Type
                         _______ _______ _______ _____ _____    ______ ____

>  <TORSDO>
F 8

$$$$
=
 OpenBabel11062421423D

 41 46  0  0  1  0  0  0  0  0999 V2000
  187.9980  176.1130  143.7130 C   0  0  0  0  0  2  0  0  0  0  0  0
  189.2820  175.3630  143.3470 C   0  0  2  0  0  3  0  0  0  0  0  0
  188.9210  173.3950  139.5310 C   0  0  0  0  0  3  0  0  0  0  0  0
  188.1900  174.5530  139.8030 C   0  0  0  0  0  3  0  0  0  0  0  0
  189.1130  174.6090  142.0500 C   0  0  0  0  0  0  0  0  0  0  0  0
  187.4190  176.8460  142.5270 C   0  0  0  0  0  0  0  0  0  0  0  0
  189.7580  172.8340  140.5060 C   0  0  0  0  0  0  0  0  0  0  0  0
  187.5280  176.3490  141.3300 N   0  0  0  0  0  0  0  0  0  0  0  0
  188.2810  175.1600  141.0580 C   0  0  0  0  0  0  0  0  0  0  0  0
  189.8600  173.4580  141.7590 C   0  0  0  0  0  3  0  0  0  0  0  0
  186.6390  178.0280  142.7210 N   0  0  0  0  0  2  0  0  0  0  0  0
  185.4670  179.7870  143.8950 C   0  0  0  0  0  2  0  0  0  0  0  0
  186.4020  178.6050  144.0340 C   0  0  0  0  0  3  0  0  0  0  0  0
  184.9380  178.4580  144.3880 C   0  0  0  0  0  2  0  0  0  0  0  0
  190.5180  171.6060  140.2110 C   0  0  0  0  0  0  0  0  0  0  0  0
  190.8780  171.3550  139.0280 O   0  0  0  0  0  0  0  0  0  0  0  0
  190.8420  170.6240  141.2960 C   0  0  0  0  0  2  0  0  0  0  0  0
  191.8010  168.5350  141.0650 C   0  0  0  0  0  1  0  0  0  0  0  0
  192.1110  169.9580  141.0210 N   0  0  0  0  0  0  0  0  0  0  0  0
  192.6940  169.5870  144.4450 O   0  0  0  0  0  0  0  0  0  0  0  0
  195.5170  171.2790  143.6020 N   0  0  0  0  0  0  0  0  0  0  0  0
  194.9370  171.9180  142.4550 C   0  0  0  0  0  3  0  0  0  0  0  0
  194.7340  170.9010  144.7730 C   0  0  0  0  0  2  0  0  0  0  0  0
  194.1020  169.5300  144.5600 C   0  0  0  0  0  2  0  0  0  0  0  0
  193.0550  170.2590  142.1080 C   0  0  1  0  0  3  0  0  0  0  0  0
  193.8460  171.5010  141.8000 C   0  0  0  0  0  3  0  0  0  0  0  0
  192.3150  170.4970  143.4310 C   0  0  0  0  0  2  0  0  0  0  0  0
  196.9470  171.4330  143.7910 C   0  0  0  0  0  1  0  0  0  0  0  0
  189.7190  174.4550  144.5000 C   0  0  0  0  0  2  0  0  0  0  0  0
  190.3460  175.2020  146.8060 C   0  0  0  0  0  0  0  0  0  0  0  0
  191.8450  175.8610  144.9030 C   0  0  2  0  0  3  0  0  0  0  0  0
  192.6250  176.7340  145.8840 C   0  0  1  0  0  3  0  0  0  0  0  0
  190.6290  175.1580  145.4780 C   0  0  0  0  0  0  0  0  0  0  0  0
  189.1290  174.5400  147.3710 C   0  0  0  0  0  1  0  0  0  0  0  0
  194.1860  175.6110  144.3650 C   0  0  2  0  0  3  0  0  0  0  0  0
  192.6170  176.1290  147.2830 C   0  0  0  0  0  2  0  0  0  0  0  0
  194.0520  176.7510  145.3640 C   0  0  0  0  0  2  0  0  0  0  0  0
  191.1800  176.0090  147.7620 C   0  0  0  0  0  2  0  0  0  0  0  0
  192.8530  174.8850  144.3360 C   0  0  0  0  0  2  0  0  0  0  0  0
  195.6300  174.9190  146.1370 O   0  0  0  0  0  1  0  0  0  0  0  0
  195.2910  174.6690  144.8070 C   0  0  0  0  0  2  0  0  0  0  0  0
  2  1  1  0  0  0  0
  2 29  1  1  0  0  0
  3  4  2  0  0  0  0
  3  7  1  0  0  0  0
  4  9  1  0  0  0  0
  5  2  1  0  0  0  0
  6 11  1  0  0  0  0
  6  1  1  0  0  0  0
  7 10  2  0  0  0  0
  8  6  2  0  0  0  0
  9  8  1  0  0  0  0
  9  5  2  0  0  0  0
 10  5  1  0  0  0  0
 11 13  1  0  0  0  0
 12 13  1  0  0  0  0
 12 14  1  0  0  0  0
 13 14  1  0  0  0  0
 15  7  1  0  0  0  0
 15 17  1  0  0  0  0
 16 15  2  0  0  0  0
 19 18  1  0  0  0  0
 19 17  1  0  0  0  0
 20 24  1  0  0  0  0
 21 28  1  0  0  0  0
 21 23  1  0  0  0  0
 22 21  1  0  0  0  0
 24 23  1  0  0  0  0
 25 19  1  6  0  0  0
 25 27  1  0  0  0  0
 26 25  1  0  0  0  0
 26 22  2  0  0  0  0
 27 20  1  0  0  0  0
 29 33  1  0  0  0  0
 30 34  1  0  0  0  0
 30 38  1  0  0  0  0
 31 39  1  1  0  0  0
 31 33  1  0  0  0  0
 31 32  1  0  0  0  0
 32 37  1  6  0  0  0
 32 36  1  0  0  0  0
 33 30  2  0  0  0  0
 35 41  1  1  0  0  0
 35 37  1  0  0  0  0
 36 38  1  0  0  0  0
 39 35  1  0  0  0  0
 41 40  1  0  0  0  0
M  END
>  <MODEL>
7

>  <REMARK>
 VINA RESULT:      -7.5      3.068      7.928
  Name = 
  8 active torsions:
  status: ('A' for Active; 'I' for Inactive)
    1  A    between atoms: C_8  and  C_27
    2  A    between atoms: C_9  and  C_27
    3  A    between atoms: C_11  and  N_38
    4  A    between atoms: N_18  and  C_26
    5  A    between atoms: N_18  and  C_39
    6  A    between atoms: C_21  and  C_24
    7  A    between atoms: C_25  and  C_28
    8  A    between atoms: C_28  and  C_39
                            x       y       z     vdW  Elec       q    Type
                         _______ _______ _______ _____ _____    ______ ____

>  <TORSDO>
F 8

$$$$
=
 OpenBabel11062421423D

 41 46  0  0  1  0  0  0  0  0999 V2000
  187.7870  175.9750  143.7900 C   0  0  0  0  0  2  0  0  0  0  0  0
  189.1180  175.3110  143.4250 C   0  0  2  0  0  3  0  0  0  0  0  0
  188.9940  173.6150  139.4660 C   0  0  0  0  0  3  0  0  0  0  0  0
  188.1990  174.7160  139.7900 C   0  0  0  0  0  3  0  0  0  0  0  0
  189.0340  174.6480  142.0710 C   0  0  0  0  0  0  0  0  0  0  0  0
  187.2190  176.7670  142.6380 C   0  0  0  0  0  0  0  0  0  0  0  0
  189.8180  173.0220  140.4320 C   0  0  0  0  0  0  0  0  0  0  0  0
  187.3970  176.3650  141.4130 N   0  0  0  0  0  0  0  0  0  0  0  0
  188.2140  175.2330  141.0880 C   0  0  0  0  0  0  0  0  0  0  0  0
  189.8440  173.5550  141.7300 C   0  0  0  0  0  3  0  0  0  0  0  0
  186.3780  177.8960  142.8830 N   0  0  0  0  0  2  0  0  0  0  0  0
  185.5660  179.7910  144.1470 C   0  0  0  0  0  2  0  0  0  0  0  0
  186.0650  178.3640  144.2230 C   0  0  0  0  0  3  0  0  0  0  0  0
  184.5820  178.6540  144.3190 C   0  0  0  0  0  2  0  0  0  0  0  0
  190.6460  171.8520  140.0810 C   0  0  0  0  0  0  0  0  0  0  0  0
  190.1680  170.9340  139.3580 O   0  0  0  0  0  0  0  0  0  0  0  0
  192.0440  171.7170  140.6020 C   0  0  0  0  0  2  0  0  0  0  0  0
  193.6610  170.9890  139.1210 C   0  0  0  0  0  1  0  0  0  0  0  0
  193.0070  172.1940  139.6140 N   0  0  0  0  0  0  0  0  0  0  0  0
  196.0310  172.1100  141.3610 O   0  0  0  0  0  0  0  0  0  0  0  0
  195.4940  175.4640  141.3810 N   0  0  0  0  0  0  0  0  0  0  0  0
  194.0670  175.3590  141.2690 C   0  0  0  0  0  3  0  0  0  0  0  0
  196.3100  174.4470  142.0340 C   0  0  0  0  0  2  0  0  0  0  0  0
  196.6550  173.3390  141.0460 C   0  0  0  0  0  2  0  0  0  0  0  0
  194.0150  173.0240  140.2910 C   0  0  1  0  0  3  0  0  0  0  0  0
  193.3990  174.2920  140.8160 C   0  0  0  0  0  3  0  0  0  0  0  0
  194.6330  172.2800  141.4820 C   0  0  0  0  0  2  0  0  0  0  0  0
  196.0700  176.7910  141.2630 C   0  0  0  0  0  1  0  0  0  0  0  0
  189.5530  174.3410  144.5270 C   0  0  0  0  0  2  0  0  0  0  0  0
  190.2140  175.3070  146.7400 C   0  0  0  0  0  0  0  0  0  0  0  0
  191.9500  175.2040  144.9300 C   0  0  2  0  0  3  0  0  0  0  0  0
  192.8760  176.0110  145.8400 C   0  0  1  0  0  3  0  0  0  0  0  0
  190.5560  174.9520  145.4750 C   0  0  0  0  0  0  0  0  0  0  0  0
  188.8290  175.0930  147.2670 C   0  0  0  0  0  1  0  0  0  0  0  0
  194.1650  174.2690  144.6960 C   0  0  2  0  0  3  0  0  0  0  0  0
  192.6170  175.6920  147.3080 C   0  0  0  0  0  2  0  0  0  0  0  0
  194.2830  175.5670  145.4810 C   0  0  0  0  0  2  0  0  0  0  0  0
  191.1740  176.0340  147.6410 C   0  0  0  0  0  2  0  0  0  0  0  0
  192.6900  173.9160  144.6370 C   0  0  0  0  0  2  0  0  0  0  0  0
  194.1200  172.0680  145.6230 O   0  0  0  0  0  1  0  0  0  0  0  0
  194.9430  173.1710  145.3980 C   0  0  0  0  0  2  0  0  0  0  0  0
  2  1  1  0  0  0  0
  2 29  1  1  0  0  0
  3  4  2  0  0  0  0
  3  7  1  0  0  0  0
  4  9  1  0  0  0  0
  5  2  1  0  0  0  0
  6 11  1  0  0  0  0
  6  1  1  0  0  0  0
  7 10  2  0  0  0  0
  8  6  2  0  0  0  0
  9  8  1  0  0  0  0
  9  5  2  0  0  0  0
 10  5  1  0  0  0  0
 11 13  1  0  0  0  0
 12 13  1  0  0  0  0
 12 14  1  0  0  0  0
 13 14  1  0  0  0  0
 15  7  1  0  0  0  0
 15 17  1  0  0  0  0
 16 15  2  0  0  0  0
 18 19  1  0  0  0  0
 19 17  1  0  0  0  0
 20 27  1  0  0  0  0
 21 23  1  0  0  0  0
 22 21  1  0  0  0  0
 24 20  1  0  0  0  0
 24 23  1  0  0  0  0
 25 19  1  1  0  0  0
 25 26  1  0  0  0  0
 25 27  1  0  0  0  0
 26 22  2  0  0  0  0
 28 21  1  0  0  0  0
 29 33  1  0  0  0  0
 30 34  1  0  0  0  0
 30 38  1  0  0  0  0
 31 39  1  1  0  0  0
 31 33  1  0  0  0  0
 31 32  1  0  0  0  0
 32 37  1  6  0  0  0
 32 36  1  0  0  0  0
 33 30  2  0  0  0  0
 35 41  1  1  0  0  0
 35 37  1  0  0  0  0
 36 38  1  0  0  0  0
 39 35  1  0  0  0  0
 41 40  1  0  0  0  0
M  END
>  <MODEL>
8

>  <REMARK>
 VINA RESULT:      -7.5      2.509      7.817
  Name = 
  8 active torsions:
  status: ('A' for Active; 'I' for Inactive)
    1  A    between atoms: C_8  and  C_27
    2  A    between atoms: C_9  and  C_27
    3  A    between atoms: C_11  and  N_38
    4  A    between atoms: N_18  and  C_26
    5  A    between atoms: N_18  and  C_39
    6  A    between atoms: C_21  and  C_24
    7  A    between atoms: C_25  and  C_28
    8  A    between atoms: C_28  and  C_39
                            x       y       z     vdW  Elec       q    Type
                         _______ _______ _______ _____ _____    ______ ____

>  <TORSDO>
F 8

$$$$
=
 OpenBabel11062421423D

 41 46  0  0  1  0  0  0  0  0999 V2000
  187.9580  177.1680  144.7210 C   0  0  0  0  0  2  0  0  0  0  0  0
  189.1340  176.2590  144.3490 C   0  0  2  0  0  3  0  0  0  0  0  0
  192.2480  176.4240  147.3210 C   0  0  0  0  0  3  0  0  0  0  0  0
  190.9180  176.6570  147.6760 C   0  0  0  0  0  3  0  0  0  0  0  0
  190.2530  176.3910  145.3540 C   0  0  0  0  0  0  0  0  0  0  0  0
  187.6180  177.0740  146.1880 C   0  0  0  0  0  0  0  0  0  0  0  0
  192.5970  176.1680  145.9890 C   0  0  0  0  0  0  0  0  0  0  0  0
  188.5570  176.8820  147.0690 N   0  0  0  0  0  0  0  0  0  0  0  0
  189.9200  176.6430  146.6980 C   0  0  0  0  0  0  0  0  0  0  0  0
  191.5890  176.1370  145.0120 C   0  0  0  0  0  3  0  0  0  0  0  0
  186.2840  177.3190  146.6370 N   0  0  0  0  0  2  0  0  0  0  0  0
  184.0740  178.2890  146.4930 C   0  0  0  0  0  2  0  0  0  0  0  0
  185.1930  177.6200  145.7240 C   0  0  0  0  0  3  0  0  0  0  0  0
  185.0090  179.1210  145.6420 C   0  0  0  0  0  2  0  0  0  0  0  0
  194.0070  175.9340  145.6240 C   0  0  0  0  0  0  0  0  0  0  0  0
  194.9030  175.9680  146.5130 O   0  0  0  0  0  0  0  0  0  0  0  0
  194.4010  175.6890  144.2000 C   0  0  0  0  0  2  0  0  0  0  0  0
  196.3140  175.3720  142.9440 C   0  0  0  0  0  1  0  0  0  0  0  0
  195.6260  174.8970  144.1370 N   0  0  0  0  0  0  0  0  0  0  0  0
  194.2960  172.0620  145.6860 O   0  0  0  0  0  0  0  0  0  0  0  0
  194.8570  170.7690  142.5940 N   0  0  0  0  0  0  0  0  0  0  0  0
  195.9150  171.6850  142.2700 C   0  0  0  0  0  3  0  0  0  0  0  0
  194.5730  170.3470  143.9610 C   0  0  0  0  0  2  0  0  0  0  0  0
  193.6550  171.3560  144.6410 C   0  0  0  0  0  2  0  0  0  0  0  0
  195.2710  173.4840  143.9330 C   0  0  1  0  0  3  0  0  0  0  0  0
  196.1270  172.8680  142.8600 C   0  0  0  0  0  3  0  0  0  0  0  0
  195.4820  172.6710  145.2180 C   0  0  0  0  0  2  0  0  0  0  0  0
  194.3790  169.9090  141.5290 C   0  0  0  0  0  1  0  0  0  0  0  0
  189.5960  176.5410  142.9170 C   0  0  0  0  0  2  0  0  0  0  0  0
  188.4240  175.2850  141.0960 C   0  0  0  0  0  0  0  0  0  0  0  0
  190.3980  174.1960  142.1990 C   0  0  2  0  0  3  0  0  0  0  0  0
  190.0730  172.9250  141.4150 C   0  0  1  0  0  3  0  0  0  0  0  0
  189.4280  175.3470  142.0080 C   0  0  0  0  0  0  0  0  0  0  0  0
  187.4440  176.4040  140.9300 C   0  0  0  0  0  1  0  0  0  0  0  0
  192.5010  173.2580  141.4690 C   0  0  2  0  0  3  0  0  0  0  0  0
  189.4580  173.2590  140.0610 C   0  0  0  0  0  2  0  0  0  0  0  0
  191.4080  172.2350  141.1910 C   0  0  0  0  0  2  0  0  0  0  0  0
  188.1760  174.0450  140.2810 C   0  0  0  0  0  2  0  0  0  0  0  0
  191.8110  174.5680  141.8040 C   0  0  0  0  0  2  0  0  0  0  0  0
  194.0570  174.6360  140.2940 O   0  0  0  0  0  1  0  0  0  0  0  0
  193.3760  173.4200  140.2400 C   0  0  0  0  0  2  0  0  0  0  0  0
  1  6  1  0  0  0  0
  2 29  1  6  0  0  0
  2  1  1  0  0  0  0
  2  5  1  0  0  0  0
  3  4  1  0  0  0  0
  5  9  1  0  0  0  0
  6 11  1  0  0  0  0
  6  8  2  0  0  0  0
  7  3  2  0  0  0  0
  9  8  1  0  0  0  0
  9  4  2  0  0  0  0
 10  5  2  0  0  0  0
 10  7  1  0  0  0  0
 13 12  1  0  0  0  0
 13 11  1  0  0  0  0
 14 13  1  0  0  0  0
 14 12  1  0  0  0  0
 15  7  1  0  0  0  0
 15 16  2  0  0  0  0
 17 15  1  0  0  0  0
 18 19  1  0  0  0  0
 19 17  1  0  0  0  0
 21 23  1  0  0  0  0
 22 21  1  0  0  0  0
 22 26  2  0  0  0  0
 23 24  1  0  0  0  0
 24 20  1  0  0  0  0
 25 19  1  1  0  0  0
 25 27  1  0  0  0  0
 26 25  1  0  0  0  0
 27 20  1  0  0  0  0
 28 21  1  0  0  0  0
 30 33  2  0  0  0  0
 31 39  1  6  0  0  0
 32 36  1  6  0  0  0
 32 31  1  0  0  0  0
 33 31  1  0  0  0  0
 33 29  1  0  0  0  0
 34 30  1  0  0  0  0
 35 41  1  6  0  0  0
 35 39  1  0  0  0  0
 36 38  1  0  0  0  0
 37 32  1  0  0  0  0
 37 35  1  0  0  0  0
 38 30  1  0  0  0  0
 41 40  1  0  0  0  0
M  END
>  <MODEL>
9

>  <REMARK>
 VINA RESULT:      -7.4      2.912      9.346
  Name = 
  8 active torsions:
  status: ('A' for Active; 'I' for Inactive)
    1  A    between atoms: C_8  and  C_27
    2  A    between atoms: C_9  and  C_27
    3  A    between atoms: C_11  and  N_38
    4  A    between atoms: N_18  and  C_26
    5  A    between atoms: N_18  and  C_39
    6  A    between atoms: C_21  and  C_24
    7  A    between atoms: C_25  and  C_28
    8  A    between atoms: C_28  and  C_39
                            x       y       z     vdW  Elec       q    Type
                         _______ _______ _______ _____ _____    ______ ____

>  <TORSDO>
F 8

$$$$
