=
 OpenBabel11062420003D

 42 46  0  0  1  0  0  0  0  0999 V2000
  190.1200  173.5840  145.7620 C   0  0  0  0  0  2  0  0  0  0  0  0
  190.7810  173.6910  144.4070 C   0  0  0  0  0  0  0  0  0  0  0  0
  189.6570  172.7040  144.6100 C   0  0  0  0  0  2  0  0  0  0  0  0
  186.3890  177.4430  143.0240 C   0  0  2  0  0  0  0  0  0  0  0  0
  190.1950  176.1510  144.4760 C   0  0  0  0  0  2  0  0  0  0  0  0
  186.9010  176.0300  142.6140 C   0  0  0  0  0  2  0  0  0  0  0  0
  188.0810  175.5730  143.4950 C   0  0  1  0  0  3  0  0  0  0  0  0
  189.0930  174.6960  142.8050 C   0  0  0  0  0  2  0  0  0  0  0  0
  190.3960  174.9220  143.5820 C   0  0  2  0  0  3  0  0  0  0  0  0
  186.5930  177.6150  144.5300 C   0  0  1  0  0  3  0  0  0  0  0  0
  184.5330  178.7140  143.9540 C   0  0  0  0  0  2  0  0  0  0  0  0
  188.8940  176.7470  143.9940 C   0  0  1  0  0  3  0  0  0  0  0  0
  188.0830  177.6540  144.9490 C   0  0  2  0  0  3  0  0  0  0  0  0
  184.4210  177.9680  141.6710 O   0  0  0  0  0  1  0  0  0  0  0  0
  184.8700  177.6160  142.9450 C   0  0  1  0  0  3  0  0  0  0  0  0
  185.7060  178.7750  144.9370 C   0  0  1  0  0  3  0  0  0  0  0  0
  185.7780  179.4190  147.3420 O   0  0  0  0  0  1  0  0  0  0  0  0
  184.3300  177.7910  146.6360 O   0  0  0  0  0  0  0  0  0  0  0  0
  185.2250  178.6280  146.3450 C   0  0  0  0  0  0  0  0  0  0  0  0
  187.5020  176.1450  146.7400 O   0  0  0  0  0  1  0  0  0  0  0  0
  188.2450  177.2830  146.4260 C   0  0  0  0  0  2  0  0  0  0  0  0
  187.5540  178.0600  141.1090 C   0  0  0  0  0  1  0  0  0  0  0  0
  187.0880  178.4930  142.3610 O   0  0  0  0  0  0  0  0  0  0  0  0
  192.5110  172.4100  143.2140 C   0  0  0  0  0  3  0  0  0  0  0  0
  192.1380  173.0590  144.3130 C   0  0  0  0  0  3  0  0  0  0  0  0
  193.8610  171.7850  143.1090 C   0  0  0  0  0  2  0  0  0  0  0  0
  194.7050  172.1790  144.3110 C   0  0  0  0  0  2  0  0  0  0  0  0
  196.1370  172.4800  143.8950 C   0  0  2  0  0  3  0  0  0  0  0  0
  197.0570  171.6690  144.6750 N   0  0  0  0  0  2  0  0  0  0  0  0
  196.3890  171.3850  145.9380 C   0  0  0  0  0  2  0  0  0  0  0  0
  196.8130  170.0380  146.5120 C   0  0  2  0  0  3  0  0  0  0  0  0
  197.5890  169.2270  145.4910 C   0  0  0  0  0  1  0  0  0  0  0  0
  194.7000  168.6520  147.3850 C   0  0  0  0  0  3  0  0  0  0  0  0
  195.6540  169.2770  146.9930 C   0  0  0  0  0  0  0  0  0  0  0  0
  196.4180  173.8950  144.0970 N   0  0  0  0  0  2  0  0  0  0  0  0
  193.5820  176.6980  145.5440 C   0  0  0  0  0  3  0  0  0  0  0  0
  195.2970  175.0420  145.9720 C   0  0  0  0  0  3  0  0  0  0  0  0
  193.7350  176.5000  144.1700 C   0  0  0  0  0  3  0  0  0  0  0  0
  194.8070  175.3930  142.2160 C   0  0  0  0  0  1  0  0  0  0  0  0
  195.4540  174.8340  144.5920 C   0  0  0  0  0  0  0  0  0  0  0  0
  194.6680  175.5740  143.6890 C   0  0  0  0  0  0  0  0  0  0  0  0
  194.3610  175.9680  146.4460 C   0  0  0  0  0  3  0  0  0  0  0  0
  2  3  1  0  0  0  0
  2  1  1  0  0  0  0
  3  1  1  0  0  0  0
  4 23  1  6  0  0  0
  4 10  1  0  0  0  0
  6  4  1  0  0  0  0
  7  6  1  6  0  0  0
  7 12  1  0  0  0  0
  8  7  1  0  0  0  0
  9  8  1  1  0  0  0
  9  2  1  0  0  0  0
  9  5  1  0  0  0  0
 10 16  1  0  0  0  0
 10 13  1  0  0  0  0
 11 16  1  0  0  0  0
 12  5  1  0  0  0  0
 12 13  1  0  0  0  0
 13 21  1  0  0  0  0
 14 15  1  0  0  0  0
 15  4  1  0  0  0  0
 15 11  1  0  0  0  0
 16 19  1  0  0  0  0
 19 18  2  0  0  0  0
 19 17  1  0  0  0  0
 21 20  1  0  0  0  0
 22 23  1  0  0  0  0
 24 25  2  0  0  0  0
 25  2  1  0  0  0  0
 26 24  1  0  0  0  0
 26 27  1  0  0  0  0
 28 35  1  0  0  0  0
 28 27  1  0  0  0  0
 28 29  1  0  0  0  0
 29 30  1  0  0  0  0
 30 31  1  0  0  0  0
 31 34  1  0  0  0  0
 32 31  1  0  0  0  0
 34 33  3  0  0  0  0
 35 40  1  0  0  0  0
 36 42  1  0  0  0  0
 37 42  2  0  0  0  0
 38 36  2  0  0  0  0
 39 41  1  0  0  0  0
 40 37  1  0  0  0  0
 41 38  1  0  0  0  0
 41 40  2  0  0  0  0
M  END
>  <MODEL>
1

>  <REMARK>
 VINA RESULT:      -7.5      0.000      0.000
  Name = 
  14 active torsions:
  status: ('A' for Active; 'I' for Inactive)
    1  A    between atoms: C_1  and  O_41
    2  A    between atoms: C_3  and  C_14
    3  A    between atoms: C_3  and  C_20
    4  A    between atoms: C_6  and  C_29
    5  A    between atoms: C_6  and  C_40
    6  A    between atoms: C_9  and  C_13
    7  A    between atoms: C_9  and  C_17
    8  A    between atoms: C_17  and  C_34
    9  A    between atoms: N_18  and  C_29
   10  A    between atoms: N_18  and  C_34
   11  A    between atoms: C_24  and  C_37
   12  A    between atoms: C_28  and  C_31
   13  A    between atoms: C_32  and  N_35
   14  A    between atoms: C_34  and  N_35
                            x       y       z     vdW  Elec       q    Type
                         _______ _______ _______ _____ _____    ______ ____

>  <TORSDO>
F 14

$$$$
=
 OpenBabel11062420003D

 42 46  0  0  1  0  0  0  0  0999 V2000
  190.2500  175.1970  146.4010 C   0  0  0  0  0  2  0  0  0  0  0  0
  191.1790  176.3600  146.1390 C   0  0  0  0  0  0  0  0  0  0  0  0
  190.3730  176.3260  147.4150 C   0  0  0  0  0  2  0  0  0  0  0  0
  195.8390  173.3020  144.0890 C   0  0  2  0  0  0  0  0  0  0  0  0
  193.5080  176.7030  145.2130 C   0  0  0  0  0  2  0  0  0  0  0  0
  194.6070  173.0850  145.0170 C   0  0  0  0  0  2  0  0  0  0  0  0
  193.6770  174.3140  145.0260 C   0  0  1  0  0  3  0  0  0  0  0  0
  192.9550  174.5610  146.3250 C   0  0  0  0  0  2  0  0  0  0  0  0
  192.6700  176.0690  146.3290 C   0  0  2  0  0  3  0  0  0  0  0  0
  195.4210  174.2040  142.9280 C   0  0  1  0  0  3  0  0  0  0  0  0
  196.9740  172.5870  142.0570 C   0  0  0  0  0  2  0  0  0  0  0  0
  194.4420  175.5970  144.7820 C   0  0  1  0  0  3  0  0  0  0  0  0
  195.0620  175.6450  143.3670 C   0  0  2  0  0  3  0  0  0  0  0  0
  197.1310  171.2270  144.0330 O   0  0  0  0  0  1  0  0  0  0  0  0
  196.2750  172.0590  143.3100 C   0  0  1  0  0  3  0  0  0  0  0  0
  196.4830  174.0250  141.8620 C   0  0  1  0  0  3  0  0  0  0  0  0
  196.3270  175.2910  139.7220 O   0  0  0  0  0  0  0  0  0  0  0  0
  195.0700  173.4000  140.0270 O   0  0  0  0  0  1  0  0  0  0  0  0
  195.9180  174.2100  140.4900 C   0  0  0  0  0  0  0  0  0  0  0  0
  193.1300  175.4720  141.9290 O   0  0  0  0  0  1  0  0  0  0  0  0
  194.1610  176.3230  142.3300 C   0  0  0  0  0  2  0  0  0  0  0  0
  196.9640  173.5350  146.1110 C   0  0  0  0  0  1  0  0  0  0  0  0
  196.9290  173.9270  144.7630 O   0  0  0  0  0  0  0  0  0  0  0  0
  190.3520  176.9670  143.9010 C   0  0  0  0  0  3  0  0  0  0  0  0
  190.6820  177.3530  145.1300 C   0  0  0  0  0  3  0  0  0  0  0  0
  189.8500  177.9470  142.8950 C   0  0  0  0  0  2  0  0  0  0  0  0
  188.7240  177.3220  142.0860 C   0  0  0  0  0  2  0  0  0  0  0  0
  187.7930  176.5190  142.9830 C   0  0  2  0  0  3  0  0  0  0  0  0
  187.2430  175.3960  142.2420 N   0  0  0  0  0  2  0  0  0  0  0  0
  188.2530  175.0110  141.2640 C   0  0  0  0  0  2  0  0  0  0  0  0
  188.7020  173.5670  141.4540 C   0  0  2  0  0  3  0  0  0  0  0  0
  187.5390  172.6800  141.8590 C   0  0  0  0  0  1  0  0  0  0  0  0
  190.6740  173.3970  143.2510 C   0  0  0  0  0  3  0  0  0  0  0  0
  189.7840  173.4720  142.4390 C   0  0  0  0  0  0  0  0  0  0  0  0
  186.7180  177.3770  143.4660 N   0  0  0  0  0  2  0  0  0  0  0  0
  186.0020  178.1630  147.5720 C   0  0  0  0  0  3  0  0  0  0  0  0
  186.8800  176.7180  145.8380 C   0  0  0  0  0  3  0  0  0  0  0  0
  185.5940  179.0790  146.6000 C   0  0  0  0  0  3  0  0  0  0  0  0
  185.3800  179.8260  144.2360 C   0  0  0  0  0  1  0  0  0  0  0  0
  186.4700  177.6330  144.8540 C   0  0  0  0  0  0  0  0  0  0  0  0
  185.8260  178.8220  145.2440 C   0  0  0  0  0  0  0  0  0  0  0  0
  186.6440  176.9820  147.1920 C   0  0  0  0  0  3  0  0  0  0  0  0
  1  3  1  0  0  0  0
  2  9  1  0  0  0  0
  2  1  1  0  0  0  0
  2  3  1  0  0  0  0
  4 23  1  1  0  0  0
  4  6  1  0  0  0  0
  7  6  1  1  0  0  0
  7  8  1  0  0  0  0
  8  9  1  0  0  0  0
  9  5  1  6  0  0  0
 10 13  1  0  0  0  0
 10  4  1  0  0  0  0
 11 15  1  0  0  0  0
 12  7  1  0  0  0  0
 12  5  1  0  0  0  0
 13 12  1  0  0  0  0
 15 14  1  0  0  0  0
 15  4  1  0  0  0  0
 16 11  1  0  0  0  0
 16 10  1  0  0  0  0
 17 19  2  0  0  0  0
 18 19  1  0  0  0  0
 19 16  1  0  0  0  0
 20 21  1  0  0  0  0
 21 13  1  0  0  0  0
 23 22  1  0  0  0  0
 24 25  2  0  0  0  0
 25  2  1  0  0  0  0
 26 24  1  0  0  0  0
 27 26  1  0  0  0  0
 27 28  1  0  0  0  0
 28 35  1  0  0  0  0
 29 28  1  0  0  0  0
 30 31  1  0  0  0  0
 30 29  1  0  0  0  0
 31 32  1  0  0  0  0
 31 34  1  0  0  0  0
 34 33  3  0  0  0  0
 35 40  1  0  0  0  0
 37 42  2  0  0  0  0
 38 36  2  0  0  0  0
 39 41  1  0  0  0  0
 40 41  2  0  0  0  0
 40 37  1  0  0  0  0
 41 38  1  0  0  0  0
 42 36  1  0  0  0  0
M  END
>  <MODEL>
2

>  <REMARK>
 VINA RESULT:      -7.3      4.227      9.269
  Name = 
  14 active torsions:
  status: ('A' for Active; 'I' for Inactive)
    1  A    between atoms: C_1  and  O_41
    2  A    between atoms: C_3  and  C_14
    3  A    between atoms: C_3  and  C_20
    4  A    between atoms: C_6  and  C_29
    5  A    between atoms: C_6  and  C_40
    6  A    between atoms: C_9  and  C_13
    7  A    between atoms: C_9  and  C_17
    8  A    between atoms: C_17  and  C_34
    9  A    between atoms: N_18  and  C_29
   10  A    between atoms: N_18  and  C_34
   11  A    between atoms: C_24  and  C_37
   12  A    between atoms: C_28  and  C_31
   13  A    between atoms: C_32  and  N_35
   14  A    between atoms: C_34  and  N_35
                            x       y       z     vdW  Elec       q    Type
                         _______ _______ _______ _____ _____    ______ ____

>  <TORSDO>
F 14

$$$$
=
 OpenBabel11062420003D

 42 46  0  0  1  0  0  0  0  0999 V2000
  188.4490  173.8070  142.1240 C   0  0  0  0  0  2  0  0  0  0  0  0
  189.7590  173.2620  142.6440 C   0  0  0  0  0  0  0  0  0  0  0  0
  188.7760  172.3260  141.9840 C   0  0  0  0  0  2  0  0  0  0  0  0
  195.3880  175.1540  142.7430 C   0  0  2  0  0  0  0  0  0  0  0  0
  192.0930  172.5390  141.9900 C   0  0  0  0  0  2  0  0  0  0  0  0
  193.9480  175.7480  142.7630 C   0  0  0  0  0  2  0  0  0  0  0  0
  192.8770  174.6420  142.8440 C   0  0  1  0  0  3  0  0  0  0  0  0
  191.5800  174.9550  142.1460 C   0  0  0  0  0  2  0  0  0  0  0  0
  190.9900  173.5840  141.7920 C   0  0  2  0  0  3  0  0  0  0  0  0
  195.3940  173.8640  143.5640 C   0  0  1  0  0  3  0  0  0  0  0  0
  197.4990  174.9640  143.9420 C   0  0  0  0  0  2  0  0  0  0  0  0
  193.3450  173.3600  142.1910 C   0  0  1  0  0  3  0  0  0  0  0  0
  194.5460  172.7310  142.9350 C   0  0  2  0  0  3  0  0  0  0  0  0
  196.9820  177.0080  142.7860 O   0  0  0  0  0  1  0  0  0  0  0  0
  196.4210  175.9670  143.5270 C   0  0  1  0  0  3  0  0  0  0  0  0
  196.8490  173.5780  143.8750 C   0  0  1  0  0  3  0  0  0  0  0  0
  197.4200  171.5380  145.1860 O   0  0  0  0  0  0  0  0  0  0  0  0
  196.7400  173.4390  146.2670 O   0  0  0  0  0  1  0  0  0  0  0  0
  196.9990  172.8600  145.1780 C   0  0  0  0  0  0  0  0  0  0  0  0
  194.5690  170.4240  143.6460 O   0  0  0  0  0  1  0  0  0  0  0  0
  194.1350  171.7040  143.9940 C   0  0  0  0  0  2  0  0  0  0  0  0
  195.2820  175.7340  140.4940 C   0  0  0  0  0  1  0  0  0  0  0  0
  195.8340  174.8410  141.4260 O   0  0  0  0  0  0  0  0  0  0  0  0
  189.4050  174.0790  144.9380 C   0  0  0  0  0  3  0  0  0  0  0  0
  189.8370  173.1130  144.1340 C   0  0  0  0  0  3  0  0  0  0  0  0
  189.4720  173.9360  146.4210 C   0  0  0  0  0  2  0  0  0  0  0  0
  189.0750  175.2460  147.0830 C   0  0  0  0  0  2  0  0  0  0  0  0
  189.8370  176.4130  146.4750 C   0  0  2  0  0  3  0  0  0  0  0  0
  190.7300  176.9900  147.4670 N   0  0  0  0  0  2  0  0  0  0  0  0
  191.8010  176.0230  147.6710 C   0  0  0  0  0  2  0  0  0  0  0  0
  192.6230  175.8140  146.4030 C   0  0  2  0  0  3  0  0  0  0  0  0
  193.1110  174.3820  146.2960 C   0  0  0  0  0  1  0  0  0  0  0  0
  194.6860  177.5110  146.2920 C   0  0  0  0  0  3  0  0  0  0  0  0
  193.7540  176.7460  146.3440 C   0  0  0  0  0  0  0  0  0  0  0  0
  188.8950  177.4200  146.0030 N   0  0  0  0  0  2  0  0  0  0  0  0
  186.8010  177.1060  142.3270 C   0  0  0  0  0  3  0  0  0  0  0  0
  188.8590  177.5150  143.5370 C   0  0  0  0  0  3  0  0  0  0  0  0
  186.1290  176.9120  143.5360 C   0  0  0  0  0  3  0  0  0  0  0  0
  186.0680  176.7990  146.0210 C   0  0  0  0  0  1  0  0  0  0  0  0
  188.1900  177.3250  144.7580 C   0  0  0  0  0  0  0  0  0  0  0  0
  186.8170  177.0180  144.7510 C   0  0  0  0  0  0  0  0  0  0  0  0
  188.1650  177.4090  142.3260 C   0  0  0  0  0  3  0  0  0  0  0  0
  1  2  1  0  0  0  0
  2 25  1  0  0  0  0
  3  1  1  0  0  0  0
  3  2  1  0  0  0  0
  4 23  1  6  0  0  0
  4  6  1  0  0  0  0
  4 15  1  0  0  0  0
  4 10  1  0  0  0  0
  5 12  1  0  0  0  0
  6  7  1  0  0  0  0
  7  8  1  6  0  0  0
  9  5  1  1  0  0  0
  9  8  1  0  0  0  0
  9  2  1  0  0  0  0
 10 16  1  0  0  0  0
 12  7  1  0  0  0  0
 12 13  1  0  0  0  0
 13 10  1  0  0  0  0
 13 21  1  0  0  0  0
 14 15  1  0  0  0  0
 15 11  1  0  0  0  0
 16 11  1  0  0  0  0
 16 19  1  0  0  0  0
 19 17  2  0  0  0  0
 19 18  1  0  0  0  0
 20 21  1  0  0  0  0
 22 23  1  0  0  0  0
 24 26  1  0  0  0  0
 25 24  2  0  0  0  0
 26 27  1  0  0  0  0
 28 27  1  0  0  0  0
 28 29  1  0  0  0  0
 29 30  1  0  0  0  0
 31 30  1  0  0  0  0
 32 31  1  0  0  0  0
 33 34  3  0  0  0  0
 34 31  1  0  0  0  0
 35 28  1  0  0  0  0
 36 38  1  0  0  0  0
 37 40  2  0  0  0  0
 38 41  2  0  0  0  0
 40 35  1  0  0  0  0
 41 40  1  0  0  0  0
 41 39  1  0  0  0  0
 42 36  2  0  0  0  0
 42 37  1  0  0  0  0
M  END
>  <MODEL>
3

>  <REMARK>
 VINA RESULT:      -7.2      4.637      8.397
  Name = 
  14 active torsions:
  status: ('A' for Active; 'I' for Inactive)
    1  A    between atoms: C_1  and  O_41
    2  A    between atoms: C_3  and  C_14
    3  A    between atoms: C_3  and  C_20
    4  A    between atoms: C_6  and  C_29
    5  A    between atoms: C_6  and  C_40
    6  A    between atoms: C_9  and  C_13
    7  A    between atoms: C_9  and  C_17
    8  A    between atoms: C_17  and  C_34
    9  A    between atoms: N_18  and  C_29
   10  A    between atoms: N_18  and  C_34
   11  A    between atoms: C_24  and  C_37
   12  A    between atoms: C_28  and  C_31
   13  A    between atoms: C_32  and  N_35
   14  A    between atoms: C_34  and  N_35
                            x       y       z     vdW  Elec       q    Type
                         _______ _______ _______ _____ _____    ______ ____

>  <TORSDO>
F 14

$$$$
=
 OpenBabel11062420003D

 42 46  0  0  1  0  0  0  0  0999 V2000
  188.9430  171.9120  143.0390 C   0  0  0  0  0  2  0  0  0  0  0  0
  189.4050  173.1650  142.3300 C   0  0  0  0  0  0  0  0  0  0  0  0
  189.4840  173.0910  143.8360 C   0  0  0  0  0  2  0  0  0  0  0  0
  195.0300  175.0700  142.2830 C   0  0  2  0  0  0  0  0  0  0  0  0
  191.7790  172.3040  142.4830 C   0  0  0  0  0  2  0  0  0  0  0  0
  193.6280  175.5340  141.7880 C   0  0  0  0  0  2  0  0  0  0  0  0
  192.5130  174.5800  142.2600 C   0  0  1  0  0  3  0  0  0  0  0  0
  191.3450  174.4440  141.3170 C   0  0  0  0  0  2  0  0  0  0  0  0
  190.7590  173.0600  141.6240 C   0  0  2  0  0  3  0  0  0  0  0  0
  194.8630  174.3750  143.6340 C   0  0  1  0  0  3  0  0  0  0  0  0
  196.9330  175.5980  143.7080 C   0  0  0  0  0  2  0  0  0  0  0  0
  193.0200  173.1630  142.4220 C   0  0  1  0  0  3  0  0  0  0  0  0
  194.0720  173.0460  143.5490 C   0  0  2  0  0  3  0  0  0  0  0  0
  196.6740  176.7530  141.6150 O   0  0  0  0  0  1  0  0  0  0  0  0
  195.9690  176.2090  142.6890 C   0  0  1  0  0  3  0  0  0  0  0  0
  196.2450  174.3440  144.2570 C   0  0  1  0  0  3  0  0  0  0  0  0
  197.0000  173.5670  146.5000 O   0  0  0  0  0  1  0  0  0  0  0  0
  195.3660  175.1640  146.3320 O   0  0  0  0  0  0  0  0  0  0  0  0
  196.1730  174.3910  145.7500 C   0  0  0  0  0  0  0  0  0  0  0  0
  193.9980  171.4800  145.3840 O   0  0  0  0  0  1  0  0  0  0  0  0
  193.4700  172.6810  144.9090 C   0  0  0  0  0  2  0  0  0  0  0  0
  195.3130  174.4550  140.0580 C   0  0  0  0  0  1  0  0  0  0  0  0
  195.6520  174.1520  141.3870 O   0  0  0  0  0  0  0  0  0  0  0  0
  188.2880  175.3460  142.1040 C   0  0  0  0  0  3  0  0  0  0  0  0
  188.3050  174.0470  141.8210 C   0  0  0  0  0  3  0  0  0  0  0  0
  187.2010  176.2320  141.5940 C   0  0  0  0  0  2  0  0  0  0  0  0
  186.8330  177.2570  142.6550 C   0  0  0  0  0  2  0  0  0  0  0  0
  186.8770  176.6400  144.0450 C   0  0  2  0  0  3  0  0  0  0  0  0
  185.5810  176.7810  144.6880 N   0  0  0  0  0  2  0  0  0  0  0  0
  184.8430  177.7730  143.9160 C   0  0  0  0  0  2  0  0  0  0  0  0
  184.5610  179.0280  144.7330 C   0  0  2  0  0  3  0  0  0  0  0  0
  185.4490  180.1780  144.2970 C   0  0  0  0  0  1  0  0  0  0  0  0
  184.8570  178.5660  147.3500 C   0  0  0  0  0  3  0  0  0  0  0  0
  184.7220  178.7760  146.1690 C   0  0  0  0  0  0  0  0  0  0  0  0
  187.9060  177.2970  144.8400 N   0  0  0  0  0  2  0  0  0  0  0  0
  191.2350  175.2520  146.4940 C   0  0  0  0  0  3  0  0  0  0  0  0
  188.8580  175.7180  146.4810 C   0  0  0  0  0  3  0  0  0  0  0  0
  191.4130  176.1360  145.4270 C   0  0  0  0  0  3  0  0  0  0  0  0
  190.5460  177.7450  143.7400 C   0  0  0  0  0  1  0  0  0  0  0  0
  189.0290  176.6110  145.4090 C   0  0  0  0  0  0  0  0  0  0  0  0
  190.3170  176.8150  144.8810 C   0  0  0  0  0  0  0  0  0  0  0  0
  189.9580  175.0440  147.0220 C   0  0  0  0  0  3  0  0  0  0  0  0
  1  3  1  0  0  0  0
  2  1  1  0  0  0  0
  2  3  1  0  0  0  0
  4 23  1  6  0  0  0
  4 15  1  0  0  0  0
  4 10  1  0  0  0  0
  6  7  1  0  0  0  0
  6  4  1  0  0  0  0
  7  8  1  6  0  0  0
  7 12  1  0  0  0  0
  9  8  1  1  0  0  0
  9  2  1  0  0  0  0
  9  5  1  0  0  0  0
 10 16  1  0  0  0  0
 11 16  1  0  0  0  0
 12  5  1  0  0  0  0
 12 13  1  0  0  0  0
 13 10  1  0  0  0  0
 13 21  1  0  0  0  0
 14 15  1  0  0  0  0
 15 11  1  0  0  0  0
 16 19  1  0  0  0  0
 19 18  2  0  0  0  0
 19 17  1  0  0  0  0
 21 20  1  0  0  0  0
 22 23  1  0  0  0  0
 25 24  2  0  0  0  0
 25  2  1  0  0  0  0
 26 24  1  0  0  0  0
 26 27  1  0  0  0  0
 27 28  1  0  0  0  0
 28 29  1  0  0  0  0
 28 35  1  0  0  0  0
 30 29  1  0  0  0  0
 30 31  1  0  0  0  0
 31 34  1  0  0  0  0
 32 31  1  0  0  0  0
 34 33  3  0  0  0  0
 35 40  1  0  0  0  0
 36 42  1  0  0  0  0
 37 42  2  0  0  0  0
 38 36  2  0  0  0  0
 39 41  1  0  0  0  0
 40 37  1  0  0  0  0
 41 40  2  0  0  0  0
 41 38  1  0  0  0  0
M  END
>  <MODEL>
4

>  <REMARK>
 VINA RESULT:      -7.2      4.635      9.088
  Name = 
  14 active torsions:
  status: ('A' for Active; 'I' for Inactive)
    1  A    between atoms: C_1  and  O_41
    2  A    between atoms: C_3  and  C_14
    3  A    between atoms: C_3  and  C_20
    4  A    between atoms: C_6  and  C_29
    5  A    between atoms: C_6  and  C_40
    6  A    between atoms: C_9  and  C_13
    7  A    between atoms: C_9  and  C_17
    8  A    between atoms: C_17  and  C_34
    9  A    between atoms: N_18  and  C_29
   10  A    between atoms: N_18  and  C_34
   11  A    between atoms: C_24  and  C_37
   12  A    between atoms: C_28  and  C_31
   13  A    between atoms: C_32  and  N_35
   14  A    between atoms: C_34  and  N_35
                            x       y       z     vdW  Elec       q    Type
                         _______ _______ _______ _____ _____    ______ ____

>  <TORSDO>
F 14

$$$$
=
 OpenBabel11062420003D

 42 46  0  0  1  0  0  0  0  0999 V2000
  189.8390  173.3480  145.0150 C   0  0  0  0  0  2  0  0  0  0  0  0
  190.4710  173.6470  143.6750 C   0  0  0  0  0  0  0  0  0  0  0  0
  189.4280  172.5610  143.7790 C   0  0  0  0  0  2  0  0  0  0  0  0
  186.0790  177.6320  143.3610 C   0  0  2  0  0  0  0  0  0  0  0  0
  190.0360  176.1240  143.9380 C   0  0  0  0  0  2  0  0  0  0  0  0
  186.4230  176.2160  142.8100 C   0  0  0  0  0  2  0  0  0  0  0  0
  187.7370  175.6760  143.4090 C   0  0  1  0  0  3  0  0  0  0  0  0
  188.5370  174.7840  142.4950 C   0  0  0  0  0  2  0  0  0  0  0  0
  189.9830  174.9240  142.9870 C   0  0  2  0  0  3  0  0  0  0  0  0
  186.6020  177.7370  144.7940 C   0  0  1  0  0  3  0  0  0  0  0  0
  184.5240  178.9440  144.6980 C   0  0  0  0  0  2  0  0  0  0  0  0
  188.6940  176.7940  143.7600 C   0  0  1  0  0  3  0  0  0  0  0  0
  188.1470  177.6960  144.8900 C   0  0  2  0  0  3  0  0  0  0  0  0
  183.9000  178.2930  142.4690 O   0  0  0  0  0  1  0  0  0  0  0  0
  184.5880  177.8730  143.6080 C   0  0  1  0  0  3  0  0  0  0  0  0
  185.8790  178.9160  145.4130 C   0  0  1  0  0  3  0  0  0  0  0  0
  185.1560  177.5510  147.3680 O   0  0  0  0  0  0  0  0  0  0  0  0
  186.0200  179.6480  147.6920 O   0  0  0  0  0  1  0  0  0  0  0  0
  185.6960  178.7350  146.8860 C   0  0  0  0  0  0  0  0  0  0  0  0
  187.9530  176.0850  146.6760 O   0  0  0  0  0  1  0  0  0  0  0  0
  188.5960  177.2610  146.2880 C   0  0  0  0  0  2  0  0  0  0  0  0
  186.8260  178.2830  141.2570 C   0  0  0  0  0  1  0  0  0  0  0  0
  186.6750  178.6770  142.5960 O   0  0  0  0  0  0  0  0  0  0  0  0
  192.3740  172.2390  144.3530 C   0  0  0  0  0  3  0  0  0  0  0  0
  191.8700  173.1330  143.5070 C   0  0  0  0  0  3  0  0  0  0  0  0
  193.7620  171.7180  144.1880 C   0  0  0  0  0  2  0  0  0  0  0  0
  194.7030  172.4580  145.1260 C   0  0  0  0  0  2  0  0  0  0  0  0
  195.6130  173.3990  144.3500 C   0  0  2  0  0  3  0  0  0  0  0  0
  195.1720  174.7720  144.5320 N   0  0  0  0  0  2  0  0  0  0  0  0
  194.5940  174.8470  145.8680 C   0  0  0  0  0  2  0  0  0  0  0  0
  193.5810  175.9800  145.9830 C   0  0  2  0  0  3  0  0  0  0  0  0
  194.2300  177.2450  146.5110 C   0  0  0  0  0  1  0  0  0  0  0  0
  191.5140  175.2780  147.5270 C   0  0  0  0  0  3  0  0  0  0  0  0
  192.4480  175.5950  146.8320 C   0  0  0  0  0  0  0  0  0  0  0  0
  195.5900  173.0470  142.9360 N   0  0  0  0  0  2  0  0  0  0  0  0
  197.1100  175.5230  139.8450 C   0  0  0  0  0  3  0  0  0  0  0  0
  197.4430  174.3220  141.9220 C   0  0  0  0  0  3  0  0  0  0  0  0
  195.7800  175.0960  139.8130 C   0  0  0  0  0  3  0  0  0  0  0  0
  193.8520  173.8420  140.7620 C   0  0  0  0  0  1  0  0  0  0  0  0
  196.1060  173.8920  141.8990 C   0  0  0  0  0  0  0  0  0  0  0  0
  195.2740  174.2820  140.8330 C   0  0  0  0  0  0  0  0  0  0  0  0
  197.9410  175.1370  140.9000 C   0  0  0  0  0  3  0  0  0  0  0  0
  2  3  1  0  0  0  0
  2  1  1  0  0  0  0
  3  1  1  0  0  0  0
  4 23  1  6  0  0  0
  4 15  1  0  0  0  0
  4 10  1  0  0  0  0
  6  4  1  0  0  0  0
  6  7  1  0  0  0  0
  7  8  1  6  0  0  0
  7 12  1  0  0  0  0
  9  8  1  1  0  0  0
  9  2  1  0  0  0  0
  9  5  1  0  0  0  0
 10 13  1  0  0  0  0
 10 16  1  0  0  0  0
 11 16  1  0  0  0  0
 12  5  1  0  0  0  0
 12 13  1  0  0  0  0
 13 21  1  0  0  0  0
 14 15  1  0  0  0  0
 15 11  1  0  0  0  0
 16 19  1  0  0  0  0
 19 17  2  0  0  0  0
 19 18  1  0  0  0  0
 21 20  1  0  0  0  0
 22 23  1  0  0  0  0
 25  2  1  0  0  0  0
 25 24  2  0  0  0  0
 26 24  1  0  0  0  0
 26 27  1  0  0  0  0
 28 29  1  0  0  0  0
 28 27  1  0  0  0  0
 29 30  1  0  0  0  0
 30 31  1  0  0  0  0
 31 32  1  0  0  0  0
 31 34  1  0  0  0  0
 34 33  3  0  0  0  0
 35 28  1  0  0  0  0
 36 42  1  0  0  0  0
 38 36  2  0  0  0  0
 38 41  1  0  0  0  0
 39 41  1  0  0  0  0
 40 37  1  0  0  0  0
 40 35  1  0  0  0  0
 41 40  2  0  0  0  0
 42 37  2  0  0  0  0
M  END
>  <MODEL>
5

>  <REMARK>
 VINA RESULT:      -7.2      1.624      3.254
  Name = 
  14 active torsions:
  status: ('A' for Active; 'I' for Inactive)
    1  A    between atoms: C_1  and  O_41
    2  A    between atoms: C_3  and  C_14
    3  A    between atoms: C_3  and  C_20
    4  A    between atoms: C_6  and  C_29
    5  A    between atoms: C_6  and  C_40
    6  A    between atoms: C_9  and  C_13
    7  A    between atoms: C_9  and  C_17
    8  A    between atoms: C_17  and  C_34
    9  A    between atoms: N_18  and  C_29
   10  A    between atoms: N_18  and  C_34
   11  A    between atoms: C_24  and  C_37
   12  A    between atoms: C_28  and  C_31
   13  A    between atoms: C_32  and  N_35
   14  A    between atoms: C_34  and  N_35
                            x       y       z     vdW  Elec       q    Type
                         _______ _______ _______ _____ _____    ______ ____

>  <TORSDO>
F 14

$$$$
=
 OpenBabel11062420003D

 42 46  0  0  1  0  0  0  0  0999 V2000
  189.6920  173.1450  145.6250 C   0  0  0  0  0  2  0  0  0  0  0  0
  190.6130  173.4340  144.4620 C   0  0  0  0  0  0  0  0  0  0  0  0
  189.5690  172.3520  144.3310 C   0  0  0  0  0  2  0  0  0  0  0  0
  186.4520  177.4850  143.2170 C   0  0  2  0  0  0  0  0  0  0  0  0
  190.1800  175.9220  144.6050 C   0  0  0  0  0  2  0  0  0  0  0  0
  186.8750  176.0560  142.7630 C   0  0  0  0  0  2  0  0  0  0  0  0
  188.0290  175.5030  143.6220 C   0  0  1  0  0  3  0  0  0  0  0  0
  188.9820  174.5860  142.9010 C   0  0  0  0  0  2  0  0  0  0  0  0
  190.3000  174.7100  143.6750 C   0  0  2  0  0  3  0  0  0  0  0  0
  186.6730  177.6010  144.7250 C   0  0  1  0  0  3  0  0  0  0  0  0
  184.6820  178.8400  144.1950 C   0  0  0  0  0  2  0  0  0  0  0  0
  188.9150  176.6110  144.1500 C   0  0  1  0  0  3  0  0  0  0  0  0
  188.1660  177.5370  145.1350 C   0  0  2  0  0  3  0  0  0  0  0  0
  184.5140  178.1680  141.8920 O   0  0  0  0  0  1  0  0  0  0  0  0
  184.9470  177.7530  143.1520 C   0  0  1  0  0  3  0  0  0  0  0  0
  185.8610  178.8010  145.1710 C   0  0  1  0  0  3  0  0  0  0  0  0
  185.9410  179.4150  147.5840 O   0  0  0  0  0  1  0  0  0  0  0  0
  184.4740  177.8120  146.8590 O   0  0  0  0  0  0  0  0  0  0  0  0
  185.3790  178.6430  146.5770 C   0  0  0  0  0  0  0  0  0  0  0  0
  189.2400  177.9170  147.2630 O   0  0  0  0  0  1  0  0  0  0  0  0
  188.3120  177.1140  146.5990 C   0  0  0  0  0  2  0  0  0  0  0  0
  187.6060  178.1020  141.2940 C   0  0  0  0  0  1  0  0  0  0  0  0
  187.2110  178.5100  142.5790 O   0  0  0  0  0  0  0  0  0  0  0  0
  192.5940  172.2250  143.6420 C   0  0  0  0  0  3  0  0  0  0  0  0
  192.0120  172.9160  144.6180 C   0  0  0  0  0  3  0  0  0  0  0  0
  193.9870  171.7120  143.7860 C   0  0  0  0  0  2  0  0  0  0  0  0
  194.8270  172.1660  142.6030 C   0  0  0  0  0  2  0  0  0  0  0  0
  194.4900  173.5970  142.2140 C   0  0  2  0  0  3  0  0  0  0  0  0
  194.7190  173.7890  140.7920 N   0  0  0  0  0  2  0  0  0  0  0  0
  193.4330  174.1560  140.2120 C   0  0  0  0  0  2  0  0  0  0  0  0
  192.7980  172.9900  139.4630 C   0  0  2  0  0  3  0  0  0  0  0  0
  192.5340  173.3480  138.0120 C   0  0  0  0  0  1  0  0  0  0  0  0
  190.5370  172.1920  140.6460 C   0  0  0  0  0  3  0  0  0  0  0  0
  191.5580  172.5520  140.1140 C   0  0  0  0  0  0  0  0  0  0  0  0
  195.3140  174.5210  142.9850 N   0  0  0  0  0  2  0  0  0  0  0  0
  193.8800  176.6750  146.3460 C   0  0  0  0  0  3  0  0  0  0  0  0
  193.8760  176.2740  143.9570 C   0  0  0  0  0  3  0  0  0  0  0  0
  194.8300  175.6640  146.5130 C   0  0  0  0  0  3  0  0  0  0  0  0
  196.3160  173.8790  145.6230 C   0  0  0  0  0  1  0  0  0  0  0  0
  194.8330  175.2580  144.1160 C   0  0  0  0  0  0  0  0  0  0  0  0
  195.3070  174.9540  145.4050 C   0  0  0  0  0  0  0  0  0  0  0  0
  193.4040  176.9810  145.0690 C   0  0  0  0  0  3  0  0  0  0  0  0
  2 25  1  0  0  0  0
  2  1  1  0  0  0  0
  3  2  1  0  0  0  0
  3  1  1  0  0  0  0
  4 23  1  6  0  0  0
  4 10  1  0  0  0  0
  6  4  1  0  0  0  0
  7  6  1  6  0  0  0
  7 12  1  0  0  0  0
  8  7  1  0  0  0  0
  9  8  1  1  0  0  0
  9  2  1  0  0  0  0
  9  5  1  0  0  0  0
 10 13  1  0  0  0  0
 10 16  1  0  0  0  0
 11 16  1  0  0  0  0
 12  5  1  0  0  0  0
 12 13  1  0  0  0  0
 13 21  1  0  0  0  0
 14 15  1  0  0  0  0
 15  4  1  0  0  0  0
 15 11  1  0  0  0  0
 16 19  1  0  0  0  0
 19 18  2  0  0  0  0
 19 17  1  0  0  0  0
 21 20  1  0  0  0  0
 22 23  1  0  0  0  0
 24 26  1  0  0  0  0
 24 25  2  0  0  0  0
 27 26  1  0  0  0  0
 28 27  1  0  0  0  0
 28 35  1  0  0  0  0
 29 28  1  0  0  0  0
 30 29  1  0  0  0  0
 31 34  1  0  0  0  0
 31 30  1  0  0  0  0
 32 31  1  0  0  0  0
 34 33  3  0  0  0  0
 35 40  1  0  0  0  0
 36 38  1  0  0  0  0
 37 40  2  0  0  0  0
 37 42  1  0  0  0  0
 40 41  1  0  0  0  0
 41 39  1  0  0  0  0
 41 38  2  0  0  0  0
 42 36  2  0  0  0  0
M  END
>  <MODEL>
6

>  <REMARK>
 VINA RESULT:      -7.0      1.704      3.307
  Name = 
  14 active torsions:
  status: ('A' for Active; 'I' for Inactive)
    1  A    between atoms: C_1  and  O_41
    2  A    between atoms: C_3  and  C_14
    3  A    between atoms: C_3  and  C_20
    4  A    between atoms: C_6  and  C_29
    5  A    between atoms: C_6  and  C_40
    6  A    between atoms: C_9  and  C_13
    7  A    between atoms: C_9  and  C_17
    8  A    between atoms: C_17  and  C_34
    9  A    between atoms: N_18  and  C_29
   10  A    between atoms: N_18  and  C_34
   11  A    between atoms: C_24  and  C_37
   12  A    between atoms: C_28  and  C_31
   13  A    between atoms: C_32  and  N_35
   14  A    between atoms: C_34  and  N_35
                            x       y       z     vdW  Elec       q    Type
                         _______ _______ _______ _____ _____    ______ ____

>  <TORSDO>
F 14

$$$$
=
 OpenBabel11062420003D

 42 46  0  0  1  0  0  0  0  0999 V2000
  189.7960  173.4880  145.7930 C   0  0  0  0  0  2  0  0  0  0  0  0
  190.7900  173.8570  144.7150 C   0  0  0  0  0  0  0  0  0  0  0  0
  189.9150  172.6410  144.5330 C   0  0  0  0  0  2  0  0  0  0  0  0
  186.3630  177.4870  143.1340 C   0  0  2  0  0  0  0  0  0  0  0  0
  190.1670  176.3080  144.6840 C   0  0  0  0  0  2  0  0  0  0  0  0
  186.9010  176.0680  142.7840 C   0  0  0  0  0  2  0  0  0  0  0  0
  188.0750  175.6620  143.6970 C   0  0  1  0  0  3  0  0  0  0  0  0
  189.1090  174.7750  143.0540 C   0  0  0  0  0  2  0  0  0  0  0  0
  190.3980  175.0500  143.8400 C   0  0  2  0  0  3  0  0  0  0  0  0
  186.5430  177.7190  144.6350 C   0  0  1  0  0  3  0  0  0  0  0  0
  184.4750  178.7640  143.9910 C   0  0  0  0  0  2  0  0  0  0  0  0
  188.8640  176.8670  144.1630 C   0  0  1  0  0  3  0  0  0  0  0  0
  188.0270  177.7960  145.0720 C   0  0  2  0  0  3  0  0  0  0  0  0
  184.4070  177.9320  141.7360 O   0  0  0  0  0  1  0  0  0  0  0  0
  184.8430  177.6350  143.0280 C   0  0  1  0  0  3  0  0  0  0  0  0
  185.6340  178.8790  144.9860 C   0  0  1  0  0  3  0  0  0  0  0  0
  184.0600  177.9480  146.6790 O   0  0  0  0  0  0  0  0  0  0  0  0
  185.6750  179.4430  147.3170 O   0  0  0  0  0  1  0  0  0  0  0  0
  185.1350  178.7780  146.3920 C   0  0  0  0  0  0  0  0  0  0  0  0
  187.4520  176.3390  146.9090 O   0  0  0  0  0  1  0  0  0  0  0  0
  188.1740  177.4820  146.5640 C   0  0  0  0  0  2  0  0  0  0  0  0
  187.5480  178.0500  141.2140 C   0  0  0  0  0  1  0  0  0  0  0  0
  187.0560  178.5230  142.4420 O   0  0  0  0  0  0  0  0  0  0  0  0
  193.1130  174.5070  145.2060 C   0  0  0  0  0  3  0  0  0  0  0  0
  192.2200  173.5370  145.0350 C   0  0  0  0  0  3  0  0  0  0  0  0
  194.5350  174.1970  145.5320 C   0  0  0  0  0  2  0  0  0  0  0  0
  194.9020  172.8290  144.9790 C   0  0  0  0  0  2  0  0  0  0  0  0
  196.1320  172.9160  144.0890 C   0  0  2  0  0  3  0  0  0  0  0  0
  196.8530  174.1480  144.3630 N   0  0  0  0  0  2  0  0  0  0  0  0
  197.9080  174.2410  143.3610 C   0  0  0  0  0  2  0  0  0  0  0  0
  197.9410  175.6150  142.7010 C   0  0  2  0  0  3  0  0  0  0  0  0
  196.8990  176.5390  143.3050 C   0  0  0  0  0  1  0  0  0  0  0  0
  197.5990  175.4300  140.0560 C   0  0  0  0  0  3  0  0  0  0  0  0
  197.7520  175.5120  141.2500 C   0  0  0  0  0  0  0  0  0  0  0  0
  195.7270  172.8720  142.6890 N   0  0  0  0  0  2  0  0  0  0  0  0
  191.7900  171.9170  141.4310 C   0  0  0  0  0  3  0  0  0  0  0  0
  193.9060  171.2340  142.3920 C   0  0  0  0  0  3  0  0  0  0  0  0
  192.2740  173.2210  141.2960 C   0  0  0  0  0  3  0  0  0  0  0  0
  194.0530  174.9410  141.5520 C   0  0  0  0  0  1  0  0  0  0  0  0
  194.4010  172.5420  142.2560 C   0  0  0  0  0  0  0  0  0  0  0  0
  193.5740  173.5390  141.7070 C   0  0  0  0  0  0  0  0  0  0  0  0
  192.6060  170.9230  141.9770 C   0  0  0  0  0  3  0  0  0  0  0  0
  2 25  1  0  0  0  0
  2  1  1  0  0  0  0
  3  2  1  0  0  0  0
  3  1  1  0  0  0  0
  4 23  1  6  0  0  0
  4 10  1  0  0  0  0
  6  4  1  0  0  0  0
  7  6  1  6  0  0  0
  7 12  1  0  0  0  0
  8  7  1  0  0  0  0
  9  8  1  1  0  0  0
  9  5  1  0  0  0  0
  9  2  1  0  0  0  0
 10 16  1  0  0  0  0
 10 13  1  0  0  0  0
 11 16  1  0  0  0  0
 12  5  1  0  0  0  0
 12 13  1  0  0  0  0
 13 21  1  0  0  0  0
 14 15  1  0  0  0  0
 15  4  1  0  0  0  0
 15 11  1  0  0  0  0
 16 19  1  0  0  0  0
 19 17  2  0  0  0  0
 19 18  1  0  0  0  0
 21 20  1  0  0  0  0
 22 23  1  0  0  0  0
 24 26  1  0  0  0  0
 25 24  2  0  0  0  0
 27 26  1  0  0  0  0
 28 29  1  0  0  0  0
 28 27  1  0  0  0  0
 30 29  1  0  0  0  0
 31 32  1  0  0  0  0
 31 30  1  0  0  0  0
 33 34  3  0  0  0  0
 34 31  1  0  0  0  0
 35 28  1  0  0  0  0
 36 42  1  0  0  0  0
 38 36  2  0  0  0  0
 38 41  1  0  0  0  0
 39 41  1  0  0  0  0
 40 37  1  0  0  0  0
 40 35  1  0  0  0  0
 41 40  2  0  0  0  0
 42 37  2  0  0  0  0
M  END
>  <MODEL>
7

>  <REMARK>
 VINA RESULT:      -7.0      1.662      3.503
  Name = 
  14 active torsions:
  status: ('A' for Active; 'I' for Inactive)
    1  A    between atoms: C_1  and  O_41
    2  A    between atoms: C_3  and  C_14
    3  A    between atoms: C_3  and  C_20
    4  A    between atoms: C_6  and  C_29
    5  A    between atoms: C_6  and  C_40
    6  A    between atoms: C_9  and  C_13
    7  A    between atoms: C_9  and  C_17
    8  A    between atoms: C_17  and  C_34
    9  A    between atoms: N_18  and  C_29
   10  A    between atoms: N_18  and  C_34
   11  A    between atoms: C_24  and  C_37
   12  A    between atoms: C_28  and  C_31
   13  A    between atoms: C_32  and  N_35
   14  A    between atoms: C_34  and  N_35
                            x       y       z     vdW  Elec       q    Type
                         _______ _______ _______ _____ _____    ______ ____

>  <TORSDO>
F 14

$$$$
=
 OpenBabel11062420003D

 42 46  0  0  1  0  0  0  0  0999 V2000
  189.8690  173.3430  144.7820 C   0  0  0  0  0  2  0  0  0  0  0  0
  190.3510  173.5920  143.3710 C   0  0  0  0  0  0  0  0  0  0  0  0
  189.2730  172.5640  143.6160 C   0  0  0  0  0  2  0  0  0  0  0  0
  185.9990  177.6330  143.3030 C   0  0  2  0  0  0  0  0  0  0  0  0
  189.9580  176.0700  143.6900 C   0  0  0  0  0  2  0  0  0  0  0  0
  186.3010  176.2210  142.7170 C   0  0  0  0  0  2  0  0  0  0  0  0
  187.6330  175.6560  143.2510 C   0  0  1  0  0  3  0  0  0  0  0  0
  188.3830  174.7700  142.2920 C   0  0  0  0  0  2  0  0  0  0  0  0
  189.8500  174.8850  142.7230 C   0  0  2  0  0  3  0  0  0  0  0  0
  186.5830  177.7090  144.7150 C   0  0  1  0  0  3  0  0  0  0  0  0
  184.5180  178.9410  144.7250 C   0  0  0  0  0  2  0  0  0  0  0  0
  188.6170  176.7580  143.5780 C   0  0  1  0  0  3  0  0  0  0  0  0
  188.1300  177.6490  144.7440 C   0  0  2  0  0  3  0  0  0  0  0  0
  183.7930  178.3320  142.5150 O   0  0  0  0  0  1  0  0  0  0  0  0
  184.5220  177.8870  143.6170 C   0  0  1  0  0  3  0  0  0  0  0  0
  185.9010  178.8870  145.3810 C   0  0  1  0  0  3  0  0  0  0  0  0
  186.2370  179.6680  147.7220 O   0  0  0  0  0  1  0  0  0  0  0  0
  185.2710  177.6300  147.3240 O   0  0  0  0  0  0  0  0  0  0  0  0
  185.7780  178.6850  146.8570 C   0  0  0  0  0  0  0  0  0  0  0  0
  187.9600  176.0370  146.5330 O   0  0  0  0  0  1  0  0  0  0  0  0
  188.6320  177.1860  146.1150 C   0  0  0  0  0  2  0  0  0  0  0  0
  186.7070  178.2900  141.1880 C   0  0  0  0  0  1  0  0  0  0  0  0
  186.5750  178.6820  142.5300 O   0  0  0  0  0  0  0  0  0  0  0  0
  192.5600  173.6670  142.2880 C   0  0  0  0  0  3  0  0  0  0  0  0
  191.6920  173.0040  143.0470 C   0  0  0  0  0  3  0  0  0  0  0  0
  193.8990  173.0920  141.9670 C   0  0  0  0  0  2  0  0  0  0  0  0
  194.9300  173.6020  142.9620 C   0  0  0  0  0  2  0  0  0  0  0  0
  194.8040  172.8770  144.2940 C   0  0  2  0  0  3  0  0  0  0  0  0
  194.9850  173.8180  145.3860 N   0  0  0  0  0  2  0  0  0  0  0  0
  193.7340  173.8300  146.1340 C   0  0  0  0  0  2  0  0  0  0  0  0
  193.0740  175.2040  146.1080 C   0  0  2  0  0  3  0  0  0  0  0  0
  194.1010  176.3090  146.2650 C   0  0  0  0  0  1  0  0  0  0  0  0
  191.1940  175.4060  147.9990 C   0  0  0  0  0  3  0  0  0  0  0  0
  192.0410  175.3160  147.1450 C   0  0  0  0  0  0  0  0  0  0  0  0
  195.8030  171.8180  144.3710 N   0  0  0  0  0  2  0  0  0  0  0  0
  195.6010  168.6360  147.1690 C   0  0  0  0  0  3  0  0  0  0  0  0
  196.8000  170.5090  146.2090 C   0  0  0  0  0  3  0  0  0  0  0  0
  194.5450  168.8600  146.2830 C   0  0  0  0  0  3  0  0  0  0  0  0
  193.4610  170.1180  144.4300 C   0  0  0  0  0  1  0  0  0  0  0  0
  195.7440  170.7380  145.3120 C   0  0  0  0  0  0  0  0  0  0  0  0
  194.6090  169.9070  145.3560 C   0  0  0  0  0  0  0  0  0  0  0  0
  196.7290  169.4590  147.1320 C   0  0  0  0  0  3  0  0  0  0  0  0
  2  3  1  0  0  0  0
  2  1  1  0  0  0  0
  3  1  1  0  0  0  0
  4 23  1  6  0  0  0
  4 15  1  0  0  0  0
  4 10  1  0  0  0  0
  6  7  1  0  0  0  0
  6  4  1  0  0  0  0
  7  8  1  6  0  0  0
  7 12  1  0  0  0  0
  9  8  1  1  0  0  0
  9  2  1  0  0  0  0
  9  5  1  0  0  0  0
 10 13  1  0  0  0  0
 10 16  1  0  0  0  0
 11 16  1  0  0  0  0
 12  5  1  0  0  0  0
 12 13  1  0  0  0  0
 13 21  1  0  0  0  0
 14 15  1  0  0  0  0
 15 11  1  0  0  0  0
 16 19  1  0  0  0  0
 19 18  2  0  0  0  0
 19 17  1  0  0  0  0
 21 20  1  0  0  0  0
 22 23  1  0  0  0  0
 24 25  2  0  0  0  0
 25  2  1  0  0  0  0
 26 24  1  0  0  0  0
 26 27  1  0  0  0  0
 27 28  1  0  0  0  0
 28 35  1  0  0  0  0
 28 29  1  0  0  0  0
 29 30  1  0  0  0  0
 31 30  1  0  0  0  0
 31 32  1  0  0  0  0
 31 34  1  0  0  0  0
 34 33  3  0  0  0  0
 35 40  1  0  0  0  0
 37 42  2  0  0  0  0
 38 36  2  0  0  0  0
 39 41  1  0  0  0  0
 40 41  2  0  0  0  0
 40 37  1  0  0  0  0
 41 38  1  0  0  0  0
 42 36  1  0  0  0  0
M  END
>  <MODEL>
8

>  <REMARK>
 VINA RESULT:      -6.9      1.236      3.650
  Name = 
  14 active torsions:
  status: ('A' for Active; 'I' for Inactive)
    1  A    between atoms: C_1  and  O_41
    2  A    between atoms: C_3  and  C_14
    3  A    between atoms: C_3  and  C_20
    4  A    between atoms: C_6  and  C_29
    5  A    between atoms: C_6  and  C_40
    6  A    between atoms: C_9  and  C_13
    7  A    between atoms: C_9  and  C_17
    8  A    between atoms: C_17  and  C_34
    9  A    between atoms: N_18  and  C_29
   10  A    between atoms: N_18  and  C_34
   11  A    between atoms: C_24  and  C_37
   12  A    between atoms: C_28  and  C_31
   13  A    between atoms: C_32  and  N_35
   14  A    between atoms: C_34  and  N_35
                            x       y       z     vdW  Elec       q    Type
                         _______ _______ _______ _____ _____    ______ ____

>  <TORSDO>
F 14

$$$$
=
 OpenBabel11062420003D

 42 46  0  0  1  0  0  0  0  0999 V2000
  190.2220  173.3760  145.3510 C   0  0  0  0  0  2  0  0  0  0  0  0
  191.3390  174.1840  144.7310 C   0  0  0  0  0  0  0  0  0  0  0  0
  190.9730  172.8450  144.1370 C   0  0  0  0  0  2  0  0  0  0  0  0
  186.7150  177.5210  143.0730 C   0  0  2  0  0  0  0  0  0  0  0  0
  190.5160  176.5750  144.7830 C   0  0  0  0  0  2  0  0  0  0  0  0
  187.3880  176.1710  142.6870 C   0  0  0  0  0  2  0  0  0  0  0  0
  188.5410  175.8140  143.6460 C   0  0  1  0  0  3  0  0  0  0  0  0
  189.6800  175.0490  143.0220 C   0  0  0  0  0  2  0  0  0  0  0  0
  190.8960  175.3860  143.8930 C   0  0  2  0  0  3  0  0  0  0  0  0
  186.7940  177.6870  144.5920 C   0  0  1  0  0  3  0  0  0  0  0  0
  184.6830  178.5940  143.8800 C   0  0  0  0  0  2  0  0  0  0  0  0
  189.2000  177.0520  144.2140 C   0  0  1  0  0  3  0  0  0  0  0  0
  188.2400  177.8610  145.1170 C   0  0  2  0  0  3  0  0  0  0  0  0
  184.8060  177.8790  141.5880 O   0  0  0  0  0  1  0  0  0  0  0  0
  185.1960  177.5500  142.8860 C   0  0  1  0  0  3  0  0  0  0  0  0
  185.7720  178.7500  144.9450 C   0  0  1  0  0  3  0  0  0  0  0  0
  185.5420  179.4110  147.3360 O   0  0  0  0  0  1  0  0  0  0  0  0
  184.4440  177.5610  146.5490 O   0  0  0  0  0  0  0  0  0  0  0  0
  185.2090  178.5340  146.3130 C   0  0  0  0  0  0  0  0  0  0  0  0
  187.6960  176.2650  146.8440 O   0  0  0  0  0  1  0  0  0  0  0  0
  188.3320  177.4820  146.5980 C   0  0  0  0  0  2  0  0  0  0  0  0
  187.9930  178.2680  141.2800 C   0  0  0  0  0  1  0  0  0  0  0  0
  187.3540  178.6450  142.4730 O   0  0  0  0  0  0  0  0  0  0  0  0
  193.6120  175.0140  145.1850 C   0  0  0  0  0  3  0  0  0  0  0  0
  192.6270  174.1780  145.5010 C   0  0  0  0  0  3  0  0  0  0  0  0
  194.8930  175.0190  145.9490 C   0  0  0  0  0  2  0  0  0  0  0  0
  196.0600  174.7990  145.0000 C   0  0  0  0  0  2  0  0  0  0  0  0
  195.8980  173.4940  144.2350 C   0  0  2  0  0  3  0  0  0  0  0  0
  197.0410  172.6320  144.4850 N   0  0  0  0  0  2  0  0  0  0  0  0
  196.8050  171.9980  145.7760 C   0  0  0  0  0  2  0  0  0  0  0  0
  196.0330  170.6910  145.6320 C   0  0  2  0  0  3  0  0  0  0  0  0
  194.5380  170.9210  145.7550 C   0  0  0  0  0  1  0  0  0  0  0  0
  196.8450  168.8840  147.4280 C   0  0  0  0  0  3  0  0  0  0  0  0
  196.4800  169.6990  146.6160 C   0  0  0  0  0  0  0  0  0  0  0  0
  195.7830  173.7740  142.8090 N   0  0  0  0  0  2  0  0  0  0  0  0
  192.1890  173.2600  140.6140 C   0  0  0  0  0  3  0  0  0  0  0  0
  194.0300  172.3120  141.8710 C   0  0  0  0  0  3  0  0  0  0  0  0
  192.7220  174.5380  140.8010 C   0  0  0  0  0  3  0  0  0  0  0  0
  194.4440  176.0900  141.7030 C   0  0  0  0  0  1  0  0  0  0  0  0
  194.5740  173.5940  142.0600 C   0  0  0  0  0  0  0  0  0  0  0  0
  193.9090  174.7110  141.5210 C   0  0  0  0  0  0  0  0  0  0  0  0
  192.8430  172.1470  141.1480 C   0  0  0  0  0  3  0  0  0  0  0  0
  2  1  1  0  0  0  0
  2 25  1  0  0  0  0
  3  2  1  0  0  0  0
  3  1  1  0  0  0  0
  4 23  1  6  0  0  0
  4 10  1  0  0  0  0
  6  4  1  0  0  0  0
  7  6  1  6  0  0  0
  7 12  1  0  0  0  0
  8  7  1  0  0  0  0
  9  8  1  1  0  0  0
  9  2  1  0  0  0  0
  9  5  1  0  0  0  0
 10 16  1  0  0  0  0
 10 13  1  0  0  0  0
 11 16  1  0  0  0  0
 12  5  1  0  0  0  0
 12 13  1  0  0  0  0
 13 21  1  0  0  0  0
 14 15  1  0  0  0  0
 15  4  1  0  0  0  0
 15 11  1  0  0  0  0
 16 19  1  0  0  0  0
 19 18  2  0  0  0  0
 19 17  1  0  0  0  0
 21 20  1  0  0  0  0
 22 23  1  0  0  0  0
 24 25  2  0  0  0  0
 24 26  1  0  0  0  0
 27 26  1  0  0  0  0
 28 29  1  0  0  0  0
 28 27  1  0  0  0  0
 29 30  1  0  0  0  0
 31 32  1  0  0  0  0
 31 30  1  0  0  0  0
 31 34  1  0  0  0  0
 34 33  3  0  0  0  0
 35 28  1  0  0  0  0
 36 38  2  0  0  0  0
 36 42  1  0  0  0  0
 37 40  1  0  0  0  0
 38 41  1  0  0  0  0
 40 35  1  0  0  0  0
 41 39  1  0  0  0  0
 41 40  2  0  0  0  0
 42 37  2  0  0  0  0
M  END
>  <MODEL>
9

>  <REMARK>
 VINA RESULT:      -6.9      1.089      2.263
  Name = 
  14 active torsions:
  status: ('A' for Active; 'I' for Inactive)
    1  A    between atoms: C_1  and  O_41
    2  A    between atoms: C_3  and  C_14
    3  A    between atoms: C_3  and  C_20
    4  A    between atoms: C_6  and  C_29
    5  A    between atoms: C_6  and  C_40
    6  A    between atoms: C_9  and  C_13
    7  A    between atoms: C_9  and  C_17
    8  A    between atoms: C_17  and  C_34
    9  A    between atoms: N_18  and  C_29
   10  A    between atoms: N_18  and  C_34
   11  A    between atoms: C_24  and  C_37
   12  A    between atoms: C_28  and  C_31
   13  A    between atoms: C_32  and  N_35
   14  A    between atoms: C_34  and  N_35
                            x       y       z     vdW  Elec       q    Type
                         _______ _______ _______ _____ _____    ______ ____

>  <TORSDO>
F 14

$$$$
