=
 OpenBabel11062422423D

 44 46  0  0  1  0  0  0  0  0999 V2000
  192.4700  176.0530  146.4080 C   0  0  0  0  0  3  0  0  0  0  0  0
  189.8000  176.5930  145.1680 N   0  0  0  0  0  0  0  0  0  0  0  0
  192.8200  176.5360  145.2010 C   0  0  0  0  0  0  0  0  0  0  0  0
  191.4860  177.0550  148.3850 N   0  0  0  0  0  1  0  0  0  0  0  0
  190.6100  176.7740  144.1770 C   0  0  0  0  0  0  0  0  0  0  0  0
  190.1550  176.9640  146.4500 O   0  0  0  0  0  0  0  0  0  0  0  0
  191.9260  177.4360  144.4110 C   0  0  0  0  0  2  0  0  0  0  0  0
  191.1930  176.3020  147.1760 C   0  0  1  0  0  3  0  0  0  0  0  0
  194.0530  176.1920  144.6360 O   0  0  0  0  0  0  0  0  0  0  0  0
  194.8010  175.1390  145.1270 N   0  0  0  0  0  2  0  0  0  0  0  0
  195.5760  174.6140  144.0170 C   0  0  0  0  0  2  0  0  0  0  0  0
  195.1850  173.1700  143.7400 C   0  0  0  0  0  2  0  0  0  0  0  0
  193.7890  173.0820  143.1250 C   0  0  2  0  0  3  0  0  0  0  0  0
  193.1380  171.7360  143.5020 C   0  0  1  0  0  3  0  0  0  0  0  0
  191.8190  171.8420  144.1230 N   0  0  1  0  0  0  0  0  0  0  0  0
  192.9440  170.7730  142.3090 C   0  0  2  0  0  3  0  0  0  0  0  0
  191.3640  173.0850  144.7130 C   0  0  0  0  0  2  0  0  0  0  0  0
  190.9410  171.7280  143.0010 C   0  0  1  0  0  3  0  0  0  0  0  0
  191.4260  170.5550  142.2040 C   0  0  1  0  0  3  0  0  0  0  0  0
  193.5690  169.5560  142.5810 O   0  0  0  0  0  1  0  0  0  0  0  0
  189.8280  173.0300  144.5600 C   0  0  0  0  0  2  0  0  0  0  0  0
  189.5550  171.9180  143.5370 C   0  0  0  0  0  2  0  0  0  0  0  0
  191.0200  168.3880  140.3990 O   0  0  0  0  0  0  0  0  0  0  0  0
  191.0020  170.6930  140.8210 N   0  0  0  0  0  2  0  0  0  0  0  0
  190.7570  169.5500  139.9900 C   0  0  0  0  0  0  0  0  0  0  0  0
  189.7590  169.8790  137.5680 C   0  0  0  0  0  3  0  0  0  0  0  0
  190.2150  169.7310  138.6700 C   0  0  0  0  0  0  0  0  0  0  0  0
  193.8470  173.3120  141.6160 C   0  0  0  0  0  2  0  0  0  0  0  0
  193.0040  174.5120  141.2300 C   0  0  0  0  0  1  0  0  0  0  0  0
  190.2120  176.3730  142.8000 C   0  0  0  0  0  2  0  0  0  0  0  0
  189.1980  177.2850  142.2920 N   0  0  0  0  0  2  0  0  0  0  0  0
  188.1290  176.5300  141.6370 C   0  0  1  0  0  3  0  0  0  0  0  0
  188.4610  175.0400  141.5780 C   0  0  0  0  0  2  0  0  0  0  0  0
  187.4120  174.2980  142.1250 O   0  0  0  0  0  1  0  0  0  0  0  0
  186.9030  176.7480  142.2790 O   0  0  0  0  0  0  0  0  0  0  0  0
  186.3250  177.8260  141.6040 C   0  0  0  0  0  2  0  0  0  0  0  0
  186.3120  178.9930  142.4720 N   0  0  0  0  0  2  0  0  0  0  0  0
  185.1600  178.8690  143.3450 C   0  0  0  0  0  2  0  0  0  0  0  0
  185.5370  179.2160  144.7750 C   0  0  0  0  0  2  0  0  0  0  0  0
  186.6220  178.4380  145.1810 O   0  0  0  0  0  0  0  0  0  0  0  0
  186.5710  178.7580  147.9360 O   0  0  0  0  0  1  0  0  0  0  0  0
  186.8440  176.3980  146.8220 O   0  0  0  0  0  1  0  0  0  0  0  0
  184.4790  177.5050  146.6410 O   0  0  0  0  0  0  0  0  0  0  0  0
  186.1590  177.7380  146.6490 P   0  0  0  0  0  0  0  0  0  0  0  0
  1  8  1  0  0  0  0
  2  6  1  0  0  0  0
  3  1  2  0  0  0  0
  5  7  1  0  0  0  0
  5  2  2  0  0  0  0
  6  8  1  0  0  0  0
  7  3  1  0  0  0  0
  8  4  1  1  0  0  0
  9 10  1  0  0  0  0
  9  3  1  0  0  0  0
 11 10  1  0  0  0  0
 12 11  1  0  0  0  0
 13 28  1  6  0  0  0
 13 12  1  0  0  0  0
 14 13  1  6  0  0  0
 14 15  1  0  0  0  0
 15 17  1  6  0  0  0
 16 20  1  1  0  0  0
 16 14  1  0  0  0  0
 18 22  1  1  0  0  0
 18 15  1  0  0  0  0
 19 24  1  6  0  0  0
 19 16  1  0  0  0  0
 19 18  1  0  0  0  0
 21 17  1  0  0  0  0
 22 21  1  0  0  0  0
 25 23  2  0  0  0  0
 25 24  1  0  0  0  0
 26 27  3  0  0  0  0
 27 25  1  0  0  0  0
 29 28  1  0  0  0  0
 30  5  1  0  0  0  0
 31 30  1  0  0  0  0
 32 33  1  1  0  0  0
 32 35  1  0  0  0  0
 32 31  1  0  0  0  0
 33 34  1  0  0  0  0
 36 35  1  0  0  0  0
 36 37  1  0  0  0  0
 37 38  1  0  0  0  0
 38 39  1  0  0  0  0
 39 40  1  0  0  0  0
 40 44  1  0  0  0  0
 43 44  2  0  0  0  0
 44 42  1  0  0  0  0
 44 41  1  0  0  0  0
M  END
>  <MODEL>
1

>  <REMARK>
 VINA RESULT:      -5.5      0.000      0.000
  Name = 
  20 active torsions:
  status: ('A' for Active; 'I' for Inactive)
    1  A    between atoms: C_1  and  C_20
    2  A    between atoms: C_1  and  N_21
    3  A    between atoms: C_3  and  O_19
    4  A    between atoms: C_3  and  C_40
    5  A    between atoms: N_4  and  O_5
    6  A    between atoms: N_4  and  C_13
    7  A    between atoms: O_5  and  C_11
    8  A    between atoms: O_7  and  C_26
    9  A    between atoms: O_7  and  C_31
   10  A    between atoms: C_9  and  C_33
   11  A    between atoms: C_13  and  C_38
   12  A    between atoms: C_14  and  C_33
   13  A    between atoms: O_19  and  P_37
   14  A    between atoms: N_21  and  C_31
   15  A    between atoms: C_22  and  C_31
   16  A    between atoms: N_25  and  C_26
   17  A    between atoms: N_25  and  C_40
   18  A    between atoms: C_27  and  N_30
   19  A    between atoms: C_32  and  C_34
   20  A    between atoms: C_33  and  C_38
                            x       y       z     vdW  Elec       q    Type
                         _______ _______ _______ _____ _____    ______ ____

>  <TORSDO>
F 20

$$$$
=
 OpenBabel11062422423D

 44 46  0  0  1  0  0  0  0  0999 V2000
  185.6710  176.9290  146.0200 C   0  0  0  0  0  3  0  0  0  0  0  0
  185.3140  179.0720  143.9600 N   0  0  0  0  0  0  0  0  0  0  0  0
  186.9170  177.0410  145.5210 C   0  0  0  0  0  0  0  0  0  0  0  0
  184.2930  178.3650  147.4060 N   0  0  0  0  0  1  0  0  0  0  0  0
  186.5160  178.6570  143.7280 C   0  0  0  0  0  0  0  0  0  0  0  0
  184.8260  179.1390  145.2510 O   0  0  0  0  0  0  0  0  0  0  0  0
  187.4060  178.2940  144.8670 C   0  0  0  0  0  2  0  0  0  0  0  0
  184.5760  177.9710  146.0350 C   0  0  1  0  0  3  0  0  0  0  0  0
  187.8030  175.9610  145.5910 O   0  0  0  0  0  0  0  0  0  0  0  0
  188.4110  175.6040  146.7800 N   0  0  0  0  0  2  0  0  0  0  0  0
  189.8030  175.3260  146.4780 C   0  0  0  0  0  2  0  0  0  0  0  0
  189.9060  174.2490  145.4090 C   0  0  0  0  0  2  0  0  0  0  0  0
  191.3170  174.1810  144.8250 C   0  0  2  0  0  3  0  0  0  0  0  0
  191.8450  175.6070  144.5720 C   0  0  1  0  0  3  0  0  0  0  0  0
  193.1660  175.8830  145.1330 N   0  0  1  0  0  0  0  0  0  0  0  0
  191.9560  175.9830  143.0770 C   0  0  2  0  0  3  0  0  0  0  0  0
  193.7280  175.0510  146.1780 C   0  0  0  0  0  2  0  0  0  0  0  0
  194.0340  175.5790  144.0380 C   0  0  1  0  0  3  0  0  0  0  0  0
  193.4500  176.2580  142.8370 C   0  0  1  0  0  3  0  0  0  0  0  0
  191.2260  177.1460  142.8300 O   0  0  0  0  0  1  0  0  0  0  0  0
  195.2530  175.1590  145.9620 C   0  0  0  0  0  2  0  0  0  0  0  0
  195.4300  175.7480  144.5550 C   0  0  0  0  0  2  0  0  0  0  0  0
  195.6740  177.0450  141.2390 O   0  0  0  0  0  0  0  0  0  0  0  0
  193.8880  175.5790  141.6290 N   0  0  0  0  0  2  0  0  0  0  0  0
  195.0560  175.9960  140.9100 C   0  0  0  0  0  0  0  0  0  0  0  0
  195.9150  174.5630  138.8660 C   0  0  0  0  0  3  0  0  0  0  0  0
  195.5250  175.2170  139.7960 C   0  0  0  0  0  0  0  0  0  0  0  0
  191.3410  173.3080  143.5720 C   0  0  0  0  0  2  0  0  0  0  0  0
  191.9550  171.9560  143.8810 C   0  0  0  0  0  1  0  0  0  0  0  0
  187.0290  178.5930  142.3320 C   0  0  0  0  0  2  0  0  0  0  0  0
  187.7590  177.3510  142.1290 N   0  0  0  0  0  2  0  0  0  0  0  0
  187.0580  176.5120  141.1550 C   0  0  1  0  0  3  0  0  0  0  0  0
  186.2500  177.3610  140.1760 C   0  0  0  0  0  2  0  0  0  0  0  0
  186.6090  177.0430  138.8630 O   0  0  0  0  0  1  0  0  0  0  0  0
  187.9590  175.6810  140.4770 O   0  0  0  0  0  0  0  0  0  0  0  0
  188.6210  174.9670  141.4790 C   0  0  0  0  0  2  0  0  0  0  0  0
  187.8200  173.8160  141.8670 N   0  0  0  0  0  2  0  0  0  0  0  0
  188.5360  172.6290  141.4400 C   0  0  0  0  0  2  0  0  0  0  0  0
  188.7240  172.6350  139.9320 C   0  0  0  0  0  2  0  0  0  0  0  0
  189.7390  171.7470  139.5770 O   0  0  0  0  0  0  0  0  0  0  0  0
  191.7330  173.6660  139.7710 O   0  0  0  0  0  1  0  0  0  0  0  0
  190.1620  173.5100  137.6750 O   0  0  0  0  0  0  0  0  0  0  0  0
  191.9490  171.6140  137.9350 O   0  0  0  0  0  1  0  0  0  0  0  0
  190.8680  172.6640  138.7140 P   0  0  0  0  0  0  0  0  0  0  0  0
  1  8  1  0  0  0  0
  2  6  1  0  0  0  0
  3  9  1  0  0  0  0
  3  1  2  0  0  0  0
  5  2  2  0  0  0  0
  5  7  1  0  0  0  0
  6  8  1  0  0  0  0
  7  3  1  0  0  0  0
  8  4  1  1  0  0  0
  9 10  1  0  0  0  0
 11 10  1  0  0  0  0
 12 11  1  0  0  0  0
 13 28  1  6  0  0  0
 13 12  1  0  0  0  0
 14 13  1  6  0  0  0
 14 15  1  0  0  0  0
 15 17  1  1  0  0  0
 16 20  1  1  0  0  0
 16 14  1  0  0  0  0
 18 22  1  1  0  0  0
 18 15  1  0  0  0  0
 19 24  1  6  0  0  0
 19 16  1  0  0  0  0
 19 18  1  0  0  0  0
 21 17  1  0  0  0  0
 22 21  1  0  0  0  0
 25 23  2  0  0  0  0
 25 24  1  0  0  0  0
 26 27  3  0  0  0  0
 27 25  1  0  0  0  0
 28 29  1  0  0  0  0
 30  5  1  0  0  0  0
 31 30  1  0  0  0  0
 32 33  1  6  0  0  0
 32 31  1  0  0  0  0
 34 33  1  0  0  0  0
 35 32  1  0  0  0  0
 35 36  1  0  0  0  0
 36 37  1  0  0  0  0
 38 37  1  0  0  0  0
 39 38  1  0  0  0  0
 40 39  1  0  0  0  0
 42 44  2  0  0  0  0
 43 44  1  0  0  0  0
 44 40  1  0  0  0  0
 44 41  1  0  0  0  0
M  END
>  <MODEL>
2

>  <REMARK>
 VINA RESULT:      -5.5      3.092      6.563
  Name = 
  20 active torsions:
  status: ('A' for Active; 'I' for Inactive)
    1  A    between atoms: C_1  and  C_20
    2  A    between atoms: C_1  and  N_21
    3  A    between atoms: C_3  and  O_19
    4  A    between atoms: C_3  and  C_40
    5  A    between atoms: N_4  and  O_5
    6  A    between atoms: N_4  and  C_13
    7  A    between atoms: O_5  and  C_11
    8  A    between atoms: O_7  and  C_26
    9  A    between atoms: O_7  and  C_31
   10  A    between atoms: C_9  and  C_33
   11  A    between atoms: C_13  and  C_38
   12  A    between atoms: C_14  and  C_33
   13  A    between atoms: O_19  and  P_37
   14  A    between atoms: N_21  and  C_31
   15  A    between atoms: C_22  and  C_31
   16  A    between atoms: N_25  and  C_26
   17  A    between atoms: N_25  and  C_40
   18  A    between atoms: C_27  and  N_30
   19  A    between atoms: C_32  and  C_34
   20  A    between atoms: C_33  and  C_38
                            x       y       z     vdW  Elec       q    Type
                         _______ _______ _______ _____ _____    ______ ____

>  <TORSDO>
F 20

$$$$
=
 OpenBabel11062422423D

 44 46  0  0  1  0  0  0  0  0999 V2000
  185.1650  178.0480  140.5970 C   0  0  0  0  0  3  0  0  0  0  0  0
  183.9450  178.6680  143.2600 N   0  0  0  0  0  0  0  0  0  0  0  0
  186.0400  177.4690  141.4410 C   0  0  0  0  0  0  0  0  0  0  0  0
  182.8870  177.5330  139.9430 N   0  0  0  0  0  1  0  0  0  0  0  0
  185.0940  178.1720  143.5860 C   0  0  0  0  0  0  0  0  0  0  0  0
  183.2450  178.1770  142.1750 O   0  0  0  0  0  0  0  0  0  0  0  0
  185.6500  177.0240  142.8140 C   0  0  0  0  0  2  0  0  0  0  0  0
  183.7020  178.3460  140.8310 C   0  0  1  0  0  3  0  0  0  0  0  0
  187.3700  177.2760  141.0530 O   0  0  0  0  0  0  0  0  0  0  0  0
  188.2100  176.4320  141.7540 N   0  0  0  0  0  2  0  0  0  0  0  0
  188.2430  175.1710  141.0360 C   0  0  0  0  0  2  0  0  0  0  0  0
  188.4650  174.0200  142.0040 C   0  0  0  0  0  2  0  0  0  0  0  0
  189.8360  173.3770  141.7960 C   0  0  2  0  0  3  0  0  0  0  0  0
  190.8810  174.0800  142.6860 C   0  0  1  0  0  3  0  0  0  0  0  0
  191.7260  173.1820  143.4700 N   0  0  1  0  0  0  0  0  0  0  0  0
  191.8660  174.9830  141.9090 C   0  0  2  0  0  3  0  0  0  0  0  0
  191.3380  171.8070  143.7150 C   0  0  0  0  0  2  0  0  0  0  0  0
  192.8600  173.0040  142.6170 C   0  0  1  0  0  3  0  0  0  0  0  0
  193.2560  174.3720  142.1530 C   0  0  1  0  0  3  0  0  0  0  0  0
  191.8300  176.2760  142.4300 O   0  0  0  0  0  1  0  0  0  0  0  0
  192.6820  171.0620  143.8670 C   0  0  0  0  0  2  0  0  0  0  0  0
  193.7480  172.0150  143.3090 C   0  0  0  0  0  2  0  0  0  0  0  0
  194.9540  176.3970  141.0860 O   0  0  0  0  0  0  0  0  0  0  0  0
  193.9790  174.2740  140.8970 N   0  0  0  0  0  2  0  0  0  0  0  0
  194.8670  175.3100  140.4540 C   0  0  0  0  0  0  0  0  0  0  0  0
  196.3240  174.9440  138.2830 C   0  0  0  0  0  3  0  0  0  0  0  0
  195.6600  175.1120  139.2710 C   0  0  0  0  0  0  0  0  0  0  0  0
  190.2150  173.3820  140.3170 C   0  0  0  0  0  2  0  0  0  0  0  0
  190.3700  171.9630  139.8050 C   0  0  0  0  0  1  0  0  0  0  0  0
  185.8350  178.7090  144.7600 C   0  0  0  0  0  2  0  0  0  0  0  0
  187.0980  178.0030  144.9130 N   0  0  0  0  0  2  0  0  0  0  0  0
  187.1710  177.3900  146.2410 C   0  0  1  0  0  3  0  0  0  0  0  0
  185.7820  177.2470  146.8600 C   0  0  0  0  0  2  0  0  0  0  0  0
  185.7430  177.9000  148.0950 O   0  0  0  0  0  1  0  0  0  0  0  0
  187.8260  176.1520  146.1800 O   0  0  0  0  0  0  0  0  0  0  0  0
  188.9680  176.3060  146.9710 C   0  0  0  0  0  2  0  0  0  0  0  0
  189.5010  174.9960  147.3140 N   0  0  0  0  0  2  0  0  0  0  0  0
  190.6240  174.7430  146.4310 C   0  0  0  0  0  2  0  0  0  0  0  0
  191.7170  175.7750  146.6520 C   0  0  0  0  0  2  0  0  0  0  0  0
  192.2600  176.1600  145.4260 O   0  0  0  0  0  0  0  0  0  0  0  0
  194.3490  177.1690  146.9490 O   0  0  0  0  0  1  0  0  0  0  0  0
  194.6260  176.6490  144.3910 O   0  0  0  0  0  0  0  0  0  0  0  0
  194.4490  174.5820  145.9880 O   0  0  0  0  0  1  0  0  0  0  0  0
  193.9370  176.1630  145.6500 P   0  0  0  0  0  0  0  0  0  0  0  0
  1  8  1  0  0  0  0
  1  3  2  0  0  0  0
  2  5  2  0  0  0  0
  3  7  1  0  0  0  0
  5 30  1  0  0  0  0
  6  2  1  0  0  0  0
  7  5  1  0  0  0  0
  8  4  1  6  0  0  0
  8  6  1  0  0  0  0
  9  3  1  0  0  0  0
  9 10  1  0  0  0  0
 11 10  1  0  0  0  0
 11 12  1  0  0  0  0
 13 28  1  6  0  0  0
 13 12  1  0  0  0  0
 14 13  1  6  0  0  0
 14 15  1  0  0  0  0
 15 17  1  6  0  0  0
 16 19  1  0  0  0  0
 16 20  1  1  0  0  0
 16 14  1  0  0  0  0
 17 21  1  0  0  0  0
 18 22  1  1  0  0  0
 18 15  1  0  0  0  0
 19 24  1  6  0  0  0
 19 18  1  0  0  0  0
 22 21  1  0  0  0  0
 25 24  1  0  0  0  0
 25 23  2  0  0  0  0
 26 27  3  0  0  0  0
 27 25  1  0  0  0  0
 29 28  1  0  0  0  0
 30 31  1  0  0  0  0
 31 32  1  0  0  0  0
 32 33  1  6  0  0  0
 33 34  1  0  0  0  0
 35 32  1  0  0  0  0
 35 36  1  0  0  0  0
 36 37  1  0  0  0  0
 38 39  1  0  0  0  0
 38 37  1  0  0  0  0
 40 44  1  0  0  0  0
 40 39  1  0  0  0  0
 42 44  2  0  0  0  0
 44 43  1  0  0  0  0
 44 41  1  0  0  0  0
M  END
>  <MODEL>
3

>  <REMARK>
 VINA RESULT:      -5.5      2.803      6.713
  Name = 
  20 active torsions:
  status: ('A' for Active; 'I' for Inactive)
    1  A    between atoms: C_1  and  C_20
    2  A    between atoms: C_1  and  N_21
    3  A    between atoms: C_3  and  O_19
    4  A    between atoms: C_3  and  C_40
    5  A    between atoms: N_4  and  O_5
    6  A    between atoms: N_4  and  C_13
    7  A    between atoms: O_5  and  C_11
    8  A    between atoms: O_7  and  C_26
    9  A    between atoms: O_7  and  C_31
   10  A    between atoms: C_9  and  C_33
   11  A    between atoms: C_13  and  C_38
   12  A    between atoms: C_14  and  C_33
   13  A    between atoms: O_19  and  P_37
   14  A    between atoms: N_21  and  C_31
   15  A    between atoms: C_22  and  C_31
   16  A    between atoms: N_25  and  C_26
   17  A    between atoms: N_25  and  C_40
   18  A    between atoms: C_27  and  N_30
   19  A    between atoms: C_32  and  C_34
   20  A    between atoms: C_33  and  C_38
                            x       y       z     vdW  Elec       q    Type
                         _______ _______ _______ _____ _____    ______ ____

>  <TORSDO>
F 20

$$$$
=
 OpenBabel11062422423D

 44 46  0  0  1  0  0  0  0  0999 V2000
  187.4590  177.6370  146.6690 C   0  0  0  0  0  3  0  0  0  0  0  0
  184.6760  178.2960  145.7850 N   0  0  0  0  0  0  0  0  0  0  0  0
  187.6200  177.7830  145.3400 C   0  0  0  0  0  0  0  0  0  0  0  0
  186.9960  179.1890  148.4740 N   0  0  0  0  0  1  0  0  0  0  0  0
  185.2930  178.1280  144.6620 C   0  0  0  0  0  0  0  0  0  0  0  0
  185.3120  178.8800  146.8630 O   0  0  0  0  0  0  0  0  0  0  0  0
  186.6940  178.6140  144.5100 C   0  0  0  0  0  2  0  0  0  0  0  0
  186.3910  178.2430  147.5500 C   0  0  1  0  0  3  0  0  0  0  0  0
  188.6730  177.1370  144.6830 O   0  0  0  0  0  0  0  0  0  0  0  0
  189.7070  177.8490  144.1070 N   0  0  0  0  0  2  0  0  0  0  0  0
  190.8250  176.9350  143.9650 C   0  0  0  0  0  2  0  0  0  0  0  0
  190.8910  175.9940  145.1580 C   0  0  0  0  0  2  0  0  0  0  0  0
  192.2980  175.4260  145.3400 C   0  0  2  0  0  3  0  0  0  0  0  0
  192.6260  174.4660  144.1780 C   0  0  1  0  0  3  0  0  0  0  0  0
  193.8570  174.7740  143.4530 N   0  0  1  0  0  0  0  0  0  0  0  0
  192.7690  172.9870  144.6040 C   0  0  2  0  0  3  0  0  0  0  0  0
  194.4720  176.0830  143.5380 C   0  0  0  0  0  2  0  0  0  0  0  0
  194.8230  173.9680  144.1330 C   0  0  1  0  0  3  0  0  0  0  0  0
  194.2180  172.6030  144.2610 C   0  0  1  0  0  3  0  0  0  0  0  0
  191.8920  172.1970  143.8600 O   0  0  0  0  0  1  0  0  0  0  0  0
  195.9750  175.8050  143.3180 C   0  0  0  0  0  2  0  0  0  0  0  0
  196.1460  174.2910  143.5080 C   0  0  0  0  0  2  0  0  0  0  0  0
  194.7090  169.7980  144.3560 O   0  0  0  0  0  0  0  0  0  0  0  0
  194.8210  171.9020  145.3810 N   0  0  0  0  0  2  0  0  0  0  0  0
  195.0950  170.4960  145.3320 C   0  0  0  0  0  0  0  0  0  0  0  0
  196.4040  169.3450  147.3160 C   0  0  0  0  0  3  0  0  0  0  0  0
  195.8100  169.8700  146.4120 C   0  0  0  0  0  0  0  0  0  0  0  0
  192.4440  174.7710  146.7110 C   0  0  0  0  0  2  0  0  0  0  0  0
  191.4750  175.3900  147.7000 C   0  0  0  0  0  1  0  0  0  0  0  0
  184.5930  177.5000  143.5090 C   0  0  0  0  0  2  0  0  0  0  0  0
  184.0890  178.5310  142.6140 N   0  0  0  0  0  2  0  0  0  0  0  0
  183.6500  177.9290  141.3540 C   0  0  1  0  0  3  0  0  0  0  0  0
  182.1490  178.1210  141.1440 C   0  0  0  0  0  2  0  0  0  0  0  0
  181.6240  178.9150  142.1670 O   0  0  0  0  0  1  0  0  0  0  0  0
  184.3800  178.4470  140.2760 O   0  0  0  0  0  0  0  0  0  0  0  0
  185.7000  178.5150  140.7290 C   0  0  0  0  0  2  0  0  0  0  0  0
  186.4490  177.3770  140.2160 N   0  0  0  0  0  2  0  0  0  0  0  0
  187.5920  177.1860  141.0900 C   0  0  0  0  0  2  0  0  0  0  0  0
  187.6480  175.7500  141.5830 C   0  0  0  0  0  2  0  0  0  0  0  0
  188.2560  174.9420  140.6210 O   0  0  0  0  0  0  0  0  0  0  0  0
  190.9030  174.4660  141.3000 O   0  0  0  0  0  1  0  0  0  0  0  0
  189.1890  172.5080  140.9570 O   0  0  0  0  0  0  0  0  0  0  0  0
  188.8860  173.9570  143.1170 O   0  0  0  0  0  1  0  0  0  0  0  0
  189.3070  173.9280  141.4740 P   0  0  0  0  0  0  0  0  0  0  0  0
  1  8  1  0  0  0  0
  2  6  1  0  0  0  0
  3  1  2  0  0  0  0
  5  2  2  0  0  0  0
  6  8  1  0  0  0  0
  7  5  1  0  0  0  0
  7  3  1  0  0  0  0
  8  4  1  1  0  0  0
  9  3  1  0  0  0  0
 10  9  1  0  0  0  0
 11 10  1  0  0  0  0
 11 12  1  0  0  0  0
 13 12  1  6  0  0  0
 13 28  1  0  0  0  0
 14 16  1  0  0  0  0
 14 13  1  1  0  0  0
 15 17  1  1  0  0  0
 15 18  1  0  0  0  0
 15 14  1  0  0  0  0
 16 20  1  6  0  0  0
 18 22  1  6  0  0  0
 18 19  1  0  0  0  0
 19 16  1  0  0  0  0
 19 24  1  1  0  0  0
 21 22  1  0  0  0  0
 21 17  1  0  0  0  0
 23 25  2  0  0  0  0
 25 24  1  0  0  0  0
 25 27  1  0  0  0  0
 27 26  3  0  0  0  0
 28 29  1  0  0  0  0
 30  5  1  0  0  0  0
 31 30  1  0  0  0  0
 32 33  1  6  0  0  0
 32 31  1  0  0  0  0
 33 34  1  0  0  0  0
 35 36  1  0  0  0  0
 35 32  1  0  0  0  0
 37 36  1  0  0  0  0
 37 38  1  0  0  0  0
 38 39  1  0  0  0  0
 40 44  1  0  0  0  0
 40 39  1  0  0  0  0
 41 44  1  0  0  0  0
 42 44  2  0  0  0  0
 44 43  1  0  0  0  0
M  END
>  <MODEL>
4

>  <REMARK>
 VINA RESULT:      -5.5      3.186      5.827
  Name = 
  20 active torsions:
  status: ('A' for Active; 'I' for Inactive)
    1  A    between atoms: C_1  and  C_20
    2  A    between atoms: C_1  and  N_21
    3  A    between atoms: C_3  and  O_19
    4  A    between atoms: C_3  and  C_40
    5  A    between atoms: N_4  and  O_5
    6  A    between atoms: N_4  and  C_13
    7  A    between atoms: O_5  and  C_11
    8  A    between atoms: O_7  and  C_26
    9  A    between atoms: O_7  and  C_31
   10  A    between atoms: C_9  and  C_33
   11  A    between atoms: C_13  and  C_38
   12  A    between atoms: C_14  and  C_33
   13  A    between atoms: O_19  and  P_37
   14  A    between atoms: N_21  and  C_31
   15  A    between atoms: C_22  and  C_31
   16  A    between atoms: N_25  and  C_26
   17  A    between atoms: N_25  and  C_40
   18  A    between atoms: C_27  and  N_30
   19  A    between atoms: C_32  and  C_34
   20  A    between atoms: C_33  and  C_38
                            x       y       z     vdW  Elec       q    Type
                         _______ _______ _______ _____ _____    ______ ____

>  <TORSDO>
F 20

$$$$
=
 OpenBabel11062422423D

 44 46  0  0  1  0  0  0  0  0999 V2000
  187.0460  177.5080  146.4380 C   0  0  0  0  0  3  0  0  0  0  0  0
  184.3880  178.7390  145.8200 N   0  0  0  0  0  0  0  0  0  0  0  0
  187.1800  177.8110  145.1330 C   0  0  0  0  0  0  0  0  0  0  0  0
  186.9260  178.8460  148.4580 N   0  0  0  0  0  1  0  0  0  0  0  0
  184.9250  178.6300  144.6490 C   0  0  0  0  0  0  0  0  0  0  0  0
  185.1560  179.0520  146.9250 O   0  0  0  0  0  0  0  0  0  0  0  0
  186.3830  178.8930  144.4780 C   0  0  0  0  0  2  0  0  0  0  0  0
  186.1330  178.1530  147.4550 C   0  0  1  0  0  3  0  0  0  0  0  0
  188.0800  177.0980  144.3350 O   0  0  0  0  0  0  0  0  0  0  0  0
  189.2610  177.6650  143.8970 N   0  0  0  0  0  2  0  0  0  0  0  0
  190.1320  176.5770  143.4930 C   0  0  0  0  0  2  0  0  0  0  0  0
  189.7970  175.3160  144.2750 C   0  0  0  0  0  2  0  0  0  0  0  0
  191.0380  174.4500  144.4900 C   0  0  2  0  0  3  0  0  0  0  0  0
  192.2590  175.1170  143.8240 C   0  0  1  0  0  3  0  0  0  0  0  0
  193.0890  175.9180  144.7220 N   0  0  1  0  0  0  0  0  0  0  0  0
  193.2350  174.1220  143.1560 C   0  0  2  0  0  3  0  0  0  0  0  0
  192.5820  176.3870  145.9960 C   0  0  0  0  0  2  0  0  0  0  0  0
  194.0790  174.9780  145.1450 C   0  0  1  0  0  3  0  0  0  0  0  0
  194.5670  174.2930  143.9050 C   0  0  1  0  0  3  0  0  0  0  0  0
  193.4100  174.4650  141.8150 O   0  0  0  0  0  1  0  0  0  0  0  0
  193.8410  176.4900  146.8840 C   0  0  0  0  0  2  0  0  0  0  0  0
  194.9300  175.6950  146.1490 C   0  0  0  0  0  2  0  0  0  0  0  0
  197.3320  173.7350  144.3050 O   0  0  0  0  0  0  0  0  0  0  0  0
  195.1110  172.9900  144.2450 N   0  0  0  0  0  2  0  0  0  0  0  0
  196.5100  172.7980  144.4940 C   0  0  0  0  0  0  0  0  0  0  0  0
  197.3830  170.4560  145.3440 C   0  0  0  0  0  3  0  0  0  0  0  0
  196.9850  171.5210  144.9550 C   0  0  0  0  0  0  0  0  0  0  0  0
  190.7960  173.0260  143.9950 C   0  0  0  0  0  2  0  0  0  0  0  0
  189.8100  172.3120  144.8990 C   0  0  0  0  0  1  0  0  0  0  0  0
  184.0850  178.2960  143.4670 C   0  0  0  0  0  2  0  0  0  0  0  0
  184.7030  178.8150  142.2570 N   0  0  0  0  0  2  0  0  0  0  0  0
  184.3950  177.9430  141.1230 C   0  0  1  0  0  3  0  0  0  0  0  0
  183.0340  178.2840  140.5180 C   0  0  0  0  0  2  0  0  0  0  0  0
  182.6170  177.2520  139.6730 O   0  0  0  0  0  1  0  0  0  0  0  0
  185.4070  178.0080  140.1560 O   0  0  0  0  0  0  0  0  0  0  0  0
  186.5590  177.5560  140.8040 C   0  0  0  0  0  2  0  0  0  0  0  0
  187.0950  176.4030  140.0950 N   0  0  0  0  0  2  0  0  0  0  0  0
  188.0000  175.7230  141.0020 C   0  0  0  0  0  2  0  0  0  0  0  0
  188.3460  174.3420  140.4710 C   0  0  0  0  0  2  0  0  0  0  0  0
  189.6880  174.0580  140.7290 O   0  0  0  0  0  0  0  0  0  0  0  0
  189.2440  171.6720  139.3830 O   0  0  0  0  0  1  0  0  0  0  0  0
  191.6510  172.6850  139.6490 O   0  0  0  0  0  1  0  0  0  0  0  0
  190.0420  173.9250  137.9990 O   0  0  0  0  0  0  0  0  0  0  0  0
  190.1990  173.0700  139.4550 P   0  0  0  0  0  0  0  0  0  0  0  0
  1  8  1  0  0  0  0
  2  6  1  0  0  0  0
  3  1  2  0  0  0  0
  5  2  2  0  0  0  0
  6  8  1  0  0  0  0
  7  5  1  0  0  0  0
  7  3  1  0  0  0  0
  8  4  1  1  0  0  0
  9  3  1  0  0  0  0
 10  9  1  0  0  0  0
 11 10  1  0  0  0  0
 11 12  1  0  0  0  0
 12 13  1  0  0  0  0
 13 28  1  6  0  0  0
 14 13  1  1  0  0  0
 14 15  1  0  0  0  0
 15 18  1  0  0  0  0
 15 17  1  1  0  0  0
 16 20  1  6  0  0  0
 16 14  1  0  0  0  0
 16 19  1  0  0  0  0
 17 21  1  0  0  0  0
 18 22  1  6  0  0  0
 19 24  1  1  0  0  0
 19 18  1  0  0  0  0
 22 21  1  0  0  0  0
 23 25  2  0  0  0  0
 24 25  1  0  0  0  0
 25 27  1  0  0  0  0
 27 26  3  0  0  0  0
 28 29  1  0  0  0  0
 30  5  1  0  0  0  0
 31 30  1  0  0  0  0
 32 33  1  6  0  0  0
 32 31  1  0  0  0  0
 34 33  1  0  0  0  0
 35 36  1  0  0  0  0
 35 32  1  0  0  0  0
 37 36  1  0  0  0  0
 37 38  1  0  0  0  0
 39 40  1  0  0  0  0
 39 38  1  0  0  0  0
 41 44  1  0  0  0  0
 43 44  2  0  0  0  0
 44 42  1  0  0  0  0
 44 40  1  0  0  0  0
M  END
>  <MODEL>
5

>  <REMARK>
 VINA RESULT:      -5.3      3.018      6.369
  Name = 
  20 active torsions:
  status: ('A' for Active; 'I' for Inactive)
    1  A    between atoms: C_1  and  C_20
    2  A    between atoms: C_1  and  N_21
    3  A    between atoms: C_3  and  O_19
    4  A    between atoms: C_3  and  C_40
    5  A    between atoms: N_4  and  O_5
    6  A    between atoms: N_4  and  C_13
    7  A    between atoms: O_5  and  C_11
    8  A    between atoms: O_7  and  C_26
    9  A    between atoms: O_7  and  C_31
   10  A    between atoms: C_9  and  C_33
   11  A    between atoms: C_13  and  C_38
   12  A    between atoms: C_14  and  C_33
   13  A    between atoms: O_19  and  P_37
   14  A    between atoms: N_21  and  C_31
   15  A    between atoms: C_22  and  C_31
   16  A    between atoms: N_25  and  C_26
   17  A    between atoms: N_25  and  C_40
   18  A    between atoms: C_27  and  N_30
   19  A    between atoms: C_32  and  C_34
   20  A    between atoms: C_33  and  C_38
                            x       y       z     vdW  Elec       q    Type
                         _______ _______ _______ _____ _____    ______ ____

>  <TORSDO>
F 20

$$$$
=
 OpenBabel11062422423D

 44 46  0  0  1  0  0  0  0  0999 V2000
  185.9840  176.7850  146.2980 C   0  0  0  0  0  3  0  0  0  0  0  0
  185.5160  177.1530  143.3640 N   0  0  0  0  0  0  0  0  0  0  0  0
  187.2150  176.5750  145.7950 C   0  0  0  0  0  0  0  0  0  0  0  0
  184.5890  178.7570  146.5230 N   0  0  0  0  0  1  0  0  0  0  0  0
  186.7260  176.6990  143.4000 C   0  0  0  0  0  0  0  0  0  0  0  0
  185.0520  178.0100  144.3430 O   0  0  0  0  0  0  0  0  0  0  0  0
  187.6500  177.1440  144.4820 C   0  0  0  0  0  2  0  0  0  0  0  0
  184.8570  177.5910  145.6950 C   0  0  1  0  0  3  0  0  0  0  0  0
  188.1370  175.7900  146.4960 O   0  0  0  0  0  0  0  0  0  0  0  0
  189.3000  175.3400  145.9010 N   0  0  0  0  0  2  0  0  0  0  0  0
  190.4060  175.8440  146.6950 C   0  0  0  0  0  2  0  0  0  0  0  0
  191.2660  176.7830  145.8620 C   0  0  0  0  0  2  0  0  0  0  0  0
  191.8400  176.0700  144.6380 C   0  0  2  0  0  3  0  0  0  0  0  0
  193.2800  175.6040  144.9350 C   0  0  1  0  0  3  0  0  0  0  0  0
  193.4820  174.1570  144.8820 N   0  0  1  0  0  0  0  0  0  0  0  0
  194.3430  176.1940  143.9810 C   0  0  2  0  0  3  0  0  0  0  0  0
  192.3650  173.2380  144.9690 C   0  0  0  0  0  2  0  0  0  0  0  0
  193.9040  173.9560  143.5310 C   0  0  1  0  0  3  0  0  0  0  0  0
  194.9610  174.9830  143.2630 C   0  0  1  0  0  3  0  0  0  0  0  0
  195.3290  176.8460  144.7210 O   0  0  0  0  0  1  0  0  0  0  0  0
  192.8350  172.0030  144.1710 C   0  0  0  0  0  2  0  0  0  0  0  0
  194.0500  172.4740  143.3590 C   0  0  0  0  0  2  0  0  0  0  0  0
  197.0570  174.0830  141.5540 O   0  0  0  0  0  0  0  0  0  0  0  0
  195.0400  175.2430  141.8360 N   0  0  0  0  0  2  0  0  0  0  0  0
  196.0940  174.7040  141.0270 C   0  0  0  0  0  0  0  0  0  0  0  0
  196.0320  175.0300  138.4080 C   0  0  0  0  0  3  0  0  0  0  0  0
  196.0610  174.8790  139.6000 C   0  0  0  0  0  0  0  0  0  0  0  0
  191.7470  176.9600  143.4010 C   0  0  0  0  0  2  0  0  0  0  0  0
  191.1150  178.2930  143.7550 C   0  0  0  0  0  1  0  0  0  0  0  0
  187.2130  175.7780  142.3370 C   0  0  0  0  0  2  0  0  0  0  0  0
  188.6630  175.8540  142.2420 N   0  0  0  0  0  2  0  0  0  0  0  0
  189.1700  174.7430  141.4340 C   0  0  1  0  0  3  0  0  0  0  0  0
  190.0100  173.7860  142.2780 C   0  0  0  0  0  2  0  0  0  0  0  0
  189.1750  172.9970  143.0740 O   0  0  0  0  0  1  0  0  0  0  0  0
  188.1170  174.0670  140.8030 O   0  0  0  0  0  0  0  0  0  0  0  0
  188.6860  173.4910  139.6640 C   0  0  0  0  0  2  0  0  0  0  0  0
  188.1190  174.1060  138.4730 N   0  0  0  0  0  2  0  0  0  0  0  0
  189.1030  173.9820  137.4140 C   0  0  0  0  0  2  0  0  0  0  0  0
  190.4630  173.6260  137.9920 C   0  0  0  0  0  2  0  0  0  0  0  0
  191.2850  173.1130  136.9890 O   0  0  0  0  0  0  0  0  0  0  0  0
  192.5020  170.6630  136.5290 O   0  0  0  0  0  0  0  0  0  0  0  0
  191.2840  171.2000  138.7910 O   0  0  0  0  0  1  0  0  0  0  0  0
  193.5630  172.4210  138.3770 O   0  0  0  0  0  1  0  0  0  0  0  0
  192.1250  171.8280  137.6990 P   0  0  0  0  0  0  0  0  0  0  0  0
  2  5  2  0  0  0  0
  2  6  1  0  0  0  0
  3  1  2  0  0  0  0
  3  9  1  0  0  0  0
  5  7  1  0  0  0  0
  6  8  1  0  0  0  0
  7  3  1  0  0  0  0
  8  1  1  0  0  0  0
  8  4  1  1  0  0  0
 10  9  1  0  0  0  0
 10 11  1  0  0  0  0
 12 11  1  0  0  0  0
 13 28  1  6  0  0  0
 13 12  1  0  0  0  0
 14 13  1  6  0  0  0
 15 14  1  0  0  0  0
 15 17  1  6  0  0  0
 16 20  1  1  0  0  0
 16 14  1  0  0  0  0
 18 22  1  1  0  0  0
 18 15  1  0  0  0  0
 19 24  1  6  0  0  0
 19 18  1  0  0  0  0
 19 16  1  0  0  0  0
 21 17  1  0  0  0  0
 22 21  1  0  0  0  0
 25 23  2  0  0  0  0
 25 24  1  0  0  0  0
 26 27  3  0  0  0  0
 27 25  1  0  0  0  0
 28 29  1  0  0  0  0
 30  5  1  0  0  0  0
 31 30  1  0  0  0  0
 32 31  1  0  0  0  0
 32 33  1  1  0  0  0
 33 34  1  0  0  0  0
 35 32  1  0  0  0  0
 36 35  1  0  0  0  0
 37 36  1  0  0  0  0
 38 39  1  0  0  0  0
 38 37  1  0  0  0  0
 40 44  1  0  0  0  0
 40 39  1  0  0  0  0
 41 44  2  0  0  0  0
 44 43  1  0  0  0  0
 44 42  1  0  0  0  0
M  END
>  <MODEL>
6

>  <REMARK>
 VINA RESULT:      -5.2      3.319      6.778
  Name = 
  20 active torsions:
  status: ('A' for Active; 'I' for Inactive)
    1  A    between atoms: C_1  and  C_20
    2  A    between atoms: C_1  and  N_21
    3  A    between atoms: C_3  and  O_19
    4  A    between atoms: C_3  and  C_40
    5  A    between atoms: N_4  and  O_5
    6  A    between atoms: N_4  and  C_13
    7  A    between atoms: O_5  and  C_11
    8  A    between atoms: O_7  and  C_26
    9  A    between atoms: O_7  and  C_31
   10  A    between atoms: C_9  and  C_33
   11  A    between atoms: C_13  and  C_38
   12  A    between atoms: C_14  and  C_33
   13  A    between atoms: O_19  and  P_37
   14  A    between atoms: N_21  and  C_31
   15  A    between atoms: C_22  and  C_31
   16  A    between atoms: N_25  and  C_26
   17  A    between atoms: N_25  and  C_40
   18  A    between atoms: C_27  and  N_30
   19  A    between atoms: C_32  and  C_34
   20  A    between atoms: C_33  and  C_38
                            x       y       z     vdW  Elec       q    Type
                         _______ _______ _______ _____ _____    ______ ____

>  <TORSDO>
F 20

$$$$
=
 OpenBabel11062422423D

 44 46  0  0  1  0  0  0  0  0999 V2000
  195.5000  175.1450  143.2570 C   0  0  0  0  0  3  0  0  0  0  0  0
  195.0820  175.9990  140.4180 N   0  0  0  0  0  0  0  0  0  0  0  0
  195.1350  173.9880  142.6730 C   0  0  0  0  0  0  0  0  0  0  0  0
  197.4910  176.5240  143.1260 N   0  0  0  0  0  1  0  0  0  0  0  0
  194.6270  174.7890  140.4170 C   0  0  0  0  0  0  0  0  0  0  0  0
  196.1800  176.3420  141.1830 O   0  0  0  0  0  0  0  0  0  0  0  0
  195.3230  173.7370  141.2110 C   0  0  0  0  0  2  0  0  0  0  0  0
  196.1410  176.3520  142.6120 C   0  0  1  0  0  3  0  0  0  0  0  0
  194.5440  172.9730  143.4320 O   0  0  0  0  0  0  0  0  0  0  0  0
  194.6650  172.9390  144.8080 N   0  0  0  0  0  2  0  0  0  0  0  0
  193.3720  173.3050  145.3580 C   0  0  0  0  0  2  0  0  0  0  0  0
  192.2560  172.8270  144.4420 C   0  0  0  0  0  2  0  0  0  0  0  0
  191.1190  173.8460  144.3750 C   0  0  2  0  0  3  0  0  0  0  0  0
  191.3530  174.9560  145.4210 C   0  0  1  0  0  3  0  0  0  0  0  0
  191.4250  176.3100  144.8750 N   0  0  1  0  0  0  0  0  0  0  0  0
  190.2720  175.0230  146.5230 C   0  0  2  0  0  3  0  0  0  0  0  0
  191.6800  176.5410  143.4680 C   0  0  0  0  0  2  0  0  0  0  0  0
  190.0720  176.7590  144.9900 C   0  0  1  0  0  3  0  0  0  0  0  0
  189.6300  176.4130  146.3790 C   0  0  1  0  0  3  0  0  0  0  0  0
  190.8720  174.9180  147.7770 O   0  0  0  0  0  1  0  0  0  0  0  0
  190.9720  177.8810  143.1750 C   0  0  0  0  0  2  0  0  0  0  0  0
  190.0320  178.1200  144.3650 C   0  0  0  0  0  2  0  0  0  0  0  0
  187.8570  178.3920  147.4080 O   0  0  0  0  0  0  0  0  0  0  0  0
  188.1820  176.2930  146.4180 N   0  0  0  0  0  2  0  0  0  0  0  0
  187.3490  177.3590  146.8930 C   0  0  0  0  0  0  0  0  0  0  0  0
  184.7230  177.1560  146.7110 C   0  0  0  0  0  3  0  0  0  0  0  0
  185.9190  177.2480  146.7920 C   0  0  0  0  0  0  0  0  0  0  0  0
  189.7660  173.1560  144.5350 C   0  0  0  0  0  2  0  0  0  0  0  0
  189.8870  171.6760  144.2290 C   0  0  0  0  0  1  0  0  0  0  0  0
  193.4450  174.4340  139.5840 C   0  0  0  0  0  2  0  0  0  0  0  0
  192.3700  173.9430  140.4330 N   0  0  0  0  0  2  0  0  0  0  0  0
  191.8540  172.6790  139.9070 C   0  0  1  0  0  3  0  0  0  0  0  0
  192.0980  171.5320  140.8860 C   0  0  0  0  0  2  0  0  0  0  0  0
  193.3210  170.9190  140.6030 O   0  0  0  0  0  1  0  0  0  0  0  0
  190.4930  172.7910  139.5920 O   0  0  0  0  0  0  0  0  0  0  0  0
  189.8330  172.7840  140.8240 C   0  0  0  0  0  2  0  0  0  0  0  0
  188.5540  173.4660  140.6950 N   0  0  0  0  0  2  0  0  0  0  0  0
  188.7960  174.8810  140.9060 C   0  0  0  0  0  2  0  0  0  0  0  0
  187.6080  175.5250  141.6000 C   0  0  0  0  0  2  0  0  0  0  0  0
  187.8520  176.8850  141.7920 O   0  0  0  0  0  0  0  0  0  0  0  0
  186.9740  178.6680  143.7280 O   0  0  0  0  0  1  0  0  0  0  0  0
  185.8020  176.3510  143.3470 O   0  0  0  0  0  1  0  0  0  0  0  0
  185.4290  178.1640  141.4950 O   0  0  0  0  0  0  0  0  0  0  0  0
  186.5010  177.4800  142.6170 P   0  0  0  0  0  0  0  0  0  0  0  0
  2  6  1  0  0  0  0
  3  1  2  0  0  0  0
  3  9  1  0  0  0  0
  5  2  2  0  0  0  0
  5  7  1  0  0  0  0
  6  8  1  0  0  0  0
  7  3  1  0  0  0  0
  8  4  1  1  0  0  0
  8  1  1  0  0  0  0
  9 10  1  0  0  0  0
 10 11  1  0  0  0  0
 12 11  1  0  0  0  0
 13 12  1  1  0  0  0
 13 28  1  0  0  0  0
 14 13  1  6  0  0  0
 14 16  1  0  0  0  0
 15 17  1  6  0  0  0
 15 18  1  0  0  0  0
 15 14  1  0  0  0  0
 16 20  1  1  0  0  0
 18 22  1  1  0  0  0
 18 19  1  0  0  0  0
 19 24  1  6  0  0  0
 19 16  1  0  0  0  0
 21 17  1  0  0  0  0
 21 22  1  0  0  0  0
 24 25  1  0  0  0  0
 25 23  2  0  0  0  0
 26 27  3  0  0  0  0
 27 25  1  0  0  0  0
 29 28  1  0  0  0  0
 30  5  1  0  0  0  0
 30 31  1  0  0  0  0
 32 31  1  0  0  0  0
 32 33  1  1  0  0  0
 34 33  1  0  0  0  0
 35 32  1  0  0  0  0
 35 36  1  0  0  0  0
 37 36  1  0  0  0  0
 37 38  1  0  0  0  0
 38 39  1  0  0  0  0
 39 40  1  0  0  0  0
 40 44  1  0  0  0  0
 43 44  2  0  0  0  0
 44 42  1  0  0  0  0
 44 41  1  0  0  0  0
M  END
>  <MODEL>
7

>  <REMARK>
 VINA RESULT:      -5.2      2.489      6.417
  Name = 
  20 active torsions:
  status: ('A' for Active; 'I' for Inactive)
    1  A    between atoms: C_1  and  C_20
    2  A    between atoms: C_1  and  N_21
    3  A    between atoms: C_3  and  O_19
    4  A    between atoms: C_3  and  C_40
    5  A    between atoms: N_4  and  O_5
    6  A    between atoms: N_4  and  C_13
    7  A    between atoms: O_5  and  C_11
    8  A    between atoms: O_7  and  C_26
    9  A    between atoms: O_7  and  C_31
   10  A    between atoms: C_9  and  C_33
   11  A    between atoms: C_13  and  C_38
   12  A    between atoms: C_14  and  C_33
   13  A    between atoms: O_19  and  P_37
   14  A    between atoms: N_21  and  C_31
   15  A    between atoms: C_22  and  C_31
   16  A    between atoms: N_25  and  C_26
   17  A    between atoms: N_25  and  C_40
   18  A    between atoms: C_27  and  N_30
   19  A    between atoms: C_32  and  C_34
   20  A    between atoms: C_33  and  C_38
                            x       y       z     vdW  Elec       q    Type
                         _______ _______ _______ _____ _____    ______ ____

>  <TORSDO>
F 20

$$$$
=
 OpenBabel11062422423D

 44 46  0  0  1  0  0  0  0  0999 V2000
  190.2800  171.8380  140.0570 C   0  0  0  0  0  3  0  0  0  0  0  0
  191.2350  173.6010  137.8340 N   0  0  0  0  0  0  0  0  0  0  0  0
  191.3470  172.4370  140.6200 C   0  0  0  0  0  0  0  0  0  0  0  0
  188.0780  172.6210  139.4090 N   0  0  0  0  0  1  0  0  0  0  0  0
  192.1860  173.7070  138.7040 C   0  0  0  0  0  0  0  0  0  0  0  0
  189.9180  173.4940  138.2350 O   0  0  0  0  0  0  0  0  0  0  0  0
  191.8550  173.7640  140.1560 C   0  0  0  0  0  2  0  0  0  0  0  0
  189.4200  172.3440  138.9220 C   0  0  1  0  0  3  0  0  0  0  0  0
  192.0310  171.8130  141.6680 O   0  0  0  0  0  0  0  0  0  0  0  0
  191.3580  171.1240  142.6590 N   0  0  0  0  0  2  0  0  0  0  0  0
  191.5890  171.8360  143.9030 C   0  0  0  0  0  2  0  0  0  0  0  0
  190.2820  172.4060  144.4340 C   0  0  0  0  0  2  0  0  0  0  0  0
  190.0790  173.8490  143.9710 C   0  0  2  0  0  3  0  0  0  0  0  0
  190.3110  174.8120  145.1530 C   0  0  1  0  0  3  0  0  0  0  0  0
  190.9980  176.0550  144.8080 N   0  0  1  0  0  0  0  0  0  0  0  0
  189.0160  175.2540  145.8710 C   0  0  2  0  0  3  0  0  0  0  0  0
  191.7580  176.1780  143.5800 C   0  0  0  0  0  2  0  0  0  0  0  0
  189.9090  176.9460  144.5510 C   0  0  1  0  0  3  0  0  0  0  0  0
  188.9510  176.7790  145.6910 C   0  0  1  0  0  3  0  0  0  0  0  0
  189.1060  174.9510  147.2300 O   0  0  0  0  0  1  0  0  0  0  0  0
  191.6660  177.6800  143.2330 C   0  0  0  0  0  2  0  0  0  0  0  0
  190.5240  178.2340  144.0970 C   0  0  0  0  0  2  0  0  0  0  0  0
  186.8840  177.6650  147.4420 O   0  0  0  0  0  0  0  0  0  0  0  0
  187.6160  177.1690  145.2710 N   0  0  0  0  0  2  0  0  0  0  0  0
  186.6460  177.6660  146.2040 C   0  0  0  0  0  0  0  0  0  0  0  0
  184.3300  178.5810  145.3270 C   0  0  0  0  0  3  0  0  0  0  0  0
  185.3840  178.1620  145.7260 C   0  0  0  0  0  0  0  0  0  0  0  0
  188.7050  174.0200  143.3260 C   0  0  0  0  0  2  0  0  0  0  0  0
  188.8250  174.7720  142.0150 C   0  0  0  0  0  1  0  0  0  0  0  0
  193.6000  173.8250  138.2570 C   0  0  0  0  0  2  0  0  0  0  0  0
  194.2580  174.9070  138.9740 N   0  0  0  0  0  2  0  0  0  0  0  0
  195.6280  174.5210  139.3160 C   0  0  1  0  0  3  0  0  0  0  0  0
  196.6380  175.1840  138.3830 C   0  0  0  0  0  2  0  0  0  0  0  0
  196.9900  174.3010  137.3590 O   0  0  0  0  0  1  0  0  0  0  0  0
  195.9080  174.8200  140.6560 O   0  0  0  0  0  0  0  0  0  0  0  0
  197.2950  174.6970  140.7740 C   0  0  0  0  0  2  0  0  0  0  0  0
  197.7650  175.5270  141.8730 N   0  0  0  0  0  2  0  0  0  0  0  0
  196.7680  176.5580  142.0920 C   0  0  0  0  0  2  0  0  0  0  0  0
  196.4690  176.7020  143.5750 C   0  0  0  0  0  2  0  0  0  0  0  0
  195.1490  176.3320  143.8300 O   0  0  0  0  0  0  0  0  0  0  0  0
  194.2100  174.8860  146.0030 O   0  0  0  0  0  1  0  0  0  0  0  0
  196.6620  174.6060  145.1100 O   0  0  0  0  0  1  0  0  0  0  0  0
  194.7560  173.6130  143.6140 O   0  0  0  0  0  0  0  0  0  0  0  0
  195.2380  174.8600  144.6580 P   0  0  0  0  0  0  0  0  0  0  0  0
  1  3  2  0  0  0  0
  2  6  1  0  0  0  0
  2  5  2  0  0  0  0
  3  9  1  0  0  0  0
  5  7  1  0  0  0  0
  6  8  1  0  0  0  0
  7  3  1  0  0  0  0
  8  4  1  1  0  0  0
  8  1  1  0  0  0  0
  9 10  1  0  0  0  0
 10 11  1  0  0  0  0
 11 12  1  0  0  0  0
 13 28  1  1  0  0  0
 13 12  1  0  0  0  0
 14 13  1  6  0  0  0
 14 16  1  0  0  0  0
 15 17  1  6  0  0  0
 15 14  1  0  0  0  0
 16 20  1  1  0  0  0
 18 22  1  1  0  0  0
 18 15  1  0  0  0  0
 18 19  1  0  0  0  0
 19 24  1  6  0  0  0
 19 16  1  0  0  0  0
 21 17  1  0  0  0  0
 21 22  1  0  0  0  0
 24 25  1  0  0  0  0
 25 23  2  0  0  0  0
 26 27  3  0  0  0  0
 27 25  1  0  0  0  0
 29 28  1  0  0  0  0
 30  5  1  0  0  0  0
 30 31  1  0  0  0  0
 31 32  1  0  0  0  0
 32 33  1  6  0  0  0
 32 35  1  0  0  0  0
 34 33  1  0  0  0  0
 35 36  1  0  0  0  0
 36 37  1  0  0  0  0
 37 38  1  0  0  0  0
 38 39  1  0  0  0  0
 39 40  1  0  0  0  0
 40 44  1  0  0  0  0
 43 44  2  0  0  0  0
 44 42  1  0  0  0  0
 44 41  1  0  0  0  0
M  END
>  <MODEL>
8

>  <REMARK>
 VINA RESULT:      -5.2      3.266      8.436
  Name = 
  20 active torsions:
  status: ('A' for Active; 'I' for Inactive)
    1  A    between atoms: C_1  and  C_20
    2  A    between atoms: C_1  and  N_21
    3  A    between atoms: C_3  and  O_19
    4  A    between atoms: C_3  and  C_40
    5  A    between atoms: N_4  and  O_5
    6  A    between atoms: N_4  and  C_13
    7  A    between atoms: O_5  and  C_11
    8  A    between atoms: O_7  and  C_26
    9  A    between atoms: O_7  and  C_31
   10  A    between atoms: C_9  and  C_33
   11  A    between atoms: C_13  and  C_38
   12  A    between atoms: C_14  and  C_33
   13  A    between atoms: O_19  and  P_37
   14  A    between atoms: N_21  and  C_31
   15  A    between atoms: C_22  and  C_31
   16  A    between atoms: N_25  and  C_26
   17  A    between atoms: N_25  and  C_40
   18  A    between atoms: C_27  and  N_30
   19  A    between atoms: C_32  and  C_34
   20  A    between atoms: C_33  and  C_38
                            x       y       z     vdW  Elec       q    Type
                         _______ _______ _______ _____ _____    ______ ____

>  <TORSDO>
F 20

$$$$
=
 OpenBabel11062422423D

 44 46  0  0  1  0  0  0  0  0999 V2000
  186.2600  177.5430  141.1000 C   0  0  0  0  0  3  0  0  0  0  0  0
  185.7180  178.6550  143.8260 N   0  0  0  0  0  0  0  0  0  0  0  0
  186.7440  176.5700  141.8960 C   0  0  0  0  0  0  0  0  0  0  0  0
  184.0210  178.3260  140.5980 N   0  0  0  0  0  1  0  0  0  0  0  0
  186.4460  177.6200  144.0860 C   0  0  0  0  0  0  0  0  0  0  0  0
  184.8000  178.6340  142.7940 O   0  0  0  0  0  0  0  0  0  0  0  0
  186.2620  176.3690  143.2970 C   0  0  0  0  0  2  0  0  0  0  0  0
  185.1950  178.5650  141.4220 C   0  0  1  0  0  3  0  0  0  0  0  0
  187.7430  175.7100  141.4270 O   0  0  0  0  0  0  0  0  0  0  0  0
  187.8170  175.3500  140.0950 N   0  0  0  0  0  2  0  0  0  0  0  0
  188.7020  174.2020  140.0140 C   0  0  0  0  0  2  0  0  0  0  0  0
  188.9830  173.6540  141.4040 C   0  0  0  0  0  2  0  0  0  0  0  0
  190.2740  172.8360  141.4270 C   0  0  2  0  0  3  0  0  0  0  0  0
  190.1600  171.7130  142.4790 C   0  0  1  0  0  3  0  0  0  0  0  0
  190.7280  170.4290  142.0720 N   0  0  1  0  0  0  0  0  0  0  0  0
  190.8370  172.0430  143.8290 C   0  0  2  0  0  3  0  0  0  0  0  0
  190.9790  170.1260  140.6780 C   0  0  0  0  0  2  0  0  0  0  0  0
  192.0600  170.5070  142.5850 C   0  0  1  0  0  3  0  0  0  0  0  0
  191.9400  170.9860  143.9990 C   0  0  1  0  0  3  0  0  0  0  0  0
  189.9100  171.9160  144.8620 O   0  0  0  0  0  1  0  0  0  0  0  0
  192.1660  169.1390  140.7180 C   0  0  0  0  0  2  0  0  0  0  0  0
  192.7520  169.2570  142.1330 C   0  0  0  0  0  2  0  0  0  0  0  0
  194.0010  169.7350  145.5200 O   0  0  0  0  0  0  0  0  0  0  0  0
  193.1790  171.6270  144.4070 N   0  0  0  0  0  2  0  0  0  0  0  0
  194.1990  170.9140  145.1180 C   0  0  0  0  0  0  0  0  0  0  0  0
  196.5160  172.0790  145.6140 C   0  0  0  0  0  3  0  0  0  0  0  0
  195.4610  171.5500  145.3870 C   0  0  0  0  0  0  0  0  0  0  0  0
  191.4830  173.7410  141.6520 C   0  0  0  0  0  2  0  0  0  0  0  0
  192.4000  173.7090  140.4460 C   0  0  0  0  0  1  0  0  0  0  0  0
  187.4290  177.6570  145.2040 C   0  0  0  0  0  2  0  0  0  0  0  0
  187.5970  176.3230  145.7600 N   0  0  0  0  0  2  0  0  0  0  0  0
  189.0020  175.9180  145.6750 C   0  0  1  0  0  3  0  0  0  0  0  0
  189.3110  174.7880  146.6540 C   0  0  0  0  0  2  0  0  0  0  0  0
  188.5110  174.9140  147.7930 O   0  0  0  0  0  1  0  0  0  0  0  0
  189.3340  175.5540  144.3630 O   0  0  0  0  0  0  0  0  0  0  0  0
  190.6290  176.0410  144.1670 C   0  0  0  0  0  2  0  0  0  0  0  0
  190.5900  177.1730  143.2540 N   0  0  0  0  0  2  0  0  0  0  0  0
  191.9410  177.3780  142.7650 C   0  0  0  0  0  2  0  0  0  0  0  0
  192.9400  176.6410  143.6400 C   0  0  0  0  0  2  0  0  0  0  0  0
  194.1180  176.4160  142.9280 O   0  0  0  0  0  0  0  0  0  0  0  0
  195.1380  173.8430  142.7390 O   0  0  0  0  0  0  0  0  0  0  0  0
  194.1260  174.7700  144.9760 O   0  0  0  0  0  1  0  0  0  0  0  0
  196.4430  175.7510  144.2510 O   0  0  0  0  0  1  0  0  0  0  0  0
  194.9240  175.1810  143.7550 P   0  0  0  0  0  0  0  0  0  0  0  0
  1  8  1  0  0  0  0
  1  3  2  0  0  0  0
  2  5  2  0  0  0  0
  3  7  1  0  0  0  0
  5 30  1  0  0  0  0
  6  2  1  0  0  0  0
  7  5  1  0  0  0  0
  8  4  1  6  0  0  0
  8  6  1  0  0  0  0
  9  3  1  0  0  0  0
 10  9  1  0  0  0  0
 11 10  1  0  0  0  0
 11 12  1  0  0  0  0
 13 12  1  1  0  0  0
 13 28  1  0  0  0  0
 14 13  1  6  0  0  0
 14 16  1  0  0  0  0
 15 17  1  6  0  0  0
 15 14  1  0  0  0  0
 15 18  1  0  0  0  0
 16 19  1  0  0  0  0
 16 20  1  1  0  0  0
 17 21  1  0  0  0  0
 18 22  1  1  0  0  0
 18 19  1  0  0  0  0
 19 24  1  6  0  0  0
 21 22  1  0  0  0  0
 24 25  1  0  0  0  0
 25 27  1  0  0  0  0
 25 23  2  0  0  0  0
 27 26  3  0  0  0  0
 29 28  1  0  0  0  0
 30 31  1  0  0  0  0
 32 31  1  0  0  0  0
 32 33  1  1  0  0  0
 33 34  1  0  0  0  0
 35 32  1  0  0  0  0
 36 35  1  0  0  0  0
 37 36  1  0  0  0  0
 38 37  1  0  0  0  0
 38 39  1  0  0  0  0
 40 39  1  0  0  0  0
 40 44  1  0  0  0  0
 41 44  2  0  0  0  0
 44 43  1  0  0  0  0
 44 42  1  0  0  0  0
M  END
>  <MODEL>
9

>  <REMARK>
 VINA RESULT:      -5.2      2.778      6.539
  Name = 
  20 active torsions:
  status: ('A' for Active; 'I' for Inactive)
    1  A    between atoms: C_1  and  C_20
    2  A    between atoms: C_1  and  N_21
    3  A    between atoms: C_3  and  O_19
    4  A    between atoms: C_3  and  C_40
    5  A    between atoms: N_4  and  O_5
    6  A    between atoms: N_4  and  C_13
    7  A    between atoms: O_5  and  C_11
    8  A    between atoms: O_7  and  C_26
    9  A    between atoms: O_7  and  C_31
   10  A    between atoms: C_9  and  C_33
   11  A    between atoms: C_13  and  C_38
   12  A    between atoms: C_14  and  C_33
   13  A    between atoms: O_19  and  P_37
   14  A    between atoms: N_21  and  C_31
   15  A    between atoms: C_22  and  C_31
   16  A    between atoms: N_25  and  C_26
   17  A    between atoms: N_25  and  C_40
   18  A    between atoms: C_27  and  N_30
   19  A    between atoms: C_32  and  C_34
   20  A    between atoms: C_33  and  C_38
                            x       y       z     vdW  Elec       q    Type
                         _______ _______ _______ _____ _____    ______ ____

>  <TORSDO>
F 20

$$$$
