=
 OpenBabel11062420203D

 53 58  0  0  1  0  0  0  0  0999 V2000
  191.1210  176.3310  146.3290 P   0  0  2  0  0  0  0  0  0  0  0  0
  189.7020  177.2970  146.9310 C   0  0  0  0  0  1  0  0  0  0  0  0
  192.2290  176.3400  147.3670 O   0  0  0  0  0  0  0  0  0  0  0  0
  191.7080  176.9790  144.8600 O   0  0  0  0  0  0  0  0  0  0  0  0
  193.1000  176.8370  144.8890 C   0  0  0  0  0  2  0  0  0  0  0  0
  193.5540  175.7770  143.8880 C   0  0  0  0  0  2  0  0  0  0  0  0
  195.5910  169.4020  144.1640 C   0  0  0  0  0  1  0  0  0  0  0  0
  195.4300  173.1930  140.1420 C   0  0  2  0  0  3  0  0  0  0  0  0
  196.1880  170.7730  143.9410 C   0  0  2  0  0  3  0  0  0  0  0  0
  194.9830  175.2390  144.0680 C   0  0  2  0  0  3  0  0  0  0  0  0
  196.4560  173.7490  146.2610 O   0  0  0  0  0  1  0  0  0  0  0  0
  196.7890  171.6760  138.0720 C   0  0  0  0  0  3  0  0  0  0  0  0
  197.2880  173.3850  144.1810 O   0  0  0  0  0  1  0  0  0  0  0  0
  196.3060  172.0320  140.3770 N   0  0  0  0  0  0  0  0  0  0  0  0
  195.8240  175.3640  142.7860 C   0  0  2  0  0  3  0  0  0  0  0  0
  196.7610  171.7310  141.7290 C   0  0  0  0  0  2  0  0  0  0  0  0
  196.4380  176.7460  142.6190 C   0  0  0  0  0  1  0  0  0  0  0  0
  196.7630  171.1390  146.2440 O   0  0  0  0  0  1  0  0  0  0  0  0
  194.9010  173.7500  144.4400 C   0  0  2  0  0  3  0  0  0  0  0  0
  195.9740  171.6400  145.2010 C   0  0  1  0  0  3  0  0  0  0  0  0
  195.0600  173.3390  138.6880 C   0  0  0  0  0  0  0  0  0  0  0  0
  193.9880  174.4790  138.2200 S   0  0  0  0  0  0  0  0  0  0  0  0
  193.8400  173.5000  145.3400 O   0  0  0  0  0  1  0  0  0  0  0  0
  196.0330  174.3630  140.6180 O   0  0  0  0  0  0  0  0  0  0  0  0
  195.1080  174.8750  141.5300 C   0  0  0  0  0  2  0  0  0  0  0  0
  195.6020  171.3610  142.6580 C   0  0  0  0  0  2  0  0  0  0  0  0
  196.1980  173.1570  145.0220 C   0  0  0  0  0  0  0  0  0  0  0  0
  195.7870  172.6190  137.6930 N   0  0  0  0  0  2  0  0  0  0  0  0
  197.0140  171.4150  139.3220 N   0  0  0  0  0  0  0  0  0  0  0  0
  190.6320  174.7060  146.0700 O   0  0  0  0  0  0  0  0  0  0  0  0
  189.9770  174.0090  143.6840 C   0  0  0  0  0  0  0  0  0  0  0  0
  190.2950  174.3090  144.8060 C   0  0  0  0  0  0  0  0  0  0  0  0
  188.4790  174.5880  141.7860 C   0  0  0  0  0  0  0  0  0  0  0  0
  191.9110  172.6740  141.8530 C   0  0  0  0  0  2  0  0  0  0  0  0
  188.2770  174.7120  140.4600 C   0  0  0  0  0  3  0  0  0  0  0  0
  190.7960  173.6260  141.3540 C   0  0  1  0  0  3  0  0  0  0  0  0
  190.7880  172.4080  139.2140 N   0  0  0  0  0  0  0  0  0  0  0  0
  192.3730  171.6440  140.8640 C   0  0  0  0  0  3  0  0  0  0  0  0
  190.2920  173.3480  139.9550 C   0  0  0  0  0  0  0  0  0  0  0  0
  189.5790  173.6740  142.3030 C   0  0  1  0  0  3  0  0  0  0  0  0
  189.1310  174.0580  139.5060 N   0  0  0  0  0  2  0  0  0  0  0  0
  191.8440  171.5490  139.6510 C   0  0  0  0  0  3  0  0  0  0  0  0
  187.5410  175.2570  142.7570 C   0  0  0  0  0  2  0  0  0  0  0  0
  187.0280  177.2430  143.8460 C   0  0  1  0  0  3  0  0  0  0  0  0
  187.4680  176.7040  142.5780 N   0  0  0  0  0  0  0  0  0  0  0  0
  188.3460  177.2500  143.4970 O   0  0  0  0  0  0  0  0  0  0  0  0
  186.4970  178.6660  143.7270 C   0  0  0  0  0  2  0  0  0  0  0  0
  186.2310  178.6960  147.3970 C   0  0  0  0  0  1  0  0  0  0  0  0
  184.3140  179.1730  144.9710 C   0  0  1  0  0  3  0  0  0  0  0  0
  184.3120  178.0450  145.9840 C   0  0  0  0  0  2  0  0  0  0  0  0
  185.8270  178.1110  146.0600 C   0  0  1  0  0  3  0  0  0  0  0  0
  185.8400  179.2100  145.0070 C   0  0  1  0  0  3  0  0  0  0  0  0
  183.7970  178.7330  143.7390 O   0  0  0  0  0  1  0  0  0  0  0  0
  1  2  1  1  0  0  0
  1  3  2  0  0  0  0
  4  5  1  0  0  0  0
  4  1  1  0  0  0  0
  6  5  1  0  0  0  0
  8 21  1  6  0  0  0
  8 14  1  0  0  0  0
  8 24  1  0  0  0  0
  9  7  1  1  0  0  0
  9 20  1  0  0  0  0
 10  6  1  6  0  0  0
 10 19  1  0  0  0  0
 12 29  2  0  0  0  0
 13 27  1  0  0  0  0
 14 16  1  0  0  0  0
 15 17  1  6  0  0  0
 15 10  1  0  0  0  0
 16 26  1  0  0  0  0
 19 27  1  0  0  0  0
 19 23  1  1  0  0  0
 20 18  1  1  0  0  0
 22 21  2  0  0  0  0
 24 25  1  0  0  0  0
 25 15  1  0  0  0  0
 26  9  1  0  0  0  0
 27 20  1  0  0  0  0
 27 11  1  0  0  0  0
 28 12  1  0  0  0  0
 28 21  1  0  0  0  0
 29 14  1  0  0  0  0
 30  1  1  0  0  0  0
 31 32  3  0  0  0  0
 32 30  1  0  0  0  0
 33 40  1  0  0  0  0
 33 43  1  0  0  0  0
 35 33  2  0  0  0  0
 36 34  1  1  0  0  0
 36 40  1  0  0  0  0
 37 42  1  0  0  0  0
 37 39  2  0  0  0  0
 38 34  1  0  0  0  0
 39 36  1  0  0  0  0
 40 31  1  1  0  0  0
 41 39  1  0  0  0  0
 41 35  1  0  0  0  0
 42 38  2  0  0  0  0
 44 47  1  6  0  0  0
 45 43  1  0  0  0  0
 45 46  1  0  0  0  0
 45 44  1  0  0  0  0
 46 44  1  0  0  0  0
 49 53  1  6  0  0  0
 49 52  1  0  0  0  0
 49 50  1  0  0  0  0
 50 51  1  0  0  0  0
 51 48  1  1  0  0  0
 52 47  1  6  0  0  0
 52 51  1  0  0  0  0
M  END
>  <MODEL>
1

>  <REMARK>
 VINA RESULT:      -7.6      0.000      0.000
  Name = 
  11 active torsions:
  status: ('A' for Active; 'I' for Inactive)
    1  A    between atoms: C_1  and  C_14
    2  A    between atoms: C_1  and  N_16
    3  A    between atoms: C_6  and  C_10
    4  A    between atoms: C_6  and  C_24
    5  A    between atoms: C_9  and  C_32
    6  A    between atoms: P_12  and  O_35
    7  A    between atoms: P_12  and  O_53
    8  A    between atoms: C_24  and  O_35
    9  A    between atoms: C_31  and  C_44
   10  A    between atoms: C_32  and  C_39
   11  A    between atoms: C_43  and  O_53
                            x       y       z     vdW  Elec       q    Type
                         _______ _______ _______ _____ _____    ______ ____

>  <TORSDO>
F 11

$$$$
=
 OpenBabel11062420203D

 53 58  0  0  1  0  0  0  0  0999 V2000
  187.4830  176.9970  141.1060 P   0  0  2  0  0  0  0  0  0  0  0  0
  186.3390  176.6410  142.4750 C   0  0  0  0  0  1  0  0  0  0  0  0
  186.7120  177.5370  139.9160 O   0  0  0  0  0  0  0  0  0  0  0  0
  188.3280  175.5840  140.6470 O   0  0  0  0  0  0  0  0  0  0  0  0
  188.7300  174.9570  141.8320 C   0  0  0  0  0  2  0  0  0  0  0  0
  190.0160  174.1640  141.6120 C   0  0  0  0  0  2  0  0  0  0  0  0
  194.0130  170.5720  137.6130 C   0  0  0  0  0  1  0  0  0  0  0  0
  193.4450  170.9610  143.1000 C   0  0  2  0  0  3  0  0  0  0  0  0
  192.8990  170.3370  138.6080 C   0  0  2  0  0  3  0  0  0  0  0  0
  189.8460  172.7070  141.1520 C   0  0  2  0  0  3  0  0  0  0  0  0
  189.2540  171.3450  138.5070 O   0  0  0  0  0  1  0  0  0  0  0  0
  195.3000  168.8650  143.8700 C   0  0  0  0  0  3  0  0  0  0  0  0
  190.4170  170.0540  139.9680 O   0  0  0  0  0  1  0  0  0  0  0  0
  193.9010  169.8680  142.2240 N   0  0  0  0  0  0  0  0  0  0  0  0
  190.1870  171.6960  142.2610 C   0  0  2  0  0  3  0  0  0  0  0  0
  193.2200  169.6230  140.9590 C   0  0  0  0  0  2  0  0  0  0  0  0
  189.0280  171.4590  143.2170 C   0  0  0  0  0  1  0  0  0  0  0  0
  191.1390  170.3450  136.9740 O   0  0  0  0  0  1  0  0  0  0  0  0
  190.7930  172.4530  139.9690 C   0  0  2  0  0  3  0  0  0  0  0  0
  191.6080  171.0200  138.1080 C   0  0  1  0  0  3  0  0  0  0  0  0
  194.2730  171.0650  144.3550 C   0  0  0  0  0  0  0  0  0  0  0  0
  194.0290  172.2920  145.4050 S   0  0  0  0  0  0  0  0  0  0  0  0
  190.8330  173.5620  139.0930 O   0  0  0  0  0  1  0  0  0  0  0  0
  192.0900  170.8030  143.4130 O   0  0  0  0  0  0  0  0  0  0  0  0
  191.5010  171.9930  142.9800 C   0  0  0  0  0  2  0  0  0  0  0  0
  193.3670  170.7960  139.9880 C   0  0  0  0  0  2  0  0  0  0  0  0
  190.4830  171.1850  139.1530 C   0  0  0  0  0  0  0  0  0  0  0  0
  195.1320  169.9900  144.7320 N   0  0  0  0  0  2  0  0  0  0  0  0
  194.7230  168.8270  142.7100 N   0  0  0  0  0  0  0  0  0  0  0  0
  188.6130  178.1890  141.6070 O   0  0  0  0  0  0  0  0  0  0  0  0
  190.4430  177.5900  143.3100 C   0  0  0  0  0  0  0  0  0  0  0  0
  189.5690  177.8500  142.5240 C   0  0  0  0  0  0  0  0  0  0  0  0
  191.0160  177.1150  145.6830 C   0  0  0  0  0  0  0  0  0  0  0  0
  192.9570  176.3030  142.3630 C   0  0  0  0  0  2  0  0  0  0  0  0
  191.7660  176.4570  146.5890 C   0  0  0  0  0  3  0  0  0  0  0  0
  192.3990  176.1120  143.7960 C   0  0  1  0  0  3  0  0  0  0  0  0
  194.7010  175.7330  144.5830 N   0  0  0  0  0  0  0  0  0  0  0  0
  194.4420  176.1390  142.2200 C   0  0  0  0  0  3  0  0  0  0  0  0
  193.4400  175.8400  144.8590 C   0  0  0  0  0  0  0  0  0  0  0  0
  191.5310  177.3000  144.2640 C   0  0  1  0  0  3  0  0  0  0  0  0
  193.0190  175.8520  146.2280 N   0  0  0  0  0  2  0  0  0  0  0  0
  195.2210  175.8670  143.2580 C   0  0  0  0  0  3  0  0  0  0  0  0
  189.7260  177.7710  146.1040 C   0  0  0  0  0  2  0  0  0  0  0  0
  187.5770  177.0120  145.6580 C   0  0  1  0  0  3  0  0  0  0  0  0
  188.7110  176.8130  146.5330 N   0  0  0  0  0  0  0  0  0  0  0  0
  188.4650  175.9990  145.4420 O   0  0  0  0  0  0  0  0  0  0  0  0
  186.2930  176.4080  146.2140 C   0  0  0  0  0  2  0  0  0  0  0  0
  184.2860  179.0060  144.5500 C   0  0  0  0  0  1  0  0  0  0  0  0
  184.9970  178.2120  147.4920 C   0  0  1  0  0  3  0  0  0  0  0  0
  185.4040  179.4450  146.7090 C   0  0  0  0  0  2  0  0  0  0  0  0
  185.4520  178.6190  145.4350 C   0  0  1  0  0  3  0  0  0  0  0  0
  185.0920  177.3680  146.2240 C   0  0  1  0  0  3  0  0  0  0  0  0
  185.9750  177.8890  148.4500 O   0  0  0  0  0  1  0  0  0  0  0  0
  1 30  1  0  0  0  0
  1  2  1  1  0  0  0
  3  1  2  0  0  0  0
  4  1  1  0  0  0  0
  4  5  1  0  0  0  0
  6  5  1  0  0  0  0
  8 24  1  1  0  0  0
  8 21  1  0  0  0  0
  9  7  1  6  0  0  0
  9 26  1  0  0  0  0
 10  6  1  1  0  0  0
 10 15  1  0  0  0  0
 11 27  1  0  0  0  0
 12 28  1  0  0  0  0
 14 29  1  0  0  0  0
 14  8  1  0  0  0  0
 15 25  1  0  0  0  0
 15 17  1  1  0  0  0
 16 14  1  0  0  0  0
 19 23  1  6  0  0  0
 19 10  1  0  0  0  0
 20 18  1  6  0  0  0
 20  9  1  0  0  0  0
 20 27  1  0  0  0  0
 21 28  1  0  0  0  0
 21 22  2  0  0  0  0
 25 24  1  0  0  0  0
 26 16  1  0  0  0  0
 27 13  1  0  0  0  0
 27 19  1  0  0  0  0
 29 12  2  0  0  0  0
 30 32  1  0  0  0  0
 32 31  3  0  0  0  0
 33 43  1  0  0  0  0
 33 35  2  0  0  0  0
 36 34  1  6  0  0  0
 36 40  1  0  0  0  0
 36 39  1  0  0  0  0
 37 39  2  0  0  0  0
 38 34  1  0  0  0  0
 38 42  2  0  0  0  0
 39 41  1  0  0  0  0
 40 31  1  6  0  0  0
 40 33  1  0  0  0  0
 41 35  1  0  0  0  0
 42 37  1  0  0  0  0
 43 45  1  0  0  0  0
 44 47  1  1  0  0  0
 44 45  1  0  0  0  0
 46 44  1  0  0  0  0
 46 45  1  0  0  0  0
 49 53  1  1  0  0  0
 50 49  1  0  0  0  0
 51 48  1  6  0  0  0
 51 52  1  0  0  0  0
 51 50  1  0  0  0  0
 52 47  1  1  0  0  0
 52 49  1  0  0  0  0
M  END
>  <MODEL>
2

>  <REMARK>
 VINA RESULT:      -7.0      3.438      6.022
  Name = 
  11 active torsions:
  status: ('A' for Active; 'I' for Inactive)
    1  A    between atoms: C_1  and  C_14
    2  A    between atoms: C_1  and  N_16
    3  A    between atoms: C_6  and  C_10
    4  A    between atoms: C_6  and  C_24
    5  A    between atoms: C_9  and  C_32
    6  A    between atoms: P_12  and  O_35
    7  A    between atoms: P_12  and  O_53
    8  A    between atoms: C_24  and  O_35
    9  A    between atoms: C_31  and  C_44
   10  A    between atoms: C_32  and  C_39
   11  A    between atoms: C_43  and  O_53
                            x       y       z     vdW  Elec       q    Type
                         _______ _______ _______ _____ _____    ______ ____

>  <TORSDO>
F 11

$$$$
=
 OpenBabel11062420203D

 53 58  0  0  1  0  0  0  0  0999 V2000
  189.2910  172.6620  142.0140 P   0  0  2  0  0  0  0  0  0  0  0  0
  190.1000  172.0510  143.5250 C   0  0  0  0  0  1  0  0  0  0  0  0
  187.7880  172.4840  142.1250 O   0  0  0  0  0  0  0  0  0  0  0  0
  189.8670  171.8190  140.6430 O   0  0  0  0  0  0  0  0  0  0  0  0
  191.2610  171.7670  140.7630 C   0  0  0  0  0  2  0  0  0  0  0  0
  191.9220  172.7490  139.8000 C   0  0  0  0  0  2  0  0  0  0  0  0
  190.4310  176.8350  134.7060 C   0  0  0  0  0  1  0  0  0  0  0  0
  195.1730  174.9160  136.8060 C   0  0  2  0  0  3  0  0  0  0  0  0
  191.0490  175.4720  134.9210 C   0  0  2  0  0  3  0  0  0  0  0  0
  191.8150  172.4100  138.3040 C   0  0  2  0  0  3  0  0  0  0  0  0
  189.5540  172.2780  136.2870 O   0  0  0  0  0  1  0  0  0  0  0  0
  196.9920  176.0220  134.8310 C   0  0  0  0  0  3  0  0  0  0  0  0
  191.5830  172.7150  135.3680 O   0  0  0  0  0  1  0  0  0  0  0  0
  194.7920  175.3530  135.4510 N   0  0  0  0  0  0  0  0  0  0  0  0
  193.1930  172.2260  137.6430 C   0  0  2  0  0  3  0  0  0  0  0  0
  193.4820  174.9990  134.9190 C   0  0  0  0  0  2  0  0  0  0  0  0
  193.7610  170.8300  137.8500 C   0  0  0  0  0  1  0  0  0  0  0  0
  188.9970  174.2540  134.6480 O   0  0  0  0  0  1  0  0  0  0  0  0
  191.0950  173.5650  137.5900 C   0  0  2  0  0  3  0  0  0  0  0  0
  190.0120  174.5320  135.5720 C   0  0  1  0  0  3  0  0  0  0  0  0
  196.5560  175.3810  137.1830 C   0  0  0  0  0  0  0  0  0  0  0  0
  197.1300  175.1250  138.6900 S   0  0  0  0  0  0  0  0  0  0  0  0
  190.0270  174.0660  138.3680 O   0  0  0  0  0  1  0  0  0  0  0  0
  195.0720  173.5240  136.9160 O   0  0  0  0  0  0  0  0  0  0  0  0
  194.1890  173.3310  137.9810 C   0  0  0  0  0  2  0  0  0  0  0  0
  192.3440  175.6400  135.7160 C   0  0  0  0  0  2  0  0  0  0  0  0
  190.5720  173.2290  136.1820 C   0  0  0  0  0  0  0  0  0  0  0  0
  197.4430  175.8670  136.1760 N   0  0  0  0  0  2  0  0  0  0  0  0
  195.7580  175.7810  134.5140 N   0  0  0  0  0  0  0  0  0  0  0  0
  189.6280  174.3350  141.8260 O   0  0  0  0  0  0  0  0  0  0  0  0
  191.5290  175.4180  143.1770 C   0  0  0  0  0  0  0  0  0  0  0  0
  190.6550  174.8880  142.5410 C   0  0  0  0  0  0  0  0  0  0  0  0
  192.2480  176.1260  145.4490 C   0  0  0  0  0  0  0  0  0  0  0  0
  194.3350  175.4890  142.1800 C   0  0  0  0  0  2  0  0  0  0  0  0
  193.2310  176.3180  146.3500 C   0  0  0  0  0  3  0  0  0  0  0  0
  193.9740  175.4970  143.6860 C   0  0  1  0  0  3  0  0  0  0  0  0
  196.0700  176.7130  144.1260 N   0  0  0  0  0  0  0  0  0  0  0  0
  195.6470  176.1260  141.8250 C   0  0  0  0  0  3  0  0  0  0  0  0
  194.9730  176.1970  144.5820 C   0  0  0  0  0  0  0  0  0  0  0  0
  192.5780  176.0940  143.9640 C   0  0  1  0  0  3  0  0  0  0  0  0
  194.6080  176.4170  145.9500 N   0  0  0  0  0  2  0  0  0  0  0  0
  196.4320  176.6750  142.7430 C   0  0  0  0  0  3  0  0  0  0  0  0
  190.8120  176.0660  145.9000 C   0  0  0  0  0  2  0  0  0  0  0  0
  188.7550  176.8240  145.1300 C   0  0  1  0  0  3  0  0  0  0  0  0
  190.0580  177.2730  145.5700 N   0  0  0  0  0  0  0  0  0  0  0  0
  188.9520  177.2730  146.4010 O   0  0  0  0  0  0  0  0  0  0  0  0
  187.9950  177.8950  144.3580 C   0  0  0  0  0  2  0  0  0  0  0  0
  185.0470  177.0410  146.3890 C   0  0  0  0  0  1  0  0  0  0  0  0
  185.6920  178.9630  144.0050 C   0  0  1  0  0  3  0  0  0  0  0  0
  184.8140  177.7260  144.0270 C   0  0  0  0  0  2  0  0  0  0  0  0
  185.7420  177.0860  145.0450 C   0  0  1  0  0  3  0  0  0  0  0  0
  186.6540  178.3040  144.9910 C   0  0  1  0  0  3  0  0  0  0  0  0
  186.2480  179.1520  142.7270 O   0  0  0  0  0  1  0  0  0  0  0  0
  1  3  2  0  0  0  0
  1  2  1  1  0  0  0
  4  5  1  0  0  0  0
  4  1  1  0  0  0  0
  6  5  1  0  0  0  0
  8 24  1  6  0  0  0
  8 21  1  0  0  0  0
  9  7  1  1  0  0  0
  9 20  1  0  0  0  0
  9 26  1  0  0  0  0
 10  6  1  1  0  0  0
 12 28  1  0  0  0  0
 13 27  1  0  0  0  0
 14  8  1  0  0  0  0
 15 17  1  1  0  0  0
 15 25  1  0  0  0  0
 15 10  1  0  0  0  0
 16 14  1  0  0  0  0
 16 26  1  0  0  0  0
 19 10  1  0  0  0  0
 19 23  1  1  0  0  0
 20 18  1  6  0  0  0
 20 27  1  0  0  0  0
 21 22  2  0  0  0  0
 24 25  1  0  0  0  0
 27 11  1  0  0  0  0
 27 19  1  0  0  0  0
 28 21  1  0  0  0  0
 29 12  2  0  0  0  0
 29 14  1  0  0  0  0
 30  1  1  0  0  0  0
 30 32  1  0  0  0  0
 32 31  3  0  0  0  0
 33 43  1  0  0  0  0
 33 35  2  0  0  0  0
 36 34  1  6  0  0  0
 36 40  1  0  0  0  0
 36 39  1  0  0  0  0
 37 39  2  0  0  0  0
 38 34  1  0  0  0  0
 38 42  2  0  0  0  0
 39 41  1  0  0  0  0
 40 31  1  6  0  0  0
 40 33  1  0  0  0  0
 41 35  1  0  0  0  0
 42 37  1  0  0  0  0
 44 47  1  6  0  0  0
 44 45  1  0  0  0  0
 44 46  1  0  0  0  0
 45 43  1  0  0  0  0
 45 46  1  0  0  0  0
 49 53  1  6  0  0  0
 49 50  1  0  0  0  0
 49 52  1  0  0  0  0
 50 51  1  0  0  0  0
 51 48  1  1  0  0  0
 52 47  1  6  0  0  0
 52 51  1  0  0  0  0
M  END
>  <MODEL>
3

>  <REMARK>
 VINA RESULT:      -6.9      3.885      6.768
  Name = 
  11 active torsions:
  status: ('A' for Active; 'I' for Inactive)
    1  A    between atoms: C_1  and  C_14
    2  A    between atoms: C_1  and  N_16
    3  A    between atoms: C_6  and  C_10
    4  A    between atoms: C_6  and  C_24
    5  A    between atoms: C_9  and  C_32
    6  A    between atoms: P_12  and  O_35
    7  A    between atoms: P_12  and  O_53
    8  A    between atoms: C_24  and  O_35
    9  A    between atoms: C_31  and  C_44
   10  A    between atoms: C_32  and  C_39
   11  A    between atoms: C_43  and  O_53
                            x       y       z     vdW  Elec       q    Type
                         _______ _______ _______ _____ _____    ______ ____

>  <TORSDO>
F 11

$$$$
=
 OpenBabel11062420203D

 53 58  0  0  1  0  0  0  0  0999 V2000
  190.6440  175.5570  146.3900 P   0  0  2  0  0  0  0  0  0  0  0  0
  189.5680  176.9890  146.7130 C   0  0  0  0  0  1  0  0  0  0  0  0
  191.5720  175.3330  147.5700 O   0  0  0  0  0  0  0  0  0  0  0  0
  191.5680  175.8100  144.9750 O   0  0  0  0  0  0  0  0  0  0  0  0
  192.8860  175.4590  145.2910 C   0  0  0  0  0  2  0  0  0  0  0  0
  193.6410  175.0180  144.0400 C   0  0  0  0  0  2  0  0  0  0  0  0
  196.6690  169.0730  143.4410 C   0  0  0  0  0  1  0  0  0  0  0  0
  196.0590  173.4100  140.0650 C   0  0  2  0  0  3  0  0  0  0  0  0
  197.0450  170.5370  143.4770 C   0  0  2  0  0  3  0  0  0  0  0  0
  195.1300  174.6820  144.2270 C   0  0  2  0  0  3  0  0  0  0  0  0
  196.7350  173.0920  146.2500 O   0  0  0  0  0  1  0  0  0  0  0  0
  197.7270  172.4850  137.8760 C   0  0  0  0  0  3  0  0  0  0  0  0
  197.6980  173.2100  144.1980 O   0  0  0  0  0  1  0  0  0  0  0  0
  197.1010  172.3740  140.1710 N   0  0  0  0  0  0  0  0  0  0  0  0
  195.9910  175.1460  143.0390 C   0  0  2  0  0  3  0  0  0  0  0  0
  197.5440  171.9260  141.4860 C   0  0  0  0  0  2  0  0  0  0  0  0
  196.3790  176.6140  143.1330 C   0  0  0  0  0  1  0  0  0  0  0  0
  197.4610  170.5990  145.8420 O   0  0  0  0  0  1  0  0  0  0  0  0
  195.2750  173.1570  144.3530 C   0  0  2  0  0  3  0  0  0  0  0  0
  196.6430  171.1400  144.8400 C   0  0  1  0  0  3  0  0  0  0  0  0
  195.7290  173.7370  138.6310 C   0  0  0  0  0  0  0  0  0  0  0  0
  194.5070  174.7620  138.2790 S   0  0  0  0  0  0  0  0  0  0  0  0
  194.2330  172.6020  145.1300 O   0  0  0  0  0  1  0  0  0  0  0  0
  196.4460  174.5640  140.7590 O   0  0  0  0  0  0  0  0  0  0  0  0
  195.4130  174.7690  141.6770 C   0  0  0  0  0  2  0  0  0  0  0  0
  196.4250  171.2340  142.2660 C   0  0  0  0  0  2  0  0  0  0  0  0
  196.6260  172.6810  144.9180 C   0  0  0  0  0  0  0  0  0  0  0  0
  196.6020  173.3130  137.5850 N   0  0  0  0  0  2  0  0  0  0  0  0
  197.9410  172.0570  139.0820 N   0  0  0  0  0  0  0  0  0  0  0  0
  189.6750  174.1550  146.1860 O   0  0  0  0  0  0  0  0  0  0  0  0
  189.9730  172.6880  144.0960 C   0  0  0  0  0  0  0  0  0  0  0  0
  189.8620  173.3770  145.0770 C   0  0  0  0  0  0  0  0  0  0  0  0
  189.3300  172.4480  141.7060 C   0  0  0  0  0  0  0  0  0  0  0  0
  192.3020  170.8670  143.7340 C   0  0  0  0  0  2  0  0  0  0  0  0
  189.6380  172.0620  140.4520 C   0  0  0  0  0  3  0  0  0  0  0  0
  191.5420  171.5110  142.5480 C   0  0  1  0  0  3  0  0  0  0  0  0
  192.1960  169.5870  141.1560 N   0  0  0  0  0  0  0  0  0  0  0  0
  192.9910  169.5680  143.4330 C   0  0  0  0  0  3  0  0  0  0  0  0
  191.5580  170.7090  141.2640 C   0  0  0  0  0  0  0  0  0  0  0  0
  190.0750  171.8470  142.8880 C   0  0  1  0  0  3  0  0  0  0  0  0
  190.7130  171.1440  140.1920 N   0  0  0  0  0  2  0  0  0  0  0  0
  192.9340  169.0050  142.2330 C   0  0  0  0  0  3  0  0  0  0  0  0
  188.1720  173.3820  141.9450 C   0  0  0  0  0  2  0  0  0  0  0  0
  187.5610  175.6140  142.1370 C   0  0  1  0  0  3  0  0  0  0  0  0
  188.3730  174.7040  141.3590 N   0  0  0  0  0  0  0  0  0  0  0  0
  188.8990  175.4940  142.3650 O   0  0  0  0  0  0  0  0  0  0  0  0
  187.3160  176.9390  141.4240 C   0  0  0  0  0  2  0  0  0  0  0  0
  186.1980  178.0950  144.7340 C   0  0  0  0  0  1  0  0  0  0  0  0
  185.3960  178.6040  141.7530 C   0  0  1  0  0  3  0  0  0  0  0  0
  184.6150  177.9030  142.8470 C   0  0  0  0  0  2  0  0  0  0  0  0
  185.9120  177.3740  143.4340 C   0  0  1  0  0  3  0  0  0  0  0  0
  186.6980  178.0340  142.3100 C   0  0  1  0  0  3  0  0  0  0  0  0
  185.0560  178.0840  140.4910 O   0  0  0  0  0  1  0  0  0  0  0  0
  1  2  1  1  0  0  0
  1  3  2  0  0  0  0
  4  5  1  0  0  0  0
  4  1  1  0  0  0  0
  6  5  1  0  0  0  0
  8 21  1  6  0  0  0
  8 14  1  0  0  0  0
  8 24  1  0  0  0  0
  9  7  1  1  0  0  0
  9 20  1  0  0  0  0
 10  6  1  6  0  0  0
 10 19  1  0  0  0  0
 12 29  2  0  0  0  0
 13 27  1  0  0  0  0
 14 16  1  0  0  0  0
 15 17  1  6  0  0  0
 15 10  1  0  0  0  0
 16 26  1  0  0  0  0
 19 27  1  0  0  0  0
 19 23  1  1  0  0  0
 20 27  1  0  0  0  0
 20 18  1  1  0  0  0
 22 21  2  0  0  0  0
 24 25  1  0  0  0  0
 25 15  1  0  0  0  0
 26  9  1  0  0  0  0
 27 11  1  0  0  0  0
 28 12  1  0  0  0  0
 28 21  1  0  0  0  0
 29 14  1  0  0  0  0
 30  1  1  0  0  0  0
 31 32  3  0  0  0  0
 32 30  1  0  0  0  0
 33 43  1  0  0  0  0
 33 40  1  0  0  0  0
 35 33  2  0  0  0  0
 36 40  1  0  0  0  0
 36 34  1  1  0  0  0
 37 39  2  0  0  0  0
 37 42  1  0  0  0  0
 38 34  1  0  0  0  0
 39 36  1  0  0  0  0
 40 31  1  1  0  0  0
 41 35  1  0  0  0  0
 41 39  1  0  0  0  0
 42 38  2  0  0  0  0
 44 47  1  6  0  0  0
 44 46  1  0  0  0  0
 45 43  1  0  0  0  0
 45 44  1  0  0  0  0
 45 46  1  0  0  0  0
 49 53  1  6  0  0  0
 49 52  1  0  0  0  0
 49 50  1  0  0  0  0
 50 51  1  0  0  0  0
 51 48  1  1  0  0  0
 52 47  1  6  0  0  0
 52 51  1  0  0  0  0
M  END
>  <MODEL>
4

>  <REMARK>
 VINA RESULT:      -6.7      1.518      1.984
  Name = 
  11 active torsions:
  status: ('A' for Active; 'I' for Inactive)
    1  A    between atoms: C_1  and  C_14
    2  A    between atoms: C_1  and  N_16
    3  A    between atoms: C_6  and  C_10
    4  A    between atoms: C_6  and  C_24
    5  A    between atoms: C_9  and  C_32
    6  A    between atoms: P_12  and  O_35
    7  A    between atoms: P_12  and  O_53
    8  A    between atoms: C_24  and  O_35
    9  A    between atoms: C_31  and  C_44
   10  A    between atoms: C_32  and  C_39
   11  A    between atoms: C_43  and  O_53
                            x       y       z     vdW  Elec       q    Type
                         _______ _______ _______ _____ _____    ______ ____

>  <TORSDO>
F 11

$$$$
=
 OpenBabel11062420203D

 53 58  0  0  1  0  0  0  0  0999 V2000
  189.1010  173.7520  140.5910 P   0  0  2  0  0  0  0  0  0  0  0  0
  189.5080  173.5200  142.3490 C   0  0  0  0  0  1  0  0  0  0  0  0
  188.1590  172.6550  140.1300 O   0  0  0  0  0  0  0  0  0  0  0  0
  190.5210  173.7250  139.6390 O   0  0  0  0  0  0  0  0  0  0  0  0
  191.0610  172.4390  139.7650 C   0  0  0  0  0  2  0  0  0  0  0  0
  192.1600  172.4180  140.8230 C   0  0  0  0  0  2  0  0  0  0  0  0
  197.5460  175.6530  143.1480 C   0  0  0  0  0  1  0  0  0  0  0  0
  195.5420  170.5500  143.8730 C   0  0  2  0  0  3  0  0  0  0  0  0
  197.2300  174.4740  142.2550 C   0  0  2  0  0  3  0  0  0  0  0  0
  193.6060  172.3640  140.3010 C   0  0  2  0  0  3  0  0  0  0  0  0
  195.4640  174.3190  138.9140 O   0  0  0  0  0  1  0  0  0  0  0  0
  197.7200  169.4570  145.4510 C   0  0  0  0  0  3  0  0  0  0  0  0
  196.5380  172.7260  140.1210 O   0  0  0  0  0  1  0  0  0  0  0  0
  196.9090  171.0960  143.9260 N   0  0  0  0  0  0  0  0  0  0  0  0
  194.3230  171.0600  140.6930 C   0  0  2  0  0  3  0  0  0  0  0  0
  197.3250  172.0970  142.9520 C   0  0  0  0  0  2  0  0  0  0  0  0
  194.0100  169.9100  139.7480 C   0  0  0  0  0  1  0  0  0  0  0  0
  197.2590  175.7330  140.2100 O   0  0  0  0  0  1  0  0  0  0  0  0
  194.3890  173.5390  140.9060 C   0  0  2  0  0  3  0  0  0  0  0  0
  196.4280  174.9570  141.0280 C   0  0  1  0  0  3  0  0  0  0  0  0
  195.2940  169.5360  144.9600 C   0  0  0  0  0  0  0  0  0  0  0  0
  193.8050  168.9010  145.1730 S   0  0  0  0  0  0  0  0  0  0  0  0
  193.6050  174.7140  140.9490 O   0  0  0  0  0  1  0  0  0  0  0  0
  195.2850  169.9960  142.6130 O   0  0  0  0  0  0  0  0  0  0  0  0
  194.1570  170.6850  142.1630 C   0  0  0  0  0  2  0  0  0  0  0  0
  196.5330  173.3990  143.0880 C   0  0  0  0  0  2  0  0  0  0  0  0
  195.7230  173.8550  140.2060 C   0  0  0  0  0  0  0  0  0  0  0  0
  196.3950  168.9780  145.6780 N   0  0  0  0  0  2  0  0  0  0  0  0
  197.9390  170.4420  144.6360 N   0  0  0  0  0  0  0  0  0  0  0  0
  188.3160  175.2650  140.3860 O   0  0  0  0  0  0  0  0  0  0  0  0
  187.1690  176.3250  142.4280 C   0  0  0  0  0  0  0  0  0  0  0  0
  187.7190  175.8530  141.4660 C   0  0  0  0  0  0  0  0  0  0  0  0
  187.4270  177.0170  144.8020 C   0  0  0  0  0  0  0  0  0  0  0  0
  184.7530  178.0360  142.1080 C   0  0  0  0  0  2  0  0  0  0  0  0
  187.1100  177.8530  145.8110 C   0  0  0  0  0  3  0  0  0  0  0  0
  185.7390  178.1810  143.2940 C   0  0  1  0  0  3  0  0  0  0  0  0
  183.8820  179.0460  144.6620 N   0  0  0  0  0  0  0  0  0  0  0  0
  183.3460  178.4830  142.3780 C   0  0  0  0  0  3  0  0  0  0  0  0
  185.1290  178.7050  144.5760 C   0  0  0  0  0  0  0  0  0  0  0  0
  186.4860  176.8700  143.6170 C   0  0  1  0  0  3  0  0  0  0  0  0
  185.9330  178.6750  145.7620 N   0  0  0  0  0  2  0  0  0  0  0  0
  182.9730  178.9530  143.5620 C   0  0  0  0  0  3  0  0  0  0  0  0
  188.6480  176.1400  144.9040 C   0  0  0  0  0  2  0  0  0  0  0  0
  190.9040  176.4620  144.4560 C   0  0  1  0  0  3  0  0  0  0  0  0
  189.8370  176.8650  145.3460 N   0  0  0  0  0  0  0  0  0  0  0  0
  190.2380  177.6370  144.2700 O   0  0  0  0  0  0  0  0  0  0  0  0
  192.2860  176.7820  145.0150 C   0  0  0  0  0  2  0  0  0  0  0  0
  193.5900  173.3530  145.3040 C   0  0  0  0  0  1  0  0  0  0  0  0
  194.7860  176.2240  144.9550 C   0  0  1  0  0  3  0  0  0  0  0  0
  194.8830  175.2850  146.1420 C   0  0  0  0  0  2  0  0  0  0  0  0
  193.4870  174.7650  145.8430 C   0  0  1  0  0  3  0  0  0  0  0  0
  193.3650  175.7390  144.6800 C   0  0  1  0  0  3  0  0  0  0  0  0
  194.8450  177.5640  145.3780 O   0  0  0  0  0  1  0  0  0  0  0  0
  1  2  1  1  0  0  0
  3  1  2  0  0  0  0
  4  5  1  0  0  0  0
  4  1  1  0  0  0  0
  5  6  1  0  0  0  0
  8 24  1  6  0  0  0
  8 14  1  0  0  0  0
  8 21  1  0  0  0  0
  9 26  1  0  0  0  0
  9  7  1  1  0  0  0
 10 15  1  0  0  0  0
 10  6  1  1  0  0  0
 10 19  1  0  0  0  0
 11 27  1  0  0  0  0
 12 28  1  0  0  0  0
 13 27  1  0  0  0  0
 14 29  1  0  0  0  0
 15 17  1  6  0  0  0
 15 25  1  0  0  0  0
 16 26  1  0  0  0  0
 16 14  1  0  0  0  0
 19 23  1  6  0  0  0
 20 18  1  6  0  0  0
 20  9  1  0  0  0  0
 21 22  2  0  0  0  0
 21 28  1  0  0  0  0
 25 24  1  0  0  0  0
 27 19  1  0  0  0  0
 27 20  1  0  0  0  0
 29 12  2  0  0  0  0
 30  1  1  0  0  0  0
 30 32  1  0  0  0  0
 32 31  3  0  0  0  0
 33 43  1  0  0  0  0
 33 35  2  0  0  0  0
 34 38  1  0  0  0  0
 36 34  1  6  0  0  0
 36 40  1  0  0  0  0
 36 39  1  0  0  0  0
 38 42  2  0  0  0  0
 39 37  2  0  0  0  0
 39 41  1  0  0  0  0
 40 31  1  6  0  0  0
 40 33  1  0  0  0  0
 41 35  1  0  0  0  0
 42 37  1  0  0  0  0
 43 45  1  0  0  0  0
 44 47  1  1  0  0  0
 44 45  1  0  0  0  0
 46 44  1  0  0  0  0
 46 45  1  0  0  0  0
 49 53  1  1  0  0  0
 49 50  1  0  0  0  0
 51 48  1  6  0  0  0
 51 50  1  0  0  0  0
 52 49  1  0  0  0  0
 52 47  1  1  0  0  0
 52 51  1  0  0  0  0
M  END
>  <MODEL>
5

>  <REMARK>
 VINA RESULT:      -6.7      3.198      6.929
  Name = 
  11 active torsions:
  status: ('A' for Active; 'I' for Inactive)
    1  A    between atoms: C_1  and  C_14
    2  A    between atoms: C_1  and  N_16
    3  A    between atoms: C_6  and  C_10
    4  A    between atoms: C_6  and  C_24
    5  A    between atoms: C_9  and  C_32
    6  A    between atoms: P_12  and  O_35
    7  A    between atoms: P_12  and  O_53
    8  A    between atoms: C_24  and  O_35
    9  A    between atoms: C_31  and  C_44
   10  A    between atoms: C_32  and  C_39
   11  A    between atoms: C_43  and  O_53
                            x       y       z     vdW  Elec       q    Type
                         _______ _______ _______ _____ _____    ______ ____

>  <TORSDO>
F 11

$$$$
=
 OpenBabel11062420203D

 53 58  0  0  1  0  0  0  0  0999 V2000
  191.3480  175.9330  146.9860 P   0  0  2  0  0  0  0  0  0  0  0  0
  191.5580  177.1520  148.3200 C   0  0  0  0  0  1  0  0  0  0  0  0
  190.1000  175.1060  147.2340 O   0  0  0  0  0  0  0  0  0  0  0  0
  192.7090  174.9020  146.8960 O   0  0  0  0  0  0  0  0  0  0  0  0
  193.6500  175.5520  146.0900 C   0  0  0  0  0  2  0  0  0  0  0  0
  193.9600  174.7210  144.8470 C   0  0  0  0  0  2  0  0  0  0  0  0
  193.1790  168.5330  142.4040 C   0  0  0  0  0  1  0  0  0  0  0  0
  196.1910  172.9040  140.8530 C   0  0  2  0  0  3  0  0  0  0  0  0
  194.2690  169.3760  143.0270 C   0  0  2  0  0  3  0  0  0  0  0  0
  194.8580  173.4920  145.0580 C   0  0  2  0  0  3  0  0  0  0  0  0
  194.5670  170.8410  146.5020 O   0  0  0  0  0  1  0  0  0  0  0  0
  197.6550  171.6620  138.6760 C   0  0  0  0  0  3  0  0  0  0  0  0
  196.0250  170.7870  144.7640 O   0  0  0  0  0  1  0  0  0  0  0  0
  196.3830  171.4540  140.6780 N   0  0  0  0  0  0  0  0  0  0  0  0
  196.1560  173.5630  144.2330 C   0  0  2  0  0  3  0  0  0  0  0  0
  196.0570  170.5450  141.7690 C   0  0  0  0  0  2  0  0  0  0  0  0
  197.2390  174.3870  144.9130 C   0  0  0  0  0  1  0  0  0  0  0  0
  193.8710  168.6250  145.2730 O   0  0  0  0  0  1  0  0  0  0  0  0
  194.0840  172.2390  144.6200 C   0  0  2  0  0  3  0  0  0  0  0  0
  193.8610  169.7680  144.4640 C   0  0  1  0  0  3  0  0  0  0  0  0
  196.5740  173.6800  139.6190 C   0  0  0  0  0  0  0  0  0  0  0  0
  196.3160  175.2900  139.5430 S   0  0  0  0  0  0  0  0  0  0  0  0
  192.7280  172.3070  145.0120 O   0  0  0  0  0  1  0  0  0  0  0  0
  196.9070  173.3600  141.9660 O   0  0  0  0  0  0  0  0  0  0  0  0
  195.9360  173.9550  142.7740 C   0  0  0  0  0  2  0  0  0  0  0  0
  194.5640  170.5580  142.1050 C   0  0  0  0  0  2  0  0  0  0  0  0
  194.6790  170.9060  145.1110 C   0  0  0  0  0  0  0  0  0  0  0  0
  197.3430  173.0520  138.5940 N   0  0  0  0  0  2  0  0  0  0  0  0
  197.1990  170.9360  139.6490 N   0  0  0  0  0  0  0  0  0  0  0  0
  191.1670  176.7550  145.4890 O   0  0  0  0  0  0  0  0  0  0  0  0
  190.0100  175.5320  143.5460 C   0  0  0  0  0  0  0  0  0  0  0  0
  190.5770  176.1030  144.4430 C   0  0  0  0  0  0  0  0  0  0  0  0
  188.5530  175.8170  141.5520 C   0  0  0  0  0  0  0  0  0  0  0  0
  190.9340  172.8670  142.5910 C   0  0  0  0  0  2  0  0  0  0  0  0
  188.1920  175.4340  140.3110 C   0  0  0  0  0  3  0  0  0  0  0  0
  190.2070  173.8850  141.6770 C   0  0  1  0  0  3  0  0  0  0  0  0
  189.3630  171.9990  140.3370 N   0  0  0  0  0  0  0  0  0  0  0  0
  190.7850  171.4260  142.1990 C   0  0  0  0  0  3  0  0  0  0  0  0
  189.4040  173.2770  140.5480 C   0  0  0  0  0  0  0  0  0  0  0  0
  189.2850  174.8430  142.4620 C   0  0  1  0  0  3  0  0  0  0  0  0
  188.5500  174.1420  139.7910 N   0  0  0  0  0  2  0  0  0  0  0  0
  190.0630  171.0540  141.1500 C   0  0  0  0  0  3  0  0  0  0  0  0
  188.1270  177.1620  142.0800 C   0  0  0  0  0  2  0  0  0  0  0  0
  186.5610  178.4880  143.1680 C   0  0  1  0  0  3  0  0  0  0  0  0
  186.8140  177.1360  142.7190 N   0  0  0  0  0  0  0  0  0  0  0  0
  186.0230  178.0190  142.0060 O   0  0  0  0  0  0  0  0  0  0  0  0
  185.4510  178.5620  144.2100 C   0  0  0  0  0  2  0  0  0  0  0  0
  187.6860  177.4390  146.9100 C   0  0  0  0  0  1  0  0  0  0  0  0
  184.8220  178.6810  146.6910 C   0  0  1  0  0  3  0  0  0  0  0  0
  185.2310  177.2910  147.1410 C   0  0  0  0  0  2  0  0  0  0  0  0
  186.3820  177.3090  146.1510 C   0  0  1  0  0  3  0  0  0  0  0  0
  185.9480  178.6840  145.6600 C   0  0  1  0  0  3  0  0  0  0  0  0
  183.5400  178.6560  146.1140 O   0  0  0  0  0  1  0  0  0  0  0  0
  1  3  2  0  0  0  0
  1  2  1  1  0  0  0
  4  1  1  0  0  0  0
  5  4  1  0  0  0  0
  6  5  1  0  0  0  0
  8 21  1  6  0  0  0
  8 24  1  0  0  0  0
  9  7  1  6  0  0  0
  9 20  1  0  0  0  0
 10  6  1  6  0  0  0
 12 29  2  0  0  0  0
 13 27  1  0  0  0  0
 14  8  1  0  0  0  0
 14 16  1  0  0  0  0
 15 17  1  1  0  0  0
 15 10  1  0  0  0  0
 16 26  1  0  0  0  0
 19 23  1  1  0  0  0
 19 10  1  0  0  0  0
 19 27  1  0  0  0  0
 20 27  1  0  0  0  0
 20 18  1  1  0  0  0
 22 21  2  0  0  0  0
 24 25  1  0  0  0  0
 25 15  1  0  0  0  0
 26  9  1  0  0  0  0
 27 11  1  0  0  0  0
 28 12  1  0  0  0  0
 28 21  1  0  0  0  0
 29 14  1  0  0  0  0
 30  1  1  0  0  0  0
 31 32  3  0  0  0  0
 32 30  1  0  0  0  0
 33 43  1  0  0  0  0
 33 40  1  0  0  0  0
 35 33  2  0  0  0  0
 36 40  1  0  0  0  0
 36 34  1  1  0  0  0
 37 39  2  0  0  0  0
 37 42  1  0  0  0  0
 38 34  1  0  0  0  0
 39 36  1  0  0  0  0
 40 31  1  1  0  0  0
 41 35  1  0  0  0  0
 41 39  1  0  0  0  0
 42 38  2  0  0  0  0
 43 45  1  0  0  0  0
 44 47  1  1  0  0  0
 45 44  1  0  0  0  0
 46 45  1  0  0  0  0
 46 44  1  0  0  0  0
 49 53  1  6  0  0  0
 49 50  1  0  0  0  0
 51 48  1  1  0  0  0
 51 50  1  0  0  0  0
 52 47  1  6  0  0  0
 52 51  1  0  0  0  0
 52 49  1  0  0  0  0
M  END
>  <MODEL>
6

>  <REMARK>
 VINA RESULT:      -6.6      1.665      2.020
  Name = 
  11 active torsions:
  status: ('A' for Active; 'I' for Inactive)
    1  A    between atoms: C_1  and  C_14
    2  A    between atoms: C_1  and  N_16
    3  A    between atoms: C_6  and  C_10
    4  A    between atoms: C_6  and  C_24
    5  A    between atoms: C_9  and  C_32
    6  A    between atoms: P_12  and  O_35
    7  A    between atoms: P_12  and  O_53
    8  A    between atoms: C_24  and  O_35
    9  A    between atoms: C_31  and  C_44
   10  A    between atoms: C_32  and  C_39
   11  A    between atoms: C_43  and  O_53
                            x       y       z     vdW  Elec       q    Type
                         _______ _______ _______ _____ _____    ______ ____

>  <TORSDO>
F 11

$$$$
=
 OpenBabel11062420203D

 53 58  0  0  1  0  0  0  0  0999 V2000
  191.9420  175.9140  144.2810 P   0  0  2  0  0  0  0  0  0  0  0  0
  192.6900  175.0690  142.8530 C   0  0  0  0  0  1  0  0  0  0  0  0
  191.8500  177.4040  144.0080 O   0  0  0  0  0  0  0  0  0  0  0  0
  192.8730  175.6470  145.6890 O   0  0  0  0  0  0  0  0  0  0  0  0
  193.8580  174.7140  145.3460 C   0  0  0  0  0  2  0  0  0  0  0  0
  193.6500  173.4060  146.1060 C   0  0  0  0  0  2  0  0  0  0  0  0
  192.6080  170.3260  140.2500 C   0  0  0  0  0  1  0  0  0  0  0  0
  196.2870  174.0640  142.0010 C   0  0  2  0  0  3  0  0  0  0  0  0
  193.6670  170.3830  141.3270 C   0  0  2  0  0  3  0  0  0  0  0  0
  194.3640  172.1680  145.5380 C   0  0  2  0  0  3  0  0  0  0  0  0
  193.5570  169.3040  144.9510 O   0  0  0  0  0  1  0  0  0  0  0  0
  197.9400  174.1840  139.6180 C   0  0  0  0  0  3  0  0  0  0  0  0
  195.2620  170.0640  143.6600 O   0  0  0  0  0  1  0  0  0  0  0  0
  196.3460  173.0270  140.9560 N   0  0  0  0  0  0  0  0  0  0  0  0
  195.7770  172.4900  145.0220 C   0  0  2  0  0  3  0  0  0  0  0  0
  195.7510  171.7190  141.2010 C   0  0  0  0  0  2  0  0  0  0  0  0
  196.8190  172.4990  146.1300 C   0  0  0  0  0  1  0  0  0  0  0  0
  192.8320  168.4970  142.5580 O   0  0  0  0  0  1  0  0  0  0  0  0
  193.5390  171.6250  144.3610 C   0  0  2  0  0  3  0  0  0  0  0  0
  193.0770  169.8730  142.6590 C   0  0  1  0  0  3  0  0  0  0  0  0
  196.9470  175.3470  141.5650 C   0  0  0  0  0  0  0  0  0  0  0  0
  196.8800  176.6730  142.5140 S   0  0  0  0  0  0  0  0  0  0  0  0
  192.1530  171.6880  144.6300 O   0  0  0  0  0  1  0  0  0  0  0  0
  196.8590  173.5930  143.1890 O   0  0  0  0  0  0  0  0  0  0  0  0
  195.8400  173.7310  144.1340 C   0  0  0  0  0  2  0  0  0  0  0  0
  194.2340  171.8010  141.3840 C   0  0  0  0  0  2  0  0  0  0  0  0
  193.8980  170.1920  143.9270 C   0  0  0  0  0  0  0  0  0  0  0  0
  197.7980  175.3560  140.4200 N   0  0  0  0  0  2  0  0  0  0  0  0
  197.2570  173.1130  139.8800 N   0  0  0  0  0  0  0  0  0  0  0  0
  190.3560  175.3070  144.5320 O   0  0  0  0  0  0  0  0  0  0  0  0
  188.3370  176.8940  144.4090 C   0  0  0  0  0  0  0  0  0  0  0  0
  189.2970  176.1680  144.4490 C   0  0  0  0  0  0  0  0  0  0  0  0
  186.5740  177.9180  142.9860 C   0  0  0  0  0  0  0  0  0  0  0  0
  186.6470  177.1780  146.8460 C   0  0  0  0  0  2  0  0  0  0  0  0
  185.2970  178.3150  142.8230 C   0  0  0  0  0  3  0  0  0  0  0  0
  186.0840  177.3060  145.4080 C   0  0  1  0  0  3  0  0  0  0  0  0
  184.3290  178.7940  146.2870 N   0  0  0  0  0  0  0  0  0  0  0  0
  185.8880  177.9200  147.9070 C   0  0  0  0  0  3  0  0  0  0  0  0
  184.8760  178.2070  145.2700 C   0  0  0  0  0  0  0  0  0  0  0  0
  187.1470  177.7650  144.3870 C   0  0  1  0  0  3  0  0  0  0  0  0
  184.4280  178.5280  143.9480 N   0  0  0  0  0  2  0  0  0  0  0  0
  184.8170  178.6500  147.6230 C   0  0  0  0  0  3  0  0  0  0  0  0
  187.4690  177.7420  141.7870 C   0  0  0  0  0  2  0  0  0  0  0  0
  188.1910  175.7220  140.8960 C   0  0  1  0  0  3  0  0  0  0  0  0
  187.0650  176.6300  140.9300 N   0  0  0  0  0  0  0  0  0  0  0  0
  187.1280  175.4950  141.7190 O   0  0  0  0  0  0  0  0  0  0  0  0
  188.1140  174.7350  139.7380 C   0  0  0  0  0  2  0  0  0  0  0  0
  190.1060  172.5650  141.9430 C   0  0  0  0  0  1  0  0  0  0  0  0
  189.8310  173.0450  138.8640 C   0  0  1  0  0  3  0  0  0  0  0  0
  191.0010  173.3500  139.7780 C   0  0  0  0  0  2  0  0  0  0  0  0
  190.0360  173.6670  140.9070 C   0  0  1  0  0  3  0  0  0  0  0  0
  188.8560  173.4100  139.9800 C   0  0  1  0  0  3  0  0  0  0  0  0
  189.8010  173.9440  137.7830 O   0  0  0  0  0  1  0  0  0  0  0  0
  1  2  1  6  0  0  0
  1 30  1  0  0  0  0
  1  4  1  0  0  0  0
  3  1  2  0  0  0  0
  5  4  1  0  0  0  0
  5  6  1  0  0  0  0
  8 21  1  6  0  0  0
  8 24  1  0  0  0  0
  9  7  1  6  0  0  0
  9 26  1  0  0  0  0
  9 20  1  0  0  0  0
 10  6  1  6  0  0  0
 12 29  2  0  0  0  0
 12 28  1  0  0  0  0
 13 27  1  0  0  0  0
 14 16  1  0  0  0  0
 14  8  1  0  0  0  0
 15 10  1  0  0  0  0
 15 17  1  1  0  0  0
 16 26  1  0  0  0  0
 19 23  1  1  0  0  0
 19 10  1  0  0  0  0
 20 18  1  6  0  0  0
 20 27  1  0  0  0  0
 21 22  2  0  0  0  0
 24 25  1  0  0  0  0
 25 15  1  0  0  0  0
 27 19  1  0  0  0  0
 27 11  1  0  0  0  0
 28 21  1  0  0  0  0
 29 14  1  0  0  0  0
 31 32  3  0  0  0  0
 32 30  1  0  0  0  0
 33 40  1  0  0  0  0
 34 38  1  0  0  0  0
 35 33  2  0  0  0  0
 35 41  1  0  0  0  0
 36 34  1  1  0  0  0
 37 42  1  0  0  0  0
 39 36  1  0  0  0  0
 39 37  2  0  0  0  0
 40 31  1  6  0  0  0
 40 36  1  0  0  0  0
 41 39  1  0  0  0  0
 42 38  2  0  0  0  0
 43 33  1  0  0  0  0
 44 47  1  6  0  0  0
 44 45  1  0  0  0  0
 44 46  1  0  0  0  0
 45 46  1  0  0  0  0
 45 43  1  0  0  0  0
 49 53  1  6  0  0  0
 49 50  1  0  0  0  0
 49 52  1  0  0  0  0
 50 51  1  0  0  0  0
 51 48  1  1  0  0  0
 52 47  1  6  0  0  0
 52 51  1  0  0  0  0
M  END
>  <MODEL>
7

>  <REMARK>
 VINA RESULT:      -6.6      2.434      5.771
  Name = 
  11 active torsions:
  status: ('A' for Active; 'I' for Inactive)
    1  A    between atoms: C_1  and  C_14
    2  A    between atoms: C_1  and  N_16
    3  A    between atoms: C_6  and  C_10
    4  A    between atoms: C_6  and  C_24
    5  A    between atoms: C_9  and  C_32
    6  A    between atoms: P_12  and  O_35
    7  A    between atoms: P_12  and  O_53
    8  A    between atoms: C_24  and  O_35
    9  A    between atoms: C_31  and  C_44
   10  A    between atoms: C_32  and  C_39
   11  A    between atoms: C_43  and  O_53
                            x       y       z     vdW  Elec       q    Type
                         _______ _______ _______ _____ _____    ______ ____

>  <TORSDO>
F 11

$$$$
=
 OpenBabel11062420203D

 53 58  0  0  1  0  0  0  0  0999 V2000
  190.9940  172.1340  137.5220 P   0  0  2  0  0  0  0  0  0  0  0  0
  190.4760  173.6310  136.6270 C   0  0  0  0  0  1  0  0  0  0  0  0
  190.4610  170.9000  136.8170 O   0  0  0  0  0  0  0  0  0  0  0  0
  190.4170  172.1670  139.1310 O   0  0  0  0  0  0  0  0  0  0  0  0
  189.6790  173.3490  139.2650 C   0  0  0  0  0  2  0  0  0  0  0  0
  190.2090  174.1860  140.4270 C   0  0  0  0  0  2  0  0  0  0  0  0
  192.8460  176.3250  146.2010 C   0  0  0  0  0  1  0  0  0  0  0  0
  187.9020  176.9300  143.8000 C   0  0  2  0  0  3  0  0  0  0  0  0
  191.7470  175.3990  145.7320 C   0  0  2  0  0  3  0  0  0  0  0  0
  190.0590  173.5740  141.8300 C   0  0  2  0  0  3  0  0  0  0  0  0
  191.9190  172.1690  143.7700 O   0  0  0  0  0  1  0  0  0  0  0  0
  186.5460  178.3170  145.9610 C   0  0  0  0  0  3  0  0  0  0  0  0
  190.1790  173.2310  144.7680 O   0  0  0  0  0  1  0  0  0  0  0  0
  188.3260  176.9240  145.2110 N   0  0  0  0  0  0  0  0  0  0  0  0
  188.6800  173.8590  142.4510 C   0  0  2  0  0  3  0  0  0  0  0  0
  189.3380  175.9740  145.6580 C   0  0  0  0  0  2  0  0  0  0  0  0
  187.6130  172.8810  141.9840 C   0  0  0  0  0  1  0  0  0  0  0  0
  193.1050  173.4180  145.7550 O   0  0  0  0  0  1  0  0  0  0  0  0
  191.1300  174.1850  142.7470 C   0  0  2  0  0  3  0  0  0  0  0  0
  192.3600  174.2470  144.9060 C   0  0  1  0  0  3  0  0  0  0  0  0
  186.8570  177.9810  143.5270 C   0  0  0  0  0  0  0  0  0  0  0  0
  186.3410  178.2550  142.0020 S   0  0  0  0  0  0  0  0  0  0  0  0
  192.3640  174.3310  142.0740 O   0  0  0  0  0  1  0  0  0  0  0  0
  187.4390  175.6630  143.4240 O   0  0  0  0  0  0  0  0  0  0  0  0
  188.2440  175.3170  142.3370 C   0  0  0  0  0  2  0  0  0  0  0  0
  190.6940  176.2210  144.9920 C   0  0  0  0  0  2  0  0  0  0  0  0
  191.3680  173.4200  144.0620 C   0  0  0  0  0  0  0  0  0  0  0  0
  186.1700  178.6020  144.6140 N   0  0  0  0  0  2  0  0  0  0  0  0
  187.5500  177.5380  146.2190 N   0  0  0  0  0  0  0  0  0  0  0  0
  192.7090  172.0500  137.5420 O   0  0  0  0  0  0  0  0  0  0  0  0
  194.0630  174.1840  137.0680 C   0  0  0  0  0  0  0  0  0  0  0  0
  193.4300  173.1900  137.3180 C   0  0  0  0  0  0  0  0  0  0  0  0
  196.3310  175.1560  136.7690 C   0  0  0  0  0  0  0  0  0  0  0  0
  192.8460  176.2870  135.3450 C   0  0  0  0  0  2  0  0  0  0  0  0
  197.1620  175.9870  136.1100 C   0  0  0  0  0  3  0  0  0  0  0  0
  194.3690  176.0070  135.3870 C   0  0  1  0  0  3  0  0  0  0  0  0
  194.7640  178.3580  134.7690 N   0  0  0  0  0  0  0  0  0  0  0  0
  192.4560  177.6830  134.9580 C   0  0  0  0  0  3  0  0  0  0  0  0
  195.2510  177.1990  135.0830 C   0  0  0  0  0  0  0  0  0  0  0  0
  194.8300  175.3970  136.7280 C   0  0  1  0  0  3  0  0  0  0  0  0
  196.6600  177.0630  135.2990 N   0  0  0  0  0  2  0  0  0  0  0  0
  193.3600  178.6160  134.6890 C   0  0  0  0  0  3  0  0  0  0  0  0
  196.8920  174.0640  137.6410 C   0  0  0  0  0  2  0  0  0  0  0  0
  196.9530  174.4720  139.9270 C   0  0  1  0  0  3  0  0  0  0  0  0
  197.7400  174.5700  138.7180 N   0  0  0  0  0  0  0  0  0  0  0  0
  197.8850  173.5280  139.6150 O   0  0  0  0  0  0  0  0  0  0  0  0
  197.5050  175.3300  141.0590 C   0  0  0  0  0  2  0  0  0  0  0  0
  195.6290  173.0720  143.2780 C   0  0  0  0  0  1  0  0  0  0  0  0
  197.0110  175.8700  143.5150 C   0  0  1  0  0  3  0  0  0  0  0  0
  195.5360  175.5230  143.5770 C   0  0  0  0  0  2  0  0  0  0  0  0
  195.7570  174.4050  142.5720 C   0  0  1  0  0  3  0  0  0  0  0  0
  197.2290  174.7800  142.4680 C   0  0  1  0  0  3  0  0  0  0  0  0
  197.1920  177.1700  143.0100 O   0  0  0  0  0  1  0  0  0  0  0  0
  1  2  1  6  0  0  0
  1 30  1  0  0  0  0
  1  4  1  0  0  0  0
  3  1  2  0  0  0  0
  4  5  1  0  0  0  0
  5  6  1  0  0  0  0
  8 24  1  1  0  0  0
  8 14  1  0  0  0  0
  9  7  1  6  0  0  0
 10  6  1  6  0  0  0
 10 15  1  0  0  0  0
 10 19  1  0  0  0  0
 11 27  1  0  0  0  0
 12 29  2  0  0  0  0
 14 16  1  0  0  0  0
 14 29  1  0  0  0  0
 15 17  1  6  0  0  0
 19 23  1  6  0  0  0
 19 27  1  0  0  0  0
 20  9  1  0  0  0  0
 20 18  1  1  0  0  0
 21  8  1  0  0  0  0
 21 28  1  0  0  0  0
 22 21  2  0  0  0  0
 25 15  1  0  0  0  0
 25 24  1  0  0  0  0
 26 16  1  0  0  0  0
 26  9  1  0  0  0  0
 27 13  1  0  0  0  0
 27 20  1  0  0  0  0
 28 12  1  0  0  0  0
 31 32  3  0  0  0  0
 32 30  1  0  0  0  0
 33 43  1  0  0  0  0
 35 33  2  0  0  0  0
 36 34  1  1  0  0  0
 36 40  1  0  0  0  0
 37 39  2  0  0  0  0
 38 34  1  0  0  0  0
 39 41  1  0  0  0  0
 39 36  1  0  0  0  0
 40 33  1  0  0  0  0
 40 31  1  6  0  0  0
 41 35  1  0  0  0  0
 42 37  1  0  0  0  0
 42 38  2  0  0  0  0
 43 45  1  0  0  0  0
 44 47  1  1  0  0  0
 45 46  1  0  0  0  0
 45 44  1  0  0  0  0
 46 44  1  0  0  0  0
 49 53  1  6  0  0  0
 49 50  1  0  0  0  0
 51 48  1  1  0  0  0
 51 50  1  0  0  0  0
 52 47  1  6  0  0  0
 52 51  1  0  0  0  0
 52 49  1  0  0  0  0
M  END
>  <MODEL>
8

>  <REMARK>
 VINA RESULT:      -6.3      3.710      9.370
  Name = 
  11 active torsions:
  status: ('A' for Active; 'I' for Inactive)
    1  A    between atoms: C_1  and  C_14
    2  A    between atoms: C_1  and  N_16
    3  A    between atoms: C_6  and  C_10
    4  A    between atoms: C_6  and  C_24
    5  A    between atoms: C_9  and  C_32
    6  A    between atoms: P_12  and  O_35
    7  A    between atoms: P_12  and  O_53
    8  A    between atoms: C_24  and  O_35
    9  A    between atoms: C_31  and  C_44
   10  A    between atoms: C_32  and  C_39
   11  A    between atoms: C_43  and  O_53
                            x       y       z     vdW  Elec       q    Type
                         _______ _______ _______ _____ _____    ______ ____

>  <TORSDO>
F 11

$$$$
=
 OpenBabel11062420203D

 53 58  0  0  1  0  0  0  0  0999 V2000
  188.7500  173.0770  141.8290 P   0  0  2  0  0  0  0  0  0  0  0  0
  189.6390  172.2070  143.1570 C   0  0  0  0  0  1  0  0  0  0  0  0
  187.2540  172.9000  142.0070 O   0  0  0  0  0  0  0  0  0  0  0  0
  189.2190  172.4740  140.2990 O   0  0  0  0  0  0  0  0  0  0  0  0
  190.4660  171.8630  140.4770 C   0  0  0  0  0  2  0  0  0  0  0  0
  190.6000  170.6390  139.5740 C   0  0  0  0  0  2  0  0  0  0  0  0
  195.1610  175.1950  137.7540 C   0  0  0  0  0  1  0  0  0  0  0  0
  194.5020  172.0250  142.2360 C   0  0  2  0  0  3  0  0  0  0  0  0
  195.0910  173.7110  138.0320 C   0  0  2  0  0  3  0  0  0  0  0  0
  191.9830  170.4070  138.9440 C   0  0  2  0  0  3  0  0  0  0  0  0
  193.2280  170.9530  136.2330 O   0  0  0  0  0  1  0  0  0  0  0  0
  196.9670  172.7100  143.6090 C   0  0  0  0  0  3  0  0  0  0  0  0
  194.7250  170.8920  137.9380 O   0  0  0  0  0  1  0  0  0  0  0  0
  195.6960  172.6050  141.5970 N   0  0  0  0  0  0  0  0  0  0  0  0
  193.0170  169.9030  139.9660 C   0  0  2  0  0  3  0  0  0  0  0  0
  195.8010  172.6250  140.1440 C   0  0  0  0  0  2  0  0  0  0  0  0
  192.9400  168.4000  140.1880 C   0  0  0  0  0  1  0  0  0  0  0  0
  194.6970  173.0780  135.7490 O   0  0  0  0  0  1  0  0  0  0  0  0
  192.4910  171.7390  138.3710 C   0  0  2  0  0  3  0  0  0  0  0  0
  194.1270  173.0420  137.0280 C   0  0  1  0  0  3  0  0  0  0  0  0
  194.5700  172.0990  143.7400 C   0  0  0  0  0  0  0  0  0  0  0  0
  193.2950  171.6370  144.6480 S   0  0  0  0  0  0  0  0  0  0  0  0
  191.4480  172.4640  137.7500 O   0  0  0  0  0  1  0  0  0  0  0  0
  194.3170  170.7020  141.8140 O   0  0  0  0  0  0  0  0  0  0  0  0
  193.0310  170.6970  141.2700 C   0  0  0  0  0  2  0  0  0  0  0  0
  194.7240  173.5030  139.5000 C   0  0  0  0  0  2  0  0  0  0  0  0
  193.6660  171.6130  137.3850 C   0  0  0  0  0  0  0  0  0  0  0  0
  195.8130  172.3840  144.3820 N   0  0  0  0  0  2  0  0  0  0  0  0
  196.8930  172.8100  142.3180 N   0  0  0  0  0  0  0  0  0  0  0  0
  189.1130  174.7530  141.9070 O   0  0  0  0  0  0  0  0  0  0  0  0
  191.0050  175.5860  143.4360 C   0  0  0  0  0  0  0  0  0  0  0  0
  190.1340  175.1720  142.7140 C   0  0  0  0  0  0  0  0  0  0  0  0
  191.6390  176.0560  145.7940 C   0  0  0  0  0  0  0  0  0  0  0  0
  193.8610  175.5340  142.5940 C   0  0  0  0  0  2  0  0  0  0  0  0
  192.5790  176.1020  146.7570 C   0  0  0  0  0  3  0  0  0  0  0  0
  193.4160  175.4480  144.0750 C   0  0  1  0  0  3  0  0  0  0  0  0
  195.5610  176.4700  144.7230 N   0  0  0  0  0  0  0  0  0  0  0  0
  195.2310  176.1010  142.3620 C   0  0  0  0  0  3  0  0  0  0  0  0
  194.4070  175.9990  145.0770 C   0  0  0  0  0  0  0  0  0  0  0  0
  192.0500  176.1190  144.3300 C   0  0  1  0  0  3  0  0  0  0  0  0
  193.9800  176.1340  146.4380 N   0  0  0  0  0  2  0  0  0  0  0  0
  195.9980  176.5170  143.3630 C   0  0  0  0  0  3  0  0  0  0  0  0
  190.1780  176.0630  146.1630 C   0  0  0  0  0  2  0  0  0  0  0  0
  188.0860  176.8460  145.5280 C   0  0  1  0  0  3  0  0  0  0  0  0
  189.4700  177.2420  145.6710 N   0  0  0  0  0  0  0  0  0  0  0  0
  188.5100  177.5380  146.6230 O   0  0  0  0  0  0  0  0  0  0  0  0
  187.2920  177.7980  144.6410 C   0  0  0  0  0  2  0  0  0  0  0  0
  184.7530  178.2960  147.2580 C   0  0  0  0  0  1  0  0  0  0  0  0
  185.4540  179.5780  144.4920 C   0  0  1  0  0  3  0  0  0  0  0  0
  184.2450  178.7520  144.8840 C   0  0  0  0  0  2  0  0  0  0  0  0
  185.1080  177.9370  145.8310 C   0  0  1  0  0  3  0  0  0  0  0  0
  186.3370  178.7300  145.4050 C   0  0  1  0  0  3  0  0  0  0  0  0
  185.7450  179.4110  143.1260 O   0  0  0  0  0  1  0  0  0  0  0  0
  1 30  1  0  0  0  0
  1  3  2  0  0  0  0
  1  2  1  1  0  0  0
  4  5  1  0  0  0  0
  4  1  1  0  0  0  0
  6  5  1  0  0  0  0
  8 24  1  1  0  0  0
  8 21  1  0  0  0  0
  9  7  1  6  0  0  0
  9 26  1  0  0  0  0
 10  6  1  1  0  0  0
 10 15  1  0  0  0  0
 11 27  1  0  0  0  0
 12 28  1  0  0  0  0
 14  8  1  0  0  0  0
 14 29  1  0  0  0  0
 15 17  1  1  0  0  0
 15 25  1  0  0  0  0
 16 14  1  0  0  0  0
 19 23  1  6  0  0  0
 19 10  1  0  0  0  0
 20 18  1  6  0  0  0
 20 27  1  0  0  0  0
 20  9  1  0  0  0  0
 21 28  1  0  0  0  0
 21 22  2  0  0  0  0
 25 24  1  0  0  0  0
 26 16  1  0  0  0  0
 27 13  1  0  0  0  0
 27 19  1  0  0  0  0
 29 12  2  0  0  0  0
 30 32  1  0  0  0  0
 32 31  3  0  0  0  0
 33 43  1  0  0  0  0
 33 35  2  0  0  0  0
 36 34  1  6  0  0  0
 36 40  1  0  0  0  0
 36 39  1  0  0  0  0
 37 39  2  0  0  0  0
 38 34  1  0  0  0  0
 38 42  2  0  0  0  0
 39 41  1  0  0  0  0
 40 31  1  6  0  0  0
 40 33  1  0  0  0  0
 41 35  1  0  0  0  0
 42 37  1  0  0  0  0
 44 47  1  6  0  0  0
 44 45  1  0  0  0  0
 44 46  1  0  0  0  0
 45 43  1  0  0  0  0
 45 46  1  0  0  0  0
 49 53  1  6  0  0  0
 49 50  1  0  0  0  0
 49 52  1  0  0  0  0
 50 51  1  0  0  0  0
 51 48  1  1  0  0  0
 52 47  1  6  0  0  0
 52 51  1  0  0  0  0
M  END
>  <MODEL>
9

>  <REMARK>
 VINA RESULT:      -6.3      3.142      5.961
  Name = 
  11 active torsions:
  status: ('A' for Active; 'I' for Inactive)
    1  A    between atoms: C_1  and  C_14
    2  A    between atoms: C_1  and  N_16
    3  A    between atoms: C_6  and  C_10
    4  A    between atoms: C_6  and  C_24
    5  A    between atoms: C_9  and  C_32
    6  A    between atoms: P_12  and  O_35
    7  A    between atoms: P_12  and  O_53
    8  A    between atoms: C_24  and  O_35
    9  A    between atoms: C_31  and  C_44
   10  A    between atoms: C_32  and  C_39
   11  A    between atoms: C_43  and  O_53
                            x       y       z     vdW  Elec       q    Type
                         _______ _______ _______ _____ _____    ______ ____

>  <TORSDO>
F 11

$$$$
