=
 OpenBabel11062419113D

 54 60  0  0  1  0  0  0  0  0999 V2000
  189.2770  174.1550  142.5000 C   0  0  2  0  0  3  0  0  0  0  0  0
  194.6760  176.3850  145.6450 C   0  0  0  0  0  0  0  0  0  0  0  0
  192.0270  174.0550  142.9750 C   0  0  2  0  0  3  0  0  0  0  0  0
  191.6070  174.8480  144.2490 C   0  0  1  0  0  3  0  0  0  0  0  0
  194.9260  177.7490  145.6480 F   0  0  0  0  0  0  0  0  0  0  0  0
  187.8420  174.0550  142.1550 C   0  0  0  0  0  0  0  0  0  0  0  0
  195.0970  175.7180  144.3270 C   0  0  1  0  0  3  0  0  0  0  0  0
  193.2060  176.1480  145.6880 C   0  0  2  0  0  3  0  0  0  0  0  0
  187.3360  173.1290  141.4690 O   0  0  0  0  0  0  0  0  0  0  0  0
  193.8220  175.6510  143.4950 C   0  0  1  0  0  3  0  0  0  0  0  0
  192.4490  175.9650  146.9670 C   0  0  0  0  0  1  0  0  0  0  0  0
  187.0680  175.0710  142.7630 N   0  0  0  0  0  0  0  0  0  0  0  0
  189.3360  175.5300  143.1660 C   0  0  1  0  0  3  0  0  0  0  0  0
  193.5570  174.2550  142.9440 C   0  0  2  0  0  3  0  0  0  0  0  0
  196.1810  176.4880  143.5890 C   0  0  0  0  0  1  0  0  0  0  0  0
  190.1630  176.6210  145.1300 O   0  0  0  0  0  1  0  0  0  0  0  0
  191.3920  174.6040  141.6750 C   0  0  0  0  0  2  0  0  0  0  0  0
  187.8860  175.8620  143.3740 C   0  0  0  0  0  0  0  0  0  0  0  0
  192.7450  175.7910  144.4910 C   0  0  1  0  0  3  0  0  0  0  0  0
  195.3160  175.7800  146.7110 F   0  0  0  0  0  0  0  0  0  0  0  0
  190.1590  175.4050  144.4430 C   0  0  2  0  0  3  0  0  0  0  0  0
  187.4510  177.0400  144.0620 N   0  0  0  0  0  2  0  0  0  0  0  0
  190.1170  174.0630  141.3710 O   0  0  0  0  0  0  0  0  0  0  0  0
  185.9590  178.8910  144.6770 C   0  0  0  0  0  2  0  0  0  0  0  0
  186.0570  177.4390  144.2500 C   0  0  1  0  0  0  0  0  0  0  0  0
  183.2000  178.3850  142.5060 F   0  0  0  0  0  0  0  0  0  0  0  0
  185.2710  177.3080  142.9560 C   0  0  0  0  0  2  0  0  0  0  0  0
  184.6980  179.4160  144.0290 C   0  0  0  0  0  2  0  0  0  0  0  0
  184.5410  178.6230  142.7490 C   0  0  2  0  0  3  0  0  0  0  0  0
  185.4730  176.6320  145.2250 O   0  0  0  0  0  1  0  0  0  0  0  0
  194.2680  173.9440  141.6510 C   0  0  0  0  0  0  0  0  0  0  0  0
  194.5360  174.8960  140.7550 C   0  0  0  0  0  2  0  0  0  0  0  0
  194.8880  172.5940  141.4920 C   0  0  0  0  0  2  0  0  0  0  0  0
  195.6500  170.8050  143.0620 C   0  0  0  0  0  1  0  0  0  0  0  0
  194.4710  171.6550  142.6220 C   0  0  2  0  0  3  0  0  0  0  0  0
  193.3010  170.7540  142.2180 C   0  0  2  0  0  3  0  0  0  0  0  0
  193.4370  169.4650  142.7450 O   0  0  0  0  0  1  0  0  0  0  0  0
  191.6730  171.0050  140.3710 C   0  0  0  0  0  3  0  0  0  0  0  0
  193.4780  169.4250  140.1510 N   0  0  0  0  0  0  0  0  0  0  0  0
  193.1110  170.1420  137.8420 C   0  0  0  0  0  2  0  0  0  0  0  0
  193.5080  169.1680  138.8800 C   0  0  0  0  0  3  0  0  0  0  0  0
  192.1510  171.0730  137.9340 C   0  0  0  0  0  0  0  0  0  0  0  0
  189.2740  171.9140  137.6760 C   0  0  0  0  0  2  0  0  0  0  0  0
  192.0730  171.9970  136.8380 N   0  0  0  0  0  0  0  0  0  0  0  0
  189.9270  173.2640  137.4610 C   0  0  1  0  0  3  0  0  0  0  0  0
  191.2380  171.1750  139.1210 C   0  0  0  0  0  0  0  0  0  0  0  0
  191.5030  173.9970  135.8210 O   0  0  0  0  0  0  0  0  0  0  0  0
  191.1900  173.1120  136.6610 C   0  0  0  0  0  0  0  0  0  0  0  0
  189.7490  171.3050  138.9810 C   0  0  0  0  0  2  0  0  0  0  0  0
  193.0980  170.7220  140.7020 C   0  0  2  0  0  3  0  0  0  0  0  0
  187.8170  174.8030  138.7590 O   0  0  0  0  0  0  0  0  0  0  0  0
  187.9620  174.9150  137.5130 C   0  0  0  0  0  0  0  0  0  0  0  0
  188.9870  174.1890  136.8250 N   0  0  0  0  0  2  0  0  0  0  0  0
  187.0640  175.8160  136.7460 C   0  0  0  0  0  1  0  0  0  0  0  0
  1 23  1  6  0  0  0
  1 13  1  0  0  0  0
  2  5  1  0  0  0  0
  2  8  1  0  0  0  0
  2 20  1  0  0  0  0
  3 17  1  6  0  0  0
  3  4  1  0  0  0  0
  4 21  1  0  0  0  0
  4 19  1  0  0  0  0
  6  1  1  0  0  0  0
  6 12  1  0  0  0  0
  7  2  1  0  0  0  0
  8 11  1  0  0  0  0
  9  6  2  0  0  0  0
 10  7  1  0  0  0  0
 10 19  1  0  0  0  0
 12 18  2  0  0  0  0
 13 18  1  0  0  0  0
 13 21  1  0  0  0  0
 14  3  1  0  0  0  0
 14 10  1  0  0  0  0
 15  7  1  0  0  0  0
 18 22  1  0  0  0  0
 19  8  1  0  0  0  0
 21 16  1  0  0  0  0
 22 25  1  0  0  0  0
 23 17  1  0  0  0  0
 25 24  1  0  0  0  0
 25 30  1  0  0  0  0
 26 29  1  0  0  0  0
 27 25  1  0  0  0  0
 28 24  1  0  0  0  0
 29 27  1  0  0  0  0
 29 28  1  0  0  0  0
 31 14  1  0  0  0  0
 32 31  2  0  0  0  0
 33 31  1  0  0  0  0
 33 35  1  0  0  0  0
 35 34  1  0  0  0  0
 36 35  1  0  0  0  0
 36 37  1  0  0  0  0
 38 50  1  0  0  0  0
 39 50  1  0  0  0  0
 40 42  1  0  0  0  0
 40 41  1  0  0  0  0
 41 39  2  0  0  0  0
 42 46  1  0  0  0  0
 43 49  1  0  0  0  0
 44 42  2  0  0  0  0
 45 43  1  0  0  0  0
 46 38  2  0  0  0  0
 47 48  2  0  0  0  0
 48 44  1  0  0  0  0
 48 45  1  0  0  0  0
 49 46  1  0  0  0  0
 50 36  1  0  0  0  0
 52 51  2  0  0  0  0
 53 45  1  0  0  0  0
 53 52  1  0  0  0  0
 54 52  1  0  0  0  0
M  END
>  <MODEL>
1

>  <REMARK>
 VINA RESULT:      -8.7      0.000      0.000
  Name = 
  7 active torsions:
  status: ('A' for Active; 'I' for Inactive)
    1  A    between atoms: C_5  and  C_33
    2  A    between atoms: C_5  and  C_52
    3  A    between atoms: C_6  and  N_53
    4  A    between atoms: C_26  and  N_49
    5  A    between atoms: C_37  and  C_44
    6  A    between atoms: C_37  and  C_48
    7  A    between atoms: C_44  and  C_52
                            x       y       z     vdW  Elec       q    Type
                         _______ _______ _______ _____ _____    ______ ____

>  <TORSDO>
F 7

$$$$
=
 OpenBabel11062419113D

 54 60  0  0  1  0  0  0  0  0999 V2000
  192.4570  175.7660  145.8430 C   0  0  2  0  0  3  0  0  0  0  0  0
  196.3890  174.1340  140.7550 C   0  0  0  0  0  0  0  0  0  0  0  0
  194.9180  174.8910  144.8590 C   0  0  2  0  0  3  0  0  0  0  0  0
  194.3460  175.4830  143.5360 C   0  0  1  0  0  3  0  0  0  0  0  0
  195.9160  173.2320  139.8150 F   0  0  0  0  0  0  0  0  0  0  0  0
  191.2340  176.2470  146.5240 C   0  0  0  0  0  0  0  0  0  0  0  0
  196.8940  173.4390  142.0290 C   0  0  1  0  0  3  0  0  0  0  0  0
  195.2620  174.9720  141.2520 C   0  0  2  0  0  3  0  0  0  0  0  0
  191.1700  176.5510  147.7430 O   0  0  0  0  0  0  0  0  0  0  0  0
  195.7210  173.4980  143.0000 C   0  0  1  0  0  3  0  0  0  0  0  0
  194.8930  176.2860  140.6380 C   0  0  0  0  0  1  0  0  0  0  0  0
  190.1510  176.4220  145.6310 N   0  0  0  0  0  0  0  0  0  0  0  0
  191.9110  175.3930  144.4640 C   0  0  1  0  0  3  0  0  0  0  0  0
  196.1180  174.0560  144.3610 C   0  0  2  0  0  3  0  0  0  0  0  0
  197.3240  172.0000  141.7900 C   0  0  0  0  0  1  0  0  0  0  0  0
  192.3510  175.7090  142.1320 O   0  0  0  0  0  1  0  0  0  0  0  0
  193.9140  173.9850  145.6100 C   0  0  0  0  0  2  0  0  0  0  0  0
  190.5390  176.0020  144.4720 C   0  0  0  0  0  0  0  0  0  0  0  0
  194.8750  174.5800  142.4650 C   0  0  1  0  0  3  0  0  0  0  0  0
  197.3930  174.9130  140.2070 F   0  0  0  0  0  0  0  0  0  0  0  0
  192.8590  175.9520  143.4100 C   0  0  2  0  0  3  0  0  0  0  0  0
  189.6740  175.9820  143.3300 N   0  0  0  0  0  2  0  0  0  0  0  0
  193.0560  174.6740  146.5030 O   0  0  0  0  0  0  0  0  0  0  0  0
  188.3200  178.0300  143.2930 C   0  0  0  0  0  2  0  0  0  0  0  0
  188.3130  176.5130  143.2960 C   0  0  1  0  0  0  0  0  0  0  0  0
  185.6420  177.1200  141.1520 F   0  0  0  0  0  0  0  0  0  0  0  0
  187.5850  176.0750  142.0350 C   0  0  0  0  0  2  0  0  0  0  0  0
  187.1440  178.4350  142.4330 C   0  0  0  0  0  2  0  0  0  0  0  0
  186.9840  177.3240  141.4160 C   0  0  2  0  0  3  0  0  0  0  0  0
  187.6120  176.0580  144.4120 O   0  0  0  0  0  1  0  0  0  0  0  0
  196.6940  173.0400  145.3140 C   0  0  0  0  0  0  0  0  0  0  0  0
  197.1160  173.3860  146.5330 C   0  0  0  0  0  2  0  0  0  0  0  0
  196.5620  171.5920  144.9690 C   0  0  0  0  0  2  0  0  0  0  0  0
  196.7640  169.6830  146.5690 C   0  0  0  0  0  1  0  0  0  0  0  0
  195.8730  170.8150  146.0890 C   0  0  2  0  0  3  0  0  0  0  0  0
  194.5150  170.2610  145.6540 C   0  0  2  0  0  3  0  0  0  0  0  0
  194.3000  168.9720  146.1530 O   0  0  0  0  0  1  0  0  0  0  0  0
  192.8950  170.4920  143.7970 C   0  0  0  0  0  3  0  0  0  0  0  0
  194.8330  169.0930  143.5090 N   0  0  0  0  0  0  0  0  0  0  0  0
  194.4350  169.9250  141.2450 C   0  0  0  0  0  2  0  0  0  0  0  0
  194.9020  168.9240  142.2240 C   0  0  0  0  0  3  0  0  0  0  0  0
  193.3960  170.7620  141.3790 C   0  0  0  0  0  0  0  0  0  0  0  0
  190.4590  171.3660  141.1230 C   0  0  0  0  0  2  0  0  0  0  0  0
  193.2510  171.7460  140.3430 N   0  0  0  0  0  0  0  0  0  0  0  0
  190.9950  172.7790  141.0080 C   0  0  1  0  0  3  0  0  0  0  0  0
  192.4630  170.7060  142.5530 C   0  0  0  0  0  0  0  0  0  0  0  0
  192.5210  173.7520  139.4480 O   0  0  0  0  0  0  0  0  0  0  0  0
  192.2760  172.7900  140.2230 C   0  0  0  0  0  0  0  0  0  0  0  0
  190.9690  170.7160  142.3940 C   0  0  0  0  0  2  0  0  0  0  0  0
  194.3350  170.3120  144.1360 C   0  0  2  0  0  3  0  0  0  0  0  0
  189.3500  172.2480  138.6580 O   0  0  0  0  0  0  0  0  0  0  0  0
  189.2090  173.3480  139.2540 C   0  0  0  0  0  0  0  0  0  0  0  0
  189.9850  173.6590  140.4160 N   0  0  0  0  0  2  0  0  0  0  0  0
  188.2210  174.3360  138.7480 C   0  0  0  0  0  1  0  0  0  0  0  0
  1 23  1  1  0  0  0
  1  6  1  0  0  0  0
  2  8  1  0  0  0  0
  2  7  1  0  0  0  0
  3 17  1  6  0  0  0
  4  3  1  0  0  0  0
  5  2  1  0  0  0  0
  6  9  2  0  0  0  0
  7 10  1  0  0  0  0
  8 19  1  0  0  0  0
 10 14  1  0  0  0  0
 11  8  1  0  0  0  0
 12  6  1  0  0  0  0
 13 18  1  0  0  0  0
 13  1  1  0  0  0  0
 14  3  1  0  0  0  0
 14 31  1  0  0  0  0
 15  7  1  0  0  0  0
 16 21  1  0  0  0  0
 17 23  1  0  0  0  0
 18 12  2  0  0  0  0
 19 10  1  0  0  0  0
 19  4  1  0  0  0  0
 20  2  1  0  0  0  0
 21  4  1  0  0  0  0
 21 13  1  0  0  0  0
 22 18  1  0  0  0  0
 24 25  1  0  0  0  0
 25 22  1  0  0  0  0
 25 30  1  0  0  0  0
 26 29  1  0  0  0  0
 27 25  1  0  0  0  0
 28 24  1  0  0  0  0
 29 27  1  0  0  0  0
 29 28  1  0  0  0  0
 31 32  2  0  0  0  0
 33 31  1  0  0  0  0
 33 35  1  0  0  0  0
 35 34  1  0  0  0  0
 36 35  1  0  0  0  0
 36 37  1  0  0  0  0
 38 50  1  0  0  0  0
 39 50  1  0  0  0  0
 40 42  1  0  0  0  0
 40 41  1  0  0  0  0
 41 39  2  0  0  0  0
 42 46  1  0  0  0  0
 43 49  1  0  0  0  0
 44 42  2  0  0  0  0
 45 43  1  0  0  0  0
 46 38  2  0  0  0  0
 47 48  2  0  0  0  0
 48 44  1  0  0  0  0
 48 45  1  0  0  0  0
 49 46  1  0  0  0  0
 50 36  1  0  0  0  0
 51 52  2  0  0  0  0
 52 53  1  0  0  0  0
 53 45  1  0  0  0  0
 54 52  1  0  0  0  0
M  END
>  <MODEL>
2

>  <REMARK>
 VINA RESULT:      -8.6      2.641      4.186
  Name = 
  7 active torsions:
  status: ('A' for Active; 'I' for Inactive)
    1  A    between atoms: C_5  and  C_33
    2  A    between atoms: C_5  and  C_52
    3  A    between atoms: C_6  and  N_53
    4  A    between atoms: C_26  and  N_49
    5  A    between atoms: C_37  and  C_44
    6  A    between atoms: C_37  and  C_48
    7  A    between atoms: C_44  and  C_52
                            x       y       z     vdW  Elec       q    Type
                         _______ _______ _______ _____ _____    ______ ____

>  <TORSDO>
F 7

$$$$
=
 OpenBabel11062419113D

 54 60  0  0  1  0  0  0  0  0999 V2000
  192.5470  175.4510  145.9070 C   0  0  2  0  0  3  0  0  0  0  0  0
  196.7210  174.4910  140.8410 C   0  0  0  0  0  0  0  0  0  0  0  0
  194.9810  174.5170  144.9090 C   0  0  2  0  0  3  0  0  0  0  0  0
  194.5920  175.4460  143.7200 C   0  0  1  0  0  3  0  0  0  0  0  0
  196.2420  173.8780  139.6940 F   0  0  0  0  0  0  0  0  0  0  0  0
  191.3250  175.9180  146.6000 C   0  0  0  0  0  0  0  0  0  0  0  0
  197.0360  173.4820  141.9550 C   0  0  1  0  0  3  0  0  0  0  0  0
  195.6480  175.3320  141.4420 C   0  0  2  0  0  3  0  0  0  0  0  0
  191.1860  175.9570  147.8500 O   0  0  0  0  0  0  0  0  0  0  0  0
  195.7950  173.4720  142.8390 C   0  0  1  0  0  3  0  0  0  0  0  0
  195.4740  176.7830  141.1160 C   0  0  0  0  0  1  0  0  0  0  0  0
  190.3500  176.4110  145.7030 N   0  0  0  0  0  0  0  0  0  0  0  0
  192.0890  175.4530  144.4480 C   0  0  1  0  0  3  0  0  0  0  0  0
  196.1260  173.6700  144.3120 C   0  0  2  0  0  3  0  0  0  0  0  0
  197.3330  172.0870  141.4270 C   0  0  0  0  0  1  0  0  0  0  0  0
  192.7630  176.2090  142.2790 O   0  0  0  0  0  1  0  0  0  0  0  0
  193.8250  173.5980  145.3720 C   0  0  0  0  0  2  0  0  0  0  0  0
  190.7930  176.2080  144.5060 C   0  0  0  0  0  0  0  0  0  0  0  0
  195.1170  174.7380  142.5090 C   0  0  1  0  0  3  0  0  0  0  0  0
  197.8450  175.2430  140.5470 F   0  0  0  0  0  0  0  0  0  0  0  0
  193.1800  176.1080  143.6080 C   0  0  2  0  0  3  0  0  0  0  0  0
  190.0340  176.5410  143.3360 N   0  0  0  0  0  2  0  0  0  0  0  0
  192.9680  174.1780  146.3420 O   0  0  0  0  0  0  0  0  0  0  0  0
  188.5320  177.9880  142.0410 C   0  0  0  0  0  2  0  0  0  0  0  0
  188.7440  177.2280  143.3360 C   0  0  1  0  0  0  0  0  0  0  0  0
  185.3370  176.6970  142.8820 F   0  0  0  0  0  0  0  0  0  0  0  0
  187.5970  176.2380  143.4590 C   0  0  0  0  0  2  0  0  0  0  0  0
  187.0510  177.8910  141.7580 C   0  0  0  0  0  2  0  0  0  0  0  0
  186.6090  176.5710  142.3550 C   0  0  2  0  0  3  0  0  0  0  0  0
  188.6970  178.1200  144.4070 O   0  0  0  0  0  1  0  0  0  0  0  0
  196.5060  172.4100  145.0470 C   0  0  0  0  0  0  0  0  0  0  0  0
  196.9210  172.4390  146.3160 C   0  0  0  0  0  2  0  0  0  0  0  0
  196.1810  171.0960  144.4150 C   0  0  0  0  0  2  0  0  0  0  0  0
  194.8110  169.8250  146.0740 C   0  0  0  0  0  1  0  0  0  0  0  0
  194.7740  170.6330  144.7890 C   0  0  2  0  0  3  0  0  0  0  0  0
  194.1240  169.8110  143.6740 C   0  0  2  0  0  3  0  0  0  0  0  0
  195.0320  169.5190  142.6520 O   0  0  0  0  0  1  0  0  0  0  0  0
  193.2230  171.4650  142.0680 C   0  0  0  0  0  3  0  0  0  0  0  0
  192.1290  171.1610  144.1920 N   0  0  0  0  0  0  0  0  0  0  0  0
  190.2750  171.7690  142.7180 C   0  0  0  0  0  2  0  0  0  0  0  0
  190.9680  171.7160  144.0210 C   0  0  0  0  0  3  0  0  0  0  0  0
  190.8400  171.8850  141.5080 C   0  0  0  0  0  0  0  0  0  0  0  0
  191.9500  173.5720  139.2780 C   0  0  0  0  0  2  0  0  0  0  0  0
  189.9480  171.7560  140.3900 N   0  0  0  0  0  0  0  0  0  0  0  0
  191.5380  172.3600  138.4650 C   0  0  1  0  0  3  0  0  0  0  0  0
  192.3140  172.0970  141.3240 C   0  0  0  0  0  0  0  0  0  0  0  0
  189.4080  171.3170  138.1820 O   0  0  0  0  0  0  0  0  0  0  0  0
  190.2490  171.7950  138.9890 C   0  0  0  0  0  0  0  0  0  0  0  0
  192.8670  173.1540  140.4110 C   0  0  0  0  0  2  0  0  0  0  0  0
  192.8620  170.4820  143.1290 C   0  0  2  0  0  3  0  0  0  0  0  0
  193.6690  172.2410  136.4770 O   0  0  0  0  0  0  0  0  0  0  0  0
  192.5300  172.6360  136.1130 C   0  0  0  0  0  0  0  0  0  0  0  0
  191.4460  172.7080  137.0460 N   0  0  0  0  0  2  0  0  0  0  0  0
  192.3050  173.0290  134.6980 C   0  0  0  0  0  1  0  0  0  0  0  0
  1 23  1  1  0  0  0
  1  6  1  0  0  0  0
  2  8  1  0  0  0  0
  2  7  1  0  0  0  0
  3 17  1  6  0  0  0
  4  3  1  0  0  0  0
  5  2  1  0  0  0  0
  6  9  2  0  0  0  0
  7 10  1  0  0  0  0
  8 19  1  0  0  0  0
 10 14  1  0  0  0  0
 11  8  1  0  0  0  0
 12  6  1  0  0  0  0
 13 18  1  0  0  0  0
 13  1  1  0  0  0  0
 14  3  1  0  0  0  0
 14 31  1  0  0  0  0
 15  7  1  0  0  0  0
 16 21  1  0  0  0  0
 17 23  1  0  0  0  0
 18 12  2  0  0  0  0
 19 10  1  0  0  0  0
 19  4  1  0  0  0  0
 20  2  1  0  0  0  0
 21  4  1  0  0  0  0
 21 13  1  0  0  0  0
 22 25  1  0  0  0  0
 22 18  1  0  0  0  0
 24 25  1  0  0  0  0
 25 27  1  0  0  0  0
 25 30  1  0  0  0  0
 28 24  1  0  0  0  0
 28 29  1  0  0  0  0
 29 26  1  0  0  0  0
 29 27  1  0  0  0  0
 31 32  2  0  0  0  0
 33 35  1  0  0  0  0
 33 31  1  0  0  0  0
 35 34  1  0  0  0  0
 36 35  1  0  0  0  0
 37 36  1  0  0  0  0
 38 50  1  0  0  0  0
 40 41  1  0  0  0  0
 41 39  2  0  0  0  0
 42 40  1  0  0  0  0
 43 49  1  0  0  0  0
 44 42  2  0  0  0  0
 45 48  1  0  0  0  0
 45 43  1  0  0  0  0
 46 42  1  0  0  0  0
 46 38  2  0  0  0  0
 47 48  2  0  0  0  0
 48 44  1  0  0  0  0
 49 46  1  0  0  0  0
 50 36  1  0  0  0  0
 50 39  1  0  0  0  0
 52 51  2  0  0  0  0
 52 53  1  0  0  0  0
 53 45  1  0  0  0  0
 54 52  1  0  0  0  0
M  END
>  <MODEL>
3

>  <REMARK>
 VINA RESULT:      -8.4      2.704      4.367
  Name = 
  7 active torsions:
  status: ('A' for Active; 'I' for Inactive)
    1  A    between atoms: C_5  and  C_33
    2  A    between atoms: C_5  and  C_52
    3  A    between atoms: C_6  and  N_53
    4  A    between atoms: C_26  and  N_49
    5  A    between atoms: C_37  and  C_44
    6  A    between atoms: C_37  and  C_48
    7  A    between atoms: C_44  and  C_52
                            x       y       z     vdW  Elec       q    Type
                         _______ _______ _______ _____ _____    ______ ____

>  <TORSDO>
F 7

$$$$
=
 OpenBabel11062419113D

 54 60  0  0  1  0  0  0  0  0999 V2000
  190.2710  174.1080  142.9390 C   0  0  2  0  0  3  0  0  0  0  0  0
  190.1350  171.5860  136.8050 C   0  0  0  0  0  0  0  0  0  0  0  0
  191.3090  172.3970  140.9930 C   0  0  2  0  0  3  0  0  0  0  0  0
  190.4850  173.3300  140.0560 C   0  0  1  0  0  3  0  0  0  0  0  0
  188.9350  171.0890  136.3190 F   0  0  0  0  0  0  0  0  0  0  0  0
  189.8680  174.9760  144.0680 C   0  0  0  0  0  0  0  0  0  0  0  0
  190.8390  170.5960  137.7450 C   0  0  1  0  0  3  0  0  0  0  0  0
  189.8680  172.7560  137.6880 C   0  0  2  0  0  3  0  0  0  0  0  0
  190.5360  175.1300  145.1230 O   0  0  0  0  0  0  0  0  0  0  0  0
  190.4350  171.0290  139.1480 C   0  0  1  0  0  3  0  0  0  0  0  0
  189.8490  174.1660  137.1850 C   0  0  0  0  0  1  0  0  0  0  0  0
  188.6820  175.6990  143.7980 N   0  0  0  0  0  0  0  0  0  0  0  0
  189.0300  174.1690  142.0490 C   0  0  1  0  0  3  0  0  0  0  0  0
  191.6320  171.1990  140.0750 C   0  0  2  0  0  3  0  0  0  0  0  0
  190.4410  169.1490  137.4920 C   0  0  0  0  0  1  0  0  0  0  0  0
  188.3760  174.5460  139.7770 O   0  0  0  0  0  1  0  0  0  0  0  0
  190.5160  171.9190  142.2330 C   0  0  0  0  0  2  0  0  0  0  0  0
  188.2420  175.2970  142.6510 C   0  0  0  0  0  0  0  0  0  0  0  0
  189.9900  172.4230  138.9710 C   0  0  1  0  0  3  0  0  0  0  0  0
  190.9710  171.9250  135.7570 F   0  0  0  0  0  0  0  0  0  0  0  0
  189.4850  174.3960  140.6120 C   0  0  2  0  0  3  0  0  0  0  0  0
  187.0210  175.7820  142.0810 N   0  0  0  0  0  2  0  0  0  0  0  0
  190.5840  172.7950  143.3460 O   0  0  0  0  0  0  0  0  0  0  0  0
  185.5660  176.3980  143.9600 C   0  0  0  0  0  2  0  0  0  0  0  0
  186.1880  176.8400  142.6490 C   0  0  1  0  0  0  0  0  0  0  0  0
  186.3520  179.8260  144.4260 F   0  0  0  0  0  0  0  0  0  0  0  0
  187.0100  178.0830  142.9490 C   0  0  0  0  0  2  0  0  0  0  0  0
  185.5160  177.6410  144.8200 C   0  0  0  0  0  2  0  0  0  0  0  0
  186.6930  178.4860  144.3790 C   0  0  2  0  0  3  0  0  0  0  0  0
  185.1760  177.1660  141.7470 O   0  0  0  0  0  1  0  0  0  0  0  0
  192.1000  169.9280  140.7380 C   0  0  0  0  0  0  0  0  0  0  0  0
  191.2390  168.9820  141.1210 C   0  0  0  0  0  2  0  0  0  0  0  0
  193.5640  169.6290  140.7420 C   0  0  0  0  0  2  0  0  0  0  0  0
  194.2370  169.3030  138.3580 C   0  0  0  0  0  1  0  0  0  0  0  0
  194.2620  170.2580  139.5380 C   0  0  2  0  0  3  0  0  0  0  0  0
  195.7050  170.6590  139.8540 C   0  0  2  0  0  3  0  0  0  0  0  0
  196.1370  170.1130  141.0680 O   0  0  0  0  0  1  0  0  0  0  0  0
  194.9020  172.8390  140.7080 C   0  0  0  0  0  3  0  0  0  0  0  0
  195.7620  172.6910  138.4630 N   0  0  0  0  0  0  0  0  0  0  0  0
  196.3620  174.9700  139.1160 C   0  0  0  0  0  3  0  0  0  0  0  0
  195.9880  173.9280  138.1390 C   0  0  0  0  0  3  0  0  0  0  0  0
  195.9530  175.0670  140.3890 C   0  0  0  0  0  0  0  0  0  0  0  0
  193.9600  175.9930  142.4440 C   0  0  0  0  0  2  0  0  0  0  0  0
  196.5890  176.0890  141.1710 N   0  0  0  0  0  2  0  0  0  0  0  0
  195.1940  175.9530  143.3240 C   0  0  1  0  0  3  0  0  0  0  0  0
  194.9250  174.1460  140.9770 C   0  0  0  0  0  0  0  0  0  0  0  0
  197.2840  177.0930  143.1380 O   0  0  0  0  0  0  0  0  0  0  0  0
  196.3980  176.4150  142.5540 C   0  0  0  0  0  0  0  0  0  0  0  0
  193.7540  174.6490  141.7710 C   0  0  0  0  0  2  0  0  0  0  0  0
  195.8990  172.1760  139.8210 C   0  0  2  0  0  3  0  0  0  0  0  0
  193.9500  175.0780  145.8130 O   0  0  0  0  0  0  0  0  0  0  0  0
  194.3560  176.2670  145.7300 C   0  0  0  0  0  0  0  0  0  0  0  0
  194.9810  176.7480  144.5340 N   0  0  0  0  0  2  0  0  0  0  0  0
  194.1910  177.1830  146.8880 C   0  0  0  0  0  1  0  0  0  0  0  0
  1 23  1  1  0  0  0
  1  6  1  0  0  0  0
  2  8  1  0  0  0  0
  2  7  1  0  0  0  0
  3 17  1  1  0  0  0
  4 21  1  0  0  0  0
  4  3  1  0  0  0  0
  5  2  1  0  0  0  0
  6  9  2  0  0  0  0
  7 10  1  0  0  0  0
  8 19  1  0  0  0  0
 10 14  1  0  0  0  0
 11  8  1  0  0  0  0
 12  6  1  0  0  0  0
 13 18  1  0  0  0  0
 13  1  1  0  0  0  0
 14 31  1  0  0  0  0
 14  3  1  0  0  0  0
 15  7  1  0  0  0  0
 16 21  1  0  0  0  0
 17 23  1  0  0  0  0
 18 12  2  0  0  0  0
 19 10  1  0  0  0  0
 19  4  1  0  0  0  0
 20  2  1  0  0  0  0
 21 13  1  0  0  0  0
 22 25  1  0  0  0  0
 22 18  1  0  0  0  0
 24 28  1  0  0  0  0
 25 27  1  0  0  0  0
 25 24  1  0  0  0  0
 27 29  1  0  0  0  0
 29 26  1  0  0  0  0
 29 28  1  0  0  0  0
 30 25  1  0  0  0  0
 31 33  1  0  0  0  0
 31 32  2  0  0  0  0
 34 35  1  0  0  0  0
 35 36  1  0  0  0  0
 35 33  1  0  0  0  0
 36 37  1  0  0  0  0
 38 46  2  0  0  0  0
 39 50  1  0  0  0  0
 40 42  2  0  0  0  0
 41 39  2  0  0  0  0
 41 40  1  0  0  0  0
 42 46  1  0  0  0  0
 42 44  1  0  0  0  0
 43 45  1  0  0  0  0
 44 48  1  0  0  0  0
 45 53  1  0  0  0  0
 46 49  1  0  0  0  0
 48 47  2  0  0  0  0
 48 45  1  0  0  0  0
 49 43  1  0  0  0  0
 50 36  1  0  0  0  0
 50 38  1  0  0  0  0
 52 51  2  0  0  0  0
 52 54  1  0  0  0  0
 53 52  1  0  0  0  0
M  END
>  <MODEL>
4

>  <REMARK>
 VINA RESULT:      -8.2      3.371      6.560
  Name = 
  7 active torsions:
  status: ('A' for Active; 'I' for Inactive)
    1  A    between atoms: C_5  and  C_33
    2  A    between atoms: C_5  and  C_52
    3  A    between atoms: C_6  and  N_53
    4  A    between atoms: C_26  and  N_49
    5  A    between atoms: C_37  and  C_44
    6  A    between atoms: C_37  and  C_48
    7  A    between atoms: C_44  and  C_52
                            x       y       z     vdW  Elec       q    Type
                         _______ _______ _______ _____ _____    ______ ____

>  <TORSDO>
F 7

$$$$
=
 OpenBabel11062419113D

 54 60  0  0  1  0  0  0  0  0999 V2000
  190.3970  175.2550  144.9860 C   0  0  2  0  0  3  0  0  0  0  0  0
  192.1380  171.4840  139.8140 C   0  0  0  0  0  0  0  0  0  0  0  0
  192.0740  173.3490  143.8260 C   0  0  2  0  0  3  0  0  0  0  0  0
  191.4440  173.9190  142.5190 C   0  0  1  0  0  3  0  0  0  0  0  0
  191.1640  170.7140  139.1980 F   0  0  0  0  0  0  0  0  0  0  0  0
  189.6270  176.2720  145.7370 C   0  0  0  0  0  0  0  0  0  0  0  0
  192.6590  170.8410  141.1080 C   0  0  1  0  0  3  0  0  0  0  0  0
  191.5350  172.7600  140.2910 C   0  0  2  0  0  3  0  0  0  0  0  0
  189.9730  176.7510  146.8480 O   0  0  0  0  0  0  0  0  0  0  0  0
  191.8560  171.4980  142.2240 C   0  0  1  0  0  3  0  0  0  0  0  0
  191.5150  174.0090  139.4650 C   0  0  0  0  0  1  0  0  0  0  0  0
  188.4930  176.7260  145.0250 N   0  0  0  0  0  0  0  0  0  0  0  0
  189.4370  174.9290  143.8420 C   0  0  1  0  0  3  0  0  0  0  0  0
  192.7430  172.0470  143.3350 C   0  0  2  0  0  3  0  0  0  0  0  0
  192.4830  169.3300  141.1340 C   0  0  0  0  0  1  0  0  0  0  0  0
  189.3780  174.7020  141.4600 O   0  0  0  0  0  1  0  0  0  0  0  0
  191.0300  173.0310  144.9220 C   0  0  0  0  0  2  0  0  0  0  0  0
  188.4130  176.0230  143.9430 C   0  0  0  0  0  0  0  0  0  0  0  0
  191.3430  172.7340  141.6080 C   0  0  1  0  0  3  0  0  0  0  0  0
  193.1860  171.7160  138.9410 F   0  0  0  0  0  0  0  0  0  0  0  0
  190.2340  174.9100  142.5430 C   0  0  2  0  0  3  0  0  0  0  0  0
  187.3470  176.1780  142.9990 N   0  0  0  0  0  2  0  0  0  0  0  0
  190.7150  174.1250  145.7670 O   0  0  0  0  0  0  0  0  0  0  0  0
  185.4210  176.9760  144.2960 C   0  0  0  0  0  2  0  0  0  0  0  0
  186.2950  177.1910  143.0760 C   0  0  1  0  0  0  0  0  0  0  0  0
  185.7110  180.4970  143.9820 F   0  0  0  0  0  0  0  0  0  0  0  0
  186.8860  178.5860  143.1980 C   0  0  0  0  0  2  0  0  0  0  0  0
  185.0330  178.3620  144.7610 C   0  0  0  0  0  2  0  0  0  0  0  0
  186.1890  179.2580  144.3680 C   0  0  2  0  0  3  0  0  0  0  0  0
  185.5070  177.1250  141.9270 O   0  0  0  0  0  1  0  0  0  0  0  0
  193.1370  171.0370  144.3830 C   0  0  0  0  0  0  0  0  0  0  0  0
  192.7170  169.7710  144.3250 C   0  0  0  0  0  2  0  0  0  0  0  0
  194.2060  171.4100  145.3580 C   0  0  0  0  0  2  0  0  0  0  0  0
  196.3970  170.2090  145.3580 C   0  0  0  0  0  1  0  0  0  0  0  0
  195.5910  171.3280  144.7220 C   0  0  2  0  0  3  0  0  0  0  0  0
  196.3550  172.6490  144.8340 C   0  0  2  0  0  3  0  0  0  0  0  0
  196.3650  173.1290  146.1480 O   0  0  0  0  0  1  0  0  0  0  0  0
  196.8840  174.0520  142.8650 C   0  0  0  0  0  3  0  0  0  0  0  0
  195.4030  174.9050  144.5630 N   0  0  0  0  0  0  0  0  0  0  0  0
  194.5530  175.9670  142.5310 C   0  0  0  0  0  2  0  0  0  0  0  0
  194.8150  175.9060  143.9830 C   0  0  0  0  0  3  0  0  0  0  0  0
  195.3180  175.4640  141.5510 C   0  0  0  0  0  0  0  0  0  0  0  0
  197.6080  175.7140  139.6150 C   0  0  0  0  0  2  0  0  0  0  0  0
  194.7560  175.5230  140.2310 N   0  0  0  0  0  0  0  0  0  0  0  0
  196.7640  174.7170  138.8450 C   0  0  1  0  0  3  0  0  0  0  0  0
  196.6580  174.8420  141.8140 C   0  0  0  0  0  0  0  0  0  0  0  0
  194.5260  174.8680  138.0220 O   0  0  0  0  0  0  0  0  0  0  0  0
  195.3050  175.0410  138.9970 C   0  0  0  0  0  0  0  0  0  0  0  0
  197.8800  175.1960  141.0150 C   0  0  0  0  0  2  0  0  0  0  0  0
  195.8280  173.7010  143.8560 C   0  0  2  0  0  3  0  0  0  0  0  0
  197.4970  172.3720  137.2740 O   0  0  0  0  0  0  0  0  0  0  0  0
  197.5290  173.5010  136.7170 C   0  0  0  0  0  0  0  0  0  0  0  0
  197.1720  174.6850  137.4390 N   0  0  0  0  0  2  0  0  0  0  0  0
  197.9370  173.6070  135.2930 C   0  0  0  0  0  1  0  0  0  0  0  0
  1  6  1  1  0  0  0
  1 23  1  0  0  0  0
  2  8  1  0  0  0  0
  2  7  1  0  0  0  0
  3 17  1  1  0  0  0
  4 21  1  0  0  0  0
  4  3  1  0  0  0  0
  5  2  1  0  0  0  0
  6  9  2  0  0  0  0
  7 15  1  0  0  0  0
  7 10  1  0  0  0  0
  8 19  1  0  0  0  0
 10 14  1  0  0  0  0
 11  8  1  0  0  0  0
 12  6  1  0  0  0  0
 13 18  1  0  0  0  0
 13  1  1  0  0  0  0
 14  3  1  0  0  0  0
 14 31  1  0  0  0  0
 16 21  1  0  0  0  0
 17 23  1  0  0  0  0
 18 12  2  0  0  0  0
 19 10  1  0  0  0  0
 19  4  1  0  0  0  0
 20  2  1  0  0  0  0
 21 13  1  0  0  0  0
 22 25  1  0  0  0  0
 22 18  1  0  0  0  0
 24 28  1  0  0  0  0
 25 27  1  0  0  0  0
 25 24  1  0  0  0  0
 26 29  1  0  0  0  0
 27 29  1  0  0  0  0
 29 28  1  0  0  0  0
 30 25  1  0  0  0  0
 31 33  1  0  0  0  0
 32 31  2  0  0  0  0
 35 36  1  0  0  0  0
 35 34  1  0  0  0  0
 35 33  1  0  0  0  0
 36 37  1  0  0  0  0
 38 50  1  0  0  0  0
 40 41  1  0  0  0  0
 41 39  2  0  0  0  0
 42 46  1  0  0  0  0
 42 40  1  0  0  0  0
 43 49  1  0  0  0  0
 44 42  2  0  0  0  0
 45 48  1  0  0  0  0
 45 43  1  0  0  0  0
 46 38  2  0  0  0  0
 47 48  2  0  0  0  0
 48 44  1  0  0  0  0
 49 46  1  0  0  0  0
 50 39  1  0  0  0  0
 50 36  1  0  0  0  0
 52 51  2  0  0  0  0
 52 53  1  0  0  0  0
 53 45  1  0  0  0  0
 54 52  1  0  0  0  0
M  END
>  <MODEL>
5

>  <REMARK>
 VINA RESULT:      -8.1      3.401      5.900
  Name = 
  7 active torsions:
  status: ('A' for Active; 'I' for Inactive)
    1  A    between atoms: C_5  and  C_33
    2  A    between atoms: C_5  and  C_52
    3  A    between atoms: C_6  and  N_53
    4  A    between atoms: C_26  and  N_49
    5  A    between atoms: C_37  and  C_44
    6  A    between atoms: C_37  and  C_48
    7  A    between atoms: C_44  and  C_52
                            x       y       z     vdW  Elec       q    Type
                         _______ _______ _______ _____ _____    ______ ____

>  <TORSDO>
F 7

$$$$
=
 OpenBabel11062419113D

 54 60  0  0  1  0  0  0  0  0999 V2000
  188.8940  173.9340  139.6080 C   0  0  2  0  0  3  0  0  0  0  0  0
  192.5890  170.7720  144.1200 C   0  0  0  0  0  0  0  0  0  0  0  0
  190.7360  171.9460  140.2780 C   0  0  2  0  0  3  0  0  0  0  0  0
  190.1870  172.2340  141.7070 C   0  0  1  0  0  3  0  0  0  0  0  0
  193.3930  171.5230  144.9630 F   0  0  0  0  0  0  0  0  0  0  0  0
  187.9080  174.9090  139.0910 C   0  0  0  0  0  0  0  0  0  0  0  0
  193.2150  170.5830  142.7300 C   0  0  1  0  0  3  0  0  0  0  0  0
  191.3360  171.5230  143.8260 C   0  0  2  0  0  3  0  0  0  0  0  0
  187.4190  174.8820  137.9320 O   0  0  0  0  0  0  0  0  0  0  0  0
  192.5910  171.6720  141.8670 C   0  0  1  0  0  3  0  0  0  0  0  0
  190.0880  171.3720  144.6380 C   0  0  0  0  0  1  0  0  0  0  0  0
  187.4940  175.8340  140.0780 N   0  0  0  0  0  0  0  0  0  0  0  0
  189.2530  174.5500  140.9600 C   0  0  1  0  0  3  0  0  0  0  0  0
  192.0110  171.1260  140.5670 C   0  0  2  0  0  3  0  0  0  0  0  0
  194.7310  170.7060  142.7390 C   0  0  0  0  0  1  0  0  0  0  0  0
  189.4770  173.9790  143.2740 O   0  0  0  0  0  1  0  0  0  0  0  0
  191.0940  173.2270  139.4890 C   0  0  0  0  0  2  0  0  0  0  0  0
  188.1970  175.6040  141.1370 C   0  0  0  0  0  0  0  0  0  0  0  0
  191.3720  172.0510  142.6040 C   0  0  1  0  0  3  0  0  0  0  0  0
  192.3160  169.5420  144.6910 F   0  0  0  0  0  0  0  0  0  0  0  0
  189.2400  173.4420  142.0060 C   0  0  2  0  0  3  0  0  0  0  0  0
  188.0790  176.3920  142.3280 N   0  0  0  0  0  2  0  0  0  0  0  0
  190.0140  173.7910  138.7630 O   0  0  0  0  0  0  0  0  0  0  0  0
  185.7170  176.8990  142.7680 C   0  0  0  0  0  2  0  0  0  0  0  0
  187.1060  177.4630  142.5350 C   0  0  1  0  0  0  0  0  0  0  0  0
  185.9410  179.7070  144.9240 F   0  0  0  0  0  0  0  0  0  0  0  0
  187.4550  178.2910  143.7610 C   0  0  0  0  0  2  0  0  0  0  0  0
  185.0640  177.8370  143.7570 C   0  0  0  0  0  2  0  0  0  0  0  0
  186.1950  178.3860  144.6020 C   0  0  2  0  0  3  0  0  0  0  0  0
  187.0840  178.2910  141.4130 O   0  0  0  0  0  1  0  0  0  0  0  0
  193.0090  170.9820  139.4450 C   0  0  0  0  0  0  0  0  0  0  0  0
  192.6570  170.4800  138.2590 C   0  0  0  0  0  2  0  0  0  0  0  0
  194.3430  171.6360  139.5960 C   0  0  0  0  0  2  0  0  0  0  0  0
  196.1960  172.1310  137.9940 C   0  0  0  0  0  1  0  0  0  0  0  0
  194.7380  172.3920  138.3290 C   0  0  2  0  0  3  0  0  0  0  0  0
  194.4930  173.8970  138.4570 C   0  0  2  0  0  3  0  0  0  0  0  0
  195.0370  174.6010  137.3770 O   0  0  0  0  0  1  0  0  0  0  0  0
  193.8520  175.0030  140.5760 C   0  0  0  0  0  3  0  0  0  0  0  0
  195.9960  175.4870  139.5900 N   0  0  0  0  0  0  0  0  0  0  0  0
  196.4440  175.7210  141.9820 C   0  0  0  0  0  3  0  0  0  0  0  0
  196.6610  176.0410  140.5580 C   0  0  0  0  0  3  0  0  0  0  0  0
  195.2830  175.3960  142.5690 C   0  0  0  0  0  0  0  0  0  0  0  0
  192.7090  176.1810  143.9160 C   0  0  0  0  0  2  0  0  0  0  0  0
  195.3740  174.9780  143.9400 N   0  0  0  0  0  2  0  0  0  0  0  0
  192.8790  174.8060  144.5300 C   0  0  1  0  0  3  0  0  0  0  0  0
  193.9740  175.4260  141.8360 C   0  0  0  0  0  0  0  0  0  0  0  0
  194.6470  173.8900  145.8490 O   0  0  0  0  0  0  0  0  0  0  0  0
  194.3290  174.5390  144.8180 C   0  0  0  0  0  0  0  0  0  0  0  0
  192.7500  176.0860  142.4030 C   0  0  0  0  0  2  0  0  0  0  0  0
  194.9930  174.4470  139.7940 C   0  0  2  0  0  3  0  0  0  0  0  0
  192.8450  176.5840  146.8420 O   0  0  0  0  0  0  0  0  0  0  0  0
  192.0810  175.5830  146.8430 C   0  0  0  0  0  0  0  0  0  0  0  0
  192.0520  174.6810  145.7320 N   0  0  0  0  0  2  0  0  0  0  0  0
  191.1950  175.3350  148.0100 C   0  0  0  0  0  1  0  0  0  0  0  0
  1 23  1  6  0  0  0
  1 13  1  0  0  0  0
  2 20  1  0  0  0  0
  2  5  1  0  0  0  0
  3 17  1  1  0  0  0
  3 14  1  0  0  0  0
  3  4  1  0  0  0  0
  4 21  1  0  0  0  0
  4 19  1  0  0  0  0
  6  1  1  0  0  0  0
  6 12  1  0  0  0  0
  7 15  1  0  0  0  0
  7  2  1  0  0  0  0
  8  2  1  0  0  0  0
  8 11  1  0  0  0  0
  9  6  2  0  0  0  0
 10 19  1  0  0  0  0
 10  7  1  0  0  0  0
 12 18  2  0  0  0  0
 13 18  1  0  0  0  0
 13 21  1  0  0  0  0
 14 10  1  0  0  0  0
 18 22  1  0  0  0  0
 19  8  1  0  0  0  0
 21 16  1  0  0  0  0
 22 25  1  0  0  0  0
 23 17  1  0  0  0  0
 24 28  1  0  0  0  0
 25 24  1  0  0  0  0
 25 27  1  0  0  0  0
 27 29  1  0  0  0  0
 28 29  1  0  0  0  0
 29 26  1  0  0  0  0
 30 25  1  0  0  0  0
 31 33  1  0  0  0  0
 31 14  1  0  0  0  0
 32 31  2  0  0  0  0
 34 35  1  0  0  0  0
 35 36  1  0  0  0  0
 35 33  1  0  0  0  0
 36 50  1  0  0  0  0
 37 36  1  0  0  0  0
 38 46  2  0  0  0  0
 39 50  1  0  0  0  0
 39 41  2  0  0  0  0
 40 42  2  0  0  0  0
 41 40  1  0  0  0  0
 42 44  1  0  0  0  0
 43 45  1  0  0  0  0
 44 48  1  0  0  0  0
 45 48  1  0  0  0  0
 45 53  1  0  0  0  0
 46 49  1  0  0  0  0
 46 42  1  0  0  0  0
 48 47  2  0  0  0  0
 49 43  1  0  0  0  0
 50 38  1  0  0  0  0
 51 52  2  0  0  0  0
 52 54  1  0  0  0  0
 53 52  1  0  0  0  0
M  END
>  <MODEL>
6

>  <REMARK>
 VINA RESULT:      -8.0      2.808      5.820
  Name = 
  7 active torsions:
  status: ('A' for Active; 'I' for Inactive)
    1  A    between atoms: C_5  and  C_33
    2  A    between atoms: C_5  and  C_52
    3  A    between atoms: C_6  and  N_53
    4  A    between atoms: C_26  and  N_49
    5  A    between atoms: C_37  and  C_44
    6  A    between atoms: C_37  and  C_48
    7  A    between atoms: C_44  and  C_52
                            x       y       z     vdW  Elec       q    Type
                         _______ _______ _______ _____ _____    ______ ____

>  <TORSDO>
F 7

$$$$
=
 OpenBabel11062419113D

 54 60  0  0  1  0  0  0  0  0999 V2000
  189.4070  174.1590  142.3610 C   0  0  2  0  0  3  0  0  0  0  0  0
  194.7790  176.3510  145.5780 C   0  0  0  0  0  0  0  0  0  0  0  0
  192.1590  174.0840  142.8260 C   0  0  2  0  0  3  0  0  0  0  0  0
  191.7310  174.8200  144.1310 C   0  0  1  0  0  3  0  0  0  0  0  0
  195.0070  177.7180  145.6330 F   0  0  0  0  0  0  0  0  0  0  0  0
  187.9720  174.0490  142.0170 C   0  0  0  0  0  0  0  0  0  0  0  0
  195.2060  175.7420  144.2340 C   0  0  1  0  0  3  0  0  0  0  0  0
  193.3130  176.0890  145.6160 C   0  0  2  0  0  3  0  0  0  0  0  0
  187.4790  173.1420  141.2960 O   0  0  0  0  0  0  0  0  0  0  0  0
  193.9300  175.6870  143.4040 C   0  0  1  0  0  3  0  0  0  0  0  0
  192.5630  175.8450  146.8880 C   0  0  0  0  0  1  0  0  0  0  0  0
  187.1840  175.0280  142.6650 N   0  0  0  0  0  0  0  0  0  0  0  0
  189.4460  175.5070  143.0810 C   0  0  1  0  0  3  0  0  0  0  0  0
  193.6860  174.3100  142.8000 C   0  0  2  0  0  3  0  0  0  0  0  0
  196.2760  176.5580  143.5240 C   0  0  0  0  0  1  0  0  0  0  0  0
  190.2610  176.5350  145.0830 O   0  0  0  0  0  1  0  0  0  0  0  0
  191.5110  174.6730  141.5500 C   0  0  0  0  0  2  0  0  0  0  0  0
  187.9920  175.8080  143.3050 C   0  0  0  0  0  0  0  0  0  0  0  0
  192.8540  175.7720  144.4060 C   0  0  1  0  0  3  0  0  0  0  0  0
  195.4320  175.7160  146.6190 F   0  0  0  0  0  0  0  0  0  0  0  0
  190.2740  175.3460  144.3500 C   0  0  2  0  0  3  0  0  0  0  0  0
  187.5390  176.9520  144.0390 N   0  0  0  0  0  2  0  0  0  0  0  0
  190.2450  174.1240  141.2280 O   0  0  0  0  0  0  0  0  0  0  0  0
  186.0230  178.7340  144.7820 C   0  0  0  0  0  2  0  0  0  0  0  0
  186.1400  177.3210  144.2450 C   0  0  1  0  0  0  0  0  0  0  0  0
  183.2860  178.3690  142.5560 F   0  0  0  0  0  0  0  0  0  0  0  0
  185.3650  177.2810  142.9380 C   0  0  0  0  0  2  0  0  0  0  0  0
  184.7610  179.2940  144.1660 C   0  0  0  0  0  2  0  0  0  0  0  0
  184.6220  178.6010  142.8270 C   0  0  2  0  0  3  0  0  0  0  0  0
  185.5580  176.4340  145.1510 O   0  0  0  0  0  1  0  0  0  0  0  0
  194.3970  174.0600  141.4940 C   0  0  0  0  0  0  0  0  0  0  0  0
  195.4710  173.2680  141.4240 C   0  0  0  0  0  2  0  0  0  0  0  0
  193.7410  174.5150  140.2320 C   0  0  0  0  0  2  0  0  0  0  0  0
  194.7470  174.4290  137.9460 C   0  0  0  0  0  1  0  0  0  0  0  0
  194.1100  173.6120  139.0570 C   0  0  2  0  0  3  0  0  0  0  0  0
  192.8990  172.8490  138.5150 C   0  0  2  0  0  3  0  0  0  0  0  0
  191.8490  173.7140  138.1880 O   0  0  0  0  0  1  0  0  0  0  0  0
  193.5800  170.8410  139.7910 C   0  0  0  0  0  3  0  0  0  0  0  0
  191.3490  170.9720  138.8920 N   0  0  0  0  0  0  0  0  0  0  0  0
  191.0310  169.6410  140.9190 C   0  0  0  0  0  3  0  0  0  0  0  0
  190.7030  170.0500  139.5380 C   0  0  0  0  0  3  0  0  0  0  0  0
  192.2470  169.6010  141.4810 C   0  0  0  0  0  0  0  0  0  0  0  0
  194.8280  168.1670  142.0580 C   0  0  0  0  0  2  0  0  0  0  0  0
  192.2720  169.3160  142.8890 N   0  0  0  0  0  2  0  0  0  0  0  0
  194.8040  169.0870  143.2620 C   0  0  1  0  0  3  0  0  0  0  0  0
  193.5030  169.8730  140.7060 C   0  0  0  0  0  0  0  0  0  0  0  0
  193.1950  169.3310  145.0110 O   0  0  0  0  0  0  0  0  0  0  0  0
  193.3990  169.2410  143.7720 C   0  0  0  0  0  0  0  0  0  0  0  0
  194.7040  168.9740  140.7800 C   0  0  0  0  0  2  0  0  0  0  0  0
  192.4410  171.7470  139.4720 C   0  0  2  0  0  3  0  0  0  0  0  0
  196.6700  170.6480  144.8690 O   0  0  0  0  0  0  0  0  0  0  0  0
  196.6130  169.4040  145.0550 C   0  0  0  0  0  0  0  0  0  0  0  0
  195.7090  168.5900  144.2990 N   0  0  0  0  0  2  0  0  0  0  0  0
  197.4890  168.7720  146.0750 C   0  0  0  0  0  1  0  0  0  0  0  0
  1 23  1  6  0  0  0
  1 13  1  0  0  0  0
  2  8  1  0  0  0  0
  2  5  1  0  0  0  0
  2 20  1  0  0  0  0
  3 17  1  6  0  0  0
  3  4  1  0  0  0  0
  4 21  1  0  0  0  0
  4 19  1  0  0  0  0
  6  1  1  0  0  0  0
  6 12  1  0  0  0  0
  7  2  1  0  0  0  0
  8 11  1  0  0  0  0
  9  6  2  0  0  0  0
 10  7  1  0  0  0  0
 10 19  1  0  0  0  0
 12 18  2  0  0  0  0
 13 18  1  0  0  0  0
 13 21  1  0  0  0  0
 14  3  1  0  0  0  0
 14 10  1  0  0  0  0
 15  7  1  0  0  0  0
 18 22  1  0  0  0  0
 19  8  1  0  0  0  0
 21 16  1  0  0  0  0
 22 25  1  0  0  0  0
 23 17  1  0  0  0  0
 25 24  1  0  0  0  0
 25 30  1  0  0  0  0
 26 29  1  0  0  0  0
 27 25  1  0  0  0  0
 28 24  1  0  0  0  0
 29 27  1  0  0  0  0
 29 28  1  0  0  0  0
 31 14  1  0  0  0  0
 32 31  2  0  0  0  0
 33 31  1  0  0  0  0
 34 35  1  0  0  0  0
 35 33  1  0  0  0  0
 36 35  1  0  0  0  0
 36 50  1  0  0  0  0
 37 36  1  0  0  0  0
 38 46  2  0  0  0  0
 39 50  1  0  0  0  0
 39 41  2  0  0  0  0
 40 42  2  0  0  0  0
 41 40  1  0  0  0  0
 42 44  1  0  0  0  0
 43 45  1  0  0  0  0
 44 48  1  0  0  0  0
 45 48  1  0  0  0  0
 45 53  1  0  0  0  0
 46 49  1  0  0  0  0
 46 42  1  0  0  0  0
 48 47  2  0  0  0  0
 49 43  1  0  0  0  0
 50 38  1  0  0  0  0
 51 52  2  0  0  0  0
 52 54  1  0  0  0  0
 53 52  1  0  0  0  0
M  END
>  <MODEL>
7

>  <REMARK>
 VINA RESULT:      -7.8      1.753      4.828
  Name = 
  7 active torsions:
  status: ('A' for Active; 'I' for Inactive)
    1  A    between atoms: C_5  and  C_33
    2  A    between atoms: C_5  and  C_52
    3  A    between atoms: C_6  and  N_53
    4  A    between atoms: C_26  and  N_49
    5  A    between atoms: C_37  and  C_44
    6  A    between atoms: C_37  and  C_48
    7  A    between atoms: C_44  and  C_52
                            x       y       z     vdW  Elec       q    Type
                         _______ _______ _______ _____ _____    ______ ____

>  <TORSDO>
F 7

$$$$
=
 OpenBabel11062419113D

 54 60  0  0  1  0  0  0  0  0999 V2000
  190.1080  174.7730  144.3030 C   0  0  2  0  0  3  0  0  0  0  0  0
  190.3570  171.2130  138.7110 C   0  0  0  0  0  0  0  0  0  0  0  0
  191.3250  172.8260  142.7150 C   0  0  2  0  0  3  0  0  0  0  0  0
  190.4760  173.5190  141.6080 C   0  0  1  0  0  3  0  0  0  0  0  0
  189.2110  170.5550  138.2920 F   0  0  0  0  0  0  0  0  0  0  0  0
  189.6080  175.7940  145.2510 C   0  0  0  0  0  0  0  0  0  0  0  0
  191.0910  170.4550  139.8270 C   0  0  1  0  0  3  0  0  0  0  0  0
  189.9820  172.4980  139.3660 C   0  0  2  0  0  3  0  0  0  0  0  0
  190.2270  176.1770  146.2770 O   0  0  0  0  0  0  0  0  0  0  0  0
  190.6090  171.0980  141.1210 C   0  0  1  0  0  3  0  0  0  0  0  0
  189.8880  173.7930  138.6210 C   0  0  0  0  0  1  0  0  0  0  0  0
  188.3880  176.3720  144.8290 N   0  0  0  0  0  0  0  0  0  0  0  0
  188.8980  174.5880  143.3870 C   0  0  1  0  0  3  0  0  0  0  0  0
  191.7590  171.5120  142.0310 C   0  0  2  0  0  3  0  0  0  0  0  0
  190.7990  168.9620  139.8250 C   0  0  0  0  0  1  0  0  0  0  0  0
  188.3020  174.5140  141.0700 O   0  0  0  0  0  1  0  0  0  0  0  0
  190.5220  172.5170  144.0010 C   0  0  0  0  0  2  0  0  0  0  0  0
  188.0160  175.7450  143.7610 C   0  0  0  0  0  0  0  0  0  0  0  0
  190.0800  172.4040  140.6900 C   0  0  1  0  0  3  0  0  0  0  0  0
  191.2060  171.4230  137.6380 F   0  0  0  0  0  0  0  0  0  0  0  0
  189.3880  174.5920  141.9440 C   0  0  2  0  0  3  0  0  0  0  0  0
  186.7870  176.0350  143.0860 N   0  0  0  0  0  2  0  0  0  0  0  0
  190.4920  173.5770  144.9430 O   0  0  0  0  0  0  0  0  0  0  0  0
  185.2480  176.8770  144.8030 C   0  0  0  0  0  2  0  0  0  0  0  0
  185.8660  177.1140  143.4390 C   0  0  1  0  0  0  0  0  0  0  0  0
  185.7720  180.3810  144.6270 F   0  0  0  0  0  0  0  0  0  0  0  0
  186.5890  178.4490  143.5090 C   0  0  0  0  0  2  0  0  0  0  0  0
  185.0870  178.2510  145.4140 C   0  0  0  0  0  2  0  0  0  0  0  0
  186.2100  179.0860  144.8340 C   0  0  2  0  0  3  0  0  0  0  0  0
  184.8550  177.1890  142.4820 O   0  0  0  0  0  1  0  0  0  0  0  0
  192.2860  170.4130  142.9190 C   0  0  0  0  0  0  0  0  0  0  0  0
  191.6400  170.0400  144.0270 C   0  0  0  0  0  2  0  0  0  0  0  0
  193.4160  169.5770  142.4150 C   0  0  0  0  0  2  0  0  0  0  0  0
  194.4530  169.9390  140.1710 C   0  0  0  0  0  1  0  0  0  0  0  0
  194.4110  170.4130  141.6130 C   0  0  2  0  0  3  0  0  0  0  0  0
  195.8170  170.3700  142.2170 C   0  0  2  0  0  3  0  0  0  0  0  0
  196.1730  169.0730  142.6040 O   0  0  0  0  0  1  0  0  0  0  0  0
  195.7490  172.7530  142.8840 C   0  0  0  0  0  3  0  0  0  0  0  0
  197.3040  171.2650  143.9660 N   0  0  0  0  0  0  0  0  0  0  0  0
  196.7840  172.8710  145.7340 C   0  0  0  0  0  3  0  0  0  0  0  0
  197.6620  171.9160  145.0300 C   0  0  0  0  0  3  0  0  0  0  0  0
  195.8690  173.6820  145.1850 C   0  0  0  0  0  0  0  0  0  0  0  0
  195.1110  176.2820  143.8740 C   0  0  0  0  0  2  0  0  0  0  0  0
  195.0380  174.4000  146.1100 N   0  0  0  0  0  2  0  0  0  0  0  0
  193.7690  175.9350  144.4880 C   0  0  1  0  0  3  0  0  0  0  0  0
  195.6900  173.8070  143.7000 C   0  0  0  0  0  0  0  0  0  0  0  0
  193.1390  175.5530  146.7600 O   0  0  0  0  0  0  0  0  0  0  0  0
  193.9600  175.3040  145.8380 C   0  0  0  0  0  0  0  0  0  0  0  0
  195.6020  175.1370  143.0090 C   0  0  0  0  0  2  0  0  0  0  0  0
  195.9760  171.3620  143.3710 C   0  0  2  0  0  3  0  0  0  0  0  0
  191.9500  176.9240  142.4330 O   0  0  0  0  0  0  0  0  0  0  0  0
  192.0460  177.5690  143.5110 C   0  0  0  0  0  0  0  0  0  0  0  0
  192.9180  177.1250  144.5560 N   0  0  0  0  0  2  0  0  0  0  0  0
  191.2420  178.8030  143.7040 C   0  0  0  0  0  1  0  0  0  0  0  0
  1 23  1  1  0  0  0
  1  6  1  0  0  0  0
  2  8  1  0  0  0  0
  2  7  1  0  0  0  0
  3 17  1  1  0  0  0
  4 21  1  0  0  0  0
  4  3  1  0  0  0  0
  5  2  1  0  0  0  0
  6  9  2  0  0  0  0
  7 10  1  0  0  0  0
  8 19  1  0  0  0  0
 10 14  1  0  0  0  0
 11  8  1  0  0  0  0
 12  6  1  0  0  0  0
 13 18  1  0  0  0  0
 13  1  1  0  0  0  0
 14  3  1  0  0  0  0
 14 31  1  0  0  0  0
 15  7  1  0  0  0  0
 16 21  1  0  0  0  0
 17 23  1  0  0  0  0
 18 12  2  0  0  0  0
 19 10  1  0  0  0  0
 19  4  1  0  0  0  0
 20  2  1  0  0  0  0
 21 13  1  0  0  0  0
 22 25  1  0  0  0  0
 22 18  1  0  0  0  0
 24 28  1  0  0  0  0
 25 27  1  0  0  0  0
 25 24  1  0  0  0  0
 26 29  1  0  0  0  0
 27 29  1  0  0  0  0
 29 28  1  0  0  0  0
 30 25  1  0  0  0  0
 31 32  2  0  0  0  0
 33 31  1  0  0  0  0
 34 35  1  0  0  0  0
 35 36  1  0  0  0  0
 35 33  1  0  0  0  0
 36 37  1  0  0  0  0
 36 50  1  0  0  0  0
 38 50  1  0  0  0  0
 38 46  2  0  0  0  0
 39 41  2  0  0  0  0
 41 40  1  0  0  0  0
 42 40  2  0  0  0  0
 42 44  1  0  0  0  0
 43 45  1  0  0  0  0
 45 53  1  0  0  0  0
 45 48  1  0  0  0  0
 46 42  1  0  0  0  0
 48 44  1  0  0  0  0
 48 47  2  0  0  0  0
 49 46  1  0  0  0  0
 49 43  1  0  0  0  0
 50 39  1  0  0  0  0
 51 52  2  0  0  0  0
 52 54  1  0  0  0  0
 52 53  1  0  0  0  0
M  END
>  <MODEL>
8

>  <REMARK>
 VINA RESULT:      -7.8      3.218      6.335
  Name = 
  7 active torsions:
  status: ('A' for Active; 'I' for Inactive)
    1  A    between atoms: C_5  and  C_33
    2  A    between atoms: C_5  and  C_52
    3  A    between atoms: C_6  and  N_53
    4  A    between atoms: C_26  and  N_49
    5  A    between atoms: C_37  and  C_44
    6  A    between atoms: C_37  and  C_48
    7  A    between atoms: C_44  and  C_52
                            x       y       z     vdW  Elec       q    Type
                         _______ _______ _______ _____ _____    ______ ____

>  <TORSDO>
F 7

$$$$
=
 OpenBabel11062419113D

 54 60  0  0  1  0  0  0  0  0999 V2000
  189.2810  173.4050  141.4960 C   0  0  2  0  0  3  0  0  0  0  0  0
  195.3260  176.1360  141.5840 C   0  0  0  0  0  0  0  0  0  0  0  0
  192.0240  173.2510  140.9980 C   0  0  2  0  0  3  0  0  0  0  0  0
  192.0410  174.4680  141.9710 C   0  0  1  0  0  3  0  0  0  0  0  0
  195.4950  177.3910  141.0190 F   0  0  0  0  0  0  0  0  0  0  0  0
  187.8230  173.3100  141.7270 C   0  0  0  0  0  0  0  0  0  0  0  0
  195.2900  175.0210  140.5290 C   0  0  1  0  0  3  0  0  0  0  0  0
  193.9780  176.0510  142.2120 C   0  0  2  0  0  3  0  0  0  0  0  0
  187.1540  172.2480  141.6310 O   0  0  0  0  0  0  0  0  0  0  0  0
  193.8090  174.7740  140.2680 C   0  0  1  0  0  3  0  0  0  0  0  0
  193.7270  176.3870  143.6490 C   0  0  0  0  0  1  0  0  0  0  0  0
  187.2630  174.5340  142.1620 N   0  0  0  0  0  0  0  0  0  0  0  0
  189.5040  174.9160  141.5700 C   0  0  1  0  0  3  0  0  0  0  0  0
  193.4350  173.3010  140.3740 C   0  0  2  0  0  3  0  0  0  0  0  0
  196.0080  175.3950  139.2420 C   0  0  0  0  0  1  0  0  0  0  0  0
  190.9140  176.5490  142.6060 O   0  0  0  0  0  1  0  0  0  0  0  0
  190.9480  173.3650  139.8920 C   0  0  0  0  0  2  0  0  0  0  0  0
  188.2050  175.4180  142.1320 C   0  0  0  0  0  0  0  0  0  0  0  0
  193.1440  175.3400  141.4550 C   0  0  1  0  0  3  0  0  0  0  0  0
  196.3290  175.8890  142.5050 F   0  0  0  0  0  0  0  0  0  0  0  0
  190.7270  175.1750  142.4410 C   0  0  2  0  0  3  0  0  0  0  0  0
  187.9820  176.7940  142.4640 N   0  0  0  0  0  2  0  0  0  0  0  0
  189.6750  172.8580  140.2580 O   0  0  0  0  0  0  0  0  0  0  0  0
  186.2140  176.5470  144.1490 C   0  0  0  0  0  2  0  0  0  0  0  0
  186.7260  177.3460  142.9660 C   0  0  1  0  0  0  0  0  0  0  0  0
  185.4250  179.9210  144.9090 F   0  0  0  0  0  0  0  0  0  0  0  0
  186.9100  178.7760  143.4470 C   0  0  0  0  0  2  0  0  0  0  0  0
  185.5520  177.5570  145.0590 C   0  0  0  0  0  2  0  0  0  0  0  0
  186.3020  178.8540  144.8370 C   0  0  2  0  0  3  0  0  0  0  0  0
  185.7730  177.3240  141.9480 O   0  0  0  0  0  1  0  0  0  0  0  0
  193.6610  172.5030  139.1150 C   0  0  0  0  0  0  0  0  0  0  0  0
  193.2550  172.9480  137.9230 C   0  0  0  0  0  2  0  0  0  0  0  0
  194.5640  171.3150  139.1830 C   0  0  0  0  0  2  0  0  0  0  0  0
  196.7510  170.9790  138.0200 C   0  0  0  0  0  1  0  0  0  0  0  0
  196.0330  171.7300  139.1280 C   0  0  2  0  0  3  0  0  0  0  0  0
  196.7470  171.4990  140.4620 C   0  0  2  0  0  3  0  0  0  0  0  0
  197.8720  170.6830  140.3100 O   0  0  0  0  0  1  0  0  0  0  0  0
  195.6960  171.9200  142.6630 C   0  0  0  0  0  3  0  0  0  0  0  0
  196.2610  169.6650  142.0330 N   0  0  0  0  0  0  0  0  0  0  0  0
  194.2900  169.3470  143.4440 C   0  0  0  0  0  3  0  0  0  0  0  0
  195.5840  168.9350  142.8660 C   0  0  0  0  0  3  0  0  0  0  0  0
  193.9080  170.5920  143.7630 C   0  0  0  0  0  0  0  0  0  0  0  0
  193.7860  172.8850  145.7070 C   0  0  0  0  0  2  0  0  0  0  0  0
  192.5370  170.7390  144.1640 N   0  0  0  0  0  2  0  0  0  0  0  0
  192.5400  173.1990  144.9040 C   0  0  1  0  0  3  0  0  0  0  0  0
  194.8360  171.7680  143.6720 C   0  0  0  0  0  0  0  0  0  0  0  0
  190.5690  171.9100  144.5050 O   0  0  0  0  0  0  0  0  0  0  0  0
  191.8280  171.9310  144.5270 C   0  0  0  0  0  0  0  0  0  0  0  0
  194.9850  172.7630  144.7870 C   0  0  0  0  0  2  0  0  0  0  0  0
  195.7990  170.9550  141.5330 C   0  0  2  0  0  3  0  0  0  0  0  0
  193.3600  175.2910  146.7630 O   0  0  0  0  0  0  0  0  0  0  0  0
  192.1290  175.1200  146.5570 C   0  0  0  0  0  0  0  0  0  0  0  0
  191.6710  174.1120  145.6500 N   0  0  0  0  0  2  0  0  0  0  0  0
  191.1400  175.9750  147.2610 C   0  0  0  0  0  1  0  0  0  0  0  0
  1 23  1  6  0  0  0
  1 13  1  0  0  0  0
  1  6  1  0  0  0  0
  2  8  1  0  0  0  0
  2 20  1  0  0  0  0
  3 17  1  6  0  0  0
  3  4  1  0  0  0  0
  4 21  1  0  0  0  0
  5  2  1  0  0  0  0
  6 12  1  0  0  0  0
  7  2  1  0  0  0  0
  8 11  1  0  0  0  0
  9  6  2  0  0  0  0
 10 14  1  0  0  0  0
 10  7  1  0  0  0  0
 10 19  1  0  0  0  0
 13 18  1  0  0  0  0
 13 21  1  0  0  0  0
 14  3  1  0  0  0  0
 15  7  1  0  0  0  0
 17 23  1  0  0  0  0
 18 12  2  0  0  0  0
 18 22  1  0  0  0  0
 19  4  1  0  0  0  0
 19  8  1  0  0  0  0
 21 16  1  0  0  0  0
 22 25  1  0  0  0  0
 24 28  1  0  0  0  0
 25 27  1  0  0  0  0
 25 24  1  0  0  0  0
 27 29  1  0  0  0  0
 29 26  1  0  0  0  0
 29 28  1  0  0  0  0
 30 25  1  0  0  0  0
 31 33  1  0  0  0  0
 31 14  1  0  0  0  0
 32 31  2  0  0  0  0
 34 35  1  0  0  0  0
 35 33  1  0  0  0  0
 35 36  1  0  0  0  0
 36 50  1  0  0  0  0
 37 36  1  0  0  0  0
 38 46  2  0  0  0  0
 39 41  2  0  0  0  0
 40 42  2  0  0  0  0
 41 40  1  0  0  0  0
 42 44  1  0  0  0  0
 44 48  1  0  0  0  0
 45 53  1  0  0  0  0
 45 43  1  0  0  0  0
 46 42  1  0  0  0  0
 46 49  1  0  0  0  0
 47 48  2  0  0  0  0
 48 45  1  0  0  0  0
 49 43  1  0  0  0  0
 50 39  1  0  0  0  0
 50 38  1  0  0  0  0
 52 51  2  0  0  0  0
 52 54  1  0  0  0  0
 53 52  1  0  0  0  0
M  END
>  <MODEL>
9

>  <REMARK>
 VINA RESULT:      -7.7      2.679      4.972
  Name = 
  7 active torsions:
  status: ('A' for Active; 'I' for Inactive)
    1  A    between atoms: C_5  and  C_33
    2  A    between atoms: C_5  and  C_52
    3  A    between atoms: C_6  and  N_53
    4  A    between atoms: C_26  and  N_49
    5  A    between atoms: C_37  and  C_44
    6  A    between atoms: C_37  and  C_48
    7  A    between atoms: C_44  and  C_52
                            x       y       z     vdW  Elec       q    Type
                         _______ _______ _______ _____ _____    ______ ____

>  <TORSDO>
F 7

$$$$
