=
 OpenBabel11062422253D

 36 39  0  0  1  0  0  0  0  0999 V2000
  190.3990  173.0900  141.5140 C   0  0  0  0  0  3  0  0  0  0  0  0
  188.5370  177.1920  142.3270 C   0  0  1  0  0  3  0  0  0  0  0  0
  187.2530  174.6540  142.3900 N   0  0  0  0  0  2  0  0  0  0  0  0
  190.6880  177.5210  142.9080 C   0  0  1  0  0  3  0  0  0  0  0  0
  189.2570  175.9120  142.2200 C   0  0  0  0  0  0  0  0  0  0  0  0
  191.6130  175.1200  142.4260 C   0  0  0  0  0  3  0  0  0  0  0  0
  187.2080  177.0040  143.0180 C   0  0  0  0  0  0  0  0  0  0  0  0
  188.5150  174.6550  142.0680 C   0  0  0  0  0  0  0  0  0  0  0  0
  189.1060  173.4160  141.5560 C   0  0  0  0  0  3  0  0  0  0  0  0
  190.5170  176.1000  142.4940 C   0  0  0  0  0  0  0  0  0  0  0  0
  186.5900  175.8120  142.9420 C   0  0  0  0  0  3  0  0  0  0  0  0
  191.5590  173.8580  141.9970 C   0  0  0  0  0  2  0  0  0  0  0  0
  189.3930  178.0900  142.9930 O   0  0  0  0  0  0  0  0  0  0  0  0
  186.5040  178.1360  143.5470 N   0  0  0  0  0  0  0  0  0  0  0  0
  186.4680  178.3940  144.9610 C   0  0  0  0  0  0  0  0  0  0  0  0
  185.9360  179.4540  145.3900 O   0  0  0  0  0  0  0  0  0  0  0  0
  187.0040  177.3890  145.9420 C   0  0  1  0  0  3  0  0  0  0  0  0
  188.1460  177.8940  146.5690 O   0  0  0  0  0  1  0  0  0  0  0  0
  184.8630  176.4220  146.3500 F   0  0  0  0  0  0  0  0  0  0  0  0
  186.5000  176.0630  147.8470 F   0  0  0  0  0  0  0  0  0  0  0  0
  185.9560  176.9890  146.9790 C   0  0  0  0  0  0  0  0  0  0  0  0
  185.5440  178.0960  147.6980 F   0  0  0  0  0  0  0  0  0  0  0  0
  185.8570  179.0110  142.6600 N   0  0  0  0  0  2  0  0  0  0  0  0
  184.5410  178.4630  142.3780 C   0  0  0  0  0  2  0  0  0  0  0  0
  182.9250  178.2120  140.5250 C   0  0  0  0  0  1  0  0  0  0  0  0
  184.3930  178.2400  140.8880 C   0  0  0  0  0  2  0  0  0  0  0  0
  191.3580  177.6220  144.2730 C   0  0  0  0  0  2  0  0  0  0  0  0
  190.6980  176.7420  145.2250 N   0  0  0  0  0  2  0  0  0  0  0  0
  191.8090  174.6830  145.9060 C   0  0  0  0  0  2  0  0  0  0  0  0
  191.7280  176.1860  146.0880 C   0  0  1  0  0  3  0  0  0  0  0  0
  193.2660  174.3160  146.1130 C   0  0  0  0  0  2  0  0  0  0  0  0
  193.0820  176.7140  145.6770 C   0  0  0  0  0  2  0  0  0  0  0  0
  194.0660  175.6020  145.9810 C   0  0  2  0  0  3  0  0  0  0  0  0
  194.9430  176.1470  143.8340 O   0  0  0  0  0  0  0  0  0  0  0  0
  195.0830  175.4840  144.8960 C   0  0  0  0  0  0  0  0  0  0  0  0
  196.1980  174.6690  145.0560 O   0  0  0  0  0  1  0  0  0  0  0  0
  1  9  2  0  0  0  0
  1 12  1  0  0  0  0
  2  5  1  1  0  0  0
  2 13  1  0  0  0  0
  2  7  1  0  0  0  0
  3 11  1  0  0  0  0
  4 13  1  0  0  0  0
  4 27  1  1  0  0  0
  5 10  1  0  0  0  0
  6 10  2  0  0  0  0
  7 14  1  0  0  0  0
  8  5  2  0  0  0  0
  8  3  1  0  0  0  0
  9  8  1  0  0  0  0
 10  4  1  0  0  0  0
 11  7  2  0  0  0  0
 12  6  1  0  0  0  0
 14 15  1  0  0  0  0
 15 16  2  0  0  0  0
 15 17  1  0  0  0  0
 17 18  1  1  0  0  0
 17 21  1  0  0  0  0
 19 21  1  0  0  0  0
 21 22  1  0  0  0  0
 21 20  1  0  0  0  0
 23 14  1  0  0  0  0
 24 23  1  0  0  0  0
 25 26  1  0  0  0  0
 26 24  1  0  0  0  0
 27 28  1  0  0  0  0
 29 30  1  0  0  0  0
 29 31  1  0  0  0  0
 30 28  1  6  0  0  0
 32 33  1  0  0  0  0
 32 30  1  0  0  0  0
 33 35  1  6  0  0  0
 33 31  1  0  0  0  0
 34 35  2  0  0  0  0
 35 36  1  0  0  0  0
M  END
>  <MODEL>
1

>  <REMARK>
 VINA RESULT:      -7.3      0.000      0.000
  Name = 
  10 active torsions:
  status: ('A' for Active; 'I' for Inactive)
    1  A    between atoms: N_1  and  C_6
    2  A    between atoms: N_1  and  C_24
    3  A    between atoms: N_7  and  C_17
    4  A    between atoms: N_7  and  N_36
    5  A    between atoms: C_10  and  C_24
    6  A    between atoms: C_12  and  C_16
    7  A    between atoms: C_12  and  C_20
    8  A    between atoms: C_13  and  C_28
    9  A    between atoms: C_13  and  N_36
   10  A    between atoms: C_25  and  C_35
                            x       y       z     vdW  Elec       q    Type
                         _______ _______ _______ _____ _____    ______ ____

>  <TORSDO>
F 10

$$$$
=
 OpenBabel11062422253D

 36 39  0  0  1  0  0  0  0  0999 V2000
  188.0620  175.7220  147.3220 C   0  0  0  0  0  3  0  0  0  0  0  0
  191.5990  175.9980  144.4310 C   0  0  1  0  0  3  0  0  0  0  0  0
  190.4520  173.6510  145.5580 N   0  0  0  0  0  2  0  0  0  0  0  0
  190.4190  177.8470  143.9180 C   0  0  1  0  0  3  0  0  0  0  0  0
  190.3540  175.9970  145.2160 C   0  0  0  0  0  0  0  0  0  0  0  0
  188.4400  177.5470  145.6040 C   0  0  0  0  0  3  0  0  0  0  0  0
  191.8590  174.6350  143.8340 C   0  0  0  0  0  0  0  0  0  0  0  0
  189.9260  174.7850  145.9260 C   0  0  0  0  0  0  0  0  0  0  0  0
  188.9650  174.7840  147.0310 C   0  0  0  0  0  2  0  0  0  0  0  0
  189.6900  177.0920  144.9760 C   0  0  0  0  0  0  0  0  0  0  0  0
  191.3760  173.5440  144.4540 C   0  0  0  0  0  3  0  0  0  0  0  0
  187.7680  176.9730  146.6040 C   0  0  0  0  0  3  0  0  0  0  0  0
  191.4750  177.0180  143.4670 O   0  0  0  0  0  0  0  0  0  0  0  0
  192.7960  174.4860  142.7600 N   0  0  0  0  0  0  0  0  0  0  0  0
  194.1750  174.1650  143.0160 C   0  0  0  0  0  0  0  0  0  0  0  0
  194.9520  173.9320  142.0500 O   0  0  0  0  0  0  0  0  0  0  0  0
  194.7180  174.1610  144.4170 C   0  0  1  0  0  3  0  0  0  0  0  0
  195.5710  173.0690  144.5970 O   0  0  0  0  0  1  0  0  0  0  0  0
  195.3270  175.7320  146.1050 F   0  0  0  0  0  0  0  0  0  0  0  0
  196.7770  175.3440  144.4330 F   0  0  0  0  0  0  0  0  0  0  0  0
  195.4390  175.4650  144.7530 C   0  0  0  0  0  0  0  0  0  0  0  0
  194.8960  176.5140  144.0350 F   0  0  0  0  0  0  0  0  0  0  0  0
  192.3490  174.6400  141.4380 N   0  0  0  0  0  2  0  0  0  0  0  0
  191.6550  173.4200  141.0600 C   0  0  0  0  0  2  0  0  0  0  0  0
  189.2450  173.0150  141.4350 C   0  0  0  0  0  1  0  0  0  0  0  0
  190.2560  173.7580  140.5890 C   0  0  0  0  0  2  0  0  0  0  0  0
  189.5080  178.1650  142.7390 C   0  0  0  0  0  2  0  0  0  0  0  0
  189.1310  176.9410  142.0480 N   0  0  0  0  0  2  0  0  0  0  0  0
  186.9770  176.0070  142.7010 C   0  0  0  0  0  2  0  0  0  0  0  0
  187.6980  177.0000  141.8110 C   0  0  1  0  0  3  0  0  0  0  0  0
  185.6360  176.6360  143.0260 C   0  0  0  0  0  2  0  0  0  0  0  0
  187.1670  178.3570  142.2100 C   0  0  0  0  0  2  0  0  0  0  0  0
  185.7540  178.1160  142.7040 C   0  0  2  0  0  3  0  0  0  0  0  0
  185.7220  180.1790  143.8950 O   0  0  0  0  0  0  0  0  0  0  0  0
  185.4660  178.9460  143.9090 C   0  0  0  0  0  0  0  0  0  0  0  0
  184.8910  178.3760  145.0400 O   0  0  0  0  0  1  0  0  0  0  0  0
  2 13  1  6  0  0  0
  2  5  1  0  0  0  0
  3  8  1  0  0  0  0
  4 27  1  6  0  0  0
  4 10  1  0  0  0  0
  5  8  2  0  0  0  0
  6 12  1  0  0  0  0
  7  2  1  0  0  0  0
  7 11  2  0  0  0  0
  8  9  1  0  0  0  0
  9  1  1  0  0  0  0
 10  5  1  0  0  0  0
 10  6  2  0  0  0  0
 11  3  1  0  0  0  0
 12  1  2  0  0  0  0
 13  4  1  0  0  0  0
 14 15  1  0  0  0  0
 14  7  1  0  0  0  0
 15 17  1  0  0  0  0
 16 15  2  0  0  0  0
 17 18  1  6  0  0  0
 17 21  1  0  0  0  0
 20 21  1  0  0  0  0
 21 19  1  0  0  0  0
 22 21  1  0  0  0  0
 23 14  1  0  0  0  0
 24 23  1  0  0  0  0
 26 24  1  0  0  0  0
 26 25  1  0  0  0  0
 28 27  1  0  0  0  0
 29 31  1  0  0  0  0
 30 28  1  1  0  0  0
 30 32  1  0  0  0  0
 30 29  1  0  0  0  0
 32 33  1  0  0  0  0
 33 31  1  0  0  0  0
 33 35  1  1  0  0  0
 34 35  2  0  0  0  0
 35 36  1  0  0  0  0
M  END
>  <MODEL>
2

>  <REMARK>
 VINA RESULT:      -7.2      3.477      7.520
  Name = 
  10 active torsions:
  status: ('A' for Active; 'I' for Inactive)
    1  A    between atoms: N_1  and  C_6
    2  A    between atoms: N_1  and  C_24
    3  A    between atoms: N_7  and  C_17
    4  A    between atoms: N_7  and  N_36
    5  A    between atoms: C_10  and  C_24
    6  A    between atoms: C_12  and  C_16
    7  A    between atoms: C_12  and  C_20
    8  A    between atoms: C_13  and  C_28
    9  A    between atoms: C_13  and  N_36
   10  A    between atoms: C_25  and  C_35
                            x       y       z     vdW  Elec       q    Type
                         _______ _______ _______ _____ _____    ______ ____

>  <TORSDO>
F 10

$$$$
=
 OpenBabel11062422253D

 36 39  0  0  1  0  0  0  0  0999 V2000
  188.4380  175.9960  147.1570 C   0  0  0  0  0  3  0  0  0  0  0  0
  190.9920  175.5480  143.3860 C   0  0  1  0  0  3  0  0  0  0  0  0
  189.8100  173.4810  144.9420 N   0  0  0  0  0  2  0  0  0  0  0  0
  190.0690  177.5830  143.0980 C   0  0  1  0  0  3  0  0  0  0  0  0
  190.0440  175.7970  144.4840 C   0  0  0  0  0  0  0  0  0  0  0  0
  188.6330  177.6920  145.2830 C   0  0  0  0  0  3  0  0  0  0  0  0
  190.8200  174.1530  142.8340 C   0  0  0  0  0  0  0  0  0  0  0  0
  189.6250  174.7000  145.3640 C   0  0  0  0  0  0  0  0  0  0  0  0
  189.0350  174.8980  146.6900 C   0  0  0  0  0  2  0  0  0  0  0  0
  189.5480  176.9960  144.3650 C   0  0  0  0  0  0  0  0  0  0  0  0
  190.3450  173.1840  143.6350 C   0  0  0  0  0  3  0  0  0  0  0  0
  188.1820  177.2710  146.4660 C   0  0  0  0  0  3  0  0  0  0  0  0
  190.7850  176.5600  142.4280 O   0  0  0  0  0  0  0  0  0  0  0  0
  191.3700  173.8120  141.5550 N   0  0  0  0  0  0  0  0  0  0  0  0
  190.5520  173.8090  140.3720 C   0  0  0  0  0  0  0  0  0  0  0  0
  191.0840  173.6120  139.2450 O   0  0  0  0  0  0  0  0  0  0  0  0
  189.0620  173.9800  140.4640 C   0  0  1  0  0  3  0  0  0  0  0  0
  188.5820  174.6220  139.3190 O   0  0  0  0  0  1  0  0  0  0  0  0
  187.6040  172.3300  139.5480 F   0  0  0  0  0  0  0  0  0  0  0  0
  189.2830  171.6520  140.8780 F   0  0  0  0  0  0  0  0  0  0  0  0
  188.3470  172.6460  140.6700 C   0  0  0  0  0  0  0  0  0  0  0  0
  187.5090  172.7140  141.7670 F   0  0  0  0  0  0  0  0  0  0  0  0
  192.7340  173.4930  141.4620 N   0  0  0  0  0  2  0  0  0  0  0  0
  193.4780  174.7400  141.3990 C   0  0  0  0  0  2  0  0  0  0  0  0
  194.7040  176.0240  143.1190 C   0  0  0  0  0  1  0  0  0  0  0  0
  194.6200  174.6990  142.3920 C   0  0  0  0  0  2  0  0  0  0  0  0
  188.9330  178.0540  142.1990 C   0  0  0  0  0  2  0  0  0  0  0  0
  188.3120  176.9190  141.5320 N   0  0  0  0  0  2  0  0  0  0  0  0
  186.4640  176.1490  142.9210 C   0  0  0  0  0  2  0  0  0  0  0  0
  186.8780  177.0190  141.7510 C   0  0  1  0  0  3  0  0  0  0  0  0
  185.3020  176.8640  143.5810 C   0  0  0  0  0  2  0  0  0  0  0  0
  186.5170  178.4300  142.1510 C   0  0  0  0  0  2  0  0  0  0  0  0
  185.3290  178.3000  143.0840 C   0  0  2  0  0  3  0  0  0  0  0  0
  185.7190  180.4630  144.0030 O   0  0  0  0  0  0  0  0  0  0  0  0
  185.4460  179.2530  144.2250 C   0  0  0  0  0  0  0  0  0  0  0  0
  185.2290  178.8260  145.5300 O   0  0  0  0  0  1  0  0  0  0  0  0
  2 13  1  6  0  0  0
  2  5  1  0  0  0  0
  3  8  1  0  0  0  0
  4 27  1  6  0  0  0
  4 10  1  0  0  0  0
  5  8  2  0  0  0  0
  6 12  1  0  0  0  0
  7  2  1  0  0  0  0
  7 11  2  0  0  0  0
  8  9  1  0  0  0  0
  9  1  1  0  0  0  0
 10  5  1  0  0  0  0
 10  6  2  0  0  0  0
 11  3  1  0  0  0  0
 12  1  2  0  0  0  0
 13  4  1  0  0  0  0
 14  7  1  0  0  0  0
 15 17  1  0  0  0  0
 15 14  1  0  0  0  0
 16 15  2  0  0  0  0
 17 18  1  6  0  0  0
 17 21  1  0  0  0  0
 19 21  1  0  0  0  0
 21 20  1  0  0  0  0
 21 22  1  0  0  0  0
 23 14  1  0  0  0  0
 24 23  1  0  0  0  0
 24 26  1  0  0  0  0
 26 25  1  0  0  0  0
 28 27  1  0  0  0  0
 29 31  1  0  0  0  0
 30 28  1  1  0  0  0
 30 32  1  0  0  0  0
 30 29  1  0  0  0  0
 32 33  1  0  0  0  0
 33 31  1  0  0  0  0
 33 35  1  1  0  0  0
 34 35  2  0  0  0  0
 35 36  1  0  0  0  0
M  END
>  <MODEL>
3

>  <REMARK>
 VINA RESULT:      -7.1      3.311      7.374
  Name = 
  10 active torsions:
  status: ('A' for Active; 'I' for Inactive)
    1  A    between atoms: N_1  and  C_6
    2  A    between atoms: N_1  and  C_24
    3  A    between atoms: N_7  and  C_17
    4  A    between atoms: N_7  and  N_36
    5  A    between atoms: C_10  and  C_24
    6  A    between atoms: C_12  and  C_16
    7  A    between atoms: C_12  and  C_20
    8  A    between atoms: C_13  and  C_28
    9  A    between atoms: C_13  and  N_36
   10  A    between atoms: C_25  and  C_35
                            x       y       z     vdW  Elec       q    Type
                         _______ _______ _______ _____ _____    ______ ____

>  <TORSDO>
F 10

$$$$
=
 OpenBabel11062422253D

 36 39  0  0  1  0  0  0  0  0999 V2000
  194.2390  175.8030  145.3880 C   0  0  0  0  0  3  0  0  0  0  0  0
  189.6920  175.3890  145.7070 C   0  0  1  0  0  3  0  0  0  0  0  0
  191.1800  177.6820  144.9200 N   0  0  0  0  0  2  0  0  0  0  0  0
  190.3350  173.2720  145.2810 C   0  0  1  0  0  3  0  0  0  0  0  0
  191.1450  175.3750  145.4690 C   0  0  0  0  0  0  0  0  0  0  0  0
  192.9170  173.6590  145.0960 C   0  0  0  0  0  3  0  0  0  0  0  0
  189.0380  176.5300  144.9670 C   0  0  0  0  0  0  0  0  0  0  0  0
  191.8730  176.6310  145.2540 C   0  0  0  0  0  0  0  0  0  0  0  0
  193.3220  176.7710  145.4140 C   0  0  0  0  0  2  0  0  0  0  0  0
  191.5410  174.1480  145.2820 C   0  0  0  0  0  0  0  0  0  0  0  0
  189.7540  177.6360  144.6980 C   0  0  0  0  0  3  0  0  0  0  0  0
  194.0500  174.3600  145.1590 C   0  0  0  0  0  3  0  0  0  0  0  0
  189.2020  174.1230  145.3320 O   0  0  0  0  0  0  0  0  0  0  0  0
  187.6190  176.5350  144.7590 N   0  0  0  0  0  0  0  0  0  0  0  0
  187.0620  176.4720  143.4350 C   0  0  0  0  0  0  0  0  0  0  0  0
  185.8140  176.3670  143.2860 O   0  0  0  0  0  0  0  0  0  0  0  0
  187.9420  176.5860  142.2220 C   0  0  1  0  0  3  0  0  0  0  0  0
  187.6080  175.5970  141.2930 O   0  0  0  0  0  1  0  0  0  0  0  0
  187.1090  178.8150  142.3850 F   0  0  0  0  0  0  0  0  0  0  0  0
  189.1260  178.4940  141.4500 F   0  0  0  0  0  0  0  0  0  0  0  0
  187.8550  177.9720  141.5840 C   0  0  0  0  0  0  0  0  0  0  0  0
  187.2670  177.8900  140.3360 F   0  0  0  0  0  0  0  0  0  0  0  0
  186.7670  176.5860  145.8740 N   0  0  0  0  0  2  0  0  0  0  0  0
  186.8610  177.9210  146.4430 C   0  0  0  0  0  2  0  0  0  0  0  0
  184.4050  178.1350  146.2680 C   0  0  0  0  0  1  0  0  0  0  0  0
  185.7300  178.7770  145.9160 C   0  0  0  0  0  2  0  0  0  0  0  0
  190.2610  172.4350  144.0100 C   0  0  0  0  0  2  0  0  0  0  0  0
  189.4920  173.1320  142.9900 N   0  0  0  0  0  2  0  0  0  0  0  0
  191.0850  174.5890  141.8620 C   0  0  0  0  0  2  0  0  0  0  0  0
  190.3450  173.2680  141.8210 C   0  0  1  0  0  3  0  0  0  0  0  0
  192.4270  174.3360  141.2010 C   0  0  0  0  0  2  0  0  0  0  0  0
  191.4170  172.2040  141.8410 C   0  0  0  0  0  2  0  0  0  0  0  0
  192.6280  172.8300  141.1770 C   0  0  2  0  0  3  0  0  0  0  0  0
  193.9470  171.3450  142.4920 O   0  0  0  0  0  1  0  0  0  0  0  0
  193.8800  172.4520  141.8950 C   0  0  0  0  0  0  0  0  0  0  0  0
  194.9830  173.2980  141.8890 O   0  0  0  0  0  0  0  0  0  0  0  0
  1  9  1  0  0  0  0
  2  7  1  6  0  0  0
  3  8  1  0  0  0  0
  4 27  1  6  0  0  0
  4 10  1  0  0  0  0
  4 13  1  0  0  0  0
  5  2  1  0  0  0  0
  6 12  1  0  0  0  0
  6 10  2  0  0  0  0
  8  9  1  0  0  0  0
  8  5  2  0  0  0  0
 10  5  1  0  0  0  0
 11  3  1  0  0  0  0
 11  7  2  0  0  0  0
 12  1  2  0  0  0  0
 13  2  1  0  0  0  0
 14  7  1  0  0  0  0
 14 23  1  0  0  0  0
 15 14  1  0  0  0  0
 16 15  2  0  0  0  0
 17 18  1  6  0  0  0
 17 15  1  0  0  0  0
 20 21  1  0  0  0  0
 21 17  1  0  0  0  0
 21 19  1  0  0  0  0
 22 21  1  0  0  0  0
 23 24  1  0  0  0  0
 26 25  1  0  0  0  0
 26 24  1  0  0  0  0
 28 27  1  0  0  0  0
 30 32  1  0  0  0  0
 30 29  1  0  0  0  0
 30 28  1  1  0  0  0
 31 29  1  0  0  0  0
 33 31  1  0  0  0  0
 33 32  1  0  0  0  0
 33 35  1  1  0  0  0
 35 34  1  0  0  0  0
 36 35  2  0  0  0  0
M  END
>  <MODEL>
4

>  <REMARK>
 VINA RESULT:      -7.0      2.749      4.920
  Name = 
  10 active torsions:
  status: ('A' for Active; 'I' for Inactive)
    1  A    between atoms: N_1  and  C_6
    2  A    between atoms: N_1  and  C_24
    3  A    between atoms: N_7  and  C_17
    4  A    between atoms: N_7  and  N_36
    5  A    between atoms: C_10  and  C_24
    6  A    between atoms: C_12  and  C_16
    7  A    between atoms: C_12  and  C_20
    8  A    between atoms: C_13  and  C_28
    9  A    between atoms: C_13  and  N_36
   10  A    between atoms: C_25  and  C_35
                            x       y       z     vdW  Elec       q    Type
                         _______ _______ _______ _____ _____    ______ ____

>  <TORSDO>
F 10

$$$$
=
 OpenBabel11062422253D

 36 39  0  0  1  0  0  0  0  0999 V2000
  188.4200  175.3500  147.3500 C   0  0  0  0  0  3  0  0  0  0  0  0
  190.8680  175.5680  143.4880 C   0  0  1  0  0  3  0  0  0  0  0  0
  190.4640  173.3080  145.1670 N   0  0  0  0  0  2  0  0  0  0  0  0
  189.3280  177.1810  143.1680 C   0  0  1  0  0  3  0  0  0  0  0  0
  189.9230  175.5510  144.6180 C   0  0  0  0  0  0  0  0  0  0  0  0
  188.0000  176.9270  145.4090 C   0  0  0  0  0  3  0  0  0  0  0  0
  191.1390  174.1670  142.9940 C   0  0  0  0  0  0  0  0  0  0  0  0
  189.9080  174.4210  145.5530 C   0  0  0  0  0  0  0  0  0  0  0  0
  189.3260  174.4820  146.8970 C   0  0  0  0  0  2  0  0  0  0  0  0
  189.0630  176.5190  144.4770 C   0  0  0  0  0  0  0  0  0  0  0  0
  191.0280  173.1360  143.8490 C   0  0  0  0  0  3  0  0  0  0  0  0
  187.7460  176.4400  146.6250 C   0  0  0  0  0  3  0  0  0  0  0  0
  190.3160  176.4120  142.5050 O   0  0  0  0  0  0  0  0  0  0  0  0
  191.7310  173.9600  141.7050 N   0  0  0  0  0  0  0  0  0  0  0  0
  193.1580  173.9140  141.5410 C   0  0  0  0  0  0  0  0  0  0  0  0
  193.6490  173.6220  140.4160 O   0  0  0  0  0  0  0  0  0  0  0  0
  194.0770  174.2660  142.6770 C   0  0  1  0  0  3  0  0  0  0  0  0
  195.1100  173.3290  142.7660 O   0  0  0  0  0  1  0  0  0  0  0  0
  194.9760  176.1810  143.7790 F   0  0  0  0  0  0  0  0  0  0  0  0
  195.7830  175.6360  141.7540 F   0  0  0  0  0  0  0  0  0  0  0  0
  194.6450  175.6770  142.5340 C   0  0  0  0  0  0  0  0  0  0  0  0
  193.7180  176.5100  141.9370 F   0  0  0  0  0  0  0  0  0  0  0  0
  190.8940  173.7830  140.5920 N   0  0  0  0  0  2  0  0  0  0  0  0
  190.1040  172.5830  140.8160 C   0  0  0  0  0  2  0  0  0  0  0  0
  187.9630  173.4690  141.6740 C   0  0  0  0  0  1  0  0  0  0  0  0
  188.6550  172.8580  140.4750 C   0  0  0  0  0  2  0  0  0  0  0  0
  188.0740  177.2180  142.3040 C   0  0  0  0  0  2  0  0  0  0  0  0
  187.6920  178.5950  142.0280 N   0  0  0  0  0  2  0  0  0  0  0  0
  185.6660  177.3320  142.5180 C   0  0  0  0  0  2  0  0  0  0  0  0
  186.2610  178.7030  142.2620 C   0  0  1  0  0  3  0  0  0  0  0  0
  184.5260  177.5480  143.4940 C   0  0  0  0  0  2  0  0  0  0  0  0
  186.0040  179.4950  143.5220 C   0  0  0  0  0  2  0  0  0  0  0  0
  184.7340  178.9190  144.1170 C   0  0  2  0  0  3  0  0  0  0  0  0
  184.0590  178.0640  146.2350 O   0  0  0  0  0  0  0  0  0  0  0  0
  184.8450  178.8150  145.6010 C   0  0  0  0  0  0  0  0  0  0  0  0
  185.8270  179.5200  146.2890 O   0  0  0  0  0  1  0  0  0  0  0  0
  2 13  1  6  0  0  0
  2  5  1  0  0  0  0
  3  8  1  0  0  0  0
  4 27  1  6  0  0  0
  4 10  1  0  0  0  0
  5  8  2  0  0  0  0
  6 12  1  0  0  0  0
  7  2  1  0  0  0  0
  7 11  2  0  0  0  0
  8  9  1  0  0  0  0
  9  1  1  0  0  0  0
 10  5  1  0  0  0  0
 10  6  2  0  0  0  0
 11  3  1  0  0  0  0
 12  1  2  0  0  0  0
 13  4  1  0  0  0  0
 14  7  1  0  0  0  0
 15 14  1  0  0  0  0
 15 17  1  0  0  0  0
 16 15  2  0  0  0  0
 17 18  1  6  0  0  0
 20 21  1  0  0  0  0
 21 17  1  0  0  0  0
 21 19  1  0  0  0  0
 22 21  1  0  0  0  0
 23 24  1  0  0  0  0
 23 14  1  0  0  0  0
 26 24  1  0  0  0  0
 26 25  1  0  0  0  0
 28 27  1  0  0  0  0
 29 31  1  0  0  0  0
 30 28  1  1  0  0  0
 30 29  1  0  0  0  0
 30 32  1  0  0  0  0
 31 33  1  0  0  0  0
 32 33  1  0  0  0  0
 33 35  1  1  0  0  0
 35 34  2  0  0  0  0
 35 36  1  0  0  0  0
M  END
>  <MODEL>
5

>  <REMARK>
 VINA RESULT:      -6.9      3.615      7.608
  Name = 
  10 active torsions:
  status: ('A' for Active; 'I' for Inactive)
    1  A    between atoms: N_1  and  C_6
    2  A    between atoms: N_1  and  C_24
    3  A    between atoms: N_7  and  C_17
    4  A    between atoms: N_7  and  N_36
    5  A    between atoms: C_10  and  C_24
    6  A    between atoms: C_12  and  C_16
    7  A    between atoms: C_12  and  C_20
    8  A    between atoms: C_13  and  C_28
    9  A    between atoms: C_13  and  N_36
   10  A    between atoms: C_25  and  C_35
                            x       y       z     vdW  Elec       q    Type
                         _______ _______ _______ _____ _____    ______ ____

>  <TORSDO>
F 10

$$$$
=
 OpenBabel11062422253D

 36 39  0  0  1  0  0  0  0  0999 V2000
  190.8170  176.6070  147.9440 C   0  0  0  0  0  3  0  0  0  0  0  0
  191.9430  176.3160  143.5170 C   0  0  1  0  0  3  0  0  0  0  0  0
  192.5970  174.4950  145.6020 N   0  0  0  0  0  2  0  0  0  0  0  0
  190.0290  177.5020  143.4460 C   0  0  1  0  0  3  0  0  0  0  0  0
  191.3900  176.4050  144.8790 C   0  0  0  0  0  0  0  0  0  0  0  0
  189.4930  177.5660  146.0070 C   0  0  0  0  0  3  0  0  0  0  0  0
  192.3990  174.9090  143.2140 C   0  0  0  0  0  0  0  0  0  0  0  0
  191.9180  175.5510  145.9500 C   0  0  0  0  0  0  0  0  0  0  0  0
  191.7420  175.8310  147.3770 C   0  0  0  0  0  2  0  0  0  0  0  0
  190.3160  177.1410  144.8630 C   0  0  0  0  0  0  0  0  0  0  0  0
  192.7890  174.1130  144.2240 C   0  0  0  0  0  3  0  0  0  0  0  0
  189.7200  177.3510  147.3040 C   0  0  0  0  0  3  0  0  0  0  0  0
  190.9460  176.7840  142.6390 O   0  0  0  0  0  0  0  0  0  0  0  0
  192.6340  174.5040  141.8590 N   0  0  0  0  0  0  0  0  0  0  0  0
  191.5690  173.9850  141.0430 C   0  0  0  0  0  0  0  0  0  0  0  0
  191.7790  173.7400  139.8230 O   0  0  0  0  0  0  0  0  0  0  0  0
  190.2240  173.6750  141.6360 C   0  0  1  0  0  3  0  0  0  0  0  0
  189.2110  174.1890  140.8220 O   0  0  0  0  0  1  0  0  0  0  0  0
  191.2550  171.5540  141.9880 F   0  0  0  0  0  0  0  0  0  0  0  0
  189.2970  171.9720  143.0070 F   0  0  0  0  0  0  0  0  0  0  0  0
  190.0280  172.1760  141.8530 C   0  0  0  0  0  0  0  0  0  0  0  0
  189.3500  171.6200  140.7840 F   0  0  0  0  0  0  0  0  0  0  0  0
  193.9240  174.6360  141.3220 N   0  0  0  0  0  2  0  0  0  0  0  0
  194.1940  176.0550  141.1590 C   0  0  0  0  0  2  0  0  0  0  0  0
  195.7450  176.3260  143.0640 C   0  0  0  0  0  1  0  0  0  0  0  0
  195.6260  176.3470  141.5560 C   0  0  0  0  0  2  0  0  0  0  0  0
  188.6130  177.1040  143.0490 C   0  0  0  0  0  2  0  0  0  0  0  0
  187.7880  178.2890  142.8660 N   0  0  0  0  0  2  0  0  0  0  0  0
  186.4690  176.6110  144.0420 C   0  0  0  0  0  2  0  0  0  0  0  0
  186.4920  178.0120  143.4640 C   0  0  1  0  0  3  0  0  0  0  0  0
  185.5630  176.6750  145.2560 C   0  0  0  0  0  2  0  0  0  0  0  0
  186.2600  178.9350  144.6370 C   0  0  0  0  0  2  0  0  0  0  0  0
  185.4220  178.1440  145.6220 C   0  0  2  0  0  3  0  0  0  0  0  0
  186.2260  177.4160  147.7430 O   0  0  0  0  0  1  0  0  0  0  0  0
  185.8790  178.3880  147.0210 C   0  0  0  0  0  0  0  0  0  0  0  0
  185.9510  179.6810  147.5270 O   0  0  0  0  0  0  0  0  0  0  0  0
  2 13  1  6  0  0  0
  2  5  1  0  0  0  0
  3  8  1  0  0  0  0
  4 27  1  6  0  0  0
  4 10  1  0  0  0  0
  5  8  2  0  0  0  0
  6 12  1  0  0  0  0
  7  2  1  0  0  0  0
  7 11  2  0  0  0  0
  8  9  1  0  0  0  0
  9  1  1  0  0  0  0
 10  5  1  0  0  0  0
 10  6  2  0  0  0  0
 11  3  1  0  0  0  0
 12  1  2  0  0  0  0
 13  4  1  0  0  0  0
 14  7  1  0  0  0  0
 15 17  1  0  0  0  0
 15 14  1  0  0  0  0
 16 15  2  0  0  0  0
 17 18  1  6  0  0  0
 17 21  1  0  0  0  0
 21 19  1  0  0  0  0
 21 20  1  0  0  0  0
 22 21  1  0  0  0  0
 23 14  1  0  0  0  0
 24 23  1  0  0  0  0
 24 26  1  0  0  0  0
 26 25  1  0  0  0  0
 28 27  1  0  0  0  0
 29 31  1  0  0  0  0
 30 28  1  1  0  0  0
 30 29  1  0  0  0  0
 30 32  1  0  0  0  0
 31 33  1  0  0  0  0
 32 33  1  0  0  0  0
 33 35  1  1  0  0  0
 35 36  2  0  0  0  0
 35 34  1  0  0  0  0
M  END
>  <MODEL>
6

>  <REMARK>
 VINA RESULT:      -6.8      3.323      7.577
  Name = 
  10 active torsions:
  status: ('A' for Active; 'I' for Inactive)
    1  A    between atoms: N_1  and  C_6
    2  A    between atoms: N_1  and  C_24
    3  A    between atoms: N_7  and  C_17
    4  A    between atoms: N_7  and  N_36
    5  A    between atoms: C_10  and  C_24
    6  A    between atoms: C_12  and  C_16
    7  A    between atoms: C_12  and  C_20
    8  A    between atoms: C_13  and  C_28
    9  A    between atoms: C_13  and  N_36
   10  A    between atoms: C_25  and  C_35
                            x       y       z     vdW  Elec       q    Type
                         _______ _______ _______ _____ _____    ______ ____

>  <TORSDO>
F 10

$$$$
=
 OpenBabel11062422253D

 36 39  0  0  1  0  0  0  0  0999 V2000
  189.1170  174.0420  140.4090 C   0  0  0  0  0  3  0  0  0  0  0  0
  191.4760  173.6510  144.3120 C   0  0  1  0  0  3  0  0  0  0  0  0
  192.3810  173.1090  141.6700 N   0  0  0  0  0  2  0  0  0  0  0  0
  189.9800  175.2570  144.8180 C   0  0  1  0  0  3  0  0  0  0  0  0
  190.6980  173.9710  143.1030 C   0  0  0  0  0  0  0  0  0  0  0  0
  188.7360  175.3940  142.5190 C   0  0  0  0  0  3  0  0  0  0  0  0
  192.9490  173.5550  143.9920 C   0  0  0  0  0  0  0  0  0  0  0  0
  191.1410  173.4900  141.7890 C   0  0  0  0  0  0  0  0  0  0  0  0
  190.2650  173.3950  140.6180 C   0  0  0  0  0  3  0  0  0  0  0  0
  189.7870  174.8540  143.3960 C   0  0  0  0  0  0  0  0  0  0  0  0
  193.3310  173.2030  142.7530 C   0  0  0  0  0  3  0  0  0  0  0  0
  188.4490  175.0350  141.2670 C   0  0  0  0  0  2  0  0  0  0  0  0
  191.1730  174.6400  145.2680 O   0  0  0  0  0  0  0  0  0  0  0  0
  193.9190  173.6080  145.0460 N   0  0  0  0  0  0  0  0  0  0  0  0
  194.5810  174.8390  145.3860 C   0  0  0  0  0  0  0  0  0  0  0  0
  195.3470  174.8820  146.3860 O   0  0  0  0  0  0  0  0  0  0  0  0
  194.4170  176.0640  144.5300 C   0  0  1  0  0  3  0  0  0  0  0  0
  194.4450  177.2120  145.3260 O   0  0  0  0  0  1  0  0  0  0  0  0
  194.8850  176.3840  142.2140 F   0  0  0  0  0  0  0  0  0  0  0  0
  196.3510  177.1780  143.7200 F   0  0  0  0  0  0  0  0  0  0  0  0
  195.4810  176.1430  143.4380 C   0  0  0  0  0  0  0  0  0  0  0  0
  196.1920  174.9600  143.3730 F   0  0  0  0  0  0  0  0  0  0  0  0
  194.2110  172.4380  145.7640 N   0  0  0  0  0  2  0  0  0  0  0  0
  195.2920  171.7520  145.0750 C   0  0  0  0  0  2  0  0  0  0  0  0
  196.4760  170.0460  146.4150 C   0  0  0  0  0  1  0  0  0  0  0  0
  196.4350  171.5110  146.0380 C   0  0  0  0  0  2  0  0  0  0  0  0
  190.1300  176.7670  144.9490 C   0  0  0  0  0  2  0  0  0  0  0  0
  189.1910  177.2850  145.9330 N   0  0  0  0  0  2  0  0  0  0  0  0
  187.0170  176.6500  146.8310 C   0  0  0  0  0  2  0  0  0  0  0  0
  187.8750  176.7730  145.5880 C   0  0  1  0  0  3  0  0  0  0  0  0
  185.5950  176.9300  146.3870 C   0  0  0  0  0  2  0  0  0  0  0  0
  187.1560  177.7620  144.7000 C   0  0  0  0  0  2  0  0  0  0  0  0
  185.6840  177.6200  145.0360 C   0  0  2  0  0  3  0  0  0  0  0  0
  183.9600  179.1050  145.7400 O   0  0  0  0  0  1  0  0  0  0  0  0
  185.0200  178.9550  145.0780 C   0  0  0  0  0  0  0  0  0  0  0  0
  185.5760  180.0440  144.4140 O   0  0  0  0  0  0  0  0  0  0  0  0
  1  9  2  0  0  0  0
  1 12  1  0  0  0  0
  2  5  1  6  0  0  0
  2 13  1  0  0  0  0
  3  8  1  0  0  0  0
  3 11  1  0  0  0  0
  4 27  1  6  0  0  0
  4 13  1  0  0  0  0
  5 10  1  0  0  0  0
  6 10  2  0  0  0  0
  7  2  1  0  0  0  0
  7 14  1  0  0  0  0
  8  5  2  0  0  0  0
  9  8  1  0  0  0  0
 10  4  1  0  0  0  0
 11  7  2  0  0  0  0
 12  6  1  0  0  0  0
 14 15  1  0  0  0  0
 14 23  1  0  0  0  0
 15 16  2  0  0  0  0
 17 18  1  1  0  0  0
 17 15  1  0  0  0  0
 19 21  1  0  0  0  0
 21 20  1  0  0  0  0
 21 17  1  0  0  0  0
 22 21  1  0  0  0  0
 24 23  1  0  0  0  0
 24 26  1  0  0  0  0
 26 25  1  0  0  0  0
 27 28  1  0  0  0  0
 30 28  1  1  0  0  0
 30 29  1  0  0  0  0
 31 29  1  0  0  0  0
 32 33  1  0  0  0  0
 32 30  1  0  0  0  0
 33 35  1  1  0  0  0
 33 31  1  0  0  0  0
 35 34  1  0  0  0  0
 36 35  2  0  0  0  0
M  END
>  <MODEL>
7

>  <REMARK>
 VINA RESULT:      -6.7      3.902      8.299
  Name = 
  10 active torsions:
  status: ('A' for Active; 'I' for Inactive)
    1  A    between atoms: N_1  and  C_6
    2  A    between atoms: N_1  and  C_24
    3  A    between atoms: N_7  and  C_17
    4  A    between atoms: N_7  and  N_36
    5  A    between atoms: C_10  and  C_24
    6  A    between atoms: C_12  and  C_16
    7  A    between atoms: C_12  and  C_20
    8  A    between atoms: C_13  and  C_28
    9  A    between atoms: C_13  and  N_36
   10  A    between atoms: C_25  and  C_35
                            x       y       z     vdW  Elec       q    Type
                         _______ _______ _______ _____ _____    ______ ____

>  <TORSDO>
F 10

$$$$
=
 OpenBabel11062422253D

 36 39  0  0  1  0  0  0  0  0999 V2000
  194.3170  175.8350  145.1240 C   0  0  0  0  0  3  0  0  0  0  0  0
  189.7940  175.4440  145.7040 C   0  0  1  0  0  3  0  0  0  0  0  0
  191.2340  177.6890  144.7160 N   0  0  0  0  0  2  0  0  0  0  0  0
  190.4170  173.3060  145.3600 C   0  0  1  0  0  3  0  0  0  0  0  0
  191.2320  175.4150  145.3910 C   0  0  0  0  0  0  0  0  0  0  0  0
  192.9850  173.6800  145.0200 C   0  0  0  0  0  3  0  0  0  0  0  0
  189.0990  176.5440  144.9380 C   0  0  0  0  0  0  0  0  0  0  0  0
  191.9450  176.6570  145.0700 C   0  0  0  0  0  0  0  0  0  0  0  0
  193.4010  176.8040  145.1460 C   0  0  0  0  0  2  0  0  0  0  0  0
  191.6200  174.1790  145.2510 C   0  0  0  0  0  0  0  0  0  0  0  0
  189.7980  177.6320  144.5720 C   0  0  0  0  0  3  0  0  0  0  0  0
  194.1190  174.3820  144.9840 C   0  0  0  0  0  3  0  0  0  0  0  0
  189.2870  174.1590  145.4250 O   0  0  0  0  0  0  0  0  0  0  0  0
  187.6720  176.5390  144.8050 N   0  0  0  0  0  0  0  0  0  0  0  0
  187.0460  176.4780  143.5120 C   0  0  0  0  0  0  0  0  0  0  0  0
  185.7930  176.3640  143.4280 O   0  0  0  0  0  0  0  0  0  0  0  0
  187.8600  176.6060  142.2540 C   0  0  1  0  0  3  0  0  0  0  0  0
  187.4730  175.6300  141.3320 O   0  0  0  0  0  1  0  0  0  0  0  0
  187.0290  177.9380  140.4600 F   0  0  0  0  0  0  0  0  0  0  0  0
  187.0830  178.8340  142.5190 F   0  0  0  0  0  0  0  0  0  0  0  0
  187.7450  178.0000  141.6400 C   0  0  0  0  0  0  0  0  0  0  0  0
  189.0010  178.5180  141.3850 F   0  0  0  0  0  0  0  0  0  0  0  0
  186.8790  176.5770  145.9630 N   0  0  0  0  0  2  0  0  0  0  0  0
  186.5690  177.9700  146.2420 C   0  0  0  0  0  2  0  0  0  0  0  0
  184.4330  178.9300  145.4510 C   0  0  0  0  0  1  0  0  0  0  0  0
  185.0910  178.1100  146.5400 C   0  0  0  0  0  2  0  0  0  0  0  0
  190.2780  172.4010  144.1430 C   0  0  0  0  0  2  0  0  0  0  0  0
  189.7600  173.1540  143.0100 N   0  0  0  0  0  2  0  0  0  0  0  0
  190.2030  171.4740  141.3030 C   0  0  0  0  0  2  0  0  0  0  0  0
  190.5860  172.8300  141.8590 C   0  0  1  0  0  3  0  0  0  0  0  0
  190.4280  171.5580  139.8060 C   0  0  0  0  0  2  0  0  0  0  0  0
  190.3210  173.8130  140.7430 C   0  0  0  0  0  2  0  0  0  0  0  0
  190.5150  173.0350  139.4560 C   0  0  2  0  0  3  0  0  0  0  0  0
  188.2690  173.1150  138.6670 O   0  0  0  0  0  1  0  0  0  0  0  0
  189.4760  173.4040  138.4520 C   0  0  0  0  0  0  0  0  0  0  0  0
  189.8230  174.0880  137.2930 O   0  0  0  0  0  0  0  0  0  0  0  0
  1  9  1  0  0  0  0
  2  7  1  6  0  0  0
  3  8  1  0  0  0  0
  4 27  1  6  0  0  0
  4 13  1  0  0  0  0
  5  2  1  0  0  0  0
  6 10  2  0  0  0  0
  8  9  1  0  0  0  0
  8  5  2  0  0  0  0
 10  4  1  0  0  0  0
 10  5  1  0  0  0  0
 11  3  1  0  0  0  0
 11  7  2  0  0  0  0
 12  6  1  0  0  0  0
 12  1  2  0  0  0  0
 13  2  1  0  0  0  0
 14  7  1  0  0  0  0
 14 23  1  0  0  0  0
 15 14  1  0  0  0  0
 16 15  2  0  0  0  0
 17 18  1  6  0  0  0
 17 15  1  0  0  0  0
 19 21  1  0  0  0  0
 21 17  1  0  0  0  0
 21 20  1  0  0  0  0
 22 21  1  0  0  0  0
 23 24  1  0  0  0  0
 24 26  1  0  0  0  0
 25 26  1  0  0  0  0
 28 27  1  0  0  0  0
 29 30  1  0  0  0  0
 30 28  1  1  0  0  0
 31 29  1  0  0  0  0
 32 30  1  0  0  0  0
 33 35  1  6  0  0  0
 33 31  1  0  0  0  0
 33 32  1  0  0  0  0
 35 34  1  0  0  0  0
 36 35  2  0  0  0  0
M  END
>  <MODEL>
8

>  <REMARK>
 VINA RESULT:      -6.7      3.073      5.609
  Name = 
  10 active torsions:
  status: ('A' for Active; 'I' for Inactive)
    1  A    between atoms: N_1  and  C_6
    2  A    between atoms: N_1  and  C_24
    3  A    between atoms: N_7  and  C_17
    4  A    between atoms: N_7  and  N_36
    5  A    between atoms: C_10  and  C_24
    6  A    between atoms: C_12  and  C_16
    7  A    between atoms: C_12  and  C_20
    8  A    between atoms: C_13  and  C_28
    9  A    between atoms: C_13  and  N_36
   10  A    between atoms: C_25  and  C_35
                            x       y       z     vdW  Elec       q    Type
                         _______ _______ _______ _____ _____    ______ ____

>  <TORSDO>
F 10

$$$$
=
 OpenBabel11062422253D

 36 39  0  0  1  0  0  0  0  0999 V2000
  193.7870  176.4830  145.4150 C   0  0  0  0  0  3  0  0  0  0  0  0
  189.2550  175.9860  145.0030 C   0  0  1  0  0  3  0  0  0  0  0  0
  190.9100  177.9460  143.7730 N   0  0  0  0  0  2  0  0  0  0  0  0
  189.9270  173.8830  145.4510 C   0  0  1  0  0  3  0  0  0  0  0  0
  190.7270  175.9610  145.0590 C   0  0  0  0  0  0  0  0  0  0  0  0
  192.5040  174.3070  145.6310 C   0  0  0  0  0  3  0  0  0  0  0  0
  188.7770  176.7770  143.8090 C   0  0  0  0  0  0  0  0  0  0  0  0
  191.5060  177.1030  144.5680 C   0  0  0  0  0  0  0  0  0  0  0  0
  192.9010  177.3580  144.9380 C   0  0  0  0  0  3  0  0  0  0  0  0
  191.1280  174.7630  145.3790 C   0  0  0  0  0  0  0  0  0  0  0  0
  189.5530  177.7590  143.3190 C   0  0  0  0  0  3  0  0  0  0  0  0
  193.6170  175.0410  145.6610 C   0  0  0  0  0  2  0  0  0  0  0  0
  188.8230  174.6450  144.9970 O   0  0  0  0  0  0  0  0  0  0  0  0
  187.4250  176.6440  143.3520 N   0  0  0  0  0  0  0  0  0  0  0  0
  186.3690  177.4450  143.9090 C   0  0  0  0  0  0  0  0  0  0  0  0
  185.2110  177.3860  143.4130 O   0  0  0  0  0  0  0  0  0  0  0  0
  186.6120  178.3110  145.1130 C   0  0  1  0  0  3  0  0  0  0  0  0
  185.9210  179.5180  144.9830 O   0  0  0  0  0  1  0  0  0  0  0  0
  185.8200  176.3100  146.1420 F   0  0  0  0  0  0  0  0  0  0  0  0
  187.3080  177.5690  147.2590 F   0  0  0  0  0  0  0  0  0  0  0  0
  186.2190  177.6060  146.4110 C   0  0  0  0  0  0  0  0  0  0  0  0
  185.1860  178.2820  147.0310 F   0  0  0  0  0  0  0  0  0  0  0  0
  187.1390  175.7240  142.3290 N   0  0  0  0  0  2  0  0  0  0  0  0
  187.7490  176.2180  141.1050 C   0  0  0  0  0  2  0  0  0  0  0  0
  186.5380  176.9880  139.0920 C   0  0  0  0  0  1  0  0  0  0  0  0
  186.8940  177.3240  140.5240 C   0  0  0  0  0  2  0  0  0  0  0  0
  190.0820  172.6630  144.5520 C   0  0  0  0  0  2  0  0  0  0  0  0
  189.3040  172.8310  143.3340 N   0  0  0  0  0  2  0  0  0  0  0  0
  190.6980  174.1460  141.8290 C   0  0  0  0  0  2  0  0  0  0  0  0
  190.2290  172.7580  142.2140 C   0  0  1  0  0  3  0  0  0  0  0  0
  192.1220  173.9840  141.3350 C   0  0  0  0  0  2  0  0  0  0  0  0
  191.4760  172.0120  142.6270 C   0  0  0  0  0  2  0  0  0  0  0  0
  192.6070  172.6300  141.8290 C   0  0  2  0  0  3  0  0  0  0  0  0
  194.5500  173.8050  142.5490 O   0  0  0  0  0  0  0  0  0  0  0  0
  193.8290  172.7800  142.6710 C   0  0  0  0  0  0  0  0  0  0  0  0
  194.1650  171.8110  143.6100 O   0  0  0  0  0  1  0  0  0  0  0  0
  1 12  1  0  0  0  0
  2  7  1  6  0  0  0
  2  5  1  0  0  0  0
  3  8  1  0  0  0  0
  4 27  1  6  0  0  0
  5 10  1  0  0  0  0
  6 12  1  0  0  0  0
  8  9  1  0  0  0  0
  8  5  2  0  0  0  0
  9  1  2  0  0  0  0
 10  4  1  0  0  0  0
 10  6  2  0  0  0  0
 11  3  1  0  0  0  0
 11  7  2  0  0  0  0
 13  2  1  0  0  0  0
 13  4  1  0  0  0  0
 14  7  1  0  0  0  0
 14 15  1  0  0  0  0
 15 17  1  0  0  0  0
 16 15  2  0  0  0  0
 17 18  1  6  0  0  0
 17 21  1  0  0  0  0
 19 21  1  0  0  0  0
 21 22  1  0  0  0  0
 21 20  1  0  0  0  0
 23 14  1  0  0  0  0
 24 23  1  0  0  0  0
 25 26  1  0  0  0  0
 26 24  1  0  0  0  0
 28 27  1  0  0  0  0
 29 30  1  0  0  0  0
 30 32  1  0  0  0  0
 30 28  1  1  0  0  0
 31 33  1  0  0  0  0
 31 29  1  0  0  0  0
 33 32  1  0  0  0  0
 33 35  1  1  0  0  0
 34 35  2  0  0  0  0
 35 36  1  0  0  0  0
M  END
>  <MODEL>
9

>  <REMARK>
 VINA RESULT:      -6.7      1.916      3.875
  Name = 
  10 active torsions:
  status: ('A' for Active; 'I' for Inactive)
    1  A    between atoms: N_1  and  C_6
    2  A    between atoms: N_1  and  C_24
    3  A    between atoms: N_7  and  C_17
    4  A    between atoms: N_7  and  N_36
    5  A    between atoms: C_10  and  C_24
    6  A    between atoms: C_12  and  C_16
    7  A    between atoms: C_12  and  C_20
    8  A    between atoms: C_13  and  C_28
    9  A    between atoms: C_13  and  N_36
   10  A    between atoms: C_25  and  C_35
                            x       y       z     vdW  Elec       q    Type
                         _______ _______ _______ _____ _____    ______ ____

>  <TORSDO>
F 10

$$$$
