=
 OpenBabel11062422033D

 34 38  0  0  1  0  0  0  0  0999 V2000
  190.4120  175.8440  145.6320 C   0  0  0  0  0  0  0  0  0  0  0  0
  194.2970  176.7670  146.9050 O   0  0  0  0  0  1  0  0  0  0  0  0
  188.9910  174.8230  143.8900 N   0  0  0  0  0  0  0  0  0  0  0  0
  191.9490  176.5030  147.3910 C   0  0  0  0  0  3  0  0  0  0  0  0
  192.7810  176.0890  145.1550 C   0  0  0  0  0  3  0  0  0  0  0  0
  189.0030  175.6040  145.1370 C   0  0  2  0  0  3  0  0  0  0  0  0
  193.0110  176.4570  146.4840 C   0  0  0  0  0  0  0  0  0  0  0  0
  189.9900  174.7530  143.0570 C   0  0  0  0  0  0  0  0  0  0  0  0
  190.6510  176.2000  146.9660 C   0  0  0  0  0  3  0  0  0  0  0  0
  191.4860  175.7790  144.7310 C   0  0  0  0  0  0  0  0  0  0  0  0
  191.2600  175.3110  143.4030 N   0  0  0  0  0  2  0  0  0  0  0  0
  188.5270  174.2490  137.4740 C   0  0  0  0  0  3  0  0  0  0  0  0
  189.1190  173.7770  138.6480 C   0  0  0  0  0  0  0  0  0  0  0  0
  191.1920  172.9990  139.8920 C   0  0  0  0  0  2  0  0  0  0  0  0
  189.3110  174.4310  136.3340 C   0  0  0  0  0  3  0  0  0  0  0  0
  188.6800  174.5600  140.9670 C   0  0  0  0  0  2  0  0  0  0  0  0
  188.2640  173.5970  139.8630 C   0  0  0  0  0  2  0  0  0  0  0  0
  190.6410  174.1520  136.3680 N   0  0  0  0  0  0  0  0  0  0  0  0
  189.8530  174.0040  141.7710 C   0  0  1  0  0  3  0  0  0  0  0  0
  190.4980  173.4950  138.6630 C   0  0  0  0  0  0  0  0  0  0  0  0
  191.1660  174.0510  140.9910 C   0  0  0  0  0  2  0  0  0  0  0  0
  191.2430  173.6950  137.4980 C   0  0  0  0  0  3  0  0  0  0  0  0
  186.2790  178.8070  144.0950 C   0  0  0  0  0  0  0  0  0  0  0  0
  185.5450  179.9240  143.7070 O   0  0  0  0  0  1  0  0  0  0  0  0
  186.9240  177.0230  145.6800 C   0  0  1  0  0  3  0  0  0  0  0  0
  188.0580  177.2540  143.4610 C   0  0  0  0  0  3  0  0  0  0  0  0
  187.1520  178.1620  143.0930 C   0  0  0  0  0  3  0  0  0  0  0  0
  186.1070  175.9340  145.3620 O   0  0  0  0  0  1  0  0  0  0  0  0
  188.2620  176.9380  144.9220 C   0  0  2  0  0  3  0  0  0  0  0  0
  186.1980  178.3080  145.3510 C   0  0  0  0  0  0  0  0  0  0  0  0
  185.3570  178.9150  146.4080 C   0  0  0  0  0  0  0  0  0  0  0  0
  184.1130  178.7090  146.4470 O   0  0  0  0  0  0  0  0  0  0  0  0
  185.9570  179.7340  147.3690 O   0  0  0  0  0  0  0  0  0  0  0  0
  186.7640  179.2040  148.4110 C   0  0  0  0  0  1  0  0  0  0  0  0
  1  9  1  0  0  0  0
  5  7  2  0  0  0  0
  6  3  1  6  0  0  0
  6  1  1  0  0  0  0
  7  2  1  0  0  0  0
  7  4  1  0  0  0  0
  8 11  1  0  0  0  0
  8  3  2  0  0  0  0
  9  4  2  0  0  0  0
 10  5  1  0  0  0  0
 10  1  2  0  0  0  0
 11 10  1  0  0  0  0
 12 13  1  0  0  0  0
 13 20  2  0  0  0  0
 13 17  1  0  0  0  0
 14 21  1  0  0  0  0
 15 18  1  0  0  0  0
 15 12  2  0  0  0  0
 16 19  1  0  0  0  0
 17 16  1  0  0  0  0
 18 22  2  0  0  0  0
 19  8  1  1  0  0  0
 20 14  1  0  0  0  0
 21 19  1  0  0  0  0
 22 20  1  0  0  0  0
 23 30  2  0  0  0  0
 24 23  1  0  0  0  0
 25 28  1  6  0  0  0
 27 26  2  0  0  0  0
 27 23  1  0  0  0  0
 29 26  1  6  0  0  0
 29  6  1  0  0  0  0
 29 25  1  0  0  0  0
 30 25  1  0  0  0  0
 30 31  1  0  0  0  0
 31 32  2  0  0  0  0
 31 33  1  0  0  0  0
 33 34  1  0  0  0  0
M  END
>  <MODEL>
1

>  <REMARK>
 VINA RESULT:      -7.9      0.000      0.000
  Name = 
  4 active torsions:
  status: ('A' for Active; 'I' for Inactive)
    1  A    between atoms: O_9  and  C_15
    2  A    between atoms: C_15  and  C_30
    3  A    between atoms: C_17  and  C_27
    4  A    between atoms: C_24  and  C_25
                            x       y       z     vdW  Elec       q    Type
                         _______ _______ _______ _____ _____    ______ ____

>  <TORSDO>
F 4

$$$$
=
 OpenBabel11062422033D

 34 38  0  0  1  0  0  0  0  0999 V2000
  190.4840  173.1970  142.3710 C   0  0  0  0  0  0  0  0  0  0  0  0
  188.9840  171.9140  138.6740 O   0  0  0  0  0  1  0  0  0  0  0  0
  190.2960  174.8020  144.2390 N   0  0  0  0  0  0  0  0  0  0  0  0
  190.3260  171.5060  140.6370 C   0  0  0  0  0  3  0  0  0  0  0  0
  189.1160  173.5910  140.4030 C   0  0  0  0  0  3  0  0  0  0  0  0
  191.0950  173.7110  143.6560 C   0  0  2  0  0  3  0  0  0  0  0  0
  189.4770  172.3370  139.9010 C   0  0  0  0  0  0  0  0  0  0  0  0
  189.4800  175.5590  143.5610 C   0  0  0  0  0  0  0  0  0  0  0  0
  190.8310  171.9350  141.8680 C   0  0  0  0  0  3  0  0  0  0  0  0
  189.6140  174.0180  141.6370 C   0  0  0  0  0  0  0  0  0  0  0  0
  189.1740  175.2520  142.1990 N   0  0  0  0  0  2  0  0  0  0  0  0
  184.8270  178.7870  144.7790 C   0  0  0  0  0  3  0  0  0  0  0  0
  186.1620  178.4190  144.9590 C   0  0  0  0  0  0  0  0  0  0  0  0
  188.0000  177.5300  146.4690 C   0  0  0  0  0  2  0  0  0  0  0  0
  183.9350  178.6870  145.8470 C   0  0  0  0  0  3  0  0  0  0  0  0
  187.5940  177.1490  143.3720 C   0  0  0  0  0  2  0  0  0  0  0  0
  187.1010  178.5250  143.7990 C   0  0  0  0  0  2  0  0  0  0  0  0
  184.3650  178.2320  147.0540 N   0  0  0  0  0  0  0  0  0  0  0  0
  188.7780  176.6980  144.2250 C   0  0  1  0  0  3  0  0  0  0  0  0
  186.5870  177.9500  146.2170 C   0  0  0  0  0  0  0  0  0  0  0  0
  188.3580  176.3040  145.6400 C   0  0  0  0  0  2  0  0  0  0  0  0
  185.6580  177.8640  147.2570 C   0  0  0  0  0  3  0  0  0  0  0  0
  195.1570  175.1910  143.9390 C   0  0  0  0  0  0  0  0  0  0  0  0
  196.4220  175.7670  143.8940 O   0  0  0  0  0  1  0  0  0  0  0  0
  193.6010  173.2730  144.0510 C   0  0  1  0  0  3  0  0  0  0  0  0
  192.7500  175.6190  143.8690 C   0  0  0  0  0  3  0  0  0  0  0  0
  193.9860  176.0820  144.0670 C   0  0  0  0  0  3  0  0  0  0  0  0
  193.3450  173.0850  145.4130 O   0  0  0  0  0  1  0  0  0  0  0  0
  192.5400  174.1940  143.4210 C   0  0  2  0  0  3  0  0  0  0  0  0
  194.9890  173.8480  143.8760 C   0  0  0  0  0  0  0  0  0  0  0  0
  196.1160  172.8990  143.7300 C   0  0  0  0  0  0  0  0  0  0  0  0
  196.6850  172.7320  142.6170 O   0  0  0  0  0  0  0  0  0  0  0  0
  196.5430  172.1730  144.8460 O   0  0  0  0  0  0  0  0  0  0  0  0
  196.8980  172.8090  146.0650 C   0  0  0  0  0  1  0  0  0  0  0  0
  2  7  1  0  0  0  0
  4  9  2  0  0  0  0
  5 10  1  0  0  0  0
  6  1  1  6  0  0  0
  6  3  1  0  0  0  0
  7  5  2  0  0  0  0
  7  4  1  0  0  0  0
  8  3  2  0  0  0  0
  9  1  1  0  0  0  0
 10 11  1  0  0  0  0
 10  1  2  0  0  0  0
 11  8  1  0  0  0  0
 12 13  2  0  0  0  0
 12 15  1  0  0  0  0
 13 20  1  0  0  0  0
 15 18  2  0  0  0  0
 16 17  1  0  0  0  0
 16 19  1  0  0  0  0
 17 13  1  0  0  0  0
 18 22  1  0  0  0  0
 19  8  1  6  0  0  0
 19 21  1  0  0  0  0
 20 14  1  0  0  0  0
 20 22  2  0  0  0  0
 21 14  1  0  0  0  0
 23 27  1  0  0  0  0
 24 23  1  0  0  0  0
 25 28  1  1  0  0  0
 26 27  2  0  0  0  0
 29  6  1  0  0  0  0
 29 26  1  1  0  0  0
 29 25  1  0  0  0  0
 30 23  2  0  0  0  0
 30 25  1  0  0  0  0
 31 30  1  0  0  0  0
 31 33  1  0  0  0  0
 32 31  2  0  0  0  0
 33 34  1  0  0  0  0
M  END
>  <MODEL>
2

>  <REMARK>
 VINA RESULT:      -7.9      3.985      8.626
  Name = 
  4 active torsions:
  status: ('A' for Active; 'I' for Inactive)
    1  A    between atoms: O_9  and  C_15
    2  A    between atoms: C_15  and  C_30
    3  A    between atoms: C_17  and  C_27
    4  A    between atoms: C_24  and  C_25
                            x       y       z     vdW  Elec       q    Type
                         _______ _______ _______ _____ _____    ______ ____

>  <TORSDO>
F 4

$$$$
=
 OpenBabel11062422033D

 34 38  0  0  1  0  0  0  0  0999 V2000
  191.9910  172.9280  144.3050 C   0  0  0  0  0  0  0  0  0  0  0  0
  190.4360  169.8750  141.8930 O   0  0  0  0  0  1  0  0  0  0  0  0
  191.5940  175.1000  145.4110 N   0  0  0  0  0  0  0  0  0  0  0  0
  192.1110  170.6640  143.4390 C   0  0  0  0  0  3  0  0  0  0  0  0
  190.2960  172.1190  142.7650 C   0  0  0  0  0  3  0  0  0  0  0  0
  192.5960  174.0700  145.0940 C   0  0  2  0  0  3  0  0  0  0  0  0
  190.9480  170.8850  142.6950 C   0  0  0  0  0  0  0  0  0  0  0  0
  190.4940  175.2890  144.7380 C   0  0  0  0  0  0  0  0  0  0  0  0
  192.6330  171.6840  144.2410 C   0  0  0  0  0  3  0  0  0  0  0  0
  190.8140  173.1370  143.5710 C   0  0  0  0  0  0  0  0  0  0  0  0
  190.1020  174.3630  143.7230 N   0  0  0  0  0  2  0  0  0  0  0  0
  185.5540  178.2850  144.3150 C   0  0  0  0  0  3  0  0  0  0  0  0
  186.7920  178.0120  144.9010 C   0  0  0  0  0  0  0  0  0  0  0  0
  188.1430  177.3290  146.9400 C   0  0  0  0  0  2  0  0  0  0  0  0
  184.3940  178.1910  145.0840 C   0  0  0  0  0  3  0  0  0  0  0  0
  188.6790  176.7440  143.8950 C   0  0  0  0  0  2  0  0  0  0  0  0
  188.0250  178.1090  144.0570 C   0  0  0  0  0  2  0  0  0  0  0  0
  184.4700  177.8350  146.3940 N   0  0  0  0  0  0  0  0  0  0  0  0
  189.5800  176.4190  145.0840 C   0  0  1  0  0  3  0  0  0  0  0  0
  186.8500  177.6450  146.2590 C   0  0  0  0  0  0  0  0  0  0  0  0
  188.7810  176.0820  146.3430 C   0  0  0  0  0  2  0  0  0  0  0  0
  185.6620  177.5610  146.9890 C   0  0  0  0  0  3  0  0  0  0  0  0
  196.2880  175.9280  143.7980 C   0  0  0  0  0  0  0  0  0  0  0  0
  197.3740  176.6300  143.2850 O   0  0  0  0  0  1  0  0  0  0  0  0
  195.0580  173.8620  144.3680 C   0  0  1  0  0  3  0  0  0  0  0  0
  194.0550  176.1170  144.7750 C   0  0  0  0  0  3  0  0  0  0  0  0
  195.2240  176.6890  144.4840 C   0  0  0  0  0  3  0  0  0  0  0  0
  195.4140  173.5730  145.6890 O   0  0  0  0  0  1  0  0  0  0  0  0
  193.7700  174.7060  144.3250 C   0  0  2  0  0  3  0  0  0  0  0  0
  196.1990  174.5810  143.6860 C   0  0  0  0  0  0  0  0  0  0  0  0
  197.2190  173.7590  142.9970 C   0  0  0  0  0  0  0  0  0  0  0  0
  197.9310  172.9360  143.6350 O   0  0  0  0  0  0  0  0  0  0  0  0
  197.3970  173.9090  141.6180 O   0  0  0  0  0  0  0  0  0  0  0  0
  196.3330  173.7140  140.6980 C   0  0  0  0  0  1  0  0  0  0  0  0
  2  7  1  0  0  0  0
  4  9  2  0  0  0  0
  5 10  1  0  0  0  0
  6  1  1  6  0  0  0
  6  3  1  0  0  0  0
  7  5  2  0  0  0  0
  7  4  1  0  0  0  0
  8  3  2  0  0  0  0
  9  1  1  0  0  0  0
 10 11  1  0  0  0  0
 10  1  2  0  0  0  0
 11  8  1  0  0  0  0
 12 13  2  0  0  0  0
 12 15  1  0  0  0  0
 13 20  1  0  0  0  0
 15 18  2  0  0  0  0
 16 17  1  0  0  0  0
 16 19  1  0  0  0  0
 17 13  1  0  0  0  0
 18 22  1  0  0  0  0
 19  8  1  6  0  0  0
 19 21  1  0  0  0  0
 20 14  1  0  0  0  0
 20 22  2  0  0  0  0
 21 14  1  0  0  0  0
 23 27  1  0  0  0  0
 24 23  1  0  0  0  0
 25 28  1  1  0  0  0
 27 26  2  0  0  0  0
 29 25  1  0  0  0  0
 29 26  1  1  0  0  0
 29  6  1  0  0  0  0
 30 23  2  0  0  0  0
 30 25  1  0  0  0  0
 31 32  2  0  0  0  0
 31 30  1  0  0  0  0
 33 31  1  0  0  0  0
 34 33  1  0  0  0  0
M  END
>  <MODEL>
3

>  <REMARK>
 VINA RESULT:      -7.5      4.790      8.726
  Name = 
  4 active torsions:
  status: ('A' for Active; 'I' for Inactive)
    1  A    between atoms: O_9  and  C_15
    2  A    between atoms: C_15  and  C_30
    3  A    between atoms: C_17  and  C_27
    4  A    between atoms: C_24  and  C_25
                            x       y       z     vdW  Elec       q    Type
                         _______ _______ _______ _____ _____    ______ ____

>  <TORSDO>
F 4

$$$$
=
 OpenBabel11062422033D

 34 38  0  0  1  0  0  0  0  0999 V2000
  192.5500  175.3470  142.4090 C   0  0  0  0  0  0  0  0  0  0  0  0
  196.0180  176.7920  144.2650 O   0  0  0  0  0  1  0  0  0  0  0  0
  190.1010  175.0520  142.5370 N   0  0  0  0  0  0  0  0  0  0  0  0
  194.8830  176.0040  142.2880 C   0  0  0  0  0  3  0  0  0  0  0  0
  193.6930  176.1630  144.3910 C   0  0  0  0  0  3  0  0  0  0  0  0
  191.3200  174.7350  141.7750 C   0  0  2  0  0  3  0  0  0  0  0  0
  194.8670  176.3170  143.6500 C   0  0  0  0  0  0  0  0  0  0  0  0
  190.0860  175.3740  143.8000 C   0  0  0  0  0  0  0  0  0  0  0  0
  193.7270  175.5170  141.6690 C   0  0  0  0  0  3  0  0  0  0  0  0
  192.5360  175.6830  143.7720 C   0  0  0  0  0  0  0  0  0  0  0  0
  191.3100  175.6150  144.4980 N   0  0  0  0  0  2  0  0  0  0  0  0
  186.6320  178.0820  147.5810 C   0  0  0  0  0  3  0  0  0  0  0  0
  186.8670  177.1730  146.5470 C   0  0  0  0  0  0  0  0  0  0  0  0
  186.4370  176.4160  144.1610 C   0  0  0  0  0  2  0  0  0  0  0  0
  185.7570  179.1490  147.3730 C   0  0  0  0  0  3  0  0  0  0  0  0
  189.0470  176.1690  145.9000 C   0  0  0  0  0  2  0  0  0  0  0  0
  187.8160  176.0410  146.7860 C   0  0  0  0  0  2  0  0  0  0  0  0
  185.1390  179.3010  146.1710 N   0  0  0  0  0  0  0  0  0  0  0  0
  188.7900  175.5940  144.5090 C   0  0  1  0  0  3  0  0  0  0  0  0
  186.2170  177.3480  145.3100 C   0  0  0  0  0  0  0  0  0  0  0  0
  187.8760  176.4870  143.6710 C   0  0  0  0  0  2  0  0  0  0  0  0
  185.3520  178.4330  145.1470 C   0  0  0  0  0  3  0  0  0  0  0  0
  190.8160  170.4680  141.2200 C   0  0  0  0  0  0  0  0  0  0  0  0
  190.7460  169.0790  141.1890 O   0  0  0  0  0  1  0  0  0  0  0  0
  191.2450  172.6860  140.2170 C   0  0  1  0  0  3  0  0  0  0  0  0
  190.5930  172.4590  142.6220 C   0  0  0  0  0  3  0  0  0  0  0  0
  190.3300  171.1660  142.4280 C   0  0  0  0  0  3  0  0  0  0  0  0
  190.0080  173.1150  139.7260 O   0  0  0  0  0  1  0  0  0  0  0  0
  191.4710  173.2060  141.6490 C   0  0  2  0  0  3  0  0  0  0  0  0
  191.3060  171.1760  140.1750 C   0  0  0  0  0  0  0  0  0  0  0  0
  191.8250  170.5410  138.9420 C   0  0  0  0  0  0  0  0  0  0  0  0
  192.9810  170.0370  138.9070 O   0  0  0  0  0  0  0  0  0  0  0  0
  191.0190  170.5130  137.8000 O   0  0  0  0  0  0  0  0  0  0  0  0
  189.6920  170.0100  137.8290 C   0  0  0  0  0  1  0  0  0  0  0  0
  1 10  1  0  0  0  0
  3  8  2  0  0  0  0
  4  7  2  0  0  0  0
  6  1  1  1  0  0  0
  6  3  1  0  0  0  0
  7  2  1  0  0  0  0
  7  5  1  0  0  0  0
  8 11  1  0  0  0  0
  9  4  1  0  0  0  0
  9  1  2  0  0  0  0
 10  5  2  0  0  0  0
 10 11  1  0  0  0  0
 13 17  1  0  0  0  0
 13 12  2  0  0  0  0
 14 20  1  0  0  0  0
 15 12  1  0  0  0  0
 16 17  1  0  0  0  0
 18 15  2  0  0  0  0
 19  8  1  6  0  0  0
 19 16  1  0  0  0  0
 20 13  1  0  0  0  0
 21 14  1  0  0  0  0
 21 19  1  0  0  0  0
 22 20  2  0  0  0  0
 22 18  1  0  0  0  0
 23 27  1  0  0  0  0
 24 23  1  0  0  0  0
 25 28  1  1  0  0  0
 25 29  1  0  0  0  0
 27 26  2  0  0  0  0
 29  6  1  0  0  0  0
 29 26  1  1  0  0  0
 30 25  1  0  0  0  0
 30 23  2  0  0  0  0
 31 30  1  0  0  0  0
 32 31  2  0  0  0  0
 33 34  1  0  0  0  0
 33 31  1  0  0  0  0
M  END
>  <MODEL>
4

>  <REMARK>
 VINA RESULT:      -7.4      3.988      8.388
  Name = 
  4 active torsions:
  status: ('A' for Active; 'I' for Inactive)
    1  A    between atoms: O_9  and  C_15
    2  A    between atoms: C_15  and  C_30
    3  A    between atoms: C_17  and  C_27
    4  A    between atoms: C_24  and  C_25
                            x       y       z     vdW  Elec       q    Type
                         _______ _______ _______ _____ _____    ______ ____

>  <TORSDO>
F 4

$$$$
=
 OpenBabel11062422033D

 34 38  0  0  1  0  0  0  0  0999 V2000
  191.3290  173.2740  141.9930 C   0  0  0  0  0  0  0  0  0  0  0  0
  191.4880  172.1910  137.9480 O   0  0  0  0  0  1  0  0  0  0  0  0
  190.0140  174.3050  143.8120 N   0  0  0  0  0  0  0  0  0  0  0  0
  192.3490  172.0060  140.1940 C   0  0  0  0  0  3  0  0  0  0  0  0
  190.4520  173.4390  139.7340 C   0  0  0  0  0  3  0  0  0  0  0  0
  191.3220  173.7490  143.4300 C   0  0  2  0  0  3  0  0  0  0  0  0
  191.4320  172.5470  139.2890 C   0  0  0  0  0  0  0  0  0  0  0  0
  189.1440  174.7830  142.9680 C   0  0  0  0  0  0  0  0  0  0  0  0
  192.3000  172.3700  141.5430 C   0  0  0  0  0  3  0  0  0  0  0  0
  190.3980  173.7990  141.0840 C   0  0  0  0  0  0  0  0  0  0  0  0
  189.3440  174.6310  141.5620 N   0  0  0  0  0  2  0  0  0  0  0  0
  186.1120  178.7590  145.8940 C   0  0  0  0  0  3  0  0  0  0  0  0
  186.2160  177.6800  145.0130 C   0  0  0  0  0  0  0  0  0  0  0  0
  185.8650  176.7090  142.6930 C   0  0  0  0  0  2  0  0  0  0  0  0
  185.5660  179.9630  145.4450 C   0  0  0  0  0  3  0  0  0  0  0  0
  188.1230  176.1000  144.7980 C   0  0  0  0  0  2  0  0  0  0  0  0
  186.8120  176.4000  145.5100 C   0  0  0  0  0  2  0  0  0  0  0  0
  185.1410  180.0820  144.1590 N   0  0  0  0  0  0  0  0  0  0  0  0
  187.8780  175.4070  143.4590 C   0  0  1  0  0  3  0  0  0  0  0  0
  185.7700  177.8240  143.6860 C   0  0  0  0  0  0  0  0  0  0  0  0
  187.3190  176.3610  142.4050 C   0  0  0  0  0  2  0  0  0  0  0  0
  185.2340  179.0480  143.2800 C   0  0  0  0  0  3  0  0  0  0  0  0
  194.2400  176.5340  145.0100 C   0  0  0  0  0  0  0  0  0  0  0  0
  195.1150  177.5420  145.4010 O   0  0  0  0  0  1  0  0  0  0  0  0
  193.6890  174.2240  144.3270 C   0  0  1  0  0  3  0  0  0  0  0  0
  191.9230  175.9920  144.4440 C   0  0  0  0  0  3  0  0  0  0  0  0
  192.7900  176.8180  145.0340 C   0  0  0  0  0  3  0  0  0  0  0  0
  193.3660  173.5550  145.5110 O   0  0  0  0  0  1  0  0  0  0  0  0
  192.4230  174.8010  143.6660 C   0  0  2  0  0  3  0  0  0  0  0  0
  194.6900  175.3170  144.6240 C   0  0  0  0  0  0  0  0  0  0  0  0
  196.1290  174.9710  144.5600 C   0  0  0  0  0  0  0  0  0  0  0  0
  196.7270  174.4890  145.5600 O   0  0  0  0  0  0  0  0  0  0  0  0
  196.8290  175.1930  143.3700 O   0  0  0  0  0  0  0  0  0  0  0  0
  197.5460  176.3960  143.1330 C   0  0  0  0  0  1  0  0  0  0  0  0
  2  7  1  0  0  0  0
  4  9  2  0  0  0  0
  5 10  1  0  0  0  0
  6  1  1  6  0  0  0
  6 29  1  0  0  0  0
  6  3  1  0  0  0  0
  7  5  2  0  0  0  0
  7  4  1  0  0  0  0
  8  3  2  0  0  0  0
  9  1  1  0  0  0  0
 10 11  1  0  0  0  0
 10  1  2  0  0  0  0
 11  8  1  0  0  0  0
 13 17  1  0  0  0  0
 13 12  2  0  0  0  0
 14 20  1  0  0  0  0
 15 12  1  0  0  0  0
 16 17  1  0  0  0  0
 18 15  2  0  0  0  0
 19  8  1  6  0  0  0
 19 16  1  0  0  0  0
 20 13  1  0  0  0  0
 21 14  1  0  0  0  0
 21 19  1  0  0  0  0
 22 20  2  0  0  0  0
 22 18  1  0  0  0  0
 23 27  1  0  0  0  0
 23 24  1  0  0  0  0
 25 30  1  0  0  0  0
 25 28  1  1  0  0  0
 26 27  2  0  0  0  0
 29 25  1  0  0  0  0
 29 26  1  1  0  0  0
 30 23  2  0  0  0  0
 31 30  1  0  0  0  0
 31 32  2  0  0  0  0
 33 31  1  0  0  0  0
 34 33  1  0  0  0  0
M  END
>  <MODEL>
5

>  <REMARK>
 VINA RESULT:      -7.3      3.765      8.011
  Name = 
  4 active torsions:
  status: ('A' for Active; 'I' for Inactive)
    1  A    between atoms: O_9  and  C_15
    2  A    between atoms: C_15  and  C_30
    3  A    between atoms: C_17  and  C_27
    4  A    between atoms: C_24  and  C_25
                            x       y       z     vdW  Elec       q    Type
                         _______ _______ _______ _____ _____    ______ ____

>  <TORSDO>
F 4

$$$$
=
 OpenBabel11062422033D

 34 38  0  0  1  0  0  0  0  0999 V2000
  190.0810  175.7290  143.9580 C   0  0  0  0  0  0  0  0  0  0  0  0
  193.9250  177.0150  145.0190 O   0  0  0  0  0  1  0  0  0  0  0  0
  188.7120  174.2280  142.5530 N   0  0  0  0  0  0  0  0  0  0  0  0
  191.5630  176.8900  145.4900 C   0  0  0  0  0  3  0  0  0  0  0  0
  192.4640  175.8400  143.5020 C   0  0  0  0  0  3  0  0  0  0  0  0
  188.6870  175.3430  143.5130 C   0  0  2  0  0  3  0  0  0  0  0  0
  192.6520  176.5850  144.6690 C   0  0  0  0  0  0  0  0  0  0  0  0
  189.7370  173.9220  141.8080 C   0  0  0  0  0  0  0  0  0  0  0  0
  190.2790  176.4650  145.1340 C   0  0  0  0  0  3  0  0  0  0  0  0
  191.1820  175.4090  143.1490 C   0  0  0  0  0  0  0  0  0  0  0  0
  190.9960  174.5670  142.0130 N   0  0  0  0  0  2  0  0  0  0  0  0
  189.6890  171.8320  136.4060 C   0  0  0  0  0  3  0  0  0  0  0  0
  189.7080  171.6790  137.7940 C   0  0  0  0  0  0  0  0  0  0  0  0
  190.8760  170.8340  139.8840 C   0  0  0  0  0  2  0  0  0  0  0  0
  190.7420  171.3250  135.6440 C   0  0  0  0  0  3  0  0  0  0  0  0
  189.0510  173.3680  139.4970 C   0  0  0  0  0  2  0  0  0  0  0  0
  188.5740  172.2370  138.5960 C   0  0  0  0  0  2  0  0  0  0  0  0
  191.7800  170.6900  136.2500 N   0  0  0  0  0  0  0  0  0  0  0  0
  189.6390  172.8260  140.7980 C   0  0  1  0  0  3  0  0  0  0  0  0
  190.7920  171.0180  138.4030 C   0  0  0  0  0  0  0  0  0  0  0  0
  191.0060  172.1760  140.5920 C   0  0  0  0  0  2  0  0  0  0  0  0
  191.8260  170.5300  137.6000 C   0  0  0  0  0  3  0  0  0  0  0  0
  185.9390  178.1010  141.6130 C   0  0  0  0  0  0  0  0  0  0  0  0
  185.1930  179.0410  140.9100 O   0  0  0  0  0  1  0  0  0  0  0  0
  186.7020  176.9760  143.6770 C   0  0  1  0  0  3  0  0  0  0  0  0
  187.6130  176.3270  141.4390 C   0  0  0  0  0  3  0  0  0  0  0  0
  186.6940  177.0900  140.8440 C   0  0  0  0  0  3  0  0  0  0  0  0
  185.8360  175.8930  143.8500 O   0  0  0  0  0  1  0  0  0  0  0  0
  187.9560  176.5490  142.8910 C   0  0  2  0  0  3  0  0  0  0  0  0
  185.9740  178.0940  142.9670 C   0  0  0  0  0  0  0  0  0  0  0  0
  185.2550  179.0860  143.7980 C   0  0  0  0  0  0  0  0  0  0  0  0
  185.6640  180.2760  143.8900 O   0  0  0  0  0  0  0  0  0  0  0  0
  184.1110  178.6880  144.4970 O   0  0  0  0  0  0  0  0  0  0  0  0
  184.0670  178.6650  145.9160 C   0  0  0  0  0  1  0  0  0  0  0  0
  1  9  1  0  0  0  0
  5  7  2  0  0  0  0
  6  3  1  6  0  0  0
  6  1  1  0  0  0  0
  7  2  1  0  0  0  0
  7  4  1  0  0  0  0
  8 11  1  0  0  0  0
  8  3  2  0  0  0  0
  9  4  2  0  0  0  0
 10  5  1  0  0  0  0
 10  1  2  0  0  0  0
 11 10  1  0  0  0  0
 12 13  1  0  0  0  0
 13 20  2  0  0  0  0
 13 17  1  0  0  0  0
 14 21  1  0  0  0  0
 15 18  1  0  0  0  0
 15 12  2  0  0  0  0
 16 19  1  0  0  0  0
 17 16  1  0  0  0  0
 18 22  2  0  0  0  0
 19  8  1  1  0  0  0
 20 14  1  0  0  0  0
 21 19  1  0  0  0  0
 22 20  1  0  0  0  0
 23 30  2  0  0  0  0
 24 23  1  0  0  0  0
 25 28  1  6  0  0  0
 27 26  2  0  0  0  0
 27 23  1  0  0  0  0
 29 26  1  6  0  0  0
 29  6  1  0  0  0  0
 29 25  1  0  0  0  0
 30 25  1  0  0  0  0
 30 31  1  0  0  0  0
 31 32  2  0  0  0  0
 31 33  1  0  0  0  0
 33 34  1  0  0  0  0
M  END
>  <MODEL>
6

>  <REMARK>
 VINA RESULT:      -7.1      1.875      2.399
  Name = 
  4 active torsions:
  status: ('A' for Active; 'I' for Inactive)
    1  A    between atoms: O_9  and  C_15
    2  A    between atoms: C_15  and  C_30
    3  A    between atoms: C_17  and  C_27
    4  A    between atoms: C_24  and  C_25
                            x       y       z     vdW  Elec       q    Type
                         _______ _______ _______ _____ _____    ______ ____

>  <TORSDO>
F 4

$$$$
=
 OpenBabel11062422033D

 34 38  0  0  1  0  0  0  0  0999 V2000
  190.5050  175.9450  145.5930 C   0  0  0  0  0  0  0  0  0  0  0  0
  194.2670  176.9750  147.1250 O   0  0  0  0  0  1  0  0  0  0  0  0
  189.2270  174.9780  143.7140 N   0  0  0  0  0  0  0  0  0  0  0  0
  191.9170  176.5560  147.4700 C   0  0  0  0  0  3  0  0  0  0  0  0
  192.8770  176.3450  145.2570 C   0  0  0  0  0  3  0  0  0  0  0  0
  189.1360  175.6680  145.0100 C   0  0  2  0  0  3  0  0  0  0  0  0
  193.0220  176.6290  146.6180 C   0  0  0  0  0  0  0  0  0  0  0  0
  190.2680  175.0180  142.9310 C   0  0  0  0  0  0  0  0  0  0  0  0
  190.6600  176.2180  146.9590 C   0  0  0  0  0  3  0  0  0  0  0  0
  191.6230  175.9990  144.7460 C   0  0  0  0  0  0  0  0  0  0  0  0
  191.4870  175.6150  143.3800 N   0  0  0  0  0  2  0  0  0  0  0  0
  192.3720  171.5350  138.8070 C   0  0  0  0  0  3  0  0  0  0  0  0
  191.3750  172.3450  139.3570 C   0  0  0  0  0  0  0  0  0  0  0  0
  189.0170  172.5980  140.2640 C   0  0  0  0  0  2  0  0  0  0  0  0
  192.1080  170.1860  138.5690 C   0  0  0  0  0  3  0  0  0  0  0  0
  191.6560  174.0900  141.1050 C   0  0  0  0  0  2  0  0  0  0  0  0
  191.6790  173.7870  139.6130 C   0  0  0  0  0  2  0  0  0  0  0  0
  190.8890  169.6650  138.8720 N   0  0  0  0  0  0  0  0  0  0  0  0
  190.2340  174.3560  141.5920 C   0  0  1  0  0  3  0  0  0  0  0  0
  190.1200  171.7860  139.6630 C   0  0  0  0  0  0  0  0  0  0  0  0
  189.3940  173.0800  141.6570 C   0  0  0  0  0  2  0  0  0  0  0  0
  189.9020  170.4290  139.4110 C   0  0  0  0  0  3  0  0  0  0  0  0
  186.2750  178.7850  144.0800 C   0  0  0  0  0  0  0  0  0  0  0  0
  185.4930  179.8830  143.7360 O   0  0  0  0  0  1  0  0  0  0  0  0
  186.9830  176.9570  145.5860 C   0  0  1  0  0  3  0  0  0  0  0  0
  188.1370  177.3520  143.4020 C   0  0  0  0  0  3  0  0  0  0  0  0
  187.1940  178.2340  143.0630 C   0  0  0  0  0  3  0  0  0  0  0  0
  186.2250  175.8470  145.2010 O   0  0  0  0  0  1  0  0  0  0  0  0
  188.3350  176.9740  144.8480 C   0  0  2  0  0  3  0  0  0  0  0  0
  186.2000  178.2200  145.3090 C   0  0  0  0  0  0  0  0  0  0  0  0
  185.3140  178.7320  146.3800 C   0  0  0  0  0  0  0  0  0  0  0  0
  184.0950  178.4110  146.4240 O   0  0  0  0  0  0  0  0  0  0  0  0
  185.8430  179.5910  147.3480 O   0  0  0  0  0  0  0  0  0  0  0  0
  186.7170  179.1280  148.3670 C   0  0  0  0  0  1  0  0  0  0  0  0
  1  9  1  0  0  0  0
  5  7  2  0  0  0  0
  6  3  1  6  0  0  0
  6  1  1  0  0  0  0
  7  2  1  0  0  0  0
  7  4  1  0  0  0  0
  8 11  1  0  0  0  0
  8  3  2  0  0  0  0
  9  4  2  0  0  0  0
 10  5  1  0  0  0  0
 10  1  2  0  0  0  0
 11 10  1  0  0  0  0
 12 13  1  0  0  0  0
 13 17  1  0  0  0  0
 13 20  2  0  0  0  0
 14 21  1  0  0  0  0
 15 12  2  0  0  0  0
 15 18  1  0  0  0  0
 16 19  1  0  0  0  0
 17 16  1  0  0  0  0
 18 22  2  0  0  0  0
 19 21  1  0  0  0  0
 19  8  1  1  0  0  0
 20 14  1  0  0  0  0
 22 20  1  0  0  0  0
 23 30  2  0  0  0  0
 24 23  1  0  0  0  0
 25 28  1  6  0  0  0
 27 26  2  0  0  0  0
 27 23  1  0  0  0  0
 29 26  1  6  0  0  0
 29  6  1  0  0  0  0
 29 25  1  0  0  0  0
 30 25  1  0  0  0  0
 30 31  1  0  0  0  0
 31 32  2  0  0  0  0
 31 33  1  0  0  0  0
 33 34  1  0  0  0  0
M  END
>  <MODEL>
7

>  <REMARK>
 VINA RESULT:      -7.1      1.455      2.035
  Name = 
  4 active torsions:
  status: ('A' for Active; 'I' for Inactive)
    1  A    between atoms: O_9  and  C_15
    2  A    between atoms: C_15  and  C_30
    3  A    between atoms: C_17  and  C_27
    4  A    between atoms: C_24  and  C_25
                            x       y       z     vdW  Elec       q    Type
                         _______ _______ _______ _____ _____    ______ ____

>  <TORSDO>
F 4

$$$$
=
 OpenBabel11062422033D

 34 38  0  0  1  0  0  0  0  0999 V2000
  188.0620  176.6220  146.0700 C   0  0  0  0  0  0  0  0  0  0  0  0
  186.8740  179.4160  148.9580 O   0  0  0  0  0  1  0  0  0  0  0  0
  189.9150  175.3160  145.0890 N   0  0  0  0  0  0  0  0  0  0  0  0
  186.3100  177.7130  147.3460 C   0  0  0  0  0  3  0  0  0  0  0  0
  188.6250  178.3220  147.7110 C   0  0  0  0  0  3  0  0  0  0  0  0
  188.4970  175.6890  144.9610 C   0  0  2  0  0  3  0  0  0  0  0  0
  187.2690  178.4880  148.0040 C   0  0  0  0  0  0  0  0  0  0  0  0
  190.8050  176.0210  145.7280 C   0  0  0  0  0  0  0  0  0  0  0  0
  186.7050  176.7830  146.3790 C   0  0  0  0  0  3  0  0  0  0  0  0
  189.0210  177.3890  146.7490 C   0  0  0  0  0  0  0  0  0  0  0  0
  190.4070  177.1470  146.5130 N   0  0  0  0  0  2  0  0  0  0  0  0
  195.5300  173.6710  143.3380 C   0  0  0  0  0  3  0  0  0  0  0  0
  194.8720  174.3810  144.3460 C   0  0  0  0  0  0  0  0  0  0  0  0
  194.5850  176.5210  145.6810 C   0  0  0  0  0  2  0  0  0  0  0  0
  196.5590  174.2860  142.6240 C   0  0  0  0  0  3  0  0  0  0  0  0
  192.4330  174.3920  144.8230 C   0  0  0  0  0  2  0  0  0  0  0  0
  193.7650  173.7080  145.0950 C   0  0  0  0  0  2  0  0  0  0  0  0
  196.9170  175.5670  142.9070 N   0  0  0  0  0  0  0  0  0  0  0  0
  192.2410  175.6060  145.7290 C   0  0  1  0  0  3  0  0  0  0  0  0
  195.2580  175.7060  144.6230 C   0  0  0  0  0  0  0  0  0  0  0  0
  193.1280  176.7810  145.3220 C   0  0  0  0  0  2  0  0  0  0  0  0
  196.2910  176.2810  143.8800 C   0  0  0  0  0  3  0  0  0  0  0  0
  187.2910  176.6920  140.9220 C   0  0  0  0  0  0  0  0  0  0  0  0
  187.0700  177.0580  139.5990 O   0  0  0  0  0  1  0  0  0  0  0  0
  186.7780  176.7140  143.3400 C   0  0  1  0  0  3  0  0  0  0  0  0
  188.7530  175.4620  142.4500 C   0  0  0  0  0  3  0  0  0  0  0  0
  188.3240  175.6740  141.2040 C   0  0  0  0  0  3  0  0  0  0  0  0
  185.9380  175.6170  143.5500 O   0  0  0  0  0  1  0  0  0  0  0  0
  188.2490  176.3250  143.5790 C   0  0  2  0  0  3  0  0  0  0  0  0
  186.5790  177.2390  141.9360 C   0  0  0  0  0  0  0  0  0  0  0  0
  185.5420  178.2750  141.7280 C   0  0  0  0  0  0  0  0  0  0  0  0
  185.3010  179.1410  142.6120 O   0  0  0  0  0  0  0  0  0  0  0  0
  184.8170  178.2800  140.5320 O   0  0  0  0  0  0  0  0  0  0  0  0
  183.3970  178.2860  140.5140 C   0  0  0  0  0  1  0  0  0  0  0  0
  1  9  2  0  0  0  0
  1 10  1  0  0  0  0
  3  8  2  0  0  0  0
  4  7  2  0  0  0  0
  5  7  1  0  0  0  0
  6  3  1  1  0  0  0
  6  1  1  0  0  0  0
  7  2  1  0  0  0  0
  8 11  1  0  0  0  0
  9  4  1  0  0  0  0
 10  5  2  0  0  0  0
 11 10  1  0  0  0  0
 12 13  1  0  0  0  0
 13 20  2  0  0  0  0
 13 17  1  0  0  0  0
 15 18  1  0  0  0  0
 15 12  2  0  0  0  0
 16 17  1  0  0  0  0
 16 19  1  0  0  0  0
 18 22  2  0  0  0  0
 19  8  1  6  0  0  0
 20 14  1  0  0  0  0
 21 14  1  0  0  0  0
 21 19  1  0  0  0  0
 22 20  1  0  0  0  0
 23 27  1  0  0  0  0
 23 30  2  0  0  0  0
 24 23  1  0  0  0  0
 25 28  1  6  0  0  0
 25 29  1  0  0  0  0
 27 26  2  0  0  0  0
 29 26  1  6  0  0  0
 29  6  1  0  0  0  0
 30 25  1  0  0  0  0
 31 30  1  0  0  0  0
 31 32  2  0  0  0  0
 33 31  1  0  0  0  0
 34 33  1  0  0  0  0
M  END
>  <MODEL>
8

>  <REMARK>
 VINA RESULT:      -7.0      3.153      5.779
  Name = 
  4 active torsions:
  status: ('A' for Active; 'I' for Inactive)
    1  A    between atoms: O_9  and  C_15
    2  A    between atoms: C_15  and  C_30
    3  A    between atoms: C_17  and  C_27
    4  A    between atoms: C_24  and  C_25
                            x       y       z     vdW  Elec       q    Type
                         _______ _______ _______ _____ _____    ______ ____

>  <TORSDO>
F 4

$$$$
=
 OpenBabel11062422033D

 34 38  0  0  1  0  0  0  0  0999 V2000
  191.6500  172.7180  141.8250 C   0  0  0  0  0  0  0  0  0  0  0  0
  190.5160  171.0980  138.1300 O   0  0  0  0  0  1  0  0  0  0  0  0
  191.1730  174.3720  143.5960 N   0  0  0  0  0  0  0  0  0  0  0  0
  191.7880  170.9450  140.1750 C   0  0  0  0  0  3  0  0  0  0  0  0
  190.3550  172.8550  139.7750 C   0  0  0  0  0  3  0  0  0  0  0  0
  192.1250  173.3610  143.1100 C   0  0  2  0  0  3  0  0  0  0  0  0
  190.8880  171.6330  139.3560 C   0  0  0  0  0  0  0  0  0  0  0  0
  190.3120  174.9940  142.8410 C   0  0  0  0  0  0  0  0  0  0  0  0
  192.1710  171.4870  141.4060 C   0  0  0  0  0  3  0  0  0  0  0  0
  190.7320  173.3950  141.0080 C   0  0  0  0  0  0  0  0  0  0  0  0
  190.1190  174.5920  141.4830 N   0  0  0  0  0  2  0  0  0  0  0  0
  185.3950  177.0310  145.1290 C   0  0  0  0  0  3  0  0  0  0  0  0
  186.7370  177.1550  144.7640 C   0  0  0  0  0  0  0  0  0  0  0  0
  189.1570  177.5430  145.4310 C   0  0  0  0  0  2  0  0  0  0  0  0
  185.0310  177.1640  146.4700 C   0  0  0  0  0  3  0  0  0  0  0  0
  187.9770  175.7670  143.1160 C   0  0  0  0  0  2  0  0  0  0  0  0
  187.1090  177.0000  143.3230 C   0  0  0  0  0  2  0  0  0  0  0  0
  185.9790  177.4110  147.4130 N   0  0  0  0  0  0  0  0  0  0  0  0
  189.4450  176.0700  143.4100 C   0  0  1  0  0  3  0  0  0  0  0  0
  187.7030  177.4110  145.7560 C   0  0  0  0  0  0  0  0  0  0  0  0
  189.7170  176.2280  144.9060 C   0  0  0  0  0  2  0  0  0  0  0  0
  187.2930  177.5340  147.0860 C   0  0  0  0  0  3  0  0  0  0  0  0
  195.9630  175.3300  143.5140 C   0  0  0  0  0  0  0  0  0  0  0  0
  197.1520  176.0520  143.5010 O   0  0  0  0  0  1  0  0  0  0  0  0
  194.6410  173.2460  143.6510 C   0  0  1  0  0  3  0  0  0  0  0  0
  193.5300  175.4610  143.3040 C   0  0  0  0  0  3  0  0  0  0  0  0
  194.6900  176.0790  143.5380 C   0  0  0  0  0  3  0  0  0  0  0  0
  194.3340  173.0920  145.0060 O   0  0  0  0  0  1  0  0  0  0  0  0
  193.5140  174.0030  142.9220 C   0  0  2  0  0  3  0  0  0  0  0  0
  195.9580  173.9760  143.5140 C   0  0  0  0  0  0  0  0  0  0  0  0
  197.1950  173.1630  143.4730 C   0  0  0  0  0  0  0  0  0  0  0  0
  197.6430  172.6070  144.5130 O   0  0  0  0  0  0  0  0  0  0  0  0
  197.8770  173.0230  142.2600 O   0  0  0  0  0  0  0  0  0  0  0  0
  197.1940  172.9480  141.0180 C   0  0  0  0  0  1  0  0  0  0  0  0
  2  7  1  0  0  0  0
  4  9  2  0  0  0  0
  5 10  1  0  0  0  0
  6  1  1  6  0  0  0
  6  3  1  0  0  0  0
  7  5  2  0  0  0  0
  7  4  1  0  0  0  0
  8  3  2  0  0  0  0
  9  1  1  0  0  0  0
 10 11  1  0  0  0  0
 10  1  2  0  0  0  0
 11  8  1  0  0  0  0
 12 15  1  0  0  0  0
 13 12  2  0  0  0  0
 13 20  1  0  0  0  0
 14 20  1  0  0  0  0
 15 18  2  0  0  0  0
 16 17  1  0  0  0  0
 16 19  1  0  0  0  0
 17 13  1  0  0  0  0
 19  8  1  1  0  0  0
 19 21  1  0  0  0  0
 20 22  2  0  0  0  0
 21 14  1  0  0  0  0
 22 18  1  0  0  0  0
 23 30  2  0  0  0  0
 23 27  1  0  0  0  0
 24 23  1  0  0  0  0
 25 28  1  1  0  0  0
 26 27  2  0  0  0  0
 29  6  1  0  0  0  0
 29 26  1  1  0  0  0
 29 25  1  0  0  0  0
 30 25  1  0  0  0  0
 31 30  1  0  0  0  0
 31 32  2  0  0  0  0
 33 31  1  0  0  0  0
 34 33  1  0  0  0  0
M  END
>  <MODEL>
9

>  <REMARK>
 VINA RESULT:      -6.9      4.257      8.862
  Name = 
  4 active torsions:
  status: ('A' for Active; 'I' for Inactive)
    1  A    between atoms: O_9  and  C_15
    2  A    between atoms: C_15  and  C_30
    3  A    between atoms: C_17  and  C_27
    4  A    between atoms: C_24  and  C_25
                            x       y       z     vdW  Elec       q    Type
                         _______ _______ _______ _____ _____    ______ ____

>  <TORSDO>
F 4

$$$$
