=
 OpenBabel11072409113D

 39 43  0  0  1  0  0  0  0  0999 V2000
  189.1330  174.8840  143.9070 F   0  0  0  0  0  0  0  0  0  0  0  0
  195.0680  173.4170  143.9590 N   0  0  0  0  0  0  0  0  0  0  0  0
  193.4320  175.1250  143.4720 C   0  0  0  0  0  0  0  0  0  0  0  0
  194.6160  174.2900  143.1040 C   0  0  0  0  0  0  0  0  0  0  0  0
  191.3020  174.4960  144.5480 C   0  0  0  0  0  3  0  0  0  0  0  0
  190.7400  176.7040  143.5470 C   0  0  0  0  0  0  0  0  0  0  0  0
  193.3940  173.8440  145.6420 C   0  0  0  0  0  3  0  0  0  0  0  0
  191.8950  177.0340  142.9480 C   0  0  0  0  0  3  0  0  0  0  0  0
  192.7240  174.8740  144.7800 C   0  0  1  0  0  3  0  0  0  0  0  0
  193.0640  176.1630  142.7110 C   0  0  0  0  0  3  0  0  0  0  0  0
  190.4110  175.3210  143.9950 C   0  0  0  0  0  0  0  0  0  0  0  0
  194.4790  173.1830  145.2430 C   0  0  0  0  0  3  0  0  0  0  0  0
  188.6820  177.6330  144.7190 C   0  0  0  0  0  0  0  0  0  0  0  0
  187.8520  177.1860  141.9930 C   0  0  0  0  0  2  0  0  0  0  0  0
  189.0570  178.0920  142.2600 C   0  0  0  0  0  2  0  0  0  0  0  0
  189.7060  177.7990  143.6210 C   0  0  2  0  0  3  0  0  0  0  0  0
  187.2400  177.9520  144.3830 C   0  0  1  0  0  3  0  0  0  0  0  0
  186.3740  175.9230  143.3870 O   0  0  0  0  0  1  0  0  0  0  0  0
  189.4540  177.2170  147.1110 O   0  0  0  0  0  0  0  0  0  0  0  0
  189.0790  177.4200  145.9500 C   0  0  0  0  0  0  0  0  0  0  0  0
  186.7860  177.2270  143.1030 C   0  0  2  0  0  3  0  0  0  0  0  0
  186.2350  177.7780  145.5280 C   0  0  0  0  0  2  0  0  0  0  0  0
  185.4690  179.0660  145.7890 C   0  0  0  0  0  2  0  0  0  0  0  0
  183.8230  179.0110  144.1110 O   0  0  0  0  0  0  0  0  0  0  0  0
  184.0640  178.9430  145.3040 C   0  0  0  0  0  3  0  0  0  0  0  0
  197.0860  175.1820  139.2790 C   0  0  0  0  0  0  0  0  0  0  0  0
  197.0670  175.7000  140.5640 C   0  0  0  0  0  2  0  0  0  0  0  0
  195.3070  174.4120  141.7930 C   0  0  0  0  0  0  0  0  0  0  0  0
  196.2940  175.3730  141.6610 C   0  0  0  0  0  3  0  0  0  0  0  0
  196.2530  174.1530  138.7760 C   0  0  2  0  0  3  0  0  0  0  0  0
  195.3080  173.4990  139.4950 N   0  0  0  0  0  0  0  0  0  0  0  0
  194.8710  173.5750  140.7720 C   0  0  0  0  0  3  0  0  0  0  0  0
  197.9410  175.7010  138.5130 O   0  0  0  0  0  0  0  0  0  0  0  0
  195.5730  174.4270  136.2680 C   0  0  2  0  0  3  0  0  0  0  0  0
  195.5850  172.3960  137.0100 C   0  0  0  0  0  2  0  0  0  0  0  0
  196.3550  173.6630  137.3390 C   0  0  2  0  0  3  0  0  0  0  0  0
  194.6620  175.4180  136.8210 N   0  0  0  0  0  1  0  0  0  0  0  0
  195.1950  172.6930  134.6770 O   0  0  0  0  0  1  0  0  0  0  0  0
  194.8120  173.1520  135.9380 C   0  0  2  0  0  3  0  0  0  0  0  0
  1 11  1  0  0  0  0
  2 12  1  0  0  0  0
  3  9  1  0  0  0  0
  4  3  1  0  0  0  0
  4  2  2  0  0  0  0
  6 11  1  0  0  0  0
  8  6  2  0  0  0  0
  9  5  1  6  0  0  0
  9  7  1  0  0  0  0
 10  8  1  0  0  0  0
 10  3  2  0  0  0  0
 11  5  2  0  0  0  0
 12  7  2  0  0  0  0
 13 20  2  0  0  0  0
 14 15  1  0  0  0  0
 14 21  1  0  0  0  0
 15 16  1  0  0  0  0
 16  6  1  6  0  0  0
 16 13  1  0  0  0  0
 17 13  1  0  0  0  0
 17 22  1  1  0  0  0
 20 19  2  0  0  0  0
 21 18  1  1  0  0  0
 21 17  1  0  0  0  0
 22 23  1  0  0  0  0
 24 25  2  0  0  0  0
 25 23  1  0  0  0  0
 26 27  1  0  0  0  0
 27 29  1  0  0  0  0
 28  4  1  0  0  0  0
 29 28  2  0  0  0  0
 30 26  1  1  0  0  0
 30 31  1  0  0  0  0
 31 32  2  0  0  0  0
 32 28  1  0  0  0  0
 33 26  2  0  0  0  0
 34 37  1  1  0  0  0
 34 36  1  0  0  0  0
 36 35  1  1  0  0  0
 36 30  1  0  0  0  0
 39 38  1  6  0  0  0
 39 34  1  0  0  0  0
 39 35  1  0  0  0  0
M  END
>  <MODEL>
1

>  <REMARK>
 VINA RESULT:      -7.6      0.000      0.000
  Name = 
  6 active torsions:
  status: ('A' for Active; 'I' for Inactive)
    1  A    between atoms: C_7  and  C_14
    2  A    between atoms: C_12  and  C_19
    3  A    between atoms: C_16  and  C_22
    4  A    between atoms: C_16  and  C_37
    5  A    between atoms: C_18  and  C_27
    6  A    between atoms: C_21  and  C_22
                            x       y       z     vdW  Elec       q    Type
                         _______ _______ _______ _____ _____    ______ ____

>  <TORSDO>
F 6

$$$$
=
 OpenBabel11072409113D

 39 43  0  0  1  0  0  0  0  0999 V2000
  191.9850  175.1670  147.5440 F   0  0  0  0  0  0  0  0  0  0  0  0
  195.0010  172.5700  142.9030 N   0  0  0  0  0  0  0  0  0  0  0  0
  193.0660  173.8540  143.5640 C   0  0  0  0  0  0  0  0  0  0  0  0
  193.7070  172.7100  142.8470 C   0  0  0  0  0  0  0  0  0  0  0  0
  193.4550  174.7410  145.8340 C   0  0  0  0  0  3  0  0  0  0  0  0
  191.2370  175.7220  145.2720 C   0  0  0  0  0  0  0  0  0  0  0  0
  195.3820  174.4630  144.3480 C   0  0  0  0  0  3  0  0  0  0  0  0
  191.0220  175.2230  144.0440 C   0  0  0  0  0  3  0  0  0  0  0  0
  193.9140  174.7650  144.4170 C   0  0  1  0  0  3  0  0  0  0  0  0
  191.7750  174.1470  143.3680 C   0  0  0  0  0  3  0  0  0  0  0  0
  192.2520  175.1730  146.2170 C   0  0  0  0  0  0  0  0  0  0  0  0
  195.8640  173.4440  143.6400 C   0  0  0  0  0  3  0  0  0  0  0  0
  188.9110  176.3160  146.1110 C   0  0  0  0  0  0  0  0  0  0  0  0
  189.1930  177.7430  143.6210 C   0  0  0  0  0  2  0  0  0  0  0  0
  190.2240  177.9780  144.7290 C   0  0  0  0  0  2  0  0  0  0  0  0
  190.2840  176.8030  145.7150 C   0  0  2  0  0  3  0  0  0  0  0  0
  187.7210  177.1340  145.6540 C   0  0  1  0  0  3  0  0  0  0  0  0
  187.2580  176.3530  143.4110 O   0  0  0  0  0  1  0  0  0  0  0  0
  188.6810  174.4240  147.8020 O   0  0  0  0  0  0  0  0  0  0  0  0
  188.7920  175.3430  146.9820 C   0  0  0  0  0  0  0  0  0  0  0  0
  187.7810  177.4210  144.1430 C   0  0  2  0  0  3  0  0  0  0  0  0
  186.3460  176.6100  146.0840 C   0  0  0  0  0  2  0  0  0  0  0  0
  185.6640  177.5740  147.0430 C   0  0  0  0  0  2  0  0  0  0  0  0
  184.5420  179.0820  145.6290 O   0  0  0  0  0  0  0  0  0  0  0  0
  184.4420  178.1540  146.4140 C   0  0  0  0  0  3  0  0  0  0  0  0
  191.1970  169.2820  140.9830 C   0  0  0  0  0  0  0  0  0  0  0  0
  191.5790  169.6140  142.2730 C   0  0  0  0  0  3  0  0  0  0  0  0
  192.9260  171.7140  142.0660 C   0  0  2  0  0  3  0  0  0  0  0  0
  192.3340  170.6670  142.7510 C   0  0  0  0  0  3  0  0  0  0  0  0
  191.5330  169.9860  139.8010 C   0  0  2  0  0  3  0  0  0  0  0  0
  192.2780  171.1180  139.7560 N   0  0  0  0  0  0  0  0  0  0  0  0
  192.8890  171.8840  140.6880 C   0  0  0  0  0  3  0  0  0  0  0  0
  190.4820  168.2490  140.8930 O   0  0  0  0  0  0  0  0  0  0  0  0
  191.9130  168.4880  137.6930 C   0  0  2  0  0  3  0  0  0  0  0  0
  191.2670  170.5110  137.2890 C   0  0  0  0  0  2  0  0  0  0  0  0
  191.0630  169.5270  138.4270 C   0  0  2  0  0  3  0  0  0  0  0  0
  193.1890  168.2270  138.3440 N   0  0  0  0  0  1  0  0  0  0  0  0
  191.4130  169.0300  135.4270 O   0  0  0  0  0  1  0  0  0  0  0  0
  192.1060  169.4750  136.5530 C   0  0  2  0  0  3  0  0  0  0  0  0
  2 12  1  0  0  0  0
  3  9  1  0  0  0  0
  4  2  2  0  0  0  0
  4  3  1  0  0  0  0
  5 11  2  0  0  0  0
  6 11  1  0  0  0  0
  8  6  2  0  0  0  0
  9  7  1  1  0  0  0
  9  5  1  0  0  0  0
 10  3  2  0  0  0  0
 10  8  1  0  0  0  0
 11  1  1  0  0  0  0
 12  7  2  0  0  0  0
 13 20  2  0  0  0  0
 14 21  1  0  0  0  0
 14 15  1  0  0  0  0
 15 16  1  0  0  0  0
 16  6  1  6  0  0  0
 16 13  1  0  0  0  0
 17 22  1  6  0  0  0
 17 13  1  0  0  0  0
 20 19  2  0  0  0  0
 21 18  1  6  0  0  0
 21 17  1  0  0  0  0
 22 23  1  0  0  0  0
 24 25  2  0  0  0  0
 25 23  1  0  0  0  0
 26 27  1  0  0  0  0
 27 29  2  0  0  0  0
 28 29  1  0  0  0  0
 28  4  1  6  0  0  0
 30 31  1  1  0  0  0
 30 26  1  0  0  0  0
 31 32  2  0  0  0  0
 32 28  1  0  0  0  0
 33 26  2  0  0  0  0
 34 37  1  1  0  0  0
 34 36  1  0  0  0  0
 36 35  1  6  0  0  0
 36 30  1  0  0  0  0
 39 38  1  6  0  0  0
 39 35  1  0  0  0  0
 39 34  1  0  0  0  0
M  END
>  <MODEL>
2

>  <REMARK>
 VINA RESULT:      -7.4      3.404      4.301
  Name = 
  6 active torsions:
  status: ('A' for Active; 'I' for Inactive)
    1  A    between atoms: C_7  and  C_14
    2  A    between atoms: C_12  and  C_19
    3  A    between atoms: C_16  and  C_22
    4  A    between atoms: C_16  and  C_37
    5  A    between atoms: C_18  and  C_27
    6  A    between atoms: C_21  and  C_22
                            x       y       z     vdW  Elec       q    Type
                         _______ _______ _______ _____ _____    ______ ____

>  <TORSDO>
F 6

$$$$
=
 OpenBabel11072409113D

 39 43  0  0  1  0  0  0  0  0999 V2000
  195.0320  174.7060  141.5600 F   0  0  0  0  0  0  0  0  0  0  0  0
  192.4850  176.7240  146.7390 N   0  0  0  0  0  0  0  0  0  0  0  0
  192.4330  175.0460  145.0040 C   0  0  0  0  0  0  0  0  0  0  0  0
  191.7700  176.0680  145.8690 C   0  0  0  0  0  0  0  0  0  0  0  0
  194.5660  175.1350  143.7660 C   0  0  0  0  0  3  0  0  0  0  0  0
  193.4090  173.2280  142.6610 C   0  0  0  0  0  0  0  0  0  0  0  0
  194.5820  175.6880  146.1510 C   0  0  0  0  0  3  0  0  0  0  0  0
  192.2440  173.1940  143.3250 C   0  0  0  0  0  3  0  0  0  0  0  0
  193.9280  174.8620  145.0840 C   0  0  1  0  0  3  0  0  0  0  0  0
  191.7060  174.2160  144.2470 C   0  0  0  0  0  3  0  0  0  0  0  0
  194.3320  174.3990  142.6780 C   0  0  0  0  0  0  0  0  0  0  0  0
  193.8960  176.5430  146.9080 C   0  0  0  0  0  3  0  0  0  0  0  0
  192.6700  171.8410  140.6610 C   0  0  0  0  0  0  0  0  0  0  0  0
  192.6800  170.0020  142.8820 C   0  0  0  0  0  2  0  0  0  0  0  0
  193.9660  170.7610  142.5440 C   0  0  0  0  0  2  0  0  0  0  0  0
  193.6830  172.0510  141.7600 C   0  0  2  0  0  3  0  0  0  0  0  0
  192.2350  170.4190  140.3720 C   0  0  1  0  0  3  0  0  0  0  0  0
  190.4700  169.9760  141.9670 O   0  0  0  0  0  1  0  0  0  0  0  0
  192.0490  173.7820  139.1300 O   0  0  0  0  0  0  0  0  0  0  0  0
  192.3510  172.8390  139.8720 C   0  0  0  0  0  0  0  0  0  0  0  0
  191.8010  169.6910  141.6570 C   0  0  2  0  0  3  0  0  0  0  0  0
  191.2120  170.2510  139.2440 C   0  0  0  0  0  2  0  0  0  0  0  0
  191.7870  169.4390  138.0930 C   0  0  0  0  0  2  0  0  0  0  0  0
  191.4170  171.3270  136.7420 O   0  0  0  0  0  0  0  0  0  0  0  0
  192.0850  170.3250  136.9300 C   0  0  0  0  0  3  0  0  0  0  0  0
  187.1800  176.6810  146.1470 C   0  0  0  0  0  0  0  0  0  0  0  0
  188.1310  176.0970  146.9670 C   0  0  0  0  0  3  0  0  0  0  0  0
  190.3180  176.3750  145.7800 C   0  0  2  0  0  3  0  0  0  0  0  0
  189.4970  175.9560  146.8120 C   0  0  0  0  0  3  0  0  0  0  0  0
  187.4130  177.2840  144.8870 C   0  0  2  0  0  3  0  0  0  0  0  0
  188.6260  177.3940  144.2910 N   0  0  0  0  0  0  0  0  0  0  0  0
  189.8820  177.0240  144.6300 C   0  0  0  0  0  3  0  0  0  0  0  0
  186.0050  176.6560  146.6010 O   0  0  0  0  0  0  0  0  0  0  0  0
  185.6320  177.0160  142.9930 C   0  0  2  0  0  3  0  0  0  0  0  0
  186.7050  178.8930  142.9990 C   0  0  0  0  0  2  0  0  0  0  0  0
  186.2870  177.8920  144.0630 C   0  0  2  0  0  3  0  0  0  0  0  0
  186.3300  175.7570  142.7760 N   0  0  0  0  0  1  0  0  0  0  0  0
  184.9130  178.6760  141.4420 O   0  0  0  0  0  1  0  0  0  0  0  0
  186.0460  178.0270  141.9350 C   0  0  2  0  0  3  0  0  0  0  0  0
  1 11  1  0  0  0  0
  2 12  1  0  0  0  0
  3  9  1  0  0  0  0
  3  4  1  0  0  0  0
  4  2  2  0  0  0  0
  6 11  1  0  0  0  0
  6  8  2  0  0  0  0
  7 12  2  0  0  0  0
  8 10  1  0  0  0  0
  9  5  1  6  0  0  0
  9  7  1  0  0  0  0
 10  3  2  0  0  0  0
 11  5  2  0  0  0  0
 13 16  1  0  0  0  0
 15 14  1  0  0  0  0
 16 15  1  0  0  0  0
 16  6  1  1  0  0  0
 17 22  1  6  0  0  0
 17 13  1  0  0  0  0
 17 21  1  0  0  0  0
 19 20  2  0  0  0  0
 20 13  2  0  0  0  0
 21 18  1  1  0  0  0
 21 14  1  0  0  0  0
 23 22  1  0  0  0  0
 24 25  2  0  0  0  0
 25 23  1  0  0  0  0
 26 33  2  0  0  0  0
 26 27  1  0  0  0  0
 28  4  1  6  0  0  0
 28 29  1  0  0  0  0
 29 27  2  0  0  0  0
 30 31  1  1  0  0  0
 30 26  1  0  0  0  0
 31 32  2  0  0  0  0
 32 28  1  0  0  0  0
 34 37  1  6  0  0  0
 34 36  1  0  0  0  0
 36 35  1  6  0  0  0
 36 30  1  0  0  0  0
 39 38  1  1  0  0  0
 39 34  1  0  0  0  0
 39 35  1  0  0  0  0
M  END
>  <MODEL>
3

>  <REMARK>
 VINA RESULT:      -7.0      3.727      9.183
  Name = 
  6 active torsions:
  status: ('A' for Active; 'I' for Inactive)
    1  A    between atoms: C_7  and  C_14
    2  A    between atoms: C_12  and  C_19
    3  A    between atoms: C_16  and  C_22
    4  A    between atoms: C_16  and  C_37
    5  A    between atoms: C_18  and  C_27
    6  A    between atoms: C_21  and  C_22
                            x       y       z     vdW  Elec       q    Type
                         _______ _______ _______ _____ _____    ______ ____

>  <TORSDO>
F 6

$$$$
=
 OpenBabel11072409113D

 39 43  0  0  1  0  0  0  0  0999 V2000
  192.4430  171.0040  142.5710 F   0  0  0  0  0  0  0  0  0  0  0  0
  187.8460  173.9330  139.8030 N   0  0  0  0  0  0  0  0  0  0  0  0
  189.9900  174.1490  140.8930 C   0  0  0  0  0  0  0  0  0  0  0  0
  188.5590  174.5410  140.7080 C   0  0  2  0  0  3  0  0  0  0  0  0
  191.0370  171.9180  141.0040 C   0  0  0  0  0  3  0  0  0  0  0  0
  192.8010  173.3640  142.0000 C   0  0  0  0  0  0  0  0  0  0  0  0
  189.5930  172.4300  139.0940 C   0  0  0  0  0  3  0  0  0  0  0  0
  192.2210  174.5730  141.9530 C   0  0  0  0  0  3  0  0  0  0  0  0
  190.5520  172.9960  140.0990 C   0  0  0  0  0  0  0  0  0  0  0  0
  190.8040  174.8780  141.6640 C   0  0  0  0  0  3  0  0  0  0  0  0
  192.0500  172.0840  141.8570 C   0  0  0  0  0  0  0  0  0  0  0  0
  188.3450  172.8790  138.9720 C   0  0  0  0  0  3  0  0  0  0  0  0
  194.5670  173.4860  143.8260 C   0  0  0  0  0  0  0  0  0  0  0  0
  195.1070  175.7430  142.1140 C   0  0  0  0  0  2  0  0  0  0  0  0
  195.0850  174.3400  141.5030 C   0  0  0  0  0  2  0  0  0  0  0  0
  194.2670  173.3560  142.3520 C   0  0  2  0  0  3  0  0  0  0  0  0
  195.7140  174.3900  144.2290 C   0  0  1  0  0  3  0  0  0  0  0  0
  194.7520  176.6090  144.3160 O   0  0  0  0  0  1  0  0  0  0  0  0
  193.4240  171.9310  145.4900 O   0  0  0  0  0  0  0  0  0  0  0  0
  193.9800  172.6850  144.6820 C   0  0  0  0  0  0  0  0  0  0  0  0
  195.5950  175.7780  143.5740 C   0  0  2  0  0  3  0  0  0  0  0  0
  195.9900  174.4870  145.7330 C   0  0  0  0  0  2  0  0  0  0  0  0
  197.1910  173.6410  146.1300 C   0  0  0  0  0  2  0  0  0  0  0  0
  197.5660  171.5160  145.1950 O   0  0  0  0  0  0  0  0  0  0  0  0
  197.5700  172.7230  145.0170 C   0  0  0  0  0  3  0  0  0  0  0  0
  186.5480  178.2160  142.7020 C   0  0  0  0  0  0  0  0  0  0  0  0
  186.9590  177.9150  141.4130 C   0  0  0  0  0  2  0  0  0  0  0  0
  187.9060  175.6010  141.5220 C   0  0  0  0  0  0  0  0  0  0  0  0
  187.5540  176.7830  140.8940 C   0  0  0  0  0  3  0  0  0  0  0  0
  186.6720  177.3810  143.8390 C   0  0  2  0  0  3  0  0  0  0  0  0
  187.2060  176.1350  143.8330 N   0  0  0  0  0  0  0  0  0  0  0  0
  187.7420  175.3420  142.8780 C   0  0  0  0  0  3  0  0  0  0  0  0
  186.0160  179.3500  142.8350 O   0  0  0  0  0  0  0  0  0  0  0  0
  187.2400  178.0070  146.3120 C   0  0  2  0  0  3  0  0  0  0  0  0
  185.5010  176.7490  146.0490 C   0  0  0  0  0  2  0  0  0  0  0  0
  186.1890  177.8160  145.2160 C   0  0  2  0  0  3  0  0  0  0  0  0
  188.5640  177.5410  145.9250 N   0  0  0  0  0  1  0  0  0  0  0  0
  185.9410  177.5400  148.2540 O   0  0  0  0  0  1  0  0  0  0  0  0
  186.5410  176.9440  147.1450 C   0  0  2  0  0  3  0  0  0  0  0  0
  2  4  1  0  0  0  0
  3 10  2  0  0  0  0
  4  3  1  0  0  0  0
  4 28  1  1  0  0  0
  5 11  2  0  0  0  0
  7  9  2  0  0  0  0
  8  6  2  0  0  0  0
  9  3  1  0  0  0  0
  9  5  1  0  0  0  0
 10  8  1  0  0  0  0
 11  6  1  0  0  0  0
 11  1  1  0  0  0  0
 12  7  1  0  0  0  0
 12  2  2  0  0  0  0
 13 17  1  0  0  0  0
 13 20  2  0  0  0  0
 14 21  1  0  0  0  0
 15 14  1  0  0  0  0
 15 16  1  0  0  0  0
 16  6  1  1  0  0  0
 16 13  1  0  0  0  0
 17 22  1  1  0  0  0
 20 19  2  0  0  0  0
 21 17  1  0  0  0  0
 21 18  1  1  0  0  0
 22 23  1  0  0  0  0
 25 24  2  0  0  0  0
 25 23  1  0  0  0  0
 26 33  2  0  0  0  0
 27 26  1  0  0  0  0
 28 32  1  0  0  0  0
 29 27  1  0  0  0  0
 29 28  2  0  0  0  0
 30 26  1  6  0  0  0
 30 36  1  0  0  0  0
 31 30  1  0  0  0  0
 32 31  2  0  0  0  0
 34 37  1  6  0  0  0
 34 39  1  0  0  0  0
 35 39  1  0  0  0  0
 36 35  1  1  0  0  0
 36 34  1  0  0  0  0
 39 38  1  1  0  0  0
M  END
>  <MODEL>
4

>  <REMARK>
 VINA RESULT:      -6.8      3.929      9.725
  Name = 
  6 active torsions:
  status: ('A' for Active; 'I' for Inactive)
    1  A    between atoms: C_7  and  C_14
    2  A    between atoms: C_12  and  C_19
    3  A    between atoms: C_16  and  C_22
    4  A    between atoms: C_16  and  C_37
    5  A    between atoms: C_18  and  C_27
    6  A    between atoms: C_21  and  C_22
                            x       y       z     vdW  Elec       q    Type
                         _______ _______ _______ _____ _____    ______ ____

>  <TORSDO>
F 6

$$$$
=
 OpenBabel11072409113D

 39 43  0  0  1  0  0  0  0  0999 V2000
  190.1510  176.9340  147.4760 F   0  0  0  0  0  0  0  0  0  0  0  0
  194.8830  173.7610  145.2590 N   0  0  0  0  0  0  0  0  0  0  0  0
  192.8240  174.9100  144.7400 C   0  0  0  0  0  0  0  0  0  0  0  0
  193.7290  173.7230  144.6560 C   0  0  0  0  0  0  0  0  0  0  0  0
  192.2100  176.3220  146.6680 C   0  0  0  0  0  3  0  0  0  0  0  0
  190.4130  176.8700  145.0360 C   0  0  0  0  0  0  0  0  0  0  0  0
  194.5870  175.9610  146.2020 C   0  0  0  0  0  3  0  0  0  0  0  0
  190.7410  176.0880  143.9960 C   0  0  0  0  0  3  0  0  0  0  0  0
  193.2190  176.0860  145.5980 C   0  0  1  0  0  3  0  0  0  0  0  0
  191.7280  174.9900  143.9760 C   0  0  0  0  0  3  0  0  0  0  0  0
  190.9490  176.6760  146.4130 C   0  0  0  0  0  0  0  0  0  0  0  0
  195.3420  174.8770  146.0310 C   0  0  0  0  0  3  0  0  0  0  0  0
  187.9250  177.3840  144.8930 C   0  0  0  0  0  0  0  0  0  0  0  0
  188.9550  177.9400  142.2570 C   0  0  0  0  0  2  0  0  0  0  0  0
  189.5690  178.6630  143.4590 C   0  0  0  0  0  2  0  0  0  0  0  0
  189.3400  177.8960  144.7700 C   0  0  2  0  0  3  0  0  0  0  0  0
  186.9250  177.8370  143.8500 C   0  0  1  0  0  3  0  0  0  0  0  0
  187.2250  176.3080  141.9990 O   0  0  0  0  0  1  0  0  0  0  0  0
  187.2140  176.1370  146.9980 O   0  0  0  0  0  0  0  0  0  0  0  0
  187.5580  176.7440  145.9760 C   0  0  0  0  0  0  0  0  0  0  0  0
  187.4590  177.6170  142.4230 C   0  0  2  0  0  3  0  0  0  0  0  0
  185.4990  177.3000  144.0170 C   0  0  0  0  0  2  0  0  0  0  0  0
  184.4860  178.4340  144.0830 C   0  0  0  0  0  2  0  0  0  0  0  0
  184.2720  178.0620  146.3950 O   0  0  0  0  0  0  0  0  0  0  0  0
  184.3000  178.8830  145.4930 C   0  0  0  0  0  3  0  0  0  0  0  0
  192.6160  169.5700  142.9140 C   0  0  0  0  0  0  0  0  0  0  0  0
  192.8120  170.0640  144.1930 C   0  0  0  0  0  3  0  0  0  0  0  0
  193.3660  172.4890  143.9100 C   0  0  2  0  0  3  0  0  0  0  0  0
  193.1430  171.3310  144.6340 C   0  0  0  0  0  3  0  0  0  0  0  0
  192.7360  170.2980  141.7050 C   0  0  2  0  0  3  0  0  0  0  0  0
  193.0500  171.6140  141.6190 N   0  0  0  0  0  0  0  0  0  0  0  0
  193.3270  172.5800  142.5240 C   0  0  0  0  0  3  0  0  0  0  0  0
  192.3020  168.3510  142.8610 O   0  0  0  0  0  0  0  0  0  0  0  0
  191.3050  170.1290  139.5250 C   0  0  2  0  0  3  0  0  0  0  0  0
  191.9380  168.2420  140.3680 C   0  0  0  0  0  2  0  0  0  0  0  0
  192.5040  169.6510  140.3470 C   0  0  2  0  0  3  0  0  0  0  0  0
  190.4200  171.0180  140.2640 N   0  0  0  0  0  1  0  0  0  0  0  0
  190.8250  168.1670  138.2610 O   0  0  0  0  0  1  0  0  0  0  0  0
  190.7490  168.7140  139.5420 C   0  0  2  0  0  3  0  0  0  0  0  0
  2 12  1  0  0  0  0
  3  9  1  0  0  0  0
  4  3  1  0  0  0  0
  4  2  2  0  0  0  0
  6 11  1  0  0  0  0
  8  6  2  0  0  0  0
  9  7  1  1  0  0  0
  9  5  1  0  0  0  0
 10  8  1  0  0  0  0
 10  3  2  0  0  0  0
 11  5  2  0  0  0  0
 11  1  1  0  0  0  0
 12  7  2  0  0  0  0
 13 20  2  0  0  0  0
 14 21  1  0  0  0  0
 14 15  1  0  0  0  0
 15 16  1  0  0  0  0
 16 13  1  0  0  0  0
 16  6  1  6  0  0  0
 17 22  1  6  0  0  0
 17 13  1  0  0  0  0
 20 19  2  0  0  0  0
 21 18  1  1  0  0  0
 21 17  1  0  0  0  0
 22 23  1  0  0  0  0
 23 25  1  0  0  0  0
 25 24  2  0  0  0  0
 26 27  1  0  0  0  0
 27 29  2  0  0  0  0
 28 29  1  0  0  0  0
 28  4  1  6  0  0  0
 30 31  1  1  0  0  0
 30 26  1  0  0  0  0
 31 32  2  0  0  0  0
 32 28  1  0  0  0  0
 33 26  2  0  0  0  0
 34 39  1  0  0  0  0
 34 37  1  1  0  0  0
 34 36  1  0  0  0  0
 36 35  1  1  0  0  0
 36 30  1  0  0  0  0
 39 38  1  6  0  0  0
 39 35  1  0  0  0  0
M  END
>  <MODEL>
5

>  <REMARK>
 VINA RESULT:      -6.5      3.706      4.276
  Name = 
  6 active torsions:
  status: ('A' for Active; 'I' for Inactive)
    1  A    between atoms: C_7  and  C_14
    2  A    between atoms: C_12  and  C_19
    3  A    between atoms: C_16  and  C_22
    4  A    between atoms: C_16  and  C_37
    5  A    between atoms: C_18  and  C_27
    6  A    between atoms: C_21  and  C_22
                            x       y       z     vdW  Elec       q    Type
                         _______ _______ _______ _____ _____    ______ ____

>  <TORSDO>
F 6

$$$$
=
 OpenBabel11072409113D

 39 43  0  0  1  0  0  0  0  0999 V2000
  194.7370  174.8620  138.1020 F   0  0  0  0  0  0  0  0  0  0  0  0
  196.2920  176.5700  143.7620 N   0  0  0  0  0  0  0  0  0  0  0  0
  195.1160  174.9500  142.4120 C   0  0  0  0  0  0  0  0  0  0  0  0
  195.1890  175.9070  143.5570 C   0  0  2  0  0  3  0  0  0  0  0  0
  195.8640  175.1920  140.0730 C   0  0  0  0  0  3  0  0  0  0  0  0
  194.2960  173.2660  139.9140 C   0  0  0  0  0  0  0  0  0  0  0  0
  197.4690  175.6640  141.8620 C   0  0  0  0  0  3  0  0  0  0  0  0
  193.8780  173.1490  141.1840 C   0  0  0  0  0  3  0  0  0  0  0  0
  196.2800  174.8420  141.4590 C   0  0  0  0  0  0  0  0  0  0  0  0
  194.0820  174.1100  142.2880 C   0  0  0  0  0  3  0  0  0  0  0  0
  194.9730  174.4820  139.3790 C   0  0  0  0  0  0  0  0  0  0  0  0
  197.4540  176.4560  142.9330 C   0  0  0  0  0  3  0  0  0  0  0  0
  192.4620  172.1180  138.5760 C   0  0  0  0  0  0  0  0  0  0  0  0
  193.3710  170.1300  140.4570 C   0  0  0  0  0  2  0  0  0  0  0  0
  194.3880  170.7680  139.5070 C   0  0  0  0  0  2  0  0  0  0  0  0
  193.9130  172.1350  138.9930 C   0  0  2  0  0  3  0  0  0  0  0  0
  191.7610  170.7760  138.5440 C   0  0  1  0  0  3  0  0  0  0  0  0
  191.0230  170.4080  140.8200 O   0  0  0  0  0  1  0  0  0  0  0  0
  191.4030  174.2210  137.6030 O   0  0  0  0  0  0  0  0  0  0  0  0
  191.9170  173.1990  138.0750 C   0  0  0  0  0  0  0  0  0  0  0  0
  191.9570  170.0050  139.8620 C   0  0  2  0  0  3  0  0  0  0  0  0
  190.2910  170.8020  138.1080 C   0  0  0  0  0  2  0  0  0  0  0  0
  190.1060  170.1370  136.7530 C   0  0  0  0  0  2  0  0  0  0  0  0
  189.3160  172.2080  135.9680 O   0  0  0  0  0  0  0  0  0  0  0  0
  189.8870  171.1660  135.6950 C   0  0  0  0  0  3  0  0  0  0  0  0
  192.0270  176.4180  146.9140 C   0  0  0  0  0  0  0  0  0  0  0  0
  193.3630  176.0520  146.8880 C   0  0  0  0  0  3  0  0  0  0  0  0
  194.0470  176.1410  144.4810 C   0  0  2  0  0  3  0  0  0  0  0  0
  194.2470  175.9250  145.8340 C   0  0  0  0  0  3  0  0  0  0  0  0
  191.2240  176.7450  145.7940 C   0  0  2  0  0  3  0  0  0  0  0  0
  191.6550  176.7660  144.5090 N   0  0  0  0  0  0  0  0  0  0  0  0
  192.8390  176.5160  143.9060 C   0  0  0  0  0  3  0  0  0  0  0  0
  191.5110  176.4520  148.0630 O   0  0  0  0  0  0  0  0  0  0  0  0
  188.7430  176.0020  146.1470 C   0  0  2  0  0  3  0  0  0  0  0  0
  189.0480  177.5410  144.6600 C   0  0  0  0  0  2  0  0  0  0  0  0
  189.7570  177.1280  145.9380 C   0  0  2  0  0  3  0  0  0  0  0  0
  189.3160  174.6750  145.9770 N   0  0  0  0  0  1  0  0  0  0  0  0
  186.7930  176.9800  145.1900 O   0  0  0  0  0  1  0  0  0  0  0  0
  188.0330  176.4260  144.8710 C   0  0  2  0  0  3  0  0  0  0  0  0
  1 11  1  0  0  0  0
  4  3  1  6  0  0  0
  4  2  1  0  0  0  0
  4 28  1  0  0  0  0
  5  9  1  0  0  0  0
  6  8  2  0  0  0  0
  7 12  1  0  0  0  0
  8 10  1  0  0  0  0
  9  7  2  0  0  0  0
  9  3  1  0  0  0  0
 10  3  2  0  0  0  0
 11  6  1  0  0  0  0
 11  5  2  0  0  0  0
 12  2  2  0  0  0  0
 13 16  1  0  0  0  0
 15 14  1  0  0  0  0
 16 15  1  0  0  0  0
 16  6  1  1  0  0  0
 17 22  1  1  0  0  0
 17 13  1  0  0  0  0
 17 21  1  0  0  0  0
 19 20  2  0  0  0  0
 20 13  2  0  0  0  0
 21 14  1  0  0  0  0
 21 18  1  1  0  0  0
 23 22  1  0  0  0  0
 25 24  2  0  0  0  0
 25 23  1  0  0  0  0
 26 33  2  0  0  0  0
 27 26  1  0  0  0  0
 28 32  1  6  0  0  0
 28 29  1  0  0  0  0
 29 27  2  0  0  0  0
 30 31  1  1  0  0  0
 30 36  1  0  0  0  0
 30 26  1  0  0  0  0
 32 31  2  0  0  0  0
 34 37  1  6  0  0  0
 35 39  1  0  0  0  0
 36 35  1  6  0  0  0
 36 34  1  0  0  0  0
 39 38  1  1  0  0  0
 39 34  1  0  0  0  0
M  END
>  <MODEL>
6

>  <REMARK>
 VINA RESULT:      -6.4      3.603      8.816
  Name = 
  6 active torsions:
  status: ('A' for Active; 'I' for Inactive)
    1  A    between atoms: C_7  and  C_14
    2  A    between atoms: C_12  and  C_19
    3  A    between atoms: C_16  and  C_22
    4  A    between atoms: C_16  and  C_37
    5  A    between atoms: C_18  and  C_27
    6  A    between atoms: C_21  and  C_22
                            x       y       z     vdW  Elec       q    Type
                         _______ _______ _______ _____ _____    ______ ____

>  <TORSDO>
F 6

$$$$
=
 OpenBabel11072409113D

 39 43  0  0  1  0  0  0  0  0999 V2000
  195.7250  175.3840  141.1610 F   0  0  0  0  0  0  0  0  0  0  0  0
  192.9030  176.6840  146.4260 N   0  0  0  0  0  0  0  0  0  0  0  0
  192.9700  175.2360  144.4950 C   0  0  0  0  0  0  0  0  0  0  0  0
  192.2440  176.1280  145.4500 C   0  0  0  0  0  0  0  0  0  0  0  0
  195.1520  175.5240  143.3790 C   0  0  0  0  0  3  0  0  0  0  0  0
  194.0950  173.7470  141.9920 C   0  0  0  0  0  0  0  0  0  0  0  0
  195.0500  175.7730  145.8130 C   0  0  0  0  0  3  0  0  0  0  0  0
  192.9030  173.6060  142.5920 C   0  0  0  0  0  3  0  0  0  0  0  0
  194.4650  175.0740  144.6210 C   0  0  1  0  0  3  0  0  0  0  0  0
  192.2990  174.4930  143.6080 C   0  0  0  0  0  3  0  0  0  0  0  0
  194.9860  174.9250  142.1980 C   0  0  0  0  0  0  0  0  0  0  0  0
  194.3090  176.5120  146.6370 C   0  0  0  0  0  3  0  0  0  0  0  0
  193.5710  172.7090  139.7300 C   0  0  0  0  0  0  0  0  0  0  0  0
  193.2170  170.5710  141.6330 C   0  0  0  0  0  2  0  0  0  0  0  0
  194.5660  171.2940  141.5750 C   0  0  0  0  0  2  0  0  0  0  0  0
  194.4390  172.6980  140.9650 C   0  0  2  0  0  3  0  0  0  0  0  0
  193.1230  171.3720  139.1790 C   0  0  1  0  0  3  0  0  0  0  0  0
  191.1470  170.8060  140.4570 O   0  0  0  0  0  1  0  0  0  0  0  0
  193.2340  174.8830  138.4440 O   0  0  0  0  0  0  0  0  0  0  0  0
  193.3980  173.8270  139.0670 C   0  0  0  0  0  0  0  0  0  0  0  0
  192.4960  170.4920  140.2750 C   0  0  2  0  0  3  0  0  0  0  0  0
  192.2510  171.4280  137.9200 C   0  0  0  0  0  2  0  0  0  0  0  0
  192.7770  170.4920  136.8410 C   0  0  0  0  0  2  0  0  0  0  0  0
  195.0140  169.8350  136.5280 O   0  0  0  0  0  0  0  0  0  0  0  0
  194.2210  170.7610  136.5810 C   0  0  0  0  0  3  0  0  0  0  0  0
  187.6370  176.6490  145.6200 C   0  0  0  0  0  0  0  0  0  0  0  0
  188.5760  176.0440  146.4400 C   0  0  0  0  0  3  0  0  0  0  0  0
  190.7900  176.4140  145.3310 C   0  0  2  0  0  3  0  0  0  0  0  0
  189.9470  175.9330  146.3190 C   0  0  0  0  0  3  0  0  0  0  0  0
  187.8960  177.3140  144.3960 C   0  0  2  0  0  3  0  0  0  0  0  0
  189.1230  177.4720  143.8420 N   0  0  0  0  0  0  0  0  0  0  0  0
  190.3750  177.1080  144.2010 C   0  0  0  0  0  3  0  0  0  0  0  0
  186.4500  176.5830  146.0370 O   0  0  0  0  0  0  0  0  0  0  0  0
  185.8930  177.0070  142.7450 C   0  0  2  0  0  3  0  0  0  0  0  0
  187.2170  178.6580  142.3010 C   0  0  0  0  0  2  0  0  0  0  0  0
  186.7830  177.9410  143.5680 C   0  0  2  0  0  3  0  0  0  0  0  0
  186.3760  175.6340  142.7140 N   0  0  0  0  0  1  0  0  0  0  0  0
  185.2500  178.4610  140.9700 O   0  0  0  0  0  1  0  0  0  0  0  0
  186.3260  177.7350  141.4810 C   0  0  2  0  0  3  0  0  0  0  0  0
  1 11  1  0  0  0  0
  2 12  1  0  0  0  0
  3  9  1  0  0  0  0
  3  4  1  0  0  0  0
  4  2  2  0  0  0  0
  6 11  1  0  0  0  0
  6  8  2  0  0  0  0
  7 12  2  0  0  0  0
  8 10  1  0  0  0  0
  9  5  1  6  0  0  0
  9  7  1  0  0  0  0
 10  3  2  0  0  0  0
 11  5  2  0  0  0  0
 13 16  1  0  0  0  0
 15 14  1  0  0  0  0
 16 15  1  0  0  0  0
 16  6  1  1  0  0  0
 17 22  1  6  0  0  0
 17 13  1  0  0  0  0
 17 21  1  0  0  0  0
 19 20  2  0  0  0  0
 20 13  2  0  0  0  0
 21 18  1  1  0  0  0
 21 14  1  0  0  0  0
 23 22  1  0  0  0  0
 24 25  2  0  0  0  0
 25 23  1  0  0  0  0
 26 33  2  0  0  0  0
 26 27  1  0  0  0  0
 28  4  1  6  0  0  0
 28 29  1  0  0  0  0
 29 27  2  0  0  0  0
 30 31  1  1  0  0  0
 30 26  1  0  0  0  0
 31 32  2  0  0  0  0
 32 28  1  0  0  0  0
 34 37  1  6  0  0  0
 34 36  1  0  0  0  0
 36 35  1  6  0  0  0
 36 30  1  0  0  0  0
 39 38  1  1  0  0  0
 39 35  1  0  0  0  0
 39 34  1  0  0  0  0
M  END
>  <MODEL>
7

>  <REMARK>
 VINA RESULT:      -6.3      3.384      9.241
  Name = 
  6 active torsions:
  status: ('A' for Active; 'I' for Inactive)
    1  A    between atoms: C_7  and  C_14
    2  A    between atoms: C_12  and  C_19
    3  A    between atoms: C_16  and  C_22
    4  A    between atoms: C_16  and  C_37
    5  A    between atoms: C_18  and  C_27
    6  A    between atoms: C_21  and  C_22
                            x       y       z     vdW  Elec       q    Type
                         _______ _______ _______ _____ _____    ______ ____

>  <TORSDO>
F 6

$$$$
=
 OpenBabel11072409113D

 39 43  0  0  1  0  0  0  0  0999 V2000
  194.5650  175.8720  144.0330 F   0  0  0  0  0  0  0  0  0  0  0  0
  190.3790  177.6490  148.1180 N   0  0  0  0  0  0  0  0  0  0  0  0
  190.9830  176.0050  146.4570 C   0  0  0  0  0  0  0  0  0  0  0  0
  190.0200  176.9730  147.0640 C   0  0  0  0  0  0  0  0  0  0  0  0
  193.3910  176.2330  145.9710 C   0  0  0  0  0  3  0  0  0  0  0  0
  192.7620  174.2880  144.5510 C   0  0  0  0  0  0  0  0  0  0  0  0
  192.6090  176.7390  148.2360 C   0  0  0  0  0  3  0  0  0  0  0  0
  191.4490  174.1780  144.8050 C   0  0  0  0  0  3  0  0  0  0  0  0
  192.3810  175.9000  147.0130 C   0  0  1  0  0  3  0  0  0  0  0  0
  190.5860  175.1520  145.5050 C   0  0  0  0  0  3  0  0  0  0  0  0
  193.5630  175.5060  144.8650 C   0  0  0  0  0  0  0  0  0  0  0  0
  191.6680  177.5410  148.7320 C   0  0  0  0  0  3  0  0  0  0  0  0
  192.9860  173.0700  142.3290 C   0  0  0  0  0  0  0  0  0  0  0  0
  191.8880  171.1170  144.1440 C   0  0  0  0  0  2  0  0  0  0  0  0
  193.2130  171.7960  144.5010 C   0  0  0  0  0  2  0  0  0  0  0  0
  193.3780  173.1440  143.7850 C   0  0  2  0  0  3  0  0  0  0  0  0
  192.6800  171.7020  141.7560 C   0  0  1  0  0  3  0  0  0  0  0  0
  190.3590  171.3020  142.3130 O   0  0  0  0  0  1  0  0  0  0  0  0
  193.2260  175.1310  140.8500 O   0  0  0  0  0  0  0  0  0  0  0  0
  193.1100  174.1300  141.5670 C   0  0  0  0  0  0  0  0  0  0  0  0
  191.6700  170.9370  142.6300 C   0  0  2  0  0  3  0  0  0  0  0  0
  192.2940  171.6700  140.2730 C   0  0  0  0  0  2  0  0  0  0  0  0
  192.4850  170.2810  139.6830 C   0  0  0  0  0  2  0  0  0  0  0  0
  191.3030  169.2030  137.9580 O   0  0  0  0  0  0  0  0  0  0  0  0
  191.2360  169.8300  139.0020 C   0  0  0  0  0  3  0  0  0  0  0  0
  185.5520  177.4900  145.9280 C   0  0  0  0  0  0  0  0  0  0  0  0
  186.2230  177.1500  147.0910 C   0  0  0  0  0  3  0  0  0  0  0  0
  188.6580  177.2040  146.5120 C   0  0  2  0  0  3  0  0  0  0  0  0
  187.5730  177.0190  147.3510 C   0  0  0  0  0  3  0  0  0  0  0  0
  186.1390  177.7780  144.6720 C   0  0  2  0  0  3  0  0  0  0  0  0
  187.4720  177.7810  144.4210 N   0  0  0  0  0  0  0  0  0  0  0  0
  188.5740  177.5420  145.1670 C   0  0  0  0  0  3  0  0  0  0  0  0
  184.2970  177.5370  146.0370 O   0  0  0  0  0  0  0  0  0  0  0  0
  185.3190  177.1670  142.2670 C   0  0  2  0  0  3  0  0  0  0  0  0
  185.8500  179.2410  142.5680 C   0  0  0  0  0  2  0  0  0  0  0  0
  185.3020  178.1350  143.4520 C   0  0  2  0  0  3  0  0  0  0  0  0
  186.3160  176.1150  142.4000 N   0  0  0  0  0  1  0  0  0  0  0  0
  184.8820  178.6660  140.4660 O   0  0  0  0  0  1  0  0  0  0  0  0
  185.8600  178.2820  141.3850 C   0  0  2  0  0  3  0  0  0  0  0  0
  1 11  1  0  0  0  0
  2 12  1  0  0  0  0
  3  9  1  0  0  0  0
  3  4  1  0  0  0  0
  4  2  2  0  0  0  0
  6  8  2  0  0  0  0
  6 11  1  0  0  0  0
  7 12  2  0  0  0  0
  8 10  1  0  0  0  0
  9  5  1  6  0  0  0
  9  7  1  0  0  0  0
 10  3  2  0  0  0  0
 11  5  2  0  0  0  0
 13 16  1  0  0  0  0
 14 15  1  0  0  0  0
 16 15  1  0  0  0  0
 16  6  1  1  0  0  0
 17 22  1  6  0  0  0
 17 13  1  0  0  0  0
 17 21  1  0  0  0  0
 19 20  2  0  0  0  0
 20 13  2  0  0  0  0
 21 18  1  6  0  0  0
 21 14  1  0  0  0  0
 23 22  1  0  0  0  0
 24 25  2  0  0  0  0
 25 23  1  0  0  0  0
 26 33  2  0  0  0  0
 26 27  1  0  0  0  0
 27 29  2  0  0  0  0
 28  4  1  6  0  0  0
 28 29  1  0  0  0  0
 30 31  1  1  0  0  0
 30 26  1  0  0  0  0
 31 32  2  0  0  0  0
 32 28  1  0  0  0  0
 34 37  1  1  0  0  0
 34 36  1  0  0  0  0
 36 35  1  6  0  0  0
 36 30  1  0  0  0  0
 39 38  1  6  0  0  0
 39 34  1  0  0  0  0
 39 35  1  0  0  0  0
M  END
>  <MODEL>
8

>  <REMARK>
 VINA RESULT:      -6.3      4.098      9.332
  Name = 
  6 active torsions:
  status: ('A' for Active; 'I' for Inactive)
    1  A    between atoms: C_7  and  C_14
    2  A    between atoms: C_12  and  C_19
    3  A    between atoms: C_16  and  C_22
    4  A    between atoms: C_16  and  C_37
    5  A    between atoms: C_18  and  C_27
    6  A    between atoms: C_21  and  C_22
                            x       y       z     vdW  Elec       q    Type
                         _______ _______ _______ _____ _____    ______ ____

>  <TORSDO>
F 6

$$$$
=
 OpenBabel11072409113D

 39 43  0  0  1  0  0  0  0  0999 V2000
  188.0610  175.2590  141.5950 F   0  0  0  0  0  0  0  0  0  0  0  0
  191.9850  170.5990  141.0800 N   0  0  0  0  0  0  0  0  0  0  0  0
  191.6830  172.8960  141.7600 C   0  0  0  0  0  0  0  0  0  0  0  0
  192.4140  171.8270  141.0130 C   0  0  0  0  0  0  0  0  0  0  0  0
  189.2640  173.3390  141.9620 C   0  0  0  0  0  3  0  0  0  0  0  0
  190.2460  175.5090  142.6850 C   0  0  0  0  0  0  0  0  0  0  0  0
  190.0800  171.0890  142.4760 C   0  0  0  0  0  3  0  0  0  0  0  0
  191.5610  175.2690  142.5570 C   0  0  0  0  0  3  0  0  0  0  0  0
  190.4110  172.5520  142.4940 C   0  0  1  0  0  3  0  0  0  0  0  0
  192.2020  174.1240  141.8800 C   0  0  0  0  0  3  0  0  0  0  0  0
  189.1910  174.6690  142.0500 C   0  0  0  0  0  0  0  0  0  0  0  0
  190.8230  170.2010  141.8170 C   0  0  0  0  0  3  0  0  0  0  0  0
  188.8060  176.6350  144.4540 C   0  0  0  0  0  0  0  0  0  0  0  0
  188.1350  177.9670  141.9860 C   0  0  0  0  0  2  0  0  0  0  0  0
  189.5970  177.9450  142.4400 C   0  0  0  0  0  2  0  0  0  0  0  0
  189.8810  176.7830  143.4040 C   0  0  2  0  0  3  0  0  0  0  0  0
  187.7470  177.7140  144.5270 C   0  0  1  0  0  3  0  0  0  0  0  0
  186.0990  177.0780  142.8730 O   0  0  0  0  0  1  0  0  0  0  0  0
  189.0350  174.8420  146.2500 O   0  0  0  0  0  0  0  0  0  0  0  0
  188.9240  175.7130  145.3790 C   0  0  0  0  0  0  0  0  0  0  0  0
  187.1230  177.9870  143.1460 C   0  0  2  0  0  3  0  0  0  0  0  0
  186.6790  177.5290  145.6110 C   0  0  0  0  0  2  0  0  0  0  0  0
  186.0160  178.8520  145.9640 C   0  0  0  0  0  2  0  0  0  0  0  0
  183.6780  178.6630  146.1330 O   0  0  0  0  0  0  0  0  0  0  0  0
  184.7490  178.6140  146.7140 C   0  0  0  0  0  3  0  0  0  0  0  0
  196.5130  172.4010  138.9180 C   0  0  0  0  0  0  0  0  0  0  0  0
  196.0950  171.7530  140.0690 C   0  0  0  0  0  2  0  0  0  0  0  0
  193.6190  172.1060  140.1880 C   0  0  0  0  0  0  0  0  0  0  0  0
  194.8390  171.6240  140.6300 C   0  0  0  0  0  3  0  0  0  0  0  0
  195.6950  173.1310  138.0200 C   0  0  2  0  0  3  0  0  0  0  0  0
  194.3560  173.2940  138.1480 N   0  0  0  0  0  0  0  0  0  0  0  0
  193.4350  172.8800  139.0480 C   0  0  0  0  0  3  0  0  0  0  0  0
  197.7460  172.3100  138.6790 O   0  0  0  0  0  0  0  0  0  0  0  0
  197.0520  175.1090  136.9820 C   0  0  2  0  0  3  0  0  0  0  0  0
  195.2630  174.5450  135.9070 C   0  0  0  0  0  2  0  0  0  0  0  0
  196.2640  173.8130  136.7830 C   0  0  2  0  0  3  0  0  0  0  0  0
  196.9750  175.6250  138.3410 N   0  0  0  0  0  1  0  0  0  0  0  0
  196.6630  176.1870  134.8930 O   0  0  0  0  0  1  0  0  0  0  0  0
  196.0510  175.8340  136.0960 C   0  0  2  0  0  3  0  0  0  0  0  0
  1 11  1  0  0  0  0
  2 12  1  0  0  0  0
  3 10  2  0  0  0  0
  3  9  1  0  0  0  0
  4  2  2  0  0  0  0
  4  3  1  0  0  0  0
  5 11  2  0  0  0  0
  7  9  1  0  0  0  0
  8  6  2  0  0  0  0
  9  5  1  6  0  0  0
 10  8  1  0  0  0  0
 11  6  1  0  0  0  0
 12  7  2  0  0  0  0
 13 17  1  0  0  0  0
 13 20  2  0  0  0  0
 14 15  1  0  0  0  0
 14 21  1  0  0  0  0
 15 16  1  0  0  0  0
 16  6  1  6  0  0  0
 16 13  1  0  0  0  0
 17 22  1  1  0  0  0
 20 19  2  0  0  0  0
 21 18  1  6  0  0  0
 21 17  1  0  0  0  0
 22 23  1  0  0  0  0
 23 25  1  0  0  0  0
 24 25  2  0  0  0  0
 26 27  1  0  0  0  0
 27 29  1  0  0  0  0
 28 29  2  0  0  0  0
 28  4  1  0  0  0  0
 30 31  1  6  0  0  0
 30 26  1  0  0  0  0
 31 32  2  0  0  0  0
 32 28  1  0  0  0  0
 33 26  2  0  0  0  0
 34 37  1  1  0  0  0
 35 39  1  0  0  0  0
 36 35  1  6  0  0  0
 36 34  1  0  0  0  0
 36 30  1  0  0  0  0
 39 38  1  6  0  0  0
 39 34  1  0  0  0  0
M  END
>  <MODEL>
9

>  <REMARK>
 VINA RESULT:      -6.3      2.334      2.795
  Name = 
  6 active torsions:
  status: ('A' for Active; 'I' for Inactive)
    1  A    between atoms: C_7  and  C_14
    2  A    between atoms: C_12  and  C_19
    3  A    between atoms: C_16  and  C_22
    4  A    between atoms: C_16  and  C_37
    5  A    between atoms: C_18  and  C_27
    6  A    between atoms: C_21  and  C_22
                            x       y       z     vdW  Elec       q    Type
                         _______ _______ _______ _____ _____    ______ ____

>  <TORSDO>
F 6

$$$$
