=
 OpenBabel11062422003D

 35 37  0  0  1  0  0  0  0  0999 V2000
  186.8040  176.4510  146.5560 O   0  0  0  0  0  0  0  0  0  0  0  0
  188.9520  177.4460  145.8180 C   0  0  0  0  0  2  0  0  0  0  0  0
  186.8160  178.1060  144.6760 C   0  0  2  0  0  3  0  0  0  0  0  0
  186.0210  178.2440  143.3920 C   0  0  0  0  0  0  0  0  0  0  0  0
  188.2300  177.5070  144.4730 C   0  0  2  0  0  3  0  0  0  0  0  0
  183.9910  179.1460  144.4680 N   0  0  0  0  0  0  0  0  0  0  0  0
  188.2010  176.5800  146.8460 C   0  0  2  0  0  3  0  0  0  0  0  0
  184.0110  178.7020  145.6860 C   0  0  0  0  0  3  0  0  0  0  0  0
  184.8010  178.7720  143.3500 C   0  0  0  0  0  3  0  0  0  0  0  0
  186.0990  177.3940  145.8000 C   0  0  0  0  0  0  0  0  0  0  0  0
  184.9020  177.7030  146.1910 N   0  0  0  0  0  0  0  0  0  0  0  0
  187.1470  177.9070  141.0740 N   0  0  0  0  0  0  0  0  0  0  0  0
  186.6470  178.0640  142.1060 C   0  0  0  0  0  0  0  0  0  0  0  0
  188.2030  176.1160  143.8250 C   0  0  0  0  0  2  0  0  0  0  0  0
  189.5120  175.8400  143.0960 C   0  0  1  0  0  3  0  0  0  0  0  0
  187.9630  174.2190  142.0020 C   0  0  0  0  0  1  0  0  0  0  0  0
  189.2560  174.9980  141.8520 C   0  0  0  0  0  2  0  0  0  0  0  0
  190.2560  177.1370  142.7710 C   0  0  0  0  0  2  0  0  0  0  0  0
  191.7660  176.9870  142.8970 C   0  0  0  0  0  2  0  0  0  0  0  0
  192.0880  176.3330  144.1540 N   0  0  0  0  0  2  0  0  0  0  0  0
  195.2320  174.9680  143.8000 C   0  0  1  0  0  3  0  0  0  0  0  0
  194.8370  174.4700  145.1780 C   0  0  2  0  0  0  0  0  0  0  0  0
  194.2050  175.7990  143.3260 O   0  0  0  0  0  0  0  0  0  0  0  0
  193.3410  174.4810  145.1230 C   0  0  0  0  0  2  0  0  0  0  0  0
  193.0200  175.2580  143.8550 C   0  0  1  0  0  3  0  0  0  0  0  0
  195.2700  175.3270  146.1930 O   0  0  0  0  0  1  0  0  0  0  0  0
  195.3530  173.0660  145.4250 C   0  0  0  0  0  1  0  0  0  0  0  0
  196.5520  175.6750  143.7610 C   0  0  0  0  0  0  0  0  0  0  0  0
  197.6170  175.0160  143.8820 O   0  0  0  0  0  1  0  0  0  0  0  0
  196.6080  177.0580  143.6370 O   0  0  0  0  0  0  0  0  0  0  0  0
  188.8240  175.2000  146.9630 C   0  0  0  0  0  2  0  0  0  0  0  0
  190.1770  175.2560  146.6260 O   0  0  0  0  0  0  0  0  0  0  0  0
  190.8420  175.3350  147.8480 C   0  0  0  0  0  2  0  0  0  0  0  0
  191.8060  176.5040  147.8240 C   0  0  0  0  0  2  0  0  0  0  0  0
  191.4640  177.4120  148.8260 O   0  0  0  0  0  1  0  0  0  0  0  0
  1  7  1  0  0  0  0
  2  7  1  0  0  0  0
  3  4  1  6  0  0  0
  3 10  1  0  0  0  0
  5 14  1  1  0  0  0
  5  3  1  0  0  0  0
  5  2  1  0  0  0  0
  6  8  2  0  0  0  0
  7 31  1  6  0  0  0
  8 11  1  0  0  0  0
  9  4  2  0  0  0  0
  9  6  1  0  0  0  0
 10 11  2  0  0  0  0
 10  1  1  0  0  0  0
 12 13  3  0  0  0  0
 13  4  1  0  0  0  0
 15 17  1  6  0  0  0
 15 14  1  0  0  0  0
 17 16  1  0  0  0  0
 18 19  1  0  0  0  0
 18 15  1  0  0  0  0
 19 20  1  0  0  0  0
 21 28  1  1  0  0  0
 21 22  1  0  0  0  0
 22 27  1  1  0  0  0
 22 26  1  0  0  0  0
 23 21  1  0  0  0  0
 23 25  1  0  0  0  0
 24 22  1  0  0  0  0
 25 20  1  1  0  0  0
 25 24  1  0  0  0  0
 28 29  1  0  0  0  0
 30 28  2  0  0  0  0
 32 31  1  0  0  0  0
 32 33  1  0  0  0  0
 34 33  1  0  0  0  0
 34 35  1  0  0  0  0
M  END
>  <MODEL>
1

>  <REMARK>
 VINA RESULT:      -6.8      0.000      0.000
  Name = 
  13 active torsions:
  status: ('A' for Active; 'I' for Inactive)
    1  A    between atoms: O_3  and  C_15
    2  A    between atoms: O_3  and  C_29
    3  A    between atoms: C_4  and  C_10
    4  A    between atoms: C_6  and  C_9
    5  A    between atoms: C_11  and  C_29
    6  A    between atoms: C_13  and  C_14
    7  A    between atoms: C_14  and  C_32
    8  A    between atoms: C_15  and  C_21
    9  A    between atoms: C_20  and  C_22
   10  A    between atoms: C_20  and  C_32
   11  A    between atoms: C_22  and  N_31
   12  A    between atoms: C_25  and  C_32
   13  A    between atoms: C_27  and  N_31
                            x       y       z     vdW  Elec       q    Type
                         _______ _______ _______ _____ _____    ______ ____

>  <TORSDO>
F 13

$$$$
=
 OpenBabel11062422003D

 35 37  0  0  1  0  0  0  0  0999 V2000
  187.1530  176.0670  146.8310 O   0  0  0  0  0  0  0  0  0  0  0  0
  189.1630  177.2730  146.0180 C   0  0  0  0  0  2  0  0  0  0  0  0
  186.8780  178.0400  145.3120 C   0  0  2  0  0  3  0  0  0  0  0  0
  185.9120  178.3790  144.1940 C   0  0  0  0  0  0  0  0  0  0  0  0
  188.2610  177.5500  144.8160 C   0  0  2  0  0  3  0  0  0  0  0  0
  184.0330  178.9770  145.6790 N   0  0  0  0  0  0  0  0  0  0  0  0
  188.5750  176.2000  146.9530 C   0  0  2  0  0  3  0  0  0  0  0  0
  184.2290  178.3170  146.7780 C   0  0  0  0  0  3  0  0  0  0  0  0
  184.6880  178.8510  144.4130 C   0  0  0  0  0  3  0  0  0  0  0  0
  186.3350  177.1020  146.3650 C   0  0  0  0  0  0  0  0  0  0  0  0
  185.1980  177.2810  146.9620 N   0  0  0  0  0  0  0  0  0  0  0  0
  186.7290  178.5340  141.7320 N   0  0  0  0  0  0  0  0  0  0  0  0
  186.3580  178.4670  142.8260 C   0  0  0  0  0  0  0  0  0  0  0  0
  188.1700  176.3030  143.9260 C   0  0  0  0  0  2  0  0  0  0  0  0
  189.3650  176.2300  142.9830 C   0  0  1  0  0  3  0  0  0  0  0  0
  188.6440  174.0890  141.9250 C   0  0  0  0  0  1  0  0  0  0  0  0
  188.9670  175.5500  141.6780 C   0  0  0  0  0  2  0  0  0  0  0  0
  189.9780  177.6120  142.7490 C   0  0  0  0  0  2  0  0  0  0  0  0
  191.3740  177.7360  143.3470 C   0  0  0  0  0  2  0  0  0  0  0  0
  192.3450  177.1370  142.4460 N   0  0  0  0  0  2  0  0  0  0  0  0
  195.1340  175.5950  143.7560 C   0  0  1  0  0  3  0  0  0  0  0  0
  194.6000  176.3380  144.9670 C   0  0  2  0  0  0  0  0  0  0  0  0
  194.3230  175.9150  142.6560 O   0  0  0  0  0  0  0  0  0  0  0  0
  193.1430  176.4850  144.6540 C   0  0  0  0  0  2  0  0  0  0  0  0
  193.0350  176.0940  143.1880 C   0  0  1  0  0  3  0  0  0  0  0  0
  195.1750  177.6040  145.1050 O   0  0  0  0  0  1  0  0  0  0  0  0
  194.7960  175.5340  146.2360 C   0  0  0  0  0  1  0  0  0  0  0  0
  196.5760  175.8720  143.4560 C   0  0  0  0  0  0  0  0  0  0  0  0
  196.8790  176.7470  142.6040 O   0  0  0  0  0  0  0  0  0  0  0  0
  197.5790  175.1400  144.0790 O   0  0  0  0  0  1  0  0  0  0  0  0
  189.2330  174.8500  146.7240 C   0  0  0  0  0  2  0  0  0  0  0  0
  190.5710  175.0240  146.3720 O   0  0  0  0  0  0  0  0  0  0  0  0
  190.8350  173.9960  145.4680 C   0  0  0  0  0  2  0  0  0  0  0  0
  189.6530  173.0490  145.4220 C   0  0  0  0  0  2  0  0  0  0  0  0
  189.9230  172.0080  144.5350 O   0  0  0  0  0  1  0  0  0  0  0  0
  1  7  1  0  0  0  0
  2  7  1  0  0  0  0
  3  4  1  6  0  0  0
  3 10  1  0  0  0  0
  4  9  2  0  0  0  0
  5 14  1  1  0  0  0
  5  3  1  0  0  0  0
  5  2  1  0  0  0  0
  6  8  2  0  0  0  0
  7 31  1  6  0  0  0
  8 11  1  0  0  0  0
  9  6  1  0  0  0  0
 10  1  1  0  0  0  0
 10 11  2  0  0  0  0
 12 13  3  0  0  0  0
 13  4  1  0  0  0  0
 15 17  1  6  0  0  0
 15 14  1  0  0  0  0
 17 16  1  0  0  0  0
 18 15  1  0  0  0  0
 18 19  1  0  0  0  0
 20 19  1  0  0  0  0
 21 28  1  6  0  0  0
 21 22  1  0  0  0  0
 22 26  1  0  0  0  0
 22 27  1  1  0  0  0
 23 25  1  0  0  0  0
 23 21  1  0  0  0  0
 24 22  1  0  0  0  0
 25 20  1  6  0  0  0
 25 24  1  0  0  0  0
 28 30  1  0  0  0  0
 29 28  2  0  0  0  0
 32 31  1  0  0  0  0
 33 32  1  0  0  0  0
 34 33  1  0  0  0  0
 35 34  1  0  0  0  0
M  END
>  <MODEL>
2

>  <REMARK>
 VINA RESULT:      -6.5      1.374      1.919
  Name = 
  13 active torsions:
  status: ('A' for Active; 'I' for Inactive)
    1  A    between atoms: O_3  and  C_15
    2  A    between atoms: O_3  and  C_29
    3  A    between atoms: C_4  and  C_10
    4  A    between atoms: C_6  and  C_9
    5  A    between atoms: C_11  and  C_29
    6  A    between atoms: C_13  and  C_14
    7  A    between atoms: C_14  and  C_32
    8  A    between atoms: C_15  and  C_21
    9  A    between atoms: C_20  and  C_22
   10  A    between atoms: C_20  and  C_32
   11  A    between atoms: C_22  and  N_31
   12  A    between atoms: C_25  and  C_32
   13  A    between atoms: C_27  and  N_31
                            x       y       z     vdW  Elec       q    Type
                         _______ _______ _______ _____ _____    ______ ____

>  <TORSDO>
F 13

$$$$
=
 OpenBabel11062422003D

 35 37  0  0  1  0  0  0  0  0999 V2000
  186.9080  176.4320  146.5860 O   0  0  0  0  0  0  0  0  0  0  0  0
  189.0610  177.3680  145.7880 C   0  0  0  0  0  2  0  0  0  0  0  0
  186.9200  178.0210  144.6500 C   0  0  2  0  0  3  0  0  0  0  0  0
  186.1100  178.1270  143.3720 C   0  0  0  0  0  0  0  0  0  0  0  0
  188.3220  177.3940  144.4510 C   0  0  2  0  0  3  0  0  0  0  0  0
  184.1080  179.0960  144.4420 N   0  0  0  0  0  0  0  0  0  0  0  0
  188.3100  176.5490  146.8530 C   0  0  2  0  0  3  0  0  0  0  0  0
  184.1380  178.6930  145.6750 C   0  0  0  0  0  3  0  0  0  0  0  0
  184.8970  178.6710  143.3280 C   0  0  0  0  0  3  0  0  0  0  0  0
  186.2080  177.3590  145.8060 C   0  0  0  0  0  0  0  0  0  0  0  0
  185.0200  177.6980  146.2020 N   0  0  0  0  0  0  0  0  0  0  0  0
  187.1950  177.7130  141.0470 N   0  0  0  0  0  0  0  0  0  0  0  0
  186.7170  177.8940  142.0850 C   0  0  0  0  0  0  0  0  0  0  0  0
  188.2670  175.9820  143.8510 C   0  0  0  0  0  2  0  0  0  0  0  0
  189.6270  175.5830  143.2940 C   0  0  1  0  0  3  0  0  0  0  0  0
  187.9950  174.2170  141.9920 C   0  0  0  0  0  1  0  0  0  0  0  0
  189.4650  174.5280  142.2070 C   0  0  0  0  0  2  0  0  0  0  0  0
  190.4100  176.8020  142.8020 C   0  0  0  0  0  2  0  0  0  0  0  0
  191.9170  176.5860  142.8600 C   0  0  0  0  0  2  0  0  0  0  0  0
  192.2670  175.9300  144.1090 N   0  0  0  0  0  2  0  0  0  0  0  0
  195.5340  175.3080  145.0120 C   0  0  1  0  0  3  0  0  0  0  0  0
  195.6610  175.4820  143.5090 C   0  0  2  0  0  0  0  0  0  0  0  0
  194.1750  175.4010  145.3480 O   0  0  0  0  0  0  0  0  0  0  0  0
  194.4790  176.3350  143.1690 C   0  0  0  0  0  2  0  0  0  0  0  0
  193.6310  176.3180  144.4320 C   0  0  1  0  0  3  0  0  0  0  0  0
  195.5660  174.2650  142.8280 O   0  0  0  0  0  1  0  0  0  0  0  0
  196.9520  176.1850  143.1440 C   0  0  0  0  0  1  0  0  0  0  0  0
  196.1270  174.0340  145.5320 C   0  0  0  0  0  0  0  0  0  0  0  0
  197.3690  173.9550  145.7220 O   0  0  0  0  0  0  0  0  0  0  0  0
  195.3230  172.9260  145.7640 O   0  0  0  0  0  1  0  0  0  0  0  0
  188.9150  175.1650  147.0100 C   0  0  0  0  0  2  0  0  0  0  0  0
  190.2650  175.1900  146.6600 O   0  0  0  0  0  0  0  0  0  0  0  0
  190.9430  175.2550  147.8760 C   0  0  0  0  0  2  0  0  0  0  0  0
  191.8970  176.4320  147.8610 C   0  0  0  0  0  2  0  0  0  0  0  0
  191.4020  177.4440  148.6830 O   0  0  0  0  0  1  0  0  0  0  0  0
  1  7  1  0  0  0  0
  2  7  1  0  0  0  0
  3  4  1  6  0  0  0
  3 10  1  0  0  0  0
  5 14  1  1  0  0  0
  5  3  1  0  0  0  0
  5  2  1  0  0  0  0
  6  8  2  0  0  0  0
  7 31  1  6  0  0  0
  8 11  1  0  0  0  0
  9  4  2  0  0  0  0
  9  6  1  0  0  0  0
 10 11  2  0  0  0  0
 10  1  1  0  0  0  0
 12 13  3  0  0  0  0
 13  4  1  0  0  0  0
 15 17  1  6  0  0  0
 15 14  1  0  0  0  0
 16 17  1  0  0  0  0
 18 19  1  0  0  0  0
 18 15  1  0  0  0  0
 19 20  1  0  0  0  0
 21 23  1  0  0  0  0
 21 28  1  6  0  0  0
 22 27  1  6  0  0  0
 22 21  1  0  0  0  0
 24 22  1  0  0  0  0
 24 25  1  0  0  0  0
 25 20  1  6  0  0  0
 25 23  1  0  0  0  0
 26 22  1  0  0  0  0
 28 29  2  0  0  0  0
 28 30  1  0  0  0  0
 32 31  1  0  0  0  0
 32 33  1  0  0  0  0
 34 33  1  0  0  0  0
 34 35  1  0  0  0  0
M  END
>  <MODEL>
3

>  <REMARK>
 VINA RESULT:      -6.5      0.949      1.568
  Name = 
  13 active torsions:
  status: ('A' for Active; 'I' for Inactive)
    1  A    between atoms: O_3  and  C_15
    2  A    between atoms: O_3  and  C_29
    3  A    between atoms: C_4  and  C_10
    4  A    between atoms: C_6  and  C_9
    5  A    between atoms: C_11  and  C_29
    6  A    between atoms: C_13  and  C_14
    7  A    between atoms: C_14  and  C_32
    8  A    between atoms: C_15  and  C_21
    9  A    between atoms: C_20  and  C_22
   10  A    between atoms: C_20  and  C_32
   11  A    between atoms: C_22  and  N_31
   12  A    between atoms: C_25  and  C_32
   13  A    between atoms: C_27  and  N_31
                            x       y       z     vdW  Elec       q    Type
                         _______ _______ _______ _____ _____    ______ ____

>  <TORSDO>
F 13

$$$$
=
 OpenBabel11062422003D

 35 37  0  0  1  0  0  0  0  0999 V2000
  187.5130  176.5620  141.2550 O   0  0  0  0  0  0  0  0  0  0  0  0
  189.1450  177.5560  142.8350 C   0  0  0  0  0  2  0  0  0  0  0  0
  189.3660  175.1450  142.1680 C   0  0  2  0  0  3  0  0  0  0  0  0
  189.4710  173.6890  142.5800 C   0  0  0  0  0  0  0  0  0  0  0  0
  189.2050  176.1210  143.3590 C   0  0  2  0  0  3  0  0  0  0  0  0
  189.6260  172.8050  140.2810 N   0  0  0  0  0  0  0  0  0  0  0  0
  187.9690  177.7740  141.8660 C   0  0  2  0  0  3  0  0  0  0  0  0
  189.0310  173.6760  139.5270 C   0  0  0  0  0  3  0  0  0  0  0  0
  189.6510  172.7020  141.7070 C   0  0  0  0  0  3  0  0  0  0  0  0
  188.3310  175.4370  141.1050 C   0  0  0  0  0  0  0  0  0  0  0  0
  188.2460  174.7770  139.9920 N   0  0  0  0  0  0  0  0  0  0  0  0
  189.7980  173.0320  145.0730 N   0  0  0  0  0  0  0  0  0  0  0  0
  189.6550  173.3190  143.9610 C   0  0  0  0  0  0  0  0  0  0  0  0
  187.9680  175.8210  144.2160 C   0  0  0  0  0  2  0  0  0  0  0  0
  187.9970  176.6370  145.5030 C   0  0  1  0  0  3  0  0  0  0  0  0
  186.5510  177.8530  147.1330 C   0  0  0  0  0  1  0  0  0  0  0  0
  186.5940  176.7570  146.0840 C   0  0  0  0  0  2  0  0  0  0  0  0
  188.9920  176.0570  146.5110 C   0  0  0  0  0  2  0  0  0  0  0  0
  190.1170  177.0300  146.8400 C   0  0  0  0  0  2  0  0  0  0  0  0
  191.3160  176.2880  147.1890 N   0  0  0  0  0  2  0  0  0  0  0  0
  193.8610  176.2040  144.8660 C   0  0  1  0  0  3  0  0  0  0  0  0
  194.0960  174.9090  145.6230 C   0  0  2  0  0  0  0  0  0  0  0  0
  192.7910  176.8770  145.4770 O   0  0  0  0  0  0  0  0  0  0  0  0
  192.7400  174.5910  146.1730 C   0  0  0  0  0  2  0  0  0  0  0  0
  191.9370  175.8630  145.9440 C   0  0  1  0  0  3  0  0  0  0  0  0
  194.9980  175.0700  146.6790 O   0  0  0  0  0  1  0  0  0  0  0  0
  194.5690  173.8080  144.6960 C   0  0  0  0  0  1  0  0  0  0  0  0
  195.0680  177.0870  144.7790 C   0  0  0  0  0  0  0  0  0  0  0  0
  195.1480  178.1100  145.5080 O   0  0  0  0  0  1  0  0  0  0  0  0
  196.0790  176.8110  143.8670 O   0  0  0  0  0  0  0  0  0  0  0  0
  186.8050  178.4620  142.5600 C   0  0  0  0  0  2  0  0  0  0  0  0
  185.6070  178.1250  141.9310 O   0  0  0  0  0  0  0  0  0  0  0  0
  184.6970  177.9590  142.9730 C   0  0  0  0  0  2  0  0  0  0  0  0
  184.7850  179.1420  143.9160 C   0  0  0  0  0  2  0  0  0  0  0  0
  183.9070  178.9560  144.9830 O   0  0  0  0  0  1  0  0  0  0  0  0
  1  7  1  0  0  0  0
  2  5  1  0  0  0  0
  3 10  1  6  0  0  0
  3  4  1  0  0  0  0
  3  5  1  0  0  0  0
  4 13  1  0  0  0  0
  5 14  1  6  0  0  0
  6  9  1  0  0  0  0
  7 31  1  1  0  0  0
  7  2  1  0  0  0  0
  8 11  1  0  0  0  0
  8  6  2  0  0  0  0
  9  4  2  0  0  0  0
 10  1  1  0  0  0  0
 11 10  2  0  0  0  0
 13 12  3  0  0  0  0
 15 14  1  6  0  0  0
 15 17  1  0  0  0  0
 15 18  1  0  0  0  0
 17 16  1  0  0  0  0
 18 19  1  0  0  0  0
 19 20  1  0  0  0  0
 21 28  1  1  0  0  0
 21 23  1  0  0  0  0
 21 22  1  0  0  0  0
 22 27  1  6  0  0  0
 22 24  1  0  0  0  0
 22 26  1  0  0  0  0
 23 25  1  0  0  0  0
 25 24  1  0  0  0  0
 25 20  1  1  0  0  0
 28 29  1  0  0  0  0
 30 28  2  0  0  0  0
 32 31  1  0  0  0  0
 32 33  1  0  0  0  0
 33 34  1  0  0  0  0
 34 35  1  0  0  0  0
M  END
>  <MODEL>
4

>  <REMARK>
 VINA RESULT:      -6.4      2.541      5.356
  Name = 
  13 active torsions:
  status: ('A' for Active; 'I' for Inactive)
    1  A    between atoms: O_3  and  C_15
    2  A    between atoms: O_3  and  C_29
    3  A    between atoms: C_4  and  C_10
    4  A    between atoms: C_6  and  C_9
    5  A    between atoms: C_11  and  C_29
    6  A    between atoms: C_13  and  C_14
    7  A    between atoms: C_14  and  C_32
    8  A    between atoms: C_15  and  C_21
    9  A    between atoms: C_20  and  C_22
   10  A    between atoms: C_20  and  C_32
   11  A    between atoms: C_22  and  N_31
   12  A    between atoms: C_25  and  C_32
   13  A    between atoms: C_27  and  N_31
                            x       y       z     vdW  Elec       q    Type
                         _______ _______ _______ _____ _____    ______ ____

>  <TORSDO>
F 13

$$$$
=
 OpenBabel11062422003D

 35 37  0  0  1  0  0  0  0  0999 V2000
  185.4610  178.3640  143.5210 O   0  0  0  0  0  0  0  0  0  0  0  0
  186.4000  176.1160  143.0580 C   0  0  0  0  0  2  0  0  0  0  0  0
  186.4970  177.0520  145.3860 C   0  0  2  0  0  3  0  0  0  0  0  0
  187.3240  177.4260  146.6010 C   0  0  0  0  0  0  0  0  0  0  0  0
  187.3320  176.4910  144.2090 C   0  0  2  0  0  3  0  0  0  0  0  0
  185.4200  178.2490  147.9380 N   0  0  0  0  0  0  0  0  0  0  0  0
  185.5900  177.3210  142.5470 C   0  0  2  0  0  3  0  0  0  0  0  0
  184.5250  178.6290  147.0810 C   0  0  0  0  0  3  0  0  0  0  0  0
  186.7880  177.8900  147.7260 C   0  0  0  0  0  3  0  0  0  0  0  0
  185.5560  178.1290  144.8970 C   0  0  0  0  0  0  0  0  0  0  0  0
  184.7290  178.7600  145.6710 N   0  0  0  0  0  0  0  0  0  0  0  0
  189.8220  176.7300  146.7730 N   0  0  0  0  0  0  0  0  0  0  0  0
  188.7100  177.0430  146.7030 C   0  0  0  0  0  0  0  0  0  0  0  0
  188.4080  177.4690  143.7200 C   0  0  0  0  0  2  0  0  0  0  0  0
  189.4740  176.7350  142.9160 C   0  0  1  0  0  3  0  0  0  0  0  0
  190.8290  178.5680  143.9310 C   0  0  0  0  0  1  0  0  0  0  0  0
  190.7150  177.6070  142.7630 C   0  0  0  0  0  2  0  0  0  0  0  0
  189.7990  175.3730  143.5320 C   0  0  0  0  0  2  0  0  0  0  0  0
  191.2890  175.0570  143.4890 C   0  0  0  0  0  2  0  0  0  0  0  0
  191.7250  174.5860  144.7930 N   0  0  0  0  0  2  0  0  0  0  0  0
  195.1010  174.8490  145.4360 C   0  0  1  0  0  3  0  0  0  0  0  0
  195.0300  175.3010  143.9890 C   0  0  2  0  0  0  0  0  0  0  0  0
  193.8110  174.4650  145.8350 O   0  0  0  0  0  0  0  0  0  0  0  0
  193.6230  175.7970  143.8600 C   0  0  0  0  0  2  0  0  0  0  0  0
  192.9390  175.3120  145.1300 C   0  0  1  0  0  3  0  0  0  0  0  0
  195.2320  174.2450  143.0950 O   0  0  0  0  0  1  0  0  0  0  0  0
  196.0180  176.4160  143.7110 C   0  0  0  0  0  1  0  0  0  0  0  0
  196.0870  173.7490  145.6850 C   0  0  0  0  0  0  0  0  0  0  0  0
  197.3120  174.0190  145.7850 O   0  0  0  0  0  1  0  0  0  0  0  0
  195.6640  172.4280  145.7620 O   0  0  0  0  0  0  0  0  0  0  0  0
  186.1930  177.8880  141.2730 C   0  0  0  0  0  2  0  0  0  0  0  0
  185.3190  177.6930  140.2030 O   0  0  0  0  0  0  0  0  0  0  0  0
  184.2280  178.5120  140.4850 C   0  0  0  0  0  2  0  0  0  0  0  0
  182.9450  177.7780  140.1490 C   0  0  0  0  0  2  0  0  0  0  0  0
  181.8530  178.5150  140.6040 O   0  0  0  0  0  1  0  0  0  0  0  0
  1 10  1  0  0  0  0
  2  5  1  0  0  0  0
  3 10  1  6  0  0  0
  3  4  1  0  0  0  0
  4 13  1  0  0  0  0
  4  9  2  0  0  0  0
  5 14  1  6  0  0  0
  5  3  1  0  0  0  0
  7 31  1  6  0  0  0
  7  2  1  0  0  0  0
  7  1  1  0  0  0  0
  8  6  2  0  0  0  0
  9  6  1  0  0  0  0
 10 11  2  0  0  0  0
 11  8  1  0  0  0  0
 13 12  3  0  0  0  0
 15 17  1  1  0  0  0
 15 18  1  0  0  0  0
 15 14  1  0  0  0  0
 17 16  1  0  0  0  0
 19 18  1  0  0  0  0
 19 20  1  0  0  0  0
 21 28  1  6  0  0  0
 21 23  1  0  0  0  0
 22 27  1  6  0  0  0
 22 21  1  0  0  0  0
 24 22  1  0  0  0  0
 24 25  1  0  0  0  0
 25 20  1  6  0  0  0
 25 23  1  0  0  0  0
 26 22  1  0  0  0  0
 28 30  2  0  0  0  0
 28 29  1  0  0  0  0
 32 33  1  0  0  0  0
 32 31  1  0  0  0  0
 34 33  1  0  0  0  0
 34 35  1  0  0  0  0
M  END
>  <MODEL>
5

>  <REMARK>
 VINA RESULT:      -6.3      2.498      4.921
  Name = 
  13 active torsions:
  status: ('A' for Active; 'I' for Inactive)
    1  A    between atoms: O_3  and  C_15
    2  A    between atoms: O_3  and  C_29
    3  A    between atoms: C_4  and  C_10
    4  A    between atoms: C_6  and  C_9
    5  A    between atoms: C_11  and  C_29
    6  A    between atoms: C_13  and  C_14
    7  A    between atoms: C_14  and  C_32
    8  A    between atoms: C_15  and  C_21
    9  A    between atoms: C_20  and  C_22
   10  A    between atoms: C_20  and  C_32
   11  A    between atoms: C_22  and  N_31
   12  A    between atoms: C_25  and  C_32
   13  A    between atoms: C_27  and  N_31
                            x       y       z     vdW  Elec       q    Type
                         _______ _______ _______ _____ _____    ______ ____

>  <TORSDO>
F 13

$$$$
=
 OpenBabel11062422003D

 35 37  0  0  1  0  0  0  0  0999 V2000
  187.3100  176.2550  146.7460 O   0  0  0  0  0  0  0  0  0  0  0  0
  189.2030  177.5540  145.8070 C   0  0  0  0  0  2  0  0  0  0  0  0
  186.8570  178.0700  145.0800 C   0  0  2  0  0  3  0  0  0  0  0  0
  185.8540  178.2370  143.9540 C   0  0  0  0  0  0  0  0  0  0  0  0
  188.2700  177.6580  144.6020 C   0  0  2  0  0  3  0  0  0  0  0  0
  183.9470  178.7950  145.4170 N   0  0  0  0  0  0  0  0  0  0  0  0
  188.7160  176.5150  146.8340 C   0  0  2  0  0  3  0  0  0  0  0  0
  184.2070  178.2440  146.5610 C   0  0  0  0  0  3  0  0  0  0  0  0
  184.5970  178.6230  144.1550 C   0  0  0  0  0  3  0  0  0  0  0  0
  186.4040  177.1780  146.2130 C   0  0  0  0  0  0  0  0  0  0  0  0
  185.2610  177.3100  146.8120 N   0  0  0  0  0  0  0  0  0  0  0  0
  186.6090  178.2570  141.4670 N   0  0  0  0  0  0  0  0  0  0  0  0
  186.2790  178.2510  142.5760 C   0  0  0  0  0  0  0  0  0  0  0  0
  188.2760  176.3410  143.8150 C   0  0  0  0  0  2  0  0  0  0  0  0
  189.4180  176.3240  142.8060 C   0  0  1  0  0  3  0  0  0  0  0  0
  191.5970  177.5080  143.0770 C   0  0  0  0  0  1  0  0  0  0  0  0
  190.1190  177.6760  142.7790 C   0  0  0  0  0  2  0  0  0  0  0  0
  190.3900  175.1750  143.0810 C   0  0  0  0  0  2  0  0  0  0  0  0
  189.6750  173.8470  143.2920 C   0  0  0  0  0  2  0  0  0  0  0  0
  190.6540  172.7820  143.4290 N   0  0  0  0  0  2  0  0  0  0  0  0
  189.7930  172.1440  140.1540 C   0  0  1  0  0  3  0  0  0  0  0  0
  191.2780  172.4360  140.0280 C   0  0  2  0  0  0  0  0  0  0  0  0
  189.4250  172.3310  141.4960 O   0  0  0  0  0  0  0  0  0  0  0  0
  191.8020  172.1030  141.3900 C   0  0  0  0  0  2  0  0  0  0  0  0
  190.5520  171.9470  142.2430 C   0  0  1  0  0  3  0  0  0  0  0  0
  191.5290  173.7830  139.7510 O   0  0  0  0  0  1  0  0  0  0  0  0
  191.9240  171.5580  138.9760 C   0  0  0  0  0  1  0  0  0  0  0  0
  188.9300  172.9640  139.2440 C   0  0  0  0  0  0  0  0  0  0  0  0
  188.1920  173.8620  139.7250 O   0  0  0  0  0  1  0  0  0  0  0  0
  188.9060  172.7100  137.8780 O   0  0  0  0  0  0  0  0  0  0  0  0
  189.4830  175.2100  146.7020 C   0  0  0  0  0  2  0  0  0  0  0  0
  190.1190  174.9060  147.9050 O   0  0  0  0  0  0  0  0  0  0  0  0
  191.3170  175.6180  147.8610 C   0  0  0  0  0  2  0  0  0  0  0  0
  192.1010  175.2110  146.6300 C   0  0  0  0  0  2  0  0  0  0  0  0
  193.0650  176.1790  146.3500 O   0  0  0  0  0  1  0  0  0  0  0  0
  1  7  1  0  0  0  0
  2  7  1  0  0  0  0
  3  4  1  6  0  0  0
  3 10  1  0  0  0  0
  4  9  2  0  0  0  0
  5 14  1  1  0  0  0
  5  3  1  0  0  0  0
  5  2  1  0  0  0  0
  6  8  2  0  0  0  0
  7 31  1  6  0  0  0
  8 11  1  0  0  0  0
  9  6  1  0  0  0  0
 10  1  1  0  0  0  0
 10 11  2  0  0  0  0
 12 13  3  0  0  0  0
 13  4  1  0  0  0  0
 15 17  1  1  0  0  0
 15 18  1  0  0  0  0
 15 14  1  0  0  0  0
 17 16  1  0  0  0  0
 18 19  1  0  0  0  0
 19 20  1  0  0  0  0
 21 28  1  6  0  0  0
 21 23  1  0  0  0  0
 22 27  1  6  0  0  0
 22 21  1  0  0  0  0
 22 24  1  0  0  0  0
 23 25  1  0  0  0  0
 24 25  1  0  0  0  0
 25 20  1  1  0  0  0
 26 22  1  0  0  0  0
 28 29  1  0  0  0  0
 30 28  2  0  0  0  0
 31 32  1  0  0  0  0
 33 32  1  0  0  0  0
 34 33  1  0  0  0  0
 35 34  1  0  0  0  0
M  END
>  <MODEL>
6

>  <REMARK>
 VINA RESULT:      -6.0      2.959      4.414
  Name = 
  13 active torsions:
  status: ('A' for Active; 'I' for Inactive)
    1  A    between atoms: O_3  and  C_15
    2  A    between atoms: O_3  and  C_29
    3  A    between atoms: C_4  and  C_10
    4  A    between atoms: C_6  and  C_9
    5  A    between atoms: C_11  and  C_29
    6  A    between atoms: C_13  and  C_14
    7  A    between atoms: C_14  and  C_32
    8  A    between atoms: C_15  and  C_21
    9  A    between atoms: C_20  and  C_22
   10  A    between atoms: C_20  and  C_32
   11  A    between atoms: C_22  and  N_31
   12  A    between atoms: C_25  and  C_32
   13  A    between atoms: C_27  and  N_31
                            x       y       z     vdW  Elec       q    Type
                         _______ _______ _______ _____ _____    ______ ____

>  <TORSDO>
F 13

$$$$
=
 OpenBabel11062422003D

 35 37  0  0  1  0  0  0  0  0999 V2000
  185.7890  178.2740  142.9930 O   0  0  0  0  0  0  0  0  0  0  0  0
  186.7520  176.0030  142.7440 C   0  0  0  0  0  2  0  0  0  0  0  0
  186.5160  177.0130  145.0310 C   0  0  2  0  0  3  0  0  0  0  0  0
  187.1590  177.4170  146.3430 C   0  0  0  0  0  0  0  0  0  0  0  0
  187.5080  176.4050  144.0090 C   0  0  2  0  0  3  0  0  0  0  0  0
  185.0910  178.3040  147.3570 N   0  0  0  0  0  0  0  0  0  0  0  0
  186.0450  177.1990  142.0820 C   0  0  2  0  0  3  0  0  0  0  0  0
  184.3380  178.6640  146.3640 C   0  0  0  0  0  3  0  0  0  0  0  0
  186.4690  177.9230  147.3620 C   0  0  0  0  0  3  0  0  0  0  0  0
  185.6750  178.0830  144.3740 C   0  0  0  0  0  0  0  0  0  0  0  0
  184.7520  178.7480  144.9970 N   0  0  0  0  0  0  0  0  0  0  0  0
  189.5890  176.7050  146.9300 N   0  0  0  0  0  0  0  0  0  0  0  0
  188.5090  177.0230  146.6620 C   0  0  0  0  0  0  0  0  0  0  0  0
  188.6600  177.3550  143.6560 C   0  0  0  0  0  2  0  0  0  0  0  0
  189.8300  176.5810  143.0620 C   0  0  1  0  0  3  0  0  0  0  0  0
  190.8800  178.6760  143.9200 C   0  0  0  0  0  1  0  0  0  0  0  0
  191.0870  177.4430  143.0600 C   0  0  0  0  0  2  0  0  0  0  0  0
  190.0450  175.2500  143.7860 C   0  0  0  0  0  2  0  0  0  0  0  0
  191.4770  175.0830  144.2800 C   0  0  0  0  0  2  0  0  0  0  0  0
  191.6420  173.7580  144.8540 N   0  0  0  0  0  2  0  0  0  0  0  0
  194.9290  174.2090  143.9220 C   0  0  1  0  0  3  0  0  0  0  0  0
  195.0640  173.9800  145.4160 C   0  0  2  0  0  0  0  0  0  0  0  0
  193.5620  174.2100  143.6040 O   0  0  0  0  0  0  0  0  0  0  0  0
  193.8370  173.1900  145.7480 C   0  0  0  0  0  2  0  0  0  0  0  0
  192.9750  173.2980  144.4990 C   0  0  1  0  0  3  0  0  0  0  0  0
  195.0530  175.1780  146.1370 O   0  0  0  0  0  1  0  0  0  0  0  0
  196.3140  173.1880  145.7410 C   0  0  0  0  0  1  0  0  0  0  0  0
  195.5920  175.4600  143.4330 C   0  0  0  0  0  0  0  0  0  0  0  0
  194.8900  176.4450  143.0860 O   0  0  0  0  0  0  0  0  0  0  0  0
  196.9760  175.5250  143.3170 O   0  0  0  0  0  1  0  0  0  0  0  0
  186.8390  177.7180  140.8950 C   0  0  0  0  0  2  0  0  0  0  0  0
  186.1120  177.5380  139.7180 O   0  0  0  0  0  0  0  0  0  0  0  0
  186.8840  176.6600  138.9580 C   0  0  0  0  0  2  0  0  0  0  0  0
  186.1980  176.4020  137.6320 C   0  0  0  0  0  2  0  0  0  0  0  0
  187.0540  176.7510  136.5880 O   0  0  0  0  0  1  0  0  0  0  0  0
  1 10  1  0  0  0  0
  2  5  1  0  0  0  0
  3 10  1  6  0  0  0
  3  4  1  0  0  0  0
  4 13  1  0  0  0  0
  4  9  2  0  0  0  0
  5 14  1  6  0  0  0
  5  3  1  0  0  0  0
  6  9  1  0  0  0  0
  7 31  1  6  0  0  0
  7  2  1  0  0  0  0
  7  1  1  0  0  0  0
  8  6  2  0  0  0  0
 10 11  2  0  0  0  0
 11  8  1  0  0  0  0
 13 12  3  0  0  0  0
 15 17  1  1  0  0  0
 15 14  1  0  0  0  0
 15 18  1  0  0  0  0
 17 16  1  0  0  0  0
 18 19  1  0  0  0  0
 19 20  1  0  0  0  0
 21 28  1  1  0  0  0
 21 22  1  0  0  0  0
 22 27  1  1  0  0  0
 22 24  1  0  0  0  0
 22 26  1  0  0  0  0
 23 21  1  0  0  0  0
 23 25  1  0  0  0  0
 25 20  1  1  0  0  0
 25 24  1  0  0  0  0
 29 28  2  0  0  0  0
 30 28  1  0  0  0  0
 32 31  1  0  0  0  0
 33 32  1  0  0  0  0
 34 33  1  0  0  0  0
 35 34  1  0  0  0  0
M  END
>  <MODEL>
7

>  <REMARK>
 VINA RESULT:      -6.0      2.713      4.733
  Name = 
  13 active torsions:
  status: ('A' for Active; 'I' for Inactive)
    1  A    between atoms: O_3  and  C_15
    2  A    between atoms: O_3  and  C_29
    3  A    between atoms: C_4  and  C_10
    4  A    between atoms: C_6  and  C_9
    5  A    between atoms: C_11  and  C_29
    6  A    between atoms: C_13  and  C_14
    7  A    between atoms: C_14  and  C_32
    8  A    between atoms: C_15  and  C_21
    9  A    between atoms: C_20  and  C_22
   10  A    between atoms: C_20  and  C_32
   11  A    between atoms: C_22  and  N_31
   12  A    between atoms: C_25  and  C_32
   13  A    between atoms: C_27  and  N_31
                            x       y       z     vdW  Elec       q    Type
                         _______ _______ _______ _____ _____    ______ ____

>  <TORSDO>
F 13

$$$$
=
 OpenBabel11062422003D

 35 37  0  0  1  0  0  0  0  0999 V2000
  185.7500  178.2240  142.8790 O   0  0  0  0  0  0  0  0  0  0  0  0
  186.7590  175.9590  142.7970 C   0  0  0  0  0  2  0  0  0  0  0  0
  186.3210  177.0490  145.0160 C   0  0  2  0  0  3  0  0  0  0  0  0
  186.8490  177.5110  146.3610 C   0  0  0  0  0  0  0  0  0  0  0  0
  187.4030  176.4200  144.1040 C   0  0  2  0  0  3  0  0  0  0  0  0
  184.6920  178.4030  147.1660 N   0  0  0  0  0  0  0  0  0  0  0  0
  186.0950  177.1200  142.0330 C   0  0  2  0  0  3  0  0  0  0  0  0
  184.0210  178.7150  146.1020 C   0  0  0  0  0  3  0  0  0  0  0  0
  186.0710  178.0430  147.2990 C   0  0  0  0  0  3  0  0  0  0  0  0
  185.5240  178.0810  144.2520 C   0  0  0  0  0  0  0  0  0  0  0  0
  184.5450  178.7540  144.7710 N   0  0  0  0  0  0  0  0  0  0  0  0
  189.2390  176.8710  147.1560 N   0  0  0  0  0  0  0  0  0  0  0  0
  188.1720  177.1500  146.8050 C   0  0  0  0  0  0  0  0  0  0  0  0
  188.5680  177.3740  143.8100 C   0  0  0  0  0  2  0  0  0  0  0  0
  189.7440  176.6150  143.2080 C   0  0  1  0  0  3  0  0  0  0  0  0
  191.2060  178.5120  143.9060 C   0  0  0  0  0  1  0  0  0  0  0  0
  190.8290  177.5880  142.7630 C   0  0  0  0  0  2  0  0  0  0  0  0
  190.2790  175.5560  144.1730 C   0  0  0  0  0  2  0  0  0  0  0  0
  190.6600  174.2630  143.4620 C   0  0  0  0  0  2  0  0  0  0  0  0
  189.4630  173.4880  143.1850 N   0  0  0  0  0  2  0  0  0  0  0  0
  189.7360  171.9380  140.1190 C   0  0  1  0  0  3  0  0  0  0  0  0
  191.1290  172.5150  140.2950 C   0  0  2  0  0  0  0  0  0  0  0  0
  188.9570  172.3420  141.2140 O   0  0  0  0  0  0  0  0  0  0  0  0
  191.2610  172.6300  141.7820 C   0  0  0  0  0  2  0  0  0  0  0  0
  189.8490  172.4010  142.2990 C   0  0  1  0  0  3  0  0  0  0  0  0
  191.2510  173.7830  139.7190 O   0  0  0  0  0  1  0  0  0  0  0  0
  192.1850  171.5840  139.7340 C   0  0  0  0  0  1  0  0  0  0  0  0
  189.0780  172.3130  138.8270 C   0  0  0  0  0  0  0  0  0  0  0  0
  188.0960  173.1010  138.8320 O   0  0  0  0  0  1  0  0  0  0  0  0
  189.5140  171.7630  137.6280 O   0  0  0  0  0  0  0  0  0  0  0  0
  186.9780  177.6070  140.8970 C   0  0  0  0  0  2  0  0  0  0  0  0
  187.1550  176.5890  139.9590 O   0  0  0  0  0  0  0  0  0  0  0  0
  186.3800  176.9780  138.8680 C   0  0  0  0  0  2  0  0  0  0  0  0
  186.7610  176.1490  137.6570 C   0  0  0  0  0  2  0  0  0  0  0  0
  185.6490  175.9930  136.8300 O   0  0  0  0  0  1  0  0  0  0  0  0
  1 10  1  0  0  0  0
  2  5  1  0  0  0  0
  3 10  1  6  0  0  0
  3  4  1  0  0  0  0
  4 13  1  0  0  0  0
  4  9  2  0  0  0  0
  5 14  1  6  0  0  0
  5  3  1  0  0  0  0
  6  9  1  0  0  0  0
  7 31  1  6  0  0  0
  7  2  1  0  0  0  0
  7  1  1  0  0  0  0
  8  6  2  0  0  0  0
 10 11  2  0  0  0  0
 11  8  1  0  0  0  0
 13 12  3  0  0  0  0
 15 17  1  1  0  0  0
 15 14  1  0  0  0  0
 15 18  1  0  0  0  0
 17 16  1  0  0  0  0
 19 18  1  0  0  0  0
 20 19  1  0  0  0  0
 21 28  1  6  0  0  0
 21 22  1  0  0  0  0
 21 23  1  0  0  0  0
 22 27  1  6  0  0  0
 22 24  1  0  0  0  0
 23 25  1  0  0  0  0
 24 25  1  0  0  0  0
 25 20  1  1  0  0  0
 26 22  1  0  0  0  0
 28 29  1  0  0  0  0
 30 28  2  0  0  0  0
 32 31  1  0  0  0  0
 33 32  1  0  0  0  0
 34 33  1  0  0  0  0
 35 34  1  0  0  0  0
M  END
>  <MODEL>
8

>  <REMARK>
 VINA RESULT:      -6.0      3.929      6.261
  Name = 
  13 active torsions:
  status: ('A' for Active; 'I' for Inactive)
    1  A    between atoms: O_3  and  C_15
    2  A    between atoms: O_3  and  C_29
    3  A    between atoms: C_4  and  C_10
    4  A    between atoms: C_6  and  C_9
    5  A    between atoms: C_11  and  C_29
    6  A    between atoms: C_13  and  C_14
    7  A    between atoms: C_14  and  C_32
    8  A    between atoms: C_15  and  C_21
    9  A    between atoms: C_20  and  C_22
   10  A    between atoms: C_20  and  C_32
   11  A    between atoms: C_22  and  N_31
   12  A    between atoms: C_25  and  C_32
   13  A    between atoms: C_27  and  N_31
                            x       y       z     vdW  Elec       q    Type
                         _______ _______ _______ _____ _____    ______ ____

>  <TORSDO>
F 13

$$$$
=
 OpenBabel11062422003D

 35 37  0  0  1  0  0  0  0  0999 V2000
  185.4550  178.3520  143.4640 O   0  0  0  0  0  0  0  0  0  0  0  0
  186.3200  176.0670  143.0380 C   0  0  0  0  0  2  0  0  0  0  0  0
  186.4030  177.0180  145.3600 C   0  0  2  0  0  3  0  0  0  0  0  0
  187.2190  177.3700  146.5890 C   0  0  0  0  0  0  0  0  0  0  0  0
  187.2410  176.4170  144.2060 C   0  0  2  0  0  3  0  0  0  0  0  0
  185.3210  178.2750  147.8810 N   0  0  0  0  0  0  0  0  0  0  0  0
  185.5660  177.2970  142.5010 C   0  0  2  0  0  3  0  0  0  0  0  0
  184.4580  178.6800  147.0020 C   0  0  0  0  0  3  0  0  0  0  0  0
  186.6780  177.8630  147.7000 C   0  0  0  0  0  3  0  0  0  0  0  0
  185.5130  178.1240  144.8440 C   0  0  0  0  0  0  0  0  0  0  0  0
  184.6960  178.7920  145.5960 N   0  0  0  0  0  0  0  0  0  0  0  0
  189.6860  176.5930  146.8420 N   0  0  0  0  0  0  0  0  0  0  0  0
  188.5880  176.9370  146.7230 C   0  0  0  0  0  0  0  0  0  0  0  0
  188.3630  177.3500  143.7310 C   0  0  0  0  0  2  0  0  0  0  0  0
  189.4030  176.5750  142.9320 C   0  0  1  0  0  3  0  0  0  0  0  0
  190.8270  178.3530  143.9490 C   0  0  0  0  0  1  0  0  0  0  0  0
  190.6750  177.4000  142.7780 C   0  0  0  0  0  2  0  0  0  0  0  0
  189.6780  175.2040  143.5530 C   0  0  0  0  0  2  0  0  0  0  0  0
  189.2670  174.0590  142.6350 C   0  0  0  0  0  2  0  0  0  0  0  0
  190.4520  173.4570  142.0470 N   0  0  0  0  0  2  0  0  0  0  0  0
  190.1170  172.6980  138.7020 C   0  0  1  0  0  3  0  0  0  0  0  0
  188.7530  173.2840  139.0200 C   0  0  2  0  0  0  0  0  0  0  0  0
  190.8610  172.6580  139.8910 O   0  0  0  0  0  0  0  0  0  0  0  0
  189.0330  174.1660  140.1970 C   0  0  0  0  0  2  0  0  0  0  0  0
  190.4390  173.7780  140.6290 C   0  0  1  0  0  3  0  0  0  0  0  0
  187.8290  172.3020  139.3860 O   0  0  0  0  0  1  0  0  0  0  0  0
  188.2190  174.0970  137.8580 C   0  0  0  0  0  1  0  0  0  0  0  0
  190.0660  171.3470  138.0570 C   0  0  0  0  0  0  0  0  0  0  0  0
  189.7530  171.2460  136.8420 O   0  0  0  0  0  0  0  0  0  0  0  0
  190.3190  170.2010  138.8010 O   0  0  0  0  0  1  0  0  0  0  0  0
  186.2150  177.8300  141.2360 C   0  0  0  0  0  2  0  0  0  0  0  0
  185.2720  177.9070  140.2110 O   0  0  0  0  0  0  0  0  0  0  0  0
  184.1200  178.3940  140.8270 C   0  0  0  0  0  2  0  0  0  0  0  0
  182.8980  177.8270  140.1330 C   0  0  0  0  0  2  0  0  0  0  0  0
  181.7550  178.1520  140.8630 O   0  0  0  0  0  1  0  0  0  0  0  0
  1 10  1  0  0  0  0
  2  5  1  0  0  0  0
  3 10  1  6  0  0  0
  3  4  1  0  0  0  0
  4 13  1  0  0  0  0
  4  9  2  0  0  0  0
  5 14  1  6  0  0  0
  5  3  1  0  0  0  0
  7 31  1  6  0  0  0
  7  2  1  0  0  0  0
  7  1  1  0  0  0  0
  8  6  2  0  0  0  0
  9  6  1  0  0  0  0
 10 11  2  0  0  0  0
 11  8  1  0  0  0  0
 13 12  3  0  0  0  0
 15 17  1  1  0  0  0
 15 18  1  0  0  0  0
 15 14  1  0  0  0  0
 17 16  1  0  0  0  0
 19 18  1  0  0  0  0
 20 19  1  0  0  0  0
 21 28  1  1  0  0  0
 21 22  1  0  0  0  0
 21 23  1  0  0  0  0
 22 27  1  6  0  0  0
 22 26  1  0  0  0  0
 22 24  1  0  0  0  0
 23 25  1  0  0  0  0
 24 25  1  0  0  0  0
 25 20  1  1  0  0  0
 28 30  1  0  0  0  0
 29 28  2  0  0  0  0
 32 33  1  0  0  0  0
 32 31  1  0  0  0  0
 34 33  1  0  0  0  0
 34 35  1  0  0  0  0
M  END
>  <MODEL>
9

>  <REMARK>
 VINA RESULT:      -5.9      4.161      6.673
  Name = 
  13 active torsions:
  status: ('A' for Active; 'I' for Inactive)
    1  A    between atoms: O_3  and  C_15
    2  A    between atoms: O_3  and  C_29
    3  A    between atoms: C_4  and  C_10
    4  A    between atoms: C_6  and  C_9
    5  A    between atoms: C_11  and  C_29
    6  A    between atoms: C_13  and  C_14
    7  A    between atoms: C_14  and  C_32
    8  A    between atoms: C_15  and  C_21
    9  A    between atoms: C_20  and  C_22
   10  A    between atoms: C_20  and  C_32
   11  A    between atoms: C_22  and  N_31
   12  A    between atoms: C_25  and  C_32
   13  A    between atoms: C_27  and  N_31
                            x       y       z     vdW  Elec       q    Type
                         _______ _______ _______ _____ _____    ______ ____

>  <TORSDO>
F 13

$$$$
