=
 OpenBabel11062420153D

 25 28  0  0  1  0  0  0  0  0999 V2000
  188.3210  176.6390  142.4510 C   0  0  0  0  0  0  0  0  0  0  0  0
  191.7050  175.7950  143.1800 N   0  0  0  0  0  2  0  0  0  0  0  0
  190.5570  176.5280  143.7000 C   0  0  1  0  0  3  0  0  0  0  0  0
  189.3530  175.7690  143.1250 C   0  0  2  0  0  3  0  0  0  0  0  0
  188.2270  175.0120  140.5990 C   0  0  0  0  0  3  0  0  0  0  0  0
  191.2960  174.9060  142.1850 N   0  0  0  0  0  0  0  0  0  0  0  0
  190.0130  174.8810  142.1280 C   0  0  0  0  0  0  0  0  0  0  0  0
  187.7570  176.2350  141.2960 C   0  0  0  0  0  3  0  0  0  0  0  0
  189.3040  174.3930  140.9880 N   0  0  0  0  0  0  0  0  0  0  0  0
  190.5770  176.5430  145.2290 C   0  0  1  0  0  3  0  0  0  0  0  0
  189.6470  175.4640  145.7900 C   0  0  0  0  0  2  0  0  0  0  0  0
  191.9360  176.3560  145.7450 N   0  0  0  0  0  2  0  0  0  0  0  0
  190.9820  175.3310  147.7500 C   0  0  0  0  0  2  0  0  0  0  0  0
  188.8880  174.4870  147.6790 O   0  0  0  0  0  1  0  0  0  0  0  0
  191.9030  176.4210  147.2050 C   0  0  0  0  0  2  0  0  0  0  0  0
  189.6260  175.5360  147.2490 N   0  0  0  0  0  0  0  0  0  0  0  0
  187.9060  177.8090  143.0950 O   0  0  0  0  0  0  0  0  0  0  0  0
  186.6030  178.3580  142.9580 C   0  0  0  0  0  2  0  0  0  0  0  0
  186.4510  177.5190  145.3080 C   0  0  0  0  0  3  0  0  0  0  0  0
  185.8830  178.2420  144.2530 C   0  0  0  0  0  0  0  0  0  0  0  0
  184.5700  178.0960  146.7190 C   0  0  0  0  0  3  0  0  0  0  0  0
  184.6630  178.9030  144.4370 C   0  0  0  0  0  3  0  0  0  0  0  0
  185.7940  177.4440  146.5390 C   0  0  0  0  0  0  0  0  0  0  0  0
  184.0050  178.8260  145.6680 C   0  0  0  0  0  3  0  0  0  0  0  0
  186.3560  176.7230  147.5840 O   0  0  0  0  0  1  0  0  0  0  0  0
  1 17  1  0  0  0  0
  1  4  1  0  0  0  0
  3  2  1  1  0  0  0
  3 10  1  0  0  0  0
  4  7  1  6  0  0  0
  4  3  1  0  0  0  0
  5  9  2  0  0  0  0
  5  8  1  0  0  0  0
  6  2  1  0  0  0  0
  7  6  2  0  0  0  0
  8  1  2  0  0  0  0
  9  7  1  0  0  0  0
 10 12  1  0  0  0  0
 10 11  1  1  0  0  0
 11 16  1  0  0  0  0
 12 15  1  0  0  0  0
 15 13  1  0  0  0  0
 16 14  1  0  0  0  0
 16 13  1  0  0  0  0
 18 17  1  0  0  0  0
 18 20  1  0  0  0  0
 19 23  1  0  0  0  0
 20 22  1  0  0  0  0
 20 19  2  0  0  0  0
 22 24  2  0  0  0  0
 23 21  2  0  0  0  0
 23 25  1  0  0  0  0
 24 21  1  0  0  0  0
M  END
>  <MODEL>
1

>  <REMARK>
 VINA RESULT:      -7.3      0.000      0.000
  Name = 
  4 active torsions:
  status: ('A' for Active; 'I' for Inactive)
    1  A    between atoms: C_2  and  O_17
    2  A    between atoms: C_4  and  C_8
    3  A    between atoms: C_7  and  C_10
    4  A    between atoms: C_7  and  O_17
                            x       y       z     vdW  Elec       q    Type
                         _______ _______ _______ _____ _____    ______ ____

>  <TORSDO>
F 4

$$$$
=
 OpenBabel11062420153D

 25 28  0  0  1  0  0  0  0  0999 V2000
  186.3490  178.1170  144.2100 C   0  0  0  0  0  0  0  0  0  0  0  0
  187.2610  177.6960  140.7920 N   0  0  0  0  0  2  0  0  0  0  0  0
  187.7380  177.4800  142.1520 C   0  0  1  0  0  3  0  0  0  0  0  0
  186.4490  177.2790  142.9600 C   0  0  2  0  0  3  0  0  0  0  0  0
  184.0170  178.6530  143.6080 C   0  0  0  0  0  3  0  0  0  0  0  0
  185.8820  177.9070  140.7950 N   0  0  0  0  0  0  0  0  0  0  0  0
  185.4140  177.6950  141.9730 C   0  0  0  0  0  0  0  0  0  0  0  0
  185.1780  178.7030  144.5300 C   0  0  0  0  0  3  0  0  0  0  0  0
  184.1440  178.1930  142.3970 N   0  0  0  0  0  0  0  0  0  0  0  0
  188.6720  176.2710  142.2080 C   0  0  1  0  0  3  0  0  0  0  0  0
  189.8330  176.5310  143.1710 C   0  0  0  0  0  2  0  0  0  0  0  0
  187.9500  175.0590  142.6050 N   0  0  0  0  0  2  0  0  0  0  0  0
  190.0240  174.1980  143.5750 C   0  0  0  0  0  2  0  0  0  0  0  0
  191.6800  175.6380  144.1160 O   0  0  0  0  0  1  0  0  0  0  0  0
  188.8780  173.9290  142.6010 C   0  0  0  0  0  2  0  0  0  0  0  0
  190.7520  175.3950  143.1620 N   0  0  0  0  0  0  0  0  0  0  0  0
  187.4570  178.1910  145.0590 O   0  0  0  0  0  0  0  0  0  0  0  0
  187.4040  177.8830  146.4450 C   0  0  0  0  0  2  0  0  0  0  0  0
  189.7780  177.3840  147.0530 C   0  0  0  0  0  3  0  0  0  0  0  0
  188.4870  176.9200  146.7750 C   0  0  0  0  0  0  0  0  0  0  0  0
  190.5040  175.1140  147.4820 C   0  0  0  0  0  3  0  0  0  0  0  0
  188.2030  175.5520  146.8640 C   0  0  0  0  0  3  0  0  0  0  0  0
  190.7860  176.4820  147.4030 C   0  0  0  0  0  0  0  0  0  0  0  0
  189.2130  174.6500  147.2140 C   0  0  0  0  0  3  0  0  0  0  0  0
  192.0660  176.9430  147.6740 O   0  0  0  0  0  1  0  0  0  0  0  0
  1  8  2  0  0  0  0
  1 17  1  0  0  0  0
  2  6  1  0  0  0  0
  3  2  1  6  0  0  0
  3 10  1  0  0  0  0
  3  4  1  0  0  0  0
  4  7  1  6  0  0  0
  4  1  1  0  0  0  0
  5  8  1  0  0  0  0
  6  7  2  0  0  0  0
  7  9  1  0  0  0  0
  9  5  2  0  0  0  0
 10 12  1  0  0  0  0
 10 11  1  1  0  0  0
 15 12  1  0  0  0  0
 15 13  1  0  0  0  0
 16 11  1  0  0  0  0
 16 13  1  0  0  0  0
 16 14  1  0  0  0  0
 17 18  1  0  0  0  0
 18 20  1  0  0  0  0
 19 23  1  0  0  0  0
 20 22  1  0  0  0  0
 20 19  2  0  0  0  0
 22 24  2  0  0  0  0
 23 21  2  0  0  0  0
 23 25  1  0  0  0  0
 24 21  1  0  0  0  0
M  END
>  <MODEL>
2

>  <REMARK>
 VINA RESULT:      -7.2      2.536      4.927
  Name = 
  4 active torsions:
  status: ('A' for Active; 'I' for Inactive)
    1  A    between atoms: C_2  and  O_17
    2  A    between atoms: C_4  and  C_8
    3  A    between atoms: C_7  and  C_10
    4  A    between atoms: C_7  and  O_17
                            x       y       z     vdW  Elec       q    Type
                         _______ _______ _______ _____ _____    ______ ____

>  <TORSDO>
F 4

$$$$
=
 OpenBabel11062420153D

 25 28  0  0  1  0  0  0  0  0999 V2000
  186.0790  178.2880  144.5810 C   0  0  0  0  0  0  0  0  0  0  0  0
  187.0260  177.4390  141.2530 N   0  0  0  0  0  2  0  0  0  0  0  0
  187.4650  177.3460  142.6400 C   0  0  1  0  0  3  0  0  0  0  0  0
  186.1510  177.3120  143.4320 C   0  0  2  0  0  3  0  0  0  0  0  0
  183.7970  178.8920  143.8650 C   0  0  0  0  0  3  0  0  0  0  0  0
  185.6630  177.7300  141.1990 N   0  0  0  0  0  0  0  0  0  0  0  0
  185.1620  177.6770  142.3810 C   0  0  0  0  0  0  0  0  0  0  0  0
  184.9420  178.9740  144.8060 C   0  0  0  0  0  3  0  0  0  0  0  0
  183.9180  178.2940  142.7150 N   0  0  0  0  0  0  0  0  0  0  0  0
  188.3200  176.0970  142.8510 C   0  0  1  0  0  3  0  0  0  0  0  0
  187.7160  174.9000  142.1130 C   0  0  0  0  0  2  0  0  0  0  0  0
  189.7000  176.3170  142.4110 N   0  0  0  0  0  2  0  0  0  0  0  0
  189.8740  173.9260  141.9200 C   0  0  0  0  0  2  0  0  0  0  0  0
  187.9920  172.7160  141.6070 O   0  0  0  0  0  1  0  0  0  0  0  0
  190.4810  175.1090  142.6730 C   0  0  0  0  0  2  0  0  0  0  0  0
  188.5060  173.7000  142.3800 N   0  0  0  0  0  0  0  0  0  0  0  0
  187.1750  178.3900  145.4440 O   0  0  0  0  0  0  0  0  0  0  0  0
  187.2840  177.6610  146.6590 C   0  0  0  0  0  2  0  0  0  0  0  0
  189.6780  177.2300  146.0790 C   0  0  0  0  0  3  0  0  0  0  0  0
  188.4620  176.7570  146.5840 C   0  0  0  0  0  0  0  0  0  0  0  0
  190.7010  175.0810  146.5240 C   0  0  0  0  0  3  0  0  0  0  0  0
  188.3700  175.4480  147.0710 C   0  0  0  0  0  3  0  0  0  0  0  0
  190.7960  176.3920  146.0460 C   0  0  0  0  0  0  0  0  0  0  0  0
  189.4880  174.6090  147.0370 C   0  0  0  0  0  3  0  0  0  0  0  0
  192.0000  176.8610  145.5410 O   0  0  0  0  0  1  0  0  0  0  0  0
  1  8  2  0  0  0  0
  1 17  1  0  0  0  0
  3  2  1  6  0  0  0
  3 10  1  0  0  0  0
  3  4  1  0  0  0  0
  4  7  1  6  0  0  0
  4  1  1  0  0  0  0
  5  8  1  0  0  0  0
  6  2  1  0  0  0  0
  6  7  2  0  0  0  0
  7  9  1  0  0  0  0
  9  5  2  0  0  0  0
 10 11  1  6  0  0  0
 11 16  1  0  0  0  0
 12 15  1  0  0  0  0
 12 10  1  0  0  0  0
 13 16  1  0  0  0  0
 13 15  1  0  0  0  0
 14 16  1  0  0  0  0
 17 18  1  0  0  0  0
 19 20  1  0  0  0  0
 20 18  1  0  0  0  0
 20 22  2  0  0  0  0
 21 24  2  0  0  0  0
 23 19  2  0  0  0  0
 23 21  1  0  0  0  0
 24 22  1  0  0  0  0
 25 23  1  0  0  0  0
M  END
>  <MODEL>
3

>  <REMARK>
 VINA RESULT:      -7.2      2.652      5.178
  Name = 
  4 active torsions:
  status: ('A' for Active; 'I' for Inactive)
    1  A    between atoms: C_2  and  O_17
    2  A    between atoms: C_4  and  C_8
    3  A    between atoms: C_7  and  C_10
    4  A    between atoms: C_7  and  O_17
                            x       y       z     vdW  Elec       q    Type
                         _______ _______ _______ _____ _____    ______ ____

>  <TORSDO>
F 4

$$$$
=
 OpenBabel11062420153D

 25 28  0  0  1  0  0  0  0  0999 V2000
  186.5660  177.5810  146.2570 C   0  0  0  0  0  0  0  0  0  0  0  0
  186.2780  179.0810  143.0380 N   0  0  0  0  0  2  0  0  0  0  0  0
  187.0850  178.1440  143.8110 C   0  0  1  0  0  3  0  0  0  0  0  0
  186.0910  177.5630  144.8250 C   0  0  2  0  0  3  0  0  0  0  0  0
  184.3430  178.4120  146.9340 C   0  0  0  0  0  3  0  0  0  0  0  0
  185.0480  179.2870  143.6660 N   0  0  0  0  0  0  0  0  0  0  0  0
  184.9260  178.4750  144.6540 C   0  0  0  0  0  0  0  0  0  0  0  0
  185.7100  177.9220  147.2410 C   0  0  0  0  0  3  0  0  0  0  0  0
  183.9900  178.6880  145.7120 N   0  0  0  0  0  0  0  0  0  0  0  0
  187.6950  177.0810  142.8970 C   0  0  1  0  0  3  0  0  0  0  0  0
  189.1910  176.9220  143.1820 C   0  0  0  0  0  2  0  0  0  0  0  0
  187.0130  175.7930  143.0490 N   0  0  0  0  0  2  0  0  0  0  0  0
  189.0960  174.6710  142.4300 C   0  0  0  0  0  2  0  0  0  0  0  0
  191.0580  175.7720  142.6400 O   0  0  0  0  0  1  0  0  0  0  0  0
  187.6070  174.8280  142.1260 C   0  0  0  0  0  2  0  0  0  0  0  0
  189.7730  175.9530  142.2560 N   0  0  0  0  0  0  0  0  0  0  0  0
  187.8670  177.1530  146.5380 O   0  0  0  0  0  0  0  0  0  0  0  0
  188.2080  175.7960  146.7880 C   0  0  0  0  0  2  0  0  0  0  0  0
  190.2440  174.6220  145.9360 C   0  0  0  0  0  3  0  0  0  0  0  0
  189.6840  175.6400  146.7160 C   0  0  0  0  0  0  0  0  0  0  0  0
  192.4640  175.4000  146.5120 C   0  0  0  0  0  3  0  0  0  0  0  0
  190.5160  176.5470  147.3830 C   0  0  0  0  0  3  0  0  0  0  0  0
  191.6330  174.5000  145.8360 C   0  0  0  0  0  0  0  0  0  0  0  0
  191.9050  176.4240  147.2840 C   0  0  0  0  0  3  0  0  0  0  0  0
  192.1870  173.4880  145.0660 O   0  0  0  0  0  1  0  0  0  0  0  0
  1 17  1  0  0  0  0
  1  8  2  0  0  0  0
  2  6  1  0  0  0  0
  3  2  1  6  0  0  0
  3  4  1  0  0  0  0
  4  7  1  1  0  0  0
  4  1  1  0  0  0  0
  5  8  1  0  0  0  0
  6  7  2  0  0  0  0
  7  9  1  0  0  0  0
  9  5  2  0  0  0  0
 10 12  1  0  0  0  0
 10 11  1  1  0  0  0
 10  3  1  0  0  0  0
 15 13  1  0  0  0  0
 15 12  1  0  0  0  0
 16 13  1  0  0  0  0
 16 14  1  0  0  0  0
 16 11  1  0  0  0  0
 17 18  1  0  0  0  0
 19 20  1  0  0  0  0
 20 18  1  0  0  0  0
 20 22  2  0  0  0  0
 21 24  2  0  0  0  0
 23 19  2  0  0  0  0
 23 21  1  0  0  0  0
 24 22  1  0  0  0  0
 25 23  1  0  0  0  0
M  END
>  <MODEL>
4

>  <REMARK>
 VINA RESULT:      -7.2      2.838      6.114
  Name = 
  4 active torsions:
  status: ('A' for Active; 'I' for Inactive)
    1  A    between atoms: C_2  and  O_17
    2  A    between atoms: C_4  and  C_8
    3  A    between atoms: C_7  and  C_10
    4  A    between atoms: C_7  and  O_17
                            x       y       z     vdW  Elec       q    Type
                         _______ _______ _______ _____ _____    ______ ____

>  <TORSDO>
F 4

$$$$
=
 OpenBabel11062420153D

 25 28  0  0  1  0  0  0  0  0999 V2000
  187.5310  177.4380  145.2630 C   0  0  0  0  0  0  0  0  0  0  0  0
  184.1790  178.6380  145.1220 N   0  0  0  0  0  2  0  0  0  0  0  0
  185.3410  178.3460  144.2900 C   0  0  1  0  0  3  0  0  0  0  0  0
  186.0540  177.2190  145.0470 C   0  0  2  0  0  3  0  0  0  0  0  0
  187.2530  176.6920  147.5990 C   0  0  0  0  0  3  0  0  0  0  0  0
  184.3070  178.0090  146.3610 N   0  0  0  0  0  0  0  0  0  0  0  0
  185.3320  177.2350  146.3500 C   0  0  0  0  0  0  0  0  0  0  0  0
  188.0870  177.1240  146.4500 C   0  0  0  0  0  3  0  0  0  0  0  0
  185.9540  176.7670  147.5470 N   0  0  0  0  0  0  0  0  0  0  0  0
  184.9040  177.9370  142.8830 C   0  0  1  0  0  3  0  0  0  0  0  0
  183.4820  178.4270  142.5960 C   0  0  0  0  0  2  0  0  0  0  0  0
  185.8280  178.4500  141.8680 N   0  0  0  0  0  2  0  0  0  0  0  0
  183.9740  178.5020  140.2740 C   0  0  0  0  0  2  0  0  0  0  0  0
  181.8490  178.5350  141.0410 O   0  0  0  0  0  1  0  0  0  0  0  0
  185.3880  177.9960  140.5500 C   0  0  0  0  0  2  0  0  0  0  0  0
  183.0550  177.9700  141.2760 N   0  0  0  0  0  0  0  0  0  0  0  0
  188.3080  177.8800  144.1880 O   0  0  0  0  0  0  0  0  0  0  0  0
  189.5160  177.2500  143.7840 C   0  0  0  0  0  2  0  0  0  0  0  0
  189.5380  174.7530  143.6470 C   0  0  0  0  0  3  0  0  0  0  0  0
  189.1950  175.9840  143.0750 C   0  0  0  0  0  0  0  0  0  0  0  0
  188.5150  173.5980  141.7810 C   0  0  0  0  0  3  0  0  0  0  0  0
  188.5000  176.0190  141.8600 C   0  0  0  0  0  3  0  0  0  0  0  0
  189.2000  173.5620  143.0000 C   0  0  0  0  0  0  0  0  0  0  0  0
  188.1640  174.8260  141.2130 C   0  0  0  0  0  3  0  0  0  0  0  0
  189.5440  172.3420  143.5670 O   0  0  0  0  0  1  0  0  0  0  0  0
  1  8  2  0  0  0  0
  2  6  1  0  0  0  0
  3  4  1  0  0  0  0
  3  2  1  1  0  0  0
  4  1  1  1  0  0  0
  4  7  1  0  0  0  0
  7  6  2  0  0  0  0
  7  9  1  0  0  0  0
  8  5  1  0  0  0  0
  9  5  2  0  0  0  0
 10 11  1  6  0  0  0
 10  3  1  0  0  0  0
 12 10  1  0  0  0  0
 13 15  1  0  0  0  0
 13 16  1  0  0  0  0
 14 16  1  0  0  0  0
 15 12  1  0  0  0  0
 16 11  1  0  0  0  0
 17  1  1  0  0  0  0
 18 17  1  0  0  0  0
 20 19  1  0  0  0  0
 20 18  1  0  0  0  0
 21 23  1  0  0  0  0
 22 20  2  0  0  0  0
 23 25  1  0  0  0  0
 23 19  2  0  0  0  0
 24 21  2  0  0  0  0
 24 22  1  0  0  0  0
M  END
>  <MODEL>
5

>  <REMARK>
 VINA RESULT:      -7.0      3.409      6.973
  Name = 
  4 active torsions:
  status: ('A' for Active; 'I' for Inactive)
    1  A    between atoms: C_2  and  O_17
    2  A    between atoms: C_4  and  C_8
    3  A    between atoms: C_7  and  C_10
    4  A    between atoms: C_7  and  O_17
                            x       y       z     vdW  Elec       q    Type
                         _______ _______ _______ _____ _____    ______ ____

>  <TORSDO>
F 4

$$$$
=
 OpenBabel11062420153D

 25 28  0  0  1  0  0  0  0  0999 V2000
  189.5790  175.2450  145.2370 C   0  0  0  0  0  0  0  0  0  0  0  0
  189.5180  173.8850  141.9450 N   0  0  0  0  0  2  0  0  0  0  0  0
  188.8040  174.7920  142.8360 C   0  0  1  0  0  3  0  0  0  0  0  0
  189.9030  175.3230  143.7660 C   0  0  2  0  0  3  0  0  0  0  0  0
  191.8510  174.3730  145.6440 C   0  0  0  0  0  3  0  0  0  0  0  0
  190.8030  173.6450  142.4330 N   0  0  0  0  0  0  0  0  0  0  0  0
  191.0350  174.4130  143.4360 C   0  0  0  0  0  0  0  0  0  0  0  0
  190.5280  174.8570  146.1120 C   0  0  0  0  0  3  0  0  0  0  0  0
  192.0730  174.1480  144.3810 N   0  0  0  0  0  0  0  0  0  0  0  0
  188.1140  175.8970  142.0370 C   0  0  1  0  0  3  0  0  0  0  0  0
  186.6950  176.1340  142.5620 C   0  0  0  0  0  2  0  0  0  0  0  0
  188.8820  177.1440  142.0790 N   0  0  0  0  0  2  0  0  0  0  0  0
  186.7910  178.3850  141.8100 C   0  0  0  0  0  2  0  0  0  0  0  0
  184.8320  177.3900  142.3340 O   0  0  0  0  0  1  0  0  0  0  0  0
  188.2000  178.1510  141.2670 C   0  0  0  0  0  2  0  0  0  0  0  0
  186.0250  177.1440  141.7460 N   0  0  0  0  0  0  0  0  0  0  0  0
  188.3180  175.6680  145.6690 O   0  0  0  0  0  0  0  0  0  0  0  0
  188.1240  176.7130  146.6130 C   0  0  0  0  0  2  0  0  0  0  0  0
  186.8140  178.4970  145.4490 C   0  0  0  0  0  3  0  0  0  0  0  0
  186.8400  177.4040  146.3220 C   0  0  0  0  0  0  0  0  0  0  0  0
  184.4110  178.6490  145.7070 C   0  0  0  0  0  3  0  0  0  0  0  0
  185.6480  176.9250  146.8770 C   0  0  0  0  0  3  0  0  0  0  0  0
  185.6010  179.1210  145.1440 C   0  0  0  0  0  0  0  0  0  0  0  0
  184.4350  177.5500  146.5730 C   0  0  0  0  0  3  0  0  0  0  0  0
  185.5770  180.2070  144.2810 O   0  0  0  0  0  1  0  0  0  0  0  0
  1 17  1  0  0  0  0
  1  8  2  0  0  0  0
  2  6  1  0  0  0  0
  3  2  1  6  0  0  0
  3  4  1  0  0  0  0
  4  7  1  1  0  0  0
  4  1  1  0  0  0  0
  5  8  1  0  0  0  0
  6  7  2  0  0  0  0
  7  9  1  0  0  0  0
  9  5  2  0  0  0  0
 10 12  1  0  0  0  0
 10 11  1  1  0  0  0
 10  3  1  0  0  0  0
 15 13  1  0  0  0  0
 15 12  1  0  0  0  0
 16 13  1  0  0  0  0
 16 14  1  0  0  0  0
 16 11  1  0  0  0  0
 17 18  1  0  0  0  0
 19 20  1  0  0  0  0
 20 18  1  0  0  0  0
 20 22  2  0  0  0  0
 21 24  2  0  0  0  0
 23 19  2  0  0  0  0
 23 21  1  0  0  0  0
 24 22  1  0  0  0  0
 25 23  1  0  0  0  0
M  END
>  <MODEL>
6

>  <REMARK>
 VINA RESULT:      -6.9      1.943      4.372
  Name = 
  4 active torsions:
  status: ('A' for Active; 'I' for Inactive)
    1  A    between atoms: C_2  and  O_17
    2  A    between atoms: C_4  and  C_8
    3  A    between atoms: C_7  and  C_10
    4  A    between atoms: C_7  and  O_17
                            x       y       z     vdW  Elec       q    Type
                         _______ _______ _______ _____ _____    ______ ____

>  <TORSDO>
F 4

$$$$
=
 OpenBabel11062420153D

 25 28  0  0  1  0  0  0  0  0999 V2000
  186.2410  177.2300  144.9210 C   0  0  0  0  0  0  0  0  0  0  0  0
  186.8580  177.4980  141.4220 N   0  0  0  0  0  2  0  0  0  0  0  0
  187.2600  176.7630  142.6150 C   0  0  1  0  0  3  0  0  0  0  0  0
  186.0040  176.7910  143.4970 C   0  0  2  0  0  3  0  0  0  0  0  0
  184.2410  178.6660  144.7620 C   0  0  0  0  0  3  0  0  0  0  0  0
  185.6450  178.1510  141.6460 N   0  0  0  0  0  0  0  0  0  0  0  0
  185.1620  177.7890  142.7810 C   0  0  0  0  0  0  0  0  0  0  0  0
  185.3660  178.0620  145.5180 C   0  0  0  0  0  3  0  0  0  0  0  0
  184.1650  178.5470  143.4680 N   0  0  0  0  0  0  0  0  0  0  0  0
  187.7010  175.3450  142.2500 C   0  0  1  0  0  3  0  0  0  0  0  0
  188.1910  175.2910  140.8010 C   0  0  0  0  0  2  0  0  0  0  0  0
  188.7470  174.8630  143.1560 N   0  0  0  0  0  2  0  0  0  0  0  0
  189.5990  173.4560  141.3450 C   0  0  0  0  0  2  0  0  0  0  0  0
  189.0800  173.9630  139.2050 O   0  0  0  0  0  1  0  0  0  0  0  0
  189.1000  173.4930  142.7880 C   0  0  0  0  0  2  0  0  0  0  0  0
  188.5440  173.9180  140.4470 N   0  0  0  0  0  0  0  0  0  0  0  0
  187.3240  176.6870  145.6190 O   0  0  0  0  0  0  0  0  0  0  0  0
  188.2180  177.4630  146.4050 C   0  0  0  0  0  2  0  0  0  0  0  0
  190.4890  176.4450  146.6440 C   0  0  0  0  0  3  0  0  0  0  0  0
  189.6070  177.2540  145.9190 C   0  0  0  0  0  0  0  0  0  0  0  0
  192.1930  176.7910  144.9590 C   0  0  0  0  0  3  0  0  0  0  0  0
  190.0160  177.8200  144.7060 C   0  0  0  0  0  3  0  0  0  0  0  0
  191.7820  176.2160  146.1660 C   0  0  0  0  0  0  0  0  0  0  0  0
  191.3100  177.5910  144.2280 C   0  0  0  0  0  3  0  0  0  0  0  0
  192.6580  175.4170  146.8880 O   0  0  0  0  0  1  0  0  0  0  0  0
  1  8  2  0  0  0  0
  1 17  1  0  0  0  0
  2  6  1  0  0  0  0
  3  2  1  6  0  0  0
  3  4  1  0  0  0  0
  4  7  1  6  0  0  0
  4  1  1  0  0  0  0
  5  8  1  0  0  0  0
  6  7  2  0  0  0  0
  7  9  1  0  0  0  0
  9  5  2  0  0  0  0
 10 11  1  6  0  0  0
 10  3  1  0  0  0  0
 10 12  1  0  0  0  0
 13 15  1  0  0  0  0
 14 16  1  0  0  0  0
 15 12  1  0  0  0  0
 16 11  1  0  0  0  0
 16 13  1  0  0  0  0
 17 18  1  0  0  0  0
 20 18  1  0  0  0  0
 20 19  2  0  0  0  0
 21 23  2  0  0  0  0
 22 20  1  0  0  0  0
 23 19  1  0  0  0  0
 23 25  1  0  0  0  0
 24 22  2  0  0  0  0
 24 21  1  0  0  0  0
M  END
>  <MODEL>
7

>  <REMARK>
 VINA RESULT:      -6.9      2.715      5.733
  Name = 
  4 active torsions:
  status: ('A' for Active; 'I' for Inactive)
    1  A    between atoms: C_2  and  O_17
    2  A    between atoms: C_4  and  C_8
    3  A    between atoms: C_7  and  C_10
    4  A    between atoms: C_7  and  O_17
                            x       y       z     vdW  Elec       q    Type
                         _______ _______ _______ _____ _____    ______ ____

>  <TORSDO>
F 4

$$$$
=
 OpenBabel11062420153D

 25 28  0  0  1  0  0  0  0  0999 V2000
  185.9030  177.2670  143.8190 C   0  0  0  0  0  0  0  0  0  0  0  0
  186.4460  176.7710  147.3060 N   0  0  0  0  0  2  0  0  0  0  0  0
  187.0030  176.4680  145.9920 C   0  0  1  0  0  3  0  0  0  0  0  0
  186.5510  177.6520  145.1270 C   0  0  2  0  0  3  0  0  0  0  0  0
  184.1480  178.9480  144.2480 C   0  0  0  0  0  3  0  0  0  0  0  0
  185.5290  177.8190  147.2080 N   0  0  0  0  0  0  0  0  0  0  0  0
  185.5600  178.3110  146.0220 C   0  0  0  0  0  0  0  0  0  0  0  0
  184.8110  177.9320  143.3930 C   0  0  0  0  0  3  0  0  0  0  0  0
  184.4970  179.1050  145.4930 N   0  0  0  0  0  0  0  0  0  0  0  0
  188.5240  176.3350  146.0720 C   0  0  1  0  0  3  0  0  0  0  0  0
  189.0770  177.1650  147.2340 C   0  0  0  0  0  2  0  0  0  0  0  0
  188.9290  174.9340  146.2150 N   0  0  0  0  0  2  0  0  0  0  0  0
  190.9250  175.6830  147.4150 C   0  0  0  0  0  2  0  0  0  0  0  0
  190.9460  177.7310  148.3680 O   0  0  0  0  0  1  0  0  0  0  0  0
  190.3890  174.8620  146.2430 C   0  0  0  0  0  2  0  0  0  0  0  0
  190.5360  177.0810  147.2550 N   0  0  0  0  0  0  0  0  0  0  0  0
  186.5100  176.2830  143.0340 O   0  0  0  0  0  0  0  0  0  0  0  0
  187.3380  176.5740  141.9160 C   0  0  0  0  0  2  0  0  0  0  0  0
  189.5130  175.4190  142.3460 C   0  0  0  0  0  3  0  0  0  0  0  0
  188.7590  176.5980  142.3510 C   0  0  0  0  0  0  0  0  0  0  0  0
  191.4570  176.6570  143.0880 C   0  0  0  0  0  3  0  0  0  0  0  0
  189.3600  177.8090  142.7130 C   0  0  0  0  0  3  0  0  0  0  0  0
  190.8610  175.4480  142.7170 C   0  0  0  0  0  0  0  0  0  0  0  0
  190.7080  177.8370  143.0840 C   0  0  0  0  0  3  0  0  0  0  0  0
  191.6070  174.2780  142.7150 O   0  0  0  0  0  1  0  0  0  0  0  0
  3 10  1  0  0  0  0
  3  2  1  1  0  0  0
  4  1  1  6  0  0  0
  4  3  1  0  0  0  0
  4  7  1  0  0  0  0
  5  9  2  0  0  0  0
  6  2  1  0  0  0  0
  7  6  2  0  0  0  0
  8  1  2  0  0  0  0
  8  5  1  0  0  0  0
  9  7  1  0  0  0  0
 10 12  1  0  0  0  0
 10 11  1  1  0  0  0
 11 16  1  0  0  0  0
 12 15  1  0  0  0  0
 15 13  1  0  0  0  0
 16 13  1  0  0  0  0
 16 14  1  0  0  0  0
 17  1  1  0  0  0  0
 18 20  1  0  0  0  0
 18 17  1  0  0  0  0
 19 20  2  0  0  0  0
 19 23  1  0  0  0  0
 20 22  1  0  0  0  0
 22 24  2  0  0  0  0
 23 21  2  0  0  0  0
 24 21  1  0  0  0  0
 25 23  1  0  0  0  0
M  END
>  <MODEL>
8

>  <REMARK>
 VINA RESULT:      -6.8      2.454      5.150
  Name = 
  4 active torsions:
  status: ('A' for Active; 'I' for Inactive)
    1  A    between atoms: C_2  and  O_17
    2  A    between atoms: C_4  and  C_8
    3  A    between atoms: C_7  and  C_10
    4  A    between atoms: C_7  and  O_17
                            x       y       z     vdW  Elec       q    Type
                         _______ _______ _______ _____ _____    ______ ____

>  <TORSDO>
F 4

$$$$
=
 OpenBabel11062420153D

 25 28  0  0  1  0  0  0  0  0999 V2000
  188.8210  175.9920  142.9550 C   0  0  0  0  0  0  0  0  0  0  0  0
  192.1730  175.1890  142.0540 N   0  0  0  0  0  2  0  0  0  0  0  0
  191.3820  176.0820  142.8920 C   0  0  1  0  0  3  0  0  0  0  0  0
  190.1200  175.2650  143.2000 C   0  0  2  0  0  3  0  0  0  0  0  0
  187.9500  173.9670  141.8470 C   0  0  0  0  0  3  0  0  0  0  0  0
  191.3980  174.1040  141.6430 N   0  0  0  0  0  0  0  0  0  0  0  0
  190.2650  174.1280  142.2490 C   0  0  0  0  0  0  0  0  0  0  0  0
  187.7920  175.3450  142.3750 C   0  0  0  0  0  3  0  0  0  0  0  0
  189.1250  173.4100  141.7740 N   0  0  0  0  0  0  0  0  0  0  0  0
  192.1620  176.4700  144.1480 C   0  0  1  0  0  3  0  0  0  0  0  0
  191.7140  175.6240  145.3430 C   0  0  0  0  0  2  0  0  0  0  0  0
  193.6060  176.3290  143.9440 N   0  0  0  0  0  2  0  0  0  0  0  0
  193.8550  175.8910  146.3370 C   0  0  0  0  0  2  0  0  0  0  0  0
  192.0680  175.1910  147.5310 O   0  0  0  0  0  1  0  0  0  0  0  0
  194.3020  176.7520  145.1580 C   0  0  0  0  0  2  0  0  0  0  0  0
  192.4190  176.0530  146.5490 N   0  0  0  0  0  0  0  0  0  0  0  0
  188.6880  177.3030  143.4230 O   0  0  0  0  0  0  0  0  0  0  0  0
  188.6380  177.6400  144.8020 C   0  0  0  0  0  2  0  0  0  0  0  0
  186.3280  178.5650  144.5570 C   0  0  0  0  0  3  0  0  0  0  0  0
  187.2190  177.7250  145.2360 C   0  0  0  0  0  0  0  0  0  0  0  0
  184.5290  177.8200  145.9960 C   0  0  0  0  0  3  0  0  0  0  0  0
  186.7600  176.9230  146.2870 C   0  0  0  0  0  3  0  0  0  0  0  0
  184.9850  178.6140  144.9390 C   0  0  0  0  0  0  0  0  0  0  0  0
  185.4160  176.9740  146.6690 C   0  0  0  0  0  3  0  0  0  0  0  0
  184.1030  179.4500  144.2680 O   0  0  0  0  0  1  0  0  0  0  0  0
  1  4  1  0  0  0  0
  1 17  1  0  0  0  0
  3  2  1  6  0  0  0
  3  4  1  0  0  0  0
  3 10  1  0  0  0  0
  4  7  1  6  0  0  0
  5  8  1  0  0  0  0
  6  2  1  0  0  0  0
  6  7  2  0  0  0  0
  8  1  2  0  0  0  0
  9  5  2  0  0  0  0
  9  7  1  0  0  0  0
 10 11  1  1  0  0  0
 11 16  1  0  0  0  0
 12 10  1  0  0  0  0
 12 15  1  0  0  0  0
 13 16  1  0  0  0  0
 15 13  1  0  0  0  0
 16 14  1  0  0  0  0
 17 18  1  0  0  0  0
 18 20  1  0  0  0  0
 19 23  2  0  0  0  0
 19 20  1  0  0  0  0
 20 22  2  0  0  0  0
 21 24  2  0  0  0  0
 22 24  1  0  0  0  0
 23 21  1  0  0  0  0
 25 23  1  0  0  0  0
M  END
>  <MODEL>
9

>  <REMARK>
 VINA RESULT:      -6.8      1.794      2.260
  Name = 
  4 active torsions:
  status: ('A' for Active; 'I' for Inactive)
    1  A    between atoms: C_2  and  O_17
    2  A    between atoms: C_4  and  C_8
    3  A    between atoms: C_7  and  C_10
    4  A    between atoms: C_7  and  O_17
                            x       y       z     vdW  Elec       q    Type
                         _______ _______ _______ _____ _____    ______ ____

>  <TORSDO>
F 4

$$$$
