=
 OpenBabel11062421583D

 35 38  0  0  1  0  0  0  0  0999 V2000
  189.5820  177.5590  144.9270 C   0  0  0  0  0  0  0  0  0  0  0  0
  188.1500  177.8780  144.6300 C   0  0  2  0  0  3  0  0  0  0  0  0
  189.4710  174.9370  147.2470 C   0  0  0  0  0  2  0  0  0  0  0  0
  189.8190  176.3210  145.5720 N   0  0  0  0  0  0  0  0  0  0  0  0
  188.7900  175.3650  145.9920 C   0  0  2  0  0  3  0  0  0  0  0  0
  190.5200  178.3540  144.6590 O   0  0  0  0  0  0  0  0  0  0  0  0
  187.2500  177.2030  145.6610 C   0  0  0  0  0  3  0  0  0  0  0  0
  190.5370  175.8700  146.7750 C   0  0  2  0  0  3  0  0  0  0  0  0
  187.5590  176.0910  146.2620 N   0  0  0  0  0  0  0  0  0  0  0  0
  186.2780  179.3040  142.9700 O   0  0  0  0  0  1  0  0  0  0  0  0
  186.8770  178.1530  142.4710 C   0  0  0  0  0  0  0  0  0  0  0  0
  188.7150  174.6740  140.9650 N   0  0  0  0  0  2  0  0  0  0  0  0
  188.0820  175.8510  141.4790 C   0  0  0  0  0  0  0  0  0  0  0  0
  187.7930  177.4270  143.2440 C   0  0  2  0  0  3  0  0  0  0  0  0
  186.5680  177.7040  141.1820 C   0  0  0  0  0  0  0  0  0  0  0  0
  187.1750  176.5510  140.6810 C   0  0  0  0  0  2  0  0  0  0  0  0
  188.3630  176.3030  142.7320 N   0  0  0  0  0  0  0  0  0  0  0  0
  185.6850  178.3860  140.4120 F   0  0  0  0  0  0  0  0  0  0  0  0
  189.6870  173.8520  141.6860 C   0  0  2  0  0  3  0  0  0  0  0  0
  191.1810  172.9870  140.0160 O   0  0  0  0  0  0  0  0  0  0  0  0
  191.0040  173.7890  140.9730 C   0  0  0  0  0  0  0  0  0  0  0  0
  192.0470  174.6020  141.4220 O   0  0  0  0  0  0  0  0  0  0  0  0
  191.9430  175.3640  142.6150 C   0  0  0  0  0  1  0  0  0  0  0  0
  189.1300  172.4670  141.9990 C   0  0  0  0  0  2  0  0  0  0  0  0
  189.4110  172.0870  143.4410 C   0  0  0  0  0  1  0  0  0  0  0  0
  191.7900  175.0880  146.3860 C   0  0  0  0  0  2  0  0  0  0  0  0
  193.0100  176.8850  147.3410 O   0  0  0  0  0  0  0  0  0  0  0  0
  193.0120  175.9400  146.5070 C   0  0  0  0  0  0  0  0  0  0  0  0
  194.7130  176.6620  144.8300 C   0  0  0  0  0  3  0  0  0  0  0  0
  196.0210  174.1990  145.0060 C   0  0  0  0  0  3  0  0  0  0  0  0
  194.8780  174.4400  145.7750 C   0  0  0  0  0  3  0  0  0  0  0  0
  195.8540  176.4190  144.0590 C   0  0  0  0  0  3  0  0  0  0  0  0
  196.5080  175.1880  144.1480 C   0  0  0  0  0  0  0  0  0  0  0  0
  197.9380  174.8850  143.1850 Cl  0  0  0  0  0  0  0  0  0  0  0  0
  194.2150  175.6730  145.6920 C   0  0  0  0  0  0  0  0  0  0  0  0
  1  4  1  0  0  0  0
  2  1  1  0  0  0  0
  2  7  1  1  0  0  0
  4  5  1  0  0  0  0
  4  8  1  0  0  0  0
  5  9  1  0  0  0  0
  5  3  1  1  0  0  0
  6  1  2  0  0  0  0
  7  9  2  0  0  0  0
  8 26  1  6  0  0  0
  8  3  1  0  0  0  0
 11 10  1  0  0  0  0
 12 13  1  0  0  0  0
 12 19  1  0  0  0  0
 13 17  2  0  0  0  0
 14 11  1  1  0  0  0
 14  2  1  0  0  0  0
 15 11  2  0  0  0  0
 16 15  1  0  0  0  0
 16 13  1  0  0  0  0
 17 14  1  0  0  0  0
 18 15  1  0  0  0  0
 19 24  1  6  0  0  0
 20 21  2  0  0  0  0
 21 22  1  0  0  0  0
 21 19  1  0  0  0  0
 22 23  1  0  0  0  0
 24 25  1  0  0  0  0
 26 28  1  0  0  0  0
 28 27  2  0  0  0  0
 29 35  1  0  0  0  0
 30 31  1  0  0  0  0
 32 33  1  0  0  0  0
 32 29  2  0  0  0  0
 33 30  2  0  0  0  0
 34 33  1  0  0  0  0
 35 31  2  0  0  0  0
 35 28  1  0  0  0  0
M  END
>  <MODEL>
1

>  <REMARK>
 VINA RESULT:      -7.4      0.000      0.000
  Name = 
  8 active torsions:
  status: ('A' for Active; 'I' for Inactive)
    1  A    between atoms: O_1  and  C_19
    2  A    between atoms: C_9  and  C_18
    3  A    between atoms: N_11  and  C_12
    4  A    between atoms: C_12  and  C_19
    5  A    between atoms: C_12  and  C_30
    6  A    between atoms: C_16  and  C_27
    7  A    between atoms: C_16  and  C_34
    8  A    between atoms: C_27  and  C_32
                            x       y       z     vdW  Elec       q    Type
                         _______ _______ _______ _____ _____    ______ ____

>  <TORSDO>
F 8

$$$$
=
 OpenBabel11062421583D

 35 38  0  0  1  0  0  0  0  0999 V2000
  188.9110  174.7680  143.4210 C   0  0  0  0  0  0  0  0  0  0  0  0
  189.6170  173.4750  143.1510 C   0  0  2  0  0  3  0  0  0  0  0  0
  188.9730  175.1320  146.9030 C   0  0  0  0  0  2  0  0  0  0  0  0
  189.0940  175.3130  144.7140 N   0  0  0  0  0  0  0  0  0  0  0  0
  189.8750  174.7070  145.7960 C   0  0  2  0  0  3  0  0  0  0  0  0
  188.1690  175.3210  142.5690 O   0  0  0  0  0  0  0  0  0  0  0  0
  189.7730  172.6950  144.4540 C   0  0  0  0  0  3  0  0  0  0  0  0
  188.2210  175.7950  145.7970 C   0  0  2  0  0  3  0  0  0  0  0  0
  189.8760  173.2630  145.6190 N   0  0  0  0  0  0  0  0  0  0  0  0
  190.1370  173.0340  140.3540 O   0  0  0  0  0  1  0  0  0  0  0  0
  191.1650  173.5060  141.1610 C   0  0  0  0  0  0  0  0  0  0  0  0
  194.2650  174.9540  143.6190 N   0  0  0  0  0  2  0  0  0  0  0  0
  193.2150  174.4520  142.7840 C   0  0  0  0  0  0  0  0  0  0  0  0
  190.9570  173.7340  142.5290 C   0  0  0  0  0  0  0  0  0  0  0  0
  192.4280  173.7590  140.6140 C   0  0  0  0  0  0  0  0  0  0  0  0
  193.4570  174.2370  141.4260 C   0  0  0  0  0  3  0  0  0  0  0  0
  191.9810  174.1940  143.2970 N   0  0  0  0  0  0  0  0  0  0  0  0
  192.6570  173.5470  139.2940 F   0  0  0  0  0  0  0  0  0  0  0  0
  194.1500  175.2310  145.0510 C   0  0  2  0  0  3  0  0  0  0  0  0
  194.6260  177.5170  145.6130 O   0  0  0  0  0  0  0  0  0  0  0  0
  193.7560  176.6530  145.3150 C   0  0  0  0  0  0  0  0  0  0  0  0
  192.4030  176.9910  145.2730 O   0  0  0  0  0  0  0  0  0  0  0  0
  191.8180  177.6020  144.1320 C   0  0  0  0  0  1  0  0  0  0  0  0
  195.4130  174.8280  145.8050 C   0  0  0  0  0  2  0  0  0  0  0  0
  196.5590  174.5800  144.8410 C   0  0  0  0  0  1  0  0  0  0  0  0
  188.3190  177.3140  145.9260 C   0  0  0  0  0  2  0  0  0  0  0  0
  186.4200  178.3870  146.8600 O   0  0  0  0  0  0  0  0  0  0  0  0
  186.9710  177.9490  145.8150 C   0  0  0  0  0  0  0  0  0  0  0  0
  187.0520  178.3660  143.3560 C   0  0  0  0  0  3  0  0  0  0  0  0
  184.2790  178.0850  143.1550 C   0  0  0  0  0  3  0  0  0  0  0  0
  184.9070  177.9540  144.3970 C   0  0  0  0  0  3  0  0  0  0  0  0
  186.4230  178.5000  142.1140 C   0  0  0  0  0  3  0  0  0  0  0  0
  185.0380  178.3580  142.0140 C   0  0  0  0  0  0  0  0  0  0  0  0
  184.2510  178.5230  140.4590 Cl  0  0  0  0  0  0  0  0  0  0  0  0
  186.2990  178.0940  144.5080 C   0  0  0  0  0  0  0  0  0  0  0  0
  1  4  1  0  0  0  0
  2 14  1  1  0  0  0
  2  1  1  0  0  0  0
  2  7  1  0  0  0  0
  4  5  1  0  0  0  0
  4  8  1  0  0  0  0
  5  3  1  1  0  0  0
  6  1  2  0  0  0  0
  7  9  2  0  0  0  0
  8 26  1  1  0  0  0
  8  3  1  0  0  0  0
  9  5  1  0  0  0  0
 10 11  1  0  0  0  0
 11 14  2  0  0  0  0
 12 19  1  0  0  0  0
 13 17  2  0  0  0  0
 13 12  1  0  0  0  0
 14 17  1  0  0  0  0
 15 11  1  0  0  0  0
 15 16  2  0  0  0  0
 16 13  1  0  0  0  0
 18 15  1  0  0  0  0
 19 21  1  0  0  0  0
 19 24  1  1  0  0  0
 21 20  2  0  0  0  0
 22 21  1  0  0  0  0
 23 22  1  0  0  0  0
 25 24  1  0  0  0  0
 28 26  1  0  0  0  0
 28 27  2  0  0  0  0
 29 35  1  0  0  0  0
 30 31  1  0  0  0  0
 31 35  2  0  0  0  0
 32 29  2  0  0  0  0
 33 32  1  0  0  0  0
 33 30  2  0  0  0  0
 34 33  1  0  0  0  0
 35 28  1  0  0  0  0
M  END
>  <MODEL>
2

>  <REMARK>
 VINA RESULT:      -7.2      3.518      7.020
  Name = 
  8 active torsions:
  status: ('A' for Active; 'I' for Inactive)
    1  A    between atoms: O_1  and  C_19
    2  A    between atoms: C_9  and  C_18
    3  A    between atoms: N_11  and  C_12
    4  A    between atoms: C_12  and  C_19
    5  A    between atoms: C_12  and  C_30
    6  A    between atoms: C_16  and  C_27
    7  A    between atoms: C_16  and  C_34
    8  A    between atoms: C_27  and  C_32
                            x       y       z     vdW  Elec       q    Type
                         _______ _______ _______ _____ _____    ______ ____

>  <TORSDO>
F 8

$$$$
=
 OpenBabel11062421583D

 35 38  0  0  1  0  0  0  0  0999 V2000
  190.2690  173.8900  144.1020 C   0  0  0  0  0  0  0  0  0  0  0  0
  190.7430  173.2170  142.8510 C   0  0  2  0  0  3  0  0  0  0  0  0
  192.6780  176.3360  144.7910 C   0  0  0  0  0  2  0  0  0  0  0  0
  190.8790  175.1310  144.4050 N   0  0  0  0  0  0  0  0  0  0  0  0
  191.9380  175.7780  143.6260 C   0  0  2  0  0  3  0  0  0  0  0  0
  189.4110  173.3720  144.8620 O   0  0  0  0  0  0  0  0  0  0  0  0
  192.1920  173.6110  142.5750 C   0  0  0  0  0  3  0  0  0  0  0  0
  191.5600  175.7240  145.5680 C   0  0  2  0  0  3  0  0  0  0  0  0
  192.7050  174.7500  142.9370 N   0  0  0  0  0  0  0  0  0  0  0  0
  190.4880  171.5730  140.5010 O   0  0  0  0  0  1  0  0  0  0  0  0
  189.7710  172.7620  140.5690 C   0  0  0  0  0  0  0  0  0  0  0  0
  187.5900  176.3590  140.8000 N   0  0  0  0  0  2  0  0  0  0  0  0
  188.3390  175.1410  140.7150 C   0  0  0  0  0  0  0  0  0  0  0  0
  189.8660  173.5940  141.6930 C   0  0  1  0  0  3  0  0  0  0  0  0
  188.9430  173.1430  139.5080 C   0  0  0  0  0  0  0  0  0  0  0  0
  188.2200  174.3350  139.5810 C   0  0  0  0  0  2  0  0  0  0  0  0
  189.1550  174.7530  141.7330 N   0  0  0  0  0  0  0  0  0  0  0  0
  188.8330  172.3580  138.4080 F   0  0  0  0  0  0  0  0  0  0  0  0
  187.6130  177.2910  141.9280 C   0  0  2  0  0  3  0  0  0  0  0  0
  186.2820  179.1590  142.6400 O   0  0  0  0  0  0  0  0  0  0  0  0
  186.3220  178.0390  142.0600 C   0  0  0  0  0  0  0  0  0  0  0  0
  185.1540  177.4510  141.5710 O   0  0  0  0  0  0  0  0  0  0  0  0
  183.9210  178.1540  141.5280 C   0  0  0  0  0  1  0  0  0  0  0  0
  188.8200  178.2210  141.8630 C   0  0  0  0  0  2  0  0  0  0  0  0
  189.5700  178.2210  143.1830 C   0  0  0  0  0  1  0  0  0  0  0  0
  190.6920  176.8130  146.1950 C   0  0  0  0  0  2  0  0  0  0  0  0
  189.6330  175.2390  147.6200 O   0  0  0  0  0  0  0  0  0  0  0  0
  189.4840  176.2250  146.8500 C   0  0  0  0  0  0  0  0  0  0  0  0
  187.6610  177.8110  147.4710 C   0  0  0  0  0  3  0  0  0  0  0  0
  186.0630  176.8930  145.3700 C   0  0  0  0  0  3  0  0  0  0  0  0
  187.3310  176.3420  145.5770 C   0  0  0  0  0  3  0  0  0  0  0  0
  186.3910  178.3600  147.2660 C   0  0  0  0  0  3  0  0  0  0  0  0
  185.5930  177.9010  146.2160 C   0  0  0  0  0  0  0  0  0  0  0  0
  184.0050  178.5910  145.9570 Cl  0  0  0  0  0  0  0  0  0  0  0  0
  188.1400  176.7960  146.6290 C   0  0  0  0  0  0  0  0  0  0  0  0
  1  4  1  0  0  0  0
  1  6  2  0  0  0  0
  2  7  1  6  0  0  0
  2  1  1  0  0  0  0
  3  8  1  0  0  0  0
  4  8  1  0  0  0  0
  5  4  1  0  0  0  0
  5  3  1  1  0  0  0
  7  9  2  0  0  0  0
  8 26  1  6  0  0  0
  9  5  1  0  0  0  0
 10 11  1  0  0  0  0
 12 19  1  0  0  0  0
 13 12  1  0  0  0  0
 13 17  2  0  0  0  0
 14 11  1  1  0  0  0
 14 17  1  0  0  0  0
 14  2  1  0  0  0  0
 15 16  1  0  0  0  0
 15 11  2  0  0  0  0
 16 13  1  0  0  0  0
 18 15  1  0  0  0  0
 19 24  1  6  0  0  0
 19 21  1  0  0  0  0
 21 20  2  0  0  0  0
 22 21  1  0  0  0  0
 23 22  1  0  0  0  0
 24 25  1  0  0  0  0
 26 28  1  0  0  0  0
 28 27  2  0  0  0  0
 30 31  2  0  0  0  0
 30 33  1  0  0  0  0
 31 35  1  0  0  0  0
 32 29  1  0  0  0  0
 33 32  2  0  0  0  0
 34 33  1  0  0  0  0
 35 28  1  0  0  0  0
 35 29  2  0  0  0  0
M  END
>  <MODEL>
3

>  <REMARK>
 VINA RESULT:      -7.1      3.510      6.574
  Name = 
  8 active torsions:
  status: ('A' for Active; 'I' for Inactive)
    1  A    between atoms: O_1  and  C_19
    2  A    between atoms: C_9  and  C_18
    3  A    between atoms: N_11  and  C_12
    4  A    between atoms: C_12  and  C_19
    5  A    between atoms: C_12  and  C_30
    6  A    between atoms: C_16  and  C_27
    7  A    between atoms: C_16  and  C_34
    8  A    between atoms: C_27  and  C_32
                            x       y       z     vdW  Elec       q    Type
                         _______ _______ _______ _____ _____    ______ ____

>  <TORSDO>
F 8

$$$$
=
 OpenBabel11062421583D

 35 38  0  0  1  0  0  0  0  0999 V2000
  188.7380  174.6340  143.1810 C   0  0  0  0  0  0  0  0  0  0  0  0
  189.3910  173.3490  142.7760 C   0  0  2  0  0  3  0  0  0  0  0  0
  189.3860  174.9460  146.6090 C   0  0  0  0  0  2  0  0  0  0  0  0
  189.1350  175.1610  144.4340 N   0  0  0  0  0  0  0  0  0  0  0  0
  190.0890  174.5430  145.3590 C   0  0  2  0  0  3  0  0  0  0  0  0
  187.8600  175.1960  142.4760 O   0  0  0  0  0  0  0  0  0  0  0  0
  189.7670  172.5510  144.0210 C   0  0  0  0  0  3  0  0  0  0  0  0
  188.4560  175.6220  145.6560 C   0  0  2  0  0  3  0  0  0  0  0  0
  190.0650  173.1010  145.1610 N   0  0  0  0  0  0  0  0  0  0  0  0
  189.3840  173.1120  139.9070 O   0  0  0  0  0  1  0  0  0  0  0  0
  190.5570  173.4980  140.5450 C   0  0  0  0  0  0  0  0  0  0  0  0
  194.0980  174.6850  142.4950 N   0  0  0  0  0  2  0  0  0  0  0  0
  192.8980  174.2710  141.8320 C   0  0  0  0  0  0  0  0  0  0  0  0
  190.6060  173.6250  141.9410 C   0  0  2  0  0  3  0  0  0  0  0  0
  191.7090  173.7630  139.7970 C   0  0  0  0  0  0  0  0  0  0  0  0
  192.8840  174.1560  140.4400 C   0  0  0  0  0  2  0  0  0  0  0  0
  191.7680  174.0020  142.5410 N   0  0  0  0  0  0  0  0  0  0  0  0
  191.6900  173.6480  138.4460 F   0  0  0  0  0  0  0  0  0  0  0  0
  194.2510  174.8540  143.9410 C   0  0  2  0  0  3  0  0  0  0  0  0
  196.1500  176.3230  143.8470 O   0  0  0  0  0  0  0  0  0  0  0  0
  194.9820  176.1180  144.2800 C   0  0  0  0  0  0  0  0  0  0  0  0
  194.3650  177.0410  145.1260 O   0  0  0  0  0  0  0  0  0  0  0  0
  194.1930  176.7900  146.5130 C   0  0  0  0  0  1  0  0  0  0  0  0
  194.8840  173.6260  144.5860 C   0  0  0  0  0  2  0  0  0  0  0  0
  193.8970  172.9370  145.5120 C   0  0  0  0  0  1  0  0  0  0  0  0
  188.5700  177.1380  145.7910 C   0  0  0  0  0  2  0  0  0  0  0  0
  186.7140  178.1990  146.8210 O   0  0  0  0  0  0  0  0  0  0  0  0
  187.2230  177.7830  145.7450 C   0  0  0  0  0  0  0  0  0  0  0  0
  187.2100  178.2980  143.3030 C   0  0  0  0  0  3  0  0  0  0  0  0
  184.4390  177.9560  143.1830 C   0  0  0  0  0  3  0  0  0  0  0  0
  185.1120  177.7920  144.3980 C   0  0  0  0  0  3  0  0  0  0  0  0
  186.5360  178.4650  142.0890 C   0  0  0  0  0  3  0  0  0  0  0  0
  185.1520  178.2930  142.0300 C   0  0  0  0  0  0  0  0  0  0  0  0
  184.3090  178.4980  140.5090 Cl  0  0  0  0  0  0  0  0  0  0  0  0
  186.5030  177.9630  144.4680 C   0  0  0  0  0  0  0  0  0  0  0  0
  1  4  1  0  0  0  0
  2  1  1  0  0  0  0
  2  7  1  1  0  0  0
  4  5  1  0  0  0  0
  4  8  1  0  0  0  0
  5  3  1  1  0  0  0
  6  1  2  0  0  0  0
  7  9  2  0  0  0  0
  8 26  1  1  0  0  0
  8  3  1  0  0  0  0
  9  5  1  0  0  0  0
 10 11  1  0  0  0  0
 12 19  1  0  0  0  0
 13 12  1  0  0  0  0
 13 17  2  0  0  0  0
 14 11  1  1  0  0  0
 14 17  1  0  0  0  0
 14  2  1  0  0  0  0
 15 16  1  0  0  0  0
 15 11  2  0  0  0  0
 16 13  1  0  0  0  0
 18 15  1  0  0  0  0
 19 21  1  0  0  0  0
 19 24  1  6  0  0  0
 20 21  2  0  0  0  0
 21 22  1  0  0  0  0
 22 23  1  0  0  0  0
 24 25  1  0  0  0  0
 28 26  1  0  0  0  0
 28 27  2  0  0  0  0
 29 35  1  0  0  0  0
 30 31  1  0  0  0  0
 31 35  2  0  0  0  0
 32 29  2  0  0  0  0
 33 32  1  0  0  0  0
 33 30  2  0  0  0  0
 34 33  1  0  0  0  0
 35 28  1  0  0  0  0
M  END
>  <MODEL>
4

>  <REMARK>
 VINA RESULT:      -6.9      3.566      6.775
  Name = 
  8 active torsions:
  status: ('A' for Active; 'I' for Inactive)
    1  A    between atoms: O_1  and  C_19
    2  A    between atoms: C_9  and  C_18
    3  A    between atoms: N_11  and  C_12
    4  A    between atoms: C_12  and  C_19
    5  A    between atoms: C_12  and  C_30
    6  A    between atoms: C_16  and  C_27
    7  A    between atoms: C_16  and  C_34
    8  A    between atoms: C_27  and  C_32
                            x       y       z     vdW  Elec       q    Type
                         _______ _______ _______ _____ _____    ______ ____

>  <TORSDO>
F 8

$$$$
=
 OpenBabel11062421583D

 35 38  0  0  1  0  0  0  0  0999 V2000
  190.5910  177.5200  144.9210 C   0  0  0  0  0  0  0  0  0  0  0  0
  189.1510  177.6670  145.3040 C   0  0  2  0  0  3  0  0  0  0  0  0
  191.9360  175.2910  147.2620 C   0  0  0  0  0  2  0  0  0  0  0  0
  191.2750  176.4220  145.4950 N   0  0  0  0  0  0  0  0  0  0  0  0
  190.7040  175.4590  146.4420 C   0  0  2  0  0  3  0  0  0  0  0  0
  191.1740  178.3410  144.1660 O   0  0  0  0  0  0  0  0  0  0  0  0
  188.9300  177.0870  146.6980 C   0  0  0  0  0  3  0  0  0  0  0  0
  192.5200  176.2260  146.2550 C   0  0  2  0  0  3  0  0  0  0  0  0
  189.6390  176.1120  147.1870 N   0  0  0  0  0  0  0  0  0  0  0  0
  186.5060  178.6030  144.6580 O   0  0  0  0  0  1  0  0  0  0  0  0
  186.9910  177.4690  144.0170 C   0  0  0  0  0  0  0  0  0  0  0  0
  188.4860  174.0450  142.0700 N   0  0  0  0  0  2  0  0  0  0  0  0
  187.9720  175.2030  142.7390 C   0  0  0  0  0  0  0  0  0  0  0  0
  188.2730  176.9780  144.3020 C   0  0  2  0  0  3  0  0  0  0  0  0
  186.1990  176.8010  143.0770 C   0  0  0  0  0  0  0  0  0  0  0  0
  186.6910  175.6660  142.4310 C   0  0  0  0  0  2  0  0  0  0  0  0
  188.7230  175.8640  143.6620 N   0  0  0  0  0  0  0  0  0  0  0  0
  184.9560  177.2550  142.7830 F   0  0  0  0  0  0  0  0  0  0  0  0
  189.8080  173.4580  142.2880 C   0  0  2  0  0  3  0  0  0  0  0  0
  191.8600  173.4920  141.0410 O   0  0  0  0  0  0  0  0  0  0  0  0
  190.6030  173.3850  141.0200 C   0  0  0  0  0  0  0  0  0  0  0  0
  189.9210  173.2450  139.8100 O   0  0  0  0  0  0  0  0  0  0  0  0
  189.5910  171.9710  139.2780 C   0  0  0  0  0  1  0  0  0  0  0  0
  189.7140  172.1090  142.9940 C   0  0  0  0  0  2  0  0  0  0  0  0
  189.6910  172.2910  144.5010 C   0  0  0  0  0  1  0  0  0  0  0  0
  193.5580  175.5010  145.4000 C   0  0  0  0  0  2  0  0  0  0  0  0
  194.9120  177.4380  145.6200 O   0  0  0  0  0  0  0  0  0  0  0  0
  194.5970  176.4520  144.9000 C   0  0  0  0  0  0  0  0  0  0  0  0
  194.5100  176.0410  142.4400 C   0  0  0  0  0  3  0  0  0  0  0  0
  197.2990  176.0420  142.2790 C   0  0  0  0  0  3  0  0  0  0  0  0
  196.6700  176.2370  143.5120 C   0  0  0  0  0  3  0  0  0  0  0  0
  195.1390  175.8420  141.2070 C   0  0  0  0  0  3  0  0  0  0  0  0
  196.5330  175.8440  141.1280 C   0  0  0  0  0  0  0  0  0  0  0  0
  197.3220  175.5980  139.5840 Cl  0  0  0  0  0  0  0  0  0  0  0  0
  195.2700  176.2380  143.6030 C   0  0  0  0  0  0  0  0  0  0  0  0
  1  2  1  0  0  0  0
  1  4  1  0  0  0  0
  2  7  1  1  0  0  0
  4  8  1  0  0  0  0
  4  5  1  0  0  0  0
  5  9  1  0  0  0  0
  5  3  1  1  0  0  0
  6  1  2  0  0  0  0
  7  9  2  0  0  0  0
  8 26  1  6  0  0  0
  8  3  1  0  0  0  0
 11 14  1  0  0  0  0
 11 10  1  0  0  0  0
 12 19  1  0  0  0  0
 12 13  1  0  0  0  0
 13 17  2  0  0  0  0
 14 17  1  1  0  0  0
 14  2  1  0  0  0  0
 15 11  2  0  0  0  0
 16 13  1  0  0  0  0
 16 15  1  0  0  0  0
 18 15  1  0  0  0  0
 19 24  1  6  0  0  0
 21 20  2  0  0  0  0
 21 19  1  0  0  0  0
 22 21  1  0  0  0  0
 23 22  1  0  0  0  0
 24 25  1  0  0  0  0
 28 26  1  0  0  0  0
 28 27  2  0  0  0  0
 29 35  1  0  0  0  0
 30 31  1  0  0  0  0
 31 35  2  0  0  0  0
 32 29  2  0  0  0  0
 33 32  1  0  0  0  0
 33 30  2  0  0  0  0
 34 33  1  0  0  0  0
 35 28  1  0  0  0  0
M  END
>  <MODEL>
5

>  <REMARK>
 VINA RESULT:      -6.9      1.685      2.298
  Name = 
  8 active torsions:
  status: ('A' for Active; 'I' for Inactive)
    1  A    between atoms: O_1  and  C_19
    2  A    between atoms: C_9  and  C_18
    3  A    between atoms: N_11  and  C_12
    4  A    between atoms: C_12  and  C_19
    5  A    between atoms: C_12  and  C_30
    6  A    between atoms: C_16  and  C_27
    7  A    between atoms: C_16  and  C_34
    8  A    between atoms: C_27  and  C_32
                            x       y       z     vdW  Elec       q    Type
                         _______ _______ _______ _____ _____    ______ ____

>  <TORSDO>
F 8

$$$$
=
 OpenBabel11062421583D

 35 38  0  0  1  0  0  0  0  0999 V2000
  191.5270  176.2370  142.3880 C   0  0  0  0  0  0  0  0  0  0  0  0
  192.9540  175.8180  142.2140 C   0  0  2  0  0  3  0  0  0  0  0  0
  189.6350  173.4660  141.3860 C   0  0  0  0  0  2  0  0  0  0  0  0
  190.5710  175.1930  142.3760 N   0  0  0  0  0  0  0  0  0  0  0  0
  190.8600  173.7700  142.1770 C   0  0  2  0  0  3  0  0  0  0  0  0
  191.1870  177.4430  142.5000 O   0  0  0  0  0  0  0  0  0  0  0  0
  193.0150  174.5380  141.3850 C   0  0  0  0  0  3  0  0  0  0  0  0
  189.3240  174.9020  141.6490 C   0  0  2  0  0  3  0  0  0  0  0  0
  192.0690  173.6460  141.3760 N   0  0  0  0  0  0  0  0  0  0  0  0
  195.7530  175.2050  142.5010 O   0  0  0  0  0  1  0  0  0  0  0  0
  194.9690  175.3140  143.6440 C   0  0  0  0  0  0  0  0  0  0  0  0
  192.5850  175.6700  147.0990 N   0  0  0  0  0  2  0  0  0  0  0  0
  193.3950  175.5380  145.9250 C   0  0  0  0  0  0  0  0  0  0  0  0
  193.6020  175.6100  143.5510 C   0  0  0  0  0  0  0  0  0  0  0  0
  195.5410  175.1270  144.9070 C   0  0  0  0  0  0  0  0  0  0  0  0
  194.7530  175.2430  146.0540 C   0  0  0  0  0  3  0  0  0  0  0  0
  192.8580  175.7100  144.6860 N   0  0  0  0  0  0  0  0  0  0  0  0
  196.8610  174.8390  145.0260 F   0  0  0  0  0  0  0  0  0  0  0  0
  191.1550  175.9820  147.1110 C   0  0  2  0  0  3  0  0  0  0  0  0
  189.9350  177.9170  147.8440 O   0  0  0  0  0  0  0  0  0  0  0  0
  190.8280  177.0630  148.0970 C   0  0  0  0  0  0  0  0  0  0  0  0
  191.5670  177.1350  149.2800 O   0  0  0  0  0  0  0  0  0  0  0  0
  191.5640  178.2980  150.0950 C   0  0  0  0  0  1  0  0  0  0  0  0
  190.3080  174.7310  147.3180 C   0  0  0  0  0  2  0  0  0  0  0  0
  189.6950  174.2740  146.0070 C   0  0  0  0  0  1  0  0  0  0  0  0
  188.1220  175.0220  142.5830 C   0  0  0  0  0  2  0  0  0  0  0  0
  187.3000  176.8330  141.2900 O   0  0  0  0  0  0  0  0  0  0  0  0
  187.4670  176.3590  142.4450 C   0  0  0  0  0  0  0  0  0  0  0  0
  187.1740  176.5730  144.9140 C   0  0  0  0  0  3  0  0  0  0  0  0
  185.9400  179.0620  144.6120 C   0  0  0  0  0  3  0  0  0  0  0  0
  186.3760  178.3570  143.4860 C   0  0  0  0  0  3  0  0  0  0  0  0
  186.7350  177.2770  146.0390 C   0  0  0  0  0  3  0  0  0  0  0  0
  186.1190  178.5210  145.8880 C   0  0  0  0  0  0  0  0  0  0  0  0
  185.5730  179.4050  147.2970 Cl  0  0  0  0  0  0  0  0  0  0  0  0
  186.9960  177.1060  143.6280 C   0  0  0  0  0  0  0  0  0  0  0  0
  1  6  2  0  0  0  0
  2  1  1  0  0  0  0
  2 14  1  1  0  0  0
  3  8  1  0  0  0  0
  4  1  1  0  0  0  0
  5  3  1  6  0  0  0
  5  4  1  0  0  0  0
  7  2  1  0  0  0  0
  8  4  1  0  0  0  0
  8 26  1  1  0  0  0
  9  7  2  0  0  0  0
  9  5  1  0  0  0  0
 10 11  1  0  0  0  0
 11 15  1  0  0  0  0
 12 19  1  0  0  0  0
 13 16  1  0  0  0  0
 13 12  1  0  0  0  0
 14 11  2  0  0  0  0
 14 17  1  0  0  0  0
 15 18  1  0  0  0  0
 15 16  2  0  0  0  0
 17 13  2  0  0  0  0
 19 24  1  1  0  0  0
 19 21  1  0  0  0  0
 20 21  2  0  0  0  0
 21 22  1  0  0  0  0
 22 23  1  0  0  0  0
 25 24  1  0  0  0  0
 27 28  2  0  0  0  0
 28 26  1  0  0  0  0
 28 35  1  0  0  0  0
 29 32  1  0  0  0  0
 30 33  1  0  0  0  0
 31 35  1  0  0  0  0
 31 30  2  0  0  0  0
 33 32  2  0  0  0  0
 33 34  1  0  0  0  0
 35 29  2  0  0  0  0
M  END
>  <MODEL>
6

>  <REMARK>
 VINA RESULT:      -6.7      3.782      7.917
  Name = 
  8 active torsions:
  status: ('A' for Active; 'I' for Inactive)
    1  A    between atoms: O_1  and  C_19
    2  A    between atoms: C_9  and  C_18
    3  A    between atoms: N_11  and  C_12
    4  A    between atoms: C_12  and  C_19
    5  A    between atoms: C_12  and  C_30
    6  A    between atoms: C_16  and  C_27
    7  A    between atoms: C_16  and  C_34
    8  A    between atoms: C_27  and  C_32
                            x       y       z     vdW  Elec       q    Type
                         _______ _______ _______ _____ _____    ______ ____

>  <TORSDO>
F 8

$$$$
=
 OpenBabel11062421583D

 35 38  0  0  1  0  0  0  0  0999 V2000
  188.1660  175.9580  141.8010 C   0  0  0  0  0  0  0  0  0  0  0  0
  187.8200  177.2920  141.2140 C   0  0  2  0  0  3  0  0  0  0  0  0
  190.5760  176.6360  144.2490 C   0  0  0  0  0  2  0  0  0  0  0  0
  188.8620  175.9870  143.0330 N   0  0  0  0  0  0  0  0  0  0  0  0
  189.2890  177.1940  143.7470 C   0  0  2  0  0  3  0  0  0  0  0  0
  187.8940  174.8760  141.2210 O   0  0  0  0  0  0  0  0  0  0  0  0
  188.8510  178.3280  141.6530 C   0  0  0  0  0  3  0  0  0  0  0  0
  190.0990  175.3960  143.5690 C   0  0  2  0  0  3  0  0  0  0  0  0
  189.4990  178.2600  142.7780 N   0  0  0  0  0  0  0  0  0  0  0  0
  185.6530  177.6260  139.3480 O   0  0  0  0  0  1  0  0  0  0  0  0
  185.4170  177.8560  140.6990 C   0  0  0  0  0  0  0  0  0  0  0  0
  184.7130  178.5290  144.7980 N   0  0  0  0  0  2  0  0  0  0  0  0
  184.9540  178.3110  143.4020 C   0  0  0  0  0  0  0  0  0  0  0  0
  186.4430  177.7060  141.6420 C   0  0  0  0  0  0  0  0  0  0  0  0
  184.1440  178.2430  141.1330 C   0  0  0  0  0  0  0  0  0  0  0  0
  183.9090  178.4680  142.4900 C   0  0  0  0  0  3  0  0  0  0  0  0
  186.1850  177.9390  142.9580 N   0  0  0  0  0  0  0  0  0  0  0  0
  183.1340  178.3960  140.2420 F   0  0  0  0  0  0  0  0  0  0  0  0
  185.7100  178.3930  145.8600 C   0  0  2  0  0  3  0  0  0  0  0  0
  184.8790  176.3930  146.8990 O   0  0  0  0  0  0  0  0  0  0  0  0
  185.8410  176.9740  146.3250 C   0  0  0  0  0  0  0  0  0  0  0  0
  187.0640  176.3240  146.1540 O   0  0  0  0  0  0  0  0  0  0  0  0
  188.1400  176.4990  147.0650 C   0  0  0  0  0  1  0  0  0  0  0  0
  185.4420  179.3580  147.0100 C   0  0  0  0  0  2  0  0  0  0  0  0
  186.5670  179.3100  148.0270 C   0  0  0  0  0  1  0  0  0  0  0  0
  189.7720  174.3190  144.6010 C   0  0  0  0  0  2  0  0  0  0  0  0
  190.3410  172.0410  144.2540 O   0  0  0  0  0  0  0  0  0  0  0  0
  190.7580  173.1970  144.5340 C   0  0  0  0  0  0  0  0  0  0  0  0
  193.1490  172.8330  143.9200 C   0  0  0  0  0  3  0  0  0  0  0  0
  194.0010  174.4720  146.0170 C   0  0  0  0  0  3  0  0  0  0  0  0
  192.6350  174.2510  145.8120 C   0  0  0  0  0  3  0  0  0  0  0  0
  194.5150  173.0520  144.1260 C   0  0  0  0  0  3  0  0  0  0  0  0
  194.9390  173.8720  145.1740 C   0  0  0  0  0  0  0  0  0  0  0  0
  196.6490  174.1480  145.4310 Cl  0  0  0  0  0  0  0  0  0  0  0  0
  192.1990  173.4290  144.7630 C   0  0  0  0  0  0  0  0  0  0  0  0
  1  4  1  0  0  0  0
  2 14  1  1  0  0  0
  2  7  1  0  0  0  0
  2  1  1  0  0  0  0
  4  8  1  0  0  0  0
  4  5  1  0  0  0  0
  5  3  1  6  0  0  0
  6  1  2  0  0  0  0
  7  9  2  0  0  0  0
  8  3  1  0  0  0  0
  8 26  1  1  0  0  0
  9  5  1  0  0  0  0
 10 11  1  0  0  0  0
 11 15  1  0  0  0  0
 11 14  2  0  0  0  0
 12 19  1  0  0  0  0
 13 12  1  0  0  0  0
 14 17  1  0  0  0  0
 15 16  2  0  0  0  0
 16 13  1  0  0  0  0
 17 13  2  0  0  0  0
 18 15  1  0  0  0  0
 19 21  1  0  0  0  0
 19 24  1  1  0  0  0
 21 20  2  0  0  0  0
 22 21  1  0  0  0  0
 22 23  1  0  0  0  0
 24 25  1  0  0  0  0
 27 28  2  0  0  0  0
 28 26  1  0  0  0  0
 28 35  1  0  0  0  0
 29 32  2  0  0  0  0
 29 35  1  0  0  0  0
 31 30  1  0  0  0  0
 32 33  1  0  0  0  0
 33 34  1  0  0  0  0
 33 30  2  0  0  0  0
 35 31  2  0  0  0  0
M  END
>  <MODEL>
7

>  <REMARK>
 VINA RESULT:      -6.6      2.583      4.975
  Name = 
  8 active torsions:
  status: ('A' for Active; 'I' for Inactive)
    1  A    between atoms: O_1  and  C_19
    2  A    between atoms: C_9  and  C_18
    3  A    between atoms: N_11  and  C_12
    4  A    between atoms: C_12  and  C_19
    5  A    between atoms: C_12  and  C_30
    6  A    between atoms: C_16  and  C_27
    7  A    between atoms: C_16  and  C_34
    8  A    between atoms: C_27  and  C_32
                            x       y       z     vdW  Elec       q    Type
                         _______ _______ _______ _____ _____    ______ ____

>  <TORSDO>
F 8

$$$$
=
 OpenBabel11062421583D

 35 38  0  0  1  0  0  0  0  0999 V2000
  191.5120  174.2900  142.3740 C   0  0  0  0  0  0  0  0  0  0  0  0
  192.8330  173.8030  142.8840 C   0  0  2  0  0  3  0  0  0  0  0  0
  189.3120  171.6030  142.8280 C   0  0  0  0  0  2  0  0  0  0  0  0
  190.3830  173.5230  142.7510 N   0  0  0  0  0  0  0  0  0  0  0  0
  190.4110  172.2980  143.5560 C   0  0  2  0  0  3  0  0  0  0  0  0
  191.4080  175.2940  141.6240 O   0  0  0  0  0  0  0  0  0  0  0  0
  192.7830  172.2890  143.0730 C   0  0  0  0  0  3  0  0  0  0  0  0
  189.2560  172.8800  142.0570 C   0  0  2  0  0  3  0  0  0  0  0  0
  191.6940  171.6400  143.3610 N   0  0  0  0  0  0  0  0  0  0  0  0
  195.4390  173.6150  144.0940 O   0  0  0  0  0  1  0  0  0  0  0  0
  194.4560  174.3660  144.7300 C   0  0  0  0  0  0  0  0  0  0  0  0
  191.4740  176.6530  146.6320 N   0  0  0  0  0  2  0  0  0  0  0  0
  192.4860  175.8670  145.9920 C   0  0  0  0  0  0  0  0  0  0  0  0
  193.1740  174.4840  144.1770 C   0  0  0  0  0  0  0  0  0  0  0  0
  194.7400  175.0140  145.9360 C   0  0  0  0  0  0  0  0  0  0  0  0
  193.7540  175.7720  146.5700 C   0  0  0  0  0  3  0  0  0  0  0  0
  192.2300  175.2230  144.8210 N   0  0  0  0  0  0  0  0  0  0  0  0
  195.9720  174.9170  146.4940 F   0  0  0  0  0  0  0  0  0  0  0  0
  190.1110  176.8450  146.1370 C   0  0  2  0  0  3  0  0  0  0  0  0
  189.5910  174.8150  147.3080 O   0  0  0  0  0  0  0  0  0  0  0  0
  189.1600  175.8400  146.7110 C   0  0  0  0  0  0  0  0  0  0  0  0
  187.7900  176.0340  146.5300 O   0  0  0  0  0  0  0  0  0  0  0  0
  187.1310  177.2050  146.9900 C   0  0  0  0  0  1  0  0  0  0  0  0
  190.0670  176.8810  144.6120 C   0  0  0  0  0  2  0  0  0  0  0  0
  190.4250  178.2640  144.0970 C   0  0  0  0  0  1  0  0  0  0  0  0
  187.9540  173.6200  142.3540 C   0  0  0  0  0  2  0  0  0  0  0  0
  188.2470  174.8640  140.3550 O   0  0  0  0  0  0  0  0  0  0  0  0
  187.8590  174.8790  141.5540 C   0  0  0  0  0  0  0  0  0  0  0  0
  187.7360  177.3680  141.6790 C   0  0  0  0  0  3  0  0  0  0  0  0
  185.7880  177.2320  143.6770 C   0  0  0  0  0  3  0  0  0  0  0  0
  186.3190  176.0570  143.1380 C   0  0  0  0  0  3  0  0  0  0  0  0
  187.2060  178.5440  142.2200 C   0  0  0  0  0  3  0  0  0  0  0  0
  186.2320  178.4750  143.2190 C   0  0  0  0  0  0  0  0  0  0  0  0
  185.5660  179.9460  143.8950 Cl  0  0  0  0  0  0  0  0  0  0  0  0
  187.2980  176.1160  142.1350 C   0  0  0  0  0  0  0  0  0  0  0  0
  1  4  1  0  0  0  0
  1  2  1  0  0  0  0
  2  7  1  0  0  0  0
  2 14  1  1  0  0  0
  4  5  1  0  0  0  0
  5  3  1  6  0  0  0
  6  1  2  0  0  0  0
  7  9  2  0  0  0  0
  8 26  1  1  0  0  0
  8  4  1  0  0  0  0
  8  3  1  0  0  0  0
  9  5  1  0  0  0  0
 10 11  1  0  0  0  0
 11 15  1  0  0  0  0
 13 16  1  0  0  0  0
 13 12  1  0  0  0  0
 14 11  2  0  0  0  0
 14 17  1  0  0  0  0
 15 18  1  0  0  0  0
 15 16  2  0  0  0  0
 17 13  2  0  0  0  0
 19 24  1  6  0  0  0
 19 12  1  0  0  0  0
 19 21  1  0  0  0  0
 21 20  2  0  0  0  0
 22 21  1  0  0  0  0
 22 23  1  0  0  0  0
 25 24  1  0  0  0  0
 27 28  2  0  0  0  0
 28 35  1  0  0  0  0
 28 26  1  0  0  0  0
 29 35  2  0  0  0  0
 29 32  1  0  0  0  0
 31 30  2  0  0  0  0
 32 33  2  0  0  0  0
 33 30  1  0  0  0  0
 33 34  1  0  0  0  0
 35 31  1  0  0  0  0
M  END
>  <MODEL>
8

>  <REMARK>
 VINA RESULT:      -6.6      3.735      7.744
  Name = 
  8 active torsions:
  status: ('A' for Active; 'I' for Inactive)
    1  A    between atoms: O_1  and  C_19
    2  A    between atoms: C_9  and  C_18
    3  A    between atoms: N_11  and  C_12
    4  A    between atoms: C_12  and  C_19
    5  A    between atoms: C_12  and  C_30
    6  A    between atoms: C_16  and  C_27
    7  A    between atoms: C_16  and  C_34
    8  A    between atoms: C_27  and  C_32
                            x       y       z     vdW  Elec       q    Type
                         _______ _______ _______ _____ _____    ______ ____

>  <TORSDO>
F 8

$$$$
=
 OpenBabel11062421583D

 35 38  0  0  1  0  0  0  0  0999 V2000
  192.0310  175.7060  146.6950 C   0  0  0  0  0  0  0  0  0  0  0  0
  193.3750  175.8310  146.0460 C   0  0  2  0  0  3  0  0  0  0  0  0
  189.9550  177.9010  144.9240 C   0  0  0  0  0  2  0  0  0  0  0  0
  190.9390  176.2290  145.9600 N   0  0  0  0  0  0  0  0  0  0  0  0
  191.0250  176.8990  144.6600 C   0  0  2  0  0  3  0  0  0  0  0  0
  191.8780  175.2030  147.8380 O   0  0  0  0  0  0  0  0  0  0  0  0
  193.3930  177.0590  145.1390 C   0  0  0  0  0  3  0  0  0  0  0  0
  189.8370  177.1700  146.2210 C   0  0  2  0  0  3  0  0  0  0  0  0
  192.3350  177.5210  144.5400 N   0  0  0  0  0  0  0  0  0  0  0  0
  195.9510  174.5500  146.1480 O   0  0  0  0  0  1  0  0  0  0  0  0
  194.9600  174.0010  145.3430 C   0  0  0  0  0  0  0  0  0  0  0  0
  191.9390  172.3380  142.9230 N   0  0  0  0  0  2  0  0  0  0  0  0
  192.9710  172.9080  143.7370 C   0  0  0  0  0  0  0  0  0  0  0  0
  193.6920  174.5920  145.2620 C   0  0  1  0  0  3  0  0  0  0  0  0
  195.2210  172.8460  144.5990 C   0  0  0  0  0  0  0  0  0  0  0  0
  194.2230  172.2930  143.7950 C   0  0  0  0  0  2  0  0  0  0  0  0
  192.7400  174.0350  144.4650 N   0  0  0  0  0  0  0  0  0  0  0  0
  196.4400  172.2530  144.6580 F   0  0  0  0  0  0  0  0  0  0  0  0
  190.5840  172.8710  142.7760 C   0  0  2  0  0  3  0  0  0  0  0  0
  191.3690  174.1000  140.8680 O   0  0  0  0  0  0  0  0  0  0  0  0
  190.5380  174.0180  141.8130 C   0  0  0  0  0  0  0  0  0  0  0  0
  189.5870  175.0210  142.0120 O   0  0  0  0  0  0  0  0  0  0  0  0
  188.3110  174.9780  141.3890 C   0  0  0  0  0  1  0  0  0  0  0  0
  189.9680  173.2210  144.1260 C   0  0  0  0  0  2  0  0  0  0  0  0
  189.6900  171.9640  144.9310 C   0  0  0  0  0  1  0  0  0  0  0  0
  188.5060  176.4260  146.2900 C   0  0  0  0  0  2  0  0  0  0  0  0
  187.2610  178.0100  147.5440 O   0  0  0  0  0  0  0  0  0  0  0  0
  187.3670  177.3810  146.4580 C   0  0  0  0  0  0  0  0  0  0  0  0
  186.4780  176.8670  144.1840 C   0  0  0  0  0  3  0  0  0  0  0  0
  184.4570  178.7750  144.4760 C   0  0  0  0  0  3  0  0  0  0  0  0
  185.3780  178.5680  145.5080 C   0  0  0  0  0  3  0  0  0  0  0  0
  185.5590  177.0770  143.1500 C   0  0  0  0  0  3  0  0  0  0  0  0
  184.5490  178.0300  143.2980 C   0  0  0  0  0  0  0  0  0  0  0  0
  183.3960  178.2900  142.0060 Cl  0  0  0  0  0  0  0  0  0  0  0  0
  186.3960  177.6120  145.3690 C   0  0  0  0  0  0  0  0  0  0  0  0
  1  6  2  0  0  0  0
  2  7  1  6  0  0  0
  2  1  1  0  0  0  0
  3  8  1  0  0  0  0
  4  8  1  0  0  0  0
  4  1  1  0  0  0  0
  5  3  1  1  0  0  0
  5  4  1  0  0  0  0
  8 26  1  6  0  0  0
  9  5  1  0  0  0  0
  9  7  2  0  0  0  0
 11 10  1  0  0  0  0
 12 13  1  0  0  0  0
 13 16  1  0  0  0  0
 13 17  2  0  0  0  0
 14 17  1  1  0  0  0
 14 11  1  0  0  0  0
 14  2  1  0  0  0  0
 15 18  1  0  0  0  0
 15 11  2  0  0  0  0
 16 15  1  0  0  0  0
 19 12  1  0  0  0  0
 19 24  1  1  0  0  0
 20 21  2  0  0  0  0
 21 22  1  0  0  0  0
 21 19  1  0  0  0  0
 23 22  1  0  0  0  0
 24 25  1  0  0  0  0
 26 28  1  0  0  0  0
 28 27  2  0  0  0  0
 29 35  1  0  0  0  0
 30 31  1  0  0  0  0
 32 33  1  0  0  0  0
 32 29  2  0  0  0  0
 33 30  2  0  0  0  0
 34 33  1  0  0  0  0
 35 31  2  0  0  0  0
 35 28  1  0  0  0  0
M  END
>  <MODEL>
9

>  <REMARK>
 VINA RESULT:      -6.6      3.984      7.298
  Name = 
  8 active torsions:
  status: ('A' for Active; 'I' for Inactive)
    1  A    between atoms: O_1  and  C_19
    2  A    between atoms: C_9  and  C_18
    3  A    between atoms: N_11  and  C_12
    4  A    between atoms: C_12  and  C_19
    5  A    between atoms: C_12  and  C_30
    6  A    between atoms: C_16  and  C_27
    7  A    between atoms: C_16  and  C_34
    8  A    between atoms: C_27  and  C_32
                            x       y       z     vdW  Elec       q    Type
                         _______ _______ _______ _____ _____    ______ ____

>  <TORSDO>
F 8

$$$$
