=
 OpenBabel11062422473D

 67 71  0  0  1  0  0  0  0  0999 V2000
  190.9040  172.1790  138.9900 N   0  0  0  0  0  0  0  0  0  0  0  0
  192.0070  173.0730  138.7970 C   0  0  0  0  0  3  0  0  0  0  0  0
  191.9730  173.9950  137.8880 N   0  0  0  0  0  2  0  0  0  0  0  0
  190.9820  171.2370  139.9650 O   0  0  0  0  0  0  0  0  0  0  0  0
  191.0890  171.9480  141.1650 C   0  0  0  0  0  2  0  0  0  0  0  0
  190.3960  171.1840  142.2780 C   0  0  0  0  0  2  0  0  0  0  0  0
  190.5320  171.8790  143.4870 O   0  0  0  0  0  0  0  0  0  0  0  0
  191.6490  171.3140  144.1090 C   0  0  0  0  0  2  0  0  0  0  0  0
  192.2120  170.1910  143.2550 C   0  0  0  0  0  2  0  0  0  0  0  0
  192.9860  169.3400  144.0460 O   0  0  0  0  0  0  0  0  0  0  0  0
  193.9380  170.1730  144.6390 C   0  0  0  0  0  2  0  0  0  0  0  0
  195.2660  169.4420  144.7610 C   0  0  0  0  0  2  0  0  0  0  0  0
  195.1810  168.1800  144.1700 O   0  0  0  0  0  0  0  0  0  0  0  0
  196.1150  168.1990  143.1300 C   0  0  0  0  0  2  0  0  0  0  0  0
  195.4210  168.3730  141.7850 C   0  0  0  0  0  2  0  0  0  0  0  0
  195.4850  169.8200  141.2730 C   0  0  2  0  0  3  0  0  0  0  0  0
  194.4570  170.1070  140.3450 O   0  0  0  0  0  0  0  0  0  0  0  0
  193.5910  169.0030  140.2540 C   0  0  0  0  0  2  0  0  0  0  0  0
  192.9440  168.9760  138.8840 C   0  0  0  0  0  1  0  0  0  0  0  0
  196.8850  170.2050  140.7790 C   0  0  0  0  0  2  0  0  0  0  0  0
  196.9890  171.7000  140.5010 C   0  0  0  0  0  2  0  0  0  0  0  0
  196.5380  172.0340  139.0800 C   0  0  2  0  0  3  0  0  0  0  0  0
  197.1980  171.1960  138.1610 O   0  0  0  0  0  0  0  0  0  0  0  0
  195.1390  169.1830  135.7130 C   0  0  0  0  0  2  0  0  0  0  0  0
  195.4590  169.8530  134.5220 O   0  0  0  0  0  0  0  0  0  0  0  0
  196.2230  169.4270  136.7590 C   0  0  0  0  0  2  0  0  0  0  0  0
  196.6890  171.6650  135.9320 O   0  0  0  0  0  0  0  0  0  0  0  0
  194.7500  171.0660  134.5610 C   0  0  0  0  0  2  0  0  0  0  0  0
  195.4830  172.1390  135.3950 C   0  0  0  0  0  2  0  0  0  0  0  0
  196.3350  170.9250  137.0750 C   0  0  2  0  0  3  0  0  0  0  0  0
  196.7690  173.5030  138.7060 C   0  0  0  0  0  2  0  0  0  0  0  0
  195.4890  174.3270  138.7590 C   0  0  0  0  0  2  0  0  0  0  0  0
  195.4160  175.0930  140.0620 C   0  0  0  0  0  2  0  0  0  0  0  0
  197.2260  175.5700  141.2330 C   0  0  0  0  0  1  0  0  0  0  0  0
  196.4820  175.9920  140.1330 O   0  0  0  0  0  0  0  0  0  0  0  0
  189.7560  172.1830  138.0830 C   0  0  0  0  0  2  0  0  0  0  0  0
  188.5480  172.8760  138.7120 C   0  0  0  0  0  2  0  0  0  0  0  0
  188.8820  174.2330  139.3250 C   0  0  0  0  0  2  0  0  0  0  0  0
  189.1210  174.7770  141.7310 C   0  0  0  0  0  0  0  0  0  0  0  0
  186.3680  175.1990  142.6050 O   0  0  0  0  0  0  0  0  0  0  0  0
  188.6630  174.9960  143.0510 N   0  0  0  0  0  0  0  0  0  0  0  0
  190.7540  175.6840  143.0610 C   0  0  2  0  0  3  0  0  0  0  0  0
  188.3600  174.3520  140.7230 C   0  0  0  0  0  3  0  0  0  0  0  0
  189.6960  175.2470  143.8990 O   0  0  0  0  0  0  0  0  0  0  0  0
  190.5350  175.1430  141.6480 C   0  0  0  0  0  2  0  0  0  0  0  0
  187.3420  175.4700  143.3600 C   0  0  0  0  0  0  0  0  0  0  0  0
  185.8120  176.8290  144.5880 O   0  0  0  0  0  0  0  0  0  0  0  0
  188.1160  177.5000  144.5330 C   0  0  0  0  0  2  0  0  0  0  0  0
  186.2790  178.7420  147.6130 C   0  0  2  0  0  3  0  0  0  0  0  0
  186.5210  178.6260  146.1330 C   0  0  1  0  0  3  0  0  0  0  0  0
  187.3760  179.2630  148.3070 O   0  0  0  0  0  1  0  0  0  0  0  0
  187.1320  176.3400  144.5570 C   0  0  2  0  0  3  0  0  0  0  0  0
  187.9850  178.2420  145.8490 C   0  0  0  0  0  2  0  0  0  0  0  0
  185.9890  177.3120  148.0400 C   0  0  0  0  0  2  0  0  0  0  0  0
  185.5780  177.4650  145.8320 C   0  0  2  0  0  3  0  0  0  0  0  0
  185.5960  176.5600  146.9110 O   0  0  0  0  0  0  0  0  0  0  0  0
  191.9670  175.2030  143.5570 O   0  0  0  0  0  0  0  0  0  0  0  0
  192.9160  175.9340  142.9240 N   0  0  0  0  0  2  0  0  0  0  0  0
  194.1800  175.6240  143.5730 C   0  0  0  0  0  2  0  0  0  0  0  0
  193.5510  174.1410  145.4930 C   0  0  0  0  0  2  0  0  0  0  0  0
  194.9310  174.6290  145.8960 C   0  0  0  0  0  2  0  0  0  0  0  0
  194.0110  175.5240  145.0880 C   0  0  0  0  0  0  0  0  0  0  0  0
  193.2350  176.6060  145.8270 C   0  0  0  0  0  2  0  0  0  0  0  0
  192.6160  176.0670  147.1130 C   0  0  0  0  0  2  0  0  0  0  0  0
  191.1350  176.4170  147.2060 C   0  0  0  0  0  2  0  0  0  0  0  0
  190.3210  175.2470  147.7380 C   0  0  0  0  0  2  0  0  0  0  0  0
  189.2350  174.9360  146.8230 N   0  0  0  0  0  1  0  0  0  0  0  0
  1  4  1  0  0  0  0
  2  1  1  0  0  0  0
  3  2  2  0  0  0  0
  4  5  1  0  0  0  0
  5  6  1  0  0  0  0
  6  7  1  0  0  0  0
  7  8  1  0  0  0  0
  9 10  1  0  0  0  0
  9  8  1  0  0  0  0
 10 11  1  0  0  0  0
 11 12  1  0  0  0  0
 13 12  1  0  0  0  0
 14 13  1  0  0  0  0
 15 14  1  0  0  0  0
 16 20  1  6  0  0  0
 16 15  1  0  0  0  0
 17 16  1  0  0  0  0
 18 17  1  0  0  0  0
 19 18  1  0  0  0  0
 21 20  1  0  0  0  0
 22 31  1  6  0  0  0
 22 21  1  0  0  0  0
 23 22  1  0  0  0  0
 24 26  1  0  0  0  0
 25 28  1  0  0  0  0
 25 24  1  0  0  0  0
 26 30  1  0  0  0  0
 27 30  1  0  0  0  0
 28 29  1  0  0  0  0
 29 27  1  0  0  0  0
 30 23  1  1  0  0  0
 31 32  1  0  0  0  0
 32 33  1  0  0  0  0
 33 35  1  0  0  0  0
 35 34  1  0  0  0  0
 36 37  1  0  0  0  0
 36  1  1  0  0  0  0
 37 38  1  0  0  0  0
 38 43  1  0  0  0  0
 39 41  1  0  0  0  0
 40 46  2  0  0  0  0
 41 46  1  0  0  0  0
 41 44  1  0  0  0  0
 42 57  1  1  0  0  0
 42 44  1  0  0  0  0
 43 39  2  0  0  0  0
 45 39  1  0  0  0  0
 45 42  1  0  0  0  0
 48 52  1  0  0  0  0
 48 53  1  0  0  0  0
 49 54  1  0  0  0  0
 49 51  1  1  0  0  0
 50 53  1  1  0  0  0
 50 49  1  0  0  0  0
 52 46  1  6  0  0  0
 52 47  1  0  0  0  0
 55 47  1  6  0  0  0
 55 50  1  0  0  0  0
 55 56  1  0  0  0  0
 56 54  1  0  0  0  0
 58 57  1  0  0  0  0
 58 59  1  0  0  0  0
 59 62  1  0  0  0  0
 60 61  1  0  0  0  0
 62 60  1  0  0  0  0
 62 63  1  0  0  0  0
 62 61  1  0  0  0  0
 63 64  1  0  0  0  0
 64 65  1  0  0  0  0
 65 66  1  0  0  0  0
 67 66  1  0  0  0  0
M  END
>  <MODEL>
1

>  <REMARK>
 VINA RESULT:      -3.7      0.000      0.000
  Name = 
  37 active torsions:
  status: ('A' for Active; 'I' for Inactive)
    1  A    between atoms: C_1  and  C_15
    2  A    between atoms: C_1  and  C_36
    3  A    between atoms: N_7  and  C_11
    4  A    between atoms: N_7  and  O_32
    5  A    between atoms: C_8  and  C_19
    6  A    between atoms: C_10  and  O_64
    7  A    between atoms: C_11  and  C_37
    8  A    between atoms: O_13  and  C_57
    9  A    between atoms: O_13  and  C_61
   10  A    between atoms: C_14  and  O_42
   11  A    between atoms: C_14  and  C_44
   12  A    between atoms: C_15  and  C_31
   13  A    between atoms: C_17  and  C_53
   14  A    between atoms: C_17  and  C_54
   15  A    between atoms: C_19  and  C_36
   16  A    between atoms: C_21  and  C_30
   17  A    between atoms: C_21  and  O_50
   18  A    between atoms: O_23  and  C_24
   19  A    between atoms: O_23  and  N_63
   20  A    between atoms: C_26  and  C_33
   21  A    between atoms: C_27  and  O_32
   22  A    between atoms: C_27  and  C_57
   23  A    between atoms: C_29  and  C_35
   24  A    between atoms: C_29  and  O_42
   25  A    between atoms: C_30  and  C_41
   26  A    between atoms: C_31  and  N_63
   27  A    between atoms: C_33  and  C_37
   28  A    between atoms: C_35  and  O_52
   29  A    between atoms: O_38  and  C_39
   30  A    between atoms: O_38  and  C_56
   31  A    between atoms: C_39  and  C_41
   32  A    between atoms: C_39  and  C_54
   33  A    between atoms: C_44  and  C_53
   34  A    between atoms: C_46  and  O_52
   35  A    between atoms: C_46  and  C_61
   36  A    between atoms: C_53  and  O_64
   37  A    between atoms: C_55  and  C_65
                            x       y       z     vdW  Elec       q    Type
                         _______ _______ _______ _____ _____    ______ ____

>  <TORSDO>
F 37

$$$$
=
 OpenBabel11062422473D

 67 71  0  0  1  0  0  0  0  0999 V2000
  190.7330  172.3050  139.3840 N   0  0  0  0  0  0  0  0  0  0  0  0
  191.7420  173.3210  139.3310 C   0  0  0  0  0  3  0  0  0  0  0  0
  191.6580  174.3070  138.4970 N   0  0  0  0  0  2  0  0  0  0  0  0
  190.8590  171.2980  140.2870 O   0  0  0  0  0  0  0  0  0  0  0  0
  190.6370  171.8860  141.5370 C   0  0  0  0  0  2  0  0  0  0  0  0
  190.3190  170.8110  142.5600 C   0  0  0  0  0  2  0  0  0  0  0  0
  190.6190  171.2780  143.8470 O   0  0  0  0  0  0  0  0  0  0  0  0
  191.9600  170.9380  144.0550 C   0  0  0  0  0  2  0  0  0  0  0  0
  192.5830  170.4500  142.7580 C   0  0  0  0  0  2  0  0  0  0  0  0
  193.7110  169.6780  143.0400 O   0  0  0  0  0  0  0  0  0  0  0  0
  194.7840  170.5680  142.9540 C   0  0  0  0  0  2  0  0  0  0  0  0
  196.0580  169.8170  142.6010 C   0  0  0  0  0  2  0  0  0  0  0  0
  195.7610  168.5050  142.2310 O   0  0  0  0  0  0  0  0  0  0  0  0
  196.2730  168.3630  140.9380 C   0  0  0  0  0  2  0  0  0  0  0  0
  195.1680  168.5190  139.9000 C   0  0  0  0  0  2  0  0  0  0  0  0
  195.2060  169.8860  139.2010 C   0  0  2  0  0  3  0  0  0  0  0  0
  194.1350  170.0550  138.2930 O   0  0  0  0  0  0  0  0  0  0  0  0
  194.5960  169.8290  136.9840 C   0  0  0  0  0  2  0  0  0  0  0  0
  194.1740  168.4470  136.5270 C   0  0  0  0  0  1  0  0  0  0  0  0
  196.5800  170.1960  138.5950 C   0  0  0  0  0  2  0  0  0  0  0  0
  197.1630  171.4870  139.1570 C   0  0  0  0  0  2  0  0  0  0  0  0
  196.5330  172.7130  138.5020 C   0  0  2  0  0  3  0  0  0  0  0  0
  196.4280  172.5120  137.1120 O   0  0  0  0  0  0  0  0  0  0  0  0
  194.4670  175.4620  135.7950 C   0  0  0  0  0  2  0  0  0  0  0  0
  195.0850  175.6220  134.5460 O   0  0  0  0  0  0  0  0  0  0  0  0
  194.6790  174.0380  136.3050 C   0  0  0  0  0  2  0  0  0  0  0  0
  196.8630  173.8570  135.2560 O   0  0  0  0  0  0  0  0  0  0  0  0
  196.3360  176.2060  134.8080 C   0  0  0  0  0  2  0  0  0  0  0  0
  197.3890  175.1580  135.2260 C   0  0  0  0  0  2  0  0  0  0  0  0
  196.1750  173.7480  136.4780 C   0  0  2  0  0  3  0  0  0  0  0  0
  197.3020  174.0090  138.7850 C   0  0  0  0  0  2  0  0  0  0  0  0
  197.6380  174.1790  140.2610 C   0  0  0  0  0  2  0  0  0  0  0  0
  196.3960  174.5660  141.0360 C   0  0  0  0  0  2  0  0  0  0  0  0
  196.2860  176.7050  141.5710 C   0  0  0  0  0  1  0  0  0  0  0  0
  195.9280  175.7990  140.5760 O   0  0  0  0  0  0  0  0  0  0  0  0
  189.6430  172.2660  138.4100 C   0  0  0  0  0  2  0  0  0  0  0  0
  188.4400  173.0820  138.8810 C   0  0  0  0  0  2  0  0  0  0  0  0
  188.8230  174.4380  139.4670 C   0  0  0  0  0  2  0  0  0  0  0  0
  188.7200  174.8800  141.9030 C   0  0  0  0  0  0  0  0  0  0  0  0
  186.1170  176.1570  142.2490 O   0  0  0  0  0  0  0  0  0  0  0  0
  188.0920  175.2350  143.1200 N   0  0  0  0  0  0  0  0  0  0  0  0
  190.2440  175.2210  143.5830 C   0  0  2  0  0  3  0  0  0  0  0  0
  188.0880  174.7180  140.7410 C   0  0  0  0  0  3  0  0  0  0  0  0
  188.9540  175.1450  144.1680 O   0  0  0  0  0  0  0  0  0  0  0  0
  190.1620  174.7770  142.1220 C   0  0  0  0  0  2  0  0  0  0  0  0
  186.9500  176.1050  143.1950 C   0  0  0  0  0  0  0  0  0  0  0  0
  186.4680  176.2420  145.5280 O   0  0  0  0  0  0  0  0  0  0  0  0
  185.6820  178.0140  144.1130 C   0  0  0  0  0  2  0  0  0  0  0  0
  186.2150  179.1080  147.7070 C   0  0  2  0  0  3  0  0  0  0  0  0
  185.5870  178.2780  146.6210 C   0  0  1  0  0  3  0  0  0  0  0  0
  186.0110  180.4810  147.5340 O   0  0  0  0  0  1  0  0  0  0  0  0
  186.7800  176.9970  144.3810 C   0  0  2  0  0  3  0  0  0  0  0  0
  185.6750  179.0010  145.2650 C   0  0  0  0  0  2  0  0  0  0  0  0
  187.6910  178.7580  147.6140 C   0  0  0  0  0  2  0  0  0  0  0  0
  186.5270  177.0790  146.6700 C   0  0  2  0  0  3  0  0  0  0  0  0
  187.8360  177.5240  146.9420 O   0  0  0  0  0  0  0  0  0  0  0  0
  191.1170  174.3800  144.2730 O   0  0  0  0  0  0  0  0  0  0  0  0
  192.3510  174.7180  143.8270 N   0  0  0  0  0  2  0  0  0  0  0  0
  192.7450  175.9110  144.5600 C   0  0  0  0  0  2  0  0  0  0  0  0
  192.6310  176.4040  147.0150 C   0  0  0  0  0  2  0  0  0  0  0  0
  192.3650  174.9100  146.9690 C   0  0  0  0  0  2  0  0  0  0  0  0
  193.2810  175.5550  145.9460 C   0  0  0  0  0  0  0  0  0  0  0  0
  194.7840  175.4450  146.1610 C   0  0  0  0  0  2  0  0  0  0  0  0
  195.2580  173.9990  146.0560 C   0  0  0  0  0  2  0  0  0  0  0  0
  195.6860  173.6560  144.6330 C   0  0  0  0  0  2  0  0  0  0  0  0
  197.1770  173.8810  144.4340 C   0  0  0  0  0  2  0  0  0  0  0  0
  197.9270  173.2430  145.5050 N   0  0  0  0  0  1  0  0  0  0  0  0
  1  4  1  0  0  0  0
  2  1  1  0  0  0  0
  3  2  2  0  0  0  0
  4  5  1  0  0  0  0
  5  6  1  0  0  0  0
  6  7  1  0  0  0  0
  7  8  1  0  0  0  0
  9 10  1  0  0  0  0
  9  8  1  0  0  0  0
 11 10  1  0  0  0  0
 12 11  1  0  0  0  0
 13 12  1  0  0  0  0
 14 13  1  0  0  0  0
 15 14  1  0  0  0  0
 16 20  1  6  0  0  0
 16 15  1  0  0  0  0
 17 16  1  0  0  0  0
 18 17  1  0  0  0  0
 19 18  1  0  0  0  0
 20 21  1  0  0  0  0
 22 31  1  6  0  0  0
 22 21  1  0  0  0  0
 23 22  1  0  0  0  0
 24 26  1  0  0  0  0
 25 28  1  0  0  0  0
 25 24  1  0  0  0  0
 26 30  1  0  0  0  0
 27 30  1  0  0  0  0
 28 29  1  0  0  0  0
 29 27  1  0  0  0  0
 30 23  1  6  0  0  0
 31 32  1  0  0  0  0
 32 33  1  0  0  0  0
 35 33  1  0  0  0  0
 35 34  1  0  0  0  0
 36 37  1  0  0  0  0
 36  1  1  0  0  0  0
 37 38  1  0  0  0  0
 38 43  1  0  0  0  0
 39 45  1  0  0  0  0
 39 41  1  0  0  0  0
 40 46  2  0  0  0  0
 41 46  1  0  0  0  0
 41 44  1  0  0  0  0
 42 44  1  0  0  0  0
 42 57  1  1  0  0  0
 43 39  2  0  0  0  0
 45 42  1  0  0  0  0
 48 52  1  0  0  0  0
 48 53  1  0  0  0  0
 49 51  1  6  0  0  0
 50 53  1  6  0  0  0
 50 55  1  0  0  0  0
 50 49  1  0  0  0  0
 52 46  1  6  0  0  0
 52 47  1  0  0  0  0
 54 49  1  0  0  0  0
 55 47  1  6  0  0  0
 55 56  1  0  0  0  0
 56 54  1  0  0  0  0
 58 57  1  0  0  0  0
 58 59  1  0  0  0  0
 59 62  1  0  0  0  0
 61 60  1  0  0  0  0
 62 63  1  0  0  0  0
 62 61  1  0  0  0  0
 62 60  1  0  0  0  0
 64 63  1  0  0  0  0
 65 64  1  0  0  0  0
 66 65  1  0  0  0  0
 66 67  1  0  0  0  0
M  END
>  <MODEL>
2

>  <REMARK>
 VINA RESULT:      -3.2      1.768      2.690
  Name = 
  37 active torsions:
  status: ('A' for Active; 'I' for Inactive)
    1  A    between atoms: C_1  and  C_15
    2  A    between atoms: C_1  and  C_36
    3  A    between atoms: N_7  and  C_11
    4  A    between atoms: N_7  and  O_32
    5  A    between atoms: C_8  and  C_19
    6  A    between atoms: C_10  and  O_64
    7  A    between atoms: C_11  and  C_37
    8  A    between atoms: O_13  and  C_57
    9  A    between atoms: O_13  and  C_61
   10  A    between atoms: C_14  and  O_42
   11  A    between atoms: C_14  and  C_44
   12  A    between atoms: C_15  and  C_31
   13  A    between atoms: C_17  and  C_53
   14  A    between atoms: C_17  and  C_54
   15  A    between atoms: C_19  and  C_36
   16  A    between atoms: C_21  and  C_30
   17  A    between atoms: C_21  and  O_50
   18  A    between atoms: O_23  and  C_24
   19  A    between atoms: O_23  and  N_63
   20  A    between atoms: C_26  and  C_33
   21  A    between atoms: C_27  and  O_32
   22  A    between atoms: C_27  and  C_57
   23  A    between atoms: C_29  and  C_35
   24  A    between atoms: C_29  and  O_42
   25  A    between atoms: C_30  and  C_41
   26  A    between atoms: C_31  and  N_63
   27  A    between atoms: C_33  and  C_37
   28  A    between atoms: C_35  and  O_52
   29  A    between atoms: O_38  and  C_39
   30  A    between atoms: O_38  and  C_56
   31  A    between atoms: C_39  and  C_41
   32  A    between atoms: C_39  and  C_54
   33  A    between atoms: C_44  and  C_53
   34  A    between atoms: C_46  and  O_52
   35  A    between atoms: C_46  and  C_61
   36  A    between atoms: C_53  and  O_64
   37  A    between atoms: C_55  and  C_65
                            x       y       z     vdW  Elec       q    Type
                         _______ _______ _______ _____ _____    ______ ____

>  <TORSDO>
F 37

$$$$
=
 OpenBabel11062422473D

 67 71  0  0  1  0  0  0  0  0999 V2000
  187.0340  176.4560  141.4850 N   0  0  0  0  0  0  0  0  0  0  0  0
  187.0620  175.1900  142.1540 C   0  0  0  0  0  3  0  0  0  0  0  0
  188.1340  174.7640  142.7420 N   0  0  0  0  0  2  0  0  0  0  0  0
  185.8810  176.8650  140.8950 O   0  0  0  0  0  0  0  0  0  0  0  0
  186.2690  177.4760  139.6980 C   0  0  0  0  0  2  0  0  0  0  0  0
  186.1260  176.4930  138.5510 C   0  0  0  0  0  2  0  0  0  0  0  0
  187.3820  176.2410  137.9830 O   0  0  0  0  0  0  0  0  0  0  0  0
  187.7700  174.9990  138.4940 C   0  0  0  0  0  2  0  0  0  0  0  0
  188.0310  174.0230  137.3590 C   0  0  0  0  0  2  0  0  0  0  0  0
  188.7760  174.6520  136.3600 O   0  0  0  0  0  0  0  0  0  0  0  0
  190.0930  174.2440  136.5860 C   0  0  0  0  0  2  0  0  0  0  0  0
  190.2580  173.7900  138.0280 C   0  0  0  0  0  2  0  0  0  0  0  0
  191.5980  173.8650  138.4100 O   0  0  0  0  0  0  0  0  0  0  0  0
  191.6190  173.4760  139.7530 C   0  0  0  0  0  2  0  0  0  0  0  0
  190.7870  172.2160  139.9630 C   0  0  0  0  0  2  0  0  0  0  0  0
  191.6480  170.9460  140.0230 C   0  0  2  0  0  3  0  0  0  0  0  0
  190.8970  169.8050  140.3880 O   0  0  0  0  0  0  0  0  0  0  0  0
  190.6230  169.0420  139.2380 C   0  0  0  0  0  2  0  0  0  0  0  0
  190.7030  169.9260  138.0100 C   0  0  0  0  0  1  0  0  0  0  0  0
  192.9190  171.1380  140.8610 C   0  0  0  0  0  2  0  0  0  0  0  0
  194.0350  170.2040  140.4090 C   0  0  0  0  0  2  0  0  0  0  0  0
  195.4070  170.7430  140.8090 C   0  0  2  0  0  3  0  0  0  0  0  0
  196.2600  170.7550  139.6880 O   0  0  0  0  0  0  0  0  0  0  0  0
  196.0890  173.2720  136.8750 C   0  0  0  0  0  2  0  0  0  0  0  0
  196.9580  174.2530  137.3770 O   0  0  0  0  0  0  0  0  0  0  0  0
  196.3850  171.9260  137.5300 C   0  0  0  0  0  2  0  0  0  0  0  0
  197.0370  172.9540  139.6340 O   0  0  0  0  0  0  0  0  0  0  0  0
  196.2460  174.9130  138.3940 C   0  0  0  0  0  2  0  0  0  0  0  0
  196.2970  174.1420  139.7310 C   0  0  0  0  0  2  0  0  0  0  0  0
  196.1730  172.0110  139.0480 C   0  0  2  0  0  3  0  0  0  0  0  0
  196.0550  169.9510  141.9500 C   0  0  0  0  0  2  0  0  0  0  0  0
  195.3770  168.6080  142.1880 C   0  0  0  0  0  2  0  0  0  0  0  0
  195.5810  168.1680  143.6220 C   0  0  0  0  0  2  0  0  0  0  0  0
  193.4110  168.1800  144.0290 C   0  0  0  0  0  1  0  0  0  0  0  0
  194.6110  168.7620  144.4320 O   0  0  0  0  0  0  0  0  0  0  0  0
  188.2490  177.2550  141.3210 C   0  0  0  0  0  2  0  0  0  0  0  0
  188.9510  177.4880  142.6580 C   0  0  0  0  0  2  0  0  0  0  0  0
  190.1010  178.4880  142.5680 C   0  0  0  0  0  2  0  0  0  0  0  0
  191.3060  177.0960  144.2280 C   0  0  0  0  0  0  0  0  0  0  0  0
  193.9660  176.8050  143.0610 O   0  0  0  0  0  0  0  0  0  0  0  0
  192.4410  176.4930  144.8170 N   0  0  0  0  0  0  0  0  0  0  0  0
  190.7220  175.5440  145.8120 C   0  0  2  0  0  3  0  0  0  0  0  0
  191.3450  177.9590  143.2130 C   0  0  0  0  0  3  0  0  0  0  0  0
  192.1090  175.8070  145.9440 O   0  0  0  0  0  0  0  0  0  0  0  0
  190.0990  176.5780  144.8730 C   0  0  0  0  0  2  0  0  0  0  0  0
  193.6230  176.1420  144.0780 C   0  0  0  0  0  0  0  0  0  0  0  0
  195.7480  175.0570  144.0330 O   0  0  0  0  0  0  0  0  0  0  0  0
  193.7830  173.6840  143.9250 C   0  0  0  0  0  2  0  0  0  0  0  0
  196.7850  171.8720  145.3770 C   0  0  2  0  0  3  0  0  0  0  0  0
  196.0390  172.6160  144.3040 C   0  0  1  0  0  3  0  0  0  0  0  0
  196.1390  170.6980  145.7790 O   0  0  0  0  0  1  0  0  0  0  0  0
  194.4190  174.9460  144.4860 C   0  0  2  0  0  3  0  0  0  0  0  0
  194.5180  172.4950  144.5140 C   0  0  0  0  0  2  0  0  0  0  0  0
  196.8610  172.8730  146.5180 C   0  0  0  0  0  2  0  0  0  0  0  0
  196.5280  174.0270  144.6140 C   0  0  2  0  0  3  0  0  0  0  0  0
  196.6650  174.1760  146.0080 O   0  0  0  0  0  0  0  0  0  0  0  0
  190.1120  175.6310  147.0640 O   0  0  0  0  0  0  0  0  0  0  0  0
  188.7830  175.6680  146.8020 N   0  0  0  0  0  2  0  0  0  0  0  0
  188.1840  176.5250  147.8140 C   0  0  0  0  0  2  0  0  0  0  0  0
  185.9550  177.4800  148.4460 C   0  0  0  0  0  2  0  0  0  0  0  0
  186.5750  178.6050  147.6370 C   0  0  0  0  0  2  0  0  0  0  0  0
  186.8930  177.1600  147.3030 C   0  0  0  0  0  0  0  0  0  0  0  0
  186.1500  176.5140  146.1410 C   0  0  0  0  0  2  0  0  0  0  0  0
  186.5390  177.1490  144.8090 C   0  0  0  0  0  2  0  0  0  0  0  0
  185.3220  177.7100  144.0830 C   0  0  0  0  0  2  0  0  0  0  0  0
  185.5690  179.1310  143.6030 C   0  0  0  0  0  2  0  0  0  0  0  0
  185.1950  180.0820  144.6380 N   0  0  0  0  0  1  0  0  0  0  0  0
  1  2  1  0  0  0  0
  2  3  2  0  0  0  0
  4  1  1  0  0  0  0
  5  4  1  0  0  0  0
  6  5  1  0  0  0  0
  7  8  1  0  0  0  0
  7  6  1  0  0  0  0
  9  8  1  0  0  0  0
 10 11  1  0  0  0  0
 10  9  1  0  0  0  0
 11 12  1  0  0  0  0
 12 13  1  0  0  0  0
 13 14  1  0  0  0  0
 14 15  1  0  0  0  0
 16 15  1  1  0  0  0
 16 17  1  0  0  0  0
 16 20  1  0  0  0  0
 18 17  1  0  0  0  0
 19 18  1  0  0  0  0
 21 20  1  0  0  0  0
 22 21  1  6  0  0  0
 22 31  1  0  0  0  0
 23 22  1  0  0  0  0
 24 25  1  0  0  0  0
 24 26  1  0  0  0  0
 25 28  1  0  0  0  0
 26 30  1  0  0  0  0
 27 29  1  0  0  0  0
 28 29  1  0  0  0  0
 30 27  1  0  0  0  0
 30 23  1  1  0  0  0
 31 32  1  0  0  0  0
 32 33  1  0  0  0  0
 33 35  1  0  0  0  0
 34 35  1  0  0  0  0
 36  1  1  0  0  0  0
 36 37  1  0  0  0  0
 38 37  1  0  0  0  0
 38 43  1  0  0  0  0
 39 41  1  0  0  0  0
 39 45  1  0  0  0  0
 40 46  2  0  0  0  0
 41 44  1  0  0  0  0
 42 44  1  0  0  0  0
 42 57  1  1  0  0  0
 43 39  2  0  0  0  0
 45 42  1  0  0  0  0
 46 41  1  0  0  0  0
 47 52  1  0  0  0  0
 48 52  1  0  0  0  0
 48 53  1  0  0  0  0
 49 51  1  1  0  0  0
 49 54  1  0  0  0  0
 50 53  1  1  0  0  0
 50 55  1  0  0  0  0
 50 49  1  0  0  0  0
 52 46  1  6  0  0  0
 55 47  1  1  0  0  0
 55 56  1  0  0  0  0
 56 54  1  0  0  0  0
 58 57  1  0  0  0  0
 58 59  1  0  0  0  0
 61 60  1  0  0  0  0
 62 61  1  0  0  0  0
 62 59  1  0  0  0  0
 62 60  1  0  0  0  0
 63 62  1  0  0  0  0
 64 63  1  0  0  0  0
 65 64  1  0  0  0  0
 66 65  1  0  0  0  0
 66 67  1  0  0  0  0
M  END
>  <MODEL>
3

>  <REMARK>
 VINA RESULT:      -3.1      2.431      7.172
  Name = 
  37 active torsions:
  status: ('A' for Active; 'I' for Inactive)
    1  A    between atoms: C_1  and  C_15
    2  A    between atoms: C_1  and  C_36
    3  A    between atoms: N_7  and  C_11
    4  A    between atoms: N_7  and  O_32
    5  A    between atoms: C_8  and  C_19
    6  A    between atoms: C_10  and  O_64
    7  A    between atoms: C_11  and  C_37
    8  A    between atoms: O_13  and  C_57
    9  A    between atoms: O_13  and  C_61
   10  A    between atoms: C_14  and  O_42
   11  A    between atoms: C_14  and  C_44
   12  A    between atoms: C_15  and  C_31
   13  A    between atoms: C_17  and  C_53
   14  A    between atoms: C_17  and  C_54
   15  A    between atoms: C_19  and  C_36
   16  A    between atoms: C_21  and  C_30
   17  A    between atoms: C_21  and  O_50
   18  A    between atoms: O_23  and  C_24
   19  A    between atoms: O_23  and  N_63
   20  A    between atoms: C_26  and  C_33
   21  A    between atoms: C_27  and  O_32
   22  A    between atoms: C_27  and  C_57
   23  A    between atoms: C_29  and  C_35
   24  A    between atoms: C_29  and  O_42
   25  A    between atoms: C_30  and  C_41
   26  A    between atoms: C_31  and  N_63
   27  A    between atoms: C_33  and  C_37
   28  A    between atoms: C_35  and  O_52
   29  A    between atoms: O_38  and  C_39
   30  A    between atoms: O_38  and  C_56
   31  A    between atoms: C_39  and  C_41
   32  A    between atoms: C_39  and  C_54
   33  A    between atoms: C_44  and  C_53
   34  A    between atoms: C_46  and  O_52
   35  A    between atoms: C_46  and  C_61
   36  A    between atoms: C_53  and  O_64
   37  A    between atoms: C_55  and  C_65
                            x       y       z     vdW  Elec       q    Type
                         _______ _______ _______ _____ _____    ______ ____

>  <TORSDO>
F 37

$$$$
=
 OpenBabel11062422473D

 67 71  0  0  1  0  0  0  0  0999 V2000
  195.4650  175.7200  143.6510 N   0  0  0  0  0  0  0  0  0  0  0  0
  196.5900  176.5960  143.7850 C   0  0  0  0  0  3  0  0  0  0  0  0
  197.2590  176.9920  142.7490 N   0  0  0  0  0  2  0  0  0  0  0  0
  194.7870  175.3430  144.7670 O   0  0  0  0  0  0  0  0  0  0  0  0
  195.1150  173.9990  144.9690 C   0  0  0  0  0  2  0  0  0  0  0  0
  193.8650  173.1440  144.8700 C   0  0  0  0  0  2  0  0  0  0  0  0
  194.2200  171.7900  144.8060 O   0  0  0  0  0  0  0  0  0  0  0  0
  194.9460  171.6590  143.6190 C   0  0  0  0  0  2  0  0  0  0  0  0
  194.3750  170.5300  142.7770 C   0  0  0  0  0  2  0  0  0  0  0  0
  195.1860  170.3180  141.6610 O   0  0  0  0  0  0  0  0  0  0  0  0
  195.0640  168.9540  141.3850 C   0  0  0  0  0  2  0  0  0  0  0  0
  194.3280  168.7510  140.0710 C   0  0  0  0  0  2  0  0  0  0  0  0
  195.1910  168.9600  138.9940 O   0  0  0  0  0  0  0  0  0  0  0  0
  195.0610  170.3150  138.6760 C   0  0  0  0  0  2  0  0  0  0  0  0
  194.9000  170.5030  137.1720 C   0  0  0  0  0  2  0  0  0  0  0  0
  193.8800  169.5300  136.5640 C   0  0  2  0  0  3  0  0  0  0  0  0
  194.1030  169.3110  135.1850 O   0  0  0  0  0  0  0  0  0  0  0  0
  195.4750  169.4560  134.9080 C   0  0  0  0  0  2  0  0  0  0  0  0
  196.2070  168.1830  135.2840 C   0  0  0  0  0  1  0  0  0  0  0  0
  192.4330  169.9120  136.8990 C   0  0  0  0  0  2  0  0  0  0  0  0
  191.8210  170.7950  135.8170 C   0  0  0  0  0  2  0  0  0  0  0  0
  191.7910  172.2600  136.2470 C   0  0  2  0  0  3  0  0  0  0  0  0
  190.4580  172.7050  136.3330 O   0  0  0  0  0  0  0  0  0  0  0  0
  188.2760  172.7390  139.4180 C   0  0  0  0  0  2  0  0  0  0  0  0
  188.7480  173.9100  140.0320 O   0  0  0  0  0  0  0  0  0  0  0  0
  188.5860  172.7720  137.9240 C   0  0  0  0  0  2  0  0  0  0  0  0
  190.6460  174.0180  138.2520 O   0  0  0  0  0  0  0  0  0  0  0  0
  190.0020  173.5810  140.5740 C   0  0  0  0  0  2  0  0  0  0  0  0
  191.1260  173.6490  139.5170 C   0  0  0  0  0  2  0  0  0  0  0  0
  190.1000  172.8490  137.6910 C   0  0  2  0  0  3  0  0  0  0  0  0
  192.5880  173.1780  135.3120 C   0  0  0  0  0  2  0  0  0  0  0  0
  193.4070  174.2150  136.0700 C   0  0  0  0  0  2  0  0  0  0  0  0
  194.8830  173.8990  135.9530 C   0  0  0  0  0  2  0  0  0  0  0  0
  196.4640  173.3200  134.5250 C   0  0  0  0  0  1  0  0  0  0  0  0
  195.1080  173.1500  134.7970 O   0  0  0  0  0  0  0  0  0  0  0  0
  195.1110  175.1300  142.3600 C   0  0  0  0  0  2  0  0  0  0  0  0
  193.8730  175.7930  141.7610 C   0  0  0  0  0  2  0  0  0  0  0  0
  193.0400  176.5560  142.7880 C   0  0  0  0  0  2  0  0  0  0  0  0
  190.6190  176.1140  143.0840 C   0  0  0  0  0  0  0  0  0  0  0  0
  189.3520  178.1720  141.4470 O   0  0  0  0  0  0  0  0  0  0  0  0
  189.2420  176.2530  142.7930 N   0  0  0  0  0  0  0  0  0  0  0  0
  189.3050  175.1580  144.7020 C   0  0  2  0  0  3  0  0  0  0  0  0
  191.6050  176.6570  142.3710 C   0  0  0  0  0  3  0  0  0  0  0  0
  188.4850  175.4410  143.5790 O   0  0  0  0  0  0  0  0  0  0  0  0
  190.7730  175.3340  144.3130 C   0  0  0  0  0  2  0  0  0  0  0  0
  188.6720  177.4400  142.2180 C   0  0  0  0  0  0  0  0  0  0  0  0
  186.7900  177.0310  143.6270 O   0  0  0  0  0  0  0  0  0  0  0  0
  186.3720  177.7280  141.3690 C   0  0  0  0  0  2  0  0  0  0  0  0
  183.5580  178.6330  143.7490 C   0  0  2  0  0  3  0  0  0  0  0  0
  184.4770  177.6800  143.0360 C   0  0  1  0  0  3  0  0  0  0  0  0
  182.7960  179.4150  142.8740 O   0  0  0  0  0  1  0  0  0  0  0  0
  187.2800  177.8410  142.5830 C   0  0  2  0  0  3  0  0  0  0  0  0
  185.0240  178.3150  141.7440 C   0  0  0  0  0  2  0  0  0  0  0  0
  184.5040  179.4940  144.5690 C   0  0  0  0  0  2  0  0  0  0  0  0
  185.5660  177.5660  144.0980 C   0  0  2  0  0  3  0  0  0  0  0  0
  185.7320  178.8150  144.7290 O   0  0  0  0  0  0  0  0  0  0  0  0
  189.0900  173.8410  145.1120 O   0  0  0  0  0  0  0  0  0  0  0  0
  189.7080  173.7460  146.3140 N   0  0  0  0  0  2  0  0  0  0  0  0
  189.3450  174.9400  147.0630 C   0  0  0  0  0  2  0  0  0  0  0  0
  191.3430  175.2870  148.5360 C   0  0  0  0  0  2  0  0  0  0  0  0
  191.9630  175.2370  147.1510 C   0  0  0  0  0  2  0  0  0  0  0  0
  190.5710  175.8070  147.3440 C   0  0  0  0  0  0  0  0  0  0  0  0
  190.4190  177.3210  147.3980 C   0  0  0  0  0  2  0  0  0  0  0  0
  189.0560  177.7250  147.9520 C   0  0  0  0  0  2  0  0  0  0  0  0
  187.9880  177.7130  146.8650 C   0  0  0  0  0  2  0  0  0  0  0  0
  186.6940  177.0890  147.3660 C   0  0  0  0  0  2  0  0  0  0  0  0
  185.9030  178.0820  148.0750 N   0  0  0  0  0  1  0  0  0  0  0  0
  1  2  1  0  0  0  0
  1  4  1  0  0  0  0
  3  2  2  0  0  0  0
  4  5  1  0  0  0  0
  6  5  1  0  0  0  0
  7  6  1  0  0  0  0
  8  7  1  0  0  0  0
  9  8  1  0  0  0  0
 10  9  1  0  0  0  0
 11 10  1  0  0  0  0
 12 11  1  0  0  0  0
 13 12  1  0  0  0  0
 14 13  1  0  0  0  0
 15 14  1  0  0  0  0
 16 20  1  6  0  0  0
 16 15  1  0  0  0  0
 17 16  1  0  0  0  0
 18 17  1  0  0  0  0
 18 19  1  0  0  0  0
 21 22  1  0  0  0  0
 21 20  1  0  0  0  0
 22 31  1  6  0  0  0
 22 23  1  0  0  0  0
 24 25  1  0  0  0  0
 25 28  1  0  0  0  0
 26 24  1  0  0  0  0
 27 29  1  0  0  0  0
 29 28  1  0  0  0  0
 30 23  1  6  0  0  0
 30 26  1  0  0  0  0
 30 27  1  0  0  0  0
 31 32  1  0  0  0  0
 33 32  1  0  0  0  0
 34 35  1  0  0  0  0
 35 33  1  0  0  0  0
 36  1  1  0  0  0  0
 37 36  1  0  0  0  0
 37 38  1  0  0  0  0
 39 45  1  0  0  0  0
 40 46  2  0  0  0  0
 41 39  1  0  0  0  0
 41 44  1  0  0  0  0
 42 57  1  6  0  0  0
 43 38  1  0  0  0  0
 43 39  2  0  0  0  0
 44 42  1  0  0  0  0
 45 42  1  0  0  0  0
 46 41  1  0  0  0  0
 48 53  1  0  0  0  0
 48 52  1  0  0  0  0
 49 51  1  6  0  0  0
 49 54  1  0  0  0  0
 50 53  1  6  0  0  0
 50 49  1  0  0  0  0
 50 55  1  0  0  0  0
 52 46  1  6  0  0  0
 52 47  1  0  0  0  0
 54 56  1  0  0  0  0
 55 47  1  6  0  0  0
 55 56  1  0  0  0  0
 57 58  1  0  0  0  0
 58 59  1  0  0  0  0
 59 62  1  0  0  0  0
 61 62  1  0  0  0  0
 61 60  1  0  0  0  0
 62 63  1  0  0  0  0
 62 60  1  0  0  0  0
 63 64  1  0  0  0  0
 65 66  1  0  0  0  0
 65 64  1  0  0  0  0
 66 67  1  0  0  0  0
M  END
>  <MODEL>
4

>  <REMARK>
 VINA RESULT:      -2.9      2.371      5.273
  Name = 
  37 active torsions:
  status: ('A' for Active; 'I' for Inactive)
    1  A    between atoms: C_1  and  C_15
    2  A    between atoms: C_1  and  C_36
    3  A    between atoms: N_7  and  C_11
    4  A    between atoms: N_7  and  O_32
    5  A    between atoms: C_8  and  C_19
    6  A    between atoms: C_10  and  O_64
    7  A    between atoms: C_11  and  C_37
    8  A    between atoms: O_13  and  C_57
    9  A    between atoms: O_13  and  C_61
   10  A    between atoms: C_14  and  O_42
   11  A    between atoms: C_14  and  C_44
   12  A    between atoms: C_15  and  C_31
   13  A    between atoms: C_17  and  C_53
   14  A    between atoms: C_17  and  C_54
   15  A    between atoms: C_19  and  C_36
   16  A    between atoms: C_21  and  C_30
   17  A    between atoms: C_21  and  O_50
   18  A    between atoms: O_23  and  C_24
   19  A    between atoms: O_23  and  N_63
   20  A    between atoms: C_26  and  C_33
   21  A    between atoms: C_27  and  O_32
   22  A    between atoms: C_27  and  C_57
   23  A    between atoms: C_29  and  C_35
   24  A    between atoms: C_29  and  O_42
   25  A    between atoms: C_30  and  C_41
   26  A    between atoms: C_31  and  N_63
   27  A    between atoms: C_33  and  C_37
   28  A    between atoms: C_35  and  O_52
   29  A    between atoms: O_38  and  C_39
   30  A    between atoms: O_38  and  C_56
   31  A    between atoms: C_39  and  C_41
   32  A    between atoms: C_39  and  C_54
   33  A    between atoms: C_44  and  C_53
   34  A    between atoms: C_46  and  O_52
   35  A    between atoms: C_46  and  C_61
   36  A    between atoms: C_53  and  O_64
   37  A    between atoms: C_55  and  C_65
                            x       y       z     vdW  Elec       q    Type
                         _______ _______ _______ _____ _____    ______ ____

>  <TORSDO>
F 37

$$$$
=
 OpenBabel11062422473D

 67 71  0  0  1  0  0  0  0  0999 V2000
  191.4960  170.8030  139.1940 N   0  0  0  0  0  0  0  0  0  0  0  0
  192.1680  171.5600  140.2070 C   0  0  0  0  0  3  0  0  0  0  0  0
  192.2890  172.8460  140.1160 N   0  0  0  0  0  2  0  0  0  0  0  0
  191.3840  169.4570  139.3430 O   0  0  0  0  0  0  0  0  0  0  0  0
  191.6370  168.9190  138.0770 C   0  0  0  0  0  2  0  0  0  0  0  0
  192.9810  168.2130  138.0790 C   0  0  0  0  0  2  0  0  0  0  0  0
  193.7300  168.6160  136.9660 O   0  0  0  0  0  0  0  0  0  0  0  0
  192.7930  169.1200  136.0580 C   0  0  0  0  0  2  0  0  0  0  0  0
  193.4620  169.4150  134.7260 C   0  0  0  0  0  2  0  0  0  0  0  0
  194.8480  169.4170  134.8850 O   0  0  0  0  0  0  0  0  0  0  0  0
  195.1350  168.2130  135.5330 C   0  0  0  0  0  2  0  0  0  0  0  0
  196.5860  168.1980  135.9880 C   0  0  0  0  0  2  0  0  0  0  0  0
  196.8270  169.2510  136.8720 O   0  0  0  0  0  0  0  0  0  0  0  0
  196.7190  170.4120  136.1000 C   0  0  0  0  0  2  0  0  0  0  0  0
  196.1210  171.5500  136.9180 C   0  0  0  0  0  2  0  0  0  0  0  0
  196.1820  171.2830  138.4290 C   0  0  2  0  0  3  0  0  0  0  0  0
  195.6840  170.0040  138.7690 O   0  0  0  0  0  0  0  0  0  0  0  0
  195.5900  169.8980  140.1680 C   0  0  0  0  0  2  0  0  0  0  0  0
  196.9760  169.9470  140.7770 C   0  0  0  0  0  1  0  0  0  0  0  0
  195.5640  172.4200  139.2510 C   0  0  0  0  0  2  0  0  0  0  0  0
  196.5730  173.5310  139.5190 C   0  0  0  0  0  2  0  0  0  0  0  0
  195.9900  174.9030  139.1880 C   0  0  2  0  0  3  0  0  0  0  0  0
  196.3470  175.2700  137.8760 O   0  0  0  0  0  0  0  0  0  0  0  0
  192.6830  175.1490  136.9570 C   0  0  0  0  0  2  0  0  0  0  0  0
  192.7830  174.6970  135.6320 O   0  0  0  0  0  0  0  0  0  0  0  0
  193.9430  174.7750  137.7330 C   0  0  0  0  0  2  0  0  0  0  0  0
  195.3650  175.0030  135.7760 O   0  0  0  0  0  0  0  0  0  0  0  0
  193.2280  175.7990  134.8830 C   0  0  0  0  0  2  0  0  0  0  0  0
  194.7590  175.9770  134.9670 C   0  0  0  0  0  2  0  0  0  0  0  0
  195.1770  175.4340  137.1020 C   0  0  2  0  0  3  0  0  0  0  0  0
  196.4260  175.9960  140.1710 C   0  0  0  0  0  2  0  0  0  0  0  0
  196.6140  175.4650  141.5870 C   0  0  0  0  0  2  0  0  0  0  0  0
  195.8020  176.2900  142.5630 C   0  0  0  0  0  2  0  0  0  0  0  0
  196.9140  175.1570  144.0970 C   0  0  0  0  0  1  0  0  0  0  0  0
  196.5220  176.4480  143.7490 O   0  0  0  0  0  0  0  0  0  0  0  0
  191.0400  171.4310  137.9540 C   0  0  0  0  0  2  0  0  0  0  0  0
  189.7290  172.1880  138.1580 C   0  0  0  0  0  2  0  0  0  0  0  0
  189.9260  173.6810  138.4040 C   0  0  0  0  0  2  0  0  0  0  0  0
  188.7540  174.1860  140.5280 C   0  0  0  0  0  0  0  0  0  0  0  0
  187.0020  176.4110  139.8210 O   0  0  0  0  0  0  0  0  0  0  0  0
  187.7680  174.7930  141.3390 N   0  0  0  0  0  0  0  0  0  0  0  0
  189.2050  173.9250  142.7620 C   0  0  2  0  0  3  0  0  0  0  0  0
  188.7990  174.2640  139.1990 C   0  0  0  0  0  3  0  0  0  0  0  0
  187.8710  174.3890  142.6340 O   0  0  0  0  0  0  0  0  0  0  0  0
  189.7320  173.5160  141.3860 C   0  0  0  0  0  2  0  0  0  0  0  0
  187.1480  176.0510  141.0220 C   0  0  0  0  0  0  0  0  0  0  0  0
  185.8560  176.3010  143.0120 O   0  0  0  0  0  0  0  0  0  0  0  0
  186.0440  178.1950  141.5500 C   0  0  0  0  0  2  0  0  0  0  0  0
  185.3850  179.1640  145.1590 C   0  0  2  0  0  3  0  0  0  0  0  0
  185.0610  178.4860  143.8560 C   0  0  1  0  0  3  0  0  0  0  0  0
  185.5450  180.5480  145.0300 O   0  0  0  0  0  1  0  0  0  0  0  0
  186.7270  176.9650  142.1260 C   0  0  2  0  0  3  0  0  0  0  0  0
  185.8020  179.1650  142.6900 C   0  0  0  0  0  2  0  0  0  0  0  0
  186.6810  178.5000  145.5940 C   0  0  0  0  0  2  0  0  0  0  0  0
  185.6480  177.1110  144.1560 C   0  0  2  0  0  3  0  0  0  0  0  0
  186.8160  177.2620  144.9290 O   0  0  0  0  0  0  0  0  0  0  0  0
  189.2330  172.8210  143.6140 O   0  0  0  0  0  0  0  0  0  0  0  0
  190.5360  172.6750  143.9530 N   0  0  0  0  0  2  0  0  0  0  0  0
  190.8320  173.7170  144.9240 C   0  0  0  0  0  2  0  0  0  0  0  0
  192.9710  175.0140  144.7710 C   0  0  0  0  0  2  0  0  0  0  0  0
  192.8490  174.7580  146.2630 C   0  0  0  0  0  2  0  0  0  0  0  0
  192.3190  173.7420  145.2690 C   0  0  0  0  0  0  0  0  0  0  0  0
  193.1790  172.5230  144.9650 C   0  0  0  0  0  2  0  0  0  0  0  0
  194.5990  172.6970  145.4930 C   0  0  0  0  0  2  0  0  0  0  0  0
  195.4600  171.4760  145.1880 C   0  0  0  0  0  2  0  0  0  0  0  0
  194.9050  170.2260  145.8520 C   0  0  0  0  0  2  0  0  0  0  0  0
  195.8800  169.6810  146.7850 N   0  0  0  0  0  1  0  0  0  0  0  0
  1  4  1  0  0  0  0
  1  2  1  0  0  0  0
  3  2  2  0  0  0  0
  5  6  1  0  0  0  0
  5  4  1  0  0  0  0
  7  6  1  0  0  0  0
  8  7  1  0  0  0  0
  9 10  1  0  0  0  0
  9  8  1  0  0  0  0
 10 11  1  0  0  0  0
 11 12  1  0  0  0  0
 12 13  1  0  0  0  0
 14 13  1  0  0  0  0
 14 15  1  0  0  0  0
 16 15  1  6  0  0  0
 16 17  1  0  0  0  0
 16 20  1  0  0  0  0
 17 18  1  0  0  0  0
 18 19  1  0  0  0  0
 20 21  1  0  0  0  0
 22 21  1  1  0  0  0
 22 31  1  0  0  0  0
 23 22  1  0  0  0  0
 24 26  1  0  0  0  0
 25 24  1  0  0  0  0
 27 30  1  0  0  0  0
 28 29  1  0  0  0  0
 28 25  1  0  0  0  0
 29 27  1  0  0  0  0
 30 26  1  0  0  0  0
 30 23  1  1  0  0  0
 31 32  1  0  0  0  0
 32 33  1  0  0  0  0
 33 35  1  0  0  0  0
 35 34  1  0  0  0  0
 36 37  1  0  0  0  0
 36  1  1  0  0  0  0
 37 38  1  0  0  0  0
 38 43  1  0  0  0  0
 39 41  1  0  0  0  0
 39 45  1  0  0  0  0
 40 46  2  0  0  0  0
 41 44  1  0  0  0  0
 42 57  1  1  0  0  0
 43 39  2  0  0  0  0
 44 42  1  0  0  0  0
 45 42  1  0  0  0  0
 46 41  1  0  0  0  0
 48 52  1  0  0  0  0
 48 53  1  0  0  0  0
 49 51  1  6  0  0  0
 49 54  1  0  0  0  0
 50 53  1  6  0  0  0
 50 55  1  0  0  0  0
 50 49  1  0  0  0  0
 52 46  1  6  0  0  0
 52 47  1  0  0  0  0
 55 47  1  6  0  0  0
 55 56  1  0  0  0  0
 56 54  1  0  0  0  0
 57 58  1  0  0  0  0
 58 59  1  0  0  0  0
 59 62  1  0  0  0  0
 60 62  1  0  0  0  0
 60 61  1  0  0  0  0
 62 61  1  0  0  0  0
 63 62  1  0  0  0  0
 63 64  1  0  0  0  0
 65 64  1  0  0  0  0
 65 66  1  0  0  0  0
 66 67  1  0  0  0  0
M  END
>  <MODEL>
5

>  <REMARK>
 VINA RESULT:      -2.2      2.321      4.549
  Name = 
  37 active torsions:
  status: ('A' for Active; 'I' for Inactive)
    1  A    between atoms: C_1  and  C_15
    2  A    between atoms: C_1  and  C_36
    3  A    between atoms: N_7  and  C_11
    4  A    between atoms: N_7  and  O_32
    5  A    between atoms: C_8  and  C_19
    6  A    between atoms: C_10  and  O_64
    7  A    between atoms: C_11  and  C_37
    8  A    between atoms: O_13  and  C_57
    9  A    between atoms: O_13  and  C_61
   10  A    between atoms: C_14  and  O_42
   11  A    between atoms: C_14  and  C_44
   12  A    between atoms: C_15  and  C_31
   13  A    between atoms: C_17  and  C_53
   14  A    between atoms: C_17  and  C_54
   15  A    between atoms: C_19  and  C_36
   16  A    between atoms: C_21  and  C_30
   17  A    between atoms: C_21  and  O_50
   18  A    between atoms: O_23  and  C_24
   19  A    between atoms: O_23  and  N_63
   20  A    between atoms: C_26  and  C_33
   21  A    between atoms: C_27  and  O_32
   22  A    between atoms: C_27  and  C_57
   23  A    between atoms: C_29  and  C_35
   24  A    between atoms: C_29  and  O_42
   25  A    between atoms: C_30  and  C_41
   26  A    between atoms: C_31  and  N_63
   27  A    between atoms: C_33  and  C_37
   28  A    between atoms: C_35  and  O_52
   29  A    between atoms: O_38  and  C_39
   30  A    between atoms: O_38  and  C_56
   31  A    between atoms: C_39  and  C_41
   32  A    between atoms: C_39  and  C_54
   33  A    between atoms: C_44  and  C_53
   34  A    between atoms: C_46  and  O_52
   35  A    between atoms: C_46  and  C_61
   36  A    between atoms: C_53  and  O_64
   37  A    between atoms: C_55  and  C_65
                            x       y       z     vdW  Elec       q    Type
                         _______ _______ _______ _____ _____    ______ ____

>  <TORSDO>
F 37

$$$$
=
 OpenBabel11062422473D

 67 71  0  0  1  0  0  0  0  0999 V2000
  190.8360  172.3930  139.4220 N   0  0  0  0  0  0  0  0  0  0  0  0
  191.8210  173.4280  139.5150 C   0  0  0  0  0  3  0  0  0  0  0  0
  191.6990  174.5330  138.8510 N   0  0  0  0  0  2  0  0  0  0  0  0
  191.0030  171.2570  140.1490 O   0  0  0  0  0  0  0  0  0  0  0  0
  190.7120  171.6120  141.4700 C   0  0  0  0  0  2  0  0  0  0  0  0
  190.4000  170.3670  142.2790 C   0  0  0  0  0  2  0  0  0  0  0  0
  190.8510  170.5320  143.5960 O   0  0  0  0  0  0  0  0  0  0  0  0
  192.2250  170.2800  143.5450 C   0  0  0  0  0  2  0  0  0  0  0  0
  192.5740  169.5350  142.2670 C   0  0  0  0  0  2  0  0  0  0  0  0
  193.9460  169.2790  142.2310 O   0  0  0  0  0  0  0  0  0  0  0  0
  194.4670  170.2470  141.3690 C   0  0  0  0  0  2  0  0  0  0  0  0
  195.6040  169.6580  140.5490 C   0  0  0  0  0  2  0  0  0  0  0  0
  195.3910  168.2960  140.3330 O   0  0  0  0  0  0  0  0  0  0  0  0
  195.2180  168.1660  138.9520 C   0  0  0  0  0  2  0  0  0  0  0  0
  193.7900  168.5170  138.5510 C   0  0  0  0  0  2  0  0  0  0  0  0
  193.6620  169.9560  138.0310 C   0  0  2  0  0  3  0  0  0  0  0  0
  192.5040  170.1400  137.2410 O   0  0  0  0  0  0  0  0  0  0  0  0
  192.5340  169.2450  136.1560 C   0  0  0  0  0  2  0  0  0  0  0  0
  192.2560  169.9960  134.8700 C   0  0  0  0  0  1  0  0  0  0  0  0
  194.9480  170.4530  137.3610 C   0  0  0  0  0  2  0  0  0  0  0  0
  195.5400  171.6480  138.0990 C   0  0  0  0  0  2  0  0  0  0  0  0
  195.1830  172.9620  137.4080 C   0  0  2  0  0  3  0  0  0  0  0  0
  195.0970  172.7610  136.0160 O   0  0  0  0  0  0  0  0  0  0  0  0
  193.5230  175.8970  134.6130 C   0  0  0  0  0  2  0  0  0  0  0  0
  192.3000  175.8800  135.3010 O   0  0  0  0  0  0  0  0  0  0  0  0
  194.5600  175.0710  135.3690 C   0  0  0  0  0  2  0  0  0  0  0  0
  192.8930  173.5060  136.1920 O   0  0  0  0  0  0  0  0  0  0  0  0
  191.5290  174.8760  134.6890 C   0  0  0  0  0  2  0  0  0  0  0  0
  191.8810  173.4700  135.2210 C   0  0  0  0  0  2  0  0  0  0  0  0
  194.1030  173.6100  135.4830 C   0  0  2  0  0  3  0  0  0  0  0  0
  196.1760  174.0900  137.7110 C   0  0  0  0  0  2  0  0  0  0  0  0
  195.9400  174.7240  139.0760 C   0  0  0  0  0  2  0  0  0  0  0  0
  197.1790  174.5870  139.9350 C   0  0  0  0  0  2  0  0  0  0  0  0
  195.9550  173.7380  141.5640 C   0  0  0  0  0  1  0  0  0  0  0  0
  196.8390  174.7760  141.2750 O   0  0  0  0  0  0  0  0  0  0  0  0
  189.7270  172.4830  138.4730 C   0  0  0  0  0  2  0  0  0  0  0  0
  188.6160  173.3940  138.9940 C   0  0  0  0  0  2  0  0  0  0  0  0
  189.1380  174.5970  139.7730 C   0  0  0  0  0  2  0  0  0  0  0  0
  188.8300  174.9110  142.2120 C   0  0  0  0  0  0  0  0  0  0  0  0
  186.3280  176.4050  142.3910 O   0  0  0  0  0  0  0  0  0  0  0  0
  188.1170  175.2560  143.3840 N   0  0  0  0  0  0  0  0  0  0  0  0
  190.2020  175.0160  144.0470 C   0  0  2  0  0  3  0  0  0  0  0  0
  188.3060  174.8740  140.9870 C   0  0  0  0  0  3  0  0  0  0  0  0
  188.8590  175.0280  144.5010 O   0  0  0  0  0  0  0  0  0  0  0  0
  190.2290  174.6620  142.5590 C   0  0  0  0  0  2  0  0  0  0  0  0
  187.0540  176.2230  143.4060 C   0  0  0  0  0  0  0  0  0  0  0  0
  186.0940  176.3560  145.5870 O   0  0  0  0  0  0  0  0  0  0  0  0
  186.1330  178.3510  144.2530 C   0  0  0  0  0  2  0  0  0  0  0  0
  186.0760  179.0560  147.9810 C   0  0  2  0  0  3  0  0  0  0  0  0
  185.5280  178.4920  146.7000 C   0  0  1  0  0  3  0  0  0  0  0  0
  186.2720  180.4410  147.9290 O   0  0  0  0  0  1  0  0  0  0  0  0
  186.8450  177.0600  144.6260 C   0  0  2  0  0  3  0  0  0  0  0  0
  186.1090  179.2370  145.4840 C   0  0  0  0  0  2  0  0  0  0  0  0
  187.3950  178.3230  148.1590 C   0  0  0  0  0  2  0  0  0  0  0  0
  186.0960  177.0800  146.8050 C   0  0  2  0  0  3  0  0  0  0  0  0
  187.3750  177.1360  147.3950 O   0  0  0  0  0  0  0  0  0  0  0  0
  190.9250  174.0600  144.7620 O   0  0  0  0  0  0  0  0  0  0  0  0
  191.4350  174.7310  145.8230 N   0  0  0  0  0  2  0  0  0  0  0  0
  191.9700  175.9810  145.3060 C   0  0  0  0  0  2  0  0  0  0  0  0
  193.8380  177.6430  145.4790 C   0  0  0  0  0  2  0  0  0  0  0  0
  193.5290  177.3460  146.9350 C   0  0  0  0  0  2  0  0  0  0  0  0
  193.3550  176.2670  145.8830 C   0  0  0  0  0  0  0  0  0  0  0  0
  194.4570  175.2260  145.7370 C   0  0  0  0  0  2  0  0  0  0  0  0
  194.0660  174.1380  144.7420 C   0  0  0  0  0  2  0  0  0  0  0  0
  194.1560  172.7520  145.3710 C   0  0  0  0  0  2  0  0  0  0  0  0
  195.4360  172.0400  144.9630 C   0  0  0  0  0  2  0  0  0  0  0  0
  196.5040  173.0070  144.7640 N   0  0  0  0  0  1  0  0  0  0  0  0
  1  2  1  0  0  0  0
  1  4  1  0  0  0  0
  3  2  2  0  0  0  0
  4  5  1  0  0  0  0
  5  6  1  0  0  0  0
  6  7  1  0  0  0  0
  8  7  1  0  0  0  0
  9  8  1  0  0  0  0
 10  9  1  0  0  0  0
 11 10  1  0  0  0  0
 12 11  1  0  0  0  0
 13 12  1  0  0  0  0
 14 13  1  0  0  0  0
 15 14  1  0  0  0  0
 16 20  1  6  0  0  0
 16 15  1  0  0  0  0
 17 16  1  0  0  0  0
 18 17  1  0  0  0  0
 19 18  1  0  0  0  0
 20 21  1  0  0  0  0
 22 31  1  6  0  0  0
 22 21  1  0  0  0  0
 23 22  1  0  0  0  0
 24 25  1  0  0  0  0
 24 26  1  0  0  0  0
 26 30  1  0  0  0  0
 28 29  1  0  0  0  0
 28 25  1  0  0  0  0
 29 27  1  0  0  0  0
 30 23  1  1  0  0  0
 30 27  1  0  0  0  0
 31 32  1  0  0  0  0
 32 33  1  0  0  0  0
 33 35  1  0  0  0  0
 35 34  1  0  0  0  0
 36 37  1  0  0  0  0
 36  1  1  0  0  0  0
 37 38  1  0  0  0  0
 38 43  1  0  0  0  0
 39 45  1  0  0  0  0
 39 41  1  0  0  0  0
 40 46  2  0  0  0  0
 41 46  1  0  0  0  0
 41 44  1  0  0  0  0
 42 44  1  0  0  0  0
 42 57  1  1  0  0  0
 43 39  2  0  0  0  0
 45 42  1  0  0  0  0
 48 52  1  0  0  0  0
 48 53  1  0  0  0  0
 49 51  1  6  0  0  0
 49 54  1  0  0  0  0
 50 53  1  6  0  0  0
 50 55  1  0  0  0  0
 50 49  1  0  0  0  0
 52 46  1  6  0  0  0
 52 47  1  0  0  0  0
 55 47  1  6  0  0  0
 55 56  1  0  0  0  0
 56 54  1  0  0  0  0
 57 58  1  0  0  0  0
 59 58  1  0  0  0  0
 59 62  1  0  0  0  0
 60 62  1  0  0  0  0
 60 61  1  0  0  0  0
 62 61  1  0  0  0  0
 63 62  1  0  0  0  0
 64 65  1  0  0  0  0
 64 63  1  0  0  0  0
 66 65  1  0  0  0  0
 67 66  1  0  0  0  0
M  END
>  <MODEL>
6

>  <REMARK>
 VINA RESULT:      -2.1      2.011      3.079
  Name = 
  37 active torsions:
  status: ('A' for Active; 'I' for Inactive)
    1  A    between atoms: C_1  and  C_15
    2  A    between atoms: C_1  and  C_36
    3  A    between atoms: N_7  and  C_11
    4  A    between atoms: N_7  and  O_32
    5  A    between atoms: C_8  and  C_19
    6  A    between atoms: C_10  and  O_64
    7  A    between atoms: C_11  and  C_37
    8  A    between atoms: O_13  and  C_57
    9  A    between atoms: O_13  and  C_61
   10  A    between atoms: C_14  and  O_42
   11  A    between atoms: C_14  and  C_44
   12  A    between atoms: C_15  and  C_31
   13  A    between atoms: C_17  and  C_53
   14  A    between atoms: C_17  and  C_54
   15  A    between atoms: C_19  and  C_36
   16  A    between atoms: C_21  and  C_30
   17  A    between atoms: C_21  and  O_50
   18  A    between atoms: O_23  and  C_24
   19  A    between atoms: O_23  and  N_63
   20  A    between atoms: C_26  and  C_33
   21  A    between atoms: C_27  and  O_32
   22  A    between atoms: C_27  and  C_57
   23  A    between atoms: C_29  and  C_35
   24  A    between atoms: C_29  and  O_42
   25  A    between atoms: C_30  and  C_41
   26  A    between atoms: C_31  and  N_63
   27  A    between atoms: C_33  and  C_37
   28  A    between atoms: C_35  and  O_52
   29  A    between atoms: O_38  and  C_39
   30  A    between atoms: O_38  and  C_56
   31  A    between atoms: C_39  and  C_41
   32  A    between atoms: C_39  and  C_54
   33  A    between atoms: C_44  and  C_53
   34  A    between atoms: C_46  and  O_52
   35  A    between atoms: C_46  and  C_61
   36  A    between atoms: C_53  and  O_64
   37  A    between atoms: C_55  and  C_65
                            x       y       z     vdW  Elec       q    Type
                         _______ _______ _______ _____ _____    ______ ____

>  <TORSDO>
F 37

$$$$
=
 OpenBabel11062422473D

 67 71  0  0  1  0  0  0  0  0999 V2000
  191.0020  171.3010  139.7100 N   0  0  0  0  0  0  0  0  0  0  0  0
  191.7060  171.9240  140.7900 C   0  0  0  0  0  3  0  0  0  0  0  0
  191.8160  173.2120  140.8670 N   0  0  0  0  0  2  0  0  0  0  0  0
  190.9020  169.9460  139.6820 O   0  0  0  0  0  0  0  0  0  0  0  0
  191.6480  169.5390  138.5710 C   0  0  0  0  0  2  0  0  0  0  0  0
  192.6060  168.4330  138.9730 C   0  0  0  0  0  2  0  0  0  0  0  0
  193.8810  168.6990  138.4570 O   0  0  0  0  0  0  0  0  0  0  0  0
  193.6570  169.4440  137.2960 C   0  0  0  0  0  2  0  0  0  0  0  0
  194.9150  169.4780  136.4450 C   0  0  0  0  0  2  0  0  0  0  0  0
  196.0390  169.5610  137.2690 O   0  0  0  0  0  0  0  0  0  0  0  0
  196.0360  168.3690  137.9980 C   0  0  0  0  0  2  0  0  0  0  0  0
  197.1540  168.3860  139.0290 C   0  0  0  0  0  2  0  0  0  0  0  0
  197.0080  169.4790  139.8830 O   0  0  0  0  0  0  0  0  0  0  0  0
  197.3970  170.5900  139.1270 C   0  0  0  0  0  2  0  0  0  0  0  0
  196.2550  171.5940  139.0190 C   0  0  0  0  0  2  0  0  0  0  0  0
  195.8650  172.1900  140.3790 C   0  0  2  0  0  3  0  0  0  0  0  0
  195.1650  171.2650  141.1890 O   0  0  0  0  0  0  0  0  0  0  0  0
  195.4180  171.5490  142.5430 C   0  0  0  0  0  2  0  0  0  0  0  0
  196.2400  170.4310  143.1520 C   0  0  0  0  0  1  0  0  0  0  0  0
  195.1600  173.5450  140.2450 C   0  0  0  0  0  2  0  0  0  0  0  0
  196.1610  174.6880  140.1250 C   0  0  0  0  0  2  0  0  0  0  0  0
  195.4990  175.9530  139.5820 C   0  0  2  0  0  3  0  0  0  0  0  0
  195.1870  176.8220  140.6460 O   0  0  0  0  0  0  0  0  0  0  0  0
  194.5540  174.7800  143.7630 C   0  0  0  0  0  2  0  0  0  0  0  0
  195.2480  175.5570  144.7030 O   0  0  0  0  0  0  0  0  0  0  0  0
  194.1860  175.6320  142.5500 C   0  0  0  0  0  2  0  0  0  0  0  0
  196.1900  176.9930  142.7450 O   0  0  0  0  0  0  0  0  0  0  0  0
  196.6120  175.3090  144.4730 C   0  0  0  0  0  2  0  0  0  0  0  0
  197.1690  176.1640  143.3140 C   0  0  0  0  0  2  0  0  0  0  0  0
  195.4520  176.1730  141.8720 C   0  0  2  0  0  3  0  0  0  0  0  0
  194.2400  175.6650  138.7570 C   0  0  0  0  0  2  0  0  0  0  0  0
  194.3330  176.2140  137.3390 C   0  0  0  0  0  2  0  0  0  0  0  0
  194.7020  175.1060  136.3750 C   0  0  0  0  0  2  0  0  0  0  0  0
  193.0010  173.7000  136.4340 C   0  0  0  0  0  1  0  0  0  0  0  0
  193.5670  174.7130  135.6630 O   0  0  0  0  0  0  0  0  0  0  0  0
  190.4970  172.0830  138.5810 C   0  0  0  0  0  2  0  0  0  0  0  0
  189.1640  172.7520  138.9130 C   0  0  0  0  0  2  0  0  0  0  0  0
  189.3030  174.2280  139.2740 C   0  0  0  0  0  2  0  0  0  0  0  0
  188.4550  174.4930  141.5870 C   0  0  0  0  0  0  0  0  0  0  0  0
  186.4230  176.5730  141.3280 O   0  0  0  0  0  0  0  0  0  0  0  0
  187.5650  174.9530  142.5850 N   0  0  0  0  0  0  0  0  0  0  0  0
  189.2860  174.1500  143.6970 C   0  0  2  0  0  3  0  0  0  0  0  0
  188.2750  174.6520  140.2760 C   0  0  0  0  0  3  0  0  0  0  0  0
  187.9140  174.4870  143.8150 O   0  0  0  0  0  0  0  0  0  0  0  0
  189.6150  173.8730  142.2300 C   0  0  0  0  0  2  0  0  0  0  0  0
  186.7950  176.1610  142.4610 C   0  0  0  0  0  0  0  0  0  0  0  0
  185.3730  176.4200  144.3610 O   0  0  0  0  0  0  0  0  0  0  0  0
  186.1980  178.4060  143.2940 C   0  0  0  0  0  2  0  0  0  0  0  0
  185.3670  178.9230  146.9610 C   0  0  2  0  0  3  0  0  0  0  0  0
  185.0450  178.5730  145.5340 C   0  0  1  0  0  3  0  0  0  0  0  0
  185.8780  180.2180  147.1040 O   0  0  0  0  0  1  0  0  0  0  0  0
  186.4820  176.9640  143.6810 C   0  0  2  0  0  3  0  0  0  0  0  0
  186.0670  179.2100  144.5740 C   0  0  0  0  0  2  0  0  0  0  0  0
  186.3970  177.8800  147.3610 C   0  0  0  0  0  2  0  0  0  0  0  0
  185.2340  177.0620  145.6160 C   0  0  2  0  0  3  0  0  0  0  0  0
  186.3010  176.7730  146.4890 O   0  0  0  0  0  0  0  0  0  0  0  0
  189.5490  173.0060  144.4520 O   0  0  0  0  0  0  0  0  0  0  0  0
  190.0280  173.4700  145.6320 N   0  0  0  0  0  2  0  0  0  0  0  0
  189.4800  174.8060  145.8050 C   0  0  0  0  0  2  0  0  0  0  0  0
  191.3960  175.7090  147.1450 C   0  0  0  0  0  2  0  0  0  0  0  0
  192.0430  175.4210  145.8020 C   0  0  0  0  0  2  0  0  0  0  0  0
  190.5910  175.8520  145.8730 C   0  0  0  0  0  0  0  0  0  0  0  0
  190.2630  177.3120  145.5850 C   0  0  0  0  0  2  0  0  0  0  0  0
  191.4470  178.0340  144.9500 C   0  0  0  0  0  2  0  0  0  0  0  0
  191.3110  178.0990  143.4330 C   0  0  0  0  0  2  0  0  0  0  0  0
  189.8530  178.0340  143.0040 C   0  0  0  0  0  2  0  0  0  0  0  0
  189.4390  179.3100  142.4420 N   0  0  0  0  0  1  0  0  0  0  0  0
  1  2  1  0  0  0  0
  2  3  2  0  0  0  0
  4  1  1  0  0  0  0
  5  6  1  0  0  0  0
  5  4  1  0  0  0  0
  7  6  1  0  0  0  0
  8  7  1  0  0  0  0
  9 10  1  0  0  0  0
  9  8  1  0  0  0  0
 10 11  1  0  0  0  0
 11 12  1  0  0  0  0
 12 13  1  0  0  0  0
 14 13  1  0  0  0  0
 15 14  1  0  0  0  0
 16 15  1  6  0  0  0
 16 17  1  0  0  0  0
 17 18  1  0  0  0  0
 18 19  1  0  0  0  0
 20 16  1  0  0  0  0
 21 20  1  0  0  0  0
 22 31  1  1  0  0  0
 22 21  1  0  0  0  0
 22 23  1  0  0  0  0
 24 25  1  0  0  0  0
 26 24  1  0  0  0  0
 27 29  1  0  0  0  0
 28 25  1  0  0  0  0
 29 28  1  0  0  0  0
 30 23  1  6  0  0  0
 30 26  1  0  0  0  0
 30 27  1  0  0  0  0
 32 31  1  0  0  0  0
 33 32  1  0  0  0  0
 35 33  1  0  0  0  0
 35 34  1  0  0  0  0
 36 37  1  0  0  0  0
 36  1  1  0  0  0  0
 37 38  1  0  0  0  0
 38 43  1  0  0  0  0
 39 45  1  0  0  0  0
 39 41  1  0  0  0  0
 40 46  2  0  0  0  0
 41 44  1  0  0  0  0
 42 44  1  0  0  0  0
 42 57  1  1  0  0  0
 43 39  2  0  0  0  0
 45 42  1  0  0  0  0
 46 41  1  0  0  0  0
 48 52  1  0  0  0  0
 48 53  1  0  0  0  0
 49 51  1  6  0  0  0
 49 54  1  0  0  0  0
 50 53  1  6  0  0  0
 50 55  1  0  0  0  0
 50 49  1  0  0  0  0
 52 46  1  6  0  0  0
 52 47  1  0  0  0  0
 55 47  1  6  0  0  0
 55 56  1  0  0  0  0
 56 54  1  0  0  0  0
 57 58  1  0  0  0  0
 58 59  1  0  0  0  0
 59 62  1  0  0  0  0
 61 62  1  0  0  0  0
 61 60  1  0  0  0  0
 62 60  1  0  0  0  0
 63 62  1  0  0  0  0
 64 63  1  0  0  0  0
 65 64  1  0  0  0  0
 66 65  1  0  0  0  0
 67 66  1  0  0  0  0
M  END
>  <MODEL>
7

>  <REMARK>
 VINA RESULT:      -1.1      1.971      4.799
  Name = 
  37 active torsions:
  status: ('A' for Active; 'I' for Inactive)
    1  A    between atoms: C_1  and  C_15
    2  A    between atoms: C_1  and  C_36
    3  A    between atoms: N_7  and  C_11
    4  A    between atoms: N_7  and  O_32
    5  A    between atoms: C_8  and  C_19
    6  A    between atoms: C_10  and  O_64
    7  A    between atoms: C_11  and  C_37
    8  A    between atoms: O_13  and  C_57
    9  A    between atoms: O_13  and  C_61
   10  A    between atoms: C_14  and  O_42
   11  A    between atoms: C_14  and  C_44
   12  A    between atoms: C_15  and  C_31
   13  A    between atoms: C_17  and  C_53
   14  A    between atoms: C_17  and  C_54
   15  A    between atoms: C_19  and  C_36
   16  A    between atoms: C_21  and  C_30
   17  A    between atoms: C_21  and  O_50
   18  A    between atoms: O_23  and  C_24
   19  A    between atoms: O_23  and  N_63
   20  A    between atoms: C_26  and  C_33
   21  A    between atoms: C_27  and  O_32
   22  A    between atoms: C_27  and  C_57
   23  A    between atoms: C_29  and  C_35
   24  A    between atoms: C_29  and  O_42
   25  A    between atoms: C_30  and  C_41
   26  A    between atoms: C_31  and  N_63
   27  A    between atoms: C_33  and  C_37
   28  A    between atoms: C_35  and  O_52
   29  A    between atoms: O_38  and  C_39
   30  A    between atoms: O_38  and  C_56
   31  A    between atoms: C_39  and  C_41
   32  A    between atoms: C_39  and  C_54
   33  A    between atoms: C_44  and  C_53
   34  A    between atoms: C_46  and  O_52
   35  A    between atoms: C_46  and  C_61
   36  A    between atoms: C_53  and  O_64
   37  A    between atoms: C_55  and  C_65
                            x       y       z     vdW  Elec       q    Type
                         _______ _______ _______ _____ _____    ______ ____

>  <TORSDO>
F 37

$$$$
=
 OpenBabel11062422473D

 67 71  0  0  1  0  0  0  0  0999 V2000
  191.0950  172.9780  140.3580 N   0  0  0  0  0  0  0  0  0  0  0  0
  189.6890  172.7700  140.1840 C   0  0  0  0  0  3  0  0  0  0  0  0
  189.2220  172.1890  139.1240 N   0  0  0  0  0  2  0  0  0  0  0  0
  191.5360  173.5790  141.4940 O   0  0  0  0  0  0  0  0  0  0  0  0
  190.9760  172.8480  142.5460 C   0  0  0  0  0  2  0  0  0  0  0  0
  191.9420  171.7650  142.9910 C   0  0  0  0  0  2  0  0  0  0  0  0
  191.8450  171.5830  144.3770 O   0  0  0  0  0  0  0  0  0  0  0  0
  193.0870  171.0710  144.7650 C   0  0  0  0  0  2  0  0  0  0  0  0
  193.8350  172.0910  145.6060 C   0  0  0  0  0  2  0  0  0  0  0  0
  194.4510  173.0270  144.7720 O   0  0  0  0  0  0  0  0  0  0  0  0
  193.4920  174.0260  144.5870 C   0  0  0  0  0  2  0  0  0  0  0  0
  194.1520  175.2920  144.0650 C   0  0  0  0  0  2  0  0  0  0  0  0
  194.5380  176.1110  145.1270 O   0  0  0  0  0  0  0  0  0  0  0  0
  193.4840  177.0150  145.2950 C   0  0  0  0  0  2  0  0  0  0  0  0
  192.1410  176.3020  145.1920 C   0  0  0  0  0  2  0  0  0  0  0  0
  190.9590  177.2250  145.5210 C   0  0  2  0  0  3  0  0  0  0  0  0
  190.7700  177.3820  146.9130 O   0  0  0  0  0  0  0  0  0  0  0  0
  190.1960  176.2100  147.4390 C   0  0  0  0  0  2  0  0  0  0  0  0
  191.2910  175.2720  147.9060 C   0  0  0  0  0  1  0  0  0  0  0  0
  189.6810  176.8320  144.7680 C   0  0  0  0  0  2  0  0  0  0  0  0
  189.5340  177.6110  143.4670 C   0  0  0  0  0  2  0  0  0  0  0  0
  188.0800  178.0040  143.2150 C   0  0  2  0  0  3  0  0  0  0  0  0
  187.2220  177.0190  143.7410 O   0  0  0  0  0  0  0  0  0  0  0  0
  185.5460  177.4700  147.0990 C   0  0  0  0  0  2  0  0  0  0  0  0
  184.2530  177.8160  146.6770 O   0  0  0  0  0  0  0  0  0  0  0  0
  186.2740  176.7150  145.9890 C   0  0  0  0  0  2  0  0  0  0  0  0
  185.1440  177.9590  144.2340 O   0  0  0  0  0  0  0  0  0  0  0  0
  184.3400  179.1430  146.2220 C   0  0  0  0  0  2  0  0  0  0  0  0
  184.8650  179.2250  144.7720 C   0  0  0  0  0  2  0  0  0  0  0  0
  186.4050  177.5960  144.7390 C   0  0  2  0  0  3  0  0  0  0  0  0
  187.7660  178.2310  141.7320 C   0  0  0  0  0  2  0  0  0  0  0  0
  186.4510  177.5890  141.3080 C   0  0  0  0  0  2  0  0  0  0  0  0
  185.3780  178.6480  141.1620 C   0  0  0  0  0  2  0  0  0  0  0  0
  183.5390  178.1250  140.0590 C   0  0  0  0  0  1  0  0  0  0  0  0
  184.1220  178.0610  141.3230 O   0  0  0  0  0  0  0  0  0  0  0  0
  192.0460  172.6690  139.2910 C   0  0  0  0  0  2  0  0  0  0  0  0
  191.3370  172.1590  138.0370 C   0  0  0  0  0  2  0  0  0  0  0  0
  191.3110  170.6360  137.9370 C   0  0  0  0  0  2  0  0  0  0  0  0
  193.3540  169.9000  139.1310 C   0  0  0  0  0  0  0  0  0  0  0  0
  192.4610  169.6310  141.8970 O   0  0  0  0  0  0  0  0  0  0  0  0
  194.0900  169.3890  140.2250 N   0  0  0  0  0  0  0  0  0  0  0  0
  195.6160  170.1170  138.8160 C   0  0  2  0  0  3  0  0  0  0  0  0
  192.0260  169.9940  139.0850 C   0  0  0  0  0  3  0  0  0  0  0  0
  195.4060  169.2450  139.9150 O   0  0  0  0  0  0  0  0  0  0  0  0
  194.2870  170.3540  138.0980 C   0  0  0  0  0  2  0  0  0  0  0  0
  193.6830  169.5480  141.5950 C   0  0  0  0  0  0  0  0  0  0  0  0
  196.0130  169.5660  142.1110 O   0  0  0  0  0  0  0  0  0  0  0  0
  194.5130  168.6000  143.7170 C   0  0  0  0  0  2  0  0  0  0  0  0
  197.7120  169.9210  145.2750 C   0  0  2  0  0  3  0  0  0  0  0  0
  196.9170  169.0390  144.3520 C   0  0  1  0  0  3  0  0  0  0  0  0
  197.3640  169.7590  146.6210 O   0  0  0  0  0  1  0  0  0  0  0  0
  194.7210  169.6750  142.6610 C   0  0  2  0  0  3  0  0  0  0  0  0
  195.4710  168.8840  144.8590 C   0  0  0  0  0  2  0  0  0  0  0  0
  197.3890  171.3250  144.7920 C   0  0  0  0  0  2  0  0  0  0  0  0
  196.9710  169.9040  143.0970 C   0  0  2  0  0  3  0  0  0  0  0  0
  196.9080  171.2620  143.4660 O   0  0  0  0  0  0  0  0  0  0  0  0
  196.5230  169.5360  137.9290 O   0  0  0  0  0  0  0  0  0  0  0  0
  197.3950  170.5260  137.6240 N   0  0  0  0  0  2  0  0  0  0  0  0
  196.8620  171.7450  138.2150 C   0  0  0  0  0  2  0  0  0  0  0  0
  197.3220  174.1290  137.5920 C   0  0  0  0  0  2  0  0  0  0  0  0
  197.8730  173.3670  136.4000 C   0  0  0  0  0  2  0  0  0  0  0  0
  196.6740  172.8320  137.1590 C   0  0  0  0  0  0  0  0  0  0  0  0
  195.2900  173.0720  136.5700 C   0  0  0  0  0  2  0  0  0  0  0  0
  195.3110  174.1950  135.5380 C   0  0  0  0  0  2  0  0  0  0  0  0
  193.9720  174.9220  135.4800 C   0  0  0  0  0  2  0  0  0  0  0  0
  193.7830  175.8310  136.6840 C   0  0  0  0  0  2  0  0  0  0  0  0
  193.0690  177.0370  136.2940 N   0  0  0  0  0  1  0  0  0  0  0  0
  1  4  1  0  0  0  0
  2  1  1  0  0  0  0
  3  2  2  0  0  0  0
  4  5  1  0  0  0  0
  5  6  1  0  0  0  0
  6  7  1  0  0  0  0
  7  8  1  0  0  0  0
  8  9  1  0  0  0  0
 10  9  1  0  0  0  0
 11 10  1  0  0  0  0
 12 11  1  0  0  0  0
 12 13  1  0  0  0  0
 13 14  1  0  0  0  0
 15 14  1  0  0  0  0
 15 16  1  0  0  0  0
 16 20  1  1  0  0  0
 16 17  1  0  0  0  0
 17 18  1  0  0  0  0
 18 19  1  0  0  0  0
 21 20  1  0  0  0  0
 22 31  1  6  0  0  0
 22 21  1  0  0  0  0
 22 23  1  0  0  0  0
 25 24  1  0  0  0  0
 26 24  1  0  0  0  0
 27 30  1  0  0  0  0
 27 29  1  0  0  0  0
 28 25  1  0  0  0  0
 29 28  1  0  0  0  0
 30 23  1  6  0  0  0
 30 26  1  0  0  0  0
 32 31  1  0  0  0  0
 33 32  1  0  0  0  0
 33 35  1  0  0  0  0
 34 35  1  0  0  0  0
 36  1  1  0  0  0  0
 37 36  1  0  0  0  0
 38 37  1  0  0  0  0
 38 43  1  0  0  0  0
 39 41  1  0  0  0  0
 41 46  1  0  0  0  0
 42 57  1  6  0  0  0
 42 44  1  0  0  0  0
 43 39  2  0  0  0  0
 44 41  1  0  0  0  0
 45 42  1  0  0  0  0
 45 39  1  0  0  0  0
 46 40  2  0  0  0  0
 47 52  1  0  0  0  0
 48 53  1  0  0  0  0
 49 51  1  1  0  0  0
 50 53  1  1  0  0  0
 50 49  1  0  0  0  0
 52 46  1  6  0  0  0
 52 48  1  0  0  0  0
 54 49  1  0  0  0  0
 55 47  1  6  0  0  0
 55 56  1  0  0  0  0
 55 50  1  0  0  0  0
 56 54  1  0  0  0  0
 58 57  1  0  0  0  0
 58 59  1  0  0  0  0
 61 62  1  0  0  0  0
 61 60  1  0  0  0  0
 62 60  1  0  0  0  0
 62 59  1  0  0  0  0
 63 62  1  0  0  0  0
 64 63  1  0  0  0  0
 65 64  1  0  0  0  0
 65 66  1  0  0  0  0
 67 66  1  0  0  0  0
M  END
>  <MODEL>
8

>  <REMARK>
 VINA RESULT:      -1.1      2.411     10.367
  Name = 
  37 active torsions:
  status: ('A' for Active; 'I' for Inactive)
    1  A    between atoms: C_1  and  C_15
    2  A    between atoms: C_1  and  C_36
    3  A    between atoms: N_7  and  C_11
    4  A    between atoms: N_7  and  O_32
    5  A    between atoms: C_8  and  C_19
    6  A    between atoms: C_10  and  O_64
    7  A    between atoms: C_11  and  C_37
    8  A    between atoms: O_13  and  C_57
    9  A    between atoms: O_13  and  C_61
   10  A    between atoms: C_14  and  O_42
   11  A    between atoms: C_14  and  C_44
   12  A    between atoms: C_15  and  C_31
   13  A    between atoms: C_17  and  C_53
   14  A    between atoms: C_17  and  C_54
   15  A    between atoms: C_19  and  C_36
   16  A    between atoms: C_21  and  C_30
   17  A    between atoms: C_21  and  O_50
   18  A    between atoms: O_23  and  C_24
   19  A    between atoms: O_23  and  N_63
   20  A    between atoms: C_26  and  C_33
   21  A    between atoms: C_27  and  O_32
   22  A    between atoms: C_27  and  C_57
   23  A    between atoms: C_29  and  C_35
   24  A    between atoms: C_29  and  O_42
   25  A    between atoms: C_30  and  C_41
   26  A    between atoms: C_31  and  N_63
   27  A    between atoms: C_33  and  C_37
   28  A    between atoms: C_35  and  O_52
   29  A    between atoms: O_38  and  C_39
   30  A    between atoms: O_38  and  C_56
   31  A    between atoms: C_39  and  C_41
   32  A    between atoms: C_39  and  C_54
   33  A    between atoms: C_44  and  C_53
   34  A    between atoms: C_46  and  O_52
   35  A    between atoms: C_46  and  C_61
   36  A    between atoms: C_53  and  O_64
   37  A    between atoms: C_55  and  C_65
                            x       y       z     vdW  Elec       q    Type
                         _______ _______ _______ _____ _____    ______ ____

>  <TORSDO>
F 37

$$$$
=
 OpenBabel11062422473D

 67 71  0  0  1  0  0  0  0  0999 V2000
  191.0950  172.9780  140.3580 N   0  0  0  0  0  0  0  0  0  0  0  0
  189.6860  172.8770  140.1190 C   0  0  0  0  0  3  0  0  0  0  0  0
  189.2270  172.3930  139.0090 N   0  0  0  0  0  2  0  0  0  0  0  0
  191.5280  173.4800  141.5440 O   0  0  0  0  0  0  0  0  0  0  0  0
  190.8570  172.7460  142.5280 C   0  0  0  0  0  2  0  0  0  0  0  0
  191.7480  171.6220  143.0250 C   0  0  0  0  0  2  0  0  0  0  0  0
  191.6450  171.5160  144.4190 O   0  0  0  0  0  0  0  0  0  0  0  0
  192.8500  170.9390  144.8310 C   0  0  0  0  0  2  0  0  0  0  0  0
  193.5960  171.8870  145.7540 C   0  0  0  0  0  2  0  0  0  0  0  0
  194.2760  172.8430  144.9970 O   0  0  0  0  0  0  0  0  0  0  0  0
  193.3630  173.8890  144.8410 C   0  0  0  0  0  2  0  0  0  0  0  0
  194.1030  175.2080  144.6820 C   0  0  0  0  0  2  0  0  0  0  0  0
  194.2730  175.8210  145.9240 O   0  0  0  0  0  0  0  0  0  0  0  0
  193.2250  176.7420  146.0250 C   0  0  0  0  0  2  0  0  0  0  0  0
  191.9090  176.1120  145.5830 C   0  0  0  0  0  2  0  0  0  0  0  0
  190.6930  176.9740  145.9480 C   0  0  2  0  0  3  0  0  0  0  0  0
  190.3250  176.8350  147.3060 O   0  0  0  0  0  0  0  0  0  0  0  0
  189.1490  177.5690  147.5470 C   0  0  0  0  0  2  0  0  0  0  0  0
  189.3640  178.5010  148.7230 C   0  0  0  0  0  1  0  0  0  0  0  0
  189.5250  176.7830  144.9730 C   0  0  0  0  0  2  0  0  0  0  0  0
  189.5850  177.7820  143.8230 C   0  0  0  0  0  2  0  0  0  0  0  0
  188.1880  178.2360  143.4060 C   0  0  2  0  0  3  0  0  0  0  0  0
  187.2770  177.1720  143.5520 O   0  0  0  0  0  0  0  0  0  0  0  0
  184.3570  179.3130  144.6320 C   0  0  0  0  0  2  0  0  0  0  0  0
  184.5730  179.3320  146.0180 O   0  0  0  0  0  0  0  0  0  0  0  0
  185.6580  178.9880  143.9040 C   0  0  0  0  0  2  0  0  0  0  0  0
  186.4470  177.5510  145.6990 O   0  0  0  0  0  0  0  0  0  0  0  0
  184.1850  178.0640  146.4850 C   0  0  0  0  0  2  0  0  0  0  0  0
  185.2980  177.0110  146.2970 C   0  0  0  0  0  2  0  0  0  0  0  0
  186.1730  177.6030  144.3200 C   0  0  2  0  0  3  0  0  0  0  0  0
  188.1330  178.7770  141.9730 C   0  0  0  0  0  2  0  0  0  0  0  0
  187.5550  177.7680  140.9890 C   0  0  0  0  0  2  0  0  0  0  0  0
  186.1140  178.1130  140.6760 C   0  0  0  0  0  2  0  0  0  0  0  0
  186.7080  176.4120  139.4000 C   0  0  0  0  0  1  0  0  0  0  0  0
  185.6450  177.2730  139.6650 O   0  0  0  0  0  0  0  0  0  0  0  0
  192.0670  172.6670  139.3100 C   0  0  0  0  0  2  0  0  0  0  0  0
  191.3790  172.2810  138.0020 C   0  0  0  0  0  2  0  0  0  0  0  0
  191.2560  170.7720  137.8080 C   0  0  0  0  0  2  0  0  0  0  0  0
  193.2620  170.0610  139.0780 C   0  0  0  0  0  0  0  0  0  0  0  0
  192.1680  169.2040  141.6450 O   0  0  0  0  0  0  0  0  0  0  0  0
  193.9560  169.4450  140.1450 N   0  0  0  0  0  0  0  0  0  0  0  0
  195.4970  170.5770  139.0540 C   0  0  2  0  0  3  0  0  0  0  0  0
  191.9420  170.0160  138.9040 C   0  0  0  0  0  3  0  0  0  0  0  0
  195.3030  169.5040  139.9610 O   0  0  0  0  0  0  0  0  0  0  0  0
  194.2170  170.7920  138.2450 C   0  0  0  0  0  2  0  0  0  0  0  0
  193.4130  169.3110  141.4690 C   0  0  0  0  0  0  0  0  0  0  0  0
  195.6540  169.0880  142.2580 O   0  0  0  0  0  0  0  0  0  0  0  0
  193.8780  168.3460  143.6930 C   0  0  0  0  0  2  0  0  0  0  0  0
  197.0030  169.3550  145.5950 C   0  0  2  0  0  3  0  0  0  0  0  0
  196.2260  168.5360  144.6010 C   0  0  1  0  0  3  0  0  0  0  0  0
  196.4850  169.2750  146.8920 O   0  0  0  0  0  1  0  0  0  0  0  0
  194.3270  169.3560  142.6490 C   0  0  2  0  0  3  0  0  0  0  0  0
  194.7230  168.5580  144.9350 C   0  0  0  0  0  2  0  0  0  0  0  0
  196.9000  170.7700  145.0500 C   0  0  0  0  0  2  0  0  0  0  0  0
  196.5230  169.3500  143.3450 C   0  0  2  0  0  3  0  0  0  0  0  0
  196.5720  170.7180  143.6780 O   0  0  0  0  0  0  0  0  0  0  0  0
  196.5450  170.2680  138.1860 O   0  0  0  0  0  0  0  0  0  0  0  0
  197.0620  171.4660  137.8230 N   0  0  0  0  0  2  0  0  0  0  0  0
  196.6970  172.4090  138.8690 C   0  0  0  0  0  2  0  0  0  0  0  0
  197.1850  173.9560  136.9580 C   0  0  0  0  0  2  0  0  0  0  0  0
  195.6700  174.0130  137.0460 C   0  0  0  0  0  2  0  0  0  0  0  0
  196.5010  173.8130  138.3000 C   0  0  0  0  0  0  0  0  0  0  0  0
  196.7600  175.0230  139.1870 C   0  0  0  0  0  2  0  0  0  0  0  0
  196.5410  174.6920  140.6600 C   0  0  0  0  0  2  0  0  0  0  0  0
  195.4730  175.5860  141.2790 C   0  0  0  0  0  2  0  0  0  0  0  0
  196.0960  176.7380  142.0530 C   0  0  0  0  0  2  0  0  0  0  0  0
  197.2860  176.2830  142.7540 N   0  0  0  0  0  1  0  0  0  0  0  0
  1  4  1  0  0  0  0
  2  1  1  0  0  0  0
  3  2  2  0  0  0  0
  4  5  1  0  0  0  0
  5  6  1  0  0  0  0
  6  7  1  0  0  0  0
  7  8  1  0  0  0  0
  8  9  1  0  0  0  0
 10  9  1  0  0  0  0
 11 10  1  0  0  0  0
 12 11  1  0  0  0  0
 12 13  1  0  0  0  0
 13 14  1  0  0  0  0
 15 16  1  0  0  0  0
 15 14  1  0  0  0  0
 16 20  1  6  0  0  0
 16 17  1  0  0  0  0
 17 18  1  0  0  0  0
 18 19  1  0  0  0  0
 21 20  1  0  0  0  0
 22 31  1  6  0  0  0
 22 23  1  0  0  0  0
 22 21  1  0  0  0  0
 24 25  1  0  0  0  0
 25 28  1  0  0  0  0
 26 30  1  0  0  0  0
 26 24  1  0  0  0  0
 27 29  1  0  0  0  0
 29 28  1  0  0  0  0
 30 23  1  6  0  0  0
 30 27  1  0  0  0  0
 32 31  1  0  0  0  0
 33 32  1  0  0  0  0
 34 35  1  0  0  0  0
 35 33  1  0  0  0  0
 36  1  1  0  0  0  0
 37 36  1  0  0  0  0
 38 37  1  0  0  0  0
 38 43  1  0  0  0  0
 39 41  1  0  0  0  0
 41 46  1  0  0  0  0
 42 57  1  6  0  0  0
 42 44  1  0  0  0  0
 43 39  2  0  0  0  0
 44 41  1  0  0  0  0
 45 42  1  0  0  0  0
 45 39  1  0  0  0  0
 46 40  2  0  0  0  0
 47 52  1  0  0  0  0
 48 53  1  0  0  0  0
 49 51  1  1  0  0  0
 50 53  1  1  0  0  0
 50 49  1  0  0  0  0
 52 46  1  6  0  0  0
 52 48  1  0  0  0  0
 54 49  1  0  0  0  0
 55 47  1  6  0  0  0
 55 56  1  0  0  0  0
 55 50  1  0  0  0  0
 56 54  1  0  0  0  0
 58 57  1  0  0  0  0
 58 59  1  0  0  0  0
 60 61  1  0  0  0  0
 60 62  1  0  0  0  0
 61 62  1  0  0  0  0
 62 59  1  0  0  0  0
 62 63  1  0  0  0  0
 63 64  1  0  0  0  0
 64 65  1  0  0  0  0
 65 66  1  0  0  0  0
 66 67  1  0  0  0  0
M  END
>  <MODEL>
9

>  <REMARK>
 VINA RESULT:      -1.1      2.345      9.998
  Name = 
  37 active torsions:
  status: ('A' for Active; 'I' for Inactive)
    1  A    between atoms: C_1  and  C_15
    2  A    between atoms: C_1  and  C_36
    3  A    between atoms: N_7  and  C_11
    4  A    between atoms: N_7  and  O_32
    5  A    between atoms: C_8  and  C_19
    6  A    between atoms: C_10  and  O_64
    7  A    between atoms: C_11  and  C_37
    8  A    between atoms: O_13  and  C_57
    9  A    between atoms: O_13  and  C_61
   10  A    between atoms: C_14  and  O_42
   11  A    between atoms: C_14  and  C_44
   12  A    between atoms: C_15  and  C_31
   13  A    between atoms: C_17  and  C_53
   14  A    between atoms: C_17  and  C_54
   15  A    between atoms: C_19  and  C_36
   16  A    between atoms: C_21  and  C_30
   17  A    between atoms: C_21  and  O_50
   18  A    between atoms: O_23  and  C_24
   19  A    between atoms: O_23  and  N_63
   20  A    between atoms: C_26  and  C_33
   21  A    between atoms: C_27  and  O_32
   22  A    between atoms: C_27  and  C_57
   23  A    between atoms: C_29  and  C_35
   24  A    between atoms: C_29  and  O_42
   25  A    between atoms: C_30  and  C_41
   26  A    between atoms: C_31  and  N_63
   27  A    between atoms: C_33  and  C_37
   28  A    between atoms: C_35  and  O_52
   29  A    between atoms: O_38  and  C_39
   30  A    between atoms: O_38  and  C_56
   31  A    between atoms: C_39  and  C_41
   32  A    between atoms: C_39  and  C_54
   33  A    between atoms: C_44  and  C_53
   34  A    between atoms: C_46  and  O_52
   35  A    between atoms: C_46  and  C_61
   36  A    between atoms: C_53  and  O_64
   37  A    between atoms: C_55  and  C_65
                            x       y       z     vdW  Elec       q    Type
                         _______ _______ _______ _____ _____    ______ ____

>  <TORSDO>
F 37

$$$$
