=
 OpenBabel11062420463D

 45 48  0  0  1  0  0  0  0  0999 V2000
  188.4220  175.1280  142.1000 C   0  0  0  0  0  3  0  0  0  0  0  0
  191.5700  174.0900  143.9130 C   0  0  0  0  0  0  0  0  0  0  0  0
  189.6360  177.1350  142.7140 C   0  0  0  0  0  0  0  0  0  0  0  0
  191.7640  176.8870  143.9990 C   0  0  0  0  0  3  0  0  0  0  0  0
  192.7470  176.0980  144.5930 C   0  0  0  0  0  3  0  0  0  0  0  0
  191.5320  171.4820  143.8040 C   0  0  0  0  0  3  0  0  0  0  0  0
  188.4540  176.4720  142.0920 C   0  0  0  0  0  0  0  0  0  0  0  0
  192.6520  174.7070  144.5460 C   0  0  0  0  0  3  0  0  0  0  0  0
  190.6700  176.2930  143.3580 C   0  0  0  0  0  0  0  0  0  0  0  0
  190.5590  174.8830  143.3140 C   0  0  0  0  0  0  0  0  0  0  0  0
  189.4950  174.3210  142.7120 C   0  0  0  0  0  3  0  0  0  0  0  0
  191.5480  172.7820  143.8710 C   0  0  0  0  0  0  0  0  0  0  0  0
  189.7830  178.3870  142.6800 O   0  0  0  0  0  0  0  0  0  0  0  0
  186.0150  177.5150  139.5820 O   0  0  0  0  0  0  0  0  0  0  0  0
  187.3640  177.2060  141.4830 N   0  0  0  0  0  0  0  0  0  0  0  0
  186.8970  176.8370  140.1740 C   0  0  0  0  0  3  0  0  0  0  0  0
  186.5430  178.5520  142.3040 S   0  0  0  0  0  0  0  0  0  0  0  0
  185.3760  177.4410  143.1360 C   0  0  0  0  0  2  0  0  0  0  0  0
  184.6400  178.2030  144.2260 C   0  0  2  0  0  3  0  0  0  0  0  0
  185.1400  179.6330  144.2620 C   0  0  0  0  0  1  0  0  0  0  0  0
  184.8700  177.5790  145.5230 N   0  0  0  0  0  2  0  0  0  0  0  0
  185.9900  176.7410  145.4010 N   0  0  0  0  0  2  0  0  0  0  0  0
  186.9940  177.2000  146.3500 C   0  0  1  0  0  3  0  0  0  0  0  0
  186.6600  178.8300  148.0870 O   0  0  0  0  0  1  0  0  0  0  0  0
  186.3640  177.5220  147.6970 C   0  0  0  0  0  2  0  0  0  0  0  0
  188.3860  176.0120  146.5170 S   0  0  0  0  0  0  0  0  0  0  0  0
  189.6460  177.2310  147.0180 C   0  0  0  0  0  2  0  0  0  0  0  0
  190.7950  176.5340  147.5620 N   0  0  0  0  0  1  0  0  0  0  0  0
  192.7640  170.7140  144.1380 C   0  0  0  0  0  2  0  0  0  0  0  0
  194.7940  170.4450  142.7570 C   0  0  0  0  0  2  0  0  0  0  0  0
  196.0330  170.0410  143.5440 C   0  0  0  0  0  2  0  0  0  0  0  0
  194.0030  171.4260  143.6090 C   0  0  2  0  0  3  0  0  0  0  0  0
  196.3050  172.5060  144.4780 C   0  0  1  0  0  0  0  0  0  0  0  0
  196.1740  170.9960  144.7230 C   0  0  1  0  0  0  0  0  0  0  0  0
  194.3880  172.0910  146.0170 O   0  0  0  0  0  1  0  0  0  0  0  0
  194.9320  171.8790  144.7420 C   0  0  2  0  0  0  0  0  0  0  0  0
  197.0100  173.5060  145.8340 S   0  0  0  0  0  1  0  0  0  0  0  0
  196.5550  170.4050  146.0790 C   0  0  0  0  0  2  0  0  0  0  0  0
  197.6750  169.5790  145.9440 O   0  0  0  0  0  1  0  0  0  0  0  0
  196.6060  172.9640  143.0540 C   0  0  0  0  0  2  0  0  0  0  0  0
  197.3290  174.1610  143.0820 O   0  0  0  0  0  0  0  0  0  0  0  0
  197.0760  175.8770  140.9250 O   0  0  0  0  0  0  0  0  0  0  0  0
  196.3320  175.3040  142.3280 P   0  0  0  0  0  0  0  0  0  0  0  0
  196.0240  176.6000  143.3740 O   0  0  0  0  0  1  0  0  0  0  0  0
  195.0230  174.6440  141.9560 O   0  0  0  0  0  1  0  0  0  0  0  0
  1 11  1  0  0  0  0
  2  8  1  0  0  0  0
  3  9  1  0  0  0  0
  4  5  1  0  0  0  0
  6 12  2  0  0  0  0
  6 29  1  0  0  0  0
  7  1  2  0  0  0  0
  7  3  1  0  0  0  0
  8  5  2  0  0  0  0
  9  4  2  0  0  0  0
 10  9  1  0  0  0  0
 10  2  1  0  0  0  0
 11 10  2  0  0  0  0
 12  2  2  0  0  0  0
 13  3  2  0  0  0  0
 14 16  2  0  0  0  0
 15  7  1  0  0  0  0
 15 17  1  0  0  0  0
 16 15  1  0  0  0  0
 17 18  1  0  0  0  0
 18 19  1  0  0  0  0
 19 20  1  1  0  0  0
 19 21  1  0  0  0  0
 22 21  1  0  0  0  0
 22 23  1  0  0  0  0
 23 26  1  0  0  0  0
 23 25  1  1  0  0  0
 25 24  1  0  0  0  0
 26 27  1  0  0  0  0
 27 28  1  0  0  0  0
 30 31  1  0  0  0  0
 30 32  1  0  0  0  0
 31 34  1  0  0  0  0
 32 29  1  1  0  0  0
 32 36  1  0  0  0  0
 33 34  1  0  0  0  0
 33 36  1  0  0  0  0
 33 37  1  1  0  0  0
 34 36  1  0  0  0  0
 34 38  1  1  0  0  0
 36 35  1  1  0  0  0
 39 38  1  0  0  0  0
 40 41  1  0  0  0  0
 40 33  1  0  0  0  0
 42 43  2  0  0  0  0
 43 41  1  0  0  0  0
 43 44  1  0  0  0  0
 45 43  1  0  0  0  0
M  END
>  <MODEL>
1

>  <REMARK>
 VINA RESULT:      -6.4      0.000      0.000
  Name = 
  16 active torsions:
  status: ('A' for Active; 'I' for Inactive)
    1  A    between atoms: S_5  and  C_9
    2  A    between atoms: S_5  and  C_35
    3  A    between atoms: C_6  and  C_14
    4  A    between atoms: C_6  and  S_28
    5  A    between atoms: C_8  and  C_27
    6  A    between atoms: P_11  and  O_16
    7  A    between atoms: C_14  and  N_40
    8  A    between atoms: O_16  and  C_20
    9  A    between atoms: N_19  and  C_26
   10  A    between atoms: N_19  and  S_28
   11  A    between atoms: C_20  and  C_25
   12  A    between atoms: C_21  and  C_37
   13  A    between atoms: C_22  and  C_37
   14  A    between atoms: C_23  and  C_35
   15  A    between atoms: N_24  and  C_35
   16  A    between atoms: N_24  and  N_40
                            x       y       z     vdW  Elec       q    Type
                         _______ _______ _______ _____ _____    ______ ____

>  <TORSDO>
F 16

$$$$
=
 OpenBabel11062420463D

 45 48  0  0  1  0  0  0  0  0999 V2000
  194.2630  171.9390  145.1710 C   0  0  0  0  0  3  0  0  0  0  0  0
  192.2980  175.0320  146.0920 C   0  0  0  0  0  0  0  0  0  0  0  0
  195.8380  173.7180  145.6520 C   0  0  0  0  0  0  0  0  0  0  0  0
  194.9370  175.9710  146.2450 C   0  0  0  0  0  3  0  0  0  0  0  0
  193.8720  176.8320  146.5000 C   0  0  0  0  0  3  0  0  0  0  0  0
  189.8130  174.2330  146.0710 C   0  0  0  0  0  3  0  0  0  0  0  0
  195.5510  172.3150  145.2360 C   0  0  0  0  0  0  0  0  0  0  0  0
  192.5590  176.3630  146.4270 C   0  0  0  0  0  3  0  0  0  0  0  0
  194.7020  174.6330  145.9070 C   0  0  0  0  0  0  0  0  0  0  0  0
  193.3740  174.1500  145.8200 C   0  0  0  0  0  0  0  0  0  0  0  0
  193.1580  172.8680  145.4760 C   0  0  0  0  0  3  0  0  0  0  0  0
  191.0500  174.6380  146.0700 C   0  0  0  0  0  0  0  0  0  0  0  0
  197.0190  174.1280  145.8140 O   0  0  0  0  0  0  0  0  0  0  0  0
  197.7160  169.3880  145.5340 O   0  0  0  0  0  0  0  0  0  0  0  0
  196.5890  171.3570  144.9140 N   0  0  0  0  0  0  0  0  0  0  0  0
  196.7630  170.1890  145.7350 C   0  0  0  0  0  3  0  0  0  0  0  0
  197.6620  171.5470  143.5100 S   0  0  0  0  0  0  0  0  0  0  0  0
  196.3540  171.0800  142.3430 C   0  0  0  0  0  2  0  0  0  0  0  0
  196.3250  172.0730  141.1910 C   0  0  2  0  0  3  0  0  0  0  0  0
  197.5140  173.0050  141.3030 C   0  0  0  0  0  1  0  0  0  0  0  0
  195.0950  172.8530  141.2280 N   0  0  0  0  0  2  0  0  0  0  0  0
  195.3300  173.9850  142.0260 N   0  0  0  0  0  2  0  0  0  0  0  0
  194.0670  174.6940  142.1740 C   0  0  1  0  0  3  0  0  0  0  0  0
  195.4350  176.4090  141.1870 O   0  0  0  0  0  1  0  0  0  0  0  0
  194.2340  176.1740  141.8590 C   0  0  0  0  0  2  0  0  0  0  0  0
  192.7230  173.9350  141.1780 S   0  0  0  0  0  0  0  0  0  0  0  0
  191.3540  174.3770  142.2990 C   0  0  0  0  0  2  0  0  0  0  0  0
  190.6380  173.1730  142.6770 N   0  0  0  0  0  1  0  0  0  0  0  0
  188.7600  175.0880  146.6860 C   0  0  0  0  0  2  0  0  0  0  0  0
  189.3040  177.2910  145.7080 C   0  0  0  0  0  2  0  0  0  0  0  0
  188.6760  178.4690  146.4400 C   0  0  0  0  0  2  0  0  0  0  0  0
  188.2910  176.1550  145.7030 C   0  0  2  0  0  3  0  0  0  0  0  0
  186.3110  177.9400  145.3680 C   0  0  1  0  0  0  0  0  0  0  0  0
  187.1890  178.1830  146.6050 C   0  0  1  0  0  0  0  0  0  0  0  0
  186.0830  176.0050  146.9240 O   0  0  0  0  0  1  0  0  0  0  0  0
  186.9430  176.7610  146.1150 C   0  0  2  0  0  0  0  0  0  0  0  0
  184.5090  178.1550  145.5780 S   0  0  0  0  0  1  0  0  0  0  0  0
  186.5430  178.5120  147.9490 C   0  0  0  0  0  2  0  0  0  0  0  0
  187.3800  179.3520  148.6900 O   0  0  0  0  0  1  0  0  0  0  0  0
  186.8960  178.3070  144.0070 C   0  0  0  0  0  2  0  0  0  0  0  0
  186.1860  177.6560  142.9930 O   0  0  0  0  0  0  0  0  0  0  0  0
  186.6640  177.4380  140.2760 O   0  0  0  0  0  0  0  0  0  0  0  0
  187.3400  177.2710  141.8150 P   0  0  0  0  0  0  0  0  0  0  0  0
  187.8880  175.6830  142.0220 O   0  0  0  0  0  1  0  0  0  0  0  0
  188.5090  178.2220  141.9450 O   0  0  0  0  0  1  0  0  0  0  0  0
  1  7  2  0  0  0  0
  1 11  1  0  0  0  0
  2  8  1  0  0  0  0
  3 13  2  0  0  0  0
  3  9  1  0  0  0  0
  4  5  1  0  0  0  0
  6 29  1  0  0  0  0
  7  3  1  0  0  0  0
  8  5  2  0  0  0  0
  9  4  2  0  0  0  0
 10  9  1  0  0  0  0
 10  2  1  0  0  0  0
 11 10  2  0  0  0  0
 12  6  2  0  0  0  0
 12  2  2  0  0  0  0
 14 16  2  0  0  0  0
 15  7  1  0  0  0  0
 15 16  1  0  0  0  0
 17 15  1  0  0  0  0
 18 17  1  0  0  0  0
 19 21  1  0  0  0  0
 19 20  1  1  0  0  0
 19 18  1  0  0  0  0
 21 22  1  0  0  0  0
 22 23  1  0  0  0  0
 23 25  1  6  0  0  0
 24 25  1  0  0  0  0
 26 23  1  0  0  0  0
 26 27  1  0  0  0  0
 27 28  1  0  0  0  0
 30 31  1  0  0  0  0
 31 34  1  0  0  0  0
 32 30  1  0  0  0  0
 32 36  1  0  0  0  0
 32 29  1  1  0  0  0
 33 37  1  1  0  0  0
 33 36  1  0  0  0  0
 33 34  1  0  0  0  0
 34 38  1  1  0  0  0
 36 34  1  0  0  0  0
 36 35  1  1  0  0  0
 38 39  1  0  0  0  0
 40 33  1  0  0  0  0
 41 40  1  0  0  0  0
 42 43  2  0  0  0  0
 43 45  1  0  0  0  0
 43 44  1  0  0  0  0
 43 41  1  0  0  0  0
M  END
>  <MODEL>
2

>  <REMARK>
 VINA RESULT:      -5.9      3.414      9.696
  Name = 
  16 active torsions:
  status: ('A' for Active; 'I' for Inactive)
    1  A    between atoms: S_5  and  C_9
    2  A    between atoms: S_5  and  C_35
    3  A    between atoms: C_6  and  C_14
    4  A    between atoms: C_6  and  S_28
    5  A    between atoms: C_8  and  C_27
    6  A    between atoms: P_11  and  O_16
    7  A    between atoms: C_14  and  N_40
    8  A    between atoms: O_16  and  C_20
    9  A    between atoms: N_19  and  C_26
   10  A    between atoms: N_19  and  S_28
   11  A    between atoms: C_20  and  C_25
   12  A    between atoms: C_21  and  C_37
   13  A    between atoms: C_22  and  C_37
   14  A    between atoms: C_23  and  C_35
   15  A    between atoms: N_24  and  C_35
   16  A    between atoms: N_24  and  N_40
                            x       y       z     vdW  Elec       q    Type
                         _______ _______ _______ _____ _____    ______ ____

>  <TORSDO>
F 16

$$$$
=
 OpenBabel11062420463D

 45 48  0  0  1  0  0  0  0  0999 V2000
  187.7040  176.1900  145.6090 C   0  0  0  0  0  3  0  0  0  0  0  0
  191.1750  174.7500  145.9970 C   0  0  0  0  0  0  0  0  0  0  0  0
  188.9330  177.5910  147.1600 C   0  0  0  0  0  0  0  0  0  0  0  0
  191.2720  176.9410  147.7460 C   0  0  0  0  0  3  0  0  0  0  0  0
  192.3800  176.1070  147.6060 C   0  0  0  0  0  3  0  0  0  0  0  0
  191.2190  172.7450  144.3270 C   0  0  0  0  0  3  0  0  0  0  0  0
  187.6820  177.2630  146.4170 C   0  0  0  0  0  0  0  0  0  0  0  0
  192.3320  175.0200  146.7330 C   0  0  0  0  0  2  0  0  0  0  0  0
  190.1020  176.6930  147.0200 C   0  0  2  0  0  3  0  0  0  0  0  0
  190.0390  175.5860  146.1400 C   0  0  0  0  0  0  0  0  0  0  0  0
  188.9040  175.3440  145.4600 C   0  0  0  0  0  3  0  0  0  0  0  0
  191.1960  173.7360  145.1700 C   0  0  0  0  0  0  0  0  0  0  0  0
  189.0210  178.6230  147.8780 O   0  0  0  0  0  0  0  0  0  0  0  0
  184.4950  178.4690  147.7340 O   0  0  0  0  0  0  0  0  0  0  0  0
  186.4690  178.0470  146.5260 N   0  0  0  0  0  0  0  0  0  0  0  0
  185.6020  177.8700  147.6590 C   0  0  0  0  0  3  0  0  0  0  0  0
  186.0030  179.2600  145.3130 S   0  0  0  0  0  0  0  0  0  0  0  0
  184.7600  178.1650  144.5750 C   0  0  0  0  0  2  0  0  0  0  0  0
  185.0060  178.0550  143.0780 C   0  0  2  0  0  3  0  0  0  0  0  0
  183.6980  178.2510  142.3390 C   0  0  0  0  0  1  0  0  0  0  0  0
  185.5530  176.7440  142.7520 N   0  0  0  0  0  2  0  0  0  0  0  0
  186.4660  176.9120  141.6990 N   0  0  0  0  0  2  0  0  0  0  0  0
  187.8050  176.7160  142.2380 C   0  0  1  0  0  3  0  0  0  0  0  0
  188.1500  175.2670  140.3490 O   0  0  0  0  0  1  0  0  0  0  0  0
  188.4220  175.4290  141.7090 C   0  0  0  0  0  2  0  0  0  0  0  0
  188.8930  178.1650  141.9360 S   0  0  0  0  0  0  0  0  0  0  0  0
  190.3650  177.5060  142.7860 C   0  0  0  0  0  2  0  0  0  0  0  0
  190.6750  178.3460  143.9270 N   0  0  0  0  0  1  0  0  0  0  0  0
  192.5210  172.1170  143.9650 C   0  0  0  0  0  2  0  0  0  0  0  0
  193.6450  172.1830  141.7650 C   0  0  0  0  0  2  0  0  0  0  0  0
  195.1350  171.8760  141.8190 C   0  0  0  0  0  2  0  0  0  0  0  0
  193.2960  173.0040  142.9980 C   0  0  2  0  0  3  0  0  0  0  0  0
  195.6480  174.2870  142.7910 C   0  0  1  0  0  0  0  0  0  0  0  0
  195.7590  172.7590  142.8920 C   0  0  1  0  0  0  0  0  0  0  0  0
  194.7470  173.5470  144.9950 O   0  0  0  0  0  1  0  0  0  0  0  0
  194.6220  173.4860  143.6000 C   0  0  2  0  0  0  0  0  0  0  0  0
  196.8470  175.2700  143.7570 S   0  0  0  0  0  1  0  0  0  0  0  0
  196.7880  172.1270  143.8270 C   0  0  0  0  0  2  0  0  0  0  0  0
  197.8650  171.6290  143.0880 O   0  0  0  0  0  1  0  0  0  0  0  0
  195.1910  174.8730  141.4580 C   0  0  0  0  0  2  0  0  0  0  0  0
  196.2220  175.6280  140.8920 O   0  0  0  0  0  0  0  0  0  0  0  0
  197.6830  175.6700  138.5410 O   0  0  0  0  0  0  0  0  0  0  0  0
  196.8060  174.6950  139.6040 P   0  0  0  0  0  0  0  0  0  0  0  0
  195.5220  173.9660  138.7750 O   0  0  0  0  0  1  0  0  0  0  0  0
  197.7180  173.6200  140.1520 O   0  0  0  0  0  1  0  0  0  0  0  0
  1  7  2  0  0  0  0
  2 10  1  0  0  0  0
  2  8  1  0  0  0  0
  3 13  2  0  0  0  0
  5  4  2  0  0  0  0
  6 12  2  0  0  0  0
  7 15  1  0  0  0  0
  7  3  1  0  0  0  0
  8  5  1  0  0  0  0
  9  3  1  0  0  0  0
  9  4  1  6  0  0  0
 10  9  1  0  0  0  0
 11  1  1  0  0  0  0
 11 10  2  0  0  0  0
 12  2  2  0  0  0  0
 15 16  1  0  0  0  0
 16 14  2  0  0  0  0
 17 15  1  0  0  0  0
 18 17  1  0  0  0  0
 19 20  1  6  0  0  0
 19 18  1  0  0  0  0
 21 19  1  0  0  0  0
 22 23  1  0  0  0  0
 22 21  1  0  0  0  0
 23 25  1  6  0  0  0
 24 25  1  0  0  0  0
 26 23  1  0  0  0  0
 26 27  1  0  0  0  0
 27 28  1  0  0  0  0
 29  6  1  0  0  0  0
 30 31  1  0  0  0  0
 30 32  1  0  0  0  0
 31 34  1  0  0  0  0
 32 36  1  0  0  0  0
 32 29  1  1  0  0  0
 33 34  1  0  0  0  0
 33 36  1  0  0  0  0
 33 37  1  1  0  0  0
 34 36  1  0  0  0  0
 34 38  1  1  0  0  0
 36 35  1  1  0  0  0
 39 38  1  0  0  0  0
 40 33  1  0  0  0  0
 41 40  1  0  0  0  0
 42 43  2  0  0  0  0
 43 45  1  0  0  0  0
 43 41  1  0  0  0  0
 44 43  1  0  0  0  0
M  END
>  <MODEL>
3

>  <REMARK>
 VINA RESULT:      -5.8      2.096      3.906
  Name = 
  16 active torsions:
  status: ('A' for Active; 'I' for Inactive)
    1  A    between atoms: S_5  and  C_9
    2  A    between atoms: S_5  and  C_35
    3  A    between atoms: C_6  and  C_14
    4  A    between atoms: C_6  and  S_28
    5  A    between atoms: C_8  and  C_27
    6  A    between atoms: P_11  and  O_16
    7  A    between atoms: C_14  and  N_40
    8  A    between atoms: O_16  and  C_20
    9  A    between atoms: N_19  and  C_26
   10  A    between atoms: N_19  and  S_28
   11  A    between atoms: C_20  and  C_25
   12  A    between atoms: C_21  and  C_37
   13  A    between atoms: C_22  and  C_37
   14  A    between atoms: C_23  and  C_35
   15  A    between atoms: N_24  and  C_35
   16  A    between atoms: N_24  and  N_40
                            x       y       z     vdW  Elec       q    Type
                         _______ _______ _______ _____ _____    ______ ____

>  <TORSDO>
F 16

$$$$
=
 OpenBabel11062420463D

 45 48  0  0  1  0  0  0  0  0999 V2000
  194.5830  171.5440  145.7270 C   0  0  0  0  0  3  0  0  0  0  0  0
  193.7660  175.2040  145.2660 C   0  0  0  0  0  0  0  0  0  0  0  0
  196.5440  172.6470  144.8240 C   0  0  0  0  0  0  0  0  0  0  0  0
  196.3990  175.0870  144.3070 C   0  0  0  0  0  3  0  0  0  0  0  0
  195.7020  176.2930  144.2930 C   0  0  0  0  0  3  0  0  0  0  0  0
  191.3480  175.4380  146.2230 C   0  0  0  0  0  3  0  0  0  0  0  0
  195.8490  171.4150  145.2950 C   0  0  0  0  0  0  0  0  0  0  0  0
  194.3930  176.3510  144.7730 C   0  0  0  0  0  3  0  0  0  0  0  0
  195.7930  173.9230  144.7960 C   0  0  0  0  0  0  0  0  0  0  0  0
  194.4620  173.9690  145.2760 C   0  0  0  0  0  0  0  0  0  0  0  0
  193.8820  172.8420  145.7260 C   0  0  0  0  0  3  0  0  0  0  0  0
  192.5490  175.3220  145.7340 C   0  0  0  0  0  0  0  0  0  0  0  0
  197.7560  172.6280  144.4770 O   0  0  0  0  0  0  0  0  0  0  0  0
  197.7880  168.5690  146.5130 O   0  0  0  0  0  0  0  0  0  0  0  0
  196.4770  170.1100  145.3130 N   0  0  0  0  0  0  0  0  0  0  0  0
  197.1530  169.6580  146.4990 C   0  0  0  0  0  3  0  0  0  0  0  0
  196.4290  169.0070  143.9200 S   0  0  0  0  0  0  0  0  0  0  0  0
  194.7440  168.4590  144.3070 C   0  0  0  0  0  2  0  0  0  0  0  0
  193.8980  168.4860  143.0440 C   0  0  2  0  0  3  0  0  0  0  0  0
  194.8030  168.6540  141.8400 C   0  0  0  0  0  1  0  0  0  0  0  0
  192.9520  169.5930  143.0930 N   0  0  0  0  0  2  0  0  0  0  0  0
  193.0220  170.2710  141.8660 N   0  0  0  0  0  2  0  0  0  0  0  0
  191.8810  171.1730  141.7910 C   0  0  1  0  0  3  0  0  0  0  0  0
  190.0990  171.6990  143.3180 O   0  0  0  0  0  1  0  0  0  0  0  0
  191.4870  171.6690  143.1750 C   0  0  0  0  0  2  0  0  0  0  0  0
  192.1730  172.5650  140.6280 S   0  0  0  0  0  0  0  0  0  0  0  0
  193.0340  173.6530  141.8120 C   0  0  0  0  0  2  0  0  0  0  0  0
  194.4660  173.5430  141.6060 N   0  0  0  0  0  1  0  0  0  0  0  0
  190.7960  176.7930  146.5030 C   0  0  0  0  0  2  0  0  0  0  0  0
  188.6770  175.6130  146.0300 C   0  0  0  0  0  2  0  0  0  0  0  0
  188.6130  174.9790  144.6480 C   0  0  0  0  0  2  0  0  0  0  0  0
  189.4060  176.9430  145.8970 C   0  0  2  0  0  3  0  0  0  0  0  0
  188.2080  177.3450  143.5250 C   0  0  1  0  0  0  0  0  0  0  0  0
  189.0070  176.0370  143.6250 C   0  0  1  0  0  0  0  0  0  0  0  0
  190.6160  177.8840  143.8870 O   0  0  0  0  0  1  0  0  0  0  0  0
  189.4650  177.2680  144.3990 C   0  0  2  0  0  0  0  0  0  0  0  0
  188.3640  178.2920  141.9710 S   0  0  0  0  0  1  0  0  0  0  0  0
  189.9380  175.6200  142.4880 C   0  0  0  0  0  2  0  0  0  0  0  0
  189.3310  174.6270  141.7120 O   0  0  0  0  0  1  0  0  0  0  0  0
  186.8590  177.4010  144.2360 C   0  0  0  0  0  2  0  0  0  0  0  0
  186.6780  178.6620  144.8140 O   0  0  0  0  0  0  0  0  0  0  0  0
  183.9680  178.9110  145.3180 O   0  0  0  0  0  0  0  0  0  0  0  0
  185.4570  178.4530  145.9690 P   0  0  0  0  0  0  0  0  0  0  0  0
  185.7820  179.3830  147.3460 O   0  0  0  0  0  1  0  0  0  0  0  0
  185.3950  176.9930  146.3590 O   0  0  0  0  0  1  0  0  0  0  0  0
  2 10  1  0  0  0  0
  2 12  2  0  0  0  0
  3  7  1  0  0  0  0
  4  9  2  0  0  0  0
  5  4  1  0  0  0  0
  5  8  2  0  0  0  0
  6 29  1  0  0  0  0
  7 15  1  0  0  0  0
  7  1  2  0  0  0  0
  8  2  1  0  0  0  0
  9  3  1  0  0  0  0
  9 10  1  0  0  0  0
 10 11  2  0  0  0  0
 11  1  1  0  0  0  0
 12  6  2  0  0  0  0
 13  3  2  0  0  0  0
 15 16  1  0  0  0  0
 16 14  2  0  0  0  0
 17 18  1  0  0  0  0
 17 15  1  0  0  0  0
 19 20  1  6  0  0  0
 19 21  1  0  0  0  0
 19 18  1  0  0  0  0
 22 21  1  0  0  0  0
 23 22  1  0  0  0  0
 23 25  1  1  0  0  0
 25 24  1  0  0  0  0
 26 23  1  0  0  0  0
 26 27  1  0  0  0  0
 28 27  1  0  0  0  0
 31 30  1  0  0  0  0
 32 30  1  0  0  0  0
 32 29  1  6  0  0  0
 33 37  1  6  0  0  0
 33 34  1  0  0  0  0
 33 40  1  0  0  0  0
 33 36  1  0  0  0  0
 34 38  1  6  0  0  0
 34 36  1  0  0  0  0
 34 31  1  0  0  0  0
 36 35  1  6  0  0  0
 36 32  1  0  0  0  0
 39 38  1  0  0  0  0
 40 41  1  0  0  0  0
 41 43  1  0  0  0  0
 42 43  2  0  0  0  0
 43 45  1  0  0  0  0
 43 44  1  0  0  0  0
M  END
>  <MODEL>
4

>  <REMARK>
 VINA RESULT:      -5.7      4.077      9.672
  Name = 
  16 active torsions:
  status: ('A' for Active; 'I' for Inactive)
    1  A    between atoms: S_5  and  C_9
    2  A    between atoms: S_5  and  C_35
    3  A    between atoms: C_6  and  C_14
    4  A    between atoms: C_6  and  S_28
    5  A    between atoms: C_8  and  C_27
    6  A    between atoms: P_11  and  O_16
    7  A    between atoms: C_14  and  N_40
    8  A    between atoms: O_16  and  C_20
    9  A    between atoms: N_19  and  C_26
   10  A    between atoms: N_19  and  S_28
   11  A    between atoms: C_20  and  C_25
   12  A    between atoms: C_21  and  C_37
   13  A    between atoms: C_22  and  C_37
   14  A    between atoms: C_23  and  C_35
   15  A    between atoms: N_24  and  C_35
   16  A    between atoms: N_24  and  N_40
                            x       y       z     vdW  Elec       q    Type
                         _______ _______ _______ _____ _____    ______ ____

>  <TORSDO>
F 16

$$$$
=
 OpenBabel11062420463D

 45 48  0  0  1  0  0  0  0  0999 V2000
  187.9740  175.6790  144.5130 C   0  0  0  0  0  3  0  0  0  0  0  0
  191.2660  174.8580  146.1740 C   0  0  0  0  0  0  0  0  0  0  0  0
  188.3100  177.2420  146.3360 C   0  0  0  0  0  0  0  0  0  0  0  0
  190.3590  176.9980  147.7440 C   0  0  0  0  0  3  0  0  0  0  0  0
  191.5670  176.3730  148.0440 C   0  0  0  0  0  3  0  0  0  0  0  0
  192.2440  172.9230  144.7190 C   0  0  0  0  0  3  0  0  0  0  0  0
  187.4820  176.7160  145.2120 C   0  0  0  0  0  0  0  0  0  0  0  0
  192.0200  175.3100  147.2610 C   0  0  0  0  0  2  0  0  0  0  0  0
  189.5860  176.5640  146.6610 C   0  0  2  0  0  3  0  0  0  0  0  0
  190.0310  175.4800  145.8660 C   0  0  0  0  0  0  0  0  0  0  0  0
  189.2720  175.0570  144.8390 C   0  0  0  0  0  3  0  0  0  0  0  0
  191.7540  173.8790  145.4540 C   0  0  0  0  0  0  0  0  0  0  0  0
  187.9600  178.2600  146.9920 O   0  0  0  0  0  0  0  0  0  0  0  0
  184.1820  178.2350  145.5890 O   0  0  0  0  0  0  0  0  0  0  0  0
  186.1970  177.2740  144.8470 N   0  0  0  0  0  0  0  0  0  0  0  0
  185.3430  177.8270  145.8640 C   0  0  0  0  0  3  0  0  0  0  0  0
  185.6230  177.3320  143.1660 S   0  0  0  0  0  0  0  0  0  0  0  0
  187.0420  178.3270  142.6290 C   0  0  0  0  0  2  0  0  0  0  0  0
  187.4820  177.8760  141.2460 C   0  0  2  0  0  3  0  0  0  0  0  0
  186.2590  177.5610  140.4080 C   0  0  0  0  0  1  0  0  0  0  0  0
  188.3180  176.6860  141.3450 N   0  0  0  0  0  2  0  0  0  0  0  0
  187.6910  175.6610  140.6180 N   0  0  0  0  0  2  0  0  0  0  0  0
  188.5720  174.5020  140.6340 C   0  0  1  0  0  3  0  0  0  0  0  0
  189.1600  172.8500  142.2810 O   0  0  0  0  0  1  0  0  0  0  0  0
  188.0850  173.4610  141.6320 C   0  0  0  0  0  2  0  0  0  0  0  0
  188.8020  173.7820  138.9590 S   0  0  0  0  0  0  0  0  0  0  0  0
  190.5780  173.4070  139.1330 C   0  0  0  0  0  2  0  0  0  0  0  0
  190.7490  171.9790  139.3200 N   0  0  0  0  0  1  0  0  0  0  0  0
  193.6750  172.5390  144.8720 C   0  0  0  0  0  2  0  0  0  0  0  0
  195.3780  171.7150  143.2830 C   0  0  0  0  0  2  0  0  0  0  0  0
  196.8020  172.1290  143.6270 C   0  0  0  0  0  2  0  0  0  0  0  0
  194.4630  172.8850  143.6140 C   0  0  2  0  0  3  0  0  0  0  0  0
  196.3530  174.5900  142.7540 C   0  0  1  0  0  0  0  0  0  0  0  0
  196.8120  173.6330  143.8650 C   0  0  1  0  0  0  0  0  0  0  0  0
  195.0250  175.0370  144.8160 O   0  0  0  0  0  1  0  0  0  0  0  0
  195.3650  174.1090  143.8210 C   0  0  2  0  0  0  0  0  0  0  0  0
  196.8980  176.3280  142.8830 S   0  0  0  0  0  1  0  0  0  0  0  0
  197.6200  174.1650  145.0470 C   0  0  0  0  0  2  0  0  0  0  0  0
  197.2920  173.4570  146.2070 O   0  0  0  0  0  1  0  0  0  0  0  0
  196.2060  174.0150  141.3480 C   0  0  0  0  0  2  0  0  0  0  0  0
  195.8060  175.0220  140.4620 O   0  0  0  0  0  0  0  0  0  0  0  0
  193.9740  172.9840  140.0710 O   0  0  0  0  0  1  0  0  0  0  0  0
  194.2000  174.6580  140.0670 P   0  0  0  0  0  0  0  0  0  0  0  0
  193.8130  175.2770  138.5400 O   0  0  0  0  0  0  0  0  0  0  0  0
  193.2880  175.2800  141.1010 O   0  0  0  0  0  1  0  0  0  0  0  0
  1 11  1  0  0  0  0
  1  7  2  0  0  0  0
  2  8  1  0  0  0  0
  3  9  1  0  0  0  0
  3 13  2  0  0  0  0
  4  5  2  0  0  0  0
  6 29  1  0  0  0  0
  6 12  2  0  0  0  0
  7  3  1  0  0  0  0
  8  5  1  0  0  0  0
  9  4  1  6  0  0  0
 10  2  1  0  0  0  0
 10  9  1  0  0  0  0
 11 10  2  0  0  0  0
 12  2  2  0  0  0  0
 14 16  2  0  0  0  0
 15  7  1  0  0  0  0
 15 16  1  0  0  0  0
 17 15  1  0  0  0  0
 18 17  1  0  0  0  0
 19 20  1  6  0  0  0
 19 21  1  0  0  0  0
 19 18  1  0  0  0  0
 22 23  1  0  0  0  0
 22 21  1  0  0  0  0
 23 25  1  1  0  0  0
 25 24  1  0  0  0  0
 26 27  1  0  0  0  0
 26 23  1  0  0  0  0
 27 28  1  0  0  0  0
 30 32  1  0  0  0  0
 30 31  1  0  0  0  0
 31 34  1  0  0  0  0
 32 36  1  0  0  0  0
 32 29  1  1  0  0  0
 33 37  1  1  0  0  0
 33 36  1  0  0  0  0
 33 34  1  0  0  0  0
 34 38  1  1  0  0  0
 36 34  1  0  0  0  0
 36 35  1  1  0  0  0
 38 39  1  0  0  0  0
 40 33  1  0  0  0  0
 41 40  1  0  0  0  0
 43 42  1  0  0  0  0
 43 41  1  0  0  0  0
 43 45  1  0  0  0  0
 44 43  2  0  0  0  0
M  END
>  <MODEL>
5

>  <REMARK>
 VINA RESULT:      -5.6      2.603      4.455
  Name = 
  16 active torsions:
  status: ('A' for Active; 'I' for Inactive)
    1  A    between atoms: S_5  and  C_9
    2  A    between atoms: S_5  and  C_35
    3  A    between atoms: C_6  and  C_14
    4  A    between atoms: C_6  and  S_28
    5  A    between atoms: C_8  and  C_27
    6  A    between atoms: P_11  and  O_16
    7  A    between atoms: C_14  and  N_40
    8  A    between atoms: O_16  and  C_20
    9  A    between atoms: N_19  and  C_26
   10  A    between atoms: N_19  and  S_28
   11  A    between atoms: C_20  and  C_25
   12  A    between atoms: C_21  and  C_37
   13  A    between atoms: C_22  and  C_37
   14  A    between atoms: C_23  and  C_35
   15  A    between atoms: N_24  and  C_35
   16  A    between atoms: N_24  and  N_40
                            x       y       z     vdW  Elec       q    Type
                         _______ _______ _______ _____ _____    ______ ____

>  <TORSDO>
F 16

$$$$
=
 OpenBabel11062420463D

 45 48  0  0  1  0  0  0  0  0999 V2000
  193.8080  172.2890  144.5590 C   0  0  0  0  0  3  0  0  0  0  0  0
  190.1300  173.1510  144.5970 C   0  0  0  0  0  0  0  0  0  0  0  0
  192.8710  171.6920  142.4040 C   0  0  0  0  0  0  0  0  0  0  0  0
  190.4260  172.0450  142.0360 C   0  0  0  0  0  3  0  0  0  0  0  0
  189.1760  172.4850  142.4690 C   0  0  0  0  0  3  0  0  0  0  0  0
  189.7690  174.2820  146.9210 C   0  0  0  0  0  3  0  0  0  0  0  0
  194.0270  171.7600  143.3430 C   0  0  0  0  0  0  0  0  0  0  0  0
  189.0310  173.0380  143.7410 C   0  0  0  0  0  3  0  0  0  0  0  0
  191.5420  172.1460  142.8740 C   0  0  0  0  0  0  0  0  0  0  0  0
  191.4030  172.6970  144.1710 C   0  0  0  0  0  0  0  0  0  0  0  0
  192.4780  172.7730  144.9760 C   0  0  0  0  0  3  0  0  0  0  0  0
  189.9430  173.7080  145.7660 C   0  0  0  0  0  0  0  0  0  0  0  0
  193.0070  171.2830  141.2190 O   0  0  0  0  0  0  0  0  0  0  0  0
  196.7050  170.1650  141.4390 O   0  0  0  0  0  0  0  0  0  0  0  0
  195.3550  171.2930  142.9990 N   0  0  0  0  0  0  0  0  0  0  0  0
  195.5830  170.6630  141.7270 C   0  0  0  0  0  3  0  0  0  0  0  0
  196.7480  171.4890  144.0850 S   0  0  0  0  0  0  0  0  0  0  0  0
  197.1150  173.1480  143.4490 C   0  0  0  0  0  2  0  0  0  0  0  0
  197.2790  174.1120  144.6130 C   0  0  2  0  0  3  0  0  0  0  0  0
  197.1450  173.3510  145.9160 C   0  0  0  0  0  1  0  0  0  0  0  0
  196.2580  175.1510  144.5540 N   0  0  0  0  0  2  0  0  0  0  0  0
  195.5680  175.1420  145.7770 N   0  0  0  0  0  2  0  0  0  0  0  0
  194.2840  175.7970  145.5670 C   0  0  1  0  0  3  0  0  0  0  0  0
  194.9420  178.1020  145.7650 O   0  0  0  0  0  1  0  0  0  0  0  0
  194.1940  177.0880  146.3670 C   0  0  0  0  0  2  0  0  0  0  0  0
  193.9290  176.0750  143.7860 S   0  0  0  0  0  0  0  0  0  0  0  0
  192.1680  176.5000  143.9850 C   0  0  0  0  0  2  0  0  0  0  0  0
  191.4360  176.0710  142.8080 N   0  0  0  0  0  1  0  0  0  0  0  0
  188.5140  175.0400  147.1840 C   0  0  0  0  0  2  0  0  0  0  0  0
  189.3500  177.0910  146.0900 C   0  0  0  0  0  2  0  0  0  0  0  0
  188.7560  178.3780  146.6440 C   0  0  0  0  0  2  0  0  0  0  0  0
  188.2470  176.0430  146.0680 C   0  0  2  0  0  3  0  0  0  0  0  0
  186.4790  177.9390  145.3630 C   0  0  1  0  0  0  0  0  0  0  0  0
  187.2400  178.2280  146.6650 C   0  0  1  0  0  0  0  0  0  0  0  0
  185.9180  176.1830  147.0420 O   0  0  0  0  0  1  0  0  0  0  0  0
  186.9220  176.7890  146.2730 C   0  0  2  0  0  0  0  0  0  0  0  0
  184.6910  178.3150  145.3510 S   0  0  0  0  0  1  0  0  0  0  0  0
  186.4890  178.7310  147.8960 C   0  0  0  0  0  2  0  0  0  0  0  0
  187.3720  179.3850  148.7610 O   0  0  0  0  0  1  0  0  0  0  0  0
  187.2330  178.1290  144.0500 C   0  0  0  0  0  2  0  0  0  0  0  0
  186.5280  177.5230  143.0050 O   0  0  0  0  0  0  0  0  0  0  0  0
  186.9130  177.9120  140.2910 O   0  0  0  0  0  0  0  0  0  0  0  0
  187.6360  177.4010  141.7290 P   0  0  0  0  0  0  0  0  0  0  0  0
  188.1660  175.8020  141.5590 O   0  0  0  0  0  1  0  0  0  0  0  0
  188.8240  178.2890  142.0250 O   0  0  0  0  0  1  0  0  0  0  0  0
  1 11  1  0  0  0  0
  2 12  2  0  0  0  0
  3  9  1  0  0  0  0
  3  7  1  0  0  0  0
  4  5  1  0  0  0  0
  4  9  2  0  0  0  0
  5  8  2  0  0  0  0
  6 29  1  0  0  0  0
  7  1  2  0  0  0  0
  8  2  1  0  0  0  0
  9 10  1  0  0  0  0
 10  2  1  0  0  0  0
 10 11  2  0  0  0  0
 12  6  2  0  0  0  0
 13  3  2  0  0  0  0
 14 16  2  0  0  0  0
 15  7  1  0  0  0  0
 15 17  1  0  0  0  0
 16 15  1  0  0  0  0
 18 17  1  0  0  0  0
 18 19  1  0  0  0  0
 19 20  1  1  0  0  0
 21 19  1  0  0  0  0
 21 22  1  0  0  0  0
 23 22  1  0  0  0  0
 23 25  1  1  0  0  0
 24 25  1  0  0  0  0
 26 27  1  0  0  0  0
 26 23  1  0  0  0  0
 28 27  1  0  0  0  0
 30 31  1  0  0  0  0
 31 34  1  0  0  0  0
 32 30  1  0  0  0  0
 32 36  1  0  0  0  0
 32 29  1  1  0  0  0
 33 37  1  6  0  0  0
 33 36  1  0  0  0  0
 33 34  1  0  0  0  0
 34 38  1  1  0  0  0
 36 34  1  0  0  0  0
 36 35  1  1  0  0  0
 38 39  1  0  0  0  0
 40 33  1  0  0  0  0
 41 40  1  0  0  0  0
 42 43  2  0  0  0  0
 43 45  1  0  0  0  0
 43 41  1  0  0  0  0
 44 43  1  0  0  0  0
M  END
>  <MODEL>
6

>  <REMARK>
 VINA RESULT:      -5.6      3.294      9.179
  Name = 
  16 active torsions:
  status: ('A' for Active; 'I' for Inactive)
    1  A    between atoms: S_5  and  C_9
    2  A    between atoms: S_5  and  C_35
    3  A    between atoms: C_6  and  C_14
    4  A    between atoms: C_6  and  S_28
    5  A    between atoms: C_8  and  C_27
    6  A    between atoms: P_11  and  O_16
    7  A    between atoms: C_14  and  N_40
    8  A    between atoms: O_16  and  C_20
    9  A    between atoms: N_19  and  C_26
   10  A    between atoms: N_19  and  S_28
   11  A    between atoms: C_20  and  C_25
   12  A    between atoms: C_21  and  C_37
   13  A    between atoms: C_22  and  C_37
   14  A    between atoms: C_23  and  C_35
   15  A    between atoms: N_24  and  C_35
   16  A    between atoms: N_24  and  N_40
                            x       y       z     vdW  Elec       q    Type
                         _______ _______ _______ _____ _____    ______ ____

>  <TORSDO>
F 16

$$$$
=
 OpenBabel11062420463D

 45 48  0  0  1  0  0  0  0  0999 V2000
  190.8880  173.7930  145.1020 C   0  0  0  0  0  3  0  0  0  0  0  0
  192.5130  172.8850  141.8140 C   0  0  0  0  0  0  0  0  0  0  0  0
  191.8890  175.7980  144.1760 C   0  0  0  0  0  0  0  0  0  0  0  0
  193.1320  175.6140  142.0170 C   0  0  0  0  0  3  0  0  0  0  0  0
  193.5780  174.8740  140.9240 C   0  0  0  0  0  3  0  0  0  0  0  0
  191.9100  170.3670  141.4850 C   0  0  0  0  0  3  0  0  0  0  0  0
  191.1360  175.1040  145.2610 C   0  0  0  0  0  0  0  0  0  0  0  0
  193.2670  173.5180  140.8220 C   0  0  0  0  0  2  0  0  0  0  0  0
  192.3740  175.0040  143.0250 C   0  0  2  0  0  3  0  0  0  0  0  0
  192.0620  173.6260  142.9360 C   0  0  0  0  0  0  0  0  0  0  0  0
  191.3500  173.0440  143.9180 C   0  0  0  0  0  3  0  0  0  0  0  0
  192.2230  171.6190  141.6520 C   0  0  0  0  0  0  0  0  0  0  0  0
  192.0950  177.0410  144.2090 O   0  0  0  0  0  0  0  0  0  0  0  0
  191.2310  176.9210  148.4280 O   0  0  0  0  0  0  0  0  0  0  0  0
  190.6630  175.7790  146.4520 N   0  0  0  0  0  0  0  0  0  0  0  0
  191.6050  176.4090  147.3380 C   0  0  0  0  0  3  0  0  0  0  0  0
  188.9380  175.8890  146.8660 S   0  0  0  0  0  0  0  0  0  0  0  0
  188.6580  177.2420  145.6910 C   0  0  0  0  0  2  0  0  0  0  0  0
  187.2420  177.7720  145.8570 C   0  0  2  0  0  3  0  0  0  0  0  0
  186.4410  176.8040  146.7050 C   0  0  0  0  0  1  0  0  0  0  0  0
  186.6020  177.9160  144.5550 N   0  0  0  0  0  2  0  0  0  0  0  0
  186.3600  176.6280  144.0520 N   0  0  0  0  0  2  0  0  0  0  0  0
  186.0420  176.7560  142.6370 C   0  0  1  0  0  3  0  0  0  0  0  0
  184.0990  178.0460  142.0480 O   0  0  0  0  0  1  0  0  0  0  0  0
  185.4640  178.1300  142.3300 C   0  0  0  0  0  2  0  0  0  0  0  0
  187.4840  176.3710  141.5650 S   0  0  0  0  0  0  0  0  0  0  0  0
  188.3020  175.2180  142.7160 C   0  0  0  0  0  2  0  0  0  0  0  0
  188.3910  173.9080  142.0980 N   0  0  0  0  0  1  0  0  0  0  0  0
  192.1090  169.7310  140.1520 C   0  0  0  0  0  2  0  0  0  0  0  0
  190.2710  169.1390  138.6100 C   0  0  0  0  0  2  0  0  0  0  0  0
  190.7240  168.8430  137.1870 C   0  0  0  0  0  2  0  0  0  0  0  0
  191.1190  170.2890  139.1360 C   0  0  2  0  0  3  0  0  0  0  0  0
  191.0620  171.4260  136.7030 C   0  0  1  0  0  0  0  0  0  0  0  0
  191.6120  169.9920  136.7260 C   0  0  1  0  0  0  0  0  0  0  0  0
  193.1420  171.3710  138.0770 O   0  0  0  0  0  1  0  0  0  0  0  0
  191.8270  170.9080  137.9250 C   0  0  2  0  0  0  0  0  0  0  0  0
  191.9440  172.6320  135.6510 S   0  0  0  0  0  1  0  0  0  0  0  0
  192.8840  169.6470  135.9540 C   0  0  0  0  0  2  0  0  0  0  0  0
  193.4490  168.4740  136.4620 O   0  0  0  0  0  1  0  0  0  0  0  0
  189.5530  171.6040  136.8400 C   0  0  0  0  0  2  0  0  0  0  0  0
  189.2210  172.9580  136.7330 O   0  0  0  0  0  0  0  0  0  0  0  0
  187.7990  174.7920  138.2400 O   0  0  0  0  0  0  0  0  0  0  0  0
  188.8160  173.4460  138.3030 P   0  0  0  0  0  0  0  0  0  0  0  0
  190.2120  173.8320  139.1800 O   0  0  0  0  0  1  0  0  0  0  0  0
  188.0900  172.3140  138.9960 O   0  0  0  0  0  1  0  0  0  0  0  0
  1  7  2  0  0  0  0
  2 10  1  0  0  0  0
  3 13  2  0  0  0  0
  3  7  1  0  0  0  0
  5  4  2  0  0  0  0
  6 12  2  0  0  0  0
  7 15  1  0  0  0  0
  8  5  1  0  0  0  0
  8  2  1  0  0  0  0
  9  4  1  6  0  0  0
  9  3  1  0  0  0  0
 10  9  1  0  0  0  0
 10 11  2  0  0  0  0
 11  1  1  0  0  0  0
 12  2  2  0  0  0  0
 15 17  1  0  0  0  0
 15 16  1  0  0  0  0
 16 14  2  0  0  0  0
 18 19  1  0  0  0  0
 18 17  1  0  0  0  0
 19 20  1  1  0  0  0
 21 19  1  0  0  0  0
 22 21  1  0  0  0  0
 23 25  1  1  0  0  0
 23 22  1  0  0  0  0
 24 25  1  0  0  0  0
 26 23  1  0  0  0  0
 26 27  1  0  0  0  0
 28 27  1  0  0  0  0
 29  6  1  0  0  0  0
 30 32  1  0  0  0  0
 31 30  1  0  0  0  0
 32 29  1  1  0  0  0
 33 37  1  6  0  0  0
 33 34  1  0  0  0  0
 33 40  1  0  0  0  0
 33 36  1  0  0  0  0
 34 38  1  6  0  0  0
 34 31  1  0  0  0  0
 34 36  1  0  0  0  0
 36 35  1  1  0  0  0
 36 32  1  0  0  0  0
 38 39  1  0  0  0  0
 41 40  1  0  0  0  0
 41 43  1  0  0  0  0
 42 43  2  0  0  0  0
 43 45  1  0  0  0  0
 43 44  1  0  0  0  0
M  END
>  <MODEL>
7

>  <REMARK>
 VINA RESULT:      -5.6      4.422      6.511
  Name = 
  16 active torsions:
  status: ('A' for Active; 'I' for Inactive)
    1  A    between atoms: S_5  and  C_9
    2  A    between atoms: S_5  and  C_35
    3  A    between atoms: C_6  and  C_14
    4  A    between atoms: C_6  and  S_28
    5  A    between atoms: C_8  and  C_27
    6  A    between atoms: P_11  and  O_16
    7  A    between atoms: C_14  and  N_40
    8  A    between atoms: O_16  and  C_20
    9  A    between atoms: N_19  and  C_26
   10  A    between atoms: N_19  and  S_28
   11  A    between atoms: C_20  and  C_25
   12  A    between atoms: C_21  and  C_37
   13  A    between atoms: C_22  and  C_37
   14  A    between atoms: C_23  and  C_35
   15  A    between atoms: N_24  and  C_35
   16  A    between atoms: N_24  and  N_40
                            x       y       z     vdW  Elec       q    Type
                         _______ _______ _______ _____ _____    ______ ____

>  <TORSDO>
F 16

$$$$
=
 OpenBabel11062420463D

 45 48  0  0  1  0  0  0  0  0999 V2000
  194.0520  172.3370  143.1130 C   0  0  0  0  0  3  0  0  0  0  0  0
  193.4110  175.8360  144.3870 C   0  0  0  0  0  0  0  0  0  0  0  0
  195.4270  172.6880  145.0790 C   0  0  0  0  0  0  0  0  0  0  0  0
  195.3480  174.9200  146.1980 C   0  0  0  0  0  3  0  0  0  0  0  0
  194.8420  176.2140  146.3090 C   0  0  0  0  0  3  0  0  0  0  0  0
  191.5390  176.7490  142.8140 C   0  0  0  0  0  3  0  0  0  0  0  0
  194.9710  171.8270  143.9500 C   0  0  0  0  0  0  0  0  0  0  0  0
  193.8760  176.6670  145.4100 C   0  0  0  0  0  2  0  0  0  0  0  0
  194.8990  174.0680  145.1820 C   0  0  2  0  0  3  0  0  0  0  0  0
  193.9260  174.5220  144.2590 C   0  0  0  0  0  0  0  0  0  0  0  0
  193.5140  173.7020  143.2760 C   0  0  0  0  0  3  0  0  0  0  0  0
  192.4810  176.3020  143.5930 C   0  0  0  0  0  0  0  0  0  0  0  0
  196.2280  172.2590  145.9530 O   0  0  0  0  0  0  0  0  0  0  0  0
  195.3120  168.2080  144.3030 O   0  0  0  0  0  0  0  0  0  0  0  0
  195.4660  170.4840  143.7300 N   0  0  0  0  0  0  0  0  0  0  0  0
  194.8450  169.3740  144.4030 C   0  0  0  0  0  3  0  0  0  0  0  0
  196.8140  170.1310  142.6260 S   0  0  0  0  0  0  0  0  0  0  0  0
  195.7240  170.0840  141.1770 C   0  0  0  0  0  2  0  0  0  0  0  0
  196.2310  171.0630  140.1300 C   0  0  2  0  0  3  0  0  0  0  0  0
  197.0720  170.3170  139.1140 C   0  0  0  0  0  1  0  0  0  0  0  0
  197.0410  172.0990  140.7580 N   0  0  0  0  0  2  0  0  0  0  0  0
  197.4210  173.0090  139.7590 N   0  0  0  0  0  2  0  0  0  0  0  0
  197.9360  174.2020  140.4160 C   0  0  1  0  0  3  0  0  0  0  0  0
  196.6870  175.2300  138.6360 O   0  0  0  0  0  1  0  0  0  0  0  0
  197.7200  175.4370  139.5530 C   0  0  0  0  0  2  0  0  0  0  0  0
  197.2380  174.4210  142.1020 S   0  0  0  0  0  0  0  0  0  0  0  0
  196.8350  176.1920  141.9350 C   0  0  0  0  0  2  0  0  0  0  0  0
  196.7080  176.7800  143.2550 N   0  0  0  0  0  1  0  0  0  0  0  0
  190.7990  177.9860  143.1920 C   0  0  0  0  0  2  0  0  0  0  0  0
  189.4760  176.1960  144.2660 C   0  0  0  0  0  2  0  0  0  0  0  0
  188.6560  175.3610  143.2930 C   0  0  0  0  0  2  0  0  0  0  0  0
  189.4380  177.6390  143.7840 C   0  0  2  0  0  3  0  0  0  0  0  0
  186.8770  177.3080  143.0420 C   0  0  1  0  0  0  0  0  0  0  0  0
  187.8600  176.3120  142.4090 C   0  0  1  0  0  0  0  0  0  0  0  0
  188.5020  178.5560  141.6220 O   0  0  0  0  0  1  0  0  0  0  0  0
  188.3180  177.7280  142.7390 C   0  0  2  0  0  0  0  0  0  0  0  0
  185.5870  178.0040  141.9500 S   0  0  0  0  0  1  0  0  0  0  0  0
  187.7800  176.0020  140.9150 C   0  0  0  0  0  2  0  0  0  0  0  0
  188.1970  174.6890  140.6760 O   0  0  0  0  0  1  0  0  0  0  0  0
  186.4990  177.0910  144.5050 C   0  0  0  0  0  2  0  0  0  0  0  0
  186.6290  178.2910  145.2120 O   0  0  0  0  0  0  0  0  0  0  0  0
  185.6460  179.2630  147.6100 O   0  0  0  0  0  1  0  0  0  0  0  0
  185.2800  178.3550  146.2340 P   0  0  0  0  0  0  0  0  0  0  0  0
  184.8140  176.7940  146.6950 O   0  0  0  0  0  1  0  0  0  0  0  0
  184.1370  179.0180  145.4970 O   0  0  0  0  0  0  0  0  0  0  0  0
  1 11  1  0  0  0  0
  1  7  2  0  0  0  0
  2  8  1  0  0  0  0
  3  9  1  0  0  0  0
  3 13  2  0  0  0  0
  4  5  2  0  0  0  0
  6 29  1  0  0  0  0
  6 12  2  0  0  0  0
  7  3  1  0  0  0  0
  8  5  1  0  0  0  0
  9  4  1  1  0  0  0
 10  2  1  0  0  0  0
 10  9  1  0  0  0  0
 11 10  2  0  0  0  0
 12  2  2  0  0  0  0
 14 16  2  0  0  0  0
 15  7  1  0  0  0  0
 15 16  1  0  0  0  0
 17 15  1  0  0  0  0
 18 17  1  0  0  0  0
 19 20  1  6  0  0  0
 19 21  1  0  0  0  0
 19 18  1  0  0  0  0
 22 23  1  0  0  0  0
 22 21  1  0  0  0  0
 23 25  1  6  0  0  0
 23 26  1  0  0  0  0
 24 25  1  0  0  0  0
 27 26  1  0  0  0  0
 27 28  1  0  0  0  0
 31 30  1  0  0  0  0
 32 29  1  6  0  0  0
 32 30  1  0  0  0  0
 33 37  1  6  0  0  0
 33 40  1  0  0  0  0
 34 38  1  6  0  0  0
 34 36  1  0  0  0  0
 34 33  1  0  0  0  0
 34 31  1  0  0  0  0
 36 35  1  6  0  0  0
 36 33  1  0  0  0  0
 36 32  1  0  0  0  0
 39 38  1  0  0  0  0
 40 41  1  0  0  0  0
 41 43  1  0  0  0  0
 43 44  1  0  0  0  0
 43 42  1  0  0  0  0
 45 43  2  0  0  0  0
M  END
>  <MODEL>
8

>  <REMARK>
 VINA RESULT:      -5.5      4.192     10.328
  Name = 
  16 active torsions:
  status: ('A' for Active; 'I' for Inactive)
    1  A    between atoms: S_5  and  C_9
    2  A    between atoms: S_5  and  C_35
    3  A    between atoms: C_6  and  C_14
    4  A    between atoms: C_6  and  S_28
    5  A    between atoms: C_8  and  C_27
    6  A    between atoms: P_11  and  O_16
    7  A    between atoms: C_14  and  N_40
    8  A    between atoms: O_16  and  C_20
    9  A    between atoms: N_19  and  C_26
   10  A    between atoms: N_19  and  S_28
   11  A    between atoms: C_20  and  C_25
   12  A    between atoms: C_21  and  C_37
   13  A    between atoms: C_22  and  C_37
   14  A    between atoms: C_23  and  C_35
   15  A    between atoms: N_24  and  C_35
   16  A    between atoms: N_24  and  N_40
                            x       y       z     vdW  Elec       q    Type
                         _______ _______ _______ _____ _____    ______ ____

>  <TORSDO>
F 16

$$$$
=
 OpenBabel11062420463D

 45 48  0  0  1  0  0  0  0  0999 V2000
  188.5740  175.2560  141.5770 C   0  0  0  0  0  3  0  0  0  0  0  0
  191.5770  175.4170  143.8640 C   0  0  0  0  0  0  0  0  0  0  0  0
  189.0690  177.5900  142.0100 C   0  0  0  0  0  0  0  0  0  0  0  0
  190.9620  178.1350  143.5450 C   0  0  0  0  0  3  0  0  0  0  0  0
  192.0260  177.7480  144.3580 C   0  0  0  0  0  3  0  0  0  0  0  0
  192.2900  172.9220  144.1480 C   0  0  0  0  0  3  0  0  0  0  0  0
  188.2280  176.5380  141.3680 C   0  0  0  0  0  0  0  0  0  0  0  0
  192.3340  176.3960  144.5130 C   0  0  0  0  0  3  0  0  0  0  0  0
  190.1880  177.1730  142.8840 C   0  0  0  0  0  0  0  0  0  0  0  0
  190.4860  175.7990  143.0440 C   0  0  0  0  0  0  0  0  0  0  0  0
  189.7250  174.8810  142.4190 C   0  0  0  0  0  3  0  0  0  0  0  0
  191.9300  174.1660  144.0190 C   0  0  0  0  0  0  0  0  0  0  0  0
  188.8610  178.8160  141.8030 O   0  0  0  0  0  0  0  0  0  0  0  0
  186.0920  176.6860  138.4090 O   0  0  0  0  0  0  0  0  0  0  0  0
  187.0800  176.8390  140.5380 N   0  0  0  0  0  0  0  0  0  0  0  0
  187.0330  176.3610  139.1830 C   0  0  0  0  0  3  0  0  0  0  0  0
  185.6880  177.7700  141.1340 S   0  0  0  0  0  0  0  0  0  0  0  0
  185.7550  176.9810  142.7660 C   0  0  0  0  0  2  0  0  0  0  0  0
  185.7770  178.0510  143.8460 C   0  0  2  0  0  3  0  0  0  0  0  0
  185.6580  179.4170  143.2000 C   0  0  0  0  0  1  0  0  0  0  0  0
  187.0220  177.9820  144.6000 N   0  0  0  0  0  2  0  0  0  0  0  0
  187.2370  176.6390  144.9470 N   0  0  0  0  0  2  0  0  0  0  0  0
  187.1310  176.5310  146.3960 C   0  0  1  0  0  3  0  0  0  0  0  0
  189.5080  176.2650  146.6480 O   0  0  0  0  0  1  0  0  0  0  0  0
  188.2710  175.6990  146.9650 C   0  0  0  0  0  2  0  0  0  0  0  0
  187.0190  178.1760  147.2070 S   0  0  0  0  0  0  0  0  0  0  0  0
  185.2180  178.1490  147.4910 C   0  0  0  0  0  2  0  0  0  0  0  0
  184.6750  176.9000  146.9950 N   0  0  0  0  0  1  0  0  0  0  0  0
  193.6230  172.5990  144.7300 C   0  0  0  0  0  2  0  0  0  0  0  0
  195.4790  171.2850  143.7650 C   0  0  0  0  0  2  0  0  0  0  0  0
  196.8460  171.6220  144.3430 C   0  0  0  0  0  2  0  0  0  0  0  0
  194.6940  172.5830  143.6460 C   0  0  2  0  0  3  0  0  0  0  0  0
  196.9460  173.8640  142.9340 C   0  0  1  0  0  0  0  0  0  0  0  0
  197.0240  173.1330  144.2830 C   0  0  1  0  0  0  0  0  0  0  0  0
  195.3010  174.8800  144.5090 O   0  0  0  0  0  1  0  0  0  0  0  0
  195.7000  173.7270  143.8160 C   0  0  2  0  0  0  0  0  0  0  0  0
  197.6970  175.5270  142.8500 S   0  0  0  0  0  1  0  0  0  0  0  0
  197.6400  173.8290  145.4960 C   0  0  0  0  0  2  0  0  0  0  0  0
  197.0760  173.3270  146.6730 O   0  0  0  0  0  1  0  0  0  0  0  0
  197.0090  173.0130  141.6690 C   0  0  0  0  0  2  0  0  0  0  0  0
  197.3930  173.8040  140.5820 O   0  0  0  0  0  0  0  0  0  0  0  0
  196.4350  173.7500  137.9860 O   0  0  0  0  0  0  0  0  0  0  0  0
  196.0110  173.9300  139.6100 P   0  0  0  0  0  0  0  0  0  0  0  0
  195.2650  175.4330  139.8370 O   0  0  0  0  0  1  0  0  0  0  0  0
  195.0430  172.8320  139.9900 O   0  0  0  0  0  1  0  0  0  0  0  0
  1 11  1  0  0  0  0
  2 12  2  0  0  0  0
  2  8  1  0  0  0  0
  3  9  1  0  0  0  0
  4  5  1  0  0  0  0
  5  8  2  0  0  0  0
  6 29  1  0  0  0  0
  7  1  2  0  0  0  0
  7  3  1  0  0  0  0
  9 10  1  0  0  0  0
  9  4  2  0  0  0  0
 10  2  1  0  0  0  0
 11 10  2  0  0  0  0
 12  6  2  0  0  0  0
 13  3  2  0  0  0  0
 14 16  2  0  0  0  0
 15 17  1  0  0  0  0
 15  7  1  0  0  0  0
 16 15  1  0  0  0  0
 17 18  1  0  0  0  0
 18 19  1  0  0  0  0
 19 20  1  6  0  0  0
 19 21  1  0  0  0  0
 21 22  1  0  0  0  0
 22 23  1  0  0  0  0
 23 25  1  1  0  0  0
 23 26  1  0  0  0  0
 24 25  1  0  0  0  0
 26 27  1  0  0  0  0
 28 27  1  0  0  0  0
 30 31  1  0  0  0  0
 32 30  1  0  0  0  0
 32 36  1  0  0  0  0
 32 29  1  1  0  0  0
 33 37  1  6  0  0  0
 33 36  1  0  0  0  0
 33 34  1  0  0  0  0
 34 31  1  0  0  0  0
 34 38  1  1  0  0  0
 36 34  1  0  0  0  0
 36 35  1  1  0  0  0
 38 39  1  0  0  0  0
 40 33  1  0  0  0  0
 41 40  1  0  0  0  0
 42 43  2  0  0  0  0
 43 44  1  0  0  0  0
 43 45  1  0  0  0  0
 43 41  1  0  0  0  0
M  END
>  <MODEL>
9

>  <REMARK>
 VINA RESULT:      -5.5      1.901      2.417
  Name = 
  16 active torsions:
  status: ('A' for Active; 'I' for Inactive)
    1  A    between atoms: S_5  and  C_9
    2  A    between atoms: S_5  and  C_35
    3  A    between atoms: C_6  and  C_14
    4  A    between atoms: C_6  and  S_28
    5  A    between atoms: C_8  and  C_27
    6  A    between atoms: P_11  and  O_16
    7  A    between atoms: C_14  and  N_40
    8  A    between atoms: O_16  and  C_20
    9  A    between atoms: N_19  and  C_26
   10  A    between atoms: N_19  and  S_28
   11  A    between atoms: C_20  and  C_25
   12  A    between atoms: C_21  and  C_37
   13  A    between atoms: C_22  and  C_37
   14  A    between atoms: C_23  and  C_35
   15  A    between atoms: N_24  and  C_35
   16  A    between atoms: N_24  and  N_40
                            x       y       z     vdW  Elec       q    Type
                         _______ _______ _______ _____ _____    ______ ____

>  <TORSDO>
F 16

$$$$
