=
 OpenBabel11072408483D

 26 28  0  0  1  0  0  0  0  0999 V2000
  189.2400  173.4280  142.8630 C   0  0  0  0  0  3  0  0  0  0  0  0
  189.3270  175.5140  144.0810 C   0  0  0  0  0  0  0  0  0  0  0  0
  189.7800  174.2020  143.8900 C   0  0  0  0  0  3  0  0  0  0  0  0
  188.3400  176.0380  143.2290 C   0  0  0  0  0  0  0  0  0  0  0  0
  187.8290  175.2180  142.2110 C   0  0  0  0  0  3  0  0  0  0  0  0
  188.2830  173.9480  142.0510 N   0  0  0  0  0  0  0  0  0  0  0  0
  191.4170  176.5830  144.9670 C   0  0  0  0  0  2  0  0  0  0  0  0
  189.9110  176.3620  145.1750 C   0  0  2  0  0  3  0  0  0  0  0  0
  192.1070  176.2090  146.2810 C   0  0  1  0  0  3  0  0  0  0  0  0
  191.1540  175.2190  148.2720 O   0  0  0  0  0  0  0  0  0  0  0  0
  189.7460  175.7250  146.4710 N   0  0  0  0  0  2  0  0  0  0  0  0
  191.0050  175.6660  147.1050 C   0  0  0  0  0  0  0  0  0  0  0  0
  193.2450  175.2040  146.0620 C   0  0  0  0  0  2  0  0  0  0  0  0
  194.5530  177.1520  146.5710 O   0  0  0  0  0  1  0  0  0  0  0  0
  194.6420  175.8170  146.1730 C   0  0  2  0  0  3  0  0  0  0  0  0
  194.8680  176.2730  143.8360 O   0  0  0  0  0  0  0  0  0  0  0  0
  195.3470  175.7240  144.8630 C   0  0  0  0  0  0  0  0  0  0  0  0
  196.5340  175.0080  144.7720 O   0  0  0  0  0  1  0  0  0  0  0  0
  187.8780  177.3870  143.4190 N   0  0  0  0  0  2  0  0  0  0  0  0
  186.0560  179.0530  143.7320 C   0  0  0  0  0  3  0  0  0  0  0  0
  186.1110  177.0510  145.0670 C   0  0  0  0  0  3  0  0  0  0  0  0
  184.3620  178.6250  145.3870 C   0  0  0  0  0  0  0  0  0  0  0  0
  184.8930  179.4490  144.3930 C   0  0  0  0  0  3  0  0  0  0  0  0
  186.6800  177.8430  144.0650 C   0  0  0  0  0  0  0  0  0  0  0  0
  184.9760  177.4530  145.7010 N   0  0  0  0  0  0  0  0  0  0  0  0
  183.2330  178.9940  146.0390 F   0  0  0  0  0  0  0  0  0  0  0  0
  1  3  1  0  0  0  0
  3  2  2  0  0  0  0
  4 19  1  0  0  0  0
  4  2  1  0  0  0  0
  5  4  2  0  0  0  0
  6  5  1  0  0  0  0
  6  1  2  0  0  0  0
  7  8  1  0  0  0  0
  7  9  1  0  0  0  0
  8  2  1  6  0  0  0
  8 11  1  0  0  0  0
  9 13  1  6  0  0  0
  9 12  1  0  0  0  0
 11 12  1  0  0  0  0
 12 10  2  0  0  0  0
 13 15  1  0  0  0  0
 15 14  1  6  0  0  0
 16 17  2  0  0  0  0
 17 15  1  0  0  0  0
 18 17  1  0  0  0  0
 19 24  1  0  0  0  0
 20 24  2  0  0  0  0
 20 23  1  0  0  0  0
 21 25  2  0  0  0  0
 22 25  1  0  0  0  0
 22 26  1  0  0  0  0
 23 22  2  0  0  0  0
 24 21  1  0  0  0  0
M  END
>  <MODEL>
1

>  <REMARK>
 VINA RESULT:      -6.8      0.000      0.000
  Name = 
  6 active torsions:
  status: ('A' for Active; 'I' for Inactive)
    1  A    between atoms: N_5  and  C_14
    2  A    between atoms: N_5  and  C_19
    3  A    between atoms: C_8  and  C_9
    4  A    between atoms: C_11  and  C_25
    5  A    between atoms: C_15  and  C_16
    6  A    between atoms: C_15  and  C_25
                            x       y       z     vdW  Elec       q    Type
                         _______ _______ _______ _____ _____    ______ ____

>  <TORSDO>
F 6

$$$$
=
 OpenBabel11072408483D

 26 28  0  0  1  0  0  0  0  0999 V2000
  189.3580  173.4390  142.9440 C   0  0  0  0  0  3  0  0  0  0  0  0
  189.3770  175.5090  144.1940 C   0  0  0  0  0  0  0  0  0  0  0  0
  189.8800  174.2190  143.9760 C   0  0  0  0  0  3  0  0  0  0  0  0
  188.3570  176.0050  143.3630 C   0  0  0  0  0  0  0  0  0  0  0  0
  187.8660  175.1800  142.3400 C   0  0  0  0  0  3  0  0  0  0  0  0
  188.3700  173.9320  142.1530 N   0  0  0  0  0  0  0  0  0  0  0  0
  191.4360  176.6400  145.0750 C   0  0  0  0  0  2  0  0  0  0  0  0
  189.9410  176.3620  145.2940 C   0  0  2  0  0  3  0  0  0  0  0  0
  192.1510  176.2730  146.3780 C   0  0  1  0  0  3  0  0  0  0  0  0
  191.2530  175.2250  148.3640 O   0  0  0  0  0  0  0  0  0  0  0  0
  189.8110  175.7040  146.5820 N   0  0  0  0  0  2  0  0  0  0  0  0
  191.0770  175.6810  147.2040 C   0  0  0  0  0  0  0  0  0  0  0  0
  193.3220  175.3130  146.1350 C   0  0  0  0  0  2  0  0  0  0  0  0
  194.5980  177.3230  146.4380 O   0  0  0  0  0  1  0  0  0  0  0  0
  194.6720  176.0110  145.9670 C   0  0  2  0  0  3  0  0  0  0  0  0
  195.9580  176.8020  144.1130 O   0  0  0  0  0  1  0  0  0  0  0  0
  195.0750  176.0090  144.5330 C   0  0  0  0  0  0  0  0  0  0  0  0
  194.4550  175.1370  143.6470 O   0  0  0  0  0  0  0  0  0  0  0  0
  187.8430  177.3300  143.5810 N   0  0  0  0  0  2  0  0  0  0  0  0
  186.1130  176.9590  145.3300 C   0  0  0  0  0  3  0  0  0  0  0  0
  186.0440  178.9340  143.9570 C   0  0  0  0  0  3  0  0  0  0  0  0
  184.3800  178.6040  145.6180 C   0  0  0  0  0  0  0  0  0  0  0  0
  184.9660  177.3940  145.9950 C   0  0  0  0  0  3  0  0  0  0  0  0
  186.6660  177.7300  144.2990 C   0  0  0  0  0  0  0  0  0  0  0  0
  184.9260  179.3430  144.6160 N   0  0  0  0  0  0  0  0  0  0  0  0
  183.2660  179.0420  146.2530 F   0  0  0  0  0  0  0  0  0  0  0  0
  1  3  1  0  0  0  0
  3  2  2  0  0  0  0
  4 19  1  0  0  0  0
  4  2  1  0  0  0  0
  5  4  2  0  0  0  0
  6  5  1  0  0  0  0
  6  1  2  0  0  0  0
  7  8  1  0  0  0  0
  7  9  1  0  0  0  0
  8  2  1  6  0  0  0
  8 11  1  0  0  0  0
  9 13  1  6  0  0  0
  9 12  1  0  0  0  0
 11 12  1  0  0  0  0
 12 10  2  0  0  0  0
 15 13  1  0  0  0  0
 15 14  1  6  0  0  0
 16 17  1  0  0  0  0
 17 15  1  0  0  0  0
 18 17  2  0  0  0  0
 19 24  1  0  0  0  0
 20 23  1  0  0  0  0
 21 24  1  0  0  0  0
 21 25  2  0  0  0  0
 22 23  2  0  0  0  0
 22 26  1  0  0  0  0
 24 20  2  0  0  0  0
 25 22  1  0  0  0  0
M  END
>  <MODEL>
2

>  <REMARK>
 VINA RESULT:      -6.8      0.706      1.096
  Name = 
  6 active torsions:
  status: ('A' for Active; 'I' for Inactive)
    1  A    between atoms: N_5  and  C_14
    2  A    between atoms: N_5  and  C_19
    3  A    between atoms: C_8  and  C_9
    4  A    between atoms: C_11  and  C_25
    5  A    between atoms: C_15  and  C_16
    6  A    between atoms: C_15  and  C_25
                            x       y       z     vdW  Elec       q    Type
                         _______ _______ _______ _____ _____    ______ ____

>  <TORSDO>
F 6

$$$$
=
 OpenBabel11072408483D

 26 28  0  0  1  0  0  0  0  0999 V2000
  188.0700  173.7840  141.6820 C   0  0  0  0  0  3  0  0  0  0  0  0
  188.8310  175.8990  142.5710 C   0  0  0  0  0  0  0  0  0  0  0  0
  187.7830  175.0460  142.2010 C   0  0  0  0  0  3  0  0  0  0  0  0
  190.1610  175.4680  142.4220 C   0  0  0  0  0  0  0  0  0  0  0  0
  190.3960  174.1890  141.8960 C   0  0  0  0  0  3  0  0  0  0  0  0
  189.3600  173.3840  141.5410 N   0  0  0  0  0  0  0  0  0  0  0  0
  187.9290  177.1480  144.5510 C   0  0  0  0  0  2  0  0  0  0  0  0
  188.5350  177.2560  143.1430 C   0  0  2  0  0  3  0  0  0  0  0  0
  186.6510  177.9910  144.5500 C   0  0  1  0  0  3  0  0  0  0  0  0
  185.5670  179.1110  142.7010 O   0  0  0  0  0  0  0  0  0  0  0  0
  187.5760  177.9710  142.3180 N   0  0  0  0  0  2  0  0  0  0  0  0
  186.5150  178.4080  143.1380 C   0  0  0  0  0  0  0  0  0  0  0  0
  185.4430  177.1960  145.0620 C   0  0  0  0  0  2  0  0  0  0  0  0
  184.0860  179.0790  145.6740 O   0  0  0  0  0  1  0  0  0  0  0  0
  184.6580  177.9050  146.1660 C   0  0  2  0  0  3  0  0  0  0  0  0
  185.7930  179.4150  147.6330 O   0  0  0  0  0  0  0  0  0  0  0  0
  185.5570  178.2200  147.3120 C   0  0  0  0  0  0  0  0  0  0  0  0
  186.1550  177.1850  148.0200 O   0  0  0  0  0  1  0  0  0  0  0  0
  191.2390  176.3390  142.8070 N   0  0  0  0  0  2  0  0  0  0  0  0
  191.7860  176.2020  145.2300 C   0  0  0  0  0  3  0  0  0  0  0  0
  193.5300  176.0170  143.5830 C   0  0  0  0  0  3  0  0  0  0  0  0
  194.0790  175.8850  145.8890 C   0  0  0  0  0  0  0  0  0  0  0  0
  192.7370  176.0510  146.2390 C   0  0  0  0  0  3  0  0  0  0  0  0
  192.1760  176.1870  143.8840 C   0  0  0  0  0  0  0  0  0  0  0  0
  194.4440  175.8710  144.5790 N   0  0  0  0  0  0  0  0  0  0  0  0
  195.0160  175.7360  146.8550 F   0  0  0  0  0  0  0  0  0  0  0  0
  1  3  1  0  0  0  0
  3  2  2  0  0  0  0
  4  2  1  0  0  0  0
  4 19  1  0  0  0  0
  5  4  2  0  0  0  0
  6  1  2  0  0  0  0
  6  5  1  0  0  0  0
  8  2  1  6  0  0  0
  8  7  1  0  0  0  0
  9  7  1  0  0  0  0
  9 13  1  6  0  0  0
 10 12  2  0  0  0  0
 11 12  1  0  0  0  0
 11  8  1  0  0  0  0
 12  9  1  0  0  0  0
 13 15  1  0  0  0  0
 15 14  1  6  0  0  0
 15 17  1  0  0  0  0
 17 16  2  0  0  0  0
 17 18  1  0  0  0  0
 19 24  1  0  0  0  0
 20 23  1  0  0  0  0
 21 24  1  0  0  0  0
 21 25  2  0  0  0  0
 22 23  2  0  0  0  0
 22 26  1  0  0  0  0
 24 20  2  0  0  0  0
 25 22  1  0  0  0  0
M  END
>  <MODEL>
3

>  <REMARK>
 VINA RESULT:      -6.8      4.546      7.393
  Name = 
  6 active torsions:
  status: ('A' for Active; 'I' for Inactive)
    1  A    between atoms: N_5  and  C_14
    2  A    between atoms: N_5  and  C_19
    3  A    between atoms: C_8  and  C_9
    4  A    between atoms: C_11  and  C_25
    5  A    between atoms: C_15  and  C_16
    6  A    between atoms: C_15  and  C_25
                            x       y       z     vdW  Elec       q    Type
                         _______ _______ _______ _____ _____    ______ ____

>  <TORSDO>
F 6

$$$$
=
 OpenBabel11072408483D

 26 28  0  0  1  0  0  0  0  0999 V2000
  187.9680  173.1300  142.0040 C   0  0  0  0  0  3  0  0  0  0  0  0
  188.5900  175.4460  142.3130 C   0  0  0  0  0  0  0  0  0  0  0  0
  187.7430  174.4820  141.7500 C   0  0  0  0  0  3  0  0  0  0  0  0
  189.6530  175.0360  143.1380 C   0  0  0  0  0  0  0  0  0  0  0  0
  189.8370  173.6640  143.3620 C   0  0  0  0  0  3  0  0  0  0  0  0
  189.0020  172.7510  142.7990 N   0  0  0  0  0  0  0  0  0  0  0  0
  187.6140  177.5650  143.2350 C   0  0  0  0  0  2  0  0  0  0  0  0
  188.3490  176.9050  142.0570 C   0  0  2  0  0  3  0  0  0  0  0  0
  186.4100  178.3060  142.6470 C   0  0  1  0  0  3  0  0  0  0  0  0
  185.5850  178.3070  140.3730 O   0  0  0  0  0  0  0  0  0  0  0  0
  187.5260  177.0980  140.8760 N   0  0  0  0  0  2  0  0  0  0  0  0
  186.4330  177.9210  141.2190 C   0  0  0  0  0  0  0  0  0  0  0  0
  185.1040  177.9220  143.3530 C   0  0  0  0  0  2  0  0  0  0  0  0
  185.2740  180.1680  144.1840 O   0  0  0  0  0  1  0  0  0  0  0  0
  184.6370  178.9430  144.3910 C   0  0  2  0  0  3  0  0  0  0  0  0
  184.0230  177.9240  146.4660 O   0  0  0  0  0  1  0  0  0  0  0  0
  184.9300  178.4460  145.7650 C   0  0  0  0  0  0  0  0  0  0  0  0
  186.2120  178.5780  146.2840 O   0  0  0  0  0  0  0  0  0  0  0  0
  190.5210  176.0230  143.7220 N   0  0  0  0  0  2  0  0  0  0  0  0
  189.7490  176.9480  145.8990 C   0  0  0  0  0  3  0  0  0  0  0  0
  191.9500  175.9950  145.7000 C   0  0  0  0  0  3  0  0  0  0  0  0
  191.2380  176.8720  147.7880 C   0  0  0  0  0  0  0  0  0  0  0  0
  190.0020  177.2230  147.2430 C   0  0  0  0  0  3  0  0  0  0  0  0
  190.7270  176.3280  145.1100 C   0  0  0  0  0  0  0  0  0  0  0  0
  192.1780  176.2700  147.0120 N   0  0  0  0  0  0  0  0  0  0  0  0
  191.5000  177.1310  149.0920 F   0  0  0  0  0  0  0  0  0  0  0  0
  1  6  1  0  0  0  0
  2  4  2  0  0  0  0
  3  1  2  0  0  0  0
  3  2  1  0  0  0  0
  4  5  1  0  0  0  0
  4 19  1  0  0  0  0
  6  5  2  0  0  0  0
  8  2  1  1  0  0  0
  8  7  1  0  0  0  0
  9  7  1  0  0  0  0
  9 13  1  1  0  0  0
 10 12  2  0  0  0  0
 11 12  1  0  0  0  0
 11  8  1  0  0  0  0
 12  9  1  0  0  0  0
 13 15  1  0  0  0  0
 15 14  1  6  0  0  0
 15 17  1  0  0  0  0
 17 18  2  0  0  0  0
 17 16  1  0  0  0  0
 19 24  1  0  0  0  0
 20 23  1  0  0  0  0
 21 25  2  0  0  0  0
 22 26  1  0  0  0  0
 23 22  2  0  0  0  0
 24 21  1  0  0  0  0
 24 20  2  0  0  0  0
 25 22  1  0  0  0  0
M  END
>  <MODEL>
4

>  <REMARK>
 VINA RESULT:      -6.7      4.316      7.043
  Name = 
  6 active torsions:
  status: ('A' for Active; 'I' for Inactive)
    1  A    between atoms: N_5  and  C_14
    2  A    between atoms: N_5  and  C_19
    3  A    between atoms: C_8  and  C_9
    4  A    between atoms: C_11  and  C_25
    5  A    between atoms: C_15  and  C_16
    6  A    between atoms: C_15  and  C_25
                            x       y       z     vdW  Elec       q    Type
                         _______ _______ _______ _____ _____    ______ ____

>  <TORSDO>
F 6

$$$$
=
 OpenBabel11072408483D

 26 28  0  0  1  0  0  0  0  0999 V2000
  186.5640  177.3390  147.3540 C   0  0  0  0  0  3  0  0  0  0  0  0
  187.1090  177.4460  145.0010 C   0  0  0  0  0  0  0  0  0  0  0  0
  187.3090  176.8810  146.2680 C   0  0  0  0  0  3  0  0  0  0  0  0
  186.1520  178.4640  144.8390 C   0  0  0  0  0  0  0  0  0  0  0  0
  185.4300  178.8890  145.9640 C   0  0  0  0  0  3  0  0  0  0  0  0
  185.6470  178.3260  147.1810 N   0  0  0  0  0  0  0  0  0  0  0  0
  188.5060  175.5690  144.0970 C   0  0  0  0  0  2  0  0  0  0  0  0
  187.8960  176.9520  143.8220 C   0  0  2  0  0  3  0  0  0  0  0  0
  189.9960  175.6660  143.7590 C   0  0  1  0  0  3  0  0  0  0  0  0
  191.2950  177.6120  143.1460 O   0  0  0  0  0  0  0  0  0  0  0  0
  188.9950  177.8510  143.5140 N   0  0  0  0  0  2  0  0  0  0  0  0
  190.1870  177.1010  143.4570 C   0  0  0  0  0  0  0  0  0  0  0  0
  190.8760  175.1720  144.9150 C   0  0  0  0  0  2  0  0  0  0  0  0
  192.1110  176.6650  146.3310 O   0  0  0  0  0  1  0  0  0  0  0  0
  190.8560  176.0830  146.1420 C   0  0  2  0  0  3  0  0  0  0  0  0
  191.1920  175.3240  148.3840 O   0  0  0  0  0  1  0  0  0  0  0  0
  190.4710  175.3040  147.3520 C   0  0  0  0  0  0  0  0  0  0  0  0
  189.3160  174.5320  147.3330 O   0  0  0  0  0  0  0  0  0  0  0  0
  185.9410  179.0410  143.5390 N   0  0  0  0  0  2  0  0  0  0  0  0
  183.6050  178.6640  142.7690 C   0  0  0  0  0  3  0  0  0  0  0  0
  185.4510  178.2860  141.2720 C   0  0  0  0  0  3  0  0  0  0  0  0
  183.2320  177.9180  140.5120 C   0  0  0  0  0  0  0  0  0  0  0  0
  182.7210  178.2890  141.7560 C   0  0  0  0  0  3  0  0  0  0  0  0
  184.9870  178.6660  142.5350 C   0  0  0  0  0  0  0  0  0  0  0  0
  184.5750  177.9240  140.2970 N   0  0  0  0  0  0  0  0  0  0  0  0
  182.3890  177.5510  139.5170 F   0  0  0  0  0  0  0  0  0  0  0  0
  2  3  1  0  0  0  0
  3  1  2  0  0  0  0
  4  2  2  0  0  0  0
  4  5  1  0  0  0  0
  5  6  2  0  0  0  0
  6  1  1  0  0  0  0
  8  7  1  0  0  0  0
  8  2  1  1  0  0  0
  9  7  1  0  0  0  0
  9 13  1  1  0  0  0
 10 12  2  0  0  0  0
 11  8  1  0  0  0  0
 12 11  1  0  0  0  0
 12  9  1  0  0  0  0
 13 15  1  0  0  0  0
 15 14  1  1  0  0  0
 15 17  1  0  0  0  0
 17 16  1  0  0  0  0
 18 17  2  0  0  0  0
 19  4  1  0  0  0  0
 21 24  2  0  0  0  0
 22 23  1  0  0  0  0
 23 20  2  0  0  0  0
 24 20  1  0  0  0  0
 24 19  1  0  0  0  0
 25 22  2  0  0  0  0
 25 21  1  0  0  0  0
 26 22  1  0  0  0  0
M  END
>  <MODEL>
5

>  <REMARK>
 VINA RESULT:      -6.6      2.750      4.643
  Name = 
  6 active torsions:
  status: ('A' for Active; 'I' for Inactive)
    1  A    between atoms: N_5  and  C_14
    2  A    between atoms: N_5  and  C_19
    3  A    between atoms: C_8  and  C_9
    4  A    between atoms: C_11  and  C_25
    5  A    between atoms: C_15  and  C_16
    6  A    between atoms: C_15  and  C_25
                            x       y       z     vdW  Elec       q    Type
                         _______ _______ _______ _____ _____    ______ ____

>  <TORSDO>
F 6

$$$$
=
 OpenBabel11072408483D

 26 28  0  0  1  0  0  0  0  0999 V2000
  187.4360  176.2900  147.1900 C   0  0  0  0  0  3  0  0  0  0  0  0
  187.9460  177.4660  145.1400 C   0  0  0  0  0  0  0  0  0  0  0  0
  188.3360  176.6010  146.1700 C   0  0  0  0  0  3  0  0  0  0  0  0
  186.6470  178.0050  145.1410 C   0  0  0  0  0  0  0  0  0  0  0  0
  185.7810  177.6620  146.1900 C   0  0  0  0  0  3  0  0  0  0  0  0
  186.1870  176.8230  147.1790 N   0  0  0  0  0  0  0  0  0  0  0  0
  189.0610  176.6150  143.0590 C   0  0  0  0  0  2  0  0  0  0  0  0
  188.9010  177.7970  144.0290 C   0  0  2  0  0  3  0  0  0  0  0  0
  190.5630  176.3660  142.9070 C   0  0  1  0  0  3  0  0  0  0  0  0
  192.4050  177.3930  144.0930 O   0  0  0  0  0  0  0  0  0  0  0  0
  190.2220  178.1030  144.5520 N   0  0  0  0  0  2  0  0  0  0  0  0
  191.1670  177.2960  143.8860 C   0  0  0  0  0  0  0  0  0  0  0  0
  190.9280  174.8990  143.1680 C   0  0  0  0  0  2  0  0  0  0  0  0
  190.0120  173.6970  145.0330 O   0  0  0  0  0  1  0  0  0  0  0  0
  189.7690  174.0590  143.7070 C   0  0  2  0  0  3  0  0  0  0  0  0
  190.1310  172.7520  141.7380 O   0  0  0  0  0  0  0  0  0  0  0  0
  189.5910  172.8380  142.8720 C   0  0  0  0  0  0  0  0  0  0  0  0
  188.8060  171.7930  143.3430 O   0  0  0  0  0  1  0  0  0  0  0  0
  186.2420  178.8890  144.0820 N   0  0  0  0  0  2  0  0  0  0  0  0
  185.9620  178.4380  141.6510 C   0  0  0  0  0  3  0  0  0  0  0  0
  184.0440  178.4820  143.1030 C   0  0  0  0  0  3  0  0  0  0  0  0
  183.7500  178.0490  140.7880 C   0  0  0  0  0  0  0  0  0  0  0  0
  185.1250  178.1600  140.5710 C   0  0  0  0  0  3  0  0  0  0  0  0
  185.4270  178.6020  142.9360 C   0  0  0  0  0  0  0  0  0  0  0  0
  183.2430  178.2100  142.0390 N   0  0  0  0  0  0  0  0  0  0  0  0
  182.9210  177.7800  139.7500 F   0  0  0  0  0  0  0  0  0  0  0  0
  2  4  2  0  0  0  0
  2  3  1  0  0  0  0
  3  1  2  0  0  0  0
  4  5  1  0  0  0  0
  5  6  2  0  0  0  0
  6  1  1  0  0  0  0
  7  8  1  0  0  0  0
  8 11  1  0  0  0  0
  8  2  1  1  0  0  0
  9  7  1  0  0  0  0
  9 13  1  1  0  0  0
  9 12  1  0  0  0  0
 12 10  2  0  0  0  0
 12 11  1  0  0  0  0
 13 15  1  0  0  0  0
 15 14  1  1  0  0  0
 16 17  2  0  0  0  0
 17 18  1  0  0  0  0
 17 15  1  0  0  0  0
 19  4  1  0  0  0  0
 20 24  1  0  0  0  0
 22 25  2  0  0  0  0
 23 22  1  0  0  0  0
 23 20  2  0  0  0  0
 24 21  2  0  0  0  0
 24 19  1  0  0  0  0
 25 21  1  0  0  0  0
 26 22  1  0  0  0  0
M  END
>  <MODEL>
6

>  <REMARK>
 VINA RESULT:      -6.6      3.053      4.631
  Name = 
  6 active torsions:
  status: ('A' for Active; 'I' for Inactive)
    1  A    between atoms: N_5  and  C_14
    2  A    between atoms: N_5  and  C_19
    3  A    between atoms: C_8  and  C_9
    4  A    between atoms: C_11  and  C_25
    5  A    between atoms: C_15  and  C_16
    6  A    between atoms: C_15  and  C_25
                            x       y       z     vdW  Elec       q    Type
                         _______ _______ _______ _____ _____    ______ ____

>  <TORSDO>
F 6

$$$$
=
 OpenBabel11072408483D

 26 28  0  0  1  0  0  0  0  0999 V2000
  189.0920  174.9920  147.2020 C   0  0  0  0  0  3  0  0  0  0  0  0
  189.7420  176.3680  145.3230 C   0  0  0  0  0  0  0  0  0  0  0  0
  188.7550  175.6700  146.0310 C   0  0  0  0  0  3  0  0  0  0  0  0
  191.0620  176.3830  145.8080 C   0  0  0  0  0  0  0  0  0  0  0  0
  191.3500  175.6850  146.9910 C   0  0  0  0  0  3  0  0  0  0  0  0
  190.3730  175.0140  147.6540 N   0  0  0  0  0  0  0  0  0  0  0  0
  188.0660  177.8800  144.2290 C   0  0  0  0  0  2  0  0  0  0  0  0
  189.3880  177.1130  144.0690 C   0  0  2  0  0  3  0  0  0  0  0  0
  187.1830  177.4980  143.0390 C   0  0  1  0  0  3  0  0  0  0  0  0
  187.5770  175.8420  141.3210 O   0  0  0  0  0  0  0  0  0  0  0  0
  189.2190  176.2000  142.9510 N   0  0  0  0  0  2  0  0  0  0  0  0
  187.9650  176.4460  142.3550 C   0  0  0  0  0  0  0  0  0  0  0  0
  185.7960  177.0210  143.4880 C   0  0  0  0  0  2  0  0  0  0  0  0
  184.8930  178.6110  141.9340 O   0  0  0  0  0  1  0  0  0  0  0  0
  184.6700  178.0040  143.1710 C   0  0  2  0  0  3  0  0  0  0  0  0
  185.1960  180.1360  144.1180 O   0  0  0  0  0  0  0  0  0  0  0  0
  184.5820  179.0430  144.2360 C   0  0  0  0  0  0  0  0  0  0  0  0
  183.8320  178.7930  145.3780 O   0  0  0  0  0  1  0  0  0  0  0  0
  192.0770  177.1040  145.0870 N   0  0  0  0  0  2  0  0  0  0  0  0
  194.5160  176.6310  144.9640 C   0  0  0  0  0  3  0  0  0  0  0  0
  193.0710  176.0240  143.1380 C   0  0  0  0  0  3  0  0  0  0  0  0
  195.3950  175.5630  142.9950 C   0  0  0  0  0  0  0  0  0  0  0  0
  195.6050  176.1170  144.2590 C   0  0  0  0  0  3  0  0  0  0  0  0
  193.2310  176.5900  144.4070 C   0  0  0  0  0  0  0  0  0  0  0  0
  194.1430  175.5280  142.4650 N   0  0  0  0  0  0  0  0  0  0  0  0
  196.4400  175.0580  142.2960 F   0  0  0  0  0  0  0  0  0  0  0  0
  1  6  1  0  0  0  0
  2  4  2  0  0  0  0
  2  3  1  0  0  0  0
  3  1  2  0  0  0  0
  4  5  1  0  0  0  0
  5  6  2  0  0  0  0
  8  7  1  0  0  0  0
  8  2  1  1  0  0  0
  9 13  1  1  0  0  0
  9  7  1  0  0  0  0
 10 12  2  0  0  0  0
 11  8  1  0  0  0  0
 12 11  1  0  0  0  0
 12  9  1  0  0  0  0
 15 14  1  6  0  0  0
 15 13  1  0  0  0  0
 15 17  1  0  0  0  0
 16 17  2  0  0  0  0
 17 18  1  0  0  0  0
 19  4  1  0  0  0  0
 21 24  2  0  0  0  0
 22 23  1  0  0  0  0
 23 20  2  0  0  0  0
 24 20  1  0  0  0  0
 24 19  1  0  0  0  0
 25 22  2  0  0  0  0
 25 21  1  0  0  0  0
 26 22  1  0  0  0  0
M  END
>  <MODEL>
7

>  <REMARK>
 VINA RESULT:      -6.5      4.771      8.196
  Name = 
  6 active torsions:
  status: ('A' for Active; 'I' for Inactive)
    1  A    between atoms: N_5  and  C_14
    2  A    between atoms: N_5  and  C_19
    3  A    between atoms: C_8  and  C_9
    4  A    between atoms: C_11  and  C_25
    5  A    between atoms: C_15  and  C_16
    6  A    between atoms: C_15  and  C_25
                            x       y       z     vdW  Elec       q    Type
                         _______ _______ _______ _____ _____    ______ ____

>  <TORSDO>
F 6

$$$$
=
 OpenBabel11072408483D

 26 28  0  0  1  0  0  0  0  0999 V2000
  187.4730  176.2880  142.2990 C   0  0  0  0  0  3  0  0  0  0  0  0
  187.5760  176.2930  144.7150 C   0  0  0  0  0  0  0  0  0  0  0  0
  186.8540  176.4950  143.5310 C   0  0  0  0  0  3  0  0  0  0  0  0
  188.9170  175.8750  144.6450 C   0  0  0  0  0  0  0  0  0  0  0  0
  189.4940  175.6820  143.3820 C   0  0  0  0  0  3  0  0  0  0  0  0
  188.7710  175.8890  142.2500 N   0  0  0  0  0  0  0  0  0  0  0  0
  185.3870  176.5730  145.9070 C   0  0  0  0  0  2  0  0  0  0  0  0
  186.9150  176.4990  146.0470 C   0  0  2  0  0  3  0  0  0  0  0  0
  184.9350  177.8450  146.6290 C   0  0  1  0  0  3  0  0  0  0  0  0
  186.2830  179.5960  147.6130 O   0  0  0  0  0  0  0  0  0  0  0  0
  187.3500  177.7440  146.6570 N   0  0  0  0  0  2  0  0  0  0  0  0
  186.2090  178.4950  147.0080 C   0  0  0  0  0  0  0  0  0  0  0  0
  184.0530  178.7250  145.7350 C   0  0  0  0  0  2  0  0  0  0  0  0
  185.0710  180.3250  144.2620 O   0  0  0  0  0  1  0  0  0  0  0  0
  184.6480  178.9970  144.3530 C   0  0  2  0  0  3  0  0  0  0  0  0
  182.4650  179.1650  143.3920 O   0  0  0  0  0  1  0  0  0  0  0  0
  183.6360  178.7140  143.2960 C   0  0  0  0  0  0  0  0  0  0  0  0
  183.9850  177.9290  142.2050 O   0  0  0  0  0  0  0  0  0  0  0  0
  189.6600  175.6610  145.8590 N   0  0  0  0  0  2  0  0  0  0  0  0
  191.7850  174.3820  145.6670 C   0  0  0  0  0  3  0  0  0  0  0  0
  191.7880  176.6050  146.5880 C   0  0  0  0  0  3  0  0  0  0  0  0
  193.8300  175.4060  146.4170 C   0  0  0  0  0  0  0  0  0  0  0  0
  193.1650  174.3120  145.8580 C   0  0  0  0  0  3  0  0  0  0  0  0
  191.0790  175.5360  146.0320 C   0  0  0  0  0  0  0  0  0  0  0  0
  193.1340  176.5200  146.7660 N   0  0  0  0  0  0  0  0  0  0  0  0
  195.1700  175.3560  146.6090 F   0  0  0  0  0  0  0  0  0  0  0  0
  1  3  1  0  0  0  0
  3  2  2  0  0  0  0
  4  2  1  0  0  0  0
  4 19  1  0  0  0  0
  5  4  2  0  0  0  0
  6  1  2  0  0  0  0
  6  5  1  0  0  0  0
  7  8  1  0  0  0  0
  7  9  1  0  0  0  0
  8  2  1  6  0  0  0
  8 11  1  0  0  0  0
  9 13  1  6  0  0  0
  9 12  1  0  0  0  0
 11 12  1  0  0  0  0
 12 10  2  0  0  0  0
 15 14  1  1  0  0  0
 15 13  1  0  0  0  0
 17 16  1  0  0  0  0
 17 15  1  0  0  0  0
 18 17  2  0  0  0  0
 19 24  1  0  0  0  0
 20 23  2  0  0  0  0
 20 24  1  0  0  0  0
 21 25  1  0  0  0  0
 22 26  1  0  0  0  0
 22 25  2  0  0  0  0
 23 22  1  0  0  0  0
 24 21  2  0  0  0  0
M  END
>  <MODEL>
8

>  <REMARK>
 VINA RESULT:      -6.5      4.611      7.799
  Name = 
  6 active torsions:
  status: ('A' for Active; 'I' for Inactive)
    1  A    between atoms: N_5  and  C_14
    2  A    between atoms: N_5  and  C_19
    3  A    between atoms: C_8  and  C_9
    4  A    between atoms: C_11  and  C_25
    5  A    between atoms: C_15  and  C_16
    6  A    between atoms: C_15  and  C_25
                            x       y       z     vdW  Elec       q    Type
                         _______ _______ _______ _____ _____    ______ ____

>  <TORSDO>
F 6

$$$$
=
 OpenBabel11072408483D

 26 28  0  0  1  0  0  0  0  0999 V2000
  188.8800  174.8380  141.7080 C   0  0  0  0  0  3  0  0  0  0  0  0
  187.8780  176.7240  142.8420 C   0  0  0  0  0  0  0  0  0  0  0  0
  188.7230  175.6060  142.8610 C   0  0  0  0  0  3  0  0  0  0  0  0
  187.2050  177.0630  141.6560 C   0  0  0  0  0  0  0  0  0  0  0  0
  187.3960  176.2580  140.5230 C   0  0  0  0  0  3  0  0  0  0  0  0
  188.2180  175.1780  140.5710 N   0  0  0  0  0  0  0  0  0  0  0  0
  188.9270  177.4360  145.0070 C   0  0  0  0  0  2  0  0  0  0  0  0
  187.7130  177.5660  144.0740 C   0  0  2  0  0  3  0  0  0  0  0  0
  188.3850  177.1010  146.3990 C   0  0  1  0  0  3  0  0  0  0  0  0
  186.1140  176.6030  147.0680 O   0  0  0  0  0  0  0  0  0  0  0  0
  186.5440  177.1540  144.8330 N   0  0  0  0  0  2  0  0  0  0  0  0
  186.9360  176.9150  146.1670 C   0  0  0  0  0  0  0  0  0  0  0  0
  189.0630  175.8600  146.9920 C   0  0  0  0  0  2  0  0  0  0  0  0
  190.1040  174.0800  145.7630 O   0  0  0  0  0  1  0  0  0  0  0  0
  190.2890  175.3900  146.2080 C   0  0  2  0  0  3  0  0  0  0  0  0
  192.6200  175.7820  146.5730 O   0  0  0  0  0  0  0  0  0  0  0  0
  191.5050  175.4660  147.0670 C   0  0  0  0  0  0  0  0  0  0  0  0
  191.4100  175.1680  148.4200 O   0  0  0  0  0  1  0  0  0  0  0  0
  186.3420  178.2140  141.6310 N   0  0  0  0  0  2  0  0  0  0  0  0
  184.1960  178.1090  140.3760 C   0  0  0  0  0  3  0  0  0  0  0  0
  184.1910  178.4630  142.7560 C   0  0  0  0  0  3  0  0  0  0  0  0
  182.1300  178.3680  141.5820 C   0  0  0  0  0  0  0  0  0  0  0  0
  182.8020  178.1630  140.3760 C   0  0  0  0  0  3  0  0  0  0  0  0
  184.9080  178.2600  141.5730 C   0  0  0  0  0  0  0  0  0  0  0  0
  182.8320  178.5120  142.7370 N   0  0  0  0  0  0  0  0  0  0  0  0
  180.7760  178.4220  141.6010 F   0  0  0  0  0  0  0  0  0  0  0  0
  1  3  1  0  0  0  0
  2  3  2  0  0  0  0
  4  2  1  0  0  0  0
  5  6  1  0  0  0  0
  5  4  2  0  0  0  0
  6  1  2  0  0  0  0
  7  9  1  0  0  0  0
  8  2  1  6  0  0  0
  8 11  1  0  0  0  0
  8  7  1  0  0  0  0
  9 13  1  6  0  0  0
 11 12  1  0  0  0  0
 12  9  1  0  0  0  0
 12 10  2  0  0  0  0
 15 14  1  1  0  0  0
 15 13  1  0  0  0  0
 15 17  1  0  0  0  0
 16 17  2  0  0  0  0
 17 18  1  0  0  0  0
 19  4  1  0  0  0  0
 20 24  1  0  0  0  0
 22 26  1  0  0  0  0
 22 25  2  0  0  0  0
 23 20  2  0  0  0  0
 23 22  1  0  0  0  0
 24 19  1  0  0  0  0
 24 21  2  0  0  0  0
 25 21  1  0  0  0  0
M  END
>  <MODEL>
9

>  <REMARK>
 VINA RESULT:      -6.4      2.689      3.831
  Name = 
  6 active torsions:
  status: ('A' for Active; 'I' for Inactive)
    1  A    between atoms: N_5  and  C_14
    2  A    between atoms: N_5  and  C_19
    3  A    between atoms: C_8  and  C_9
    4  A    between atoms: C_11  and  C_25
    5  A    between atoms: C_15  and  C_16
    6  A    between atoms: C_15  and  C_25
                            x       y       z     vdW  Elec       q    Type
                         _______ _______ _______ _____ _____    ______ ____

>  <TORSDO>
F 6

$$$$
