=
 OpenBabel11072409413D

 70 75  0  0  1  0  0  0  0  0999 V2000
  191.8630  172.8720  139.8710 C   0  0  1  0  0  3  0  0  0  0  0  0
  190.8290  173.1240  140.9780 C   0  0  1  0  0  3  0  0  0  0  0  0
  188.2280  174.0410  138.4030 O   0  0  0  0  0  1  0  0  0  0  0  0
  191.3340  172.0730  138.8310 O   0  0  0  0  0  0  0  0  0  0  0  0
  192.3850  174.0720  139.3750 O   0  0  0  0  0  1  0  0  0  0  0  0
  189.4530  173.5470  140.4250 C   0  0  2  0  0  3  0  0  0  0  0  0
  190.2530  172.6950  138.1430 C   0  0  2  0  0  3  0  0  0  0  0  0
  189.5070  173.8080  138.9210 C   0  0  1  0  0  3  0  0  0  0  0  0
  188.3010  174.8080  142.5280 S   0  0  0  0  0  0  0  0  0  0  0  0
  189.0540  174.8190  141.1020 C   0  0  0  0  0  2  0  0  0  0  0  0
  188.0950  176.5680  142.9050 C   0  0  1  0  0  3  0  0  0  0  0  0
  185.4440  176.5380  144.7580 O   0  0  0  0  0  0  0  0  0  0  0  0
  185.8010  176.0520  143.5340 O   0  0  0  0  0  0  0  0  0  0  0  0
  184.9450  178.6870  143.6330 C   0  0  2  0  0  0  0  0  0  0  0  0
  184.1020  178.0550  142.7150 O   0  0  0  0  0  1  0  0  0  0  0  0
  186.2280  177.0460  141.4980 O   0  0  0  0  0  1  0  0  0  0  0  0
  186.4530  178.4070  143.4930 C   0  0  1  0  0  3  0  0  0  0  0  0
  184.9800  177.8690  144.8830 C   0  0  0  0  0  0  0  0  0  0  0  0
  186.6170  177.0100  142.8410 C   0  0  2  0  0  0  0  0  0  0  0  0
  184.5580  178.3160  145.9840 O   0  0  0  0  0  0  0  0  0  0  0  0
  185.8790  179.4720  142.8790 O   0  0  0  0  0  0  0  0  0  0  0  0
  188.7530  176.8550  144.2570 C   0  0  0  0  0  2  0  0  0  0  0  0
  189.9000  175.9020  144.5480 C   0  0  0  0  0  2  0  0  0  0  0  0
  191.0760  176.4110  143.9950 O   0  0  0  0  0  0  0  0  0  0  0  0
  193.0300  177.3720  144.6680 O   0  0  0  0  0  1  0  0  0  0  0  0
  191.7300  177.0370  145.0560 C   0  0  0  0  0  2  0  0  0  0  0  0
  189.4580  171.3910  141.9920 O   0  0  0  0  0  1  0  0  0  0  0  0
  190.7580  171.9030  141.9110 C   0  0  2  0  0  3  0  0  0  0  0  0
  192.6560  171.4790  143.5880 C   0  0  0  0  0  0  0  0  0  0  0  0
  193.2560  170.7590  142.5530 O   0  0  0  0  0  1  0  0  0  0  0  0
  192.6190  172.9870  143.3700 C   0  0  1  0  0  3  0  0  0  0  0  0
  191.3260  172.1540  143.3080 C   0  0  1  0  0  0  0  0  0  0  0  0
  192.9230  171.0500  144.8910 O   0  0  0  0  0  1  0  0  0  0  0  0
  190.3720  172.2020  144.4990 C   0  0  0  0  0  1  0  0  0  0  0  0
  192.7190  173.6730  144.5860 O   0  0  0  0  0  0  0  0  0  0  0  0
  194.0440  174.1070  144.6530 C   0  0  0  0  0  2  0  0  0  0  0  0
  194.5990  174.2930  143.2740 C   0  0  0  0  0  3  0  0  0  0  0  0
  195.8240  174.7650  143.0060 C   0  0  0  0  0  0  0  0  0  0  0  0
  197.0140  175.3430  138.9250 C   0  0  0  0  0  0  0  0  0  0  0  0
  197.5270  175.4060  141.2900 C   0  0  0  0  0  3  0  0  0  0  0  0
  196.2290  174.9710  141.5970 C   0  0  0  0  0  0  0  0  0  0  0  0
  197.9190  175.5920  139.9630 C   0  0  0  0  0  3  0  0  0  0  0  0
  195.7140  174.9220  139.2210 C   0  0  0  0  0  3  0  0  0  0  0  0
  195.3230  174.7410  140.5500 C   0  0  0  0  0  3  0  0  0  0  0  0
  197.4280  175.5060  137.5030 C   0  0  0  0  0  2  0  0  0  0  0  0
  196.3410  174.9800  136.5810 C   0  0  0  0  0  2  0  0  0  0  0  0
  196.9320  174.0040  135.5810 C   0  0  0  0  0  2  0  0  0  0  0  0
  196.0740  172.9120  135.4220 O   0  0  0  0  0  0  0  0  0  0  0  0
  196.3370  172.0890  136.5180 C   0  0  0  0  0  2  0  0  0  0  0  0
  194.7700  171.7060  138.2780 O   0  0  0  0  0  1  0  0  0  0  0  0
  195.0620  171.3840  136.9520 C   0  0  0  0  0  2  0  0  0  0  0  0
  196.7550  175.1610  144.1260 C   0  0  0  0  0  2  0  0  0  0  0  0
  196.8210  172.0480  145.9780 C   0  0  0  0  0  2  0  0  0  0  0  0
  197.6120  172.7800  143.8130 C   0  0  0  0  0  2  0  0  0  0  0  0
  197.5790  171.5900  144.7490 C   0  0  2  0  0  3  0  0  0  0  0  0
  197.0600  173.5420  146.0780 C   0  0  0  0  0  2  0  0  0  0  0  0
  197.5620  173.9970  144.7160 C   0  0  2  0  0  3  0  0  0  0  0  0
  196.9330  170.4340  144.1250 N   0  0  0  0  0  0  0  0  0  0  0  0
  196.5320  169.2850  144.9240 C   0  0  0  0  0  1  0  0  0  0  0  0
  196.4880  169.2180  142.0790 C   0  0  0  0  0  2  0  0  0  0  0  0
  196.7290  170.3650  142.7060 C   0  0  0  0  0  3  0  0  0  0  0  0
  189.3110  171.6280  137.5680 C   0  0  1  0  0  3  0  0  0  0  0  0
  189.5170  171.4800  136.0670 C   0  0  0  0  0  2  0  0  0  0  0  0
  190.6210  172.3610  135.5910 C   0  0  0  0  0  0  0  0  0  0  0  0
  191.7950  171.9060  135.5050 O   0  0  0  0  0  0  0  0  0  0  0  0
  190.3290  173.7190  135.2370 N   0  0  0  0  0  0  0  0  0  0  0  0
  189.2700  174.0460  134.5710 C   0  0  0  0  0  2  0  0  0  0  0  0
  189.5400  170.3470  138.2150 N   0  0  0  0  0  2  0  0  0  0  0  0
  190.2310  169.3290  137.5460 C   0  0  0  0  0  0  0  0  0  0  0  0
  190.8040  168.4850  136.9970 N   0  0  0  0  0  0  0  0  0  0  0  0
  1  5  1  6  0  0  0
  1  2  1  0  0  0  0
  2 28  1  6  0  0  0
  4  1  1  0  0  0  0
  6  2  1  0  0  0  0
  6 10  1  1  0  0  0
  7 62  1  1  0  0  0
  7  4  1  0  0  0  0
  7  8  1  0  0  0  0
  8  3  1  6  0  0  0
  8  6  1  0  0  0  0
  9 11  1  0  0  0  0
 10  9  1  0  0  0  0
 11 22  1  1  0  0  0
 12 18  1  0  0  0  0
 13 12  1  0  0  0  0
 14 15  1  6  0  0  0
 14 18  1  0  0  0  0
 17 21  1  6  0  0  0
 17 14  1  0  0  0  0
 18 20  2  0  0  0  0
 19 16  1  6  0  0  0
 19 11  1  0  0  0  0
 19 17  1  0  0  0  0
 19 13  1  0  0  0  0
 21 14  1  0  0  0  0
 22 23  1  0  0  0  0
 24 23  1  0  0  0  0
 24 26  1  0  0  0  0
 25 26  1  0  0  0  0
 28 27  1  1  0  0  0
 28 32  1  0  0  0  0
 29 33  1  0  0  0  0
 30 29  1  0  0  0  0
 31 29  1  0  0  0  0
 31 35  1  1  0  0  0
 32 31  1  0  0  0  0
 32 29  1  0  0  0  0
 32 34  1  1  0  0  0
 35 36  1  0  0  0  0
 37 36  1  0  0  0  0
 38 37  2  0  0  0  0
 38 52  1  0  0  0  0
 39 43  2  0  0  0  0
 39 42  1  0  0  0  0
 40 41  1  0  0  0  0
 41 38  1  0  0  0  0
 42 40  2  0  0  0  0
 43 44  1  0  0  0  0
 44 41  2  0  0  0  0
 45 39  1  0  0  0  0
 46 45  1  0  0  0  0
 47 46  1  0  0  0  0
 48 47  1  0  0  0  0
 48 49  1  0  0  0  0
 49 51  1  0  0  0  0
 51 50  1  0  0  0  0
 53 56  1  0  0  0  0
 54 57  1  0  0  0  0
 54 55  1  0  0  0  0
 55 58  1  6  0  0  0
 55 53  1  0  0  0  0
 57 52  1  6  0  0  0
 57 56  1  0  0  0  0
 58 59  1  0  0  0  0
 60 61  2  0  0  0  0
 61 58  1  0  0  0  0
 62 63  1  6  0  0  0
 62 68  1  0  0  0  0
 64 63  1  0  0  0  0
 65 64  2  0  0  0  0
 66 64  1  0  0  0  0
 67 66  2  0  0  0  0
 69 68  1  0  0  0  0
 70 69  3  0  0  0  0
M  END
>  <MODEL>
1

>  <REMARK>
 VINA RESULT:      -5.6      0.000      0.000
  Name = 
  29 active torsions:
  status: ('A' for Active; 'I' for Inactive)
    1  A    between atoms: C_1  and  C_19
    2  A    between atoms: C_1  and  O_23
    3  A    between atoms: C_2  and  C_42
    4  A    between atoms: C_2  and  O_46
    5  A    between atoms: C_3  and  C_7
    6  A    between atoms: C_3  and  C_19
    7  A    between atoms: C_4  and  N_8
    8  A    between atoms: N_8  and  C_44
    9  A    between atoms: C_13  and  C_24
   10  A    between atoms: C_13  and  C_61
   11  A    between atoms: C_21  and  C_32
   12  A    between atoms: O_23  and  C_65
   13  A    between atoms: C_24  and  O_30
   14  A    between atoms: N_25  and  C_41
   15  A    between atoms: C_26  and  C_52
   16  A    between atoms: N_27  and  C_29
   17  A    between atoms: N_27  and  C_70
   18  A    between atoms: O_30  and  C_60
   19  A    between atoms: C_32  and  C_37
   20  A    between atoms: C_33  and  O_46
   21  A    between atoms: S_34  and  C_61
   22  A    between atoms: C_40  and  C_61
   23  A    between atoms: C_41  and  C_48
   24  A    between atoms: C_44  and  C_48
   25  A    between atoms: C_44  and  C_54
   26  A    between atoms: C_45  and  C_65
   27  A    between atoms: C_52  and  C_58
   28  A    between atoms: C_53  and  C_57
   29  A    between atoms: C_58  and  C_62
                            x       y       z     vdW  Elec       q    Type
                         _______ _______ _______ _____ _____    ______ ____

>  <TORSDO>
F 29

$$$$
=
 OpenBabel11072409413D

 70 75  0  0  1  0  0  0  0  0999 V2000
  190.5260  176.3830  142.8120 C   0  0  1  0  0  3  0  0  0  0  0  0
  189.4580  176.0720  143.8700 C   0  0  1  0  0  3  0  0  0  0  0  0
  187.5510  173.9640  141.3890 O   0  0  0  0  0  1  0  0  0  0  0  0
  190.9530  175.2150  142.1380 O   0  0  0  0  0  0  0  0  0  0  0  0
  190.0870  177.3590  141.9100 O   0  0  0  0  0  1  0  0  0  0  0  0
  188.3450  175.1450  143.3400 C   0  0  2  0  0  3  0  0  0  0  0  0
  189.9150  174.5910  141.3900 C   0  0  2  0  0  3  0  0  0  0  0  0
  188.4680  174.9230  141.8330 C   0  0  1  0  0  3  0  0  0  0  0  0
  186.7870  177.3600  143.2620 S   0  0  0  0  0  0  0  0  0  0  0  0
  187.0290  175.8030  143.6060 C   0  0  0  0  0  2  0  0  0  0  0  0
  185.0560  177.6260  143.7270 C   0  0  1  0  0  3  0  0  0  0  0  0
  186.1960  176.6030  146.5750 O   0  0  0  0  0  0  0  0  0  0  0  0
  184.9720  176.7130  145.9810 O   0  0  0  0  0  0  0  0  0  0  0  0
  185.9660  178.9810  147.2300 C   0  0  2  0  0  0  0  0  0  0  0  0
  184.7290  178.7350  147.8320 O   0  0  0  0  0  1  0  0  0  0  0  0
  183.6360  178.5100  145.4290 O   0  0  0  0  0  1  0  0  0  0  0  0
  186.0140  178.9060  145.6940 C   0  0  1  0  0  3  0  0  0  0  0  0
  186.7590  177.7140  147.2480 C   0  0  0  0  0  0  0  0  0  0  0  0
  184.8960  177.9360  145.2300 C   0  0  2  0  0  0  0  0  0  0  0  0
  187.8440  177.6160  147.8820 O   0  0  0  0  0  0  0  0  0  0  0  0
  185.7880  180.0820  146.3300 O   0  0  0  0  0  0  0  0  0  0  0  0
  184.4710  178.7110  142.8200 C   0  0  0  0  0  2  0  0  0  0  0  0
  183.7690  178.1240  141.6060 C   0  0  0  0  0  2  0  0  0  0  0  0
  184.3300  178.6590  140.4450 O   0  0  0  0  0  0  0  0  0  0  0  0
  186.4120  177.9130  139.8920 O   0  0  0  0  0  1  0  0  0  0  0  0
  185.0480  177.6070  139.8760 C   0  0  0  0  0  2  0  0  0  0  0  0
  189.1880  175.2330  146.1350 O   0  0  0  0  0  1  0  0  0  0  0  0
  190.1290  175.5430  145.1480 C   0  0  2  0  0  3  0  0  0  0  0  0
  191.9570  175.9180  146.9120 C   0  0  0  0  0  0  0  0  0  0  0  0
  191.6380  174.6320  147.3520 O   0  0  0  0  0  1  0  0  0  0  0  0
  192.6620  175.9680  145.5620 C   0  0  1  0  0  3  0  0  0  0  0  0
  191.2140  176.4650  145.7080 C   0  0  1  0  0  0  0  0  0  0  0  0
  192.4120  176.8190  147.8790 O   0  0  0  0  0  1  0  0  0  0  0  0
  190.9610  177.9710  145.7440 C   0  0  0  0  0  1  0  0  0  0  0  0
  193.5590  177.0410  145.5030 O   0  0  0  0  0  0  0  0  0  0  0  0
  194.8140  176.4580  145.3120 C   0  0  0  0  0  2  0  0  0  0  0  0
  194.8000  175.5840  144.0950 C   0  0  0  0  0  3  0  0  0  0  0  0
  195.8700  174.9380  143.6130 C   0  0  0  0  0  0  0  0  0  0  0  0
  195.4780  172.7000  139.9740 C   0  0  0  0  0  0  0  0  0  0  0  0
  194.8150  173.1140  142.2660 C   0  0  0  0  0  3  0  0  0  0  0  0
  195.7440  174.1620  142.3590 C   0  0  0  0  0  0  0  0  0  0  0  0
  194.6820  172.3860  141.0810 C   0  0  0  0  0  3  0  0  0  0  0  0
  196.4150  173.7330  140.0610 C   0  0  0  0  0  3  0  0  0  0  0  0
  196.5500  174.4570  141.2490 C   0  0  0  0  0  3  0  0  0  0  0  0
  195.3250  171.9530  138.6950 C   0  0  0  0  0  2  0  0  0  0  0  0
  193.9330  172.1740  138.1260 C   0  0  0  0  0  2  0  0  0  0  0  0
  194.0240  172.8400  136.7660 C   0  0  0  0  0  2  0  0  0  0  0  0
  193.0960  173.8830  136.6870 O   0  0  0  0  0  0  0  0  0  0  0  0
  193.6730  174.8100  135.8200 C   0  0  0  0  0  2  0  0  0  0  0  0
  191.9830  176.4890  135.6520 O   0  0  0  0  0  1  0  0  0  0  0  0
  193.2370  176.2160  136.2010 C   0  0  0  0  0  2  0  0  0  0  0  0
  197.2130  175.0650  144.2920 C   0  0  0  0  0  2  0  0  0  0  0  0
  196.3900  171.8680  145.7830 C   0  0  0  0  0  2  0  0  0  0  0  0
  197.9410  172.6290  144.0910 C   0  0  0  0  0  2  0  0  0  0  0  0
  197.4920  171.4010  144.8550 C   0  0  2  0  0  3  0  0  0  0  0  0
  196.6930  173.3220  146.0850 C   0  0  0  0  0  2  0  0  0  0  0  0
  197.6720  173.7950  145.0220 C   0  0  2  0  0  3  0  0  0  0  0  0
  197.0190  170.3500  143.9510 N   0  0  0  0  0  0  0  0  0  0  0  0
  197.9120  169.7630  142.9630 C   0  0  0  0  0  1  0  0  0  0  0  0
  195.3250  168.6220  143.9760 C   0  0  0  0  0  2  0  0  0  0  0  0
  195.6540  169.9090  143.9640 C   0  0  0  0  0  3  0  0  0  0  0  0
  190.1790  173.0830  141.2780 C   0  0  1  0  0  3  0  0  0  0  0  0
  191.0720  172.7790  140.0840 C   0  0  0  0  0  2  0  0  0  0  0  0
  190.2590  172.5310  138.8600 C   0  0  0  0  0  0  0  0  0  0  0  0
  190.0650  173.4660  138.0350 O   0  0  0  0  0  0  0  0  0  0  0  0
  189.7070  171.2270  138.6390 N   0  0  0  0  0  0  0  0  0  0  0  0
  190.3590  170.1460  138.9190 C   0  0  0  0  0  2  0  0  0  0  0  0
  190.8090  172.5870  142.4900 N   0  0  0  0  0  2  0  0  0  0  0  0
  191.4410  171.3370  142.5000 C   0  0  0  0  0  0  0  0  0  0  0  0
  191.9590  170.3010  142.5080 N   0  0  0  0  0  0  0  0  0  0  0  0
  1  5  1  6  0  0  0
  1  2  1  0  0  0  0
  2 28  1  1  0  0  0
  4  1  1  0  0  0  0
  6 10  1  6  0  0  0
  6  2  1  0  0  0  0
  7 62  1  1  0  0  0
  7  8  1  0  0  0  0
  7  4  1  0  0  0  0
  8  3  1  1  0  0  0
  8  6  1  0  0  0  0
  9 10  1  0  0  0  0
  9 11  1  0  0  0  0
 11 22  1  6  0  0  0
 11 19  1  0  0  0  0
 12 18  1  0  0  0  0
 13 12  1  0  0  0  0
 14 18  1  0  0  0  0
 14 15  1  1  0  0  0
 17 21  1  6  0  0  0
 17 14  1  0  0  0  0
 18 20  2  0  0  0  0
 19 16  1  1  0  0  0
 19 17  1  0  0  0  0
 19 13  1  0  0  0  0
 21 14  1  0  0  0  0
 23 22  1  0  0  0  0
 24 23  1  0  0  0  0
 26 25  1  0  0  0  0
 26 24  1  0  0  0  0
 28 32  1  0  0  0  0
 28 27  1  1  0  0  0
 29 30  1  0  0  0  0
 29 33  1  0  0  0  0
 31 35  1  1  0  0  0
 31 32  1  0  0  0  0
 31 29  1  0  0  0  0
 32 34  1  6  0  0  0
 32 29  1  0  0  0  0
 36 35  1  0  0  0  0
 37 36  1  0  0  0  0
 38 37  2  0  0  0  0
 38 52  1  0  0  0  0
 39 43  2  0  0  0  0
 39 42  1  0  0  0  0
 40 41  1  0  0  0  0
 41 38  1  0  0  0  0
 42 40  2  0  0  0  0
 43 44  1  0  0  0  0
 44 41  2  0  0  0  0
 45 39  1  0  0  0  0
 46 45  1  0  0  0  0
 47 46  1  0  0  0  0
 48 47  1  0  0  0  0
 49 51  1  0  0  0  0
 49 48  1  0  0  0  0
 50 51  1  0  0  0  0
 53 56  1  0  0  0  0
 54 55  1  0  0  0  0
 54 57  1  0  0  0  0
 55 58  1  6  0  0  0
 55 53  1  0  0  0  0
 57 52  1  6  0  0  0
 57 56  1  0  0  0  0
 58 61  1  0  0  0  0
 59 58  1  0  0  0  0
 61 60  2  0  0  0  0
 62 63  1  6  0  0  0
 62 68  1  0  0  0  0
 64 63  1  0  0  0  0
 65 64  2  0  0  0  0
 66 64  1  0  0  0  0
 66 67  2  0  0  0  0
 68 69  1  0  0  0  0
 69 70  3  0  0  0  0
M  END
>  <MODEL>
2

>  <REMARK>
 VINA RESULT:      -5.4      2.183      4.211
  Name = 
  29 active torsions:
  status: ('A' for Active; 'I' for Inactive)
    1  A    between atoms: C_1  and  C_19
    2  A    between atoms: C_1  and  O_23
    3  A    between atoms: C_2  and  C_42
    4  A    between atoms: C_2  and  O_46
    5  A    between atoms: C_3  and  C_7
    6  A    between atoms: C_3  and  C_19
    7  A    between atoms: C_4  and  N_8
    8  A    between atoms: N_8  and  C_44
    9  A    between atoms: C_13  and  C_24
   10  A    between atoms: C_13  and  C_61
   11  A    between atoms: C_21  and  C_32
   12  A    between atoms: O_23  and  C_65
   13  A    between atoms: C_24  and  O_30
   14  A    between atoms: N_25  and  C_41
   15  A    between atoms: C_26  and  C_52
   16  A    between atoms: N_27  and  C_29
   17  A    between atoms: N_27  and  C_70
   18  A    between atoms: O_30  and  C_60
   19  A    between atoms: C_32  and  C_37
   20  A    between atoms: C_33  and  O_46
   21  A    between atoms: S_34  and  C_61
   22  A    between atoms: C_40  and  C_61
   23  A    between atoms: C_41  and  C_48
   24  A    between atoms: C_44  and  C_48
   25  A    between atoms: C_44  and  C_54
   26  A    between atoms: C_45  and  C_65
   27  A    between atoms: C_52  and  C_58
   28  A    between atoms: C_53  and  C_57
   29  A    between atoms: C_58  and  C_62
                            x       y       z     vdW  Elec       q    Type
                         _______ _______ _______ _____ _____    ______ ____

>  <TORSDO>
F 29

$$$$
=
 OpenBabel11072409413D

 70 75  0  0  1  0  0  0  0  0999 V2000
  190.8730  176.1540  143.1020 C   0  0  1  0  0  3  0  0  0  0  0  0
  189.5930  175.8740  143.9030 C   0  0  1  0  0  3  0  0  0  0  0  0
  188.1910  173.8550  141.0410 O   0  0  0  0  0  1  0  0  0  0  0  0
  191.3940  174.9770  142.5170 O   0  0  0  0  0  0  0  0  0  0  0  0
  190.6690  177.1520  142.1420 O   0  0  0  0  0  1  0  0  0  0  0  0
  188.5890  174.9920  143.1340 C   0  0  2  0  0  3  0  0  0  0  0  0
  190.5190  174.3970  141.5550 C   0  0  2  0  0  3  0  0  0  0  0  0
  189.0230  174.7770  141.6850 C   0  0  1  0  0  3  0  0  0  0  0  0
  187.1320  177.2100  142.5890 S   0  0  0  0  0  0  0  0  0  0  0  0
  187.2690  175.6950  143.1230 C   0  0  0  0  0  2  0  0  0  0  0  0
  185.3600  177.5510  142.7480 C   0  0  1  0  0  3  0  0  0  0  0  0
  185.9390  176.6940  145.8130 O   0  0  0  0  0  0  0  0  0  0  0  0
  184.8410  176.8270  145.0130 O   0  0  0  0  0  0  0  0  0  0  0  0
  185.7710  179.1250  146.2550 C   0  0  2  0  0  0  0  0  0  0  0  0
  184.4380  179.0000  146.6520 O   0  0  0  0  0  1  0  0  0  0  0  0
  183.7440  178.6480  144.1190 O   0  0  0  0  0  1  0  0  0  0  0  0
  186.0680  178.9250  144.7570 C   0  0  1  0  0  3  0  0  0  0  0  0
  186.4590  177.8200  146.4940 C   0  0  0  0  0  0  0  0  0  0  0  0
  184.9760  177.9880  144.1780 C   0  0  2  0  0  0  0  0  0  0  0  0
  187.4150  177.7100  147.3080 O   0  0  0  0  0  0  0  0  0  0  0  0
  185.8230  180.1600  145.2630 O   0  0  0  0  0  0  0  0  0  0  0  0
  184.9630  178.5690  141.6770 C   0  0  0  0  0  2  0  0  0  0  0  0
  183.8470  178.0530  140.7840 C   0  0  0  0  0  2  0  0  0  0  0  0
  182.6210  178.2340  141.4250 O   0  0  0  0  0  0  0  0  0  0  0  0
  182.1470  177.2400  139.4290 O   0  0  0  0  0  1  0  0  0  0  0  0
  181.6650  178.1040  140.4170 C   0  0  0  0  0  2  0  0  0  0  0  0
  188.8170  175.0300  146.0460 O   0  0  0  0  0  1  0  0  0  0  0  0
  189.9570  175.3110  145.2870 C   0  0  2  0  0  3  0  0  0  0  0  0
  191.1420  175.7640  147.5200 C   0  0  0  0  0  0  0  0  0  0  0  0
  190.4970  174.6090  147.9660 O   0  0  0  0  0  1  0  0  0  0  0  0
  192.2480  175.5160  146.5010 C   0  0  1  0  0  3  0  0  0  0  0  0
  190.9300  176.1860  146.0780 C   0  0  1  0  0  0  0  0  0  0  0  0
  191.3920  176.7550  148.4730 O   0  0  0  0  0  1  0  0  0  0  0  0
  190.9220  177.6960  145.8500 C   0  0  0  0  0  1  0  0  0  0  0  0
  193.2740  176.4600  146.6340 O   0  0  0  0  0  0  0  0  0  0  0  0
  194.4490  175.7670  146.3330 C   0  0  0  0  0  2  0  0  0  0  0  0
  194.4060  175.2610  144.9240 C   0  0  0  0  0  3  0  0  0  0  0  0
  195.4860  174.9220  144.2060 C   0  0  0  0  0  0  0  0  0  0  0  0
  194.9690  173.7180  140.1210 C   0  0  0  0  0  0  0  0  0  0  0  0
  194.5300  173.3860  142.4790 C   0  0  0  0  0  3  0  0  0  0  0  0
  195.3160  174.5040  142.7960 C   0  0  0  0  0  0  0  0  0  0  0  0
  194.3560  172.9930  141.1500 C   0  0  0  0  0  3  0  0  0  0  0  0
  195.7640  174.8250  140.4280 C   0  0  0  0  0  3  0  0  0  0  0  0
  195.9400  175.2130  141.7590 C   0  0  0  0  0  3  0  0  0  0  0  0
  194.7660  173.3300  138.6980 C   0  0  0  0  0  2  0  0  0  0  0  0
  193.8870  174.3530  137.9980 C   0  0  0  0  0  2  0  0  0  0  0  0
  192.4320  174.1280  138.3640 C   0  0  0  0  0  2  0  0  0  0  0  0
  191.8670  173.1870  137.4980 O   0  0  0  0  0  0  0  0  0  0  0  0
  190.7820  173.8430  136.9150 C   0  0  0  0  0  2  0  0  0  0  0  0
  189.5420  172.8610  135.1270 O   0  0  0  0  0  1  0  0  0  0  0  0
  189.7230  172.8310  136.5100 C   0  0  0  0  0  2  0  0  0  0  0  0
  196.8690  175.0420  144.7990 C   0  0  0  0  0  2  0  0  0  0  0  0
  196.5750  171.4610  145.2630 C   0  0  0  0  0  2  0  0  0  0  0  0
  197.9400  172.9130  143.8930 C   0  0  0  0  0  2  0  0  0  0  0  0
  197.7030  171.4610  144.2520 C   0  0  2  0  0  3  0  0  0  0  0  0
  196.6710  172.7900  145.9870 C   0  0  0  0  0  2  0  0  0  0  0  0
  197.5340  173.6980  145.1250 C   0  0  2  0  0  3  0  0  0  0  0  0
  197.3600  170.6660  143.0710 N   0  0  0  0  0  0  0  0  0  0  0  0
  196.7520  169.3510  143.2120 C   0  0  0  0  0  1  0  0  0  0  0  0
  197.1150  170.5780  140.6640 C   0  0  0  0  0  2  0  0  0  0  0  0
  197.6630  171.1230  141.7450 C   0  0  0  0  0  3  0  0  0  0  0  0
  190.7500  172.8810  141.4790 C   0  0  1  0  0  3  0  0  0  0  0  0
  190.3160  172.2040  142.7720 C   0  0  0  0  0  2  0  0  0  0  0  0
  191.4850  171.6100  143.4800 C   0  0  0  0  0  0  0  0  0  0  0  0
  191.7760  171.9980  144.6450 O   0  0  0  0  0  0  0  0  0  0  0  0
  192.2640  170.6030  142.8230 N   0  0  0  0  0  0  0  0  0  0  0  0
  191.9950  169.3430  142.9330 C   0  0  0  0  0  2  0  0  0  0  0  0
  190.0120  172.3110  140.3640 N   0  0  0  0  0  2  0  0  0  0  0  0
  190.4000  171.0840  139.8120 C   0  0  0  0  0  0  0  0  0  0  0  0
  190.7160  170.0670  139.3560 N   0  0  0  0  0  0  0  0  0  0  0  0
  1  5  1  6  0  0  0
  1  2  1  0  0  0  0
  2 28  1  1  0  0  0
  4  1  1  0  0  0  0
  6 10  1  6  0  0  0
  6  2  1  0  0  0  0
  7 62  1  1  0  0  0
  7  8  1  0  0  0  0
  7  4  1  0  0  0  0
  8  3  1  1  0  0  0
  8  6  1  0  0  0  0
  9 11  1  0  0  0  0
  9 10  1  0  0  0  0
 11 22  1  6  0  0  0
 11 19  1  0  0  0  0
 12 18  1  0  0  0  0
 13 12  1  0  0  0  0
 14 18  1  0  0  0  0
 14 15  1  1  0  0  0
 17 21  1  6  0  0  0
 17 14  1  0  0  0  0
 18 20  2  0  0  0  0
 19 16  1  6  0  0  0
 19 17  1  0  0  0  0
 19 13  1  0  0  0  0
 21 14  1  0  0  0  0
 23 24  1  0  0  0  0
 23 22  1  0  0  0  0
 25 26  1  0  0  0  0
 26 24  1  0  0  0  0
 28 27  1  1  0  0  0
 28 32  1  0  0  0  0
 29 30  1  0  0  0  0
 29 33  1  0  0  0  0
 31 35  1  1  0  0  0
 31 29  1  0  0  0  0
 32 34  1  6  0  0  0
 32 31  1  0  0  0  0
 32 29  1  0  0  0  0
 36 35  1  0  0  0  0
 37 36  1  0  0  0  0
 38 52  1  0  0  0  0
 38 37  2  0  0  0  0
 39 43  2  0  0  0  0
 39 42  1  0  0  0  0
 40 41  1  0  0  0  0
 41 38  1  0  0  0  0
 42 40  2  0  0  0  0
 43 44  1  0  0  0  0
 44 41  2  0  0  0  0
 45 39  1  0  0  0  0
 46 47  1  0  0  0  0
 46 45  1  0  0  0  0
 48 47  1  0  0  0  0
 49 48  1  0  0  0  0
 50 51  1  0  0  0  0
 51 49  1  0  0  0  0
 53 56  1  0  0  0  0
 54 55  1  0  0  0  0
 54 57  1  0  0  0  0
 55 58  1  6  0  0  0
 55 53  1  0  0  0  0
 57 52  1  6  0  0  0
 57 56  1  0  0  0  0
 58 59  1  0  0  0  0
 60 61  2  0  0  0  0
 61 58  1  0  0  0  0
 62 63  1  1  0  0  0
 63 64  1  0  0  0  0
 64 65  2  0  0  0  0
 66 67  2  0  0  0  0
 66 64  1  0  0  0  0
 68 62  1  0  0  0  0
 69 68  1  0  0  0  0
 70 69  3  0  0  0  0
M  END
>  <MODEL>
3

>  <REMARK>
 VINA RESULT:      -5.4      2.055      4.754
  Name = 
  29 active torsions:
  status: ('A' for Active; 'I' for Inactive)
    1  A    between atoms: C_1  and  C_19
    2  A    between atoms: C_1  and  O_23
    3  A    between atoms: C_2  and  C_42
    4  A    between atoms: C_2  and  O_46
    5  A    between atoms: C_3  and  C_7
    6  A    between atoms: C_3  and  C_19
    7  A    between atoms: C_4  and  N_8
    8  A    between atoms: N_8  and  C_44
    9  A    between atoms: C_13  and  C_24
   10  A    between atoms: C_13  and  C_61
   11  A    between atoms: C_21  and  C_32
   12  A    between atoms: O_23  and  C_65
   13  A    between atoms: C_24  and  O_30
   14  A    between atoms: N_25  and  C_41
   15  A    between atoms: C_26  and  C_52
   16  A    between atoms: N_27  and  C_29
   17  A    between atoms: N_27  and  C_70
   18  A    between atoms: O_30  and  C_60
   19  A    between atoms: C_32  and  C_37
   20  A    between atoms: C_33  and  O_46
   21  A    between atoms: S_34  and  C_61
   22  A    between atoms: C_40  and  C_61
   23  A    between atoms: C_41  and  C_48
   24  A    between atoms: C_44  and  C_48
   25  A    between atoms: C_44  and  C_54
   26  A    between atoms: C_45  and  C_65
   27  A    between atoms: C_52  and  C_58
   28  A    between atoms: C_53  and  C_57
   29  A    between atoms: C_58  and  C_62
                            x       y       z     vdW  Elec       q    Type
                         _______ _______ _______ _____ _____    ______ ____

>  <TORSDO>
F 29

$$$$
=
 OpenBabel11072409413D

 70 75  0  0  1  0  0  0  0  0999 V2000
  190.5650  176.5150  142.8600 C   0  0  1  0  0  3  0  0  0  0  0  0
  189.4870  176.1260  143.8810 C   0  0  1  0  0  3  0  0  0  0  0  0
  187.6570  174.1280  141.2540 O   0  0  0  0  0  1  0  0  0  0  0  0
  191.0240  175.3950  142.1290 O   0  0  0  0  0  0  0  0  0  0  0  0
  190.1220  177.5320  142.0070 O   0  0  0  0  0  1  0  0  0  0  0  0
  188.3990  175.2110  143.2820 C   0  0  2  0  0  3  0  0  0  0  0  0
  190.0090  174.7960  141.3290 C   0  0  2  0  0  3  0  0  0  0  0  0
  188.5500  175.0770  141.7670 C   0  0  1  0  0  3  0  0  0  0  0  0
  186.7640  177.3690  143.1890 S   0  0  0  0  0  0  0  0  0  0  0  0
  187.0680  175.8300  143.5630 C   0  0  0  0  0  2  0  0  0  0  0  0
  185.0360  177.5870  143.6870 C   0  0  1  0  0  3  0  0  0  0  0  0
  186.1690  176.5790  146.5440 O   0  0  0  0  0  0  0  0  0  0  0  0
  184.9440  176.7160  145.9570 O   0  0  0  0  0  0  0  0  0  0  0  0
  186.0170  178.9730  147.1590 C   0  0  2  0  0  0  0  0  0  0  0  0
  184.7790  178.7760  147.7750 O   0  0  0  0  0  1  0  0  0  0  0  0
  183.6580  178.5430  145.3850 O   0  0  0  0  0  1  0  0  0  0  0  0
  186.0500  178.8700  145.6230 C   0  0  1  0  0  3  0  0  0  0  0  0
  186.7710  177.6830  147.1920 C   0  0  0  0  0  0  0  0  0  0  0  0
  184.8980  177.9280  145.1860 C   0  0  2  0  0  0  0  0  0  0  0  0
  187.8580  177.5620  147.8190 O   0  0  0  0  0  0  0  0  0  0  0  0
  185.8650  180.0640  146.2410 O   0  0  0  0  0  0  0  0  0  0  0  0
  184.3930  178.6290  142.7690 C   0  0  0  0  0  2  0  0  0  0  0  0
  183.3100  178.0260  141.8900 C   0  0  0  0  0  2  0  0  0  0  0  0
  182.1810  178.8470  141.9190 O   0  0  0  0  0  0  0  0  0  0  0  0
  181.5950  177.7790  139.9930 O   0  0  0  0  0  1  0  0  0  0  0  0
  181.1820  178.1070  141.2870 C   0  0  0  0  0  2  0  0  0  0  0  0
  189.2040  175.2430  146.1270 O   0  0  0  0  0  1  0  0  0  0  0  0
  190.1480  175.5370  145.1380 C   0  0  2  0  0  3  0  0  0  0  0  0
  192.0960  175.7350  146.8000 C   0  0  0  0  0  0  0  0  0  0  0  0
  191.7960  174.4130  147.1340 O   0  0  0  0  0  1  0  0  0  0  0  0
  192.7070  175.9130  145.4150 C   0  0  1  0  0  3  0  0  0  0  0  0
  191.2770  176.3970  145.7080 C   0  0  1  0  0  0  0  0  0  0  0  0
  192.6240  176.5370  147.8150 O   0  0  0  0  0  1  0  0  0  0  0  0
  191.0410  177.8930  145.9070 C   0  0  0  0  0  1  0  0  0  0  0  0
  193.6080  176.9840  145.3970 O   0  0  0  0  0  0  0  0  0  0  0  0
  194.8470  176.4150  145.0960 C   0  0  0  0  0  2  0  0  0  0  0  0
  194.9200  176.0730  143.6390 C   0  0  0  0  0  3  0  0  0  0  0  0
  196.0290  175.6570  143.0120 C   0  0  0  0  0  0  0  0  0  0  0  0
  195.8970  174.9920  138.7770 C   0  0  0  0  0  0  0  0  0  0  0  0
  194.8280  174.9160  140.9480 C   0  0  0  0  0  3  0  0  0  0  0  0
  195.9900  175.4210  141.5520 C   0  0  0  0  0  0  0  0  0  0  0  0
  194.7800  174.7020  139.5690 C   0  0  0  0  0  3  0  0  0  0  0  0
  197.0630  175.4820  139.3700 C   0  0  0  0  0  3  0  0  0  0  0  0
  197.1100  175.6920  140.7510 C   0  0  0  0  0  3  0  0  0  0  0  0
  195.8490  174.7980  137.3010 C   0  0  0  0  0  2  0  0  0  0  0  0
  196.1460  173.3480  136.9550 C   0  0  0  0  0  2  0  0  0  0  0  0
  195.0450  172.7850  136.0760 C   0  0  0  0  0  2  0  0  0  0  0  0
  195.5070  172.6570  134.7630 O   0  0  0  0  0  0  0  0  0  0  0  0
  195.7740  171.2960  134.6100 C   0  0  0  0  0  2  0  0  0  0  0  0
  194.3200  169.4050  134.5150 O   0  0  0  0  0  1  0  0  0  0  0  0
  194.7090  170.4760  135.3200 C   0  0  0  0  0  2  0  0  0  0  0  0
  197.3280  175.5110  143.7680 C   0  0  0  0  0  2  0  0  0  0  0  0
  196.3590  172.6070  145.7050 C   0  0  0  0  0  2  0  0  0  0  0  0
  196.9450  173.0170  143.3950 C   0  0  0  0  0  2  0  0  0  0  0  0
  196.5690  171.9220  144.3710 C   0  0  2  0  0  3  0  0  0  0  0  0
  197.2570  173.8280  145.6890 C   0  0  0  0  0  2  0  0  0  0  0  0
  197.6270  174.0790  144.2350 C   0  0  2  0  0  3  0  0  0  0  0  0
  195.3630  171.2110  143.9410 N   0  0  0  0  0  0  0  0  0  0  0  0
  194.3480  171.8840  143.1440 C   0  0  0  0  0  1  0  0  0  0  0  0
  194.5490  169.5490  145.5010 C   0  0  0  0  0  2  0  0  0  0  0  0
  195.1110  169.8550  144.3360 C   0  0  0  0  0  3  0  0  0  0  0  0
  190.3020  173.3020  141.1370 C   0  0  1  0  0  3  0  0  0  0  0  0
  191.1190  173.0700  139.8730 C   0  0  0  0  0  2  0  0  0  0  0  0
  191.0790  171.6370  139.4680 C   0  0  0  0  0  0  0  0  0  0  0  0
  190.0130  170.9750  139.6030 O   0  0  0  0  0  0  0  0  0  0  0  0
  192.2600  171.0290  138.9310 N   0  0  0  0  0  0  0  0  0  0  0  0
  193.1000  170.3810  139.6700 C   0  0  0  0  0  2  0  0  0  0  0  0
  191.0260  172.7750  142.2820 N   0  0  0  0  0  2  0  0  0  0  0  0
  190.3320  172.3070  143.4050 C   0  0  0  0  0  0  0  0  0  0  0  0
  189.7570  171.9240  144.3340 N   0  0  0  0  0  0  0  0  0  0  0  0
  1  5  1  6  0  0  0
  1  2  1  0  0  0  0
  2 28  1  1  0  0  0
  4  1  1  0  0  0  0
  6 10  1  6  0  0  0
  6  2  1  0  0  0  0
  7 62  1  1  0  0  0
  7  8  1  0  0  0  0
  7  4  1  0  0  0  0
  8  3  1  1  0  0  0
  8  6  1  0  0  0  0
  9 10  1  0  0  0  0
  9 11  1  0  0  0  0
 11 22  1  6  0  0  0
 11 19  1  0  0  0  0
 12 18  1  0  0  0  0
 13 12  1  0  0  0  0
 14 18  1  0  0  0  0
 14 15  1  1  0  0  0
 17 21  1  6  0  0  0
 17 14  1  0  0  0  0
 18 20  2  0  0  0  0
 19 16  1  1  0  0  0
 19 17  1  0  0  0  0
 19 13  1  0  0  0  0
 21 14  1  0  0  0  0
 23 24  1  0  0  0  0
 23 22  1  0  0  0  0
 25 26  1  0  0  0  0
 26 24  1  0  0  0  0
 28 32  1  0  0  0  0
 28 27  1  1  0  0  0
 29 30  1  0  0  0  0
 29 33  1  0  0  0  0
 31 35  1  1  0  0  0
 31 32  1  0  0  0  0
 31 29  1  0  0  0  0
 32 34  1  1  0  0  0
 32 29  1  0  0  0  0
 36 35  1  0  0  0  0
 37 36  1  0  0  0  0
 38 37  2  0  0  0  0
 38 52  1  0  0  0  0
 39 43  2  0  0  0  0
 39 42  1  0  0  0  0
 40 41  1  0  0  0  0
 41 38  1  0  0  0  0
 42 40  2  0  0  0  0
 43 44  1  0  0  0  0
 44 41  2  0  0  0  0
 45 39  1  0  0  0  0
 46 45  1  0  0  0  0
 47 46  1  0  0  0  0
 48 47  1  0  0  0  0
 49 48  1  0  0  0  0
 49 51  1  0  0  0  0
 50 51  1  0  0  0  0
 54 57  1  0  0  0  0
 54 55  1  0  0  0  0
 55 58  1  6  0  0  0
 55 53  1  0  0  0  0
 56 53  1  0  0  0  0
 57 52  1  6  0  0  0
 57 56  1  0  0  0  0
 58 61  1  0  0  0  0
 59 58  1  0  0  0  0
 61 60  2  0  0  0  0
 62 63  1  6  0  0  0
 62 68  1  0  0  0  0
 64 65  2  0  0  0  0
 64 63  1  0  0  0  0
 66 64  1  0  0  0  0
 66 67  2  0  0  0  0
 68 69  1  0  0  0  0
 69 70  3  0  0  0  0
M  END
>  <MODEL>
4

>  <REMARK>
 VINA RESULT:      -5.1      2.262      4.452
  Name = 
  29 active torsions:
  status: ('A' for Active; 'I' for Inactive)
    1  A    between atoms: C_1  and  C_19
    2  A    between atoms: C_1  and  O_23
    3  A    between atoms: C_2  and  C_42
    4  A    between atoms: C_2  and  O_46
    5  A    between atoms: C_3  and  C_7
    6  A    between atoms: C_3  and  C_19
    7  A    between atoms: C_4  and  N_8
    8  A    between atoms: N_8  and  C_44
    9  A    between atoms: C_13  and  C_24
   10  A    between atoms: C_13  and  C_61
   11  A    between atoms: C_21  and  C_32
   12  A    between atoms: O_23  and  C_65
   13  A    between atoms: C_24  and  O_30
   14  A    between atoms: N_25  and  C_41
   15  A    between atoms: C_26  and  C_52
   16  A    between atoms: N_27  and  C_29
   17  A    between atoms: N_27  and  C_70
   18  A    between atoms: O_30  and  C_60
   19  A    between atoms: C_32  and  C_37
   20  A    between atoms: C_33  and  O_46
   21  A    between atoms: S_34  and  C_61
   22  A    between atoms: C_40  and  C_61
   23  A    between atoms: C_41  and  C_48
   24  A    between atoms: C_44  and  C_48
   25  A    between atoms: C_44  and  C_54
   26  A    between atoms: C_45  and  C_65
   27  A    between atoms: C_52  and  C_58
   28  A    between atoms: C_53  and  C_57
   29  A    between atoms: C_58  and  C_62
                            x       y       z     vdW  Elec       q    Type
                         _______ _______ _______ _____ _____    ______ ____

>  <TORSDO>
F 29

$$$$
=
 OpenBabel11072409413D

 70 75  0  0  1  0  0  0  0  0999 V2000
  192.7330  174.3230  141.6800 C   0  0  1  0  0  3  0  0  0  0  0  0
  192.4870  174.9930  143.0390 C   0  0  1  0  0  3  0  0  0  0  0  0
  190.0340  172.2850  143.9810 O   0  0  0  0  0  1  0  0  0  0  0  0
  192.9640  172.9340  141.8140 O   0  0  0  0  0  0  0  0  0  0  0  0
  191.6880  174.5810  140.7840 O   0  0  0  0  0  1  0  0  0  0  0  0
  191.4840  174.2160  143.9150 C   0  0  2  0  0  3  0  0  0  0  0  0
  191.8410  172.2290  142.3350 C   0  0  2  0  0  3  0  0  0  0  0  0
  190.8250  173.0760  143.1400 C   0  0  1  0  0  3  0  0  0  0  0  0
  190.2080  176.5860  143.6080 S   0  0  0  0  0  0  0  0  0  0  0  0
  190.4120  175.1660  144.3440 C   0  0  0  0  0  2  0  0  0  0  0  0
  188.7830  177.3020  144.4680 C   0  0  1  0  0  3  0  0  0  0  0  0
  188.3870  177.7720  141.2930 O   0  0  0  0  0  0  0  0  0  0  0  0
  188.3530  178.5420  142.4190 O   0  0  0  0  0  0  0  0  0  0  0  0
  186.0270  177.1850  141.7600 C   0  0  2  0  0  0  0  0  0  0  0  0
  185.6650  178.5320  141.8310 O   0  0  0  0  0  1  0  0  0  0  0  0
  186.8750  178.7060  144.1820 O   0  0  0  0  0  1  0  0  0  0  0  0
  186.8960  176.6420  142.9090 C   0  0  1  0  0  3  0  0  0  0  0  0
  187.2310  177.0650  140.8840 C   0  0  0  0  0  0  0  0  0  0  0  0
  187.7130  177.8270  143.4880 C   0  0  2  0  0  0  0  0  0  0  0  0
  187.2060  176.4190  139.8010 O   0  0  0  0  0  0  0  0  0  0  0  0
  185.5430  176.5540  142.9540 O   0  0  0  0  0  0  0  0  0  0  0  0
  188.2410  176.2660  145.4560 C   0  0  0  0  0  2  0  0  0  0  0  0
  187.1610  176.8450  146.3550 C   0  0  0  0  0  2  0  0  0  0  0  0
  187.7580  177.5520  147.4000 O   0  0  0  0  0  0  0  0  0  0  0  0
  185.5990  177.7830  148.0920 O   0  0  0  0  0  1  0  0  0  0  0  0
  186.7890  178.4630  147.8180 C   0  0  0  0  0  2  0  0  0  0  0  0
  193.7240  176.2690  144.6960 O   0  0  0  0  0  1  0  0  0  0  0  0
  193.8300  175.2520  143.7410 C   0  0  2  0  0  3  0  0  0  0  0  0
  196.3630  175.5360  143.4280 C   0  0  0  0  0  0  0  0  0  0  0  0
  196.4510  175.2340  144.7880 O   0  0  0  0  0  1  0  0  0  0  0  0
  195.9610  174.3620  142.5450 C   0  0  1  0  0  3  0  0  0  0  0  0
  194.9900  175.5300  142.7840 C   0  0  1  0  0  0  0  0  0  0  0  0
  197.3370  176.3930  142.9100 O   0  0  0  0  0  1  0  0  0  0  0  0
  194.8020  176.5610  141.6720 C   0  0  0  0  0  1  0  0  0  0  0  0
  196.5590  174.4540  141.2820 O   0  0  0  0  0  0  0  0  0  0  0  0
  196.6550  173.1380  140.8260 C   0  0  0  0  0  2  0  0  0  0  0  0
  195.5100  172.8210  139.9140 C   0  0  0  0  0  3  0  0  0  0  0  0
  195.6410  172.3460  138.6670 C   0  0  0  0  0  0  0  0  0  0  0  0
  192.1400  171.7790  136.2530 C   0  0  0  0  0  0  0  0  0  0  0  0
  193.3440  173.0240  137.9460 C   0  0  0  0  0  3  0  0  0  0  0  0
  194.4310  172.1430  137.8390 C   0  0  0  0  0  0  0  0  0  0  0  0
  192.2040  172.8450  137.1590 C   0  0  0  0  0  3  0  0  0  0  0  0
  193.2130  170.8890  136.1490 C   0  0  0  0  0  3  0  0  0  0  0  0
  194.3500  171.0670  136.9410 C   0  0  0  0  0  3  0  0  0  0  0  0
  190.9450  171.5940  135.3850 C   0  0  0  0  0  2  0  0  0  0  0  0
  189.6830  171.9600  136.1500 C   0  0  0  0  0  2  0  0  0  0  0  0
  189.2120  173.3450  135.7480 C   0  0  0  0  0  2  0  0  0  0  0  0
  189.0210  174.1290  136.8890 O   0  0  0  0  0  0  0  0  0  0  0  0
  188.3400  173.3010  137.7820 C   0  0  0  0  0  2  0  0  0  0  0  0
  189.4320  172.3930  139.7020 O   0  0  0  0  0  1  0  0  0  0  0  0
  188.8350  173.5500  139.1980 C   0  0  0  0  0  2  0  0  0  0  0  0
  197.0100  172.0990  138.0820 C   0  0  0  0  0  2  0  0  0  0  0  0
  197.1730  173.4620  134.7290 C   0  0  0  0  0  2  0  0  0  0  0  0
  196.4660  174.2870  136.8900 C   0  0  0  0  0  2  0  0  0  0  0  0
  196.6470  174.6900  135.4410 C   0  0  2  0  0  3  0  0  0  0  0  0
  197.9400  172.6750  135.7740 C   0  0  0  0  0  2  0  0  0  0  0  0
  197.4960  173.2010  137.1300 C   0  0  2  0  0  3  0  0  0  0  0  0
  195.3880  175.1510  134.8510 N   0  0  0  0  0  0  0  0  0  0  0  0
  194.3320  174.2050  134.5220 C   0  0  0  0  0  1  0  0  0  0  0  0
  196.1050  177.4590  134.7180 C   0  0  0  0  0  2  0  0  0  0  0  0
  195.1750  176.5310  134.5230 C   0  0  0  0  0  3  0  0  0  0  0  0
  192.3100  170.9760  143.0880 C   0  0  1  0  0  3  0  0  0  0  0  0
  193.0040  170.0060  142.1420 C   0  0  0  0  0  2  0  0  0  0  0  0
  192.0090  169.2390  141.3410 C   0  0  0  0  0  0  0  0  0  0  0  0
  190.8780  168.9720  141.8330 O   0  0  0  0  0  0  0  0  0  0  0  0
  192.3550  168.8130  140.0170 N   0  0  0  0  0  0  0  0  0  0  0  0
  193.5640  168.4940  139.6890 C   0  0  0  0  0  2  0  0  0  0  0  0
  193.2210  171.3390  144.1600 N   0  0  0  0  0  2  0  0  0  0  0  0
  193.9430  170.3510  144.8410 C   0  0  0  0  0  0  0  0  0  0  0  0
  194.5390  169.5300  145.4010 N   0  0  0  0  0  0  0  0  0  0  0  0
  1  5  1  6  0  0  0
  1  4  1  0  0  0  0
  1  2  1  0  0  0  0
  2 28  1  1  0  0  0
  2  6  1  0  0  0  0
  4  7  1  0  0  0  0
  6 10  1  6  0  0  0
  7 62  1  1  0  0  0
  7  8  1  0  0  0  0
  8  6  1  0  0  0  0
  8  3  1  1  0  0  0
  9 10  1  0  0  0  0
  9 11  1  0  0  0  0
 11 22  1  1  0  0  0
 12 13  1  0  0  0  0
 13 19  1  0  0  0  0
 14 15  1  1  0  0  0
 14 17  1  0  0  0  0
 14 21  1  0  0  0  0
 17 21  1  1  0  0  0
 17 19  1  0  0  0  0
 18 12  1  0  0  0  0
 18 14  1  0  0  0  0
 19 16  1  1  0  0  0
 19 11  1  0  0  0  0
 20 18  2  0  0  0  0
 22 23  1  0  0  0  0
 23 24  1  0  0  0  0
 24 26  1  0  0  0  0
 26 25  1  0  0  0  0
 28 27  1  1  0  0  0
 29 30  1  0  0  0  0
 31 35  1  6  0  0  0
 31 32  1  0  0  0  0
 31 29  1  0  0  0  0
 32 34  1  6  0  0  0
 32 29  1  0  0  0  0
 32 28  1  0  0  0  0
 33 29  1  0  0  0  0
 36 35  1  0  0  0  0
 37 36  1  0  0  0  0
 38 37  2  0  0  0  0
 39 42  1  0  0  0  0
 41 40  1  0  0  0  0
 41 38  1  0  0  0  0
 42 40  2  0  0  0  0
 43 39  2  0  0  0  0
 43 44  1  0  0  0  0
 44 41  2  0  0  0  0
 45 46  1  0  0  0  0
 45 39  1  0  0  0  0
 47 46  1  0  0  0  0
 47 48  1  0  0  0  0
 48 49  1  0  0  0  0
 49 51  1  0  0  0  0
 51 50  1  0  0  0  0
 52 38  1  0  0  0  0
 53 55  1  0  0  0  0
 53 56  1  0  0  0  0
 54 57  1  0  0  0  0
 55 58  1  6  0  0  0
 55 54  1  0  0  0  0
 56 57  1  0  0  0  0
 57 52  1  1  0  0  0
 59 58  1  0  0  0  0
 61 60  2  0  0  0  0
 61 58  1  0  0  0  0
 62 63  1  6  0  0  0
 62 68  1  0  0  0  0
 64 65  2  0  0  0  0
 64 63  1  0  0  0  0
 66 64  1  0  0  0  0
 67 66  2  0  0  0  0
 68 69  1  0  0  0  0
 69 70  3  0  0  0  0
M  END
>  <MODEL>
5

>  <REMARK>
 VINA RESULT:      -4.8      2.384      6.395
  Name = 
  29 active torsions:
  status: ('A' for Active; 'I' for Inactive)
    1  A    between atoms: C_1  and  C_19
    2  A    between atoms: C_1  and  O_23
    3  A    between atoms: C_2  and  C_42
    4  A    between atoms: C_2  and  O_46
    5  A    between atoms: C_3  and  C_7
    6  A    between atoms: C_3  and  C_19
    7  A    between atoms: C_4  and  N_8
    8  A    between atoms: N_8  and  C_44
    9  A    between atoms: C_13  and  C_24
   10  A    between atoms: C_13  and  C_61
   11  A    between atoms: C_21  and  C_32
   12  A    between atoms: O_23  and  C_65
   13  A    between atoms: C_24  and  O_30
   14  A    between atoms: N_25  and  C_41
   15  A    between atoms: C_26  and  C_52
   16  A    between atoms: N_27  and  C_29
   17  A    between atoms: N_27  and  C_70
   18  A    between atoms: O_30  and  C_60
   19  A    between atoms: C_32  and  C_37
   20  A    between atoms: C_33  and  O_46
   21  A    between atoms: S_34  and  C_61
   22  A    between atoms: C_40  and  C_61
   23  A    between atoms: C_41  and  C_48
   24  A    between atoms: C_44  and  C_48
   25  A    between atoms: C_44  and  C_54
   26  A    between atoms: C_45  and  C_65
   27  A    between atoms: C_52  and  C_58
   28  A    between atoms: C_53  and  C_57
   29  A    between atoms: C_58  and  C_62
                            x       y       z     vdW  Elec       q    Type
                         _______ _______ _______ _____ _____    ______ ____

>  <TORSDO>
F 29

$$$$
=
 OpenBabel11072409413D

 70 75  0  0  1  0  0  0  0  0999 V2000
  192.9450  173.4000  141.7020 C   0  0  1  0  0  3  0  0  0  0  0  0
  192.9670  174.2260  142.9950 C   0  0  1  0  0  3  0  0  0  0  0  0
  190.5230  171.8480  144.6100 O   0  0  0  0  0  1  0  0  0  0  0  0
  193.1020  172.0180  141.9600 O   0  0  0  0  0  0  0  0  0  0  0  0
  191.7890  173.6500  140.9520 O   0  0  0  0  0  1  0  0  0  0  0  0
  192.0680  173.6320  144.0990 C   0  0  2  0  0  3  0  0  0  0  0  0
  192.0340  171.4680  142.7240 C   0  0  2  0  0  3  0  0  0  0  0  0
  191.2190  172.4770  143.5710 C   0  0  1  0  0  3  0  0  0  0  0  0
  191.2140  176.1990  143.9640 S   0  0  0  0  0  0  0  0  0  0  0  0
  191.1450  174.7080  144.5730 C   0  0  0  0  0  2  0  0  0  0  0  0
  189.8820  177.0680  144.8320 C   0  0  1  0  0  3  0  0  0  0  0  0
  186.9620  176.3980  146.0520 O   0  0  0  0  0  0  0  0  0  0  0  0
  187.9020  175.7380  145.3120 O   0  0  0  0  0  0  0  0  0  0  0  0
  186.1360  177.3680  143.9280 C   0  0  2  0  0  0  0  0  0  0  0  0
  185.9990  176.1000  143.3570 O   0  0  0  0  0  1  0  0  0  0  0  0
  188.6350  175.9450  143.1360 O   0  0  0  0  0  1  0  0  0  0  0  0
  187.5730  177.8690  144.1610 C   0  0  1  0  0  3  0  0  0  0  0  0
  186.0160  177.2330  145.4110 C   0  0  0  0  0  0  0  0  0  0  0  0
  188.4850  176.6280  144.3470 C   0  0  2  0  0  0  0  0  0  0  0  0
  185.0830  177.7820  146.0570 O   0  0  0  0  0  0  0  0  0  0  0  0
  186.9070  178.1610  143.0150 O   0  0  0  0  0  0  0  0  0  0  0  0
  190.0840  176.8860  146.3380 C   0  0  0  0  0  2  0  0  0  0  0  0
  191.5540  176.7820  146.7090 C   0  0  0  0  0  2  0  0  0  0  0  0
  191.6710  176.6070  148.0890 O   0  0  0  0  0  0  0  0  0  0  0  0
  191.7160  178.2140  149.7050 O   0  0  0  0  0  1  0  0  0  0  0  0
  190.9760  177.6790  148.6470 C   0  0  0  0  0  2  0  0  0  0  0  0
  194.4860  174.8530  144.7860 O   0  0  0  0  0  1  0  0  0  0  0  0
  194.4190  174.4440  143.4500 C   0  0  2  0  0  3  0  0  0  0  0  0
  196.7030  175.4520  142.8460 C   0  0  0  0  0  0  0  0  0  0  0  0
  197.2100  174.6090  143.8370 O   0  0  0  0  0  1  0  0  0  0  0  0
  196.2180  174.7330  141.5930 C   0  0  1  0  0  3  0  0  0  0  0  0
  195.2160  175.3940  142.5540 C   0  0  1  0  0  0  0  0  0  0  0  0
  197.3750  176.6600  142.6430 O   0  0  0  0  0  1  0  0  0  0  0  0
  194.5930  176.7290  142.1510 C   0  0  0  0  0  1  0  0  0  0  0  0
  196.4180  175.5200  140.4530 O   0  0  0  0  0  0  0  0  0  0  0  0
  196.5000  174.6150  139.3930 C   0  0  0  0  0  2  0  0  0  0  0  0
  195.1570  174.4490  138.7480 C   0  0  0  0  0  3  0  0  0  0  0  0
  194.8670  174.8180  137.4930 C   0  0  0  0  0  0  0  0  0  0  0  0
  190.8420  174.3810  136.0770 C   0  0  0  0  0  0  0  0  0  0  0  0
  192.8150  173.4390  137.1170 C   0  0  0  0  0  3  0  0  0  0  0  0
  193.4820  174.6690  136.9960 C   0  0  0  0  0  0  0  0  0  0  0  0
  191.5030  173.2940  136.6610 C   0  0  0  0  0  3  0  0  0  0  0  0
  191.5020  175.6050  135.9390 C   0  0  0  0  0  3  0  0  0  0  0  0
  192.8160  175.7470  136.3930 C   0  0  0  0  0  3  0  0  0  0  0  0
  189.4320  174.2500  135.6150 C   0  0  0  0  0  2  0  0  0  0  0  0
  188.4850  174.8050  136.6660 C   0  0  0  0  0  2  0  0  0  0  0  0
  188.8540  174.2680  138.0360 C   0  0  0  0  0  2  0  0  0  0  0  0
  188.3260  172.9850  138.1990 O   0  0  0  0  0  0  0  0  0  0  0  0
  188.3120  172.7760  139.5790 C   0  0  0  0  0  2  0  0  0  0  0  0
  189.9130  171.1880  138.7920 O   0  0  0  0  0  1  0  0  0  0  0  0
  189.2970  171.6770  139.9450 C   0  0  0  0  0  2  0  0  0  0  0  0
  195.9200  175.4580  136.6200 C   0  0  0  0  0  2  0  0  0  0  0  0
  197.8610  172.4360  136.1430 C   0  0  0  0  0  2  0  0  0  0  0  0
  195.7690  173.2930  135.2810 C   0  0  0  0  0  2  0  0  0  0  0  0
  196.7320  172.1280  135.1800 C   0  0  2  0  0  3  0  0  0  0  0  0
  197.9410  173.9480  136.2150 C   0  0  0  0  0  2  0  0  0  0  0  0
  196.6260  174.4830  135.6670 C   0  0  2  0  0  3  0  0  0  0  0  0
  196.0780  170.8610  135.5140 N   0  0  0  0  0  0  0  0  0  0  0  0
  195.4730  170.6590  136.8230 C   0  0  0  0  0  1  0  0  0  0  0  0
  195.0390  168.9170  134.5140 C   0  0  0  0  0  2  0  0  0  0  0  0
  196.0630  169.7600  134.5940 C   0  0  0  0  0  3  0  0  0  0  0  0
  192.5320  170.2650  143.5380 C   0  0  1  0  0  3  0  0  0  0  0  0
  192.7030  169.0440  142.6450 C   0  0  0  0  0  2  0  0  0  0  0  0
  191.7740  169.1010  141.4810 C   0  0  0  0  0  0  0  0  0  0  0  0
  190.5320  168.9740  141.6620 O   0  0  0  0  0  0  0  0  0  0  0  0
  192.3110  169.3000  140.1670 N   0  0  0  0  0  0  0  0  0  0  0  0
  193.5760  169.2090  139.9180 C   0  0  0  0  0  2  0  0  0  0  0  0
  193.8000  170.5760  144.1770 N   0  0  0  0  0  2  0  0  0  0  0  0
  194.4300  169.6320  144.9980 C   0  0  0  0  0  0  0  0  0  0  0  0
  194.9550  168.8510  145.6740 N   0  0  0  0  0  0  0  0  0  0  0  0
  1  5  1  1  0  0  0
  1  4  1  0  0  0  0
  1  2  1  0  0  0  0
  2 28  1  1  0  0  0
  2  6  1  0  0  0  0
  4  7  1  0  0  0  0
  6 10  1  6  0  0  0
  7 62  1  1  0  0  0
  7  8  1  0  0  0  0
  8  6  1  0  0  0  0
  8  3  1  1  0  0  0
  9 10  1  0  0  0  0
  9 11  1  0  0  0  0
 11 22  1  1  0  0  0
 13 12  1  0  0  0  0
 14 15  1  6  0  0  0
 14 17  1  0  0  0  0
 14 18  1  0  0  0  0
 17 21  1  6  0  0  0
 17 19  1  0  0  0  0
 18 12  1  0  0  0  0
 18 20  2  0  0  0  0
 19 16  1  6  0  0  0
 19 11  1  0  0  0  0
 19 13  1  0  0  0  0
 21 14  1  0  0  0  0
 22 23  1  0  0  0  0
 23 24  1  0  0  0  0
 24 26  1  0  0  0  0
 26 25  1  0  0  0  0
 28 27  1  1  0  0  0
 29 30  1  0  0  0  0
 31 35  1  6  0  0  0
 31 32  1  0  0  0  0
 31 29  1  0  0  0  0
 32 34  1  6  0  0  0
 32 29  1  0  0  0  0
 32 28  1  0  0  0  0
 33 29  1  0  0  0  0
 36 35  1  0  0  0  0
 37 36  1  0  0  0  0
 38 37  2  0  0  0  0
 39 42  1  0  0  0  0
 41 40  1  0  0  0  0
 41 38  1  0  0  0  0
 42 40  2  0  0  0  0
 43 39  2  0  0  0  0
 43 44  1  0  0  0  0
 44 41  2  0  0  0  0
 45 39  1  0  0  0  0
 45 46  1  0  0  0  0
 46 47  1  0  0  0  0
 47 48  1  0  0  0  0
 48 49  1  0  0  0  0
 49 51  1  0  0  0  0
 50 51  1  0  0  0  0
 52 38  1  0  0  0  0
 53 56  1  0  0  0  0
 54 57  1  0  0  0  0
 55 54  1  0  0  0  0
 55 58  1  1  0  0  0
 55 53  1  0  0  0  0
 57 56  1  0  0  0  0
 57 52  1  1  0  0  0
 58 59  1  0  0  0  0
 60 61  2  0  0  0  0
 61 58  1  0  0  0  0
 62 63  1  6  0  0  0
 62 68  1  0  0  0  0
 64 65  2  0  0  0  0
 64 63  1  0  0  0  0
 66 64  1  0  0  0  0
 67 66  2  0  0  0  0
 68 69  1  0  0  0  0
 69 70  3  0  0  0  0
M  END
>  <MODEL>
6

>  <REMARK>
 VINA RESULT:      -4.4      2.425      6.164
  Name = 
  29 active torsions:
  status: ('A' for Active; 'I' for Inactive)
    1  A    between atoms: C_1  and  C_19
    2  A    between atoms: C_1  and  O_23
    3  A    between atoms: C_2  and  C_42
    4  A    between atoms: C_2  and  O_46
    5  A    between atoms: C_3  and  C_7
    6  A    between atoms: C_3  and  C_19
    7  A    between atoms: C_4  and  N_8
    8  A    between atoms: N_8  and  C_44
    9  A    between atoms: C_13  and  C_24
   10  A    between atoms: C_13  and  C_61
   11  A    between atoms: C_21  and  C_32
   12  A    between atoms: O_23  and  C_65
   13  A    between atoms: C_24  and  O_30
   14  A    between atoms: N_25  and  C_41
   15  A    between atoms: C_26  and  C_52
   16  A    between atoms: N_27  and  C_29
   17  A    between atoms: N_27  and  C_70
   18  A    between atoms: O_30  and  C_60
   19  A    between atoms: C_32  and  C_37
   20  A    between atoms: C_33  and  O_46
   21  A    between atoms: S_34  and  C_61
   22  A    between atoms: C_40  and  C_61
   23  A    between atoms: C_41  and  C_48
   24  A    between atoms: C_44  and  C_48
   25  A    between atoms: C_44  and  C_54
   26  A    between atoms: C_45  and  C_65
   27  A    between atoms: C_52  and  C_58
   28  A    between atoms: C_53  and  C_57
   29  A    between atoms: C_58  and  C_62
                            x       y       z     vdW  Elec       q    Type
                         _______ _______ _______ _____ _____    ______ ____

>  <TORSDO>
F 29

$$$$
=
 OpenBabel11072409413D

 70 75  0  0  1  0  0  0  0  0999 V2000
  192.9400  175.7670  145.7800 C   0  0  1  0  0  3  0  0  0  0  0  0
  193.2240  175.1910  144.3860 C   0  0  1  0  0  3  0  0  0  0  0  0
  189.6370  174.0670  144.0690 O   0  0  0  0  0  1  0  0  0  0  0  0
  191.7660  176.5570  145.7910 O   0  0  0  0  0  0  0  0  0  0  0  0
  192.8850  174.7610  146.7510 O   0  0  0  0  0  1  0  0  0  0  0  0
  191.9760  174.5650  143.7320 C   0  0  2  0  0  3  0  0  0  0  0  0
  190.5900  175.8120  145.4920 C   0  0  2  0  0  3  0  0  0  0  0  0
  190.8050  174.4920  144.7120 C   0  0  1  0  0  3  0  0  0  0  0  0
  191.6090  171.8940  143.9960 S   0  0  0  0  0  0  0  0  0  0  0  0
  192.3200  173.1710  143.3160 C   0  0  0  0  0  2  0  0  0  0  0  0
  192.3400  170.4890  143.1160 C   0  0  1  0  0  3  0  0  0  0  0  0
  189.7360  171.4850  141.4750 O   0  0  0  0  0  0  0  0  0  0  0  0
  190.1590  170.3210  142.0500 O   0  0  0  0  0  0  0  0  0  0  0  0
  191.0670  170.8530  139.4840 C   0  0  2  0  0  0  0  0  0  0  0  0
  190.4300  169.6120  139.4050 O   0  0  0  0  0  1  0  0  0  0  0  0
  191.8080  168.8000  141.5170 O   0  0  0  0  0  1  0  0  0  0  0  0
  192.0330  171.0590  140.6650 C   0  0  1  0  0  3  0  0  0  0  0  0
  190.1440  171.8140  140.1610 C   0  0  0  0  0  0  0  0  0  0  0  0
  191.5670  170.1420  141.8260 C   0  0  2  0  0  0  0  0  0  0  0  0
  189.6980  172.8360  139.5720 O   0  0  0  0  0  0  0  0  0  0  0  0
  192.4800  170.6050  139.4670 O   0  0  0  0  0  0  0  0  0  0  0  0
  193.8210  170.7870  142.8720 C   0  0  0  0  0  2  0  0  0  0  0  0
  194.7130  169.6320  143.2970 C   0  0  0  0  0  2  0  0  0  0  0  0
  196.0440  170.0530  143.2990 O   0  0  0  0  0  0  0  0  0  0  0  0
  197.0990  171.1510  144.9950 O   0  0  0  0  0  1  0  0  0  0  0  0
  196.4440  169.9710  144.6320 C   0  0  0  0  0  2  0  0  0  0  0  0
  193.4010  176.2380  142.2000 O   0  0  0  0  0  1  0  0  0  0  0  0
  193.8970  176.2580  143.5070 C   0  0  2  0  0  3  0  0  0  0  0  0
  196.0050  174.8370  143.8720 C   0  0  0  0  0  0  0  0  0  0  0  0
  195.1170  173.7860  144.1100 O   0  0  0  0  0  1  0  0  0  0  0  0
  196.0580  175.3020  142.4220 C   0  0  1  0  0  3  0  0  0  0  0  0
  195.4250  176.1900  143.5060 C   0  0  1  0  0  0  0  0  0  0  0  0
  197.2240  174.7990  144.5530 O   0  0  0  0  0  1  0  0  0  0  0  0
  196.2200  177.3870  144.0240 C   0  0  0  0  0  1  0  0  0  0  0  0
  197.3400  175.7540  142.0860 O   0  0  0  0  0  0  0  0  0  0  0  0
  197.5570  175.3030  140.7820 C   0  0  0  0  0  2  0  0  0  0  0  0
  196.2560  174.9310  140.1390 C   0  0  0  0  0  3  0  0  0  0  0  0
  196.1420  174.3410  138.9420 C   0  0  0  0  0  0  0  0  0  0  0  0
  192.2340  173.6420  137.3170 C   0  0  0  0  0  0  0  0  0  0  0  0
  193.6510  174.5130  139.0770 C   0  0  0  0  0  3  0  0  0  0  0  0
  194.7960  174.0900  138.3830 C   0  0  0  0  0  0  0  0  0  0  0  0
  192.3780  174.2910  138.5490 C   0  0  0  0  0  3  0  0  0  0  0  0
  193.3670  173.2050  136.6250 C   0  0  0  0  0  3  0  0  0  0  0  0
  194.6400  173.4250  137.1570 C   0  0  0  0  0  3  0  0  0  0  0  0
  190.8840  173.4260  136.7280 C   0  0  0  0  0  2  0  0  0  0  0  0
  190.2070  174.7630  136.4730 C   0  0  0  0  0  2  0  0  0  0  0  0
  189.9560  174.9470  134.9880 C   0  0  0  0  0  2  0  0  0  0  0  0
  188.6600  174.5310  134.6720 O   0  0  0  0  0  0  0  0  0  0  0  0
  187.8700  174.9930  135.7260 C   0  0  0  0  0  2  0  0  0  0  0  0
  187.2080  177.0000  134.6150 O   0  0  0  0  0  1  0  0  0  0  0  0
  186.7180  175.8230  135.1820 C   0  0  0  0  0  2  0  0  0  0  0  0
  197.3720  174.0080  138.1320 C   0  0  0  0  0  2  0  0  0  0  0  0
  196.7720  170.6580  139.3710 C   0  0  0  0  0  2  0  0  0  0  0  0
  196.9190  171.6840  137.1860 C   0  0  0  0  0  2  0  0  0  0  0  0
  196.7280  170.3550  137.8880 C   0  0  2  0  0  3  0  0  0  0  0  0
  197.6560  171.8810  139.5170 C   0  0  0  0  0  2  0  0  0  0  0  0
  197.7490  172.5200  138.1400 C   0  0  2  0  0  3  0  0  0  0  0  0
  195.4610  169.7260  137.5090 N   0  0  0  0  0  0  0  0  0  0  0  0
  194.9790  168.5450  138.2120 C   0  0  0  0  0  1  0  0  0  0  0  0
  194.7090  169.6220  135.2110 C   0  0  0  0  0  2  0  0  0  0  0  0
  194.6850  170.2080  136.4030 C   0  0  0  0  0  3  0  0  0  0  0  0
  189.5370  176.7260  144.8500 C   0  0  1  0  0  3  0  0  0  0  0  0
  188.9540  177.6840  145.8790 C   0  0  0  0  0  2  0  0  0  0  0  0
  187.5560  177.3020  146.2300 C   0  0  0  0  0  0  0  0  0  0  0  0
  186.9010  176.5430  145.4640 O   0  0  0  0  0  0  0  0  0  0  0  0
  186.9760  177.8080  147.4390 N   0  0  0  0  0  0  0  0  0  0  0  0
  185.7160  178.0810  147.5360 C   0  0  0  0  0  2  0  0  0  0  0  0
  190.1240  177.4880  143.7600 N   0  0  0  0  0  2  0  0  0  0  0  0
  189.3340  177.9050  142.6810 C   0  0  0  0  0  0  0  0  0  0  0  0
  188.6810  178.2440  141.7860 N   0  0  0  0  0  0  0  0  0  0  0  0
  1  4  1  0  0  0  0
  1  5  1  1  0  0  0
  2 28  1  6  0  0  0
  2  1  1  0  0  0  0
  6 10  1  1  0  0  0
  6  2  1  0  0  0  0
  6  8  1  0  0  0  0
  7 62  1  6  0  0  0
  7  4  1  0  0  0  0
  8  3  1  6  0  0  0
  8  7  1  0  0  0  0
 10  9  1  0  0  0  0
 11 22  1  6  0  0  0
 11  9  1  0  0  0  0
 12 13  1  0  0  0  0
 14 15  1  1  0  0  0
 14 18  1  0  0  0  0
 14 17  1  0  0  0  0
 17 21  1  6  0  0  0
 17 19  1  0  0  0  0
 18 12  1  0  0  0  0
 19 16  1  6  0  0  0
 19 13  1  0  0  0  0
 19 11  1  0  0  0  0
 20 18  2  0  0  0  0
 21 14  1  0  0  0  0
 22 23  1  0  0  0  0
 23 24  1  0  0  0  0
 24 26  1  0  0  0  0
 26 25  1  0  0  0  0
 28 27  1  6  0  0  0
 29 30  1  0  0  0  0
 29 33  1  0  0  0  0
 31 35  1  1  0  0  0
 31 32  1  0  0  0  0
 31 29  1  0  0  0  0
 32 28  1  0  0  0  0
 32 29  1  0  0  0  0
 32 34  1  1  0  0  0
 36 35  1  0  0  0  0
 37 36  1  0  0  0  0
 38 37  2  0  0  0  0
 39 42  1  0  0  0  0
 41 38  1  0  0  0  0
 41 40  1  0  0  0  0
 42 40  2  0  0  0  0
 43 44  1  0  0  0  0
 43 39  2  0  0  0  0
 44 41  2  0  0  0  0
 45 39  1  0  0  0  0
 46 45  1  0  0  0  0
 47 46  1  0  0  0  0
 48 47  1  0  0  0  0
 48 49  1  0  0  0  0
 50 51  1  0  0  0  0
 51 49  1  0  0  0  0
 52 38  1  0  0  0  0
 53 56  1  0  0  0  0
 54 55  1  0  0  0  0
 54 57  1  0  0  0  0
 55 58  1  1  0  0  0
 55 53  1  0  0  0  0
 57 52  1  1  0  0  0
 57 56  1  0  0  0  0
 58 59  1  0  0  0  0
 60 61  2  0  0  0  0
 61 58  1  0  0  0  0
 62 63  1  1  0  0  0
 63 64  1  0  0  0  0
 64 66  1  0  0  0  0
 65 64  2  0  0  0  0
 66 67  2  0  0  0  0
 68 62  1  0  0  0  0
 69 68  1  0  0  0  0
 70 69  3  0  0  0  0
M  END
>  <MODEL>
7

>  <REMARK>
 VINA RESULT:      -3.4      3.131      7.807
  Name = 
  29 active torsions:
  status: ('A' for Active; 'I' for Inactive)
    1  A    between atoms: C_1  and  C_19
    2  A    between atoms: C_1  and  O_23
    3  A    between atoms: C_2  and  C_42
    4  A    between atoms: C_2  and  O_46
    5  A    between atoms: C_3  and  C_7
    6  A    between atoms: C_3  and  C_19
    7  A    between atoms: C_4  and  N_8
    8  A    between atoms: N_8  and  C_44
    9  A    between atoms: C_13  and  C_24
   10  A    between atoms: C_13  and  C_61
   11  A    between atoms: C_21  and  C_32
   12  A    between atoms: O_23  and  C_65
   13  A    between atoms: C_24  and  O_30
   14  A    between atoms: N_25  and  C_41
   15  A    between atoms: C_26  and  C_52
   16  A    between atoms: N_27  and  C_29
   17  A    between atoms: N_27  and  C_70
   18  A    between atoms: O_30  and  C_60
   19  A    between atoms: C_32  and  C_37
   20  A    between atoms: C_33  and  O_46
   21  A    between atoms: S_34  and  C_61
   22  A    between atoms: C_40  and  C_61
   23  A    between atoms: C_41  and  C_48
   24  A    between atoms: C_44  and  C_48
   25  A    between atoms: C_44  and  C_54
   26  A    between atoms: C_45  and  C_65
   27  A    between atoms: C_52  and  C_58
   28  A    between atoms: C_53  and  C_57
   29  A    between atoms: C_58  and  C_62
                            x       y       z     vdW  Elec       q    Type
                         _______ _______ _______ _____ _____    ______ ____

>  <TORSDO>
F 29

$$$$
=
 OpenBabel11072409413D

 70 75  0  0  1  0  0  0  0  0999 V2000
  190.5920  173.0300  144.7360 C   0  0  1  0  0  3  0  0  0  0  0  0
  189.9420  173.9590  143.7020 C   0  0  1  0  0  3  0  0  0  0  0  0
  190.9850  176.9850  145.7000 O   0  0  0  0  0  1  0  0  0  0  0  0
  191.8990  173.4540  145.0740 O   0  0  0  0  0  0  0  0  0  0  0  0
  189.7920  172.8900  145.8760 O   0  0  0  0  0  1  0  0  0  0  0  0
  190.1050  175.4520  144.0540 C   0  0  2  0  0  3  0  0  0  0  0  0
  191.9260  174.7280  145.7080 C   0  0  2  0  0  3  0  0  0  0  0  0
  190.6990  175.6380  145.4500 C   0  0  1  0  0  3  0  0  0  0  0  0
  188.5570  177.6650  144.2760 S   0  0  0  0  0  0  0  0  0  0  0  0
  188.7490  176.0810  144.0400 C   0  0  0  0  0  2  0  0  0  0  0  0
  186.7680  177.8980  144.1170 C   0  0  1  0  0  3  0  0  0  0  0  0
  185.0740  176.6610  146.5780 O   0  0  0  0  0  0  0  0  0  0  0  0
  184.8920  177.6410  145.6460 O   0  0  0  0  0  0  0  0  0  0  0  0
  186.3050  178.3320  147.9290 C   0  0  2  0  0  0  0  0  0  0  0  0
  185.2340  179.2280  147.8680 O   0  0  0  0  0  1  0  0  0  0  0  0
  185.8310  179.7240  145.3340 O   0  0  0  0  0  1  0  0  0  0  0  0
  187.0860  178.0970  146.6240 C   0  0  1  0  0  3  0  0  0  0  0  0
  185.7690  176.9450  147.7780 C   0  0  0  0  0  0  0  0  0  0  0  0
  186.1190  178.3600  145.4390 C   0  0  2  0  0  0  0  0  0  0  0  0
  185.8730  176.0870  148.6950 O   0  0  0  0  0  0  0  0  0  0  0  0
  187.4780  179.0450  147.5120 O   0  0  0  0  0  0  0  0  0  0  0  0
  186.5050  178.8520  142.9490 C   0  0  0  0  0  2  0  0  0  0  0  0
  186.3530  178.1130  141.6300 C   0  0  0  0  0  2  0  0  0  0  0  0
  185.1810  178.5300  140.9980 O   0  0  0  0  0  0  0  0  0  0  0  0
  183.3460  177.6050  141.9840 O   0  0  0  0  0  1  0  0  0  0  0  0
  184.2490  178.6710  142.0260 C   0  0  0  0  0  2  0  0  0  0  0  0
  190.8040  174.7580  141.5740 O   0  0  0  0  0  1  0  0  0  0  0  0
  190.4520  173.6110  142.2940 C   0  0  2  0  0  3  0  0  0  0  0  0
  188.0280  173.1060  141.6150 C   0  0  0  0  0  0  0  0  0  0  0  0
  187.6980  174.2170  142.3940 O   0  0  0  0  0  1  0  0  0  0  0  0
  188.7640  173.4370  140.3230 C   0  0  1  0  0  3  0  0  0  0  0  0
  189.4940  172.7380  141.4830 C   0  0  1  0  0  0  0  0  0  0  0  0
  187.0760  172.0850  141.5390 O   0  0  0  0  0  1  0  0  0  0  0  0
  189.7680  171.2400  141.3730 C   0  0  0  0  0  1  0  0  0  0  0  0
  188.4380  172.5260  139.3110 O   0  0  0  0  0  0  0  0  0  0  0  0
  188.4440  173.2730  138.1310 C   0  0  0  0  0  2  0  0  0  0  0  0
  189.8170  173.8090  137.8640 C   0  0  0  0  0  3  0  0  0  0  0  0
  190.4100  173.8120  136.6620 C   0  0  0  0  0  0  0  0  0  0  0  0
  194.4460  175.2180  136.2950 C   0  0  0  0  0  0  0  0  0  0  0  0
  192.8720  173.5090  136.9770 C   0  0  0  0  0  3  0  0  0  0  0  0
  191.8000  174.3040  136.5410 C   0  0  0  0  0  0  0  0  0  0  0  0
  194.1870  173.9620  136.8550 C   0  0  0  0  0  3  0  0  0  0  0  0
  193.3840  176.0220  135.8700 C   0  0  0  0  0  3  0  0  0  0  0  0
  192.0690  175.5690  135.9970 C   0  0  0  0  0  3  0  0  0  0  0  0
  195.8450  175.7000  136.1300 C   0  0  0  0  0  2  0  0  0  0  0  0
  196.7960  174.8210  136.9250 C   0  0  0  0  0  2  0  0  0  0  0  0
  196.4070  174.8220  138.3910 C   0  0  0  0  0  2  0  0  0  0  0  0
  197.4620  175.3200  139.1610 O   0  0  0  0  0  0  0  0  0  0  0  0
  197.8940  174.2320  139.9210 C   0  0  0  0  0  2  0  0  0  0  0  0
  197.5010  173.1670  142.0210 O   0  0  0  0  0  1  0  0  0  0  0  0
  197.4370  174.3950  141.3610 C   0  0  0  0  0  2  0  0  0  0  0  0
  189.7000  173.2440  135.4560 C   0  0  0  0  0  2  0  0  0  0  0  0
  192.0750  170.5090  135.4340 C   0  0  0  0  0  2  0  0  0  0  0  0
  189.9060  170.8960  136.4300 C   0  0  0  0  0  2  0  0  0  0  0  0
  190.9940  169.8550  136.2690 C   0  0  2  0  0  3  0  0  0  0  0  0
  191.3650  171.5260  134.5620 C   0  0  0  0  0  2  0  0  0  0  0  0
  190.0000  171.7630  135.1890 C   0  0  2  0  0  3  0  0  0  0  0  0
  191.5130  169.4190  137.5670 N   0  0  0  0  0  0  0  0  0  0  0  0
  190.6090  168.9810  138.6200 C   0  0  0  0  0  1  0  0  0  0  0  0
  193.3740  169.4860  139.1140 C   0  0  0  0  0  2  0  0  0  0  0  0
  192.9160  169.4640  137.8670 C   0  0  0  0  0  3  0  0  0  0  0  0
  193.2630  175.4270  145.4290 C   0  0  1  0  0  3  0  0  0  0  0  0
  193.2480  176.0930  144.0600 C   0  0  0  0  0  2  0  0  0  0  0  0
  194.2750  175.4900  143.1640 C   0  0  0  0  0  0  0  0  0  0  0  0
  194.5840  174.2730  143.2920 O   0  0  0  0  0  0  0  0  0  0  0  0
  194.8980  176.3060  142.1650 N   0  0  0  0  0  0  0  0  0  0  0  0
  194.4960  176.3200  140.9360 C   0  0  0  0  0  2  0  0  0  0  0  0
  193.5350  176.4280  146.4480 N   0  0  0  0  0  2  0  0  0  0  0  0
  194.5160  177.4050  146.2380 C   0  0  0  0  0  0  0  0  0  0  0  0
  195.3230  178.2170  146.0640 N   0  0  0  0  0  0  0  0  0  0  0  0
  1  4  1  0  0  0  0
  1  5  1  1  0  0  0
  2 28  1  6  0  0  0
  2  6  1  0  0  0  0
  2  1  1  0  0  0  0
  4  7  1  0  0  0  0
  6 10  1  1  0  0  0
  6  8  1  0  0  0  0
  7 62  1  6  0  0  0
  8  3  1  6  0  0  0
  8  7  1  0  0  0  0
 10  9  1  0  0  0  0
 11 22  1  6  0  0  0
 11  9  1  0  0  0  0
 11 19  1  0  0  0  0
 12 18  1  0  0  0  0
 13 12  1  0  0  0  0
 14 15  1  6  0  0  0
 17 21  1  6  0  0  0
 17 14  1  0  0  0  0
 18 14  1  0  0  0  0
 18 20  2  0  0  0  0
 19 16  1  6  0  0  0
 19 13  1  0  0  0  0
 19 17  1  0  0  0  0
 21 14  1  0  0  0  0
 23 22  1  0  0  0  0
 24 23  1  0  0  0  0
 24 26  1  0  0  0  0
 25 26  1  0  0  0  0
 28 27  1  6  0  0  0
 29 30  1  0  0  0  0
 31 35  1  6  0  0  0
 31 32  1  0  0  0  0
 31 29  1  0  0  0  0
 32 34  1  6  0  0  0
 32 29  1  0  0  0  0
 32 28  1  0  0  0  0
 33 29  1  0  0  0  0
 36 35  1  0  0  0  0
 37 36  1  0  0  0  0
 38 37  2  0  0  0  0
 39 42  1  0  0  0  0
 41 38  1  0  0  0  0
 41 40  1  0  0  0  0
 42 40  2  0  0  0  0
 43 44  1  0  0  0  0
 43 39  2  0  0  0  0
 44 41  2  0  0  0  0
 45 39  1  0  0  0  0
 45 46  1  0  0  0  0
 46 47  1  0  0  0  0
 47 48  1  0  0  0  0
 48 49  1  0  0  0  0
 49 51  1  0  0  0  0
 51 50  1  0  0  0  0
 52 38  1  0  0  0  0
 53 55  1  0  0  0  0
 55 54  1  0  0  0  0
 55 58  1  1  0  0  0
 56 57  1  0  0  0  0
 56 53  1  0  0  0  0
 57 52  1  1  0  0  0
 57 54  1  0  0  0  0
 58 61  1  0  0  0  0
 58 59  1  0  0  0  0
 61 60  2  0  0  0  0
 62 63  1  6  0  0  0
 62 68  1  0  0  0  0
 64 65  2  0  0  0  0
 64 63  1  0  0  0  0
 66 64  1  0  0  0  0
 67 66  2  0  0  0  0
 69 68  1  0  0  0  0
 70 69  3  0  0  0  0
M  END
>  <MODEL>
8

>  <REMARK>
 VINA RESULT:      -3.3      2.652      7.037
  Name = 
  29 active torsions:
  status: ('A' for Active; 'I' for Inactive)
    1  A    between atoms: C_1  and  C_19
    2  A    between atoms: C_1  and  O_23
    3  A    between atoms: C_2  and  C_42
    4  A    between atoms: C_2  and  O_46
    5  A    between atoms: C_3  and  C_7
    6  A    between atoms: C_3  and  C_19
    7  A    between atoms: C_4  and  N_8
    8  A    between atoms: N_8  and  C_44
    9  A    between atoms: C_13  and  C_24
   10  A    between atoms: C_13  and  C_61
   11  A    between atoms: C_21  and  C_32
   12  A    between atoms: O_23  and  C_65
   13  A    between atoms: C_24  and  O_30
   14  A    between atoms: N_25  and  C_41
   15  A    between atoms: C_26  and  C_52
   16  A    between atoms: N_27  and  C_29
   17  A    between atoms: N_27  and  C_70
   18  A    between atoms: O_30  and  C_60
   19  A    between atoms: C_32  and  C_37
   20  A    between atoms: C_33  and  O_46
   21  A    between atoms: S_34  and  C_61
   22  A    between atoms: C_40  and  C_61
   23  A    between atoms: C_41  and  C_48
   24  A    between atoms: C_44  and  C_48
   25  A    between atoms: C_44  and  C_54
   26  A    between atoms: C_45  and  C_65
   27  A    between atoms: C_52  and  C_58
   28  A    between atoms: C_53  and  C_57
   29  A    between atoms: C_58  and  C_62
                            x       y       z     vdW  Elec       q    Type
                         _______ _______ _______ _____ _____    ______ ____

>  <TORSDO>
F 29

$$$$
=
 OpenBabel11072409413D

 70 75  0  0  1  0  0  0  0  0999 V2000
  191.5700  173.2150  141.1650 C   0  0  1  0  0  3  0  0  0  0  0  0
  193.0840  172.9740  141.1070 C   0  0  1  0  0  3  0  0  0  0  0  0
  192.6530  170.7010  138.1260 O   0  0  0  0  0  1  0  0  0  0  0  0
  191.0380  173.5250  139.8920 O   0  0  0  0  0  0  0  0  0  0  0  0
  190.8990  172.1310  141.7460 O   0  0  0  0  0  1  0  0  0  0  0  0
  193.4960  172.0410  139.9500 C   0  0  2  0  0  3  0  0  0  0  0  0
  191.1690  172.4590  138.9570 C   0  0  2  0  0  3  0  0  0  0  0  0
  192.2780  171.4220  139.2650 C   0  0  1  0  0  3  0  0  0  0  0  0
  195.9010  171.1110  140.7830 S   0  0  0  0  0  0  0  0  0  0  0  0
  194.3200  170.9310  140.5210 C   0  0  0  0  0  2  0  0  0  0  0  0
  196.3880  169.5230  141.5060 C   0  0  1  0  0  3  0  0  0  0  0  0
  196.9920  169.7110  144.6780 O   0  0  0  0  0  0  0  0  0  0  0  0
  196.6290  168.7350  143.7960 O   0  0  0  0  0  0  0  0  0  0  0  0
  194.5920  170.2990  144.8390 C   0  0  2  0  0  0  0  0  0  0  0  0
  194.2510  168.9820  145.1570 O   0  0  0  0  0  1  0  0  0  0  0  0
  194.6860  168.2900  142.6360 O   0  0  0  0  0  1  0  0  0  0  0  0
  195.0580  170.5640  143.3960 C   0  0  1  0  0  3  0  0  0  0  0  0
  196.0040  170.5360  145.2660 C   0  0  0  0  0  0  0  0  0  0  0  0
  195.6790  169.2520  142.8500 C   0  0  2  0  0  0  0  0  0  0  0  0
  196.2990  171.3840  146.1510 O   0  0  0  0  0  0  0  0  0  0  0  0
  193.7540  170.7010  143.7470 O   0  0  0  0  0  0  0  0  0  0  0  0
  196.1560  168.4240  140.4670 C   0  0  0  0  0  2  0  0  0  0  0  0
  195.8540  168.9940  139.0910 C   0  0  0  0  0  2  0  0  0  0  0  0
  196.9790  168.8550  138.2760 O   0  0  0  0  0  0  0  0  0  0  0  0
  197.5390  168.7130  136.0710 O   0  0  0  0  0  1  0  0  0  0  0  0
  196.4790  168.8350  136.9740 C   0  0  0  0  0  2  0  0  0  0  0  0
  195.1080  174.1970  140.5460 O   0  0  0  0  0  1  0  0  0  0  0  0
  193.8260  174.3200  141.0910 C   0  0  2  0  0  3  0  0  0  0  0  0
  194.6020  176.3500  142.4590 C   0  0  0  0  0  0  0  0  0  0  0  0
  195.0800  176.8440  141.2440 O   0  0  0  0  0  1  0  0  0  0  0  0
  193.0830  176.3220  142.5770 C   0  0  1  0  0  3  0  0  0  0  0  0
  193.8830  175.0140  142.4530 C   0  0  1  0  0  0  0  0  0  0  0  0
  195.3030  176.7230  143.6100 O   0  0  0  0  0  1  0  0  0  0  0  0
  194.0960  174.1690  143.7070 C   0  0  0  0  0  1  0  0  0  0  0  0
  192.6770  176.5410  143.8990 O   0  0  0  0  0  0  0  0  0  0  0  0
  191.6600  175.6120  144.1270 C   0  0  0  0  0  2  0  0  0  0  0  0
  190.4130  176.0200  143.4030 C   0  0  0  0  0  3  0  0  0  0  0  0
  189.5170  176.8990  143.8720 C   0  0  0  0  0  0  0  0  0  0  0  0
  185.9660  177.6750  141.5930 C   0  0  0  0  0  0  0  0  0  0  0  0
  187.9640  178.4730  142.7030 C   0  0  0  0  0  3  0  0  0  0  0  0
  188.2870  177.1640  143.0930 C   0  0  0  0  0  0  0  0  0  0  0  0
  186.8110  178.7290  141.9580 C   0  0  0  0  0  3  0  0  0  0  0  0
  186.2720  176.3690  141.9870 C   0  0  0  0  0  3  0  0  0  0  0  0
  187.4240  176.1160  142.7370 C   0  0  0  0  0  3  0  0  0  0  0  0
  184.7500  177.9290  140.7710 C   0  0  0  0  0  2  0  0  0  0  0  0
  183.5160  177.9420  141.6570 C   0  0  0  0  0  2  0  0  0  0  0  0
  182.3510  178.5760  140.9210 C   0  0  0  0  0  2  0  0  0  0  0  0
  181.3300  178.8830  141.8250 O   0  0  0  0  0  0  0  0  0  0  0  0
  180.1730  178.3560  141.2510 C   0  0  0  0  0  2  0  0  0  0  0  0
  178.9260  179.9150  139.9420 O   0  0  0  0  0  1  0  0  0  0  0  0
  179.0780  179.4100  141.2340 C   0  0  0  0  0  2  0  0  0  0  0  0
  189.7150  177.5510  145.2190 C   0  0  0  0  0  2  0  0  0  0  0  0
  187.0820  178.3280  147.5830 C   0  0  0  0  0  2  0  0  0  0  0  0
  187.3510  176.7610  145.7600 C   0  0  0  0  0  2  0  0  0  0  0  0
  186.3930  177.1960  146.8490 C   0  0  2  0  0  3  0  0  0  0  0  0
  188.5690  178.0660  147.4430 C   0  0  0  0  0  2  0  0  0  0  0  0
  188.7330  177.0770  146.2990 C   0  0  2  0  0  3  0  0  0  0  0  0
  185.1080  177.6260  146.2920 N   0  0  0  0  0  0  0  0  0  0  0  0
  183.8920  177.5510  147.0880 C   0  0  0  0  0  1  0  0  0  0  0  0
  185.1220  179.3530  144.5970 C   0  0  0  0  0  2  0  0  0  0  0  0
  184.9920  178.0750  144.9350 C   0  0  0  0  0  3  0  0  0  0  0  0
  191.2480  173.0170  137.5290 C   0  0  1  0  0  3  0  0  0  0  0  0
  189.9600  172.7360  136.7680 C   0  0  0  0  0  2  0  0  0  0  0  0
  189.1220  173.9640  136.6670 C   0  0  0  0  0  0  0  0  0  0  0  0
  189.2240  174.7130  135.6570 O   0  0  0  0  0  0  0  0  0  0  0  0
  188.2090  174.2770  137.7260 N   0  0  0  0  0  0  0  0  0  0  0  0
  187.5870  175.4090  137.7880 C   0  0  0  0  0  2  0  0  0  0  0  0
  191.4880  174.4510  137.5570 N   0  0  0  0  0  2  0  0  0  0  0  0
  192.6470  174.9860  136.9820 C   0  0  0  0  0  0  0  0  0  0  0  0
  193.6050  175.4260  136.5020 N   0  0  0  0  0  0  0  0  0  0  0  0
  1  5  1  6  0  0  0
  2 28  1  6  0  0  0
  2  1  1  0  0  0  0
  4  1  1  0  0  0  0
  6 10  1  1  0  0  0
  6  2  1  0  0  0  0
  7 62  1  6  0  0  0
  7  8  1  0  0  0  0
  7  4  1  0  0  0  0
  8  3  1  6  0  0  0
  8  6  1  0  0  0  0
  9 11  1  0  0  0  0
 10  9  1  0  0  0  0
 11 22  1  6  0  0  0
 11 19  1  0  0  0  0
 12 18  1  0  0  0  0
 13 12  1  0  0  0  0
 14 15  1  1  0  0  0
 14 18  1  0  0  0  0
 17 21  1  6  0  0  0
 17 14  1  0  0  0  0
 18 20  2  0  0  0  0
 19 16  1  6  0  0  0
 19 17  1  0  0  0  0
 19 13  1  0  0  0  0
 21 14  1  0  0  0  0
 23 22  1  0  0  0  0
 24 23  1  0  0  0  0
 25 26  1  0  0  0  0
 26 24  1  0  0  0  0
 28 27  1  1  0  0  0
 28 32  1  0  0  0  0
 29 31  1  0  0  0  0
 29 33  1  0  0  0  0
 30 29  1  0  0  0  0
 31 35  1  1  0  0  0
 32 29  1  0  0  0  0
 32 31  1  0  0  0  0
 32 34  1  1  0  0  0
 35 36  1  0  0  0  0
 37 38  2  0  0  0  0
 37 36  1  0  0  0  0
 38 52  1  0  0  0  0
 39 42  2  0  0  0  0
 39 43  1  0  0  0  0
 40 41  2  0  0  0  0
 41 38  1  0  0  0  0
 42 40  1  0  0  0  0
 43 44  2  0  0  0  0
 44 41  1  0  0  0  0
 45 39  1  0  0  0  0
 45 46  1  0  0  0  0
 47 46  1  0  0  0  0
 47 48  1  0  0  0  0
 49 48  1  0  0  0  0
 50 51  1  0  0  0  0
 51 49  1  0  0  0  0
 54 57  1  0  0  0  0
 54 55  1  0  0  0  0
 55 58  1  6  0  0  0
 55 53  1  0  0  0  0
 56 53  1  0  0  0  0
 57 52  1  6  0  0  0
 57 56  1  0  0  0  0
 58 59  1  0  0  0  0
 60 61  2  0  0  0  0
 61 58  1  0  0  0  0
 62 63  1  1  0  0  0
 62 68  1  0  0  0  0
 64 63  1  0  0  0  0
 64 66  1  0  0  0  0
 65 64  2  0  0  0  0
 66 67  2  0  0  0  0
 69 68  1  0  0  0  0
 70 69  3  0  0  0  0
M  END
>  <MODEL>
9

>  <REMARK>
 VINA RESULT:      -3.3      3.218     10.134
  Name = 
  29 active torsions:
  status: ('A' for Active; 'I' for Inactive)
    1  A    between atoms: C_1  and  C_19
    2  A    between atoms: C_1  and  O_23
    3  A    between atoms: C_2  and  C_42
    4  A    between atoms: C_2  and  O_46
    5  A    between atoms: C_3  and  C_7
    6  A    between atoms: C_3  and  C_19
    7  A    between atoms: C_4  and  N_8
    8  A    between atoms: N_8  and  C_44
    9  A    between atoms: C_13  and  C_24
   10  A    between atoms: C_13  and  C_61
   11  A    between atoms: C_21  and  C_32
   12  A    between atoms: O_23  and  C_65
   13  A    between atoms: C_24  and  O_30
   14  A    between atoms: N_25  and  C_41
   15  A    between atoms: C_26  and  C_52
   16  A    between atoms: N_27  and  C_29
   17  A    between atoms: N_27  and  C_70
   18  A    between atoms: O_30  and  C_60
   19  A    between atoms: C_32  and  C_37
   20  A    between atoms: C_33  and  O_46
   21  A    between atoms: S_34  and  C_61
   22  A    between atoms: C_40  and  C_61
   23  A    between atoms: C_41  and  C_48
   24  A    between atoms: C_44  and  C_48
   25  A    between atoms: C_44  and  C_54
   26  A    between atoms: C_45  and  C_65
   27  A    between atoms: C_52  and  C_58
   28  A    between atoms: C_53  and  C_57
   29  A    between atoms: C_58  and  C_62
                            x       y       z     vdW  Elec       q    Type
                         _______ _______ _______ _____ _____    ______ ____

>  <TORSDO>
F 29

$$$$
