=
 OpenBabel11072408473D

 36 38  0  0  1  0  0  0  0  0999 V2000
  190.8360  175.7380  147.4610 N   0  0  0  0  0  2  0  0  0  0  0  0
  189.7060  175.1200  146.8860 C   0  0  0  0  0  0  0  0  0  0  0  0
  188.8990  174.3920  147.5820 N   0  0  0  0  0  2  0  0  0  0  0  0
  189.3650  175.6430  145.5470 C   0  0  1  0  0  3  0  0  0  0  0  0
  191.3900  176.6880  146.5160 C   0  0  2  0  0  3  0  0  0  0  0  0
  190.4640  176.6770  145.2890 C   0  0  2  0  0  3  0  0  0  0  0  0
  189.8900  177.9370  145.1290 O   0  0  0  0  0  1  0  0  0  0  0  0
  192.7980  176.2570  146.1270 C   0  0  0  0  0  2  0  0  0  0  0  0
  192.9890  176.2920  144.6150 C   0  0  0  0  0  2  0  0  0  0  0  0
  194.2790  175.5940  144.2030 C   0  0  1  0  0  3  0  0  0  0  0  0
  193.0490  173.0100  143.8670 S   0  0  0  0  0  0  0  0  0  0  0  0
  194.1030  171.6270  144.4190 C   0  0  0  0  0  2  0  0  0  0  0  0
  194.9740  172.1200  145.5670 C   0  0  0  0  0  2  0  0  0  0  0  0
  195.1170  173.5830  145.3780 C   0  0  0  0  0  0  0  0  0  0  0  0
  194.2420  174.1400  144.5610 C   0  0  0  0  0  0  0  0  0  0  0  0
  196.1080  174.3120  146.0250 O   0  0  0  0  0  1  0  0  0  0  0  0
  194.4800  175.7410  142.8290 O   0  0  0  0  0  0  0  0  0  0  0  0
  195.8420  176.0170  142.6890 C   0  0  2  0  0  3  0  0  0  0  0  0
  196.2620  176.8370  143.7350 O   0  0  0  0  0  1  0  0  0  0  0  0
  196.0820  176.7210  141.3690 C   0  0  0  0  0  1  0  0  0  0  0  0
  189.4470  174.5260  144.5200 C   0  0  0  0  0  2  0  0  0  0  0  0
  189.4560  175.1030  143.1150 C   0  0  0  0  0  2  0  0  0  0  0  0
  188.0880  175.0310  142.5180 C   0  0  0  0  0  0  0  0  0  0  0  0
  187.6690  173.9670  142.0890 O   0  0  0  0  0  0  0  0  0  0  0  0
  187.2470  176.2810  142.4100 C   0  0  0  0  0  0  0  0  0  0  0  0
  186.9390  176.4770  141.0770 F   0  0  0  0  0  0  0  0  0  0  0  0
  187.9610  177.3940  142.8420 F   0  0  0  0  0  0  0  0  0  0  0  0
  186.0360  176.1440  143.1250 O   0  0  0  0  0  0  0  0  0  0  0  0
  184.8100  178.0370  143.8820 C   0  0  0  0  0  2  0  0  0  0  0  0
  186.0240  178.6020  146.7840 C   0  0  0  0  0  0  0  0  0  0  0  0
  185.7290  176.4470  145.4640 C   0  0  0  0  0  2  0  0  0  0  0  0
  184.9620  179.3490  144.5810 C   0  0  0  0  0  3  0  0  0  0  0  0
  185.4510  179.5610  145.8080 C   0  0  0  0  0  3  0  0  0  0  0  0
  186.1830  177.2840  146.6170 C   0  0  0  0  0  3  0  0  0  0  0  0
  185.9850  177.1200  144.1360 C   0  0  1  0  0  3  0  0  0  0  0  0
  186.4910  179.1320  147.9380 F   0  0  0  0  0  0  0  0  0  0  0  0
  2  1  1  0  0  0  0
  2  3  2  0  0  0  0
  4 21  1  6  0  0  0
  4  2  1  0  0  0  0
  5  8  1  6  0  0  0
  5  1  1  0  0  0  0
  6  7  1  1  0  0  0
  6  4  1  0  0  0  0
  6  5  1  0  0  0  0
  9  8  1  0  0  0  0
 10 15  1  0  0  0  0
 10  9  1  6  0  0  0
 11 12  1  0  0  0  0
 11 15  1  0  0  0  0
 12 13  1  0  0  0  0
 14 13  1  0  0  0  0
 14 16  1  0  0  0  0
 15 14  2  0  0  0  0
 17 10  1  0  0  0  0
 18 20  1  6  0  0  0
 18 17  1  0  0  0  0
 18 19  1  0  0  0  0
 22 21  1  0  0  0  0
 23 22  1  0  0  0  0
 24 23  2  0  0  0  0
 25 23  1  0  0  0  0
 25 27  1  0  0  0  0
 25 28  1  0  0  0  0
 26 25  1  0  0  0  0
 29 35  1  0  0  0  0
 29 32  1  0  0  0  0
 30 36  1  0  0  0  0
 31 34  1  0  0  0  0
 32 33  2  0  0  0  0
 33 30  1  0  0  0  0
 34 30  2  0  0  0  0
 35 28  1  6  0  0  0
 35 31  1  0  0  0  0
M  END
>  <MODEL>
1

>  <REMARK>
 VINA RESULT:      -7.1      0.000      0.000
  Name = 
  12 active torsions:
  status: ('A' for Active; 'I' for Inactive)
    1  A    between atoms: C_2  and  C_10
    2  A    between atoms: C_2  and  C_16
    3  A    between atoms: O_4  and  C_6
    4  A    between atoms: O_4  and  C_30
    5  A    between atoms: C_5  and  C_6
    6  A    between atoms: C_5  and  C_35
    7  A    between atoms: C_10  and  C_32
    8  A    between atoms: C_16  and  C_25
    9  A    between atoms: C_16  and  O_27
   10  A    between atoms: C_17  and  O_27
   11  A    between atoms: C_20  and  C_26
   12  A    between atoms: C_20  and  C_35
                            x       y       z     vdW  Elec       q    Type
                         _______ _______ _______ _____ _____    ______ ____

>  <TORSDO>
F 12

$$$$
=
 OpenBabel11072408473D

 36 38  0  0  1  0  0  0  0  0999 V2000
  190.9140  175.6820  147.5190 N   0  0  0  0  0  2  0  0  0  0  0  0
  189.7580  175.1160  146.9410 C   0  0  0  0  0  0  0  0  0  0  0  0
  188.9370  174.3940  147.6270 N   0  0  0  0  0  2  0  0  0  0  0  0
  189.4190  175.6860  145.6220 C   0  0  1  0  0  3  0  0  0  0  0  0
  191.4860  176.6400  146.5930 C   0  0  2  0  0  3  0  0  0  0  0  0
  190.5470  176.6920  145.3780 C   0  0  2  0  0  3  0  0  0  0  0  0
  190.0110  177.9730  145.2600 O   0  0  0  0  0  1  0  0  0  0  0  0
  192.8750  176.1760  146.1750 C   0  0  0  0  0  2  0  0  0  0  0  0
  193.1240  176.4380  144.6940 C   0  0  0  0  0  2  0  0  0  0  0  0
  194.0190  175.3680  144.0840 C   0  0  1  0  0  3  0  0  0  0  0  0
  192.8570  174.6880  141.5370 S   0  0  0  0  0  0  0  0  0  0  0  0
  192.4310  172.9200  141.3820 C   0  0  0  0  0  2  0  0  0  0  0  0
  192.0600  172.3970  142.7630 C   0  0  0  0  0  2  0  0  0  0  0  0
  192.7710  173.2590  143.7360 C   0  0  0  0  0  0  0  0  0  0  0  0
  193.2210  174.4040  143.2590 C   0  0  0  0  0  0  0  0  0  0  0  0
  192.9470  172.8770  145.0610 O   0  0  0  0  0  1  0  0  0  0  0  0
  195.0040  175.9670  143.2960 O   0  0  0  0  0  0  0  0  0  0  0  0
  196.1750  175.2580  143.5770 C   0  0  2  0  0  3  0  0  0  0  0  0
  196.2470  175.0000  144.9450 O   0  0  0  0  0  1  0  0  0  0  0  0
  197.3770  176.0790  143.1550 C   0  0  0  0  0  1  0  0  0  0  0  0
  189.4530  174.5960  144.5630 C   0  0  0  0  0  2  0  0  0  0  0  0
  189.4460  175.2100  143.1740 C   0  0  0  0  0  2  0  0  0  0  0  0
  188.0770  175.1310  142.5810 C   0  0  0  0  0  0  0  0  0  0  0  0
  187.6870  174.0800  142.0960 O   0  0  0  0  0  0  0  0  0  0  0  0
  187.1990  176.3590  142.5470 C   0  0  0  0  0  0  0  0  0  0  0  0
  186.8100  176.5710  141.2370 F   0  0  0  0  0  0  0  0  0  0  0  0
  187.9070  177.4830  142.9600 F   0  0  0  0  0  0  0  0  0  0  0  0
  186.0350  176.1750  143.3270 O   0  0  0  0  0  0  0  0  0  0  0  0
  184.8510  178.0450  144.1990 C   0  0  0  0  0  2  0  0  0  0  0  0
  186.1790  178.4990  147.0700 C   0  0  0  0  0  0  0  0  0  0  0  0
  185.8210  176.3950  145.6860 C   0  0  0  0  0  2  0  0  0  0  0  0
  185.0380  179.3300  144.9380 C   0  0  0  0  0  3  0  0  0  0  0  0
  185.5750  179.4950  146.1520 C   0  0  0  0  0  3  0  0  0  0  0  0
  186.3240  177.1870  146.8490 C   0  0  0  0  0  3  0  0  0  0  0  0
  186.0290  177.1140  144.3730 C   0  0  1  0  0  3  0  0  0  0  0  0
  186.6950  178.9850  148.2230 F   0  0  0  0  0  0  0  0  0  0  0  0
  2  1  1  0  0  0  0
  2  3  2  0  0  0  0
  4 21  1  6  0  0  0
  4  2  1  0  0  0  0
  5  8  1  6  0  0  0
  5  1  1  0  0  0  0
  6  7  1  1  0  0  0
  6  4  1  0  0  0  0
  6  5  1  0  0  0  0
  9  8  1  0  0  0  0
 10  9  1  6  0  0  0
 11 15  1  0  0  0  0
 12 11  1  0  0  0  0
 12 13  1  0  0  0  0
 13 14  1  0  0  0  0
 14 16  1  0  0  0  0
 15 14  2  0  0  0  0
 15 10  1  0  0  0  0
 17 18  1  0  0  0  0
 17 10  1  0  0  0  0
 18 20  1  1  0  0  0
 18 19  1  0  0  0  0
 22 21  1  0  0  0  0
 23 22  1  0  0  0  0
 24 23  2  0  0  0  0
 25 23  1  0  0  0  0
 25 27  1  0  0  0  0
 25 28  1  0  0  0  0
 26 25  1  0  0  0  0
 29 35  1  0  0  0  0
 29 32  1  0  0  0  0
 30 36  1  0  0  0  0
 31 34  1  0  0  0  0
 32 33  2  0  0  0  0
 33 30  1  0  0  0  0
 34 30  2  0  0  0  0
 35 28  1  6  0  0  0
 35 31  1  0  0  0  0
M  END
>  <MODEL>
2

>  <REMARK>
 VINA RESULT:      -7.0      1.252      1.452
  Name = 
  12 active torsions:
  status: ('A' for Active; 'I' for Inactive)
    1  A    between atoms: C_2  and  C_10
    2  A    between atoms: C_2  and  C_16
    3  A    between atoms: O_4  and  C_6
    4  A    between atoms: O_4  and  C_30
    5  A    between atoms: C_5  and  C_6
    6  A    between atoms: C_5  and  C_35
    7  A    between atoms: C_10  and  C_32
    8  A    between atoms: C_16  and  C_25
    9  A    between atoms: C_16  and  O_27
   10  A    between atoms: C_17  and  O_27
   11  A    between atoms: C_20  and  C_26
   12  A    between atoms: C_20  and  C_35
                            x       y       z     vdW  Elec       q    Type
                         _______ _______ _______ _____ _____    ______ ____

>  <TORSDO>
F 12

$$$$
=
 OpenBabel11072408473D

 36 38  0  0  1  0  0  0  0  0999 V2000
  190.8920  175.5870  147.5680 N   0  0  0  0  0  2  0  0  0  0  0  0
  189.7280  175.0770  146.9560 C   0  0  0  0  0  0  0  0  0  0  0  0
  188.8380  174.4220  147.6240 N   0  0  0  0  0  2  0  0  0  0  0  0
  189.4760  175.6330  145.6120 C   0  0  1  0  0  3  0  0  0  0  0  0
  191.5560  176.4870  146.6460 C   0  0  2  0  0  3  0  0  0  0  0  0
  190.6710  176.5640  145.3920 C   0  0  2  0  0  3  0  0  0  0  0  0
  190.2180  177.8720  145.2230 O   0  0  0  0  0  1  0  0  0  0  0  0
  192.9310  175.9310  146.2950 C   0  0  0  0  0  2  0  0  0  0  0  0
  193.1250  175.8470  144.7860 C   0  0  0  0  0  2  0  0  0  0  0  0
  193.7360  174.5120  144.3790 C   0  0  1  0  0  3  0  0  0  0  0  0
  196.2410  174.2690  145.7820 S   0  0  0  0  0  0  0  0  0  0  0  0
  197.6780  174.0830  144.6740 C   0  0  0  0  0  2  0  0  0  0  0  0
  197.3850  174.8340  143.3820 C   0  0  0  0  0  2  0  0  0  0  0  0
  195.9090  174.8620  143.2470 C   0  0  0  0  0  0  0  0  0  0  0  0
  195.2310  174.5920  144.3480 C   0  0  0  0  0  0  0  0  0  0  0  0
  195.2890  175.1560  142.0380 O   0  0  0  0  0  1  0  0  0  0  0  0
  193.3310  173.5150  145.2700 O   0  0  0  0  0  0  0  0  0  0  0  0
  193.2650  172.3490  144.5040 C   0  0  2  0  0  3  0  0  0  0  0  0
  191.9330  171.9660  144.3510 O   0  0  0  0  0  1  0  0  0  0  0  0
  194.0300  171.2420  145.2000 C   0  0  0  0  0  1  0  0  0  0  0  0
  189.4860  174.5170  144.5800 C   0  0  0  0  0  2  0  0  0  0  0  0
  189.5030  175.0980  143.1770 C   0  0  0  0  0  2  0  0  0  0  0  0
  188.1350  175.0430  142.5780 C   0  0  0  0  0  0  0  0  0  0  0  0
  187.7010  173.9830  142.1560 O   0  0  0  0  0  0  0  0  0  0  0  0
  187.3140  176.3050  142.4600 C   0  0  0  0  0  0  0  0  0  0  0  0
  187.0380  176.5130  141.1210 F   0  0  0  0  0  0  0  0  0  0  0  0
  188.0340  177.4060  142.9140 F   0  0  0  0  0  0  0  0  0  0  0  0
  186.0860  176.1800  143.1480 O   0  0  0  0  0  0  0  0  0  0  0  0
  184.8370  178.0270  143.9770 C   0  0  0  0  0  2  0  0  0  0  0  0
  186.1120  178.5600  146.8590 C   0  0  0  0  0  0  0  0  0  0  0  0
  185.8330  176.4270  145.5010 C   0  0  0  0  0  2  0  0  0  0  0  0
  184.9760  179.3280  144.7000 C   0  0  0  0  0  3  0  0  0  0  0  0
  185.4920  179.5250  145.9190 C   0  0  0  0  0  3  0  0  0  0  0  0
  186.2980  177.2500  146.6590 C   0  0  0  0  0  3  0  0  0  0  0  0
  186.0390  177.1340  144.1810 C   0  0  1  0  0  3  0  0  0  0  0  0
  186.5970  179.0770  148.0120 F   0  0  0  0  0  0  0  0  0  0  0  0
  2  1  1  0  0  0  0
  2  3  2  0  0  0  0
  4 21  1  6  0  0  0
  4  2  1  0  0  0  0
  5  8  1  6  0  0  0
  5  1  1  0  0  0  0
  6  7  1  1  0  0  0
  6  4  1  0  0  0  0
  6  5  1  0  0  0  0
  9  8  1  0  0  0  0
 10  9  1  1  0  0  0
 10 17  1  0  0  0  0
 12 11  1  0  0  0  0
 13 12  1  0  0  0  0
 14 13  1  0  0  0  0
 14 15  2  0  0  0  0
 15 10  1  0  0  0  0
 15 11  1  0  0  0  0
 16 14  1  0  0  0  0
 18 20  1  1  0  0  0
 18 17  1  0  0  0  0
 19 18  1  0  0  0  0
 22 21  1  0  0  0  0
 23 22  1  0  0  0  0
 24 23  2  0  0  0  0
 25 23  1  0  0  0  0
 25 27  1  0  0  0  0
 25 28  1  0  0  0  0
 26 25  1  0  0  0  0
 29 35  1  0  0  0  0
 29 32  1  0  0  0  0
 30 36  1  0  0  0  0
 31 34  1  0  0  0  0
 32 33  2  0  0  0  0
 33 30  1  0  0  0  0
 34 30  2  0  0  0  0
 35 28  1  6  0  0  0
 35 31  1  0  0  0  0
M  END
>  <MODEL>
3

>  <REMARK>
 VINA RESULT:      -6.9      1.362      2.400
  Name = 
  12 active torsions:
  status: ('A' for Active; 'I' for Inactive)
    1  A    between atoms: C_2  and  C_10
    2  A    between atoms: C_2  and  C_16
    3  A    between atoms: O_4  and  C_6
    4  A    between atoms: O_4  and  C_30
    5  A    between atoms: C_5  and  C_6
    6  A    between atoms: C_5  and  C_35
    7  A    between atoms: C_10  and  C_32
    8  A    between atoms: C_16  and  C_25
    9  A    between atoms: C_16  and  O_27
   10  A    between atoms: C_17  and  O_27
   11  A    between atoms: C_20  and  C_26
   12  A    between atoms: C_20  and  C_35
                            x       y       z     vdW  Elec       q    Type
                         _______ _______ _______ _____ _____    ______ ____

>  <TORSDO>
F 12

$$$$
=
 OpenBabel11072408473D

 36 38  0  0  1  0  0  0  0  0999 V2000
  191.2850  175.2050  147.4250 N   0  0  0  0  0  2  0  0  0  0  0  0
  190.0580  175.0410  146.7480 C   0  0  0  0  0  0  0  0  0  0  0  0
  188.9680  174.7470  147.3740 N   0  0  0  0  0  2  0  0  0  0  0  0
  190.0770  175.5500  145.3620 C   0  0  1  0  0  3  0  0  0  0  0  0
  192.2550  175.7830  146.5160 C   0  0  2  0  0  3  0  0  0  0  0  0
  191.5160  176.0420  145.1930 C   0  0  2  0  0  3  0  0  0  0  0  0
  191.5120  177.4100  144.9240 O   0  0  0  0  0  1  0  0  0  0  0  0
  193.4010  174.8020  146.3040 C   0  0  0  0  0  2  0  0  0  0  0  0
  194.6510  175.5120  145.7980 C   0  0  0  0  0  2  0  0  0  0  0  0
  195.2920  174.7510  144.6450 C   0  0  1  0  0  3  0  0  0  0  0  0
  196.7700  176.6850  143.1020 S   0  0  0  0  0  0  0  0  0  0  0  0
  196.2390  176.7810  141.3590 C   0  0  0  0  0  2  0  0  0  0  0  0
  194.7540  176.4520  141.2940 C   0  0  0  0  0  2  0  0  0  0  0  0
  194.4690  175.5930  142.4680 C   0  0  0  0  0  0  0  0  0  0  0  0
  195.3840  175.6080  143.4190 C   0  0  0  0  0  0  0  0  0  0  0  0
  193.3130  174.8260  142.5520 O   0  0  0  0  0  1  0  0  0  0  0  0
  196.5660  174.3140  145.0160 O   0  0  0  0  0  0  0  0  0  0  0  0
  196.5700  172.9420  144.7530 C   0  0  2  0  0  3  0  0  0  0  0  0
  195.3170  172.5540  144.2810 O   0  0  0  0  0  1  0  0  0  0  0  0
  196.8850  172.1840  146.0260 C   0  0  0  0  0  1  0  0  0  0  0  0
  189.7960  174.4150  144.3910 C   0  0  0  0  0  2  0  0  0  0  0  0
  189.6570  174.9540  142.9780 C   0  0  0  0  0  2  0  0  0  0  0  0
  188.2600  174.7570  142.4840 C   0  0  0  0  0  0  0  0  0  0  0  0
  187.9000  173.6510  142.1130 O   0  0  0  0  0  0  0  0  0  0  0  0
  187.3160  175.9330  142.4080 C   0  0  0  0  0  0  0  0  0  0  0  0
  186.0820  175.5230  142.8770 F   0  0  0  0  0  0  0  0  0  0  0  0
  187.1460  176.3430  141.0890 F   0  0  0  0  0  0  0  0  0  0  0  0
  187.7630  177.0000  143.2200 O   0  0  0  0  0  0  0  0  0  0  0  0
  187.3250  177.3430  145.5320 C   0  0  0  0  0  2  0  0  0  0  0  0
  184.3920  178.6120  145.5580 C   0  0  0  0  0  0  0  0  0  0  0  0
  186.2780  178.7460  143.8560 C   0  0  0  0  0  2  0  0  0  0  0  0
  186.2640  177.1980  146.5750 C   0  0  0  0  0  3  0  0  0  0  0  0
  185.0490  177.7600  146.5780 C   0  0  0  0  0  3  0  0  0  0  0  0
  184.9000  178.9920  144.3790 C   0  0  0  0  0  3  0  0  0  0  0  0
  186.7500  177.3370  144.1340 C   0  0  1  0  0  3  0  0  0  0  0  0
  183.1200  178.9890  145.8250 F   0  0  0  0  0  0  0  0  0  0  0  0
  2  3  2  0  0  0  0
  2  1  1  0  0  0  0
  4 21  1  6  0  0  0
  4  2  1  0  0  0  0
  5  8  1  6  0  0  0
  5  1  1  0  0  0  0
  6  7  1  1  0  0  0
  6  4  1  0  0  0  0
  6  5  1  0  0  0  0
  9  8  1  0  0  0  0
 10 17  1  0  0  0  0
 10  9  1  1  0  0  0
 11 15  1  0  0  0  0
 12 11  1  0  0  0  0
 13 12  1  0  0  0  0
 13 14  1  0  0  0  0
 14 16  1  0  0  0  0
 14 15  2  0  0  0  0
 15 10  1  0  0  0  0
 18 17  1  0  0  0  0
 18 20  1  1  0  0  0
 19 18  1  0  0  0  0
 22 21  1  0  0  0  0
 23 22  1  0  0  0  0
 24 23  2  0  0  0  0
 25 23  1  0  0  0  0
 25 26  1  0  0  0  0
 25 28  1  0  0  0  0
 27 25  1  0  0  0  0
 29 32  1  0  0  0  0
 30 36  1  0  0  0  0
 30 33  1  0  0  0  0
 31 35  1  0  0  0  0
 31 34  1  0  0  0  0
 32 33  2  0  0  0  0
 34 30  2  0  0  0  0
 35 28  1  6  0  0  0
 35 29  1  0  0  0  0
M  END
>  <MODEL>
4

>  <REMARK>
 VINA RESULT:      -6.9      1.675      3.000
  Name = 
  12 active torsions:
  status: ('A' for Active; 'I' for Inactive)
    1  A    between atoms: C_2  and  C_10
    2  A    between atoms: C_2  and  C_16
    3  A    between atoms: O_4  and  C_6
    4  A    between atoms: O_4  and  C_30
    5  A    between atoms: C_5  and  C_6
    6  A    between atoms: C_5  and  C_35
    7  A    between atoms: C_10  and  C_32
    8  A    between atoms: C_16  and  C_25
    9  A    between atoms: C_16  and  O_27
   10  A    between atoms: C_17  and  O_27
   11  A    between atoms: C_20  and  C_26
   12  A    between atoms: C_20  and  C_35
                            x       y       z     vdW  Elec       q    Type
                         _______ _______ _______ _____ _____    ______ ____

>  <TORSDO>
F 12

$$$$
=
 OpenBabel11072408473D

 36 38  0  0  1  0  0  0  0  0999 V2000
  191.4690  175.3160  147.3510 N   0  0  0  0  0  2  0  0  0  0  0  0
  190.2620  175.0070  146.6910 C   0  0  0  0  0  0  0  0  0  0  0  0
  189.2220  174.5900  147.3330 N   0  0  0  0  0  2  0  0  0  0  0  0
  190.2020  175.5090  145.3040 C   0  0  1  0  0  3  0  0  0  0  0  0
  192.3530  175.9990  146.4270 C   0  0  2  0  0  3  0  0  0  0  0  0
  191.5720  176.1650  145.1140 C   0  0  2  0  0  3  0  0  0  0  0  0
  191.4040  177.5220  144.8410 O   0  0  0  0  0  1  0  0  0  0  0  0
  193.6030  175.1580  146.2020 C   0  0  0  0  0  2  0  0  0  0  0  0
  193.9150  175.0170  144.7170 C   0  0  0  0  0  2  0  0  0  0  0  0
  195.3580  174.5820  144.4930 C   0  0  1  0  0  3  0  0  0  0  0  0
  194.6760  171.8240  144.0140 S   0  0  0  0  0  0  0  0  0  0  0  0
  195.8920  170.6470  144.6950 C   0  0  0  0  0  2  0  0  0  0  0  0
  196.5100  171.2670  145.9400 C   0  0  0  0  0  2  0  0  0  0  0  0
  196.4030  172.7360  145.7670 C   0  0  0  0  0  0  0  0  0  0  0  0
  195.5470  173.1390  144.8470 C   0  0  0  0  0  0  0  0  0  0  0  0
  197.1570  173.6210  146.5290 O   0  0  0  0  0  1  0  0  0  0  0  0
  195.7160  174.7960  143.1600 O   0  0  0  0  0  0  0  0  0  0  0  0
  195.5900  176.1740  142.9660 C   0  0  2  0  0  3  0  0  0  0  0  0
  195.1730  176.4240  141.6600 O   0  0  0  0  0  1  0  0  0  0  0  0
  196.9280  176.8430  143.2050 C   0  0  0  0  0  1  0  0  0  0  0  0
  190.0430  174.3440  144.3400 C   0  0  0  0  0  2  0  0  0  0  0  0
  189.8230  174.8570  142.9270 C   0  0  0  0  0  2  0  0  0  0  0  0
  188.4010  174.6520  142.5180 C   0  0  0  0  0  0  0  0  0  0  0  0
  188.0090  173.5310  142.2320 O   0  0  0  0  0  0  0  0  0  0  0  0
  187.4670  175.8350  142.4210 C   0  0  0  0  0  0  0  0  0  0  0  0
  186.2030  175.4150  142.7910 F   0  0  0  0  0  0  0  0  0  0  0  0
  187.3880  176.2930  141.1090 F   0  0  0  0  0  0  0  0  0  0  0  0
  187.8620  176.8700  143.2990 O   0  0  0  0  0  0  0  0  0  0  0  0
  187.1690  176.9990  145.5710 C   0  0  0  0  0  2  0  0  0  0  0  0
  184.3850  178.5620  145.4160 C   0  0  0  0  0  0  0  0  0  0  0  0
  186.4750  178.6820  143.9710 C   0  0  0  0  0  2  0  0  0  0  0  0
  185.9760  176.8530  146.4600 C   0  0  0  0  0  3  0  0  0  0  0  0
  184.8280  177.5370  146.3920 C   0  0  0  0  0  3  0  0  0  0  0  0
  185.0710  179.0140  144.3590 C   0  0  0  0  0  3  0  0  0  0  0  0
  186.7770  177.2090  144.1260 C   0  0  1  0  0  3  0  0  0  0  0  0
  183.1300  179.0400  145.5800 F   0  0  0  0  0  0  0  0  0  0  0  0
  2  3  2  0  0  0  0
  2  1  1  0  0  0  0
  4 21  1  6  0  0  0
  4  2  1  0  0  0  0
  5  8  1  6  0  0  0
  5  1  1  0  0  0  0
  6  7  1  1  0  0  0
  6  4  1  0  0  0  0
  6  5  1  0  0  0  0
  9  8  1  0  0  0  0
 10  9  1  6  0  0  0
 10 15  1  0  0  0  0
 11 12  1  0  0  0  0
 11 15  1  0  0  0  0
 12 13  1  0  0  0  0
 14 13  1  0  0  0  0
 14 16  1  0  0  0  0
 15 14  2  0  0  0  0
 17 10  1  0  0  0  0
 18 17  1  0  0  0  0
 18 20  1  6  0  0  0
 19 18  1  0  0  0  0
 22 21  1  0  0  0  0
 23 22  1  0  0  0  0
 24 23  2  0  0  0  0
 25 23  1  0  0  0  0
 25 26  1  0  0  0  0
 25 28  1  0  0  0  0
 27 25  1  0  0  0  0
 29 32  1  0  0  0  0
 30 36  1  0  0  0  0
 30 33  1  0  0  0  0
 31 35  1  0  0  0  0
 31 34  1  0  0  0  0
 33 32  2  0  0  0  0
 34 30  2  0  0  0  0
 35 28  1  6  0  0  0
 35 29  1  0  0  0  0
M  END
>  <MODEL>
5

>  <REMARK>
 VINA RESULT:      -6.8      1.396      1.856
  Name = 
  12 active torsions:
  status: ('A' for Active; 'I' for Inactive)
    1  A    between atoms: C_2  and  C_10
    2  A    between atoms: C_2  and  C_16
    3  A    between atoms: O_4  and  C_6
    4  A    between atoms: O_4  and  C_30
    5  A    between atoms: C_5  and  C_6
    6  A    between atoms: C_5  and  C_35
    7  A    between atoms: C_10  and  C_32
    8  A    between atoms: C_16  and  C_25
    9  A    between atoms: C_16  and  O_27
   10  A    between atoms: C_17  and  O_27
   11  A    between atoms: C_20  and  C_26
   12  A    between atoms: C_20  and  C_35
                            x       y       z     vdW  Elec       q    Type
                         _______ _______ _______ _____ _____    ______ ____

>  <TORSDO>
F 12

$$$$
=
 OpenBabel11072408473D

 36 38  0  0  1  0  0  0  0  0999 V2000
  190.4150  173.3110  142.0120 N   0  0  0  0  0  2  0  0  0  0  0  0
  189.9860  173.5710  140.6940 C   0  0  0  0  0  0  0  0  0  0  0  0
  190.7630  173.3980  139.6780 N   0  0  0  0  0  2  0  0  0  0  0  0
  188.5230  173.7280  140.5700 C   0  0  1  0  0  3  0  0  0  0  0  0
  189.2690  173.3390  142.8990 C   0  0  2  0  0  3  0  0  0  0  0  0
  188.0350  173.5770  142.0140 C   0  0  2  0  0  3  0  0  0  0  0  0
  187.1800  172.4800  142.1040 O   0  0  0  0  0  1  0  0  0  0  0  0
  189.4310  174.4710  143.9050 C   0  0  0  0  0  2  0  0  0  0  0  0
  190.1490  173.9950  145.1620 C   0  0  0  0  0  2  0  0  0  0  0  0
  191.1590  175.0270  145.6480 C   0  0  1  0  0  3  0  0  0  0  0  0
  192.3990  176.3670  143.4180 S   0  0  0  0  0  0  0  0  0  0  0  0
  194.1880  176.0380  143.2790 C   0  0  0  0  0  2  0  0  0  0  0  0
  194.4600  174.6390  143.8130 C   0  0  0  0  0  2  0  0  0  0  0  0
  193.3780  174.3510  144.7840 C   0  0  0  0  0  0  0  0  0  0  0  0
  192.3170  175.1330  144.7030 C   0  0  0  0  0  0  0  0  0  0  0  0
  193.4820  173.3230  145.7140 O   0  0  0  0  0  1  0  0  0  0  0  0
  190.5380  176.2710  145.7800 O   0  0  0  0  0  0  0  0  0  0  0  0
  190.1570  176.3460  147.1220 C   0  0  2  0  0  3  0  0  0  0  0  0
  189.8620  177.6690  147.4500 O   0  0  0  0  0  1  0  0  0  0  0  0
  191.2900  175.8520  147.9980 C   0  0  0  0  0  1  0  0  0  0  0  0
  188.1940  175.1170  140.0500 C   0  0  0  0  0  2  0  0  0  0  0  0
  187.7720  176.0210  141.1950 C   0  0  0  0  0  2  0  0  0  0  0  0
  186.8790  177.1090  140.6920 C   0  0  0  0  0  0  0  0  0  0  0  0
  186.9210  177.4310  139.5150 O   0  0  0  0  0  0  0  0  0  0  0  0
  185.9600  177.8310  141.6480 C   0  0  0  0  0  0  0  0  0  0  0  0
  185.2320  176.8820  142.3430 F   0  0  0  0  0  0  0  0  0  0  0  0
  185.0530  178.6260  140.9540 F   0  0  0  0  0  0  0  0  0  0  0  0
  186.6940  178.5940  142.5840 O   0  0  0  0  0  0  0  0  0  0  0  0
  187.4050  177.6210  144.6350 C   0  0  0  0  0  2  0  0  0  0  0  0
  185.0130  178.2870  146.6470 C   0  0  0  0  0  0  0  0  0  0  0  0
  185.9200  179.5370  144.6260 C   0  0  0  0  0  2  0  0  0  0  0  0
  186.9240  176.8150  145.7980 C   0  0  0  0  0  3  0  0  0  0  0  0
  185.9340  177.1250  146.6440 C   0  0  0  0  0  3  0  0  0  0  0  0
  184.9790  179.2890  145.7600 C   0  0  0  0  0  3  0  0  0  0  0  0
  186.2640  178.2670  143.8820 C   0  0  1  0  0  3  0  0  0  0  0  0
  184.0660  178.2970  147.6150 F   0  0  0  0  0  0  0  0  0  0  0  0
  1  5  1  0  0  0  0
  2  1  1  0  0  0  0
  3  2  2  0  0  0  0
  4 21  1  1  0  0  0
  4  2  1  0  0  0  0
  4  6  1  0  0  0  0
  5  8  1  1  0  0  0
  6  7  1  6  0  0  0
  6  5  1  0  0  0  0
  8  9  1  0  0  0  0
 10  9  1  6  0  0  0
 10 17  1  0  0  0  0
 11 15  1  0  0  0  0
 12 11  1  0  0  0  0
 12 13  1  0  0  0  0
 13 14  1  0  0  0  0
 14 16  1  0  0  0  0
 15 14  2  0  0  0  0
 15 10  1  0  0  0  0
 17 18  1  0  0  0  0
 18 19  1  0  0  0  0
 18 20  1  1  0  0  0
 21 22  1  0  0  0  0
 23 22  1  0  0  0  0
 23 25  1  0  0  0  0
 24 23  2  0  0  0  0
 25 26  1  0  0  0  0
 25 28  1  0  0  0  0
 27 25  1  0  0  0  0
 29 32  1  0  0  0  0
 30 36  1  0  0  0  0
 31 34  1  0  0  0  0
 32 33  2  0  0  0  0
 33 30  1  0  0  0  0
 34 30  2  0  0  0  0
 35 28  1  6  0  0  0
 35 31  1  0  0  0  0
 35 29  1  0  0  0  0
M  END
>  <MODEL>
6

>  <REMARK>
 VINA RESULT:      -6.8      2.538      4.463
  Name = 
  12 active torsions:
  status: ('A' for Active; 'I' for Inactive)
    1  A    between atoms: C_2  and  C_10
    2  A    between atoms: C_2  and  C_16
    3  A    between atoms: O_4  and  C_6
    4  A    between atoms: O_4  and  C_30
    5  A    between atoms: C_5  and  C_6
    6  A    between atoms: C_5  and  C_35
    7  A    between atoms: C_10  and  C_32
    8  A    between atoms: C_16  and  C_25
    9  A    between atoms: C_16  and  O_27
   10  A    between atoms: C_17  and  O_27
   11  A    between atoms: C_20  and  C_26
   12  A    between atoms: C_20  and  C_35
                            x       y       z     vdW  Elec       q    Type
                         _______ _______ _______ _____ _____    ______ ____

>  <TORSDO>
F 12

$$$$
=
 OpenBabel11072408473D

 36 38  0  0  1  0  0  0  0  0999 V2000
  191.2050  172.7090  141.5330 N   0  0  0  0  0  2  0  0  0  0  0  0
  190.0630  173.4570  141.1760 C   0  0  0  0  0  0  0  0  0  0  0  0
  189.6290  173.5000  139.9610 N   0  0  0  0  0  2  0  0  0  0  0  0
  189.2550  173.8880  142.3340 C   0  0  1  0  0  3  0  0  0  0  0  0
  191.2910  172.6360  142.9780 C   0  0  2  0  0  3  0  0  0  0  0  0
  190.0490  173.3550  143.5290 C   0  0  2  0  0  3  0  0  0  0  0  0
  189.2660  172.4490  144.2430 O   0  0  0  0  0  1  0  0  0  0  0  0
  192.5630  173.3290  143.4480 C   0  0  0  0  0  2  0  0  0  0  0  0
  192.5300  173.5860  144.9510 C   0  0  0  0  0  2  0  0  0  0  0  0
  192.8910  175.0300  145.2740 C   0  0  1  0  0  3  0  0  0  0  0  0
  190.7190  175.5170  147.1040 S   0  0  0  0  0  0  0  0  0  0  0  0
  189.9470  177.1570  146.8930 C   0  0  0  0  0  2  0  0  0  0  0  0
  190.0580  177.5520  145.4270 C   0  0  0  0  0  2  0  0  0  0  0  0
  191.2400  176.8340  144.8940 C   0  0  0  0  0  0  0  0  0  0  0  0
  191.6700  175.8240  145.6270 C   0  0  0  0  0  0  0  0  0  0  0  0
  191.8470  177.2070  143.7010 O   0  0  0  0  0  1  0  0  0  0  0  0
  193.8030  175.0650  146.3320 O   0  0  0  0  0  0  0  0  0  0  0  0
  194.9920  175.5380  145.7710 C   0  0  2  0  0  3  0  0  0  0  0  0
  194.7540  175.9610  144.4640 O   0  0  0  0  0  1  0  0  0  0  0  0
  196.0230  174.4270  145.7600 C   0  0  0  0  0  1  0  0  0  0  0  0
  189.1920  175.4060  142.3840 C   0  0  0  0  0  2  0  0  0  0  0  0
  187.9690  175.9070  141.6370 C   0  0  0  0  0  2  0  0  0  0  0  0
  187.8970  177.3980  141.7040 C   0  0  0  0  0  0  0  0  0  0  0  0
  188.9260  178.0550  141.6980 O   0  0  0  0  0  0  0  0  0  0  0  0
  186.5560  178.0830  141.8210 C   0  0  0  0  0  0  0  0  0  0  0  0
  186.0490  178.2530  140.5460 F   0  0  0  0  0  0  0  0  0  0  0  0
  186.6950  179.3460  142.3870 F   0  0  0  0  0  0  0  0  0  0  0  0
  185.6430  177.2930  142.5560 O   0  0  0  0  0  0  0  0  0  0  0  0
  184.3500  178.2860  144.2890 C   0  0  0  0  0  2  0  0  0  0  0  0
  186.1210  177.8140  146.9070 C   0  0  0  0  0  0  0  0  0  0  0  0
  185.8640  176.4560  144.7710 C   0  0  0  0  0  2  0  0  0  0  0  0
  184.4550  179.1520  145.5020 C   0  0  0  0  0  3  0  0  0  0  0  0
  185.1850  178.9230  146.6000 C   0  0  0  0  0  3  0  0  0  0  0  0
  186.4440  176.7900  146.1080 C   0  0  0  0  0  3  0  0  0  0  0  0
  185.6820  177.6820  143.9070 C   0  0  1  0  0  3  0  0  0  0  0  0
  186.7630  177.8860  148.0970 F   0  0  0  0  0  0  0  0  0  0  0  0
  1  5  1  0  0  0  0
  2  1  1  0  0  0  0
  2  4  1  0  0  0  0
  3  2  2  0  0  0  0
  4 21  1  1  0  0  0
  4  6  1  0  0  0  0
  5  8  1  1  0  0  0
  5  6  1  0  0  0  0
  6  7  1  6  0  0  0
  8  9  1  0  0  0  0
 10  9  1  1  0  0  0
 10 15  1  0  0  0  0
 10 17  1  0  0  0  0
 12 11  1  0  0  0  0
 13 12  1  0  0  0  0
 14 13  1  0  0  0  0
 14 15  2  0  0  0  0
 15 11  1  0  0  0  0
 16 14  1  0  0  0  0
 18 20  1  6  0  0  0
 18 17  1  0  0  0  0
 19 18  1  0  0  0  0
 22 23  1  0  0  0  0
 22 21  1  0  0  0  0
 23 25  1  0  0  0  0
 24 23  2  0  0  0  0
 25 27  1  0  0  0  0
 25 28  1  0  0  0  0
 26 25  1  0  0  0  0
 29 32  1  0  0  0  0
 30 36  1  0  0  0  0
 31 34  1  0  0  0  0
 32 33  2  0  0  0  0
 33 30  1  0  0  0  0
 34 30  2  0  0  0  0
 35 28  1  6  0  0  0
 35 29  1  0  0  0  0
 35 31  1  0  0  0  0
M  END
>  <MODEL>
7

>  <REMARK>
 VINA RESULT:      -6.7      2.533      3.949
  Name = 
  12 active torsions:
  status: ('A' for Active; 'I' for Inactive)
    1  A    between atoms: C_2  and  C_10
    2  A    between atoms: C_2  and  C_16
    3  A    between atoms: O_4  and  C_6
    4  A    between atoms: O_4  and  C_30
    5  A    between atoms: C_5  and  C_6
    6  A    between atoms: C_5  and  C_35
    7  A    between atoms: C_10  and  C_32
    8  A    between atoms: C_16  and  C_25
    9  A    between atoms: C_16  and  O_27
   10  A    between atoms: C_17  and  O_27
   11  A    between atoms: C_20  and  C_26
   12  A    between atoms: C_20  and  C_35
                            x       y       z     vdW  Elec       q    Type
                         _______ _______ _______ _____ _____    ______ ____

>  <TORSDO>
F 12

$$$$
=
 OpenBabel11072408473D

 36 38  0  0  1  0  0  0  0  0999 V2000
  190.2980  173.4570  140.2890 N   0  0  0  0  0  2  0  0  0  0  0  0
  188.8880  173.4960  140.3310 C   0  0  0  0  0  0  0  0  0  0  0  0
  188.1710  173.3660  139.2650 N   0  0  0  0  0  2  0  0  0  0  0  0
  188.3350  173.3660  141.6930 C   0  0  1  0  0  3  0  0  0  0  0  0
  190.8100  173.3640  141.6420 C   0  0  2  0  0  3  0  0  0  0  0  0
  189.5870  173.2770  142.5690 C   0  0  2  0  0  3  0  0  0  0  0  0
  189.5990  172.0560  143.2420 O   0  0  0  0  0  1  0  0  0  0  0  0
  191.6350  174.6040  141.9610 C   0  0  0  0  0  2  0  0  0  0  0  0
  192.4300  174.4230  143.2490 C   0  0  0  0  0  2  0  0  0  0  0  0
  193.0670  175.7330  143.6950 C   0  0  1  0  0  3  0  0  0  0  0  0
  194.9720  176.0580  141.5580 S   0  0  0  0  0  0  0  0  0  0  0  0
  196.6390  176.5240  142.1370 C   0  0  0  0  0  2  0  0  0  0  0  0
  196.8550  175.9110  143.5130 C   0  0  0  0  0  2  0  0  0  0  0  0
  195.5070  175.7480  144.1090 C   0  0  0  0  0  0  0  0  0  0  0  0
  194.4990  175.8110  143.2590 C   0  0  0  0  0  0  0  0  0  0  0  0
  195.3280  175.5420  145.4720 O   0  0  0  0  0  1  0  0  0  0  0  0
  192.3510  176.8110  143.1710 O   0  0  0  0  0  0  0  0  0  0  0  0
  191.9280  177.5420  144.2830 C   0  0  2  0  0  3  0  0  0  0  0  0
  191.4720  176.6680  145.2690 O   0  0  0  0  0  1  0  0  0  0  0  0
  190.8050  178.4750  143.8790 C   0  0  0  0  0  1  0  0  0  0  0  0
  187.5360  174.6100  142.0480 C   0  0  0  0  0  2  0  0  0  0  0  0
  188.2040  175.8460  141.4720 C   0  0  0  0  0  2  0  0  0  0  0  0
  187.1810  176.7590  140.8790 C   0  0  0  0  0  0  0  0  0  0  0  0
  187.0300  176.7940  139.6670 O   0  0  0  0  0  0  0  0  0  0  0  0
  186.3670  177.6620  141.7750 C   0  0  0  0  0  0  0  0  0  0  0  0
  185.3710  176.9020  142.3590 F   0  0  0  0  0  0  0  0  0  0  0  0
  185.7490  178.6640  141.0340 F   0  0  0  0  0  0  0  0  0  0  0  0
  187.1640  178.2090  142.8060 O   0  0  0  0  0  0  0  0  0  0  0  0
  187.5440  177.5400  145.0570 C   0  0  0  0  0  2  0  0  0  0  0  0
  184.7900  178.2400  146.5210 C   0  0  0  0  0  0  0  0  0  0  0  0
  185.9770  179.3170  144.5450 C   0  0  0  0  0  2  0  0  0  0  0  0
  186.9070  176.8380  146.2120 C   0  0  0  0  0  3  0  0  0  0  0  0
  185.7630  177.1640  146.8270 C   0  0  0  0  0  3  0  0  0  0  0  0
  184.8610  179.1260  145.5200 C   0  0  0  0  0  3  0  0  0  0  0  0
  186.5240  178.0010  144.0410 C   0  0  1  0  0  3  0  0  0  0  0  0
  183.6850  178.2860  147.3000 F   0  0  0  0  0  0  0  0  0  0  0  0
  1  2  1  0  0  0  0
  1  5  1  0  0  0  0
  2  4  1  0  0  0  0
  3  2  2  0  0  0  0
  4 21  1  1  0  0  0
  4  6  1  0  0  0  0
  5  8  1  1  0  0  0
  5  6  1  0  0  0  0
  6  7  1  6  0  0  0
  8  9  1  0  0  0  0
 10  9  1  6  0  0  0
 11 12  1  0  0  0  0
 11 15  1  0  0  0  0
 12 13  1  0  0  0  0
 13 14  1  0  0  0  0
 14 16  1  0  0  0  0
 15 10  1  0  0  0  0
 15 14  2  0  0  0  0
 17 10  1  0  0  0  0
 17 18  1  0  0  0  0
 18 20  1  6  0  0  0
 18 19  1  0  0  0  0
 22 21  1  0  0  0  0
 23 22  1  0  0  0  0
 23 25  1  0  0  0  0
 24 23  2  0  0  0  0
 25 26  1  0  0  0  0
 25 28  1  0  0  0  0
 27 25  1  0  0  0  0
 29 32  1  0  0  0  0
 30 33  1  0  0  0  0
 30 36  1  0  0  0  0
 31 34  1  0  0  0  0
 32 33  2  0  0  0  0
 34 30  2  0  0  0  0
 35 28  1  6  0  0  0
 35 31  1  0  0  0  0
 35 29  1  0  0  0  0
M  END
>  <MODEL>
8

>  <REMARK>
 VINA RESULT:      -6.6      2.800      4.114
  Name = 
  12 active torsions:
  status: ('A' for Active; 'I' for Inactive)
    1  A    between atoms: C_2  and  C_10
    2  A    between atoms: C_2  and  C_16
    3  A    between atoms: O_4  and  C_6
    4  A    between atoms: O_4  and  C_30
    5  A    between atoms: C_5  and  C_6
    6  A    between atoms: C_5  and  C_35
    7  A    between atoms: C_10  and  C_32
    8  A    between atoms: C_16  and  C_25
    9  A    between atoms: C_16  and  O_27
   10  A    between atoms: C_17  and  O_27
   11  A    between atoms: C_20  and  C_26
   12  A    between atoms: C_20  and  C_35
                            x       y       z     vdW  Elec       q    Type
                         _______ _______ _______ _____ _____    ______ ____

>  <TORSDO>
F 12

$$$$
=
 OpenBabel11072408473D

 36 38  0  0  1  0  0  0  0  0999 V2000
  190.8110  172.3900  140.9240 N   0  0  0  0  0  2  0  0  0  0  0  0
  189.5450  172.8610  140.5160 C   0  0  0  0  0  0  0  0  0  0  0  0
  189.0960  172.6610  139.3230 N   0  0  0  0  0  2  0  0  0  0  0  0
  188.6860  173.2880  141.6390 C   0  0  1  0  0  3  0  0  0  0  0  0
  190.9280  172.5270  142.3620 C   0  0  2  0  0  3  0  0  0  0  0  0
  189.5810  173.0740  142.8620 C   0  0  2  0  0  3  0  0  0  0  0  0
  188.9900  172.1440  143.7150 O   0  0  0  0  0  1  0  0  0  0  0  0
  192.0540  173.4990  142.6910 C   0  0  0  0  0  2  0  0  0  0  0  0
  192.1480  173.7500  144.1910 C   0  0  0  0  0  2  0  0  0  0  0  0
  191.8430  175.2030  144.5310 C   0  0  1  0  0  3  0  0  0  0  0  0
  194.5140  176.2390  144.2160 S   0  0  0  0  0  0  0  0  0  0  0  0
  195.0030  177.3980  145.5370 C   0  0  0  0  0  2  0  0  0  0  0  0
  194.2910  176.9880  146.8190 C   0  0  0  0  0  2  0  0  0  0  0  0
  193.0570  176.2830  146.3980 C   0  0  0  0  0  0  0  0  0  0  0  0
  193.0350  175.8740  145.1430 C   0  0  0  0  0  0  0  0  0  0  0  0
  191.9990  176.0700  147.2750 O   0  0  0  0  0  1  0  0  0  0  0  0
  191.4530  175.8870  143.3770 O   0  0  0  0  0  0  0  0  0  0  0  0
  190.6280  176.9200  143.8290 C   0  0  2  0  0  3  0  0  0  0  0  0
  189.5440  176.3820  144.5210 O   0  0  0  0  0  1  0  0  0  0  0  0
  190.1220  177.7190  142.6450 C   0  0  0  0  0  1  0  0  0  0  0  0
  188.3410  174.7610  141.4950 C   0  0  0  0  0  2  0  0  0  0  0  0
  187.1500  175.1110  142.3680 C   0  0  0  0  0  2  0  0  0  0  0  0
  186.6410  176.4740  142.0280 C   0  0  0  0  0  0  0  0  0  0  0  0
  186.8000  176.9150  140.9000 O   0  0  0  0  0  0  0  0  0  0  0  0
  185.9730  177.3150  143.0890 C   0  0  0  0  0  0  0  0  0  0  0  0
  184.7780  177.7840  142.5750 F   0  0  0  0  0  0  0  0  0  0  0  0
  186.7540  178.4220  143.4050 F   0  0  0  0  0  0  0  0  0  0  0  0
  185.6850  176.5490  144.2410 O   0  0  0  0  0  0  0  0  0  0  0  0
  184.5170  177.4990  146.0830 C   0  0  0  0  0  2  0  0  0  0  0  0
  186.8530  178.6470  147.9380 C   0  0  0  0  0  0  0  0  0  0  0  0
  186.7750  176.6590  146.3520 C   0  0  0  0  0  2  0  0  0  0  0  0
  184.4820  178.6940  146.9790 C   0  0  0  0  0  3  0  0  0  0  0  0
  185.4660  179.1440  147.7680 C   0  0  0  0  0  3  0  0  0  0  0  0
  187.4220  177.6170  147.2990 C   0  0  0  0  0  3  0  0  0  0  0  0
  185.8490  177.3550  145.3820 C   0  0  1  0  0  3  0  0  0  0  0  0
  187.6410  179.3540  148.7810 F   0  0  0  0  0  0  0  0  0  0  0  0
  1  5  1  0  0  0  0
  2  1  1  0  0  0  0
  2  4  1  0  0  0  0
  3  2  2  0  0  0  0
  4 21  1  6  0  0  0
  4  6  1  0  0  0  0
  5  8  1  6  0  0  0
  5  6  1  0  0  0  0
  6  7  1  1  0  0  0
  8  9  1  0  0  0  0
 10  9  1  6  0  0  0
 10 15  1  0  0  0  0
 11 15  1  0  0  0  0
 11 12  1  0  0  0  0
 12 13  1  0  0  0  0
 14 13  1  0  0  0  0
 14 16  1  0  0  0  0
 15 14  2  0  0  0  0
 17 18  1  0  0  0  0
 17 10  1  0  0  0  0
 18 20  1  6  0  0  0
 18 19  1  0  0  0  0
 21 22  1  0  0  0  0
 23 22  1  0  0  0  0
 23 25  1  0  0  0  0
 24 23  2  0  0  0  0
 25 27  1  0  0  0  0
 25 28  1  0  0  0  0
 26 25  1  0  0  0  0
 29 32  1  0  0  0  0
 30 36  1  0  0  0  0
 31 34  1  0  0  0  0
 32 33  2  0  0  0  0
 33 30  1  0  0  0  0
 34 30  2  0  0  0  0
 35 28  1  6  0  0  0
 35 29  1  0  0  0  0
 35 31  1  0  0  0  0
M  END
>  <MODEL>
9

>  <REMARK>
 VINA RESULT:      -6.5      2.957      4.167
  Name = 
  12 active torsions:
  status: ('A' for Active; 'I' for Inactive)
    1  A    between atoms: C_2  and  C_10
    2  A    between atoms: C_2  and  C_16
    3  A    between atoms: O_4  and  C_6
    4  A    between atoms: O_4  and  C_30
    5  A    between atoms: C_5  and  C_6
    6  A    between atoms: C_5  and  C_35
    7  A    between atoms: C_10  and  C_32
    8  A    between atoms: C_16  and  C_25
    9  A    between atoms: C_16  and  O_27
   10  A    between atoms: C_17  and  O_27
   11  A    between atoms: C_20  and  C_26
   12  A    between atoms: C_20  and  C_35
                            x       y       z     vdW  Elec       q    Type
                         _______ _______ _______ _____ _____    ______ ____

>  <TORSDO>
F 12

$$$$
