=
 OpenBabel11062422553D

 29 33  0  0  1  0  0  0  0  0999 V2000
  188.5940  175.7920  143.8280 C   0  0  0  0  0  2  0  0  0  0  0  0
  191.0320  172.0680  143.8890 C   0  0  0  0  0  1  0  0  0  0  0  0
  192.7380  176.3970  144.3190 C   0  0  0  0  0  0  0  0  0  0  0  0
  191.7470  177.4000  143.8200 C   0  0  0  0  0  2  0  0  0  0  0  0
  189.9230  173.0830  143.7040 C   0  0  2  0  0  0  0  0  0  0  0  0
  196.0450  175.4790  143.2690 O   0  0  0  0  0  1  0  0  0  0  0  0
  196.2160  174.4410  145.9700 C   0  0  0  0  0  1  0  0  0  0  0  0
  189.6610  175.2820  144.7720 C   0  0  1  0  0  0  0  0  0  0  0  0
  191.4800  175.7930  146.4030 C   0  0  0  0  0  0  0  0  0  0  0  0
  188.7680  172.4400  143.2560 O   0  0  0  0  0  1  0  0  0  0  0  0
  190.1580  176.2460  145.8470 C   0  0  0  0  0  2  0  0  0  0  0  0
  193.8010  176.1420  143.5510 C   0  0  0  0  0  3  0  0  0  0  0  0
  194.8840  175.2080  143.9930 C   0  0  2  0  0  3  0  0  0  0  0  0
  190.3750  174.1820  142.7380 C   0  0  2  0  0  3  0  0  0  0  0  0
  193.8500  175.1090  146.2680 C   0  0  0  0  0  2  0  0  0  0  0  0
  190.7470  176.7970  142.8380 C   0  0  0  0  0  2  0  0  0  0  0  0
  189.6330  173.7770  145.0300 C   0  0  0  0  0  2  0  0  0  0  0  0
  191.4420  175.2510  147.7960 C   0  0  0  0  0  1  0  0  0  0  0  0
  195.1340  175.3910  145.4890 C   0  0  1  0  0  3  0  0  0  0  0  0
  190.0140  175.5380  143.3200 C   0  0  1  0  0  0  0  0  0  0  0  0
  192.6330  175.8050  145.6920 C   0  0  0  0  0  0  0  0  0  0  0  0
  187.8330  174.6070  141.6220 F   0  0  0  0  0  0  0  0  0  0  0  0
  192.4260  173.3330  140.7850 O   0  0  0  0  0  1  0  0  0  0  0  0
  188.8230  174.2160  140.7810 C   0  0  0  0  0  0  0  0  0  0  0  0
  191.1260  173.5730  140.3590 C   0  0  0  0  0  0  0  0  0  0  0  0
  190.8230  173.4030  139.0050 C   0  0  0  0  0  3  0  0  0  0  0  0
  189.5290  173.6370  138.5380 C   0  0  0  0  0  3  0  0  0  0  0  0
  190.1220  173.9840  141.2620 C   0  0  0  0  0  0  0  0  0  0  0  0
  188.5310  174.0430  139.4250 C   0  0  0  0  0  3  0  0  0  0  0  0
  3 21  1  0  0  0  0
  4  3  1  0  0  0  0
  5  2  1  1  0  0  0
  5 17  1  0  0  0  0
  8  1  1  6  0  0  0
  8 17  1  0  0  0  0
  8 11  1  0  0  0  0
  9 18  1  0  0  0  0
 10  5  1  0  0  0  0
 11  9  1  0  0  0  0
 12 13  1  0  0  0  0
 12  3  2  0  0  0  0
 13  6  1  6  0  0  0
 13 19  1  0  0  0  0
 14 28  1  6  0  0  0
 14 20  1  0  0  0  0
 14  5  1  0  0  0  0
 16  4  1  0  0  0  0
 19  7  1  1  0  0  0
 19 15  1  0  0  0  0
 20 16  1  6  0  0  0
 20  1  1  0  0  0  0
 20  8  1  0  0  0  0
 21 15  1  0  0  0  0
 21  9  2  0  0  0  0
 24 28  1  0  0  0  0
 24 22  1  0  0  0  0
 25 23  1  0  0  0  0
 25 28  2  0  0  0  0
 26 25  1  0  0  0  0
 27 26  2  0  0  0  0
 27 29  1  0  0  0  0
 29 24  2  0  0  0  0
M  END
>  <MODEL>
1

>  <REMARK>
 VINA RESULT:      -7.6      0.000      0.000
  Name = 
  1 active torsions:
  status: ('A' for Active; 'I' for Inactive)
    1  A    between atoms: C_19  and  C_24
                            x       y       z     vdW  Elec       q    Type
                         _______ _______ _______ _____ _____    ______ ____

>  <TORSDO>
F 1

$$$$
=
 OpenBabel11062422553D

 29 33  0  0  1  0  0  0  0  0999 V2000
  188.6420  175.8140  143.8980 C   0  0  0  0  0  2  0  0  0  0  0  0
  191.0500  172.0710  143.9430 C   0  0  0  0  0  1  0  0  0  0  0  0
  192.7950  176.3860  144.3510 C   0  0  0  0  0  0  0  0  0  0  0  0
  191.8080  177.3970  143.8600 C   0  0  0  0  0  2  0  0  0  0  0  0
  189.9480  173.0940  143.7670 C   0  0  2  0  0  0  0  0  0  0  0  0
  196.0850  175.4410  143.2740 O   0  0  0  0  0  1  0  0  0  0  0  0
  196.2710  174.4060  145.9760 C   0  0  0  0  0  1  0  0  0  0  0  0
  189.7130  175.2970  144.8340 C   0  0  1  0  0  0  0  0  0  0  0  0
  191.5500  175.7960  146.4480 C   0  0  0  0  0  0  0  0  0  0  0  0
  188.7840  172.4600  143.3290 O   0  0  0  0  0  1  0  0  0  0  0  0
  190.2270  176.2590  145.9020 C   0  0  0  0  0  2  0  0  0  0  0  0
  193.8490  176.1220  143.5750 C   0  0  0  0  0  3  0  0  0  0  0  0
  194.9280  175.1800  144.0090 C   0  0  2  0  0  3  0  0  0  0  0  0
  190.4000  174.1890  142.7950 C   0  0  2  0  0  3  0  0  0  0  0  0
  193.9130  175.0930  146.2930 C   0  0  0  0  0  2  0  0  0  0  0  0
  190.7950  176.8010  142.8870 C   0  0  0  0  0  2  0  0  0  0  0  0
  189.6750  173.7930  145.0940 C   0  0  0  0  0  2  0  0  0  0  0  0
  191.5210  175.2560  147.8420 C   0  0  0  0  0  1  0  0  0  0  0  0
  195.1930  175.3630  145.5030 C   0  0  1  0  0  3  0  0  0  0  0  0
  190.0550  175.5480  143.3780 C   0  0  1  0  0  0  0  0  0  0  0  0
  192.6970  175.7980  145.7260 C   0  0  0  0  0  0  0  0  0  0  0  0
  192.4190  173.3180  141.0480 F   0  0  0  0  0  0  0  0  0  0  0  0
  187.7910  174.6610  141.4880 O   0  0  0  0  0  1  0  0  0  0  0  0
  191.1950  173.5540  140.5130 C   0  0  0  0  0  0  0  0  0  0  0  0
  188.8730  174.2300  140.7310 C   0  0  0  0  0  0  0  0  0  0  0  0
  188.6950  174.0320  139.3580 C   0  0  0  0  0  3  0  0  0  0  0  0
  189.7570  173.5980  138.5650 C   0  0  0  0  0  3  0  0  0  0  0  0
  190.1330  173.9910  141.3220 C   0  0  0  0  0  0  0  0  0  0  0  0
  191.0050  173.3590  139.1420 C   0  0  0  0  0  3  0  0  0  0  0  0
  3 21  1  0  0  0  0
  4  3  1  0  0  0  0
  5  2  1  1  0  0  0
  5 17  1  0  0  0  0
  8  1  1  1  0  0  0
  8 17  1  0  0  0  0
  8 11  1  0  0  0  0
  9 18  1  0  0  0  0
 10  5  1  0  0  0  0
 11  9  1  0  0  0  0
 12 13  1  0  0  0  0
 12  3  2  0  0  0  0
 13  6  1  6  0  0  0
 13 19  1  0  0  0  0
 14 28  1  6  0  0  0
 14 20  1  0  0  0  0
 14  5  1  0  0  0  0
 16  4  1  0  0  0  0
 19  7  1  1  0  0  0
 19 15  1  0  0  0  0
 20 16  1  6  0  0  0
 20  1  1  0  0  0  0
 20  8  1  0  0  0  0
 21 15  1  0  0  0  0
 21  9  2  0  0  0  0
 24 22  1  0  0  0  0
 24 28  1  0  0  0  0
 25 28  2  0  0  0  0
 25 23  1  0  0  0  0
 26 25  1  0  0  0  0
 27 29  1  0  0  0  0
 27 26  2  0  0  0  0
 29 24  2  0  0  0  0
M  END
>  <MODEL>
2

>  <REMARK>
 VINA RESULT:      -7.5      1.229      1.558
  Name = 
  1 active torsions:
  status: ('A' for Active; 'I' for Inactive)
    1  A    between atoms: C_19  and  C_24
                            x       y       z     vdW  Elec       q    Type
                         _______ _______ _______ _____ _____    ______ ____

>  <TORSDO>
F 1

$$$$
=
 OpenBabel11062422553D

 29 33  0  0  1  0  0  0  0  0999 V2000
  188.3130  174.0310  142.8610 C   0  0  0  0  0  2  0  0  0  0  0  0
  190.0970  178.1080  142.7680 C   0  0  0  0  0  1  0  0  0  0  0  0
  192.1350  174.3310  144.6160 C   0  0  0  0  0  0  0  0  0  0  0  0
  191.1190  173.2650  144.8780 C   0  0  0  0  0  2  0  0  0  0  0  0
  189.1460  176.9300  142.7200 C   0  0  2  0  0  0  0  0  0  0  0  0
  194.3130  176.2270  146.7480 O   0  0  0  0  0  1  0  0  0  0  0  0
  195.7830  176.6180  144.2800 C   0  0  0  0  0  1  0  0  0  0  0  0
  189.6690  174.5460  142.4280 C   0  0  1  0  0  0  0  0  0  0  0  0
  192.1080  174.1160  142.1170 C   0  0  0  0  0  0  0  0  0  0  0  0
  187.8770  177.3660  142.3340 O   0  0  0  0  0  1  0  0  0  0  0  0
  190.7340  173.5040  142.0930 C   0  0  0  0  0  2  0  0  0  0  0  0
  192.6140  175.0030  145.6660 C   0  0  0  0  0  3  0  0  0  0  0  0
  193.6840  176.0390  145.5160 C   0  0  2  0  0  3  0  0  0  0  0  0
  189.1170  176.2260  144.0800 C   0  0  2  0  0  3  0  0  0  0  0  0
  193.9890  175.3560  143.1300 C   0  0  0  0  0  2  0  0  0  0  0  0
  189.7060  173.8250  145.0160 C   0  0  0  0  0  2  0  0  0  0  0  0
  189.6520  175.8980  141.7190 C   0  0  0  0  0  2  0  0  0  0  0  0
  192.7590  174.2940  140.7820 C   0  0  0  0  0  1  0  0  0  0  0  0
  194.6940  175.5770  144.4670 C   0  0  1  0  0  3  0  0  0  0  0  0
  189.2300  174.7260  143.8680 C   0  0  1  0  0  0  0  0  0  0  0  0
  192.7150  174.5440  143.2500 C   0  0  0  0  0  0  0  0  0  0  0  0
  186.3560  175.9190  143.6700 F   0  0  0  0  0  0  0  0  0  0  0  0
  189.8220  177.5230  146.6410 O   0  0  0  0  0  1  0  0  0  0  0  0
  186.7490  176.5080  144.8270 C   0  0  0  0  0  0  0  0  0  0  0  0
  188.4880  177.3160  146.3180 C   0  0  0  0  0  0  0  0  0  0  0  0
  187.5060  177.7320  147.2230 C   0  0  0  0  0  3  0  0  0  0  0  0
  186.1550  177.5400  146.9350 C   0  0  0  0  0  3  0  0  0  0  0  0
  188.1140  176.6960  145.1060 C   0  0  0  0  0  0  0  0  0  0  0  0
  185.7780  176.9280  145.7390 C   0  0  0  0  0  3  0  0  0  0  0  0
  3  4  1  0  0  0  0
  3 12  2  0  0  0  0
  4 16  1  0  0  0  0
  5  2  1  1  0  0  0
  5 14  1  0  0  0  0
  8 17  1  6  0  0  0
  8  1  1  0  0  0  0
  8 20  1  0  0  0  0
  9 21  2  0  0  0  0
 10  5  1  0  0  0  0
 11  9  1  0  0  0  0
 11  8  1  0  0  0  0
 13 12  1  0  0  0  0
 13  6  1  1  0  0  0
 14 28  1  6  0  0  0
 15 21  1  0  0  0  0
 15 19  1  0  0  0  0
 17  5  1  0  0  0  0
 18  9  1  0  0  0  0
 19  7  1  6  0  0  0
 19 13  1  0  0  0  0
 20  1  1  6  0  0  0
 20 14  1  0  0  0  0
 20 16  1  0  0  0  0
 21  3  1  0  0  0  0
 22 24  1  0  0  0  0
 24 28  2  0  0  0  0
 24 29  1  0  0  0  0
 25 23  1  0  0  0  0
 25 26  2  0  0  0  0
 27 26  1  0  0  0  0
 28 25  1  0  0  0  0
 29 27  2  0  0  0  0
M  END
>  <MODEL>
3

>  <REMARK>
 VINA RESULT:      -7.2      2.493      5.011
  Name = 
  1 active torsions:
  status: ('A' for Active; 'I' for Inactive)
    1  A    between atoms: C_19  and  C_24
                            x       y       z     vdW  Elec       q    Type
                         _______ _______ _______ _____ _____    ______ ____

>  <TORSDO>
F 1

$$$$
=
 OpenBabel11062422553D

 29 33  0  0  1  0  0  0  0  0999 V2000
  193.2120  176.7260  146.1590 C   0  0  0  0  0  2  0  0  0  0  0  0
  193.8370  175.3730  141.9640 C   0  0  0  0  0  1  0  0  0  0  0  0
  190.0890  174.3780  144.5720 C   0  0  0  0  0  0  0  0  0  0  0  0
  190.3900  174.5940  146.0210 C   0  0  0  0  0  2  0  0  0  0  0  0
  194.0280  175.9030  143.3700 C   0  0  2  0  0  0  0  0  0  0  0  0
  189.1980  171.4800  142.6540 O   0  0  0  0  0  1  0  0  0  0  0  0
  188.1920  173.4700  140.8010 C   0  0  0  0  0  1  0  0  0  0  0  0
  192.3350  176.7750  144.9260 C   0  0  1  0  0  0  0  0  0  0  0  0
  190.0400  176.8070  143.9470 C   0  0  0  0  0  0  0  0  0  0  0  0
  195.3420  176.3440  143.5310 O   0  0  0  0  0  1  0  0  0  0  0  0
  190.8870  177.2210  145.1180 C   0  0  0  0  0  2  0  0  0  0  0  0
  190.0180  173.1180  144.1350 C   0  0  0  0  0  3  0  0  0  0  0  0
  189.6530  172.7970  142.7190 C   0  0  2  0  0  3  0  0  0  0  0  0
  193.6610  174.8220  144.3920 C   0  0  2  0  0  3  0  0  0  0  0  0
  189.0740  175.2000  142.3390 C   0  0  0  0  0  2  0  0  0  0  0  0
  191.8830  174.5270  146.3260 C   0  0  0  0  0  2  0  0  0  0  0  0
  193.0710  177.0640  143.6190 C   0  0  0  0  0  2  0  0  0  0  0  0
  189.6010  177.9160  143.0440 C   0  0  0  0  0  1  0  0  0  0  0  0
  188.5680  173.7610  142.2420 C   0  0  1  0  0  3  0  0  0  0  0  0
  192.7800  175.4320  145.4690 C   0  0  1  0  0  0  0  0  0  0  0  0
  189.7300  175.5180  143.6670 C   0  0  0  0  0  0  0  0  0  0  0  0
  195.6910  175.6660  146.1380 F   0  0  0  0  0  0  0  0  0  0  0  0
  193.8680  171.9880  143.5760 O   0  0  0  0  0  1  0  0  0  0  0  0
  195.7260  174.3740  145.7240 C   0  0  0  0  0  0  0  0  0  0  0  0
  194.8140  172.5280  144.4360 C   0  0  0  0  0  0  0  0  0  0  0  0
  195.8490  171.7080  144.8960 C   0  0  0  0  0  3  0  0  0  0  0  0
  196.8180  172.2130  145.7640 C   0  0  0  0  0  3  0  0  0  0  0  0
  194.7450  173.8760  144.8510 C   0  0  0  0  0  0  0  0  0  0  0  0
  196.7550  173.5450  146.1770 C   0  0  0  0  0  3  0  0  0  0  0  0
  3  4  1  0  0  0  0
  4 16  1  0  0  0  0
  5  2  1  6  0  0  0
  5 10  1  0  0  0  0
  5 17  1  0  0  0  0
  5 14  1  0  0  0  0
  8 17  1  6  0  0  0
  8 11  1  0  0  0  0
  8 20  1  0  0  0  0
  8  1  1  0  0  0  0
  9 11  1  0  0  0  0
 12  3  2  0  0  0  0
 13  6  1  1  0  0  0
 13 12  1  0  0  0  0
 14 28  1  1  0  0  0
 14 20  1  0  0  0  0
 15 21  1  0  0  0  0
 18  9  1  0  0  0  0
 19  7  1  6  0  0  0
 19 15  1  0  0  0  0
 19 13  1  0  0  0  0
 20  1  1  1  0  0  0
 20 16  1  0  0  0  0
 21  9  2  0  0  0  0
 21  3  1  0  0  0  0
 23 25  1  0  0  0  0
 24 22  1  0  0  0  0
 24 29  1  0  0  0  0
 25 28  1  0  0  0  0
 25 26  2  0  0  0  0
 26 27  1  0  0  0  0
 27 29  2  0  0  0  0
 28 24  2  0  0  0  0
M  END
>  <MODEL>
4

>  <REMARK>
 VINA RESULT:      -7.2      2.309      6.214
  Name = 
  1 active torsions:
  status: ('A' for Active; 'I' for Inactive)
    1  A    between atoms: C_19  and  C_24
                            x       y       z     vdW  Elec       q    Type
                         _______ _______ _______ _____ _____    ______ ____

>  <TORSDO>
F 1

$$$$
=
 OpenBabel11062422553D

 29 33  0  0  1  0  0  0  0  0999 V2000
  192.4340  174.4240  146.7010 C   0  0  0  0  0  2  0  0  0  0  0  0
  192.2430  177.8550  143.8700 C   0  0  0  0  0  1  0  0  0  0  0  0
  189.3160  174.2120  143.8700 C   0  0  0  0  0  0  0  0  0  0  0  0
  189.9100  173.0660  144.6250 C   0  0  0  0  0  2  0  0  0  0  0  0
  192.6870  176.8330  144.8980 C   0  0  2  0  0  0  0  0  0  0  0  0
  188.3440  174.6590  140.4450 O   0  0  0  0  0  1  0  0  0  0  0  0
  186.7300  176.7910  141.5660 C   0  0  0  0  0  1  0  0  0  0  0  0
  191.3020  175.3290  146.2630 C   0  0  1  0  0  0  0  0  0  0  0  0
  188.8560  175.6420  145.8790 C   0  0  0  0  0  0  0  0  0  0  0  0
  193.9460  177.1800  145.3910 O   0  0  0  0  0  1  0  0  0  0  0  0
  189.8950  174.9540  146.7210 C   0  0  0  0  0  2  0  0  0  0  0  0
  189.2890  174.1300  142.5370 C   0  0  0  0  0  3  0  0  0  0  0  0
  188.6530  175.1920  141.6970 C   0  0  2  0  0  3  0  0  0  0  0  0
  192.6830  175.4330  144.2770 C   0  0  2  0  0  3  0  0  0  0  0  0
  187.7380  176.2600  143.7650 C   0  0  0  0  0  2  0  0  0  0  0  0
  191.4320  173.1430  144.7050 C   0  0  0  0  0  2  0  0  0  0  0  0
  191.6870  176.7910  146.0480 C   0  0  0  0  0  2  0  0  0  0  0  0
  188.1040  176.7450  146.5540 C   0  0  0  0  0  1  0  0  0  0  0  0
  187.3880  175.6970  142.3880 C   0  0  1  0  0  3  0  0  0  0  0  0
  192.0050  174.4660  145.2340 C   0  0  1  0  0  0  0  0  0  0  0  0
  188.6370  175.3480  144.5750 C   0  0  0  0  0  0  0  0  0  0  0  0
  194.9100  174.5810  145.7600 F   0  0  0  0  0  0  0  0  0  0  0  0
  193.0530  175.2910  141.3480 O   0  0  0  0  0  1  0  0  0  0  0  0
  195.0130  174.5410  144.4080 C   0  0  0  0  0  0  0  0  0  0  0  0
  194.0830  174.9000  142.1930 C   0  0  0  0  0  0  0  0  0  0  0  0
  195.2790  174.4460  141.6270 C   0  0  0  0  0  3  0  0  0  0  0  0
  196.3370  174.0430  142.4420 C   0  0  0  0  0  3  0  0  0  0  0  0
  193.9410  174.9500  143.5970 C   0  0  0  0  0  0  0  0  0  0  0  0
  196.2030  174.0900  143.8310 C   0  0  0  0  0  3  0  0  0  0  0  0
  3 21  1  0  0  0  0
  3  4  1  0  0  0  0
  4 16  1  0  0  0  0
  5  2  1  6  0  0  0
  5 10  1  0  0  0  0
  5 17  1  0  0  0  0
  8 17  1  6  0  0  0
  8  1  1  0  0  0  0
  8 11  1  0  0  0  0
  9 18  1  0  0  0  0
  9 11  1  0  0  0  0
 12  3  2  0  0  0  0
 13  6  1  6  0  0  0
 13 19  1  0  0  0  0
 13 12  1  0  0  0  0
 14 28  1  1  0  0  0
 14  5  1  0  0  0  0
 14 20  1  0  0  0  0
 15 21  1  0  0  0  0
 19  7  1  6  0  0  0
 19 15  1  0  0  0  0
 20 16  1  6  0  0  0
 20  8  1  0  0  0  0
 20  1  1  0  0  0  0
 21  9  2  0  0  0  0
 23 25  1  0  0  0  0
 24 22  1  0  0  0  0
 25 28  1  0  0  0  0
 26 25  2  0  0  0  0
 26 27  1  0  0  0  0
 27 29  2  0  0  0  0
 28 24  2  0  0  0  0
 29 24  1  0  0  0  0
M  END
>  <MODEL>
5

>  <REMARK>
 VINA RESULT:      -7.2      2.460      5.771
  Name = 
  1 active torsions:
  status: ('A' for Active; 'I' for Inactive)
    1  A    between atoms: C_19  and  C_24
                            x       y       z     vdW  Elec       q    Type
                         _______ _______ _______ _____ _____    ______ ____

>  <TORSDO>
F 1

$$$$
=
 OpenBabel11062422553D

 29 33  0  0  1  0  0  0  0  0999 V2000
  190.9830  174.5290  141.2560 C   0  0  0  0  0  2  0  0  0  0  0  0
  189.6570  172.5770  145.0300 C   0  0  0  0  0  1  0  0  0  0  0  0
  189.6930  177.1870  144.2650 C   0  0  0  0  0  0  0  0  0  0  0  0
  190.5860  177.5170  143.1110 C   0  0  0  0  0  2  0  0  0  0  0  0
  190.2790  172.8740  143.6810 C   0  0  2  0  0  0  0  0  0  0  0  0
  189.7700  178.0300  147.7520 O   0  0  0  0  0  1  0  0  0  0  0  0
  186.9520  177.3660  147.5970 C   0  0  0  0  0  1  0  0  0  0  0  0
  189.7420  174.6840  142.1080 C   0  0  1  0  0  0  0  0  0  0  0  0
  187.8710  176.1360  142.8970 C   0  0  0  0  0  0  0  0  0  0  0  0
  190.8450  171.7100  143.1590 O   0  0  0  0  0  1  0  0  0  0  0  0
  188.7890  175.8220  141.7480 C   0  0  0  0  0  2  0  0  0  0  0  0
  190.1350  177.4700  145.4930 C   0  0  0  0  0  3  0  0  0  0  0  0
  189.2890  177.2420  146.7060 C   0  0  2  0  0  3  0  0  0  0  0  0
  191.3110  173.9980  143.8170 C   0  0  2  0  0  3  0  0  0  0  0  0
  187.3320  176.7500  145.2280 C   0  0  0  0  0  2  0  0  0  0  0  0
  191.6340  176.4390  142.8550 C   0  0  0  0  0  2  0  0  0  0  0  0
  189.2120  173.3910  142.7230 C   0  0  0  0  0  2  0  0  0  0  0  0
  186.4450  175.7240  142.7160 C   0  0  0  0  0  1  0  0  0  0  0  0
  187.8390  177.6050  146.3890 C   0  0  1  0  0  3  0  0  0  0  0  0
  191.0970  175.0090  142.7030 C   0  0  1  0  0  0  0  0  0  0  0  0
  188.2910  176.6970  144.0570 C   0  0  0  0  0  0  0  0  0  0  0  0
  192.3880  174.3780  146.3820 F   0  0  0  0  0  0  0  0  0  0  0  0
  193.2040  172.8280  141.8720 O   0  0  0  0  0  1  0  0  0  0  0  0
  193.2050  173.8440  145.4400 C   0  0  0  0  0  0  0  0  0  0  0  0
  193.6170  173.0690  143.1760 C   0  0  0  0  0  0  0  0  0  0  0  0
  194.9300  172.7480  143.5330 C   0  0  0  0  0  3  0  0  0  0  0  0
  195.3810  172.9720  144.8350 C   0  0  0  0  0  3  0  0  0  0  0  0
  192.7390  173.6220  144.1330 C   0  0  0  0  0  0  0  0  0  0  0  0
  194.5190  173.5190  145.7860 C   0  0  0  0  0  3  0  0  0  0  0  0
  3 12  2  0  0  0  0
  4  3  1  0  0  0  0
  5 14  1  0  0  0  0
  5  2  1  1  0  0  0
  8  1  1  6  0  0  0
  8 20  1  0  0  0  0
  8 17  1  0  0  0  0
  9 21  2  0  0  0  0
 10  5  1  0  0  0  0
 11  8  1  0  0  0  0
 11  9  1  0  0  0  0
 12 13  1  0  0  0  0
 13  6  1  1  0  0  0
 14 28  1  6  0  0  0
 15 19  1  0  0  0  0
 16  4  1  0  0  0  0
 17  5  1  0  0  0  0
 18  9  1  0  0  0  0
 19 13  1  0  0  0  0
 19  7  1  1  0  0  0
 20  1  1  6  0  0  0
 20 16  1  0  0  0  0
 20 14  1  0  0  0  0
 21  3  1  0  0  0  0
 21 15  1  0  0  0  0
 23 25  1  0  0  0  0
 24 29  1  0  0  0  0
 24 22  1  0  0  0  0
 25 26  2  0  0  0  0
 25 28  1  0  0  0  0
 26 27  1  0  0  0  0
 27 29  2  0  0  0  0
 28 24  2  0  0  0  0
M  END
>  <MODEL>
6

>  <REMARK>
 VINA RESULT:      -7.2      2.541      5.267
  Name = 
  1 active torsions:
  status: ('A' for Active; 'I' for Inactive)
    1  A    between atoms: C_19  and  C_24
                            x       y       z     vdW  Elec       q    Type
                         _______ _______ _______ _____ _____    ______ ____

>  <TORSDO>
F 1

$$$$
=
 OpenBabel11062422553D

 29 33  0  0  1  0  0  0  0  0999 V2000
  190.5140  177.5730  146.9510 C   0  0  0  0  0  2  0  0  0  0  0  0
  189.6910  173.3790  145.7080 C   0  0  0  0  0  1  0  0  0  0  0  0
  192.5990  176.3050  143.5130 C   0  0  0  0  0  0  0  0  0  0  0  0
  192.3110  177.7190  143.9060 C   0  0  0  0  0  2  0  0  0  0  0  0
  189.6270  174.7500  146.3470 C   0  0  2  0  0  0  0  0  0  0  0  0
  192.4380  174.5410  140.3920 O   0  0  0  0  0  1  0  0  0  0  0  0
  194.2440  172.7240  141.7480 C   0  0  0  0  0  1  0  0  0  0  0  0
  191.4200  176.4130  146.5970 C   0  0  1  0  0  0  0  0  0  0  0  0
  193.6120  175.6220  145.7030 C   0  0  0  0  0  0  0  0  0  0  0  0
  188.5730  174.7930  147.2610 O   0  0  0  0  0  1  0  0  0  0  0  0
  192.9130  176.7100  146.4710 C   0  0  0  0  0  2  0  0  0  0  0  0
  192.2120  175.9080  142.2970 C   0  0  0  0  0  3  0  0  0  0  0  0
  192.5160  174.5350  141.7850 C   0  0  2  0  0  3  0  0  0  0  0  0
  189.4870  175.8260  145.2650 C   0  0  2  0  0  3  0  0  0  0  0  0
  193.9920  174.1400  143.7640 C   0  0  0  0  0  2  0  0  0  0  0  0
  190.8890  177.9040  144.4260 C   0  0  0  0  0  2  0  0  0  0  0  0
  190.9360  175.0450  147.0710 C   0  0  0  0  0  2  0  0  0  0  0  0
  194.4980  174.7280  146.5120 C   0  0  0  0  0  1  0  0  0  0  0  0
  193.9150  174.1220  142.2380 C   0  0  1  0  0  3  0  0  0  0  0  0
  190.4620  176.9540  145.5540 C   0  0  1  0  0  0  0  0  0  0  0  0
  193.4230  175.4020  144.3800 C   0  0  0  0  0  0  0  0  0  0  0  0
  188.4760  175.0710  142.7570 F   0  0  0  0  0  0  0  0  0  0  0  0
  187.6070  177.4220  146.8960 O   0  0  0  0  0  1  0  0  0  0  0  0
  187.6640  175.8060  143.5570 C   0  0  0  0  0  0  0  0  0  0  0  0
  187.2270  176.9890  145.6330 C   0  0  0  0  0  0  0  0  0  0  0  0
  185.9530  177.3250  145.1630 C   0  0  0  0  0  3  0  0  0  0  0  0
  185.5340  176.9060  143.9000 C   0  0  0  0  0  3  0  0  0  0  0  0
  188.0970  176.2210  144.8270 C   0  0  0  0  0  0  0  0  0  0  0  0
  186.3890  176.1470  143.0990 C   0  0  0  0  0  3  0  0  0  0  0  0
  3  4  1  0  0  0  0
  3 21  1  0  0  0  0
  4 16  1  0  0  0  0
  5  2  1  6  0  0  0
  5 17  1  0  0  0  0
  5 10  1  0  0  0  0
  8 11  1  6  0  0  0
  8  1  1  0  0  0  0
  8 17  1  0  0  0  0
  9 11  1  0  0  0  0
  9 18  1  0  0  0  0
 12  3  2  0  0  0  0
 13  6  1  6  0  0  0
 13 19  1  0  0  0  0
 13 12  1  0  0  0  0
 14 28  1  1  0  0  0
 14 20  1  0  0  0  0
 14  5  1  0  0  0  0
 15 21  1  0  0  0  0
 19  7  1  1  0  0  0
 19 15  1  0  0  0  0
 20 16  1  6  0  0  0
 20  8  1  0  0  0  0
 20  1  1  0  0  0  0
 21  9  2  0  0  0  0
 22 24  1  0  0  0  0
 24 28  1  0  0  0  0
 25 23  1  0  0  0  0
 26 25  1  0  0  0  0
 27 26  2  0  0  0  0
 28 25  2  0  0  0  0
 29 24  2  0  0  0  0
 29 27  1  0  0  0  0
M  END
>  <MODEL>
7

>  <REMARK>
 VINA RESULT:      -7.1      2.367      4.251
  Name = 
  1 active torsions:
  status: ('A' for Active; 'I' for Inactive)
    1  A    between atoms: C_19  and  C_24
                            x       y       z     vdW  Elec       q    Type
                         _______ _______ _______ _____ _____    ______ ____

>  <TORSDO>
F 1

$$$$
=
 OpenBabel11062422553D

 29 33  0  0  1  0  0  0  0  0999 V2000
  194.5600  176.0370  146.0680 C   0  0  0  0  0  2  0  0  0  0  0  0
  194.2890  174.2590  141.9960 C   0  0  0  0  0  1  0  0  0  0  0  0
  190.7140  174.7030  144.9710 C   0  0  0  0  0  0  0  0  0  0  0  0
  191.2160  174.9140  146.3640 C   0  0  0  0  0  2  0  0  0  0  0  0
  194.7830  174.8000  143.3230 C   0  0  2  0  0  0  0  0  0  0  0  0
  188.7680  172.1110  143.4300 O   0  0  0  0  0  1  0  0  0  0  0  0
  188.2430  174.1810  141.4680 C   0  0  0  0  0  1  0  0  0  0  0  0
  193.6180  176.2750  144.9070 C   0  0  1  0  0  0  0  0  0  0  0  0
  191.3570  176.9690  144.1090 C   0  0  0  0  0  0  0  0  0  0  0  0
  196.1780  174.8080  143.3360 O   0  0  0  0  0  1  0  0  0  0  0  0
  192.4090  177.1720  145.1650 C   0  0  0  0  0  2  0  0  0  0  0  0
  190.2080  173.5030  144.6710 C   0  0  0  0  0  3  0  0  0  0  0  0
  189.6150  173.2150  143.3270 C   0  0  2  0  0  3  0  0  0  0  0  0
  194.2060  173.9680  144.4730 C   0  0  2  0  0  3  0  0  0  0  0  0
  189.7760  175.6430  142.7510 C   0  0  0  0  0  2  0  0  0  0  0  0
  192.6380  174.3960  146.5580 C   0  0  0  0  0  2  0  0  0  0  0  0
  194.2660  176.2200  143.5260 C   0  0  0  0  0  2  0  0  0  0  0  0
  191.1930  178.0920  143.1350 C   0  0  0  0  0  1  0  0  0  0  0  0
  188.8410  174.4380  142.8400 C   0  0  1  0  0  3  0  0  0  0  0  0
  193.6770  174.9030  145.5480 C   0  0  1  0  0  0  0  0  0  0  0  0
  190.6340  175.8290  143.9860 C   0  0  0  0  0  0  0  0  0  0  0  0
  193.3970  171.3630  143.8100 F   0  0  0  0  0  0  0  0  0  0  0  0
  196.6530  174.0900  146.1280 O   0  0  0  0  0  1  0  0  0  0  0  0
  194.5140  171.4910  144.5680 C   0  0  0  0  0  0  0  0  0  0  0  0
  196.1470  172.8580  145.7350 C   0  0  0  0  0  0  0  0  0  0  0  0
  196.8170  171.6990  146.1380 C   0  0  0  0  0  3  0  0  0  0  0  0
  196.3410  170.4420  145.7620 C   0  0  0  0  0  3  0  0  0  0  0  0
  194.9840  172.7610  144.9410 C   0  0  0  0  0  0  0  0  0  0  0  0
  195.1910  170.3390  144.9770 C   0  0  0  0  0  3  0  0  0  0  0  0
  3  4  1  0  0  0  0
  4 16  1  0  0  0  0
  5  2  1  6  0  0  0
  5 10  1  0  0  0  0
  5 17  1  0  0  0  0
  5 14  1  0  0  0  0
  8 17  1  6  0  0  0
  8 11  1  0  0  0  0
  8 20  1  0  0  0  0
  8  1  1  0  0  0  0
  9 11  1  0  0  0  0
 12  3  2  0  0  0  0
 13  6  1  1  0  0  0
 13 12  1  0  0  0  0
 14 28  1  1  0  0  0
 14 20  1  0  0  0  0
 15 19  1  0  0  0  0
 15 21  1  0  0  0  0
 18  9  1  0  0  0  0
 19  7  1  6  0  0  0
 19 13  1  0  0  0  0
 20  1  1  1  0  0  0
 20 16  1  0  0  0  0
 21  9  2  0  0  0  0
 21  3  1  0  0  0  0
 22 24  1  0  0  0  0
 24 28  2  0  0  0  0
 24 29  1  0  0  0  0
 25 23  1  0  0  0  0
 25 26  2  0  0  0  0
 27 26  1  0  0  0  0
 28 25  1  0  0  0  0
 29 27  2  0  0  0  0
M  END
>  <MODEL>
8

>  <REMARK>
 VINA RESULT:      -7.1      2.236      6.241
  Name = 
  1 active torsions:
  status: ('A' for Active; 'I' for Inactive)
    1  A    between atoms: C_19  and  C_24
                            x       y       z     vdW  Elec       q    Type
                         _______ _______ _______ _____ _____    ______ ____

>  <TORSDO>
F 1

$$$$
=
 OpenBabel11062422553D

 29 33  0  0  1  0  0  0  0  0999 V2000
  191.2480  175.4390  146.7030 C   0  0  0  0  0  2  0  0  0  0  0  0
  192.3740  177.2500  142.7950 C   0  0  0  0  0  1  0  0  0  0  0  0
  189.5120  173.5960  143.3310 C   0  0  0  0  0  0  0  0  0  0  0  0
  189.6970  172.9820  144.6820 C   0  0  0  0  0  2  0  0  0  0  0  0
  192.3190  176.8440  144.2540 C   0  0  2  0  0  0  0  0  0  0  0  0
  190.0100  172.3810  139.9910 O   0  0  0  0  0  1  0  0  0  0  0  0
  188.1920  174.5410  139.3300 C   0  0  0  0  0  1  0  0  0  0  0  0
  190.4320  175.8990  145.5140 C   0  0  1  0  0  0  0  0  0  0  0  0
  188.3600  175.6730  144.1400 C   0  0  0  0  0  0  0  0  0  0  0  0
  193.2920  177.5410  144.9710 O   0  0  0  0  0  1  0  0  0  0  0  0
  188.9410  175.5670  145.5230 C   0  0  0  0  0  2  0  0  0  0  0  0
  190.0140  172.9440  142.2800 C   0  0  0  0  0  3  0  0  0  0  0  0
  189.8200  173.4390  140.8810 C   0  0  2  0  0  3  0  0  0  0  0  0
  192.4930  175.3280  144.3810 C   0  0  2  0  0  3  0  0  0  0  0  0
  188.2110  175.1560  141.7290 C   0  0  0  0  0  2  0  0  0  0  0  0
  191.0620  173.2970  145.2870 C   0  0  0  0  0  2  0  0  0  0  0  0
  190.9430  177.1630  144.8270 C   0  0  0  0  0  2  0  0  0  0  0  0
  187.4570  176.8420  143.9060 C   0  0  0  0  0  1  0  0  0  0  0  0
  188.4110  174.0120  140.7360 C   0  0  1  0  0  3  0  0  0  0  0  0
  191.4420  174.7840  145.3350 C   0  0  1  0  0  0  0  0  0  0  0  0
  188.6660  174.8170  143.1340 C   0  0  0  0  0  0  0  0  0  0  0  0
  193.9110  175.5470  146.7950 F   0  0  0  0  0  0  0  0  0  0  0  0
  193.9800  173.9600  142.2240 O   0  0  0  0  0  1  0  0  0  0  0  0
  194.5360  174.9280  145.7620 C   0  0  0  0  0  0  0  0  0  0  0  0
  194.5740  174.1340  143.4670 C   0  0  0  0  0  0  0  0  0  0  0  0
  195.8720  173.6530  143.6640 C   0  0  0  0  0  3  0  0  0  0  0  0
  196.5020  173.8080  144.9000 C   0  0  0  0  0  3  0  0  0  0  0  0
  193.8920  174.7790  144.5220 C   0  0  0  0  0  0  0  0  0  0  0  0
  195.8330  174.4440  145.9470 C   0  0  0  0  0  3  0  0  0  0  0  0
  3  4  1  0  0  0  0
  4 16  1  0  0  0  0
  5  2  1  6  0  0  0
  5 14  1  0  0  0  0
  5 17  1  0  0  0  0
  5 10  1  0  0  0  0
  8 17  1  6  0  0  0
  8 11  1  0  0  0  0
  8  1  1  0  0  0  0
  9 11  1  0  0  0  0
 12  3  2  0  0  0  0
 13  6  1  6  0  0  0
 13 12  1  0  0  0  0
 14 28  1  1  0  0  0
 14 20  1  0  0  0  0
 15 21  1  0  0  0  0
 18  9  1  0  0  0  0
 19  7  1  6  0  0  0
 19 13  1  0  0  0  0
 19 15  1  0  0  0  0
 20 16  1  6  0  0  0
 20  8  1  0  0  0  0
 20  1  1  0  0  0  0
 21  3  1  0  0  0  0
 21  9  2  0  0  0  0
 23 25  1  0  0  0  0
 24 29  1  0  0  0  0
 24 22  1  0  0  0  0
 25 26  2  0  0  0  0
 25 28  1  0  0  0  0
 26 27  1  0  0  0  0
 27 29  2  0  0  0  0
 28 24  2  0  0  0  0
M  END
>  <MODEL>
9

>  <REMARK>
 VINA RESULT:      -6.9      2.064      5.988
  Name = 
  1 active torsions:
  status: ('A' for Active; 'I' for Inactive)
    1  A    between atoms: C_19  and  C_24
                            x       y       z     vdW  Elec       q    Type
                         _______ _______ _______ _____ _____    ______ ____

>  <TORSDO>
F 1

$$$$
