=
 OpenBabel11062422423D

 29 30  0  0  1  0  0  0  0  0999 V2000
  185.0150  179.3710  144.7210 C   0  0  0  0  0  2  0  0  0  0  0  0
  186.2240  177.1430  144.4740 C   0  0  2  0  0  3  0  0  0  0  0  0
  185.6380  176.3620  145.6180 C   0  0  0  0  0  3  0  0  0  0  0  0
  185.1850  176.9090  146.7510 C   0  0  0  0  0  3  0  0  0  0  0  0
  185.1870  178.1150  143.8650 C   0  0  2  0  0  3  0  0  0  0  0  0
  184.2830  179.0990  146.0270 C   0  0  0  0  0  2  0  0  0  0  0  0
  185.1920  178.3820  147.0110 C   0  0  0  0  0  2  0  0  0  0  0  0
  186.6480  179.0430  142.2310 O   0  0  0  0  0  0  0  0  0  0  0  0
  185.5170  178.5360  142.4570 C   0  0  0  0  0  0  0  0  0  0  0  0
  184.9880  178.3430  140.1540 O   0  0  0  0  0  0  0  0  0  0  0  0
  184.5640  178.3670  141.3410 C   0  0  0  0  0  0  0  0  0  0  0  0
  183.1650  178.2480  141.6030 N   0  0  0  0  0  2  0  0  0  0  0  0
  182.1960  177.9960  140.5480 C   0  0  0  0  0  2  0  0  0  0  0  0
  180.7630  179.3970  141.8360 O   0  0  0  0  0  1  0  0  0  0  0  0
  180.8580  178.4840  140.9760 C   0  0  0  0  0  0  0  0  0  0  0  0
  179.7130  177.9590  140.3930 O   0  0  0  0  0  0  0  0  0  0  0  0
  186.7430  176.1430  143.4510 C   0  0  0  0  0  2  0  0  0  0  0  0
  188.2550  176.0310  143.5530 C   0  0  0  0  0  2  0  0  0  0  0  0
  188.7980  177.0850  144.5080 C   0  0  1  0  0  3  0  0  0  0  0  0
  190.9300  175.3150  147.7920 C   0  0  0  0  0  3  0  0  0  0  0  0
  189.5420  176.4420  145.6390 C   0  0  0  0  0  0  0  0  0  0  0  0
  190.8200  176.9040  145.9700 C   0  0  0  0  0  3  0  0  0  0  0  0
  188.9590  175.4160  146.3940 C   0  0  0  0  0  3  0  0  0  0  0  0
  191.5200  176.3480  147.0450 C   0  0  0  0  0  0  0  0  0  0  0  0
  189.6530  174.8520  147.4660 C   0  0  0  0  0  3  0  0  0  0  0  0
  192.7920  176.8380  147.3490 O   0  0  0  0  0  0  0  0  0  0  0  0
  193.9180  176.6260  146.5110 C   0  0  0  0  0  1  0  0  0  0  0  0
  189.6370  177.9640  143.8190 O   0  0  0  0  0  0  0  0  0  0  0  0
  189.9810  177.2890  142.6470 C   0  0  0  0  0  1  0  0  0  0  0  0
  1  6  1  0  0  0  0
  2 17  1  6  0  0  0
  2  3  1  0  0  0  0
  3  4  2  0  0  0  0
  4  7  1  0  0  0  0
  5  9  1  6  0  0  0
  5  2  1  0  0  0  0
  5  1  1  0  0  0  0
  6  7  1  0  0  0  0
  8  9  2  0  0  0  0
 10 11  2  0  0  0  0
 11 12  1  0  0  0  0
 11  9  1  0  0  0  0
 13 15  1  0  0  0  0
 13 12  1  0  0  0  0
 15 14  1  0  0  0  0
 16 15  2  0  0  0  0
 17 18  1  0  0  0  0
 19 18  1  6  0  0  0
 19 21  1  0  0  0  0
 21 22  2  0  0  0  0
 21 23  1  0  0  0  0
 22 24  1  0  0  0  0
 23 25  2  0  0  0  0
 24 26  1  0  0  0  0
 24 20  2  0  0  0  0
 25 20  1  0  0  0  0
 27 26  1  0  0  0  0
 28 19  1  0  0  0  0
 29 28  1  0  0  0  0
M  END
>  <MODEL>
1

>  <REMARK>
 VINA RESULT:      -7.3      0.000      0.000
  Name = 
  10 active torsions:
  status: ('A' for Active; 'I' for Inactive)
    1  A    between atoms: C_3  and  C_24
    2  A    between atoms: C_4  and  C_16
    3  A    between atoms: C_4  and  N_27
    4  A    between atoms: C_5  and  C_20
    5  A    between atoms: O_6  and  C_19
    6  A    between atoms: C_13  and  C_17
    7  A    between atoms: C_14  and  C_17
    8  A    between atoms: C_20  and  C_22
    9  A    between atoms: C_20  and  O_25
   10  A    between atoms: C_22  and  C_24
                            x       y       z     vdW  Elec       q    Type
                         _______ _______ _______ _____ _____    ______ ____

>  <TORSDO>
F 10

$$$$
=
 OpenBabel11062422423D

 29 30  0  0  1  0  0  0  0  0999 V2000
  184.8290  179.0310  145.7000 C   0  0  0  0  0  2  0  0  0  0  0  0
  186.9280  177.7370  145.0580 C   0  0  2  0  0  3  0  0  0  0  0  0
  186.9270  176.6430  146.0910 C   0  0  0  0  0  3  0  0  0  0  0  0
  186.3980  176.7610  147.3140 C   0  0  0  0  0  3  0  0  0  0  0  0
  185.4890  178.1310  144.6530 C   0  0  2  0  0  3  0  0  0  0  0  0
  184.4740  178.2850  146.9780 C   0  0  0  0  0  2  0  0  0  0  0  0
  185.7220  178.0040  147.7980 C   0  0  0  0  0  2  0  0  0  0  0  0
  186.0750  179.8740  143.1430 O   0  0  0  0  0  0  0  0  0  0  0  0
  185.4110  178.8180  143.3140 C   0  0  0  0  0  0  0  0  0  0  0  0
  185.1480  177.6750  141.2540 O   0  0  0  0  0  0  0  0  0  0  0  0
  184.5920  178.2890  142.2040 C   0  0  0  0  0  0  0  0  0  0  0  0
  183.1770  178.4860  142.1990 N   0  0  0  0  0  2  0  0  0  0  0  0
  182.3180  177.9140  141.1750 C   0  0  0  0  0  2  0  0  0  0  0  0
  180.2230  178.5090  140.2090 O   0  0  0  0  0  0  0  0  0  0  0  0
  180.9960  178.5950  141.1980 C   0  0  0  0  0  0  0  0  0  0  0  0
  180.5990  179.2930  142.3300 O   0  0  0  0  0  1  0  0  0  0  0  0
  187.7450  177.2490  143.8710 C   0  0  0  0  0  2  0  0  0  0  0  0
  189.1720  177.7600  143.9750 C   0  0  0  0  0  2  0  0  0  0  0  0
  190.1560  176.6100  143.8040 C   0  0  1  0  0  3  0  0  0  0  0  0
  192.7700  176.3740  147.2050 C   0  0  0  0  0  3  0  0  0  0  0  0
  191.0560  176.5010  144.9970 C   0  0  0  0  0  0  0  0  0  0  0  0
  192.4400  176.4330  144.8090 C   0  0  0  0  0  3  0  0  0  0  0  0
  190.5330  176.5110  146.2970 C   0  0  0  0  0  3  0  0  0  0  0  0
  193.3040  176.3700  145.9060 C   0  0  0  0  0  0  0  0  0  0  0  0
  191.3880  176.4440  147.3990 C   0  0  0  0  0  3  0  0  0  0  0  0
  194.6810  176.3080  145.6800 O   0  0  0  0  0  0  0  0  0  0  0  0
  195.2520  176.4230  144.3860 C   0  0  0  0  0  1  0  0  0  0  0  0
  189.4610  175.4130  143.6140 O   0  0  0  0  0  0  0  0  0  0  0  0
  190.1140  174.7820  142.5540 C   0  0  0  0  0  1  0  0  0  0  0  0
  1  6  1  0  0  0  0
  2 17  1  6  0  0  0
  2  3  1  0  0  0  0
  3  4  2  0  0  0  0
  4  7  1  0  0  0  0
  5  9  1  6  0  0  0
  5  2  1  0  0  0  0
  5  1  1  0  0  0  0
  6  7  1  0  0  0  0
  8  9  2  0  0  0  0
 10 11  2  0  0  0  0
 11  9  1  0  0  0  0
 12 11  1  0  0  0  0
 13 15  1  0  0  0  0
 13 12  1  0  0  0  0
 14 15  2  0  0  0  0
 15 16  1  0  0  0  0
 17 18  1  0  0  0  0
 19 18  1  1  0  0  0
 19 21  1  0  0  0  0
 20 25  1  0  0  0  0
 21 23  1  0  0  0  0
 22 21  2  0  0  0  0
 22 24  1  0  0  0  0
 23 25  2  0  0  0  0
 24 20  2  0  0  0  0
 26 24  1  0  0  0  0
 27 26  1  0  0  0  0
 28 19  1  0  0  0  0
 29 28  1  0  0  0  0
M  END
>  <MODEL>
2

>  <REMARK>
 VINA RESULT:      -6.9      1.347      1.720
  Name = 
  10 active torsions:
  status: ('A' for Active; 'I' for Inactive)
    1  A    between atoms: C_3  and  C_24
    2  A    between atoms: C_4  and  C_16
    3  A    between atoms: C_4  and  N_27
    4  A    between atoms: C_5  and  C_20
    5  A    between atoms: O_6  and  C_19
    6  A    between atoms: C_13  and  C_17
    7  A    between atoms: C_14  and  C_17
    8  A    between atoms: C_20  and  C_22
    9  A    between atoms: C_20  and  O_25
   10  A    between atoms: C_22  and  C_24
                            x       y       z     vdW  Elec       q    Type
                         _______ _______ _______ _____ _____    ______ ____

>  <TORSDO>
F 10

$$$$
=
 OpenBabel11062422423D

 29 30  0  0  1  0  0  0  0  0999 V2000
  184.9720  178.3890  144.7430 C   0  0  0  0  0  2  0  0  0  0  0  0
  187.4250  178.0090  145.3140 C   0  0  2  0  0  3  0  0  0  0  0  0
  187.3160  177.3450  146.6590 C   0  0  0  0  0  3  0  0  0  0  0  0
  186.3120  177.5480  147.5200 C   0  0  0  0  0  3  0  0  0  0  0  0
  186.2460  177.6170  144.3940 C   0  0  2  0  0  3  0  0  0  0  0  0
  184.3510  177.9380  146.0580 C   0  0  0  0  0  2  0  0  0  0  0  0
  185.1580  178.4560  147.2360 C   0  0  0  0  0  2  0  0  0  0  0  0
  186.4470  178.9750  142.4500 O   0  0  0  0  0  0  0  0  0  0  0  0
  186.5390  177.8140  142.9290 C   0  0  0  0  0  0  0  0  0  0  0  0
  186.9320  176.8550  140.7970 O   0  0  0  0  0  0  0  0  0  0  0  0
  186.9340  176.6970  142.0480 C   0  0  0  0  0  0  0  0  0  0  0  0
  187.3020  175.4350  142.6090 N   0  0  0  0  0  2  0  0  0  0  0  0
  187.7790  174.3320  141.7900 C   0  0  0  0  0  2  0  0  0  0  0  0
  189.6740  172.9450  142.1940 O   0  0  0  0  0  1  0  0  0  0  0  0
  189.2270  174.1120  142.0480 C   0  0  0  0  0  0  0  0  0  0  0  0
  190.0940  175.1960  142.0860 O   0  0  0  0  0  0  0  0  0  0  0  0
  188.7700  177.6220  144.7170 C   0  0  0  0  0  2  0  0  0  0  0  0
  189.7570  177.2940  145.8260 C   0  0  0  0  0  2  0  0  0  0  0  0
  190.4620  175.9760  145.5300 C   0  0  1  0  0  3  0  0  0  0  0  0
  194.7190  176.5500  145.6040 C   0  0  0  0  0  3  0  0  0  0  0  0
  191.9500  176.1520  145.5730 C   0  0  0  0  0  0  0  0  0  0  0  0
  192.6840  176.0760  144.3850 C   0  0  0  0  0  3  0  0  0  0  0  0
  192.6070  176.4340  146.7770 C   0  0  0  0  0  3  0  0  0  0  0  0
  194.0680  176.2750  144.3910 C   0  0  0  0  0  0  0  0  0  0  0  0
  193.9900  176.6290  146.7940 C   0  0  0  0  0  3  0  0  0  0  0  0
  194.7680  176.1970  143.1850 O   0  0  0  0  0  0  0  0  0  0  0  0
  196.1540  176.4830  143.0820 C   0  0  0  0  0  1  0  0  0  0  0  0
  190.0650  175.0060  146.4530 O   0  0  0  0  0  0  0  0  0  0  0  0
  189.7730  173.8770  145.6860 C   0  0  0  0  0  1  0  0  0  0  0  0
  1  6  1  0  0  0  0
  2 17  1  6  0  0  0
  2  3  1  0  0  0  0
  3  4  2  0  0  0  0
  5  9  1  6  0  0  0
  5  1  1  0  0  0  0
  5  2  1  0  0  0  0
  6  7  1  0  0  0  0
  7  4  1  0  0  0  0
  8  9  2  0  0  0  0
 10 11  2  0  0  0  0
 11 12  1  0  0  0  0
 11  9  1  0  0  0  0
 13 15  1  0  0  0  0
 13 12  1  0  0  0  0
 15 16  2  0  0  0  0
 15 14  1  0  0  0  0
 17 18  1  0  0  0  0
 19 21  1  0  0  0  0
 19 18  1  1  0  0  0
 19 28  1  0  0  0  0
 20 25  1  0  0  0  0
 21 23  1  0  0  0  0
 22 24  1  0  0  0  0
 22 21  2  0  0  0  0
 23 25  2  0  0  0  0
 24 20  2  0  0  0  0
 26 24  1  0  0  0  0
 27 26  1  0  0  0  0
 29 28  1  0  0  0  0
M  END
>  <MODEL>
3

>  <REMARK>
 VINA RESULT:      -6.9      2.879      4.602
  Name = 
  10 active torsions:
  status: ('A' for Active; 'I' for Inactive)
    1  A    between atoms: C_3  and  C_24
    2  A    between atoms: C_4  and  C_16
    3  A    between atoms: C_4  and  N_27
    4  A    between atoms: C_5  and  C_20
    5  A    between atoms: O_6  and  C_19
    6  A    between atoms: C_13  and  C_17
    7  A    between atoms: C_14  and  C_17
    8  A    between atoms: C_20  and  C_22
    9  A    between atoms: C_20  and  O_25
   10  A    between atoms: C_22  and  C_24
                            x       y       z     vdW  Elec       q    Type
                         _______ _______ _______ _____ _____    ______ ____

>  <TORSDO>
F 10

$$$$
=
 OpenBabel11062422423D

 29 30  0  0  1  0  0  0  0  0999 V2000
  189.9680  174.4180  145.0090 C   0  0  0  0  0  2  0  0  0  0  0  0
  189.6090  176.7610  144.0780 C   0  0  2  0  0  3  0  0  0  0  0  0
  189.7290  177.5950  145.3240 C   0  0  0  0  0  3  0  0  0  0  0  0
  189.4230  177.1630  146.5530 C   0  0  0  0  0  3  0  0  0  0  0  0
  190.5440  175.5310  144.1310 C   0  0  2  0  0  3  0  0  0  0  0  0
  190.0090  174.7570  146.4920 C   0  0  0  0  0  2  0  0  0  0  0  0
  188.9370  175.7770  146.8370 C   0  0  0  0  0  2  0  0  0  0  0  0
  189.9070  174.4900  142.0880 O   0  0  0  0  0  0  0  0  0  0  0  0
  190.8550  174.9570  142.7730 C   0  0  0  0  0  0  0  0  0  0  0  0
  192.4130  174.5980  141.0230 O   0  0  0  0  0  0  0  0  0  0  0  0
  192.2260  174.9340  142.2240 C   0  0  0  0  0  0  0  0  0  0  0  0
  193.3380  175.2740  143.0530 N   0  0  0  0  0  2  0  0  0  0  0  0
  194.6960  175.3480  142.5390 C   0  0  0  0  0  2  0  0  0  0  0  0
  195.1370  176.5350  144.5560 O   0  0  0  0  0  1  0  0  0  0  0  0
  195.4950  176.2810  143.3770 C   0  0  0  0  0  0  0  0  0  0  0  0
  196.6600  176.8400  142.8700 O   0  0  0  0  0  0  0  0  0  0  0  0
  189.9140  177.6620  142.8910 C   0  0  0  0  0  2  0  0  0  0  0  0
  188.6370  177.9640  142.1240 C   0  0  0  0  0  2  0  0  0  0  0  0
  187.5060  177.0690  142.6130 C   0  0  1  0  0  3  0  0  0  0  0  0
  184.9220  179.2500  145.2640 C   0  0  0  0  0  3  0  0  0  0  0  0
  186.5830  177.8290  143.5160 C   0  0  0  0  0  0  0  0  0  0  0  0
  186.1890  177.2580  144.7310 C   0  0  0  0  0  3  0  0  0  0  0  0
  186.1480  179.1180  143.1830 C   0  0  0  0  0  3  0  0  0  0  0  0
  185.3600  177.9610  145.6100 C   0  0  0  0  0  0  0  0  0  0  0  0
  185.3160  179.8250  144.0530 C   0  0  0  0  0  3  0  0  0  0  0  0
  184.9900  177.3610  146.8160 O   0  0  0  0  0  0  0  0  0  0  0  0
  185.7750  177.4580  147.9950 C   0  0  0  0  0  1  0  0  0  0  0  0
  186.7980  176.5590  141.5220 O   0  0  0  0  0  0  0  0  0  0  0  0
  187.1960  177.3420  140.4370 C   0  0  0  0  0  1  0  0  0  0  0  0
  1  6  1  0  0  0  0
  2 17  1  6  0  0  0
  2  5  1  0  0  0  0
  2  3  1  0  0  0  0
  3  4  2  0  0  0  0
  4  7  1  0  0  0  0
  5  9  1  6  0  0  0
  5  1  1  0  0  0  0
  6  7  1  0  0  0  0
  8  9  2  0  0  0  0
 10 11  2  0  0  0  0
 11  9  1  0  0  0  0
 11 12  1  0  0  0  0
 13 12  1  0  0  0  0
 13 15  1  0  0  0  0
 15 14  1  0  0  0  0
 16 15  2  0  0  0  0
 18 17  1  0  0  0  0
 19 18  1  6  0  0  0
 19 21  1  0  0  0  0
 20 24  1  0  0  0  0
 21 22  1  0  0  0  0
 22 24  2  0  0  0  0
 23 21  2  0  0  0  0
 23 25  1  0  0  0  0
 24 26  1  0  0  0  0
 25 20  2  0  0  0  0
 26 27  1  0  0  0  0
 28 19  1  0  0  0  0
 29 28  1  0  0  0  0
M  END
>  <MODEL>
4

>  <REMARK>
 VINA RESULT:      -6.7      3.521      7.990
  Name = 
  10 active torsions:
  status: ('A' for Active; 'I' for Inactive)
    1  A    between atoms: C_3  and  C_24
    2  A    between atoms: C_4  and  C_16
    3  A    between atoms: C_4  and  N_27
    4  A    between atoms: C_5  and  C_20
    5  A    between atoms: O_6  and  C_19
    6  A    between atoms: C_13  and  C_17
    7  A    between atoms: C_14  and  C_17
    8  A    between atoms: C_20  and  C_22
    9  A    between atoms: C_20  and  O_25
   10  A    between atoms: C_22  and  C_24
                            x       y       z     vdW  Elec       q    Type
                         _______ _______ _______ _____ _____    ______ ____

>  <TORSDO>
F 10

$$$$
=
 OpenBabel11062422423D

 29 30  0  0  1  0  0  0  0  0999 V2000
  186.8010  177.9720  147.4280 C   0  0  0  0  0  2  0  0  0  0  0  0
  186.2690  176.8250  145.2180 C   0  0  2  0  0  3  0  0  0  0  0  0
  185.2580  177.7710  144.6300 C   0  0  0  0  0  3  0  0  0  0  0  0
  184.4380  178.5430  145.3530 C   0  0  0  0  0  3  0  0  0  0  0  0
  187.3320  177.5790  146.0480 C   0  0  2  0  0  3  0  0  0  0  0  0
  185.7710  179.0910  147.3680 C   0  0  0  0  0  2  0  0  0  0  0  0
  184.4430  178.5680  146.8490 C   0  0  0  0  0  2  0  0  0  0  0  0
  188.6030  175.8050  146.9970 O   0  0  0  0  0  0  0  0  0  0  0  0
  188.6110  176.8040  146.2300 C   0  0  0  0  0  0  0  0  0  0  0  0
  189.8690  178.1520  144.7400 O   0  0  0  0  0  0  0  0  0  0  0  0
  189.8610  177.1730  145.5350 C   0  0  0  0  0  0  0  0  0  0  0  0
  191.0530  176.4150  145.7490 N   0  0  0  0  0  2  0  0  0  0  0  0
  192.3270  176.7880  145.1550 C   0  0  0  0  0  2  0  0  0  0  0  0
  193.8080  175.0570  145.8490 O   0  0  0  0  0  0  0  0  0  0  0  0
  193.4370  176.2510  145.9860 C   0  0  0  0  0  0  0  0  0  0  0  0
  194.0930  177.0830  146.8830 O   0  0  0  0  0  1  0  0  0  0  0  0
  186.8880  176.0420  144.0690 C   0  0  0  0  0  2  0  0  0  0  0  0
  186.5720  176.7200  142.7460 C   0  0  0  0  0  2  0  0  0  0  0  0
  187.8610  177.0820  142.0200 C   0  0  1  0  0  3  0  0  0  0  0  0
  190.1190  173.5240  141.1870 C   0  0  0  0  0  3  0  0  0  0  0  0
  188.6530  175.8510  141.7010 C   0  0  0  0  0  0  0  0  0  0  0  0
  189.8550  175.6150  142.3750 C   0  0  0  0  0  3  0  0  0  0  0  0
  188.1840  174.9140  140.7710 C   0  0  0  0  0  3  0  0  0  0  0  0
  190.5940  174.4550  142.1260 C   0  0  0  0  0  0  0  0  0  0  0  0
  188.9180  173.7540  140.5120 C   0  0  0  0  0  3  0  0  0  0  0  0
  191.7870  174.2500  142.8220 O   0  0  0  0  0  0  0  0  0  0  0  0
  193.0620  174.4970  142.2480 C   0  0  0  0  0  1  0  0  0  0  0  0
  187.5640  177.7810  140.8470 O   0  0  0  0  0  0  0  0  0  0  0  0
  186.1740  177.9100  140.8460 C   0  0  0  0  0  1  0  0  0  0  0  0
  2 17  1  6  0  0  0
  2  5  1  0  0  0  0
  3  2  1  0  0  0  0
  3  4  2  0  0  0  0
  4  7  1  0  0  0  0
  5  9  1  1  0  0  0
  5  1  1  0  0  0  0
  6  1  1  0  0  0  0
  7  6  1  0  0  0  0
  9  8  2  0  0  0  0
 10 11  2  0  0  0  0
 11 12  1  0  0  0  0
 11  9  1  0  0  0  0
 13 12  1  0  0  0  0
 13 15  1  0  0  0  0
 14 15  2  0  0  0  0
 15 16  1  0  0  0  0
 18 17  1  0  0  0  0
 19 18  1  6  0  0  0
 20 24  1  0  0  0  0
 21 19  1  0  0  0  0
 21 22  1  0  0  0  0
 23 21  2  0  0  0  0
 24 22  2  0  0  0  0
 24 26  1  0  0  0  0
 25 23  1  0  0  0  0
 25 20  2  0  0  0  0
 27 26  1  0  0  0  0
 28 19  1  0  0  0  0
 29 28  1  0  0  0  0
M  END
>  <MODEL>
5

>  <REMARK>
 VINA RESULT:      -6.6      3.223      6.767
  Name = 
  10 active torsions:
  status: ('A' for Active; 'I' for Inactive)
    1  A    between atoms: C_3  and  C_24
    2  A    between atoms: C_4  and  C_16
    3  A    between atoms: C_4  and  N_27
    4  A    between atoms: C_5  and  C_20
    5  A    between atoms: O_6  and  C_19
    6  A    between atoms: C_13  and  C_17
    7  A    between atoms: C_14  and  C_17
    8  A    between atoms: C_20  and  C_22
    9  A    between atoms: C_20  and  O_25
   10  A    between atoms: C_22  and  C_24
                            x       y       z     vdW  Elec       q    Type
                         _______ _______ _______ _____ _____    ______ ____

>  <TORSDO>
F 10

$$$$
=
 OpenBabel11062422423D

 29 30  0  0  1  0  0  0  0  0999 V2000
  190.7560  174.7370  145.9890 C   0  0  0  0  0  2  0  0  0  0  0  0
  190.0400  176.8840  144.8210 C   0  0  2  0  0  3  0  0  0  0  0  0
  189.2430  177.5580  145.9050 C   0  0  0  0  0  3  0  0  0  0  0  0
  188.5810  176.9080  146.8680 C   0  0  0  0  0  3  0  0  0  0  0  0
  191.2190  176.0750  145.4080 C   0  0  2  0  0  3  0  0  0  0  0  0
  189.9670  174.8970  147.2810 C   0  0  0  0  0  2  0  0  0  0  0  0
  188.5690  175.4180  146.9930 C   0  0  0  0  0  2  0  0  0  0  0  0
  192.0640  175.0740  143.4210 O   0  0  0  0  0  0  0  0  0  0  0  0
  192.3180  175.8090  144.4120 C   0  0  0  0  0  0  0  0  0  0  0  0
  193.9070  177.1920  145.4990 O   0  0  0  0  0  0  0  0  0  0  0  0
  193.6690  176.3870  144.5590 C   0  0  0  0  0  0  0  0  0  0  0  0
  194.7000  176.0470  143.6300 N   0  0  0  0  0  2  0  0  0  0  0  0
  196.0670  176.5210  143.7800 C   0  0  0  0  0  2  0  0  0  0  0  0
  197.2200  174.5220  144.3700 O   0  0  0  0  0  1  0  0  0  0  0  0
  197.0120  175.4070  143.5010 C   0  0  0  0  0  0  0  0  0  0  0  0
  197.6340  175.3230  142.2630 O   0  0  0  0  0  0  0  0  0  0  0  0
  190.5100  177.9630  143.8570 C   0  0  0  0  0  2  0  0  0  0  0  0
  189.6900  177.9130  142.5780 C   0  0  0  0  0  2  0  0  0  0  0  0
  188.6920  176.7640  142.6390 C   0  0  1  0  0  3  0  0  0  0  0  0
  184.6900  178.2980  142.3370 C   0  0  0  0  0  3  0  0  0  0  0  0
  187.2890  177.2750  142.5160 C   0  0  0  0  0  0  0  0  0  0  0  0
  186.4950  177.3810  143.6630 C   0  0  0  0  0  3  0  0  0  0  0  0
  186.7780  177.6900  141.2790 C   0  0  0  0  0  3  0  0  0  0  0  0
  185.1960  177.8910  143.5830 C   0  0  0  0  0  0  0  0  0  0  0  0
  185.4800  178.1970  141.1890 C   0  0  0  0  0  3  0  0  0  0  0  0
  184.4330  177.9860  144.7500 O   0  0  0  0  0  0  0  0  0  0  0  0
  184.5960  179.0380  145.6890 C   0  0  0  0  0  1  0  0  0  0  0  0
  188.9600  175.8470  141.6190 O   0  0  0  0  0  0  0  0  0  0  0  0
  188.7290  174.5950  142.1910 C   0  0  0  0  0  1  0  0  0  0  0  0
  1  6  1  0  0  0  0
  2 17  1  6  0  0  0
  2  5  1  0  0  0  0
  2  3  1  0  0  0  0
  3  4  2  0  0  0  0
  4  7  1  0  0  0  0
  5  9  1  6  0  0  0
  5  1  1  0  0  0  0
  7  6  1  0  0  0  0
  8  9  2  0  0  0  0
  9 11  1  0  0  0  0
 11 10  2  0  0  0  0
 12 13  1  0  0  0  0
 12 11  1  0  0  0  0
 15 13  1  0  0  0  0
 15 14  1  0  0  0  0
 16 15  2  0  0  0  0
 18 17  1  0  0  0  0
 19 18  1  6  0  0  0
 20 24  1  0  0  0  0
 21 19  1  0  0  0  0
 21 22  1  0  0  0  0
 23 21  2  0  0  0  0
 24 22  2  0  0  0  0
 24 26  1  0  0  0  0
 25 23  1  0  0  0  0
 25 20  2  0  0  0  0
 26 27  1  0  0  0  0
 28 29  1  0  0  0  0
 28 19  1  0  0  0  0
M  END
>  <MODEL>
6

>  <REMARK>
 VINA RESULT:      -6.5      3.416      8.852
  Name = 
  10 active torsions:
  status: ('A' for Active; 'I' for Inactive)
    1  A    between atoms: C_3  and  C_24
    2  A    between atoms: C_4  and  C_16
    3  A    between atoms: C_4  and  N_27
    4  A    between atoms: C_5  and  C_20
    5  A    between atoms: O_6  and  C_19
    6  A    between atoms: C_13  and  C_17
    7  A    between atoms: C_14  and  C_17
    8  A    between atoms: C_20  and  C_22
    9  A    between atoms: C_20  and  O_25
   10  A    between atoms: C_22  and  C_24
                            x       y       z     vdW  Elec       q    Type
                         _______ _______ _______ _____ _____    ______ ____

>  <TORSDO>
F 10

$$$$
=
 OpenBabel11062422423D

 29 30  0  0  1  0  0  0  0  0999 V2000
  192.4920  176.5890  146.0060 C   0  0  0  0  0  2  0  0  0  0  0  0
  191.3930  174.7240  144.6630 C   0  0  2  0  0  3  0  0  0  0  0  0
  192.2720  173.5540  145.0100 C   0  0  0  0  0  3  0  0  0  0  0  0
  193.5650  173.6530  145.3380 C   0  0  0  0  0  3  0  0  0  0  0  0
  191.2560  175.6990  145.8550 C   0  0  2  0  0  3  0  0  0  0  0  0
  193.7080  175.8280  146.5150 C   0  0  0  0  0  2  0  0  0  0  0  0
  194.2930  174.9570  145.4170 C   0  0  0  0  0  2  0  0  0  0  0  0
  190.0870  177.6010  145.0320 O   0  0  0  0  0  0  0  0  0  0  0  0
  190.0380  176.5810  145.7690 C   0  0  0  0  0  0  0  0  0  0  0  0
  188.7360  175.2590  147.2430 O   0  0  0  0  0  0  0  0  0  0  0  0
  188.7970  176.2840  146.5120 C   0  0  0  0  0  0  0  0  0  0  0  0
  187.6640  177.1460  146.3920 N   0  0  0  0  0  2  0  0  0  0  0  0
  186.4500  176.9440  147.1660 C   0  0  0  0  0  2  0  0  0  0  0  0
  186.6970  179.0530  148.2470 O   0  0  0  0  0  1  0  0  0  0  0  0
  185.9360  178.2590  147.6360 C   0  0  0  0  0  0  0  0  0  0  0  0
  184.6260  178.6260  147.3610 O   0  0  0  0  0  0  0  0  0  0  0  0
  190.0470  174.1720  144.2170 C   0  0  0  0  0  2  0  0  0  0  0  0
  189.8560  174.4060  142.7270 C   0  0  0  0  0  2  0  0  0  0  0  0
  188.3720  174.4380  142.3860 C   0  0  1  0  0  3  0  0  0  0  0  0
  186.8470  178.4400  142.7320 C   0  0  0  0  0  3  0  0  0  0  0  0
  187.8390  175.8360  142.4760 C   0  0  0  0  0  0  0  0  0  0  0  0
  186.5940  176.0580  143.0740 C   0  0  0  0  0  3  0  0  0  0  0  0
  188.5890  176.9240  142.0120 C   0  0  0  0  0  3  0  0  0  0  0  0
  186.0910  177.3550  143.2070 C   0  0  0  0  0  0  0  0  0  0  0  0
  188.0920  178.2240  142.1360 C   0  0  0  0  0  3  0  0  0  0  0  0
  184.8460  177.5400  143.8130 O   0  0  0  0  0  0  0  0  0  0  0  0
  184.2100  178.8060  143.8900 C   0  0  0  0  0  1  0  0  0  0  0  0
  188.1680  173.9280  141.1020 O   0  0  0  0  0  0  0  0  0  0  0  0
  189.4380  173.5550  140.6570 C   0  0  0  0  0  1  0  0  0  0  0  0
  1  6  1  0  0  0  0
  2 17  1  1  0  0  0
  2  3  1  0  0  0  0
  2  5  1  0  0  0  0
  3  4  2  0  0  0  0
  4  7  1  0  0  0  0
  5  9  1  6  0  0  0
  5  1  1  0  0  0  0
  7  6  1  0  0  0  0
  8  9  2  0  0  0  0
  9 11  1  0  0  0  0
 11 10  2  0  0  0  0
 12 11  1  0  0  0  0
 12 13  1  0  0  0  0
 13 15  1  0  0  0  0
 15 14  1  0  0  0  0
 16 15  2  0  0  0  0
 18 17  1  0  0  0  0
 19 21  1  0  0  0  0
 19 18  1  6  0  0  0
 20 24  1  0  0  0  0
 21 22  1  0  0  0  0
 22 24  2  0  0  0  0
 23 25  1  0  0  0  0
 23 21  2  0  0  0  0
 24 26  1  0  0  0  0
 25 20  2  0  0  0  0
 26 27  1  0  0  0  0
 28 19  1  0  0  0  0
 29 28  1  0  0  0  0
M  END
>  <MODEL>
7

>  <REMARK>
 VINA RESULT:      -6.5      2.921      7.056
  Name = 
  10 active torsions:
  status: ('A' for Active; 'I' for Inactive)
    1  A    between atoms: C_3  and  C_24
    2  A    between atoms: C_4  and  C_16
    3  A    between atoms: C_4  and  N_27
    4  A    between atoms: C_5  and  C_20
    5  A    between atoms: O_6  and  C_19
    6  A    between atoms: C_13  and  C_17
    7  A    between atoms: C_14  and  C_17
    8  A    between atoms: C_20  and  C_22
    9  A    between atoms: C_20  and  O_25
   10  A    between atoms: C_22  and  C_24
                            x       y       z     vdW  Elec       q    Type
                         _______ _______ _______ _____ _____    ______ ____

>  <TORSDO>
F 10

$$$$
=
 OpenBabel11062422423D

 29 30  0  0  1  0  0  0  0  0999 V2000
  186.2020  177.2520  147.5040 C   0  0  0  0  0  2  0  0  0  0  0  0
  186.9560  177.4700  145.0810 C   0  0  2  0  0  3  0  0  0  0  0  0
  186.2780  178.7510  144.6760 C   0  0  0  0  0  3  0  0  0  0  0  0
  185.1340  179.1980  145.2050 C   0  0  0  0  0  3  0  0  0  0  0  0
  187.3840  177.5040  146.5650 C   0  0  2  0  0  3  0  0  0  0  0  0
  185.2300  178.4210  147.5550 C   0  0  0  0  0  2  0  0  0  0  0  0
  184.3940  178.4780  146.2870 C   0  0  0  0  0  2  0  0  0  0  0  0
  188.2010  175.2920  146.8840 O   0  0  0  0  0  0  0  0  0  0  0  0
  188.4770  176.5210  146.8950 C   0  0  0  0  0  0  0  0  0  0  0  0
  190.0410  178.0620  147.7890 O   0  0  0  0  0  0  0  0  0  0  0  0
  189.8510  176.9520  147.2220 C   0  0  0  0  0  0  0  0  0  0  0  0
  190.9640  176.1220  146.8840 N   0  0  0  0  0  2  0  0  0  0  0  0
  192.3270  176.4610  147.2590 C   0  0  0  0  0  2  0  0  0  0  0  0
  193.0090  177.1070  145.0690 O   0  0  0  0  0  0  0  0  0  0  0  0
  193.2090  176.3650  146.0650 C   0  0  0  0  0  0  0  0  0  0  0  0
  194.2810  175.4820  146.0680 O   0  0  0  0  0  1  0  0  0  0  0  0
  188.1390  177.2610  144.1470 C   0  0  0  0  0  2  0  0  0  0  0  0
  187.9070  176.0360  143.2780 C   0  0  0  0  0  2  0  0  0  0  0  0
  189.1330  175.7630  142.4150 C   0  0  1  0  0  3  0  0  0  0  0  0
  191.8540  173.1240  144.4360 C   0  0  0  0  0  3  0  0  0  0  0  0
  190.0680  174.8190  143.1080 C   0  0  0  0  0  0  0  0  0  0  0  0
  191.4300  174.8510  142.7950 C   0  0  0  0  0  3  0  0  0  0  0  0
  189.6030  173.9390  144.0930 C   0  0  0  0  0  3  0  0  0  0  0  0
  192.3300  174.0090  143.4540 C   0  0  0  0  0  0  0  0  0  0  0  0
  190.4940  173.0900  144.7540 C   0  0  0  0  0  3  0  0  0  0  0  0
  193.6850  174.0720  143.1200 O   0  0  0  0  0  0  0  0  0  0  0  0
  194.2390  175.1330  142.3570 C   0  0  0  0  0  1  0  0  0  0  0  0
  188.7390  175.2340  141.1840 O   0  0  0  0  0  0  0  0  0  0  0  0
  187.6790  176.0410  140.7670 C   0  0  0  0  0  1  0  0  0  0  0  0
  1  6  1  0  0  0  0
  2 17  1  6  0  0  0
  2  5  1  0  0  0  0
  3  2  1  0  0  0  0
  3  4  2  0  0  0  0
  4  7  1  0  0  0  0
  5  9  1  6  0  0  0
  5  1  1  0  0  0  0
  7  6  1  0  0  0  0
  8  9  2  0  0  0  0
  9 11  1  0  0  0  0
 11 10  2  0  0  0  0
 12 11  1  0  0  0  0
 12 13  1  0  0  0  0
 14 15  2  0  0  0  0
 15 16  1  0  0  0  0
 15 13  1  0  0  0  0
 18 17  1  0  0  0  0
 19 21  1  0  0  0  0
 19 18  1  1  0  0  0
 20 25  1  0  0  0  0
 21 23  1  0  0  0  0
 22 21  2  0  0  0  0
 22 24  1  0  0  0  0
 23 25  2  0  0  0  0
 24 20  2  0  0  0  0
 26 24  1  0  0  0  0
 27 26  1  0  0  0  0
 28 19  1  0  0  0  0
 29 28  1  0  0  0  0
M  END
>  <MODEL>
8

>  <REMARK>
 VINA RESULT:      -6.5      3.926      6.615
  Name = 
  10 active torsions:
  status: ('A' for Active; 'I' for Inactive)
    1  A    between atoms: C_3  and  C_24
    2  A    between atoms: C_4  and  C_16
    3  A    between atoms: C_4  and  N_27
    4  A    between atoms: C_5  and  C_20
    5  A    between atoms: O_6  and  C_19
    6  A    between atoms: C_13  and  C_17
    7  A    between atoms: C_14  and  C_17
    8  A    between atoms: C_20  and  C_22
    9  A    between atoms: C_20  and  O_25
   10  A    between atoms: C_22  and  C_24
                            x       y       z     vdW  Elec       q    Type
                         _______ _______ _______ _____ _____    ______ ____

>  <TORSDO>
F 10

$$$$
=
 OpenBabel11062422423D

 29 30  0  0  1  0  0  0  0  0999 V2000
  184.8010  179.3580  144.5760 C   0  0  0  0  0  2  0  0  0  0  0  0
  186.6430  177.6010  144.6420 C   0  0  2  0  0  3  0  0  0  0  0  0
  186.2270  176.7820  145.8330 C   0  0  0  0  0  3  0  0  0  0  0  0
  185.5360  177.2610  146.8730 C   0  0  0  0  0  3  0  0  0  0  0  0
  185.4170  178.1450  143.8750 C   0  0  2  0  0  3  0  0  0  0  0  0
  184.0780  178.9910  145.8640 C   0  0  0  0  0  2  0  0  0  0  0  0
  185.0760  178.6810  146.9670 C   0  0  0  0  0  2  0  0  0  0  0  0
  186.8380  179.0410  142.1900 O   0  0  0  0  0  0  0  0  0  0  0  0
  185.7210  178.5200  142.4480 C   0  0  0  0  0  0  0  0  0  0  0  0
  185.1810  178.1160  140.1750 O   0  0  0  0  0  0  0  0  0  0  0  0
  184.7590  178.2880  141.3510 C   0  0  0  0  0  0  0  0  0  0  0  0
  183.3550  178.2770  141.6170 N   0  0  0  0  0  2  0  0  0  0  0  0
  182.3730  177.9700  140.5890 C   0  0  0  0  0  2  0  0  0  0  0  0
  180.2860  177.9160  141.7350 O   0  0  0  0  0  1  0  0  0  0  0  0
  181.0580  178.5500  140.9700 C   0  0  0  0  0  0  0  0  0  0  0  0
  180.7010  179.8120  140.5150 O   0  0  0  0  0  0  0  0  0  0  0  0
  187.5240  176.7230  143.7650 C   0  0  0  0  0  2  0  0  0  0  0  0
  188.9500  177.2470  143.7680 C   0  0  0  0  0  2  0  0  0  0  0  0
  189.7940  176.4730  144.7730 C   0  0  1  0  0  3  0  0  0  0  0  0
  190.0680  172.3250  143.6890 C   0  0  0  0  0  3  0  0  0  0  0  0
  189.8600  175.0230  144.4020 C   0  0  0  0  0  0  0  0  0  0  0  0
  190.1400  174.6650  143.0790 C   0  0  0  0  0  3  0  0  0  0  0  0
  189.6900  174.0230  145.3690 C   0  0  0  0  0  3  0  0  0  0  0  0
  190.2470  173.3200  142.7140 C   0  0  0  0  0  0  0  0  0  0  0  0
  189.7900  172.6760  145.0120 C   0  0  0  0  0  3  0  0  0  0  0  0
  190.5320  173.0010  141.3850 O   0  0  0  0  0  0  0  0  0  0  0  0
  189.6410  172.2600  140.5650 C   0  0  0  0  0  1  0  0  0  0  0  0
  191.0800  177.0140  144.8310 O   0  0  0  0  0  0  0  0  0  0  0  0
  191.0790  178.0450  143.8900 C   0  0  0  0  0  1  0  0  0  0  0  0
  1  6  1  0  0  0  0
  2 17  1  6  0  0  0
  2  3  1  0  0  0  0
  3  4  2  0  0  0  0
  4  7  1  0  0  0  0
  5  9  1  6  0  0  0
  5  1  1  0  0  0  0
  5  2  1  0  0  0  0
  6  7  1  0  0  0  0
  8  9  2  0  0  0  0
 10 11  2  0  0  0  0
 11 12  1  0  0  0  0
 11  9  1  0  0  0  0
 13 15  1  0  0  0  0
 13 12  1  0  0  0  0
 15 14  1  0  0  0  0
 16 15  2  0  0  0  0
 17 18  1  0  0  0  0
 19 18  1  6  0  0  0
 19 28  1  0  0  0  0
 20 25  1  0  0  0  0
 21 19  1  0  0  0  0
 21 23  1  0  0  0  0
 22 21  2  0  0  0  0
 24 22  1  0  0  0  0
 24 20  2  0  0  0  0
 25 23  2  0  0  0  0
 26 24  1  0  0  0  0
 27 26  1  0  0  0  0
 29 28  1  0  0  0  0
M  END
>  <MODEL>
9

>  <REMARK>
 VINA RESULT:      -6.5      2.069      2.856
  Name = 
  10 active torsions:
  status: ('A' for Active; 'I' for Inactive)
    1  A    between atoms: C_3  and  C_24
    2  A    between atoms: C_4  and  C_16
    3  A    between atoms: C_4  and  N_27
    4  A    between atoms: C_5  and  C_20
    5  A    between atoms: O_6  and  C_19
    6  A    between atoms: C_13  and  C_17
    7  A    between atoms: C_14  and  C_17
    8  A    between atoms: C_20  and  C_22
    9  A    between atoms: C_20  and  O_25
   10  A    between atoms: C_22  and  C_24
                            x       y       z     vdW  Elec       q    Type
                         _______ _______ _______ _____ _____    ______ ____

>  <TORSDO>
F 10

$$$$
