=
 OpenBabel11062420253D

 49 53  0  0  1  0  0  0  0  0999 V2000
  190.3660  173.1660  141.4940 C   0  0  1  0  0  3  0  0  0  0  0  0
  193.4380  176.0840  145.1570 C   0  0  2  0  0  3  0  0  0  0  0  0
  193.2340  172.0530  142.4160 C   0  0  0  0  0  3  0  0  0  0  0  0
  188.0560  175.5020  142.2470 C   0  0  0  0  0  0  0  0  0  0  0  0
  186.8010  176.9310  145.6090 C   0  0  2  0  0  3  0  0  0  0  0  0
  192.7590  177.1070  144.3690 C   0  0  0  0  0  2  0  0  0  0  0  0
  192.3740  173.2530  142.8670 C   0  0  1  0  0  3  0  0  0  0  0  0
  191.4500  176.1140  146.8150 C   0  0  0  0  0  0  0  0  0  0  0  0
  188.9910  177.0030  143.9690 C   0  0  0  0  0  2  0  0  0  0  0  0
  185.8970  179.0560  144.6680 C   0  0  1  0  0  0  0  0  0  0  0  0
  193.0480  176.3590  146.5880 C   0  0  0  0  0  2  0  0  0  0  0  0
  192.6350  174.6210  142.1130 C   0  0  0  0  0  2  0  0  0  0  0  0
  195.3970  175.4290  143.3890 C   0  0  2  0  0  0  0  0  0  0  0  0
  190.8740  176.0320  147.9600 C   0  0  0  0  0  2  0  0  0  0  0  0
  191.4200  170.8890  140.9700 C   0  0  0  0  0  0  0  0  0  0  0  0
  192.7820  170.8550  141.5240 C   0  0  0  0  0  3  0  0  0  0  0  0
  195.7280  175.5100  145.7080 O   0  0  0  0  0  1  0  0  0  0  0  0
  190.6130  169.9850  141.5340 C   0  0  0  0  0  2  0  0  0  0  0  0
  190.6490  176.1940  145.4620 C   0  0  2  0  0  3  0  0  0  0  0  0
  186.8120  178.5440  145.7620 C   0  0  0  0  0  2  0  0  0  0  0  0
  186.6050  178.4680  142.4670 O   0  0  0  0  0  0  0  0  0  0  0  0
  188.3990  174.7370  141.2250 C   0  0  0  0  0  3  0  0  0  0  0  0
  195.5880  173.9970  143.6030 O   0  0  0  0  0  1  0  0  0  0  0  0
  191.3850  176.5810  144.3670 C   0  0  0  0  0  2  0  0  0  0  0  0
  185.2020  176.0970  143.8490 C   0  0  0  0  0  1  0  0  0  0  0  0
  188.0840  176.2560  146.2000 C   0  0  0  0  0  2  0  0  0  0  0  0
  186.5890  176.6210  144.0450 C   0  0  1  0  0  0  0  0  0  0  0  0
  189.2770  176.4770  145.2950 N   0  0  2  0  0  0  0  0  0  0  0  0
  188.8280  173.3370  141.3940 C   0  0  0  0  0  2  0  0  0  0  0  0
  186.2340  178.0610  143.6220 C   0  0  0  0  0  0  0  0  0  0  0  0
  184.8530  179.1790  145.7680 C   0  0  0  0  0  1  0  0  0  0  0  0
  194.9220  176.0890  144.7790 C   0  0  2  0  0  3  0  0  0  0  0  0
  194.2050  175.6190  141.9330 S   0  0  0  0  0  0  0  0  0  0  0  0
  187.8780  176.1940  143.4030 C   0  0  0  0  0  0  0  0  0  0  0  0
  190.9500  173.0190  142.9450 C   0  0  1  0  0  3  0  0  0  0  0  0
  190.9010  172.1330  140.4830 C   0  0  1  0  0  3  0  0  0  0  0  0
  185.9850  180.4440  144.1690 O   0  0  0  0  0  1  0  0  0  0  0  0
  190.5390  173.2870  144.4240 C   0  0  0  0  0  1  0  0  0  0  0  0
  196.7170  175.9250  143.2070 O   0  0  0  0  0  0  0  0  0  0  0  0
  197.5090  174.9670  142.4590 C   0  0  0  0  0  2  0  0  0  0  0  0
  197.9400  175.5590  141.0990 C   0  0  0  0  0  2  0  0  0  0  0  0
  196.9100  173.5740  140.6600 O   0  0  0  0  0  1  0  0  0  0  0  0
  197.6300  174.5760  140.0380 C   0  0  1  0  0  3  0  0  0  0  0  0
  197.5460  175.2630  137.6760 O   0  0  0  0  0  1  0  0  0  0  0  0
  196.8130  175.0890  138.8620 C   0  0  0  0  0  2  0  0  0  0  0  0
  190.6980  172.3540  139.0450 N   0  0  0  0  0  2  0  0  0  0  0  0
  191.4780  173.5440  138.7240 C   0  0  0  0  0  2  0  0  0  0  0  0
  193.4070  172.1350  137.9210 C   0  0  0  0  0  1  0  0  0  0  0  0
  192.9740  173.3820  138.6780 C   0  0  0  0  0  2  0  0  0  0  0  0
  1 29  1  1  0  0  0
  1 35  1  0  0  0  0
  2  6  1  6  0  0  0
  2 11  1  0  0  0  0
  3  7  1  0  0  0  0
  4 34  2  0  0  0  0
  5 20  1  6  0  0  0
  5 26  1  0  0  0  0
  7 12  1  6  0  0  0
  7 35  1  0  0  0  0
  8 14  2  0  0  0  0
 10 20  1  0  0  0  0
 10 31  1  1  0  0  0
 11  8  1  0  0  0  0
 13 23  1  1  0  0  0
 13 32  1  0  0  0  0
 15 16  1  0  0  0  0
 15 18  2  0  0  0  0
 16  3  2  0  0  0  0
 19 24  1  6  0  0  0
 19  8  1  0  0  0  0
 21 30  2  0  0  0  0
 22 29  1  0  0  0  0
 22  4  2  0  0  0  0
 24  6  1  0  0  0  0
 27 25  1  6  0  0  0
 27  5  1  0  0  0  0
 28  9  1  6  0  0  0
 28 19  1  0  0  0  0
 28 26  1  0  0  0  0
 30 27  1  0  0  0  0
 30 10  1  0  0  0  0
 32  2  1  0  0  0  0
 32 17  1  1  0  0  0
 33 12  1  0  0  0  0
 33 13  1  0  0  0  0
 34  9  1  0  0  0  0
 34 27  1  0  0  0  0
 35 38  1  1  0  0  0
 36 46  1  6  0  0  0
 36 15  1  0  0  0  0
 36  1  1  0  0  0  0
 37 10  1  0  0  0  0
 39 13  1  0  0  0  0
 40 39  1  0  0  0  0
 41 40  1  0  0  0  0
 43 42  1  1  0  0  0
 43 41  1  0  0  0  0
 44 45  1  0  0  0  0
 45 43  1  0  0  0  0
 47 46  1  0  0  0  0
 48 49  1  0  0  0  0
 49 47  1  0  0  0  0
M  END
>  <MODEL>
1

>  <REMARK>
 VINA RESULT:      -7.5      0.000      0.000
  Name = 
  8 active torsions:
  status: ('A' for Active; 'I' for Inactive)
    1  A    between atoms: C_15  and  O_19
    2  A    between atoms: O_19  and  C_30
    3  A    between atoms: C_20  and  C_44
    4  A    between atoms: C_21  and  C_30
    5  A    between atoms: C_21  and  C_37
    6  A    between atoms: N_24  and  C_44
    7  A    between atoms: N_24  and  C_47
    8  A    between atoms: C_37  and  C_39
                            x       y       z     vdW  Elec       q    Type
                         _______ _______ _______ _____ _____    ______ ____

>  <TORSDO>
F 8

$$$$
=
 OpenBabel11062420253D

 49 53  0  0  1  0  0  0  0  0999 V2000
  190.8080  174.7250  144.1610 C   0  0  1  0  0  3  0  0  0  0  0  0
  195.8680  172.8290  142.6870 C   0  0  2  0  0  3  0  0  0  0  0  0
  193.3810  175.5140  145.9140 C   0  0  0  0  0  3  0  0  0  0  0  0
  189.9220  173.3370  141.2210 C   0  0  0  0  0  0  0  0  0  0  0  0
  191.4590  173.5310  137.6830 C   0  0  2  0  0  3  0  0  0  0  0  0
  194.9640  171.7420  142.3290 C   0  0  0  0  0  2  0  0  0  0  0  0
  193.2060  174.7600  144.5780 C   0  0  1  0  0  3  0  0  0  0  0  0
  195.5530  173.8060  140.3110 C   0  0  0  0  0  0  0  0  0  0  0  0
  191.9460  172.4290  140.1400 C   0  0  0  0  0  2  0  0  0  0  0  0
  190.4200  171.4300  136.8300 C   0  0  1  0  0  0  0  0  0  0  0  0
  196.5870  173.1860  141.4100 C   0  0  0  0  0  2  0  0  0  0  0  0
  193.0480  173.1880  144.6800 C   0  0  0  0  0  2  0  0  0  0  0  0
  196.0130  172.3850  145.3650 C   0  0  2  0  0  0  0  0  0  0  0  0
  195.9000  174.4180  139.2360 C   0  0  0  0  0  2  0  0  0  0  0  0
  190.9460  176.3920  146.1040 C   0  0  0  0  0  0  0  0  0  0  0  0
  192.3050  176.3600  146.6640 C   0  0  0  0  0  3  0  0  0  0  0  0
  197.8340  173.1050  144.0770 O   0  0  0  0  0  1  0  0  0  0  0  0
  190.6340  177.5800  145.5760 C   0  0  0  0  0  2  0  0  0  0  0  0
  194.0640  173.3900  140.6090 C   0  0  2  0  0  3  0  0  0  0  0  0
  191.7640  172.1210  136.9440 C   0  0  0  0  0  2  0  0  0  0  0  0
  189.3710  171.0100  138.9320 O   0  0  0  0  0  0  0  0  0  0  0  0
  189.3860  173.5860  142.4030 C   0  0  0  0  0  3  0  0  0  0  0  0
  196.1260  173.7260  145.9300 O   0  0  0  0  0  1  0  0  0  0  0  0
  193.9020  172.4890  141.6350 C   0  0  0  0  0  2  0  0  0  0  0  0
  189.0070  173.9500  138.0810 C   0  0  0  0  0  1  0  0  0  0  0  0
  192.7100  174.1100  138.4250 C   0  0  0  0  0  2  0  0  0  0  0  0
  190.2080  173.2740  138.6610 C   0  0  1  0  0  0  0  0  0  0  0  0
  192.9890  173.3410  139.6970 N   0  0  2  0  0  0  0  0  0  0  0  0
  189.6450  174.8350  143.1410 C   0  0  0  0  0  2  0  0  0  0  0  0
  189.8360  171.8810  138.1170 C   0  0  0  0  0  0  0  0  0  0  0  0
  190.4220  171.9310  135.3940 C   0  0  0  0  0  1  0  0  0  0  0  0
  196.6890  172.3930  143.9040 C   0  0  2  0  0  3  0  0  0  0  0  0
  194.1840  171.9070  145.4280 S   0  0  0  0  0  0  0  0  0  0  0  0
  190.6580  173.1710  140.0900 C   0  0  0  0  0  0  0  0  0  0  0  0
  192.1970  175.2820  143.6830 C   0  0  1  0  0  3  0  0  0  0  0  0
  190.3880  175.1830  145.5710 C   0  0  1  0  0  3  0  0  0  0  0  0
  190.3110  169.9690  136.6480 O   0  0  0  0  0  1  0  0  0  0  0  0
  192.9330  175.6670  142.3650 C   0  0  0  0  0  1  0  0  0  0  0  0
  196.9070  171.6080  146.1520 O   0  0  0  0  0  0  0  0  0  0  0  0
  196.6980  170.1970  145.8930 C   0  0  0  0  0  2  0  0  0  0  0  0
  196.5580  169.4130  147.2170 C   0  0  0  0  0  2  0  0  0  0  0  0
  194.5360  168.5910  147.8760 O   0  0  0  0  0  1  0  0  0  0  0  0
  195.5830  168.3190  147.0150 C   0  0  1  0  0  3  0  0  0  0  0  0
  193.6210  168.3020  145.5290 O   0  0  0  0  0  1  0  0  0  0  0  0
  195.0180  168.1700  145.6110 C   0  0  0  0  0  2  0  0  0  0  0  0
  189.2930  174.4900  146.2620 N   0  0  0  0  0  2  0  0  0  0  0  0
  188.5470  175.5370  146.9500 C   0  0  0  0  0  2  0  0  0  0  0  0
  186.6340  177.1760  147.0260 C   0  0  0  0  0  1  0  0  0  0  0  0
  187.4170  176.1770  146.1880 C   0  0  0  0  0  2  0  0  0  0  0  0
  1 29  1  6  0  0  0
  1 36  1  0  0  0  0
  2 11  1  6  0  0  0
  2 32  1  0  0  0  0
  3 16  2  0  0  0  0
  4 22  2  0  0  0  0
  5 20  1  1  0  0  0
  5 26  1  0  0  0  0
  5 27  1  0  0  0  0
  6  2  1  0  0  0  0
  7 12  1  1  0  0  0
  7  3  1  0  0  0  0
  8 19  1  0  0  0  0
  8 11  1  0  0  0  0
 10 31  1  6  0  0  0
 10 20  1  0  0  0  0
 10 30  1  0  0  0  0
 12 33  1  0  0  0  0
 13 33  1  0  0  0  0
 13 23  1  1  0  0  0
 13 39  1  0  0  0  0
 14  8  2  0  0  0  0
 15 16  1  0  0  0  0
 18 15  2  0  0  0  0
 19 24  1  6  0  0  0
 22 29  1  0  0  0  0
 24  6  1  0  0  0  0
 27 25  1  6  0  0  0
 27 34  1  0  0  0  0
 28 26  1  1  0  0  0
 28  9  1  0  0  0  0
 28 19  1  0  0  0  0
 30 27  1  0  0  0  0
 30 21  2  0  0  0  0
 32 17  1  1  0  0  0
 32 13  1  0  0  0  0
 34  9  1  0  0  0  0
 34  4  2  0  0  0  0
 35 38  1  6  0  0  0
 35  1  1  0  0  0  0
 35  7  1  0  0  0  0
 36 15  1  0  0  0  0
 36 46  1  6  0  0  0
 37 10  1  0  0  0  0
 40 39  1  0  0  0  0
 40 41  1  0  0  0  0
 43 41  1  0  0  0  0
 43 42  1  1  0  0  0
 44 45  1  0  0  0  0
 45 43  1  0  0  0  0
 46 47  1  0  0  0  0
 49 47  1  0  0  0  0
 49 48  1  0  0  0  0
M  END
>  <MODEL>
2

>  <REMARK>
 VINA RESULT:      -6.8      3.349      7.691
  Name = 
  8 active torsions:
  status: ('A' for Active; 'I' for Inactive)
    1  A    between atoms: C_15  and  O_19
    2  A    between atoms: O_19  and  C_30
    3  A    between atoms: C_20  and  C_44
    4  A    between atoms: C_21  and  C_30
    5  A    between atoms: C_21  and  C_37
    6  A    between atoms: N_24  and  C_44
    7  A    between atoms: N_24  and  C_47
    8  A    between atoms: C_37  and  C_39
                            x       y       z     vdW  Elec       q    Type
                         _______ _______ _______ _____ _____    ______ ____

>  <TORSDO>
F 8

$$$$
=
 OpenBabel11062420253D

 49 53  0  0  1  0  0  0  0  0999 V2000
  194.0660  175.7190  142.9320 C   0  0  1  0  0  3  0  0  0  0  0  0
  191.3290  170.8700  142.3210 C   0  0  2  0  0  3  0  0  0  0  0  0
  195.6440  173.1120  141.9160 C   0  0  0  0  0  3  0  0  0  0  0  0
  190.9550  176.8930  143.4840 C   0  0  0  0  0  0  0  0  0  0  0  0
  187.6190  176.4090  141.5990 C   0  0  2  0  0  3  0  0  0  0  0  0
  190.6880  171.4960  143.4720 C   0  0  0  0  0  2  0  0  0  0  0  0
  194.1530  173.4000  142.1940 C   0  0  1  0  0  3  0  0  0  0  0  0
  189.5950  172.0310  140.7880 C   0  0  0  0  0  0  0  0  0  0  0  0
  189.3550  175.0350  143.2070 C   0  0  0  0  0  2  0  0  0  0  0  0
  186.1440  177.0030  143.5210 C   0  0  1  0  0  0  0  0  0  0  0  0
  190.2180  170.6230  141.3320 C   0  0  0  0  0  2  0  0  0  0  0  0
  193.6430  173.0840  143.6600 C   0  0  0  0  0  2  0  0  0  0  0  0
  193.5710  169.9400  143.5470 C   0  0  2  0  0  0  0  0  0  0  0  0
  188.8160  172.1480  139.7740 C   0  0  0  0  0  2  0  0  0  0  0  0
  196.4750  175.5670  142.0690 C   0  0  0  0  0  0  0  0  0  0  0  0
  196.7980  174.1560  141.8040 C   0  0  0  0  0  3  0  0  0  0  0  0
  192.4520  168.7750  141.8480 O   0  0  0  0  0  1  0  0  0  0  0  0
  196.5050  176.3180  140.9640 C   0  0  0  0  0  2  0  0  0  0  0  0
  189.8920  173.2210  141.7760 C   0  0  2  0  0  3  0  0  0  0  0  0
  186.3500  175.9200  142.4810 C   0  0  0  0  0  2  0  0  0  0  0  0
  188.0230  177.3310  144.9550 O   0  0  0  0  0  0  0  0  0  0  0  0
  192.1980  177.1620  143.8470 C   0  0  0  0  0  3  0  0  0  0  0  0
  194.6010  170.0660  142.5200 O   0  0  0  0  0  1  0  0  0  0  0  0
  190.4890  172.8620  142.9620 C   0  0  0  0  0  2  0  0  0  0  0  0
  188.4600  178.7000  142.2280 C   0  0  0  0  0  1  0  0  0  0  0  0
  188.3630  175.2240  140.8980 C   0  0  0  0  0  2  0  0  0  0  0  0
  188.5660  177.2520  142.5890 C   0  0  1  0  0  0  0  0  0  0  0  0
  189.1800  174.4320  141.8950 N   0  0  2  0  0  0  0  0  0  0  0  0
  193.3300  177.0840  142.9070 C   0  0  0  0  0  2  0  0  0  0  0  0
  187.5670  177.3470  143.7590 C   0  0  0  0  0  0  0  0  0  0  0  0
  185.0360  177.5010  142.6060 C   0  0  0  0  0  1  0  0  0  0  0  0
  192.1590  169.6820  142.8170 C   0  0  2  0  0  3  0  0  0  0  0  0
  193.6720  171.4870  144.6300 S   0  0  0  0  0  0  0  0  0  0  0  0
  189.7680  176.4480  142.9950 C   0  0  0  0  0  0  0  0  0  0  0  0
  193.6750  174.7050  141.7970 C   0  0  1  0  0  3  0  0  0  0  0  0
  195.5830  175.8820  143.1460 C   0  0  1  0  0  3  0  0  0  0  0  0
  185.4140  176.7430  144.7780 O   0  0  0  0  0  1  0  0  0  0  0  0
  192.5340  174.4610  140.7640 C   0  0  0  0  0  1  0  0  0  0  0  0
  193.8640  168.6970  144.1720 O   0  0  0  0  0  0  0  0  0  0  0  0
  194.4210  168.9250  145.4920 C   0  0  0  0  0  2  0  0  0  0  0  0
  195.8690  168.3940  145.5740 C   0  0  0  0  0  2  0  0  0  0  0  0
  197.7200  168.6100  146.8870 O   0  0  0  0  0  1  0  0  0  0  0  0
  196.6780  169.3500  146.3620 C   0  0  1  0  0  3  0  0  0  0  0  0
  196.9000  171.7870  146.0920 O   0  0  0  0  0  1  0  0  0  0  0  0
  197.2680  170.5240  145.5960 C   0  0  0  0  0  2  0  0  0  0  0  0
  196.0770  176.5310  144.3680 N   0  0  0  0  0  2  0  0  0  0  0  0
  195.6480  175.6690  145.4630 C   0  0  0  0  0  2  0  0  0  0  0  0
  193.4250  175.3090  146.5940 C   0  0  0  0  0  1  0  0  0  0  0  0
  194.6180  176.2330  146.4050 C   0  0  0  0  0  2  0  0  0  0  0  0
  1 29  1  6  0  0  0
  1 36  1  0  0  0  0
  2 11  1  6  0  0  0
  2 32  1  0  0  0  0
  2  6  1  0  0  0  0
  4 22  2  0  0  0  0
  5 26  1  1  0  0  0
  5 20  1  0  0  0  0
  5 27  1  0  0  0  0
  7  3  1  1  0  0  0
  7 12  1  0  0  0  0
  8 11  1  0  0  0  0
  8 19  1  0  0  0  0
 10 31  1  6  0  0  0
 10 30  1  0  0  0  0
 10 37  1  0  0  0  0
 12 33  1  0  0  0  0
 13 23  1  6  0  0  0
 13 39  1  0  0  0  0
 13 33  1  0  0  0  0
 14  8  2  0  0  0  0
 15 36  1  0  0  0  0
 16  3  2  0  0  0  0
 16 15  1  0  0  0  0
 18 15  2  0  0  0  0
 19 28  1  0  0  0  0
 19 24  1  1  0  0  0
 20 10  1  0  0  0  0
 24  6  1  0  0  0  0
 27 25  1  6  0  0  0
 27 34  1  0  0  0  0
 27 30  1  0  0  0  0
 28 26  1  6  0  0  0
 28  9  1  0  0  0  0
 29 22  1  0  0  0  0
 30 21  2  0  0  0  0
 32 17  1  6  0  0  0
 32 13  1  0  0  0  0
 34  9  1  0  0  0  0
 34  4  2  0  0  0  0
 35 38  1  1  0  0  0
 35  7  1  0  0  0  0
 35  1  1  0  0  0  0
 36 46  1  6  0  0  0
 39 40  1  0  0  0  0
 40 41  1  0  0  0  0
 41 43  1  0  0  0  0
 43 42  1  6  0  0  0
 45 44  1  0  0  0  0
 45 43  1  0  0  0  0
 46 47  1  0  0  0  0
 47 49  1  0  0  0  0
 49 48  1  0  0  0  0
M  END
>  <MODEL>
3

>  <REMARK>
 VINA RESULT:      -6.6      3.004      6.055
  Name = 
  8 active torsions:
  status: ('A' for Active; 'I' for Inactive)
    1  A    between atoms: C_15  and  O_19
    2  A    between atoms: O_19  and  C_30
    3  A    between atoms: C_20  and  C_44
    4  A    between atoms: C_21  and  C_30
    5  A    between atoms: C_21  and  C_37
    6  A    between atoms: N_24  and  C_44
    7  A    between atoms: N_24  and  C_47
    8  A    between atoms: C_37  and  C_39
                            x       y       z     vdW  Elec       q    Type
                         _______ _______ _______ _____ _____    ______ ____

>  <TORSDO>
F 8

$$$$
=
 OpenBabel11062420253D

 49 53  0  0  1  0  0  0  0  0999 V2000
  192.5260  174.8550  144.6530 C   0  0  1  0  0  3  0  0  0  0  0  0
  188.9080  173.7720  140.5170 C   0  0  2  0  0  3  0  0  0  0  0  0
  193.6180  173.9160  141.7820 C   0  0  0  0  0  3  0  0  0  0  0  0
  189.7360  175.9220  146.2140 C   0  0  0  0  0  0  0  0  0  0  0  0
  186.8430  178.2210  145.0890 C   0  0  2  0  0  3  0  0  0  0  0  0
  188.2100  173.3360  141.7210 C   0  0  0  0  0  2  0  0  0  0  0  0
  192.2130  174.2800  142.3080 C   0  0  1  0  0  3  0  0  0  0  0  0
  187.8520  176.1170  140.8130 C   0  0  0  0  0  0  0  0  0  0  0  0
  187.8350  175.7070  144.6560 C   0  0  0  0  0  2  0  0  0  0  0  0
  185.1870  177.3920  146.7600 C   0  0  1  0  0  0  0  0  0  0  0  0
  187.9990  174.7890  139.8740 C   0  0  0  0  0  2  0  0  0  0  0  0
  191.3520  173.0820  142.8840 C   0  0  0  0  0  2  0  0  0  0  0  0
  190.5640  171.6380  140.2010 C   0  0  2  0  0  0  0  0  0  0  0  0
  187.3500  177.2350  140.4320 C   0  0  0  0  0  2  0  0  0  0  0  0
  194.9560  174.7590  143.8410 C   0  0  0  0  0  0  0  0  0  0  0  0
  194.9840  174.1790  142.4900 C   0  0  0  0  0  3  0  0  0  0  0  0
  189.5770  172.7800  138.4080 O   0  0  0  0  0  1  0  0  0  0  0  0
  195.3900  176.0220  143.8670 C   0  0  0  0  0  2  0  0  0  0  0  0
  188.2120  175.8130  142.3150 C   0  0  2  0  0  3  0  0  0  0  0  0
  185.3410  177.6400  145.2730 C   0  0  0  0  0  2  0  0  0  0  0  0
  186.7520  175.8210  147.6410 O   0  0  0  0  0  0  0  0  0  0  0  0
  190.9050  175.3860  146.5230 C   0  0  0  0  0  3  0  0  0  0  0  0
  191.7840  172.2270  139.6570 O   0  0  0  0  0  1  0  0  0  0  0  0
  188.4480  174.4890  142.6050 C   0  0  0  0  0  2  0  0  0  0  0  0
  188.0530  178.5900  147.2690 C   0  0  0  0  0  1  0  0  0  0  0  0
  187.4140  177.9810  143.6520 C   0  0  0  0  0  2  0  0  0  0  0  0
  187.7380  177.5470  146.2450 C   0  0  1  0  0  0  0  0  0  0  0  0
  187.7970  176.5300  143.4570 N   0  0  2  0  0  0  0  0  0  0  0  0
  192.1560  175.7730  145.8470 C   0  0  0  0  0  2  0  0  0  0  0  0
  186.5700  176.9410  147.0480 C   0  0  0  0  0  0  0  0  0  0  0  0
  184.4410  178.7180  146.7810 C   0  0  0  0  0  1  0  0  0  0  0  0
  189.3130  172.5290  139.7170 C   0  0  2  0  0  3  0  0  0  0  0  0
  190.8010  171.4920  142.0720 S   0  0  0  0  0  0  0  0  0  0  0  0
  188.6050  176.4570  145.6840 C   0  0  0  0  0  0  0  0  0  0  0  0
  192.1490  175.3950  143.2260 C   0  0  1  0  0  3  0  0  0  0  0  0
  193.9610  174.3050  144.7680 C   0  0  1  0  0  3  0  0  0  0  0  0
  184.1720  176.4580  147.2900 O   0  0  0  0  0  1  0  0  0  0  0  0
  191.2220  176.4580  142.5650 C   0  0  0  0  0  1  0  0  0  0  0  0
  190.4200  170.4240  139.4750 O   0  0  0  0  0  0  0  0  0  0  0  0
  191.6250  170.1540  138.7150 C   0  0  0  0  0  2  0  0  0  0  0  0
  191.3140  169.2540  137.4980 C   0  0  0  0  0  2  0  0  0  0  0  0
  190.0650  170.5240  136.0750 O   0  0  0  0  0  1  0  0  0  0  0  0
  191.3610  170.0840  136.2750 C   0  0  1  0  0  3  0  0  0  0  0  0
  191.6980  172.4790  135.8150 O   0  0  0  0  0  1  0  0  0  0  0  0
  192.2730  171.3000  136.3200 C   0  0  0  0  0  2  0  0  0  0  0  0
  194.3310  173.4830  145.9280 N   0  0  0  0  0  2  0  0  0  0  0  0
  194.2320  172.1030  145.4700 C   0  0  0  0  0  2  0  0  0  0  0  0
  196.7150  172.0930  145.9030 C   0  0  0  0  0  1  0  0  0  0  0  0
  195.5230  171.3390  145.3340 C   0  0  0  0  0  2  0  0  0  0  0  0
  1 36  1  0  0  0  0
  1 29  1  1  0  0  0
  2 11  1  6  0  0  0
  2  6  1  0  0  0  0
  3 16  2  0  0  0  0
  4 22  2  0  0  0  0
  5 26  1  6  0  0  0
  5 20  1  0  0  0  0
  5 27  1  0  0  0  0
  6 24  1  0  0  0  0
  7  3  1  1  0  0  0
  7 12  1  0  0  0  0
  7 35  1  0  0  0  0
  8 19  1  0  0  0  0
  9 34  1  0  0  0  0
 10 31  1  1  0  0  0
 10 30  1  0  0  0  0
 10 37  1  0  0  0  0
 11  8  1  0  0  0  0
 13 23  1  6  0  0  0
 13 33  1  0  0  0  0
 14  8  2  0  0  0  0
 15 18  2  0  0  0  0
 15 36  1  0  0  0  0
 16 15  1  0  0  0  0
 19 24  1  1  0  0  0
 19 28  1  0  0  0  0
 20 10  1  0  0  0  0
 27 30  1  0  0  0  0
 27 25  1  1  0  0  0
 28 26  1  1  0  0  0
 28  9  1  0  0  0  0
 29 22  1  0  0  0  0
 30 21  2  0  0  0  0
 32 17  1  6  0  0  0
 32 13  1  0  0  0  0
 32  2  1  0  0  0  0
 33 12  1  0  0  0  0
 34  4  2  0  0  0  0
 34 27  1  0  0  0  0
 35 38  1  1  0  0  0
 35  1  1  0  0  0  0
 36 46  1  1  0  0  0
 39 13  1  0  0  0  0
 40 39  1  0  0  0  0
 41 40  1  0  0  0  0
 43 42  1  1  0  0  0
 43 45  1  0  0  0  0
 43 41  1  0  0  0  0
 44 45  1  0  0  0  0
 47 46  1  0  0  0  0
 49 47  1  0  0  0  0
 49 48  1  0  0  0  0
M  END
>  <MODEL>
4

>  <REMARK>
 VINA RESULT:      -6.5      3.295      6.002
  Name = 
  8 active torsions:
  status: ('A' for Active; 'I' for Inactive)
    1  A    between atoms: C_15  and  O_19
    2  A    between atoms: O_19  and  C_30
    3  A    between atoms: C_20  and  C_44
    4  A    between atoms: C_21  and  C_30
    5  A    between atoms: C_21  and  C_37
    6  A    between atoms: N_24  and  C_44
    7  A    between atoms: N_24  and  C_47
    8  A    between atoms: C_37  and  C_39
                            x       y       z     vdW  Elec       q    Type
                         _______ _______ _______ _____ _____    ______ ____

>  <TORSDO>
F 8

$$$$
=
 OpenBabel11062420253D

 49 53  0  0  1  0  0  0  0  0999 V2000
  192.5440  174.9690  144.6560 C   0  0  1  0  0  3  0  0  0  0  0  0
  188.9000  173.9450  140.5270 C   0  0  2  0  0  3  0  0  0  0  0  0
  193.6200  174.1200  141.7510 C   0  0  0  0  0  3  0  0  0  0  0  0
  189.7550  175.9570  146.2700 C   0  0  0  0  0  0  0  0  0  0  0  0
  186.8210  178.2450  145.2340 C   0  0  2  0  0  3  0  0  0  0  0  0
  188.2200  173.4690  141.7270 C   0  0  0  0  0  2  0  0  0  0  0  0
  192.2150  174.4510  142.3000 C   0  0  1  0  0  3  0  0  0  0  0  0
  187.8160  176.2670  140.8940 C   0  0  0  0  0  0  0  0  0  0  0  0
  187.8410  175.7570  144.7250 C   0  0  0  0  0  2  0  0  0  0  0  0
  185.1920  177.3500  146.8980 C   0  0  1  0  0  0  0  0  0  0  0  0
  187.9710  174.9660  139.9200 C   0  0  0  0  0  2  0  0  0  0  0  0
  191.3760  173.2270  142.8530 C   0  0  0  0  0  2  0  0  0  0  0  0
  190.5800  171.8420  140.1400 C   0  0  2  0  0  0  0  0  0  0  0  0
  187.2950  177.3880  140.5480 C   0  0  0  0  0  2  0  0  0  0  0  0
  194.9660  174.9260  143.8190 C   0  0  0  0  0  0  0  0  0  0  0  0
  194.9890  174.3820  142.4530 C   0  0  0  0  0  3  0  0  0  0  0  0
  189.5610  173.0180  138.3870 O   0  0  0  0  0  1  0  0  0  0  0  0
  195.3840  176.1950  143.8740 C   0  0  0  0  0  2  0  0  0  0  0  0
  188.1940  175.9290  142.3850 C   0  0  2  0  0  3  0  0  0  0  0  0
  185.3280  177.6400  145.4170 C   0  0  0  0  0  2  0  0  0  0  0  0
  186.7870  175.7790  147.7230 O   0  0  0  0  0  0  0  0  0  0  0  0
  190.9340  175.4290  146.5550 C   0  0  0  0  0  3  0  0  0  0  0  0
  191.7870  172.4620  139.6010 O   0  0  0  0  0  1  0  0  0  0  0  0
  188.4510  174.6010  142.6380 C   0  0  0  0  0  2  0  0  0  0  0  0
  188.0470  178.5740  147.4110 C   0  0  0  0  0  1  0  0  0  0  0  0
  187.3810  178.0500  143.7860 C   0  0  0  0  0  2  0  0  0  0  0  0
  187.7360  177.5530  146.3630 C   0  0  1  0  0  0  0  0  0  0  0  0
  187.7810  176.6110  143.5490 N   0  0  2  0  0  0  0  0  0  0  0  0
  192.1730  175.8510  145.8770 C   0  0  0  0  0  2  0  0  0  0  0  0
  186.5840  176.9110  147.1610 C   0  0  0  0  0  0  0  0  0  0  0  0
  184.4300  178.6650  146.9600 C   0  0  0  0  0  1  0  0  0  0  0  0
  189.3130  172.7290  139.6920 C   0  0  2  0  0  3  0  0  0  0  0  0
  190.8380  171.6510  142.0040 S   0  0  0  0  0  0  0  0  0  0  0  0
  188.6120  176.4900  145.7650 C   0  0  0  0  0  0  0  0  0  0  0  0
  192.1460  175.5400  143.2480 C   0  0  1  0  0  3  0  0  0  0  0  0
  193.9870  174.4350  144.7430 C   0  0  1  0  0  3  0  0  0  0  0  0
  184.1950  176.3900  147.4120 O   0  0  0  0  0  1  0  0  0  0  0  0
  191.1980  176.6080  142.6230 C   0  0  0  0  0  1  0  0  0  0  0  0
  190.4460  170.6460  139.3840 O   0  0  0  0  0  0  0  0  0  0  0  0
  191.7530  170.1550  138.9950 C   0  0  0  0  0  2  0  0  0  0  0  0
  191.9230  168.6720  139.3970 C   0  0  0  0  0  2  0  0  0  0  0  0
  193.5770  169.8380  140.4460 O   0  0  0  0  0  1  0  0  0  0  0  0
  193.0170  168.5760  140.3870 C   0  0  1  0  0  3  0  0  0  0  0  0
  191.2310  168.1800  142.0350 O   0  0  0  0  0  1  0  0  0  0  0  0
  192.6160  168.1680  141.7970 C   0  0  0  0  0  2  0  0  0  0  0  0
  194.3790  173.5890  145.8780 N   0  0  0  0  0  2  0  0  0  0  0  0
  194.3010  172.2200  145.3820 C   0  0  0  0  0  2  0  0  0  0  0  0
  196.7990  172.1830  145.7120 C   0  0  0  0  0  1  0  0  0  0  0  0
  195.5270  171.3640  145.5600 C   0  0  0  0  0  2  0  0  0  0  0  0
  1 36  1  0  0  0  0
  1 29  1  1  0  0  0
  2 11  1  6  0  0  0
  2  6  1  0  0  0  0
  3 16  2  0  0  0  0
  4 22  2  0  0  0  0
  5 26  1  6  0  0  0
  5 20  1  0  0  0  0
  5 27  1  0  0  0  0
  6 24  1  0  0  0  0
  7  3  1  1  0  0  0
  7 12  1  0  0  0  0
  7 35  1  0  0  0  0
  8 19  1  0  0  0  0
  9 34  1  0  0  0  0
 10 31  1  1  0  0  0
 10 30  1  0  0  0  0
 10 37  1  0  0  0  0
 11  8  1  0  0  0  0
 13 23  1  6  0  0  0
 13 33  1  0  0  0  0
 14  8  2  0  0  0  0
 15 18  2  0  0  0  0
 15 36  1  0  0  0  0
 16 15  1  0  0  0  0
 19 24  1  1  0  0  0
 19 28  1  0  0  0  0
 20 10  1  0  0  0  0
 27 30  1  0  0  0  0
 27 25  1  1  0  0  0
 28 26  1  1  0  0  0
 28  9  1  0  0  0  0
 29 22  1  0  0  0  0
 30 21  2  0  0  0  0
 32 17  1  6  0  0  0
 32 13  1  0  0  0  0
 32  2  1  0  0  0  0
 33 12  1  0  0  0  0
 34  4  2  0  0  0  0
 34 27  1  0  0  0  0
 35 38  1  1  0  0  0
 35  1  1  0  0  0  0
 36 46  1  1  0  0  0
 39 13  1  0  0  0  0
 40 39  1  0  0  0  0
 40 41  1  0  0  0  0
 41 43  1  0  0  0  0
 43 42  1  1  0  0  0
 43 45  1  0  0  0  0
 45 44  1  0  0  0  0
 47 49  1  0  0  0  0
 47 46  1  0  0  0  0
 49 48  1  0  0  0  0
M  END
>  <MODEL>
5

>  <REMARK>
 VINA RESULT:      -6.4      3.177      6.030
  Name = 
  8 active torsions:
  status: ('A' for Active; 'I' for Inactive)
    1  A    between atoms: C_15  and  O_19
    2  A    between atoms: O_19  and  C_30
    3  A    between atoms: C_20  and  C_44
    4  A    between atoms: C_21  and  C_30
    5  A    between atoms: C_21  and  C_37
    6  A    between atoms: N_24  and  C_44
    7  A    between atoms: N_24  and  C_47
    8  A    between atoms: C_37  and  C_39
                            x       y       z     vdW  Elec       q    Type
                         _______ _______ _______ _____ _____    ______ ____

>  <TORSDO>
F 8

$$$$
=
 OpenBabel11062420253D

 49 53  0  0  1  0  0  0  0  0999 V2000
  191.2690  171.2170  139.9780 C   0  0  1  0  0  3  0  0  0  0  0  0
  190.5430  175.1590  143.8900 C   0  0  2  0  0  3  0  0  0  0  0  0
  189.9420  174.0330  139.1810 C   0  0  0  0  0  3  0  0  0  0  0  0
  192.9260  169.6740  142.4740 C   0  0  0  0  0  0  0  0  0  0  0  0
  195.6120  170.9020  144.9630 C   0  0  2  0  0  3  0  0  0  0  0  0
  190.3280  173.9060  144.6050 C   0  0  0  0  0  2  0  0  0  0  0  0
  190.5880  173.5000  140.4790 C   0  0  1  0  0  3  0  0  0  0  0  0
  193.0530  175.0230  144.5070 C   0  0  0  0  0  0  0  0  0  0  0  0
  192.9370  171.1610  144.4440 C   0  0  0  0  0  2  0  0  0  0  0  0
  195.2150  169.1280  146.6710 C   0  0  1  0  0  0  0  0  0  0  0  0
  191.6550  175.8560  144.6320 C   0  0  0  0  0  2  0  0  0  0  0  0
  189.6070  172.8090  141.5120 C   0  0  0  0  0  2  0  0  0  0  0  0
  188.1320  175.3470  142.6470 C   0  0  2  0  0  0  0  0  0  0  0  0
  194.2120  175.4780  144.8210 C   0  0  0  0  0  2  0  0  0  0  0  0
  190.6840  172.0820  137.6360 C   0  0  0  0  0  0  0  0  0  0  0  0
  190.0100  173.3830  137.7630 C   0  0  0  0  0  3  0  0  0  0  0  0
  189.2960  177.1990  143.4890 O   0  0  0  0  0  1  0  0  0  0  0  0
  191.8480  172.1680  136.9870 C   0  0  0  0  0  2  0  0  0  0  0  0
  192.8020  173.5110  144.1470 C   0  0  2  0  0  3  0  0  0  0  0  0
  195.3230  170.6340  146.5350 C   0  0  0  0  0  2  0  0  0  0  0  0
  193.4610  168.1660  145.3710 O   0  0  0  0  0  0  0  0  0  0  0  0
  192.2150  169.3540  141.4060 C   0  0  0  0  0  3  0  0  0  0  0  0
  188.4540  175.9670  141.3650 O   0  0  0  0  0  1  0  0  0  0  0  0
  191.4820  173.1230  144.1340 C   0  0  0  0  0  2  0  0  0  0  0  0
  195.9210  168.7910  143.6210 C   0  0  0  0  0  1  0  0  0  0  0  0
  195.1690  172.3300  144.4990 C   0  0  0  0  0  2  0  0  0  0  0  0
  194.8770  169.7210  144.1550 C   0  0  1  0  0  0  0  0  0  0  0  0
  193.6640  172.4190  144.3840 N   0  0  2  0  0  0  0  0  0  0  0  0
  192.3230  170.0910  140.1340 C   0  0  0  0  0  2  0  0  0  0  0  0
  194.5480  168.8420  145.3780 C   0  0  0  0  0  0  0  0  0  0  0  0
  196.6500  169.1940  147.1710 C   0  0  0  0  0  1  0  0  0  0  0  0
  189.1930  175.8670  143.7410 C   0  0  2  0  0  3  0  0  0  0  0  0
  188.0840  173.4780  142.3650 S   0  0  0  0  0  0  0  0  0  0  0  0
  193.6120  170.2150  143.5140 C   0  0  0  0  0  0  0  0  0  0  0  0
  191.7600  172.6720  140.3100 C   0  0  1  0  0  3  0  0  0  0  0  0
  190.4830  171.0960  138.6570 C   0  0  1  0  0  3  0  0  0  0  0  0
  194.5180  168.5000  147.8110 O   0  0  0  0  0  1  0  0  0  0  0  0
  192.9200  173.3910  141.0630 C   0  0  0  0  0  1  0  0  0  0  0  0
  186.9130  175.9700  143.0300 O   0  0  0  0  0  0  0  0  0  0  0  0
  186.3930  176.7610  141.9310 C   0  0  0  0  0  2  0  0  0  0  0  0
  186.4360  178.2670  142.2730 C   0  0  0  0  0  2  0  0  0  0  0  0
  184.2070  177.7980  142.1840 O   0  0  0  0  0  1  0  0  0  0  0  0
  185.1030  178.6770  142.7640 C   0  0  1  0  0  3  0  0  0  0  0  0
  186.0880  178.6170  145.0200 O   0  0  0  0  0  1  0  0  0  0  0  0
  184.8980  178.6360  144.2710 C   0  0  0  0  0  2  0  0  0  0  0  0
  189.6960  169.8850  138.3910 N   0  0  0  0  0  2  0  0  0  0  0  0
  190.2250  169.3480  137.1430 C   0  0  0  0  0  2  0  0  0  0  0  0
  192.5500  168.4690  136.7280 C   0  0  0  0  0  1  0  0  0  0  0  0
  191.1540  168.1680  137.2520 C   0  0  0  0  0  2  0  0  0  0  0  0
  1 29  1  6  0  0  0
  1 35  1  0  0  0  0
  2  6  1  1  0  0  0
  2 11  1  0  0  0  0
  4 34  2  0  0  0  0
  5 26  1  6  0  0  0
  5 20  1  0  0  0  0
  7  3  1  6  0  0  0
  7 12  1  0  0  0  0
  8 11  1  0  0  0  0
  8 14  2  0  0  0  0
 10 31  1  6  0  0  0
 10 37  1  0  0  0  0
 12 33  1  0  0  0  0
 13 23  1  6  0  0  0
 13 39  1  0  0  0  0
 13 32  1  0  0  0  0
 15 16  1  0  0  0  0
 15 36  1  0  0  0  0
 16  3  2  0  0  0  0
 18 15  2  0  0  0  0
 19 24  1  1  0  0  0
 19 28  1  0  0  0  0
 19  8  1  0  0  0  0
 20 10  1  0  0  0  0
 21 30  2  0  0  0  0
 22  4  2  0  0  0  0
 24  6  1  0  0  0  0
 27 25  1  6  0  0  0
 27  5  1  0  0  0  0
 27 30  1  0  0  0  0
 28  9  1  6  0  0  0
 28 26  1  0  0  0  0
 29 22  1  0  0  0  0
 30 10  1  0  0  0  0
 32 17  1  6  0  0  0
 32  2  1  0  0  0  0
 33 13  1  0  0  0  0
 34 27  1  0  0  0  0
 34  9  1  0  0  0  0
 35  7  1  0  0  0  0
 35 38  1  1  0  0  0
 36 46  1  6  0  0  0
 36  1  1  0  0  0  0
 40 41  1  0  0  0  0
 40 39  1  0  0  0  0
 41 43  1  0  0  0  0
 43 42  1  6  0  0  0
 43 45  1  0  0  0  0
 45 44  1  0  0  0  0
 47 49  1  0  0  0  0
 47 46  1  0  0  0  0
 48 49  1  0  0  0  0
M  END
>  <MODEL>
6

>  <REMARK>
 VINA RESULT:      -6.2      3.505      8.482
  Name = 
  8 active torsions:
  status: ('A' for Active; 'I' for Inactive)
    1  A    between atoms: C_15  and  O_19
    2  A    between atoms: O_19  and  C_30
    3  A    between atoms: C_20  and  C_44
    4  A    between atoms: C_21  and  C_30
    5  A    between atoms: C_21  and  C_37
    6  A    between atoms: N_24  and  C_44
    7  A    between atoms: N_24  and  C_47
    8  A    between atoms: C_37  and  C_39
                            x       y       z     vdW  Elec       q    Type
                         _______ _______ _______ _____ _____    ______ ____

>  <TORSDO>
F 8

$$$$
=
 OpenBabel11062420253D

 49 53  0  0  1  0  0  0  0  0999 V2000
  195.9370  171.2700  143.0300 C   0  0  1  0  0  3  0  0  0  0  0  0
  190.8510  173.0540  141.5090 C   0  0  2  0  0  3  0  0  0  0  0  0
  193.3430  170.2420  144.6210 C   0  0  0  0  0  3  0  0  0  0  0  0
  196.8610  172.9110  140.2350 C   0  0  0  0  0  0  0  0  0  0  0  0
  195.4570  172.9180  136.6370 C   0  0  2  0  0  3  0  0  0  0  0  0
  191.7170  174.2030  141.2660 C   0  0  0  0  0  2  0  0  0  0  0  0
  193.5300  171.1010  143.3520 C   0  0  1  0  0  3  0  0  0  0  0  0
  191.2920  172.2720  139.0810 C   0  0  0  0  0  0  0  0  0  0  0  0
  194.8360  173.8110  139.1480 C   0  0  0  0  0  2  0  0  0  0  0  0
  196.4300  175.1190  135.9820 C   0  0  1  0  0  0  0  0  0  0  0  0
  190.1930  172.7640  140.1830 C   0  0  0  0  0  2  0  0  0  0  0  0
  193.6140  172.6670  143.5750 C   0  0  0  0  0  2  0  0  0  0  0  0
  190.5930  173.2890  144.2050 C   0  0  2  0  0  0  0  0  0  0  0  0
  191.0100  171.7290  137.9520 C   0  0  0  0  0  2  0  0  0  0  0  0
  195.8080  169.4570  144.8380 C   0  0  0  0  0  0  0  0  0  0  0  0
  194.4300  169.3890  145.3470 C   0  0  0  0  0  3  0  0  0  0  0  0
  188.8520  172.5910  142.8000 O   0  0  0  0  0  1  0  0  0  0  0  0
  196.1910  168.3270  144.2370 C   0  0  0  0  0  2  0  0  0  0  0  0
  192.7490  172.7270  139.4650 C   0  0  2  0  0  3  0  0  0  0  0  0
  195.1150  174.3660  135.9930 C   0  0  0  0  0  2  0  0  0  0  0  0
  197.3840  175.4250  138.1470 O   0  0  0  0  0  0  0  0  0  0  0  0
  197.3670  172.5970  141.4160 C   0  0  0  0  0  3  0  0  0  0  0  0
  190.5210  171.9050  144.6650 O   0  0  0  0  0  1  0  0  0  0  0  0
  192.8340  173.5560  140.5600 C   0  0  0  0  0  2  0  0  0  0  0  0
  197.9110  172.5750  137.0960 C   0  0  0  0  0  1  0  0  0  0  0  0
  194.2090  172.2320  137.2860 C   0  0  0  0  0  2  0  0  0  0  0  0
  196.6610  173.1540  137.6790 C   0  0  1  0  0  0  0  0  0  0  0  0
  193.8520  172.8910  138.6000 N   0  0  2  0  0  0  0  0  0  0  0  0
  197.1390  171.2860  142.0490 C   0  0  0  0  0  2  0  0  0  0  0  0
  196.9880  174.5990  137.2530 C   0  0  0  0  0  0  0  0  0  0  0  0
  196.5000  174.7280  134.5130 C   0  0  0  0  0  1  0  0  0  0  0  0
  189.9690  173.3620  142.7230 C   0  0  2  0  0  3  0  0  0  0  0  0
  192.3950  173.8390  144.3720 S   0  0  0  0  0  0  0  0  0  0  0  0
  196.1570  173.1300  139.0930 C   0  0  0  0  0  0  0  0  0  0  0  0
  194.5920  170.6920  142.4600 C   0  0  1  0  0  3  0  0  0  0  0  0
  196.3290  170.7250  144.4180 C   0  0  1  0  0  3  0  0  0  0  0  0
  196.4780  176.5940  135.9110 O   0  0  0  0  0  1  0  0  0  0  0  0
  193.9200  170.3760  141.0900 C   0  0  0  0  0  1  0  0  0  0  0  0
  189.6380  173.9660  145.0120 O   0  0  0  0  0  0  0  0  0  0  0  0
  189.9910  175.3680  145.1290 C   0  0  0  0  0  2  0  0  0  0  0  0
  188.7980  176.2670  144.7340 C   0  0  0  0  0  2  0  0  0  0  0  0
  190.1490  178.0830  145.0020 O   0  0  0  0  0  1  0  0  0  0  0  0
  189.3220  177.4810  144.0720 C   0  0  1  0  0  3  0  0  0  0  0  0
  191.4830  177.5980  142.8990 O   0  0  0  0  0  1  0  0  0  0  0  0
  190.1230  177.2610  142.7970 C   0  0  0  0  0  2  0  0  0  0  0  0
  197.3670  171.4100  145.1990 N   0  0  0  0  0  2  0  0  0  0  0  0
  196.6850  172.5180  145.8580 C   0  0  0  0  0  2  0  0  0  0  0  0
  196.5630  174.6330  144.4940 C   0  0  0  0  0  1  0  0  0  0  0  0
  197.2520  173.8940  145.6300 C   0  0  0  0  0  2  0  0  0  0  0  0
  1 29  1  6  0  0  0
  1 36  1  0  0  0  0
  2 11  1  6  0  0  0
  2 32  1  0  0  0  0
  3 16  2  0  0  0  0
  4 22  2  0  0  0  0
  5 20  1  1  0  0  0
  5 26  1  0  0  0  0
  5 27  1  0  0  0  0
  6  2  1  0  0  0  0
  7 12  1  1  0  0  0
  7  3  1  0  0  0  0
  8 19  1  0  0  0  0
  8 11  1  0  0  0  0
 10 31  1  6  0  0  0
 10 20  1  0  0  0  0
 10 30  1  0  0  0  0
 12 33  1  0  0  0  0
 13 33  1  0  0  0  0
 13 23  1  1  0  0  0
 13 39  1  0  0  0  0
 14  8  2  0  0  0  0
 15 16  1  0  0  0  0
 18 15  2  0  0  0  0
 19 24  1  6  0  0  0
 22 29  1  0  0  0  0
 24  6  1  0  0  0  0
 27 25  1  6  0  0  0
 27 34  1  0  0  0  0
 28 26  1  1  0  0  0
 28  9  1  0  0  0  0
 28 19  1  0  0  0  0
 30 27  1  0  0  0  0
 30 21  2  0  0  0  0
 32 17  1  1  0  0  0
 32 13  1  0  0  0  0
 34  9  1  0  0  0  0
 34  4  2  0  0  0  0
 35 38  1  6  0  0  0
 35  1  1  0  0  0  0
 35  7  1  0  0  0  0
 36 15  1  0  0  0  0
 36 46  1  6  0  0  0
 37 10  1  0  0  0  0
 39 40  1  0  0  0  0
 41 40  1  0  0  0  0
 43 41  1  0  0  0  0
 43 42  1  1  0  0  0
 45 44  1  0  0  0  0
 45 43  1  0  0  0  0
 46 47  1  0  0  0  0
 48 49  1  0  0  0  0
 49 47  1  0  0  0  0
M  END
>  <MODEL>
7

>  <REMARK>
 VINA RESULT:      -5.7      3.235      8.996
  Name = 
  8 active torsions:
  status: ('A' for Active; 'I' for Inactive)
    1  A    between atoms: C_15  and  O_19
    2  A    between atoms: O_19  and  C_30
    3  A    between atoms: C_20  and  C_44
    4  A    between atoms: C_21  and  C_30
    5  A    between atoms: C_21  and  C_37
    6  A    between atoms: N_24  and  C_44
    7  A    between atoms: N_24  and  C_47
    8  A    between atoms: C_37  and  C_39
                            x       y       z     vdW  Elec       q    Type
                         _______ _______ _______ _____ _____    ______ ____

>  <TORSDO>
F 8

$$$$
=
 OpenBabel11062420253D

 49 53  0  0  1  0  0  0  0  0999 V2000
  196.0740  173.7050  142.5520 C   0  0  1  0  0  3  0  0  0  0  0  0
  190.5430  173.0080  143.0840 C   0  0  2  0  0  3  0  0  0  0  0  0
  194.7140  173.8900  145.4560 C   0  0  0  0  0  3  0  0  0  0  0  0
  195.4370  172.7780  139.3750 C   0  0  0  0  0  0  0  0  0  0  0  0
  193.3750  169.8770  137.8750 C   0  0  2  0  0  3  0  0  0  0  0  0
  190.6930  173.6810  141.7990 C   0  0  0  0  0  2  0  0  0  0  0  0
  194.1740  173.5100  144.0610 C   0  0  1  0  0  3  0  0  0  0  0  0
  190.7010  170.7350  141.8550 C   0  0  0  0  0  0  0  0  0  0  0  0
  193.0320  172.2600  139.1770 C   0  0  0  0  0  2  0  0  0  0  0  0
  193.0310  170.9300  135.6400 C   0  0  1  0  0  0  0  0  0  0  0  0
  189.7980  171.7320  142.7810 C   0  0  0  0  0  2  0  0  0  0  0  0
  193.5740  174.6960  143.1980 C   0  0  0  0  0  2  0  0  0  0  0  0
  190.8580  175.1570  144.7200 C   0  0  2  0  0  0  0  0  0  0  0  0
  190.4410  169.4960  141.6390 C   0  0  0  0  0  2  0  0  0  0  0  0
  197.2340  173.8870  144.8310 C   0  0  0  0  0  0  0  0  0  0  0  0
  196.2100  174.0380  145.8760 C   0  0  0  0  0  3  0  0  0  0  0  0
  189.3580  173.4110  145.1600 O   0  0  0  0  0  1  0  0  0  0  0  0
  197.9400  172.7600  144.9620 C   0  0  0  0  0  2  0  0  0  0  0  0
  191.8270  171.5170  141.0810 C   0  0  2  0  0  3  0  0  0  0  0  0
  192.2600  170.2750  136.7680 C   0  0  0  0  0  2  0  0  0  0  0  0
  194.2230  172.8890  136.2980 O   0  0  0  0  0  0  0  0  0  0  0  0
  196.2960  173.5360  140.0360 C   0  0  0  0  0  3  0  0  0  0  0  0
  191.5460  174.6060  145.8830 O   0  0  0  0  0  1  0  0  0  0  0  0
  191.7780  172.8860  141.2010 C   0  0  0  0  0  2  0  0  0  0  0  0
  195.7390  170.3390  137.1330 C   0  0  0  0  0  1  0  0  0  0  0  0
  192.7820  169.7560  139.3180 C   0  0  0  0  0  2  0  0  0  0  0  0
  194.5430  170.9790  137.7630 C   0  0  1  0  0  0  0  0  0  0  0  0
  192.4860  171.1210  139.8980 N   0  0  2  0  0  0  0  0  0  0  0  0
  196.8590  173.1400  141.3390 C   0  0  0  0  0  2  0  0  0  0  0  0
  194.0530  171.6300  136.4550 C   0  0  0  0  0  0  0  0  0  0  0  0
  192.9220  169.5810  134.9450 C   0  0  0  0  0  1  0  0  0  0  0  0
  189.9370  174.0010  144.0820 C   0  0  2  0  0  3  0  0  0  0  0  0
  192.1830  175.8830  143.5810 S   0  0  0  0  0  0  0  0  0  0  0  0
  194.4620  171.9610  138.8960 C   0  0  0  0  0  0  0  0  0  0  0  0
  195.0570  172.7200  143.2320 C   0  0  1  0  0  3  0  0  0  0  0  0
  196.9920  174.4550  143.5380 C   0  0  1  0  0  3  0  0  0  0  0  0
  192.3740  171.8300  134.6710 O   0  0  0  0  0  1  0  0  0  0  0  0
  194.3020  171.3920  142.9240 C   0  0  0  0  0  1  0  0  0  0  0  0
  189.9220  176.0700  145.2790 O   0  0  0  0  0  0  0  0  0  0  0  0
  189.7140  177.1840  144.3750 C   0  0  0  0  0  2  0  0  0  0  0  0
  188.2060  177.4070  144.1190 C   0  0  0  0  0  2  0  0  0  0  0  0
  189.2990  177.9150  142.1850 O   0  0  0  0  0  1  0  0  0  0  0  0
  188.0260  177.8480  142.7190 C   0  0  1  0  0  3  0  0  0  0  0  0
  187.9170  175.9710  141.1310 O   0  0  0  0  0  1  0  0  0  0  0  0
  187.1850  176.9450  141.8310 C   0  0  0  0  0  2  0  0  0  0  0  0
  197.7480  175.6260  143.0750 N   0  0  0  0  0  2  0  0  0  0  0  0
  196.7440  176.6410  142.7780 C   0  0  0  0  0  2  0  0  0  0  0  0
  194.9480  176.7790  141.0160 C   0  0  0  0  0  1  0  0  0  0  0  0
  196.4340  176.8810  141.3240 C   0  0  0  0  0  2  0  0  0  0  0  0
  1 29  1  6  0  0  0
  1 35  1  0  0  0  0
  1 36  1  0  0  0  0
  2  6  1  6  0  0  0
  2 32  1  0  0  0  0
  3 16  2  0  0  0  0
  4 22  2  0  0  0  0
  5 20  1  6  0  0  0
  5 26  1  0  0  0  0
  7 12  1  6  0  0  0
  7  3  1  0  0  0  0
  8 11  1  0  0  0  0
 10 31  1  6  0  0  0
 10 30  1  0  0  0  0
 10 20  1  0  0  0  0
 11  2  1  0  0  0  0
 12 33  1  0  0  0  0
 13 39  1  0  0  0  0
 13 23  1  1  0  0  0
 14  8  2  0  0  0  0
 15 18  2  0  0  0  0
 15 16  1  0  0  0  0
 19 24  1  6  0  0  0
 19  8  1  0  0  0  0
 21 30  2  0  0  0  0
 22 29  1  0  0  0  0
 24  6  1  0  0  0  0
 26 28  1  0  0  0  0
 27 25  1  6  0  0  0
 27  5  1  0  0  0  0
 27 34  1  0  0  0  0
 28  9  1  1  0  0  0
 28 19  1  0  0  0  0
 30 27  1  0  0  0  0
 32 13  1  0  0  0  0
 32 17  1  1  0  0  0
 33 13  1  0  0  0  0
 34  9  1  0  0  0  0
 34  4  2  0  0  0  0
 35 38  1  6  0  0  0
 35  7  1  0  0  0  0
 36 46  1  6  0  0  0
 36 15  1  0  0  0  0
 37 10  1  0  0  0  0
 40 39  1  0  0  0  0
 41 40  1  0  0  0  0
 43 42  1  6  0  0  0
 43 41  1  0  0  0  0
 44 45  1  0  0  0  0
 45 43  1  0  0  0  0
 47 46  1  0  0  0  0
 48 49  1  0  0  0  0
 49 47  1  0  0  0  0
M  END
>  <MODEL>
8

>  <REMARK>
 VINA RESULT:      -5.7      2.890      8.685
  Name = 
  8 active torsions:
  status: ('A' for Active; 'I' for Inactive)
    1  A    between atoms: C_15  and  O_19
    2  A    between atoms: O_19  and  C_30
    3  A    between atoms: C_20  and  C_44
    4  A    between atoms: C_21  and  C_30
    5  A    between atoms: C_21  and  C_37
    6  A    between atoms: N_24  and  C_44
    7  A    between atoms: N_24  and  C_47
    8  A    between atoms: C_37  and  C_39
                            x       y       z     vdW  Elec       q    Type
                         _______ _______ _______ _____ _____    ______ ____

>  <TORSDO>
F 8

$$$$
=
 OpenBabel11062420253D

 49 53  0  0  1  0  0  0  0  0999 V2000
  191.8840  171.5310  140.4400 C   0  0  1  0  0  3  0  0  0  0  0  0
  195.9160  175.4000  140.8190 C   0  0  2  0  0  3  0  0  0  0  0  0
  194.6610  171.1000  138.8840 C   0  0  0  0  0  3  0  0  0  0  0  0
  190.4260  173.4620  142.7850 C   0  0  0  0  0  0  0  0  0  0  0  0
  191.7500  175.0250  146.0600 C   0  0  2  0  0  3  0  0  0  0  0  0
  194.6790  176.1730  140.8470 C   0  0  0  0  0  2  0  0  0  0  0  0
  194.1710  172.1620  139.8920 C   0  0  1  0  0  3  0  0  0  0  0  0
  195.8260  175.2550  143.4020 C   0  0  0  0  0  0  0  0  0  0  0  0
  191.9620  175.3100  143.3460 C   0  0  0  0  0  2  0  0  0  0  0  0
  190.0160  176.8120  146.2160 C   0  0  1  0  0  0  0  0  0  0  0  0
  196.6450  175.7680  142.0860 C   0  0  0  0  0  2  0  0  0  0  0  0
  193.4940  173.4530  139.2710 C   0  0  0  0  0  2  0  0  0  0  0  0
  196.0430  174.9170  138.1460 C   0  0  2  0  0  0  0  0  0  0  0  0
  196.3040  175.2050  144.5930 C   0  0  0  0  0  2  0  0  0  0  0  0
  192.6810  169.4470  139.1770 C   0  0  0  0  0  0  0  0  0  0  0  0
  193.9770  169.7390  138.5450 C   0  0  0  0  0  3  0  0  0  0  0  0
  197.9290  175.3410  139.4700 O   0  0  0  0  0  1  0  0  0  0  0  0
  192.7640  168.4830  140.0980 C   0  0  0  0  0  2  0  0  0  0  0  0
  194.3020  175.0170  143.0850 C   0  0  2  0  0  3  0  0  0  0  0  0
  191.5180  176.6190  146.2500 C   0  0  0  0  0  2  0  0  0  0  0  0
  188.9990  176.1050  144.1760 O   0  0  0  0  0  0  0  0  0  0  0  0
  190.0690  172.6570  141.7990 C   0  0  0  0  0  3  0  0  0  0  0  0
  196.6340  173.5840  138.0660 O   0  0  0  0  0  1  0  0  0  0  0  0
  193.8990  175.4000  141.8270 C   0  0  0  0  0  2  0  0  0  0  0  0
  189.6090  173.6970  146.0020 C   0  0  0  0  0  1  0  0  0  0  0  0
  193.1600  174.6830  145.4740 C   0  0  0  0  0  2  0  0  0  0  0  0
  190.5390  174.4940  145.1430 C   0  0  1  0  0  0  0  0  0  0  0  0
  193.2280  175.0130  143.9990 N   0  0  2  0  0  0  0  0  0  0  0  0
  190.7750  171.3940  141.5150 C   0  0  0  0  0  2  0  0  0  0  0  0
  189.6880  175.7780  145.2050 C   0  0  0  0  0  0  0  0  0  0  0  0
  190.1120  176.8670  147.7330 C   0  0  0  0  0  1  0  0  0  0  0  0
  196.6040  175.6390  139.4710 C   0  0  2  0  0  3  0  0  0  0  0  0
  194.1660  174.7000  138.0530 S   0  0  0  0  0  0  0  0  0  0  0  0
  191.0020  174.2440  143.7370 C   0  0  0  0  0  0  0  0  0  0  0  0
  193.3530  171.6740  140.9790 C   0  0  1  0  0  3  0  0  0  0  0  0
  191.7190  170.5030  139.3030 C   0  0  1  0  0  3  0  0  0  0  0  0
  189.4090  178.1200  145.8970 O   0  0  0  0  0  1  0  0  0  0  0  0
  194.1050  172.0370  142.2950 C   0  0  0  0  0  1  0  0  0  0  0  0
  196.6610  175.6280  137.0810 O   0  0  0  0  0  0  0  0  0  0  0  0
  195.7240  175.7950  135.9860 C   0  0  0  0  0  2  0  0  0  0  0  0
  196.0690  177.0530  135.1590 C   0  0  0  0  0  2  0  0  0  0  0  0
  193.8200  176.7280  134.9810 O   0  0  0  0  0  1  0  0  0  0  0  0
  194.8300  177.5570  134.5290 C   0  0  1  0  0  3  0  0  0  0  0  0
  195.4260  179.9450  134.5300 O   0  0  0  0  0  1  0  0  0  0  0  0
  194.4450  178.9930  134.8530 C   0  0  0  0  0  2  0  0  0  0  0  0
  190.4920  170.5050  138.4970 N   0  0  0  0  0  2  0  0  0  0  0  0
  190.4070  171.8440  137.9270 C   0  0  0  0  0  2  0  0  0  0  0  0
  191.4330  170.7180  135.9190 C   0  0  0  0  0  1  0  0  0  0  0  0
  190.8850  172.0090  136.5090 C   0  0  0  0  0  2  0  0  0  0  0  0
  1 35  1  0  0  0  0
  1 29  1  1  0  0  0
  2  6  1  6  0  0  0
  2 11  1  0  0  0  0
  4 34  2  0  0  0  0
  5 26  1  6  0  0  0
  5 20  1  0  0  0  0
  6 24  1  0  0  0  0
  7  3  1  6  0  0  0
  7 35  1  0  0  0  0
  8 14  2  0  0  0  0
  9 34  1  0  0  0  0
 10 20  1  0  0  0  0
 10 31  1  1  0  0  0
 11  8  1  0  0  0  0
 12  7  1  0  0  0  0
 13 23  1  6  0  0  0
 13 32  1  0  0  0  0
 15 36  1  0  0  0  0
 15 18  2  0  0  0  0
 16  3  2  0  0  0  0
 16 15  1  0  0  0  0
 19 24  1  6  0  0  0
 19  8  1  0  0  0  0
 19 28  1  0  0  0  0
 21 30  2  0  0  0  0
 22  4  2  0  0  0  0
 27 30  1  0  0  0  0
 27 25  1  1  0  0  0
 27  5  1  0  0  0  0
 28  9  1  6  0  0  0
 28 26  1  0  0  0  0
 29 22  1  0  0  0  0
 30 10  1  0  0  0  0
 32 17  1  1  0  0  0
 32  2  1  0  0  0  0
 33 13  1  0  0  0  0
 33 12  1  0  0  0  0
 34 27  1  0  0  0  0
 35 38  1  1  0  0  0
 36 46  1  1  0  0  0
 36  1  1  0  0  0  0
 37 10  1  0  0  0  0
 39 13  1  0  0  0  0
 40 39  1  0  0  0  0
 41 40  1  0  0  0  0
 43 45  1  0  0  0  0
 43 42  1  1  0  0  0
 43 41  1  0  0  0  0
 44 45  1  0  0  0  0
 47 46  1  0  0  0  0
 48 49  1  0  0  0  0
 49 47  1  0  0  0  0
M  END
>  <MODEL>
9

>  <REMARK>
 VINA RESULT:      -5.7      2.788      4.711
  Name = 
  8 active torsions:
  status: ('A' for Active; 'I' for Inactive)
    1  A    between atoms: C_15  and  O_19
    2  A    between atoms: O_19  and  C_30
    3  A    between atoms: C_20  and  C_44
    4  A    between atoms: C_21  and  C_30
    5  A    between atoms: C_21  and  C_37
    6  A    between atoms: N_24  and  C_44
    7  A    between atoms: N_24  and  C_47
    8  A    between atoms: C_37  and  C_39
                            x       y       z     vdW  Elec       q    Type
                         _______ _______ _______ _____ _____    ______ ____

>  <TORSDO>
F 8

$$$$
