=
 OpenBabel11062419223D

 50 54  0  0  1  0  0  0  0  0999 V2000
  189.5950  173.3220  137.6850 N   0  0  0  0  0  0  0  0  0  0  0  0
  191.4580  173.0860  139.1010 C   0  0  2  0  0  3  0  0  0  0  0  0
  190.0300  173.5130  138.8930 C   0  0  0  0  0  0  0  0  0  0  0  0
  189.7590  174.4330  141.1050 O   0  0  0  0  0  1  0  0  0  0  0  0
  190.6020  172.7890  136.8760 N   0  0  0  0  0  2  0  0  0  0  0  0
  189.2100  174.0940  139.9150 N   0  0  0  0  0  0  0  0  0  0  0  0
  192.8630  172.2680  137.2790 O   0  0  0  0  0  0  0  0  0  0  0  0
  191.7470  172.6730  137.7000 C   0  0  0  0  0  0  0  0  0  0  0  0
  192.9060  171.6530  140.5240 C   0  0  0  0  0  2  0  0  0  0  0  0
  191.8590  172.2750  141.4220 C   0  0  1  0  0  3  0  0  0  0  0  0
  191.4980  171.8650  140.0060 C   0  0  1  0  0  3  0  0  0  0  0  0
  189.8970  171.1930  142.3880 O   0  0  0  0  0  0  0  0  0  0  0  0
  191.3140  171.2210  142.3930 C   0  0  2  0  0  3  0  0  0  0  0  0
  189.3950  172.3350  143.0560 C   0  0  0  0  0  2  0  0  0  0  0  0
  191.3630  172.5560  144.4210 O   0  0  0  0  0  0  0  0  0  0  0  0
  189.9640  172.4330  144.4790 C   0  0  0  0  0  2  0  0  0  0  0  0
  191.8400  171.3670  143.8400 C   0  0  2  0  0  3  0  0  0  0  0  0
  193.3590  171.3030  143.9190 C   0  0  0  0  0  2  0  0  0  0  0  0
  193.9140  172.5690  144.5510 C   0  0  1  0  0  3  0  0  0  0  0  0
  194.3650  172.3010  145.8450 O   0  0  0  0  0  1  0  0  0  0  0  0
  195.0420  173.1270  143.7340 C   0  0  0  0  0  0  0  0  0  0  0  0
  195.0840  174.5280  143.3930 N   0  0  0  0  0  0  0  0  0  0  0  0
  195.9880  172.3630  143.3920 O   0  0  0  0  0  0  0  0  0  0  0  0
  196.1330  175.0050  142.4820 C   0  0  2  0  0  3  0  0  0  0  0  0
  196.5500  176.4210  142.8360 C   0  0  0  0  0  1  0  0  0  0  0  0
  195.7720  174.8930  140.9990 C   0  0  0  0  0  2  0  0  0  0  0  0
  196.7640  174.2070  140.2880 O   0  0  0  0  0  1  0  0  0  0  0  0
  194.0110  175.4150  143.8430 C   0  0  0  0  0  2  0  0  0  0  0  0
  192.8660  175.4070  142.8440 C   0  0  0  0  0  2  0  0  0  0  0  0
  191.7910  176.3720  143.3110 C   0  0  0  0  0  1  0  0  0  0  0  0
  187.8740  174.4390  139.6560 N   0  0  0  0  0  2  0  0  0  0  0  0
  187.8260  175.7850  139.5110 O   0  0  0  0  0  0  0  0  0  0  0  0
  186.5200  177.6290  140.2250 C   0  0  0  0  0  2  0  0  0  0  0  0
  186.9950  176.2300  140.5360 C   0  0  2  0  0  3  0  0  0  0  0  0
  187.6390  177.4190  141.2250 C   0  0  2  0  0  3  0  0  0  0  0  0
  187.1200  177.5630  142.5790 N   0  0  0  0  0  0  0  0  0  0  0  0
  187.4690  176.7740  143.6730 C   0  0  0  0  0  0  0  0  0  0  0  0
  186.5460  178.7630  143.0510 N   0  0  0  0  0  0  0  0  0  0  0  0
  186.4860  178.6680  144.4780 N   0  0  0  0  0  0  0  0  0  0  0  0
  188.0660  175.6660  143.6210 O   0  0  0  0  0  0  0  0  0  0  0  0
  187.0860  177.4410  144.8340 N   0  0  0  0  0  0  0  0  0  0  0  0
  187.1870  176.9190  146.2000 C   0  0  2  0  0  3  0  0  0  0  0  0
  185.9660  177.2920  147.0340 C   0  0  0  0  0  2  0  0  0  0  0  0
  184.8310  176.6390  146.5350 O   0  0  0  0  0  1  0  0  0  0  0  0
  188.4830  177.3760  146.8720 C   0  0  0  0  0  2  0  0  0  0  0  0
  189.6300  176.6390  146.3600 N   0  0  0  0  0  2  0  0  0  0  0  0
  189.8170  175.5050  147.2560 C   0  0  0  0  0  2  0  0  0  0  0  0
  191.1860  175.5470  147.9210 C   0  0  2  0  0  3  0  0  0  0  0  0
  191.4610  176.8300  148.3950 O   0  0  0  0  0  1  0  0  0  0  0  0
  192.2740  175.1100  146.9570 C   0  0  0  0  0  1  0  0  0  0  0  0
  1  3  2  0  0  0  0
  2  8  1  6  0  0  0
  2 11  1  0  0  0  0
  3  2  1  0  0  0  0
  3  6  1  0  0  0  0
  5  1  1  0  0  0  0
  5  8  1  0  0  0  0
  6  4  1  0  0  0  0
  7  8  2  0  0  0  0
 10  9  1  6  0  0  0
 10 13  1  0  0  0  0
 11  9  1  6  0  0  0
 11 10  1  0  0  0  0
 12 14  1  0  0  0  0
 13 12  1  1  0  0  0
 13 17  1  0  0  0  0
 14 16  1  0  0  0  0
 15 16  1  0  0  0  0
 17 18  1  6  0  0  0
 17 15  1  0  0  0  0
 18 19  1  0  0  0  0
 19 20  1  1  0  0  0
 21 19  1  0  0  0  0
 22 21  1  0  0  0  0
 22 28  1  0  0  0  0
 23 21  2  0  0  0  0
 24 25  1  1  0  0  0
 24 22  1  0  0  0  0
 26 24  1  0  0  0  0
 27 26  1  0  0  0  0
 29 30  1  0  0  0  0
 29 28  1  0  0  0  0
 31  6  1  0  0  0  0
 32 31  1  0  0  0  0
 33 34  1  0  0  0  0
 34 32  1  6  0  0  0
 34 35  1  0  0  0  0
 35 33  1  6  0  0  0
 35 36  1  0  0  0  0
 36 38  1  0  0  0  0
 36 37  1  0  0  0  0
 37 41  1  0  0  0  0
 38 39  2  0  0  0  0
 39 41  1  0  0  0  0
 40 37  2  0  0  0  0
 41 42  1  0  0  0  0
 42 45  1  1  0  0  0
 42 43  1  0  0  0  0
 44 43  1  0  0  0  0
 46 45  1  0  0  0  0
 46 47  1  0  0  0  0
 47 48  1  0  0  0  0
 48 50  1  6  0  0  0
 48 49  1  0  0  0  0
M  END
>  <MODEL>
1

>  <REMARK>
 VINA RESULT:      -5.5      0.000      0.000
  Name = 
  19 active torsions:
  status: ('A' for Active; 'I' for Inactive)
    1  A    between atoms: C_1  and  C_45
    2  A    between atoms: N_4  and  C_32
    3  A    between atoms: C_5  and  C_13
    4  A    between atoms: C_9  and  O_10
    5  A    between atoms: O_10  and  N_50
    6  A    between atoms: C_12  and  C_28
    7  A    between atoms: C_13  and  C_48
    8  A    between atoms: C_14  and  C_20
    9  A    between atoms: C_14  and  N_21
   10  A    between atoms: C_15  and  C_35
   11  A    between atoms: C_16  and  C_25
   12  A    between atoms: C_18  and  C_26
   13  A    between atoms: N_19  and  C_22
   14  A    between atoms: N_19  and  C_45
   15  A    between atoms: N_21  and  C_25
   16  A    between atoms: C_22  and  C_35
   17  A    between atoms: C_35  and  N_44
   18  A    between atoms: N_38  and  N_50
   19  A    between atoms: C_47  and  C_48
                            x       y       z     vdW  Elec       q    Type
                         _______ _______ _______ _____ _____    ______ ____

>  <TORSDO>
F 19

$$$$
=
 OpenBabel11062419223D

 50 54  0  0  1  0  0  0  0  0999 V2000
  192.7480  176.8090  147.0080 N   0  0  0  0  0  0  0  0  0  0  0  0
  193.0710  174.9990  145.5420 C   0  0  2  0  0  3  0  0  0  0  0  0
  192.1400  175.9110  146.2970 C   0  0  0  0  0  0  0  0  0  0  0  0
  190.1300  174.7490  145.6440 O   0  0  0  0  0  1  0  0  0  0  0  0
  194.1340  176.6660  146.9070 N   0  0  0  0  0  2  0  0  0  0  0  0
  190.7110  175.8060  146.2590 N   0  0  0  0  0  0  0  0  0  0  0  0
  195.4980  175.1100  145.7820 O   0  0  0  0  0  0  0  0  0  0  0  0
  194.3530  175.5550  146.0560 C   0  0  0  0  0  0  0  0  0  0  0  0
  193.9500  174.4190  143.2910 C   0  0  0  0  0  2  0  0  0  0  0  0
  192.4860  174.0370  143.3200 C   0  0  1  0  0  3  0  0  0  0  0  0
  192.9610  175.2790  144.0510 C   0  0  1  0  0  3  0  0  0  0  0  0
  190.5330  175.0290  142.2460 O   0  0  0  0  0  0  0  0  0  0  0  0
  191.8120  174.4650  142.0110 C   0  0  2  0  0  3  0  0  0  0  0  0
  189.6180  174.0080  142.6000 C   0  0  0  0  0  2  0  0  0  0  0  0
  190.8450  172.3220  141.4000 O   0  0  0  0  0  0  0  0  0  0  0  0
  189.5760  172.9130  141.5230 C   0  0  0  0  0  2  0  0  0  0  0  0
  191.7120  173.3380  140.9570 C   0  0  2  0  0  3  0  0  0  0  0  0
  193.0710  172.7610  140.5890 C   0  0  0  0  0  2  0  0  0  0  0  0
  193.5590  173.3430  139.2720 C   0  0  1  0  0  3  0  0  0  0  0  0
  192.4930  173.9230  138.5800 O   0  0  0  0  0  1  0  0  0  0  0  0
  194.6240  174.3740  139.5030 C   0  0  0  0  0  0  0  0  0  0  0  0
  196.0100  174.0760  139.2370 N   0  0  0  0  0  0  0  0  0  0  0  0
  194.2870  175.5300  139.8830 O   0  0  0  0  0  0  0  0  0  0  0  0
  197.0320  175.0660  139.6010 C   0  0  2  0  0  3  0  0  0  0  0  0
  197.8750  175.4390  138.3950 C   0  0  0  0  0  1  0  0  0  0  0  0
  197.9140  174.6500  140.7810 C   0  0  0  0  0  2  0  0  0  0  0  0
  197.1630  174.5300  141.9560 O   0  0  0  0  0  1  0  0  0  0  0  0
  196.3830  172.7500  138.7420 C   0  0  0  0  0  2  0  0  0  0  0  0
  196.4640  171.7610  139.8930 C   0  0  0  0  0  2  0  0  0  0  0  0
  197.4630  170.6720  139.5450 C   0  0  0  0  0  1  0  0  0  0  0  0
  189.9050  176.7140  146.9650 N   0  0  0  0  0  2  0  0  0  0  0  0
  188.6280  176.2680  146.8800 O   0  0  0  0  0  0  0  0  0  0  0  0
  187.0000  177.9250  147.3460 C   0  0  0  0  0  2  0  0  0  0  0  0
  187.9160  177.3200  146.3090 C   0  0  2  0  0  3  0  0  0  0  0  0
  186.4360  176.9800  146.3040 C   0  0  2  0  0  3  0  0  0  0  0  0
  185.7450  177.7430  145.2730 N   0  0  0  0  0  0  0  0  0  0  0  0
  185.4260  177.2850  143.9970 C   0  0  0  0  0  0  0  0  0  0  0  0
  184.9370  178.8620  145.5680 N   0  0  0  0  0  0  0  0  0  0  0  0
  184.1470  179.1290  144.4040 N   0  0  0  0  0  0  0  0  0  0  0  0
  185.9050  176.2610  143.4410 O   0  0  0  0  0  0  0  0  0  0  0  0
  184.4520  178.1240  143.4610 N   0  0  0  0  0  0  0  0  0  0  0  0
  183.9040  178.0510  142.1030 C   0  0  2  0  0  3  0  0  0  0  0  0
  184.8640  178.6470  141.0790 C   0  0  0  0  0  2  0  0  0  0  0  0
  185.4620  177.6210  140.3340 O   0  0  0  0  0  1  0  0  0  0  0  0
  182.5260  178.7090  142.0270 C   0  0  0  0  0  2  0  0  0  0  0  0
  181.5880  177.8850  141.2780 N   0  0  0  0  0  2  0  0  0  0  0  0
  180.8080  178.8010  140.4570 C   0  0  0  0  0  2  0  0  0  0  0  0
  179.3300  178.7460  140.8200 C   0  0  2  0  0  3  0  0  0  0  0  0
  178.9410  179.9150  141.4730 O   0  0  0  0  0  1  0  0  0  0  0  0
  179.0300  177.5430  141.6970 C   0  0  0  0  0  1  0  0  0  0  0  0
  2  8  1  1  0  0  0
  2  3  1  0  0  0  0
  3  1  2  0  0  0  0
  4  6  1  0  0  0  0
  5  1  1  0  0  0  0
  6  3  1  0  0  0  0
  6 31  1  0  0  0  0
  7  8  2  0  0  0  0
  8  5  1  0  0  0  0
 10  9  1  6  0  0  0
 10 11  1  0  0  0  0
 11  9  1  6  0  0  0
 11  2  1  0  0  0  0
 12 14  1  0  0  0  0
 13 12  1  1  0  0  0
 13 10  1  0  0  0  0
 15 16  1  0  0  0  0
 16 14  1  0  0  0  0
 17 18  1  1  0  0  0
 17 15  1  0  0  0  0
 17 13  1  0  0  0  0
 19 20  1  1  0  0  0
 19 21  1  0  0  0  0
 19 18  1  0  0  0  0
 21 23  2  0  0  0  0
 22 21  1  0  0  0  0
 22 24  1  0  0  0  0
 24 25  1  6  0  0  0
 24 26  1  0  0  0  0
 26 27  1  0  0  0  0
 28 22  1  0  0  0  0
 28 29  1  0  0  0  0
 30 29  1  0  0  0  0
 32 31  1  0  0  0  0
 34 32  1  1  0  0  0
 34 33  1  0  0  0  0
 35 36  1  6  0  0  0
 35 34  1  0  0  0  0
 35 33  1  0  0  0  0
 36 38  1  0  0  0  0
 37 36  1  0  0  0  0
 39 38  2  0  0  0  0
 40 37  2  0  0  0  0
 41 37  1  0  0  0  0
 41 39  1  0  0  0  0
 42 43  1  6  0  0  0
 42 41  1  0  0  0  0
 44 43  1  0  0  0  0
 45 42  1  0  0  0  0
 46 45  1  0  0  0  0
 47 48  1  0  0  0  0
 47 46  1  0  0  0  0
 48 49  1  0  0  0  0
 48 50  1  1  0  0  0
M  END
>  <MODEL>
2

>  <REMARK>
 VINA RESULT:      -5.4      3.204      6.863
  Name = 
  19 active torsions:
  status: ('A' for Active; 'I' for Inactive)
    1  A    between atoms: C_1  and  C_45
    2  A    between atoms: N_4  and  C_32
    3  A    between atoms: C_5  and  C_13
    4  A    between atoms: C_9  and  O_10
    5  A    between atoms: O_10  and  N_50
    6  A    between atoms: C_12  and  C_28
    7  A    between atoms: C_13  and  C_48
    8  A    between atoms: C_14  and  C_20
    9  A    between atoms: C_14  and  N_21
   10  A    between atoms: C_15  and  C_35
   11  A    between atoms: C_16  and  C_25
   12  A    between atoms: C_18  and  C_26
   13  A    between atoms: N_19  and  C_22
   14  A    between atoms: N_19  and  C_45
   15  A    between atoms: N_21  and  C_25
   16  A    between atoms: C_22  and  C_35
   17  A    between atoms: C_35  and  N_44
   18  A    between atoms: N_38  and  N_50
   19  A    between atoms: C_47  and  C_48
                            x       y       z     vdW  Elec       q    Type
                         _______ _______ _______ _____ _____    ______ ____

>  <TORSDO>
F 19

$$$$
=
 OpenBabel11062419223D

 50 54  0  0  1  0  0  0  0  0999 V2000
  190.5300  177.9920  144.6630 N   0  0  0  0  0  0  0  0  0  0  0  0
  191.6510  175.9660  144.2520 C   0  0  2  0  0  3  0  0  0  0  0  0
  190.7450  176.7970  145.1210 C   0  0  0  0  0  0  0  0  0  0  0  0
  190.5620  175.1510  146.8730 O   0  0  0  0  0  1  0  0  0  0  0  0
  191.2390  178.2030  143.4780 N   0  0  0  0  0  2  0  0  0  0  0  0
  190.1720  176.3380  146.3510 N   0  0  0  0  0  0  0  0  0  0  0  0
  192.7420  176.8600  142.2580 O   0  0  0  0  0  0  0  0  0  0  0  0
  191.9530  177.0050  143.2300 C   0  0  0  0  0  0  0  0  0  0  0  0
  191.0160  174.8890  142.1040 C   0  0  0  0  0  2  0  0  0  0  0  0
  191.7860  173.8680  142.9150 C   0  0  1  0  0  3  0  0  0  0  0  0
  190.8520  174.8430  143.6090 C   0  0  1  0  0  3  0  0  0  0  0  0
  191.0240  171.8700  144.0900 O   0  0  0  0  0  0  0  0  0  0  0  0
  191.0930  172.5040  142.8240 C   0  0  2  0  0  3  0  0  0  0  0  0
  192.3070  171.4010  144.4600 C   0  0  0  0  0  2  0  0  0  0  0  0
  193.0200  171.1760  142.1730 O   0  0  0  0  0  0  0  0  0  0  0  0
  192.8820  170.4710  143.3810 C   0  0  0  0  0  2  0  0  0  0  0  0
  191.7200  171.5480  141.7830 C   0  0  2  0  0  3  0  0  0  0  0  0
  191.7280  172.1370  140.3800 C   0  0  0  0  0  2  0  0  0  0  0  0
  193.1190  172.0480  139.7730 C   0  0  1  0  0  3  0  0  0  0  0  0
  193.0890  171.2650  138.6170 O   0  0  0  0  0  1  0  0  0  0  0  0
  193.6470  173.4120  139.4390 C   0  0  0  0  0  0  0  0  0  0  0  0
  195.0590  173.6990  139.5190 N   0  0  0  0  0  0  0  0  0  0  0  0
  192.8430  174.2980  139.0310 O   0  0  0  0  0  0  0  0  0  0  0  0
  195.5160  175.0790  139.3120 C   0  0  2  0  0  3  0  0  0  0  0  0
  196.8520  175.1010  138.5930 C   0  0  0  0  0  1  0  0  0  0  0  0
  195.5650  175.9200  140.5900 C   0  0  0  0  0  2  0  0  0  0  0  0
  196.8620  176.3800  140.8430 O   0  0  0  0  0  1  0  0  0  0  0  0
  195.9870  172.6480  139.9370 C   0  0  0  0  0  2  0  0  0  0  0  0
  196.2860  172.7690  141.4230 C   0  0  0  0  0  2  0  0  0  0  0  0
  197.7890  172.8120  141.6270 C   0  0  0  0  0  1  0  0  0  0  0  0
  189.3080  177.1590  147.0930 N   0  0  0  0  0  2  0  0  0  0  0  0
  188.0910  176.5620  147.1000 O   0  0  0  0  0  0  0  0  0  0  0  0
  185.8800  177.4110  147.0780 C   0  0  0  0  0  2  0  0  0  0  0  0
  187.2480  177.4530  146.4410 C   0  0  2  0  0  3  0  0  0  0  0  0
  186.1250  176.6810  145.7720 C   0  0  2  0  0  3  0  0  0  0  0  0
  185.5690  177.4500  144.6670 N   0  0  0  0  0  0  0  0  0  0  0  0
  185.5520  177.0600  143.3300 C   0  0  0  0  0  0  0  0  0  0  0  0
  184.6060  178.4650  144.8550 N   0  0  0  0  0  0  0  0  0  0  0  0
  184.0330  178.7430  143.5730 N   0  0  0  0  0  0  0  0  0  0  0  0
  186.2350  176.1290  142.8260 O   0  0  0  0  0  0  0  0  0  0  0  0
  184.6170  177.8430  142.6570 N   0  0  0  0  0  0  0  0  0  0  0  0
  184.3520  177.8190  141.2150 C   0  0  2  0  0  3  0  0  0  0  0  0
  185.5560  178.3070  140.4160 C   0  0  0  0  0  2  0  0  0  0  0  0
  186.1340  177.2350  139.7220 O   0  0  0  0  0  1  0  0  0  0  0  0
  183.0920  178.6150  140.8720 C   0  0  0  0  0  2  0  0  0  0  0  0
  181.8880  177.8790  141.2300 N   0  0  0  0  0  2  0  0  0  0  0  0
  180.7960  178.5050  140.4970 C   0  0  0  0  0  2  0  0  0  0  0  0
  179.8830  179.2870  141.4310 C   0  0  2  0  0  3  0  0  0  0  0  0
  179.3530  178.4510  142.4140 O   0  0  0  0  0  1  0  0  0  0  0  0
  178.7570  179.9530  140.6600 C   0  0  0  0  0  1  0  0  0  0  0  0
  1  3  2  0  0  0  0
  2  8  1  6  0  0  0
  2  3  1  0  0  0  0
  3  6  1  0  0  0  0
  5  1  1  0  0  0  0
  6  4  1  0  0  0  0
  6 31  1  0  0  0  0
  7  8  2  0  0  0  0
  8  5  1  0  0  0  0
 10  9  1  6  0  0  0
 10 11  1  0  0  0  0
 11  9  1  6  0  0  0
 11  2  1  0  0  0  0
 12 14  1  0  0  0  0
 13 10  1  0  0  0  0
 13 12  1  1  0  0  0
 15 16  1  0  0  0  0
 16 14  1  0  0  0  0
 17 18  1  6  0  0  0
 17 15  1  0  0  0  0
 17 13  1  0  0  0  0
 19 20  1  6  0  0  0
 19 18  1  0  0  0  0
 21 22  1  0  0  0  0
 21 19  1  0  0  0  0
 22 28  1  0  0  0  0
 23 21  2  0  0  0  0
 24 25  1  1  0  0  0
 24 22  1  0  0  0  0
 24 26  1  0  0  0  0
 26 27  1  0  0  0  0
 28 29  1  0  0  0  0
 29 30  1  0  0  0  0
 31 32  1  0  0  0  0
 34 33  1  0  0  0  0
 34 32  1  1  0  0  0
 35 36  1  6  0  0  0
 35 34  1  0  0  0  0
 35 33  1  0  0  0  0
 36 38  1  0  0  0  0
 37 36  1  0  0  0  0
 39 38  2  0  0  0  0
 40 37  2  0  0  0  0
 41 37  1  0  0  0  0
 41 39  1  0  0  0  0
 42 43  1  6  0  0  0
 42 41  1  0  0  0  0
 44 43  1  0  0  0  0
 45 42  1  0  0  0  0
 45 46  1  0  0  0  0
 47 46  1  0  0  0  0
 47 48  1  0  0  0  0
 48 50  1  6  0  0  0
 48 49  1  0  0  0  0
M  END
>  <MODEL>
3

>  <REMARK>
 VINA RESULT:      -5.1      2.928      6.476
  Name = 
  19 active torsions:
  status: ('A' for Active; 'I' for Inactive)
    1  A    between atoms: C_1  and  C_45
    2  A    between atoms: N_4  and  C_32
    3  A    between atoms: C_5  and  C_13
    4  A    between atoms: C_9  and  O_10
    5  A    between atoms: O_10  and  N_50
    6  A    between atoms: C_12  and  C_28
    7  A    between atoms: C_13  and  C_48
    8  A    between atoms: C_14  and  C_20
    9  A    between atoms: C_14  and  N_21
   10  A    between atoms: C_15  and  C_35
   11  A    between atoms: C_16  and  C_25
   12  A    between atoms: C_18  and  C_26
   13  A    between atoms: N_19  and  C_22
   14  A    between atoms: N_19  and  C_45
   15  A    between atoms: N_21  and  C_25
   16  A    between atoms: C_22  and  C_35
   17  A    between atoms: C_35  and  N_44
   18  A    between atoms: N_38  and  N_50
   19  A    between atoms: C_47  and  C_48
                            x       y       z     vdW  Elec       q    Type
                         _______ _______ _______ _____ _____    ______ ____

>  <TORSDO>
F 19

$$$$
=
 OpenBabel11062419223D

 50 54  0  0  1  0  0  0  0  0999 V2000
  190.4050  177.9070  144.8700 N   0  0  0  0  0  0  0  0  0  0  0  0
  191.4110  175.8760  144.2400 C   0  0  2  0  0  3  0  0  0  0  0  0
  190.5250  176.6520  145.1780 C   0  0  0  0  0  0  0  0  0  0  0  0
  190.1680  174.8160  146.7000 O   0  0  0  0  0  1  0  0  0  0  0  0
  191.1740  178.2150  143.7450 N   0  0  0  0  0  2  0  0  0  0  0  0
  189.8750  176.0820  146.3210 N   0  0  0  0  0  0  0  0  0  0  0  0
  192.6360  176.9360  142.4130 O   0  0  0  0  0  0  0  0  0  0  0  0
  191.8200  177.0120  143.3690 C   0  0  0  0  0  0  0  0  0  0  0  0
  191.0270  174.8930  141.9910 C   0  0  0  0  0  2  0  0  0  0  0  0
  191.4360  173.7670  142.9150 C   0  0  1  0  0  3  0  0  0  0  0  0
  190.5690  174.8990  143.4350 C   0  0  1  0  0  3  0  0  0  0  0  0
  190.7170  171.5640  143.6780 O   0  0  0  0  0  0  0  0  0  0  0  0
  190.5480  172.5420  142.6660 C   0  0  2  0  0  3  0  0  0  0  0  0
  191.9680  170.9210  143.5170 C   0  0  0  0  0  2  0  0  0  0  0  0
  192.0200  171.3460  141.1490 O   0  0  0  0  0  0  0  0  0  0  0  0
  192.0970  170.3220  142.1090 C   0  0  0  0  0  2  0  0  0  0  0  0
  190.7340  171.9040  141.2700 C   0  0  2  0  0  3  0  0  0  0  0  0
  190.4660  172.8850  140.1390 C   0  0  0  0  0  2  0  0  0  0  0  0
  190.5820  172.1890  138.7920 C   0  0  1  0  0  3  0  0  0  0  0  0
  189.4930  171.3370  138.5960 O   0  0  0  0  0  1  0  0  0  0  0  0
  190.6410  173.1890  137.6750 C   0  0  0  0  0  0  0  0  0  0  0  0
  191.9060  173.7040  137.2090 N   0  0  0  0  0  0  0  0  0  0  0  0
  189.5680  173.5380  137.1060 O   0  0  0  0  0  0  0  0  0  0  0  0
  191.9100  174.7770  136.2070 C   0  0  2  0  0  3  0  0  0  0  0  0
  192.1430  174.2140  134.8170 C   0  0  0  0  0  1  0  0  0  0  0  0
  192.8900  175.9130  136.5110 C   0  0  0  0  0  2  0  0  0  0  0  0
  193.9840  175.8840  135.6400 O   0  0  0  0  0  1  0  0  0  0  0  0
  193.1460  173.2490  137.8380 C   0  0  0  0  0  2  0  0  0  0  0  0
  193.5780  171.9150  137.2510 C   0  0  0  0  0  2  0  0  0  0  0  0
  195.0920  171.8860  137.1420 C   0  0  0  0  0  1  0  0  0  0  0  0
  189.0360  176.8610  147.1340 N   0  0  0  0  0  2  0  0  0  0  0  0
  187.7790  176.3720  147.0000 O   0  0  0  0  0  0  0  0  0  0  0  0
  185.8100  177.6910  147.0210 C   0  0  0  0  0  2  0  0  0  0  0  0
  187.0860  177.3480  146.2880 C   0  0  2  0  0  3  0  0  0  0  0  0
  185.7620  176.7770  145.8120 C   0  0  2  0  0  3  0  0  0  0  0  0
  185.2780  177.5190  144.6550 N   0  0  0  0  0  0  0  0  0  0  0  0
  185.4160  177.1330  143.3240 C   0  0  0  0  0  0  0  0  0  0  0  0
  184.2460  178.4780  144.7440 N   0  0  0  0  0  0  0  0  0  0  0  0
  183.7890  178.7290  143.4110 N   0  0  0  0  0  0  0  0  0  0  0  0
  186.1960  176.2430  142.8920 O   0  0  0  0  0  0  0  0  0  0  0  0
  184.5110  177.8660  142.5590 N   0  0  0  0  0  0  0  0  0  0  0  0
  184.3930  177.8330  141.0980 C   0  0  2  0  0  3  0  0  0  0  0  0
  185.6680  178.3260  140.4220 C   0  0  0  0  0  2  0  0  0  0  0  0
  186.2860  177.2680  139.7420 O   0  0  0  0  0  1  0  0  0  0  0  0
  183.1690  178.6180  140.6250 C   0  0  0  0  0  2  0  0  0  0  0  0
  182.0180  177.7450  140.4470 N   0  0  0  0  0  2  0  0  0  0  0  0
  180.8410  178.5940  140.5650 C   0  0  0  0  0  2  0  0  0  0  0  0
  179.7850  177.9530  141.4560 C   0  0  2  0  0  3  0  0  0  0  0  0
  178.6870  177.5450  140.7000 O   0  0  0  0  0  1  0  0  0  0  0  0
  179.3340  178.9130  142.5430 C   0  0  0  0  0  1  0  0  0  0  0  0
  1  3  2  0  0  0  0
  2  8  1  6  0  0  0
  2  3  1  0  0  0  0
  3  6  1  0  0  0  0
  5  1  1  0  0  0  0
  6  4  1  0  0  0  0
  6 31  1  0  0  0  0
  7  8  2  0  0  0  0
  8  5  1  0  0  0  0
 10  9  1  6  0  0  0
 10 11  1  0  0  0  0
 11  9  1  6  0  0  0
 11  2  1  0  0  0  0
 13 10  1  0  0  0  0
 13 12  1  1  0  0  0
 14 12  1  0  0  0  0
 15 17  1  0  0  0  0
 15 16  1  0  0  0  0
 16 14  1  0  0  0  0
 17 18  1  6  0  0  0
 17 13  1  0  0  0  0
 19 20  1  6  0  0  0
 19 18  1  0  0  0  0
 21 19  1  0  0  0  0
 22 21  1  0  0  0  0
 22 28  1  0  0  0  0
 23 21  2  0  0  0  0
 24 25  1  6  0  0  0
 24 26  1  0  0  0  0
 24 22  1  0  0  0  0
 27 26  1  0  0  0  0
 29 28  1  0  0  0  0
 30 29  1  0  0  0  0
 32 31  1  0  0  0  0
 34 32  1  1  0  0  0
 34 33  1  0  0  0  0
 35 36  1  6  0  0  0
 35 34  1  0  0  0  0
 35 33  1  0  0  0  0
 36 38  1  0  0  0  0
 37 36  1  0  0  0  0
 39 38  2  0  0  0  0
 40 37  2  0  0  0  0
 41 37  1  0  0  0  0
 41 39  1  0  0  0  0
 42 43  1  6  0  0  0
 42 41  1  0  0  0  0
 44 43  1  0  0  0  0
 45 42  1  0  0  0  0
 46 47  1  0  0  0  0
 46 45  1  0  0  0  0
 47 48  1  0  0  0  0
 48 50  1  1  0  0  0
 49 48  1  0  0  0  0
M  END
>  <MODEL>
4

>  <REMARK>
 VINA RESULT:      -5.0      3.097      7.066
  Name = 
  19 active torsions:
  status: ('A' for Active; 'I' for Inactive)
    1  A    between atoms: C_1  and  C_45
    2  A    between atoms: N_4  and  C_32
    3  A    between atoms: C_5  and  C_13
    4  A    between atoms: C_9  and  O_10
    5  A    between atoms: O_10  and  N_50
    6  A    between atoms: C_12  and  C_28
    7  A    between atoms: C_13  and  C_48
    8  A    between atoms: C_14  and  C_20
    9  A    between atoms: C_14  and  N_21
   10  A    between atoms: C_15  and  C_35
   11  A    between atoms: C_16  and  C_25
   12  A    between atoms: C_18  and  C_26
   13  A    between atoms: N_19  and  C_22
   14  A    between atoms: N_19  and  C_45
   15  A    between atoms: N_21  and  C_25
   16  A    between atoms: C_22  and  C_35
   17  A    between atoms: C_35  and  N_44
   18  A    between atoms: N_38  and  N_50
   19  A    between atoms: C_47  and  C_48
                            x       y       z     vdW  Elec       q    Type
                         _______ _______ _______ _____ _____    ______ ____

>  <TORSDO>
F 19

$$$$
=
 OpenBabel11062419223D

 50 54  0  0  1  0  0  0  0  0999 V2000
  195.8520  176.3880  142.9650 N   0  0  0  0  0  0  0  0  0  0  0  0
  195.9390  174.3290  141.8340 C   0  0  2  0  0  3  0  0  0  0  0  0
  195.7980  175.1010  143.1190 C   0  0  0  0  0  0  0  0  0  0  0  0
  195.7560  173.1510  144.5360 O   0  0  0  0  0  1  0  0  0  0  0  0
  196.0640  176.7190  141.6250 N   0  0  0  0  0  2  0  0  0  0  0  0
  195.6330  174.4930  144.4060 N   0  0  0  0  0  0  0  0  0  0  0  0
  196.3960  175.4110  139.6940 O   0  0  0  0  0  0  0  0  0  0  0  0
  196.1570  175.4890  140.9280 C   0  0  0  0  0  0  0  0  0  0  0  0
  194.7840  172.7710  140.2790 C   0  0  0  0  0  2  0  0  0  0  0  0
  194.7260  172.1590  141.6620 C   0  0  1  0  0  3  0  0  0  0  0  0
  194.6150  173.6630  141.4920 C   0  0  1  0  0  3  0  0  0  0  0  0
  193.0300  171.5450  143.3050 O   0  0  0  0  0  0  0  0  0  0  0  0
  193.3270  171.5880  141.9190 C   0  0  2  0  0  3  0  0  0  0  0  0
  193.7690  170.5060  143.9190 C   0  0  0  0  0  2  0  0  0  0  0  0
  193.9010  169.2280  141.8850 O   0  0  0  0  0  0  0  0  0  0  0  0
  193.4990  169.1600  143.2300 C   0  0  0  0  0  2  0  0  0  0  0  0
  193.0860  170.2010  141.2790 C   0  0  2  0  0  3  0  0  0  0  0  0
  193.2920  170.2110  139.7710 C   0  0  0  0  0  2  0  0  0  0  0  0
  191.9610  170.0710  139.0500 C   0  0  1  0  0  3  0  0  0  0  0  0
  191.4070  168.8150  139.3070 O   0  0  0  0  0  1  0  0  0  0  0  0
  191.0010  171.1390  139.4840 C   0  0  0  0  0  0  0  0  0  0  0  0
  190.9780  172.4230  138.8270 N   0  0  0  0  0  0  0  0  0  0  0  0
  190.1700  170.8810  140.4000 O   0  0  0  0  0  0  0  0  0  0  0  0
  190.1170  173.4820  139.3690 C   0  0  2  0  0  3  0  0  0  0  0  0
  190.4240  173.7300  140.8340 C   0  0  0  0  0  1  0  0  0  0  0  0
  188.6200  173.2430  139.1530 C   0  0  0  0  0  2  0  0  0  0  0  0
  188.2260  173.6350  137.8690 O   0  0  0  0  0  1  0  0  0  0  0  0
  191.9070  172.6900  137.7290 C   0  0  0  0  0  2  0  0  0  0  0  0
  191.8970  174.1680  137.3760 C   0  0  0  0  0  2  0  0  0  0  0  0
  193.2620  174.7610  137.6750 C   0  0  0  0  0  1  0  0  0  0  0  0
  195.4750  175.2790  145.5580 N   0  0  0  0  0  2  0  0  0  0  0  0
  194.2910  174.9360  146.1210 O   0  0  0  0  0  0  0  0  0  0  0  0
  192.5410  176.3630  146.8390 C   0  0  0  0  0  2  0  0  0  0  0  0
  193.3890  175.9000  145.6780 C   0  0  2  0  0  3  0  0  0  0  0  0
  191.9730  175.3750  145.8390 C   0  0  2  0  0  3  0  0  0  0  0  0
  191.0710  176.0640  144.9270 N   0  0  0  0  0  0  0  0  0  0  0  0
  189.9090  175.5300  144.3730 C   0  0  0  0  0  0  0  0  0  0  0  0
  191.0130  177.4710  144.8300 N   0  0  0  0  0  0  0  0  0  0  0  0
  189.8050  177.7960  144.1360 N   0  0  0  0  0  0  0  0  0  0  0  0
  189.5970  174.3100  144.3510 O   0  0  0  0  0  0  0  0  0  0  0  0
  189.1320  176.5800  143.8890 N   0  0  0  0  0  0  0  0  0  0  0  0
  187.8730  176.4500  143.1490 C   0  0  2  0  0  3  0  0  0  0  0  0
  188.1160  176.3120  141.6500 C   0  0  0  0  0  2  0  0  0  0  0  0
  187.0530  176.8870  140.9400 O   0  0  0  0  0  1  0  0  0  0  0  0
  186.9280  177.6130  143.4570 C   0  0  0  0  0  2  0  0  0  0  0  0
  186.0130  177.2770  144.5390 N   0  0  0  0  0  2  0  0  0  0  0  0
  186.5070  177.9710  145.7200 C   0  0  0  0  0  2  0  0  0  0  0  0
  185.4990  178.9980  146.2180 C   0  0  2  0  0  3  0  0  0  0  0  0
  185.7400  179.3140  147.5550 O   0  0  0  0  0  1  0  0  0  0  0  0
  184.0780  178.4880  146.0580 C   0  0  0  0  0  1  0  0  0  0  0  0
  1  3  2  0  0  0  0
  2  8  1  6  0  0  0
  2  3  1  0  0  0  0
  3  6  1  0  0  0  0
  5  1  1  0  0  0  0
  6  4  1  0  0  0  0
  6 31  1  0  0  0  0
  7  8  2  0  0  0  0
  8  5  1  0  0  0  0
 10  9  1  6  0  0  0
 10 13  1  0  0  0  0
 11  9  1  6  0  0  0
 11 10  1  0  0  0  0
 11  2  1  0  0  0  0
 12 14  1  0  0  0  0
 13 12  1  1  0  0  0
 15 16  1  0  0  0  0
 16 14  1  0  0  0  0
 17 18  1  6  0  0  0
 17 15  1  0  0  0  0
 17 13  1  0  0  0  0
 19 20  1  1  0  0  0
 19 21  1  0  0  0  0
 19 18  1  0  0  0  0
 21 23  2  0  0  0  0
 22 24  1  0  0  0  0
 22 21  1  0  0  0  0
 24 25  1  1  0  0  0
 26 24  1  0  0  0  0
 27 26  1  0  0  0  0
 28 22  1  0  0  0  0
 29 30  1  0  0  0  0
 29 28  1  0  0  0  0
 31 32  1  0  0  0  0
 34 35  1  0  0  0  0
 34 32  1  1  0  0  0
 34 33  1  0  0  0  0
 35 36  1  6  0  0  0
 35 33  1  0  0  0  0
 37 36  1  0  0  0  0
 38 36  1  0  0  0  0
 39 38  2  0  0  0  0
 40 37  2  0  0  0  0
 41 39  1  0  0  0  0
 41 37  1  0  0  0  0
 42 43  1  6  0  0  0
 42 45  1  0  0  0  0
 42 41  1  0  0  0  0
 44 43  1  0  0  0  0
 45 46  1  0  0  0  0
 46 47  1  0  0  0  0
 47 48  1  0  0  0  0
 48 50  1  1  0  0  0
 48 49  1  0  0  0  0
M  END
>  <MODEL>
5

>  <REMARK>
 VINA RESULT:      -5.0      2.133      6.127
  Name = 
  19 active torsions:
  status: ('A' for Active; 'I' for Inactive)
    1  A    between atoms: C_1  and  C_45
    2  A    between atoms: N_4  and  C_32
    3  A    between atoms: C_5  and  C_13
    4  A    between atoms: C_9  and  O_10
    5  A    between atoms: O_10  and  N_50
    6  A    between atoms: C_12  and  C_28
    7  A    between atoms: C_13  and  C_48
    8  A    between atoms: C_14  and  C_20
    9  A    between atoms: C_14  and  N_21
   10  A    between atoms: C_15  and  C_35
   11  A    between atoms: C_16  and  C_25
   12  A    between atoms: C_18  and  C_26
   13  A    between atoms: N_19  and  C_22
   14  A    between atoms: N_19  and  C_45
   15  A    between atoms: N_21  and  C_25
   16  A    between atoms: C_22  and  C_35
   17  A    between atoms: C_35  and  N_44
   18  A    between atoms: N_38  and  N_50
   19  A    between atoms: C_47  and  C_48
                            x       y       z     vdW  Elec       q    Type
                         _______ _______ _______ _____ _____    ______ ____

>  <TORSDO>
F 19

$$$$
=
 OpenBabel11062419223D

 50 54  0  0  1  0  0  0  0  0999 V2000
  193.7530  176.3460  143.8740 N   0  0  0  0  0  0  0  0  0  0  0  0
  194.6670  175.3440  145.7950 C   0  0  2  0  0  3  0  0  0  0  0  0
  193.5430  176.0900  145.1280 C   0  0  0  0  0  0  0  0  0  0  0  0
  192.2480  176.3680  147.1440 O   0  0  0  0  0  1  0  0  0  0  0  0
  195.0090  175.8800  143.4780 N   0  0  0  0  0  2  0  0  0  0  0  0
  192.3460  176.5030  145.8000 N   0  0  0  0  0  0  0  0  0  0  0  0
  196.7590  174.8220  144.6480 O   0  0  0  0  0  0  0  0  0  0  0  0
  195.5950  175.3030  144.6310 C   0  0  0  0  0  0  0  0  0  0  0  0
  192.9440  173.6040  145.3720 C   0  0  0  0  0  2  0  0  0  0  0  0
  194.2710  173.0570  144.8900 C   0  0  1  0  0  3  0  0  0  0  0  0
  194.2140  173.9310  146.1300 C   0  0  1  0  0  3  0  0  0  0  0  0
  195.7510  171.2970  145.7050 O   0  0  0  0  0  0  0  0  0  0  0  0
  194.4180  171.5950  145.3260 C   0  0  2  0  0  3  0  0  0  0  0  0
  196.5710  171.2300  144.5530 C   0  0  0  0  0  2  0  0  0  0  0  0
  194.7330  170.6060  143.1310 O   0  0  0  0  0  0  0  0  0  0  0  0
  196.0170  170.2110  143.5460 C   0  0  0  0  0  2  0  0  0  0  0  0
  193.9200  170.5720  144.2780 C   0  0  2  0  0  3  0  0  0  0  0  0
  192.4590  170.7810  143.9070 C   0  0  0  0  0  2  0  0  0  0  0  0
  192.1980  170.3080  142.4860 C   0  0  1  0  0  3  0  0  0  0  0  0
  192.0290  168.9210  142.4650 O   0  0  0  0  0  1  0  0  0  0  0  0
  190.9770  170.9680  141.9170 C   0  0  0  0  0  0  0  0  0  0  0  0
  190.9070  171.3130  140.5180 N   0  0  0  0  0  0  0  0  0  0  0  0
  189.9820  171.1710  142.6690 O   0  0  0  0  0  0  0  0  0  0  0  0
  189.7500  172.0760  140.0310 C   0  0  2  0  0  3  0  0  0  0  0  0
  189.3330  171.5990  138.6520 C   0  0  0  0  0  1  0  0  0  0  0  0
  189.9480  173.5930  140.0520 C   0  0  0  0  0  2  0  0  0  0  0  0
  188.9600  174.2210  140.8200 O   0  0  0  0  0  1  0  0  0  0  0  0
  192.0440  171.0210  139.6440 C   0  0  0  0  0  2  0  0  0  0  0  0
  192.8810  172.2710  139.4320 C   0  0  0  0  0  2  0  0  0  0  0  0
  192.9670  172.5680  137.9460 C   0  0  0  0  0  1  0  0  0  0  0  0
  191.3240  177.1690  145.1050 N   0  0  0  0  0  2  0  0  0  0  0  0
  190.1610  176.5360  145.3950 O   0  0  0  0  0  0  0  0  0  0  0  0
  188.2120  177.5440  146.2880 C   0  0  0  0  0  2  0  0  0  0  0  0
  189.1640  177.4680  145.1190 C   0  0  2  0  0  3  0  0  0  0  0  0
  187.8220  176.7620  145.0490 C   0  0  2  0  0  3  0  0  0  0  0  0
  186.8810  177.5400  144.2540 N   0  0  0  0  0  0  0  0  0  0  0  0
  186.1910  177.0850  143.1320 C   0  0  0  0  0  0  0  0  0  0  0  0
  186.2250  178.6850  144.7560 N   0  0  0  0  0  0  0  0  0  0  0  0
  185.1380  178.9700  143.8690 N   0  0  0  0  0  0  0  0  0  0  0  0
  186.4600  176.0450  142.4740 O   0  0  0  0  0  0  0  0  0  0  0  0
  185.1270  177.9510  142.8910 N   0  0  0  0  0  0  0  0  0  0  0  0
  184.2050  177.8870  141.7530 C   0  0  2  0  0  3  0  0  0  0  0  0
  184.7980  178.5490  140.5140 C   0  0  0  0  0  2  0  0  0  0  0  0
  185.5120  177.6040  139.7650 O   0  0  0  0  0  1  0  0  0  0  0  0
  182.8440  178.4870  142.1110 C   0  0  0  0  0  2  0  0  0  0  0  0
  182.0120  178.6500  140.9270 N   0  0  0  0  0  2  0  0  0  0  0  0
  180.6430  178.3950  141.3540 C   0  0  0  0  0  2  0  0  0  0  0  0
  179.6460  179.1550  140.4900 C   0  0  2  0  0  3  0  0  0  0  0  0
  179.9920  180.5030  140.4110 O   0  0  0  0  0  1  0  0  0  0  0  0
  178.2360  179.0170  141.0370 C   0  0  0  0  0  1  0  0  0  0  0  0
  1  3  2  0  0  0  0
  2  8  1  6  0  0  0
  2 11  1  0  0  0  0
  3  2  1  0  0  0  0
  3  6  1  0  0  0  0
  5  1  1  0  0  0  0
  5  8  1  0  0  0  0
  6  4  1  0  0  0  0
  8  7  2  0  0  0  0
 10 13  1  0  0  0  0
 10  9  1  1  0  0  0
 10 11  1  0  0  0  0
 11  9  1  6  0  0  0
 13 12  1  6  0  0  0
 14 12  1  0  0  0  0
 15 16  1  0  0  0  0
 15 17  1  0  0  0  0
 16 14  1  0  0  0  0
 17 18  1  6  0  0  0
 17 13  1  0  0  0  0
 19 20  1  1  0  0  0
 19 18  1  0  0  0  0
 21 19  1  0  0  0  0
 21 23  2  0  0  0  0
 22 21  1  0  0  0  0
 24 25  1  6  0  0  0
 24 26  1  0  0  0  0
 24 22  1  0  0  0  0
 26 27  1  0  0  0  0
 28 22  1  0  0  0  0
 29 28  1  0  0  0  0
 30 29  1  0  0  0  0
 31 32  1  0  0  0  0
 31  6  1  0  0  0  0
 34 32  1  1  0  0  0
 34 33  1  0  0  0  0
 35 36  1  6  0  0  0
 35 34  1  0  0  0  0
 35 33  1  0  0  0  0
 36 38  1  0  0  0  0
 37 36  1  0  0  0  0
 39 38  2  0  0  0  0
 40 37  2  0  0  0  0
 41 37  1  0  0  0  0
 41 39  1  0  0  0  0
 42 43  1  6  0  0  0
 42 45  1  0  0  0  0
 42 41  1  0  0  0  0
 44 43  1  0  0  0  0
 46 47  1  0  0  0  0
 46 45  1  0  0  0  0
 48 50  1  1  0  0  0
 48 47  1  0  0  0  0
 49 48  1  0  0  0  0
M  END
>  <MODEL>
6

>  <REMARK>
 VINA RESULT:      -4.6      2.940      7.095
  Name = 
  19 active torsions:
  status: ('A' for Active; 'I' for Inactive)
    1  A    between atoms: C_1  and  C_45
    2  A    between atoms: N_4  and  C_32
    3  A    between atoms: C_5  and  C_13
    4  A    between atoms: C_9  and  O_10
    5  A    between atoms: O_10  and  N_50
    6  A    between atoms: C_12  and  C_28
    7  A    between atoms: C_13  and  C_48
    8  A    between atoms: C_14  and  C_20
    9  A    between atoms: C_14  and  N_21
   10  A    between atoms: C_15  and  C_35
   11  A    between atoms: C_16  and  C_25
   12  A    between atoms: C_18  and  C_26
   13  A    between atoms: N_19  and  C_22
   14  A    between atoms: N_19  and  C_45
   15  A    between atoms: N_21  and  C_25
   16  A    between atoms: C_22  and  C_35
   17  A    between atoms: C_35  and  N_44
   18  A    between atoms: N_38  and  N_50
   19  A    between atoms: C_47  and  C_48
                            x       y       z     vdW  Elec       q    Type
                         _______ _______ _______ _____ _____    ______ ____

>  <TORSDO>
F 19

$$$$
=
 OpenBabel11062419223D

 50 54  0  0  1  0  0  0  0  0999 V2000
  196.0750  174.5420  145.7980 N   0  0  0  0  0  0  0  0  0  0  0  0
  195.8490  172.8210  144.2110 C   0  0  2  0  0  3  0  0  0  0  0  0
  195.4450  174.1780  144.7230 C   0  0  0  0  0  0  0  0  0  0  0  0
  193.7010  174.5100  143.0910 O   0  0  0  0  0  1  0  0  0  0  0  0
  196.9530  173.5410  146.2200 N   0  0  0  0  0  2  0  0  0  0  0  0
  194.4510  175.0040  144.1050 N   0  0  0  0  0  0  0  0  0  0  0  0
  197.4210  171.3820  145.4030 O   0  0  0  0  0  0  0  0  0  0  0  0
  196.8070  172.4760  145.2980 C   0  0  0  0  0  0  0  0  0  0  0  0
  196.6240  171.6550  142.1580 C   0  0  0  0  0  2  0  0  0  0  0  0
  195.6710  172.7490  141.7270 C   0  0  1  0  0  3  0  0  0  0  0  0
  196.6060  172.9750  142.9010 C   0  0  1  0  0  3  0  0  0  0  0  0
  196.4440  174.8540  140.7660 O   0  0  0  0  0  0  0  0  0  0  0  0
  196.2350  173.4770  140.5020 C   0  0  2  0  0  3  0  0  0  0  0  0
  195.1980  175.5240  140.8200 C   0  0  0  0  0  2  0  0  0  0  0  0
  194.1360  173.9280  139.3660 O   0  0  0  0  0  0  0  0  0  0  0  0
  194.3980  175.2990  139.5280 C   0  0  0  0  0  2  0  0  0  0  0  0
  195.3870  173.3020  139.2200 C   0  0  2  0  0  3  0  0  0  0  0  0
  195.2150  171.8420  138.8290 C   0  0  0  0  0  2  0  0  0  0  0  0
  193.7440  171.5130  138.6320 C   0  0  1  0  0  3  0  0  0  0  0  0
  193.5710  170.7690  137.4630 O   0  0  0  0  0  1  0  0  0  0  0  0
  193.2050  170.7400  139.8000 C   0  0  0  0  0  0  0  0  0  0  0  0
  191.8790  170.9940  140.3060 N   0  0  0  0  0  0  0  0  0  0  0  0
  193.9100  169.8210  140.3050 O   0  0  0  0  0  0  0  0  0  0  0  0
  191.4420  170.3110  141.5310 C   0  0  2  0  0  3  0  0  0  0  0  0
  190.8230  168.9640  141.2030 C   0  0  0  0  0  1  0  0  0  0  0  0
  190.5120  171.1440  142.4150 C   0  0  0  0  0  2  0  0  0  0  0  0
  191.2340  172.0670  143.1800 O   0  0  0  0  0  1  0  0  0  0  0  0
  191.0500  172.0230  139.6770 C   0  0  0  0  0  2  0  0  0  0  0  0
  189.9410  171.3810  138.8590 C   0  0  0  0  0  2  0  0  0  0  0  0
  188.8780  172.4210  138.5570 C   0  0  0  0  0  1  0  0  0  0  0  0
  194.1490  176.2740  144.6210 N   0  0  0  0  0  2  0  0  0  0  0  0
  193.0950  176.1280  145.4610 O   0  0  0  0  0  0  0  0  0  0  0  0
  190.8850  176.9010  145.8270 C   0  0  0  0  0  2  0  0  0  0  0  0
  192.0750  176.8900  144.8970 C   0  0  2  0  0  3  0  0  0  0  0  0
  190.8810  175.9980  144.6090 C   0  0  2  0  0  3  0  0  0  0  0  0
  190.0500  176.5840  143.5660 N   0  0  0  0  0  0  0  0  0  0  0  0
  188.6640  176.4800  143.4740 C   0  0  0  0  0  0  0  0  0  0  0  0
  190.4760  177.6740  142.7760 N   0  0  0  0  0  0  0  0  0  0  0  0
  189.3140  178.2080  142.1340 N   0  0  0  0  0  0  0  0  0  0  0  0
  187.9440  175.6610  144.1040 O   0  0  0  0  0  0  0  0  0  0  0  0
  188.2070  177.4670  142.6030 N   0  0  0  0  0  0  0  0  0  0  0  0
  186.8230  177.6490  142.1580 C   0  0  2  0  0  3  0  0  0  0  0  0
  186.6740  177.3700  140.6660 C   0  0  0  0  0  2  0  0  0  0  0  0
  187.4160  176.2330  140.3170 O   0  0  0  0  0  1  0  0  0  0  0  0
  186.3040  179.0410  142.5210 C   0  0  0  0  0  2  0  0  0  0  0  0
  186.2430  179.2210  143.9650 N   0  0  0  0  0  2  0  0  0  0  0  0
  185.4350  178.1220  144.4780 C   0  0  0  0  0  2  0  0  0  0  0  0
  185.5100  178.0460  145.9970 C   0  0  2  0  0  3  0  0  0  0  0  0
  186.8370  178.0630  146.4240 O   0  0  0  0  0  1  0  0  0  0  0  0
  184.8200  176.7960  146.5130 C   0  0  0  0  0  1  0  0  0  0  0  0
  1  5  1  0  0  0  0
  2  3  1  1  0  0  0
  2  8  1  0  0  0  0
  3  1  2  0  0  0  0
  4  6  1  0  0  0  0
  6 31  1  0  0  0  0
  6  3  1  0  0  0  0
  8  7  2  0  0  0  0
  8  5  1  0  0  0  0
 10  9  1  6  0  0  0
 10 11  1  0  0  0  0
 11  9  1  1  0  0  0
 11  2  1  0  0  0  0
 12 14  1  0  0  0  0
 13 12  1  1  0  0  0
 13 10  1  0  0  0  0
 15 16  1  0  0  0  0
 16 14  1  0  0  0  0
 17 18  1  1  0  0  0
 17 15  1  0  0  0  0
 17 13  1  0  0  0  0
 19 20  1  6  0  0  0
 19 18  1  0  0  0  0
 19 21  1  0  0  0  0
 21 23  2  0  0  0  0
 21 22  1  0  0  0  0
 22 24  1  0  0  0  0
 24 25  1  6  0  0  0
 24 26  1  0  0  0  0
 26 27  1  0  0  0  0
 28 22  1  0  0  0  0
 29 28  1  0  0  0  0
 30 29  1  0  0  0  0
 31 32  1  0  0  0  0
 34 32  1  1  0  0  0
 34 33  1  0  0  0  0
 35 36  1  6  0  0  0
 35 34  1  0  0  0  0
 35 33  1  0  0  0  0
 37 36  1  0  0  0  0
 37 40  2  0  0  0  0
 38 36  1  0  0  0  0
 39 41  1  0  0  0  0
 39 38  2  0  0  0  0
 41 37  1  0  0  0  0
 42 43  1  6  0  0  0
 42 45  1  0  0  0  0
 42 41  1  0  0  0  0
 44 43  1  0  0  0  0
 45 46  1  0  0  0  0
 46 47  1  0  0  0  0
 47 48  1  0  0  0  0
 48 49  1  0  0  0  0
 48 50  1  6  0  0  0
M  END
>  <MODEL>
7

>  <REMARK>
 VINA RESULT:      -4.6      2.204      6.474
  Name = 
  19 active torsions:
  status: ('A' for Active; 'I' for Inactive)
    1  A    between atoms: C_1  and  C_45
    2  A    between atoms: N_4  and  C_32
    3  A    between atoms: C_5  and  C_13
    4  A    between atoms: C_9  and  O_10
    5  A    between atoms: O_10  and  N_50
    6  A    between atoms: C_12  and  C_28
    7  A    between atoms: C_13  and  C_48
    8  A    between atoms: C_14  and  C_20
    9  A    between atoms: C_14  and  N_21
   10  A    between atoms: C_15  and  C_35
   11  A    between atoms: C_16  and  C_25
   12  A    between atoms: C_18  and  C_26
   13  A    between atoms: N_19  and  C_22
   14  A    between atoms: N_19  and  C_45
   15  A    between atoms: N_21  and  C_25
   16  A    between atoms: C_22  and  C_35
   17  A    between atoms: C_35  and  N_44
   18  A    between atoms: N_38  and  N_50
   19  A    between atoms: C_47  and  C_48
                            x       y       z     vdW  Elec       q    Type
                         _______ _______ _______ _____ _____    ______ ____

>  <TORSDO>
F 19

$$$$
=
 OpenBabel11062419223D

 50 54  0  0  1  0  0  0  0  0999 V2000
  188.7000  173.9660  137.7350 N   0  0  0  0  0  0  0  0  0  0  0  0
  191.0270  173.6420  137.8300 C   0  0  2  0  0  3  0  0  0  0  0  0
  189.7070  173.8010  138.5370 C   0  0  0  0  0  0  0  0  0  0  0  0
  190.6510  173.7880  140.7560 O   0  0  0  0  0  1  0  0  0  0  0  0
  189.1240  173.9850  136.4050 N   0  0  0  0  0  2  0  0  0  0  0  0
  189.5540  173.7890  139.9610 N   0  0  0  0  0  0  0  0  0  0  0  0
  191.2540  173.8490  135.4080 O   0  0  0  0  0  0  0  0  0  0  0  0
  190.5310  173.8290  136.4390 C   0  0  0  0  0  0  0  0  0  0  0  0
  192.8160  172.0260  137.2260 C   0  0  0  0  0  2  0  0  0  0  0  0
  192.8610  172.2140  138.7280 C   0  0  1  0  0  3  0  0  0  0  0  0
  191.5280  172.2160  138.0010 C   0  0  1  0  0  3  0  0  0  0  0  0
  192.1470  170.6990  140.5020 O   0  0  0  0  0  0  0  0  0  0  0  0
  193.0430  170.8560  139.4150 C   0  0  2  0  0  3  0  0  0  0  0  0
  192.5630  171.5110  141.5840 C   0  0  0  0  0  2  0  0  0  0  0  0
  194.8690  171.4580  140.8990 O   0  0  0  0  0  0  0  0  0  0  0  0
  194.0120  171.1930  141.9820 C   0  0  0  0  0  2  0  0  0  0  0  0
  194.4930  170.5720  139.8730 C   0  0  2  0  0  3  0  0  0  0  0  0
  195.4890  170.6260  138.7250 C   0  0  0  0  0  2  0  0  0  0  0  0
  196.5600  171.6700  138.9970 C   0  0  1  0  0  3  0  0  0  0  0  0
  197.8290  171.1070  138.8450 O   0  0  0  0  0  1  0  0  0  0  0  0
  196.4180  172.8400  138.0690 C   0  0  0  0  0  0  0  0  0  0  0  0
  196.3690  174.1880  138.5800 N   0  0  0  0  0  0  0  0  0  0  0  0
  196.3970  172.6340  136.8220 O   0  0  0  0  0  0  0  0  0  0  0  0
  196.0960  175.2910  137.6490 C   0  0  2  0  0  3  0  0  0  0  0  0
  194.7990  175.0530  136.8980 C   0  0  0  0  0  1  0  0  0  0  0  0
  197.2440  175.5930  136.6830 C   0  0  0  0  0  2  0  0  0  0  0  0
  196.8510  176.5100  135.7020 O   0  0  0  0  0  1  0  0  0  0  0  0
  196.4520  174.4180  140.0230 C   0  0  0  0  0  2  0  0  0  0  0  0
  195.5190  175.5460  140.4320 C   0  0  0  0  0  2  0  0  0  0  0  0
  194.1700  174.9630  140.8120 C   0  0  0  0  0  1  0  0  0  0  0  0
  188.2860  173.9110  140.5500 N   0  0  0  0  0  2  0  0  0  0  0  0
  188.0590  175.2320  140.7490 O   0  0  0  0  0  0  0  0  0  0  0  0
  187.2840  176.6680  142.4670 C   0  0  0  0  0  2  0  0  0  0  0  0
  188.0040  175.3840  142.1330 C   0  0  2  0  0  3  0  0  0  0  0  0
  188.7980  176.6130  142.5350 C   0  0  2  0  0  3  0  0  0  0  0  0
  189.2230  176.5100  143.9250 N   0  0  0  0  0  0  0  0  0  0  0  0
  190.4170  175.9490  144.3720 C   0  0  0  0  0  0  0  0  0  0  0  0
  188.7000  177.3340  144.9440 N   0  0  0  0  0  0  0  0  0  0  0  0
  189.5760  177.2180  146.0700 N   0  0  0  0  0  0  0  0  0  0  0  0
  191.1850  175.2160  143.6940 O   0  0  0  0  0  0  0  0  0  0  0  0
  190.6400  176.3770  145.6790 N   0  0  0  0  0  0  0  0  0  0  0  0
  191.7380  175.9470  146.5500 C   0  0  2  0  0  3  0  0  0  0  0  0
  191.3060  175.8980  148.0120 C   0  0  0  0  0  2  0  0  0  0  0  0
  191.5730  177.1280  148.6280 O   0  0  0  0  0  1  0  0  0  0  0  0
  192.9720  176.8300  146.3610 C   0  0  0  0  0  2  0  0  0  0  0  0
  194.1960  176.0970  146.6520 N   0  0  0  0  0  2  0  0  0  0  0  0
  194.2680  175.0220  145.6710 C   0  0  0  0  0  2  0  0  0  0  0  0
  195.5860  175.0600  144.9080 C   0  0  2  0  0  3  0  0  0  0  0  0
  195.6760  176.2220  144.1410 O   0  0  0  0  0  1  0  0  0  0  0  0
  195.7340  173.8410  144.0150 C   0  0  0  0  0  1  0  0  0  0  0  0
  1  3  2  0  0  0  0
  2  8  1  6  0  0  0
  2 11  1  0  0  0  0
  2  3  1  0  0  0  0
  3  6  1  0  0  0  0
  5  8  1  0  0  0  0
  5  1  1  0  0  0  0
  6 31  1  0  0  0  0
  6  4  1  0  0  0  0
  7  8  2  0  0  0  0
 10  9  1  6  0  0  0
 10 13  1  0  0  0  0
 11  9  1  6  0  0  0
 11 10  1  0  0  0  0
 12 14  1  0  0  0  0
 13 17  1  0  0  0  0
 13 12  1  1  0  0  0
 14 16  1  0  0  0  0
 15 16  1  0  0  0  0
 17 18  1  6  0  0  0
 17 15  1  0  0  0  0
 18 19  1  0  0  0  0
 19 20  1  6  0  0  0
 21 22  1  0  0  0  0
 21 19  1  0  0  0  0
 22 28  1  0  0  0  0
 23 21  2  0  0  0  0
 24 25  1  6  0  0  0
 24 22  1  0  0  0  0
 26 24  1  0  0  0  0
 27 26  1  0  0  0  0
 28 29  1  0  0  0  0
 29 30  1  0  0  0  0
 31 32  1  0  0  0  0
 34 32  1  6  0  0  0
 34 33  1  0  0  0  0
 34 35  1  0  0  0  0
 35 33  1  1  0  0  0
 35 36  1  0  0  0  0
 36 37  1  0  0  0  0
 36 38  1  0  0  0  0
 37 41  1  0  0  0  0
 38 39  2  0  0  0  0
 40 37  2  0  0  0  0
 41 39  1  0  0  0  0
 41 42  1  0  0  0  0
 42 45  1  1  0  0  0
 42 43  1  0  0  0  0
 43 44  1  0  0  0  0
 45 46  1  0  0  0  0
 47 46  1  0  0  0  0
 48 50  1  6  0  0  0
 48 47  1  0  0  0  0
 49 48  1  0  0  0  0
M  END
>  <MODEL>
8

>  <REMARK>
 VINA RESULT:      -4.6      2.505      4.210
  Name = 
  19 active torsions:
  status: ('A' for Active; 'I' for Inactive)
    1  A    between atoms: C_1  and  C_45
    2  A    between atoms: N_4  and  C_32
    3  A    between atoms: C_5  and  C_13
    4  A    between atoms: C_9  and  O_10
    5  A    between atoms: O_10  and  N_50
    6  A    between atoms: C_12  and  C_28
    7  A    between atoms: C_13  and  C_48
    8  A    between atoms: C_14  and  C_20
    9  A    between atoms: C_14  and  N_21
   10  A    between atoms: C_15  and  C_35
   11  A    between atoms: C_16  and  C_25
   12  A    between atoms: C_18  and  C_26
   13  A    between atoms: N_19  and  C_22
   14  A    between atoms: N_19  and  C_45
   15  A    between atoms: N_21  and  C_25
   16  A    between atoms: C_22  and  C_35
   17  A    between atoms: C_35  and  N_44
   18  A    between atoms: N_38  and  N_50
   19  A    between atoms: C_47  and  C_48
                            x       y       z     vdW  Elec       q    Type
                         _______ _______ _______ _____ _____    ______ ____

>  <TORSDO>
F 19

$$$$
=
 OpenBabel11062419223D

 50 54  0  0  1  0  0  0  0  0999 V2000
  194.9030  172.1270  145.4010 N   0  0  0  0  0  0  0  0  0  0  0  0
  193.9170  171.9410  143.2740 C   0  0  2  0  0  3  0  0  0  0  0  0
  194.7820  172.7010  144.2440 C   0  0  0  0  0  0  0  0  0  0  0  0
  195.1190  174.5950  142.7890 O   0  0  0  0  0  1  0  0  0  0  0  0
  194.1540  170.9490  145.4490 N   0  0  0  0  0  2  0  0  0  0  0  0
  195.4140  173.9520  143.9440 N   0  0  0  0  0  0  0  0  0  0  0  0
  192.7230  169.9040  143.8970 O   0  0  0  0  0  0  0  0  0  0  0  0
  193.5210  170.8340  144.1870 C   0  0  0  0  0  0  0  0  0  0  0  0
  193.9190  170.5970  141.1830 C   0  0  0  0  0  2  0  0  0  0  0  0
  194.3680  171.9970  140.8240 C   0  0  1  0  0  3  0  0  0  0  0  0
  194.7790  171.3840  142.1510 C   0  0  1  0  0  3  0  0  0  0  0  0
  196.5420  172.9000  140.1810 O   0  0  0  0  0  0  0  0  0  0  0  0
  195.5600  171.9290  139.8620 C   0  0  2  0  0  3  0  0  0  0  0  0
  196.0790  174.1860  139.8110 C   0  0  0  0  0  2  0  0  0  0  0  0
  194.6510  173.3110  138.0830 O   0  0  0  0  0  0  0  0  0  0  0  0
  195.6930  174.2220  138.3250 C   0  0  0  0  0  2  0  0  0  0  0  0
  195.1690  172.0350  138.3690 C   0  0  2  0  0  3  0  0  0  0  0  0
  194.1910  170.9500  137.9430 C   0  0  0  0  0  2  0  0  0  0  0  0
  192.9380  171.5690  137.3430 C   0  0  1  0  0  3  0  0  0  0  0  0
  192.7440  171.0950  136.0440 O   0  0  0  0  0  1  0  0  0  0  0  0
  191.7310  171.2510  138.1770 C   0  0  0  0  0  0  0  0  0  0  0  0
  190.9160  172.3050  138.7290 N   0  0  0  0  0  0  0  0  0  0  0  0
  191.4030  170.0430  138.3450 O   0  0  0  0  0  0  0  0  0  0  0  0
  189.8250  171.9530  139.6460 C   0  0  2  0  0  3  0  0  0  0  0  0
  188.5430  172.6660  139.2560 C   0  0  0  0  0  1  0  0  0  0  0  0
  190.1520  172.1780  141.1240 C   0  0  0  0  0  2  0  0  0  0  0  0
  190.4350  170.9680  141.7690 O   0  0  0  0  0  1  0  0  0  0  0  0
  191.2740  173.7020  138.4800 C   0  0  0  0  0  2  0  0  0  0  0  0
  190.7000  174.1650  137.1510 C   0  0  0  0  0  2  0  0  0  0  0  0
  191.8030  174.8070  136.3290 C   0  0  0  0  0  1  0  0  0  0  0  0
  196.2340  174.5890  144.8890 N   0  0  0  0  0  2  0  0  0  0  0  0
  195.4310  175.0270  145.8890 O   0  0  0  0  0  0  0  0  0  0  0  0
  194.0290  176.8920  146.3020 C   0  0  0  0  0  2  0  0  0  0  0  0
  194.5420  175.9090  145.2780 C   0  0  2  0  0  3  0  0  0  0  0  0
  193.1600  175.7250  145.8770 C   0  0  2  0  0  3  0  0  0  0  0  0
  192.1380  176.1860  144.9470 N   0  0  0  0  0  0  0  0  0  0  0  0
  190.8860  175.6070  144.7580 C   0  0  0  0  0  0  0  0  0  0  0  0
  192.1070  177.5050  144.4430 N   0  0  0  0  0  0  0  0  0  0  0  0
  190.8100  177.7070  143.8730 N   0  0  0  0  0  0  0  0  0  0  0  0
  190.5380  174.4610  145.1500 O   0  0  0  0  0  0  0  0  0  0  0  0
  190.0700  176.5280  144.1050 N   0  0  0  0  0  0  0  0  0  0  0  0
  188.7030  176.2860  143.6350 C   0  0  2  0  0  3  0  0  0  0  0  0
  188.6870  175.7400  142.2120 C   0  0  0  0  0  2  0  0  0  0  0  0
  187.8110  174.6500  142.1290 O   0  0  0  0  0  1  0  0  0  0  0  0
  187.8450  177.5470  143.7600 C   0  0  0  0  0  2  0  0  0  0  0  0
  187.5730  177.8640  145.1550 N   0  0  0  0  0  2  0  0  0  0  0  0
  186.3310  178.6250  145.1640 C   0  0  0  0  0  2  0  0  0  0  0  0
  185.4690  178.2590  146.3640 C   0  0  2  0  0  3  0  0  0  0  0  0
  185.5410  176.8900  146.6210 O   0  0  0  0  0  1  0  0  0  0  0  0
  184.0230  178.6640  146.1400 C   0  0  0  0  0  1  0  0  0  0  0  0
  1  5  1  0  0  0  0
  2  8  1  1  0  0  0
  2  3  1  0  0  0  0
  3  1  2  0  0  0  0
  4  6  1  0  0  0  0
  6  3  1  0  0  0  0
  6 31  1  0  0  0  0
  7  8  2  0  0  0  0
  8  5  1  0  0  0  0
 10  9  1  6  0  0  0
 10 11  1  0  0  0  0
 11  9  1  6  0  0  0
 11  2  1  0  0  0  0
 13 12  1  1  0  0  0
 13 10  1  0  0  0  0
 14 12  1  0  0  0  0
 15 16  1  0  0  0  0
 15 17  1  0  0  0  0
 16 14  1  0  0  0  0
 17 18  1  1  0  0  0
 17 13  1  0  0  0  0
 19 20  1  6  0  0  0
 19 18  1  0  0  0  0
 19 21  1  0  0  0  0
 21 23  2  0  0  0  0
 21 22  1  0  0  0  0
 22 24  1  0  0  0  0
 24 25  1  6  0  0  0
 24 26  1  0  0  0  0
 26 27  1  0  0  0  0
 28 22  1  0  0  0  0
 29 28  1  0  0  0  0
 30 29  1  0  0  0  0
 31 32  1  0  0  0  0
 34 35  1  0  0  0  0
 34 32  1  1  0  0  0
 34 33  1  0  0  0  0
 35 36  1  6  0  0  0
 35 33  1  0  0  0  0
 37 36  1  0  0  0  0
 37 40  2  0  0  0  0
 38 36  1  0  0  0  0
 39 41  1  0  0  0  0
 39 38  2  0  0  0  0
 41 37  1  0  0  0  0
 42 43  1  6  0  0  0
 42 45  1  0  0  0  0
 42 41  1  0  0  0  0
 44 43  1  0  0  0  0
 45 46  1  0  0  0  0
 46 47  1  0  0  0  0
 47 48  1  0  0  0  0
 48 50  1  6  0  0  0
 48 49  1  0  0  0  0
M  END
>  <MODEL>
9

>  <REMARK>
 VINA RESULT:      -4.6      2.184      6.774
  Name = 
  19 active torsions:
  status: ('A' for Active; 'I' for Inactive)
    1  A    between atoms: C_1  and  C_45
    2  A    between atoms: N_4  and  C_32
    3  A    between atoms: C_5  and  C_13
    4  A    between atoms: C_9  and  O_10
    5  A    between atoms: O_10  and  N_50
    6  A    between atoms: C_12  and  C_28
    7  A    between atoms: C_13  and  C_48
    8  A    between atoms: C_14  and  C_20
    9  A    between atoms: C_14  and  N_21
   10  A    between atoms: C_15  and  C_35
   11  A    between atoms: C_16  and  C_25
   12  A    between atoms: C_18  and  C_26
   13  A    between atoms: N_19  and  C_22
   14  A    between atoms: N_19  and  C_45
   15  A    between atoms: N_21  and  C_25
   16  A    between atoms: C_22  and  C_35
   17  A    between atoms: C_35  and  N_44
   18  A    between atoms: N_38  and  N_50
   19  A    between atoms: C_47  and  C_48
                            x       y       z     vdW  Elec       q    Type
                         _______ _______ _______ _____ _____    ______ ____

>  <TORSDO>
F 19

$$$$
