=
 OpenBabel11062419493D

 46 49  0  0  1  0  0  0  0  0999 V2000
  190.3550  176.8300  143.5830 C   0  0  0  0  0  0  0  0  0  0  0  0
  189.4120  173.6840  143.8420 O   0  0  0  0  0  0  0  0  0  0  0  0
  193.3630  173.6840  140.1460 C   0  0  0  0  0  2  0  0  0  0  0  0
  190.8140  171.0400  143.2760 O   0  0  0  0  0  0  0  0  0  0  0  0
  189.7260  174.7010  142.9140 C   0  0  1  0  0  0  0  0  0  0  0  0
  190.8890  171.8620  142.3220 C   0  0  0  0  0  0  0  0  0  0  0  0
  189.1080  176.0140  143.3490 C   0  0  2  0  0  3  0  0  0  0  0  0
  191.6220  176.0430  143.2740 C   0  0  2  0  0  3  0  0  0  0  0  0
  191.5140  174.7080  141.3280 C   0  0  0  0  0  2  0  0  0  0  0  0
  190.3710  178.3150  143.2790 C   0  0  0  0  0  2  0  0  0  0  0  0
  190.3280  177.8270  144.7230 C   0  0  0  0  0  2  0  0  0  0  0  0
  193.2340  171.3980  141.9130 C   0  0  0  0  0  2  0  0  0  0  0  0
  192.2060  172.2320  141.7530 C   0  0  0  0  0  0  0  0  0  0  0  0
  192.4080  173.5360  141.0590 C   0  0  0  0  0  0  0  0  0  0  0  0
  189.6250  172.4210  141.7350 C   0  0  0  0  0  2  0  0  0  0  0  0
  191.1860  174.7480  142.7460 N   0  0  2  0  0  0  0  0  0  0  0  0
  188.8950  173.5110  142.5450 C   0  0  1  0  0  3  0  0  0  0  0  0
  193.3560  176.8380  144.9390 N   0  0  0  0  0  2  0  0  0  0  0  0
  194.7740  177.5830  146.6210 O   0  0  0  0  0  0  0  0  0  0  0  0
  192.4610  175.8130  144.4950 C   0  0  0  0  0  0  0  0  0  0  0  0
  194.3940  176.6230  145.9030 C   0  0  0  0  0  0  0  0  0  0  0  0
  192.3470  174.7370  145.1440 O   0  0  0  0  0  0  0  0  0  0  0  0
  195.8470  174.7830  145.2590 C   0  0  0  0  0  0  0  0  0  0  0  0
  194.9930  175.3310  146.0800 N   0  0  0  0  0  0  0  0  0  0  0  0
  197.0780  173.2680  146.6270 O   0  0  0  0  0  1  0  0  0  0  0  0
  196.2920  173.3710  145.4750 C   0  0  1  0  0  3  0  0  0  0  0  0
  195.0760  172.4580  145.5810 C   0  0  0  0  0  2  0  0  0  0  0  0
  195.3520  171.0830  144.9870 C   0  0  1  0  0  3  0  0  0  0  0  0
  196.4130  171.1870  144.0000 N   0  0  0  0  0  1  0  0  0  0  0  0
  195.7470  170.1080  146.0480 C   0  0  0  0  0  0  0  0  0  0  0  0
  197.0870  169.8920  146.3490 O   0  0  0  0  0  0  0  0  0  0  0  0
  194.8570  169.4990  146.6990 O   0  0  0  0  0  1  0  0  0  0  0  0
  196.3780  175.5090  144.0570 C   0  0  0  0  0  2  0  0  0  0  0  0
  195.2250  176.2110  141.9670 C   0  0  0  0  0  1  0  0  0  0  0  0
  196.6860  174.2180  141.9680 C   0  0  0  0  0  1  0  0  0  0  0  0
  195.7000  175.0260  142.7850 C   0  0  0  0  0  3  0  0  0  0  0  0
  188.2670  176.5760  142.2090 C   0  0  0  0  0  2  0  0  0  0  0  0
  186.8440  176.8560  142.6860 C   0  0  2  0  0  3  0  0  0  0  0  0
  186.7330  177.4460  140.2470 C   0  0  0  0  0  1  0  0  0  0  0  0
  185.9380  177.2840  141.5300 C   0  0  2  0  0  3  0  0  0  0  0  0
  185.2650  178.4730  141.8300 O   0  0  0  0  0  1  0  0  0  0  0  0
  186.8610  177.9200  143.7800 C   0  0  0  0  0  2  0  0  0  0  0  0
  186.1810  177.4360  145.0170 C   0  0  0  0  0  0  0  0  0  0  0  0
  184.9370  177.5820  145.1600 O   0  0  0  0  0  0  0  0  0  0  0  0
  186.9480  176.7850  146.0420 C   0  0  0  0  0  0  0  0  0  0  0  0
  187.5890  176.2350  146.9030 C   0  0  0  0  0  3  0  0  0  0  0  0
  1 11  1  0  0  0  0
  3 14  2  0  0  0  0
  5  7  1  0  0  0  0
  5  2  1  1  0  0  0
  6  4  2  0  0  0  0
  7 37  1  6  0  0  0
  7  1  1  0  0  0  0
  8  1  1  0  0  0  0
  8 20  1  1  0  0  0
 10  1  1  0  0  0  0
 10 11  1  0  0  0  0
 13 12  2  0  0  0  0
 13  6  1  0  0  0  0
 14  9  1  0  0  0  0
 14 13  1  0  0  0  0
 15  6  1  0  0  0  0
 16  9  1  6  0  0  0
 16  5  1  0  0  0  0
 16  8  1  0  0  0  0
 17 15  1  6  0  0  0
 17  5  1  0  0  0  0
 17  2  1  0  0  0  0
 18 21  1  0  0  0  0
 20 18  1  0  0  0  0
 20 22  2  0  0  0  0
 21 24  1  0  0  0  0
 21 19  2  0  0  0  0
 23 26  1  0  0  0  0
 23 24  2  0  0  0  0
 26 27  1  0  0  0  0
 26 25  1  1  0  0  0
 28 29  1  6  0  0  0
 28 27  1  0  0  0  0
 28 30  1  0  0  0  0
 30 31  2  0  0  0  0
 30 32  1  0  0  0  0
 33 23  1  0  0  0  0
 34 36  1  0  0  0  0
 35 36  1  0  0  0  0
 36 33  1  0  0  0  0
 38 37  1  6  0  0  0
 38 42  1  0  0  0  0
 40 39  1  6  0  0  0
 40 41  1  0  0  0  0
 40 38  1  0  0  0  0
 42 43  1  0  0  0  0
 43 44  2  0  0  0  0
 43 45  1  0  0  0  0
 45 46  3  0  0  0  0
M  END
>  <MODEL>
1

>  <REMARK>
 VINA RESULT:      -6.7      0.000      0.000
  Name = 
  14 active torsions:
  status: ('A' for Active; 'I' for Inactive)
    1  A    between atoms: C_5  and  C_35
    2  A    between atoms: C_8  and  C_11
    3  A    between atoms: C_8  and  C_35
    4  A    between atoms: C_11  and  C_12
    5  A    between atoms: C_15  and  CA_39
    6  A    between atoms: C_17  and  C_30
    7  A    between atoms: C_17  and  CA_39
    8  A    between atoms: C_20  and  C_27
    9  A    between atoms: C_22  and  C_31
   10  A    between atoms: C_24  and  C_30
   11  A    between atoms: C_24  and  C_34
   12  A    between atoms: C_27  and  C_35
   13  A    between atoms: C_33  and  N_42
   14  A    between atoms: C_34  and  C_38
                            x       y       z     vdW  Elec       q    Type
                         _______ _______ _______ _____ _____    ______ ____

>  <TORSDO>
F 14

$$$$
=
 OpenBabel11062419493D

 46 49  0  0  1  0  0  0  0  0999 V2000
  190.4670  172.9070  143.2590 C   0  0  0  0  0  0  0  0  0  0  0  0
  192.0120  174.3820  140.7510 O   0  0  0  0  0  0  0  0  0  0  0  0
  189.7500  169.9530  138.6200 C   0  0  0  0  0  2  0  0  0  0  0  0
  191.6070  174.3170  137.7330 O   0  0  0  0  0  0  0  0  0  0  0  0
  191.8010  173.1330  141.3770 C   0  0  1  0  0  0  0  0  0  0  0  0
  191.6700  173.1710  138.2560 C   0  0  0  0  0  0  0  0  0  0  0  0
  191.8780  173.2840  142.8830 C   0  0  2  0  0  3  0  0  0  0  0  0
  189.6290  172.5320  142.0440 C   0  0  2  0  0  3  0  0  0  0  0  0
  190.7450  171.2060  140.4380 C   0  0  0  0  0  2  0  0  0  0  0  0
  190.1880  172.1620  144.5490 C   0  0  0  0  0  2  0  0  0  0  0  0
  189.8410  173.6410  144.4280 C   0  0  0  0  0  2  0  0  0  0  0  0
  189.8150  172.3130  136.9510 C   0  0  0  0  0  2  0  0  0  0  0  0
  190.5900  172.1820  138.0270 C   0  0  0  0  0  0  0  0  0  0  0  0
  190.3260  171.0880  139.0040 C   0  0  0  0  0  0  0  0  0  0  0  0
  192.8770  172.8000  139.0680 C   0  0  0  0  0  2  0  0  0  0  0  0
  190.5320  172.5740  140.8910 N   0  0  2  0  0  0  0  0  0  0  0  0
  192.9780  173.3930  140.4880 C   0  0  1  0  0  3  0  0  0  0  0  0
  188.6880  174.6050  140.9350 N   0  0  0  0  0  2  0  0  0  0  0  0
  187.6940  176.3630  139.7880 O   0  0  0  0  0  0  0  0  0  0  0  0
  188.5000  173.4900  141.8120 C   0  0  0  0  0  0  0  0  0  0  0  0
  187.7920  175.7200  140.8650 C   0  0  0  0  0  0  0  0  0  0  0  0
  187.3810  173.2870  142.3600 O   0  0  0  0  0  0  0  0  0  0  0  0
  187.3520  176.9510  142.9150 C   0  0  0  0  0  0  0  0  0  0  0  0
  186.9880  176.1050  141.9900 N   0  0  0  0  0  0  0  0  0  0  0  0
  186.8860  176.3340  145.1700 O   0  0  0  0  0  1  0  0  0  0  0  0
  186.4870  177.1630  144.1170 C   0  0  1  0  0  3  0  0  0  0  0  0
  186.5460  178.6250  144.5420 C   0  0  0  0  0  2  0  0  0  0  0  0
  185.1860  179.1300  145.0070 C   0  0  1  0  0  3  0  0  0  0  0  0
  184.1480  178.5710  144.1590 N   0  0  0  0  0  1  0  0  0  0  0  0
  184.9280  178.7550  146.4300 C   0  0  0  0  0  0  0  0  0  0  0  0
  185.6430  179.3530  147.4610 O   0  0  0  0  0  1  0  0  0  0  0  0
  184.0320  177.9120  146.7000 O   0  0  0  0  0  0  0  0  0  0  0  0
  188.6500  177.7020  142.8450 C   0  0  0  0  0  2  0  0  0  0  0  0
  190.9920  176.8610  142.8180 C   0  0  0  0  0  1  0  0  0  0  0  0
  190.0370  177.8080  144.8920 C   0  0  0  0  0  1  0  0  0  0  0  0
  189.7310  176.9980  143.6490 C   0  0  0  0  0  3  0  0  0  0  0  0
  192.8980  172.2960  143.4360 C   0  0  0  0  0  2  0  0  0  0  0  0
  194.0200  173.0380  144.1580 C   0  0  2  0  0  3  0  0  0  0  0  0
  196.1390  172.4730  145.3820 C   0  0  0  0  0  1  0  0  0  0  0  0
  195.3310  172.2510  144.1160 C   0  0  2  0  0  3  0  0  0  0  0  0
  196.0920  172.5980  142.9950 O   0  0  0  0  0  1  0  0  0  0  0  0
  193.6110  173.3270  145.6000 C   0  0  0  0  0  2  0  0  0  0  0  0
  193.2440  174.7620  145.7800 C   0  0  0  0  0  0  0  0  0  0  0  0
  193.8080  175.6560  145.0930 O   0  0  0  0  0  0  0  0  0  0  0  0
  192.2310  175.1230  146.7320 C   0  0  0  0  0  0  0  0  0  0  0  0
  191.3820  175.4300  147.5320 C   0  0  0  0  0  3  0  0  0  0  0  0
  1 11  1  0  0  0  0
  1 10  1  0  0  0  0
  3 14  2  0  0  0  0
  4  6  2  0  0  0  0
  5  2  1  6  0  0  0
  5  7  1  0  0  0  0
  6 15  1  0  0  0  0
  7  1  1  0  0  0  0
  7 37  1  1  0  0  0
  8 20  1  6  0  0  0
  8  1  1  0  0  0  0
 11 10  1  0  0  0  0
 12 13  2  0  0  0  0
 13  6  1  0  0  0  0
 13 14  1  0  0  0  0
 14  9  1  0  0  0  0
 16  9  1  1  0  0  0
 16  5  1  0  0  0  0
 16  8  1  0  0  0  0
 17 15  1  6  0  0  0
 17  2  1  0  0  0  0
 17  5  1  0  0  0  0
 18 20  1  0  0  0  0
 19 21  2  0  0  0  0
 20 22  2  0  0  0  0
 21 18  1  0  0  0  0
 21 24  1  0  0  0  0
 23 26  1  0  0  0  0
 24 23  2  0  0  0  0
 26 27  1  0  0  0  0
 26 25  1  1  0  0  0
 27 28  1  0  0  0  0
 28 29  1  6  0  0  0
 28 30  1  0  0  0  0
 30 32  2  0  0  0  0
 30 31  1  0  0  0  0
 33 23  1  0  0  0  0
 33 36  1  0  0  0  0
 34 36  1  0  0  0  0
 36 35  1  0  0  0  0
 38 37  1  1  0  0  0
 38 42  1  0  0  0  0
 40 38  1  0  0  0  0
 40 39  1  1  0  0  0
 41 40  1  0  0  0  0
 42 43  1  0  0  0  0
 43 45  1  0  0  0  0
 44 43  2  0  0  0  0
 45 46  3  0  0  0  0
M  END
>  <MODEL>
2

>  <REMARK>
 VINA RESULT:      -6.4      2.865      8.174
  Name = 
  14 active torsions:
  status: ('A' for Active; 'I' for Inactive)
    1  A    between atoms: C_5  and  C_35
    2  A    between atoms: C_8  and  C_11
    3  A    between atoms: C_8  and  C_35
    4  A    between atoms: C_11  and  C_12
    5  A    between atoms: C_15  and  CA_39
    6  A    between atoms: C_17  and  C_30
    7  A    between atoms: C_17  and  CA_39
    8  A    between atoms: C_20  and  C_27
    9  A    between atoms: C_22  and  C_31
   10  A    between atoms: C_24  and  C_30
   11  A    between atoms: C_24  and  C_34
   12  A    between atoms: C_27  and  C_35
   13  A    between atoms: C_33  and  N_42
   14  A    between atoms: C_34  and  C_38
                            x       y       z     vdW  Elec       q    Type
                         _______ _______ _______ _____ _____    ______ ____

>  <TORSDO>
F 14

$$$$
=
 OpenBabel11062419493D

 46 49  0  0  1  0  0  0  0  0999 V2000
  193.6790  175.5410  144.5630 C   0  0  0  0  0  0  0  0  0  0  0  0
  192.3930  175.2300  141.5460 O   0  0  0  0  0  0  0  0  0  0  0  0
  189.6890  171.6890  144.6170 C   0  0  0  0  0  2  0  0  0  0  0  0
  189.6940  174.2510  140.5280 O   0  0  0  0  0  0  0  0  0  0  0  0
  192.8780  174.4990  142.6530 C   0  0  1  0  0  0  0  0  0  0  0  0
  190.2420  173.4560  141.3380 C   0  0  0  0  0  0  0  0  0  0  0  0
  194.1450  175.1380  143.1860 C   0  0  2  0  0  3  0  0  0  0  0  0
  192.2350  175.1340  144.8220 C   0  0  2  0  0  3  0  0  0  0  0  0
  191.6510  172.9840  144.0340 C   0  0  0  0  0  2  0  0  0  0  0  0
  194.6330  175.4990  145.7400 C   0  0  0  0  0  2  0  0  0  0  0  0
  194.2270  176.8350  145.1290 C   0  0  0  0  0  2  0  0  0  0  0  0
  188.1820  173.0320  142.5450 C   0  0  0  0  0  2  0  0  0  0  0  0
  189.5150  172.9920  142.5430 C   0  0  0  0  0  0  0  0  0  0  0  0
  190.2470  172.5400  143.7600 C   0  0  0  0  0  0  0  0  0  0  0  0
  191.6220  172.9420  141.0420 C   0  0  0  0  0  2  0  0  0  0  0  0
  191.8000  174.3790  143.6450 N   0  0  2  0  0  0  0  0  0  0  0  0
  192.7990  173.9100  141.2780 C   0  0  1  0  0  3  0  0  0  0  0  0
  190.7960  176.6030  146.2980 N   0  0  0  0  0  2  0  0  0  0  0  0
  189.6400  178.1160  147.6310 O   0  0  0  0  0  0  0  0  0  0  0  0
  191.3330  176.3170  145.0030 C   0  0  0  0  0  0  0  0  0  0  0  0
  189.7180  177.5180  146.5260 C   0  0  0  0  0  0  0  0  0  0  0  0
  191.0830  177.0730  144.0240 O   0  0  0  0  0  0  0  0  0  0  0  0
  187.5280  177.2880  145.4930 C   0  0  0  0  0  0  0  0  0  0  0  0
  188.7360  177.7830  145.5130 N   0  0  0  0  0  0  0  0  0  0  0  0
  186.3850  178.8860  144.1430 O   0  0  0  0  0  1  0  0  0  0  0  0
  186.6440  177.5220  144.3090 C   0  0  1  0  0  3  0  0  0  0  0  0
  187.2990  176.9500  143.0570 C   0  0  0  0  0  2  0  0  0  0  0  0
  187.3970  177.9910  141.9490 C   0  0  1  0  0  3  0  0  0  0  0  0
  188.7940  178.2780  141.6780 N   0  0  0  0  0  1  0  0  0  0  0  0
  186.7310  177.5130  140.7000 C   0  0  0  0  0  0  0  0  0  0  0  0
  185.6160  178.1720  140.1930 O   0  0  0  0  0  1  0  0  0  0  0  0
  187.2030  176.5230  140.0800 O   0  0  0  0  0  0  0  0  0  0  0  0
  186.9940  176.4400  146.6110 C   0  0  0  0  0  2  0  0  0  0  0  0
  186.3170  178.5880  147.6690 C   0  0  0  0  0  1  0  0  0  0  0  0
  184.6370  177.1900  146.5160 C   0  0  0  0  0  1  0  0  0  0  0  0
  185.8920  177.1650  147.3650 C   0  0  0  0  0  3  0  0  0  0  0  0
  195.2510  174.0910  143.2430 C   0  0  0  0  0  2  0  0  0  0  0  0
  196.4350  174.5220  142.3810 C   0  0  2  0  0  3  0  0  0  0  0  0
  197.6730  174.1600  144.5370 C   0  0  0  0  0  1  0  0  0  0  0  0
  197.6290  174.9470  143.2380 C   0  0  2  0  0  3  0  0  0  0  0  0
  197.5920  176.3180  143.5090 O   0  0  0  0  0  1  0  0  0  0  0  0
  196.0150  175.6520  141.4450 C   0  0  0  0  0  2  0  0  0  0  0  0
  196.4610  175.3890  140.0450 C   0  0  0  0  0  0  0  0  0  0  0  0
  197.6890  175.3780  139.7590 O   0  0  0  0  0  0  0  0  0  0  0  0
  195.4850  175.1330  139.0230 C   0  0  0  0  0  0  0  0  0  0  0  0
  194.6630  174.9160  138.1680 C   0  0  0  0  0  3  0  0  0  0  0  0
  1  8  1  0  0  0  0
  1 11  1  0  0  0  0
  1 10  1  0  0  0  0
  4  6  2  0  0  0  0
  5  2  1  6  0  0  0
  5  7  1  0  0  0  0
  5 16  1  0  0  0  0
  6 13  1  0  0  0  0
  7 37  1  1  0  0  0
  7  1  1  0  0  0  0
  8 20  1  6  0  0  0
 11 10  1  0  0  0  0
 13 12  2  0  0  0  0
 13 14  1  0  0  0  0
 14  9  1  0  0  0  0
 14  3  2  0  0  0  0
 15  6  1  0  0  0  0
 16  9  1  1  0  0  0
 16  8  1  0  0  0  0
 17 15  1  1  0  0  0
 17  2  1  0  0  0  0
 17  5  1  0  0  0  0
 18 21  1  0  0  0  0
 20 18  1  0  0  0  0
 21 19  2  0  0  0  0
 22 20  2  0  0  0  0
 23 24  2  0  0  0  0
 23 33  1  0  0  0  0
 24 21  1  0  0  0  0
 26 25  1  6  0  0  0
 26 23  1  0  0  0  0
 27 26  1  0  0  0  0
 28 29  1  6  0  0  0
 28 27  1  0  0  0  0
 30 28  1  0  0  0  0
 31 30  1  0  0  0  0
 32 30  2  0  0  0  0
 33 36  1  0  0  0  0
 35 36  1  0  0  0  0
 36 34  1  0  0  0  0
 38 42  1  1  0  0  0
 38 40  1  0  0  0  0
 38 37  1  0  0  0  0
 40 41  1  0  0  0  0
 40 39  1  1  0  0  0
 43 42  1  0  0  0  0
 44 43  2  0  0  0  0
 45 43  1  0  0  0  0
 46 45  3  0  0  0  0
M  END
>  <MODEL>
3

>  <REMARK>
 VINA RESULT:      -6.3      2.792      8.581
  Name = 
  14 active torsions:
  status: ('A' for Active; 'I' for Inactive)
    1  A    between atoms: C_5  and  C_35
    2  A    between atoms: C_8  and  C_11
    3  A    between atoms: C_8  and  C_35
    4  A    between atoms: C_11  and  C_12
    5  A    between atoms: C_15  and  CA_39
    6  A    between atoms: C_17  and  C_30
    7  A    between atoms: C_17  and  CA_39
    8  A    between atoms: C_20  and  C_27
    9  A    between atoms: C_22  and  C_31
   10  A    between atoms: C_24  and  C_30
   11  A    between atoms: C_24  and  C_34
   12  A    between atoms: C_27  and  C_35
   13  A    between atoms: C_33  and  N_42
   14  A    between atoms: C_34  and  C_38
                            x       y       z     vdW  Elec       q    Type
                         _______ _______ _______ _____ _____    ______ ____

>  <TORSDO>
F 14

$$$$
=
 OpenBabel11062419493D

 46 49  0  0  1  0  0  0  0  0999 V2000
  191.9650  173.2820  143.5020 C   0  0  0  0  0  0  0  0  0  0  0  0
  192.6450  174.6460  140.5820 O   0  0  0  0  0  0  0  0  0  0  0  0
  191.0300  169.6060  139.4550 C   0  0  0  0  0  2  0  0  0  0  0  0
  191.6940  174.0690  137.7450 O   0  0  0  0  0  0  0  0  0  0  0  0
  192.8330  173.4840  141.3620 C   0  0  1  0  0  0  0  0  0  0  0  0
  192.1020  173.0440  138.3560 C   0  0  0  0  0  0  0  0  0  0  0  0
  193.1620  173.8630  142.7920 C   0  0  2  0  0  3  0  0  0  0  0  0
  191.0120  172.5830  142.5420 C   0  0  2  0  0  3  0  0  0  0  0  0
  192.0600  171.2760  140.8760 C   0  0  0  0  0  2  0  0  0  0  0  0
  192.1060  172.6920  144.8910 C   0  0  0  0  0  2  0  0  0  0  0  0
  191.4300  174.0440  144.6980 C   0  0  0  0  0  2  0  0  0  0  0  0
  190.2620  171.6690  137.5790 C   0  0  0  0  0  2  0  0  0  0  0  0
  191.2390  171.8450  138.4700 C   0  0  0  0  0  0  0  0  0  0  0  0
  191.4100  170.8740  139.5870 C   0  0  0  0  0  0  0  0  0  0  0  0
  193.4940  173.0320  138.9210 C   0  0  0  0  0  2  0  0  0  0  0  0
  191.6460  172.6280  141.2230 N   0  0  2  0  0  0  0  0  0  0  0  0
  193.7340  173.8330  140.2170 C   0  0  1  0  0  3  0  0  0  0  0  0
  189.5250  174.4240  141.6420 N   0  0  0  0  0  2  0  0  0  0  0  0
  188.0550  175.9500  140.6890 O   0  0  0  0  0  0  0  0  0  0  0  0
  189.6790  173.2640  142.4650 C   0  0  0  0  0  0  0  0  0  0  0  0
  188.3990  175.3060  141.7140 C   0  0  0  0  0  0  0  0  0  0  0  0
  188.6930  172.7890  143.0940 O   0  0  0  0  0  0  0  0  0  0  0  0
  187.8020  176.4140  143.7940 C   0  0  0  0  0  0  0  0  0  0  0  0
  187.6430  175.4540  142.9250 N   0  0  0  0  0  0  0  0  0  0  0  0
  187.8730  175.9260  146.1260 O   0  0  0  0  0  1  0  0  0  0  0  0
  187.0540  176.3820  145.0890 C   0  0  1  0  0  3  0  0  0  0  0  0
  186.5190  177.7720  145.4090 C   0  0  0  0  0  2  0  0  0  0  0  0
  185.0380  177.8960  145.0720 C   0  0  1  0  0  3  0  0  0  0  0  0
  184.3680  178.6550  146.1130 N   0  0  0  0  0  1  0  0  0  0  0  0
  184.8410  178.5700  143.7530 C   0  0  0  0  0  0  0  0  0  0  0  0
  185.6850  179.5970  143.3470 O   0  0  0  0  0  1  0  0  0  0  0  0
  183.9200  178.1810  142.9850 O   0  0  0  0  0  0  0  0  0  0  0  0
  188.7570  177.5490  143.5650 C   0  0  0  0  0  2  0  0  0  0  0  0
  191.1560  177.6360  142.9080 C   0  0  0  0  0  1  0  0  0  0  0  0
  190.5150  177.7950  145.2890 C   0  0  0  0  0  1  0  0  0  0  0  0
  190.1720  177.1590  143.9590 C   0  0  0  0  0  3  0  0  0  0  0  0
  194.4580  173.1780  143.2090 C   0  0  0  0  0  2  0  0  0  0  0  0
  195.4420  174.2000  143.7740 C   0  0  2  0  0  3  0  0  0  0  0  0
  194.7350  175.2600  145.9380 C   0  0  0  0  0  1  0  0  0  0  0  0
  195.5150  174.1240  145.3000 C   0  0  2  0  0  3  0  0  0  0  0  0
  196.8400  174.1450  145.7430 O   0  0  0  0  0  1  0  0  0  0  0  0
  195.0510  175.6040  143.3220 C   0  0  0  0  0  2  0  0  0  0  0  0
  196.2120  176.3190  142.7150 C   0  0  0  0  0  0  0  0  0  0  0  0
  196.8640  177.1630  143.3870 O   0  0  0  0  0  0  0  0  0  0  0  0
  196.5960  176.0330  141.3610 C   0  0  0  0  0  0  0  0  0  0  0  0
  196.9210  175.7940  140.2240 C   0  0  0  0  0  3  0  0  0  0  0  0
  1 11  1  0  0  0  0
  1 10  1  0  0  0  0
  3 14  2  0  0  0  0
  4  6  2  0  0  0  0
  5  2  1  6  0  0  0
  5  7  1  0  0  0  0
  6 13  1  0  0  0  0
  6 15  1  0  0  0  0
  7 37  1  1  0  0  0
  7  1  1  0  0  0  0
  8 20  1  6  0  0  0
  8  1  1  0  0  0  0
 11 10  1  0  0  0  0
 12 13  2  0  0  0  0
 13 14  1  0  0  0  0
 14  9  1  0  0  0  0
 16  9  1  1  0  0  0
 16  5  1  0  0  0  0
 16  8  1  0  0  0  0
 17 15  1  6  0  0  0
 17  2  1  0  0  0  0
 17  5  1  0  0  0  0
 18 21  1  0  0  0  0
 18 20  1  0  0  0  0
 19 21  2  0  0  0  0
 20 22  2  0  0  0  0
 21 24  1  0  0  0  0
 23 26  1  0  0  0  0
 24 23  2  0  0  0  0
 26 27  1  0  0  0  0
 26 25  1  1  0  0  0
 28 27  1  0  0  0  0
 28 29  1  1  0  0  0
 30 28  1  0  0  0  0
 31 30  1  0  0  0  0
 32 30  2  0  0  0  0
 33 23  1  0  0  0  0
 33 36  1  0  0  0  0
 34 36  1  0  0  0  0
 36 35  1  0  0  0  0
 38 37  1  1  0  0  0
 38 40  1  0  0  0  0
 40 41  1  0  0  0  0
 40 39  1  1  0  0  0
 42 38  1  0  0  0  0
 43 42  1  0  0  0  0
 43 44  2  0  0  0  0
 45 43  1  0  0  0  0
 46 45  3  0  0  0  0
M  END
>  <MODEL>
4

>  <REMARK>
 VINA RESULT:      -6.0      2.672      8.391
  Name = 
  14 active torsions:
  status: ('A' for Active; 'I' for Inactive)
    1  A    between atoms: C_5  and  C_35
    2  A    between atoms: C_8  and  C_11
    3  A    between atoms: C_8  and  C_35
    4  A    between atoms: C_11  and  C_12
    5  A    between atoms: C_15  and  CA_39
    6  A    between atoms: C_17  and  C_30
    7  A    between atoms: C_17  and  CA_39
    8  A    between atoms: C_20  and  C_27
    9  A    between atoms: C_22  and  C_31
   10  A    between atoms: C_24  and  C_30
   11  A    between atoms: C_24  and  C_34
   12  A    between atoms: C_27  and  C_35
   13  A    between atoms: C_33  and  N_42
   14  A    between atoms: C_34  and  C_38
                            x       y       z     vdW  Elec       q    Type
                         _______ _______ _______ _____ _____    ______ ____

>  <TORSDO>
F 14

$$$$
=
 OpenBabel11062419493D

 46 49  0  0  1  0  0  0  0  0999 V2000
  189.9580  174.8550  142.8950 C   0  0  0  0  0  0  0  0  0  0  0  0
  192.0800  176.8390  144.4480 O   0  0  0  0  0  0  0  0  0  0  0  0
  193.8660  171.8220  145.4020 C   0  0  0  0  0  2  0  0  0  0  0  0
  194.9870  176.5140  145.3020 O   0  0  0  0  0  0  0  0  0  0  0  0
  191.3140  175.6630  144.5940 C   0  0  1  0  0  0  0  0  0  0  0  0
  194.2470  175.5580  145.6630 C   0  0  0  0  0  0  0  0  0  0  0  0
  189.9280  175.8670  144.0140 C   0  0  2  0  0  3  0  0  0  0  0  0
  191.2740  174.0900  142.8480 C   0  0  2  0  0  3  0  0  0  0  0  0
  192.1240  173.4440  144.9560 C   0  0  0  0  0  2  0  0  0  0  0  0
  188.7020  174.0990  142.5090 C   0  0  0  0  0  2  0  0  0  0  0  0
  189.2310  175.2150  141.6150 C   0  0  0  0  0  2  0  0  0  0  0  0
  195.8740  173.8710  145.0410 C   0  0  0  0  0  2  0  0  0  0  0  0
  194.6030  174.1620  145.3160 C   0  0  0  0  0  0  0  0  0  0  0  0
  193.5590  173.1020  145.2160 C   0  0  0  0  0  0  0  0  0  0  0  0
  193.0310  175.8460  146.4950 C   0  0  0  0  0  2  0  0  0  0  0  0
  192.0560  174.5420  144.0010 N   0  0  2  0  0  0  0  0  0  0  0  0
  191.8090  176.4460  145.7710 C   0  0  1  0  0  3  0  0  0  0  0  0
  191.6920  173.6950  140.3830 N   0  0  0  0  0  2  0  0  0  0  0  0
  191.9920  173.5470  138.0840 O   0  0  0  0  0  0  0  0  0  0  0  0
  192.0490  174.3650  141.5950 C   0  0  0  0  0  0  0  0  0  0  0  0
  192.5250  173.6630  139.2180 C   0  0  0  0  0  0  0  0  0  0  0  0
  192.9840  175.2130  141.6080 O   0  0  0  0  0  0  0  0  0  0  0  0
  194.7530  172.8510  139.7530 C   0  0  0  0  0  0  0  0  0  0  0  0
  193.9520  173.7840  139.3160 N   0  0  0  0  0  0  0  0  0  0  0  0
  196.9470  172.7490  138.8270 O   0  0  0  0  0  1  0  0  0  0  0  0
  196.2070  173.1440  139.9460 C   0  0  1  0  0  3  0  0  0  0  0  0
  196.4020  174.6320  140.2110 C   0  0  0  0  0  2  0  0  0  0  0  0
  196.6280  174.9150  141.6910 C   0  0  1  0  0  3  0  0  0  0  0  0
  197.9410  174.4310  142.0790 N   0  0  0  0  0  1  0  0  0  0  0  0
  196.5250  176.3760  141.9830 C   0  0  0  0  0  0  0  0  0  0  0  0
  195.6750  177.1890  141.2420 O   0  0  0  0  0  0  0  0  0  0  0  0
  197.1890  176.8710  142.9320 O   0  0  0  0  0  1  0  0  0  0  0  0
  194.2600  171.4810  140.1200 C   0  0  0  0  0  2  0  0  0  0  0  0
  192.8450  170.7270  142.0230 C   0  0  0  0  0  1  0  0  0  0  0  0
  195.2920  170.3850  142.0830 C   0  0  0  0  0  1  0  0  0  0  0  0
  194.1870  171.3140  141.6280 C   0  0  0  0  0  3  0  0  0  0  0  0
  188.8850  175.5190  145.0680 C   0  0  0  0  0  2  0  0  0  0  0  0
  188.0720  176.7560  145.4410 C   0  0  2  0  0  3  0  0  0  0  0  0
  186.4350  177.1450  147.3060 C   0  0  0  0  0  1  0  0  0  0  0  0
  187.8870  176.8720  146.9550 C   0  0  2  0  0  3  0  0  0  0  0  0
  188.7050  177.8730  147.4870 O   0  0  0  0  0  1  0  0  0  0  0  0
  186.7190  176.7230  144.7340 C   0  0  0  0  0  2  0  0  0  0  0  0
  186.5290  177.9260  143.8730 C   0  0  0  0  0  0  0  0  0  0  0  0
  187.3660  178.2030  142.9720 O   0  0  0  0  0  0  0  0  0  0  0  0
  185.3780  178.7630  144.0620 C   0  0  0  0  0  0  0  0  0  0  0  0
  184.4130  179.4700  144.2210 C   0  0  0  0  0  3  0  0  0  0  0  0
  1  7  1  0  0  0  0
  2 17  1  0  0  0  0
  4  6  2  0  0  0  0
  5  2  1  6  0  0  0
  5 17  1  0  0  0  0
  6 15  1  0  0  0  0
  7  5  1  0  0  0  0
  7 37  1  1  0  0  0
  8 20  1  6  0  0  0
  8  1  1  0  0  0  0
  8 16  1  0  0  0  0
  9 14  1  0  0  0  0
 10  1  1  0  0  0  0
 11 10  1  0  0  0  0
 11  1  1  0  0  0  0
 12 13  2  0  0  0  0
 13  6  1  0  0  0  0
 14 13  1  0  0  0  0
 14  3  2  0  0  0  0
 16  5  1  0  0  0  0
 16  9  1  1  0  0  0
 17 15  1  1  0  0  0
 18 20  1  0  0  0  0
 19 21  2  0  0  0  0
 20 22  2  0  0  0  0
 21 24  1  0  0  0  0
 21 18  1  0  0  0  0
 23 26  1  0  0  0  0
 23 33  1  0  0  0  0
 24 23  2  0  0  0  0
 26 25  1  6  0  0  0
 26 27  1  0  0  0  0
 27 28  1  0  0  0  0
 28 30  1  0  0  0  0
 28 29  1  6  0  0  0
 30 32  1  0  0  0  0
 31 30  2  0  0  0  0
 33 36  1  0  0  0  0
 36 34  1  0  0  0  0
 36 35  1  0  0  0  0
 37 38  1  0  0  0  0
 38 42  1  6  0  0  0
 38 40  1  0  0  0  0
 40 39  1  6  0  0  0
 40 41  1  0  0  0  0
 43 45  1  0  0  0  0
 43 42  1  0  0  0  0
 44 43  2  0  0  0  0
 45 46  3  0  0  0  0
M  END
>  <MODEL>
5

>  <REMARK>
 VINA RESULT:      -6.0      2.602      5.377
  Name = 
  14 active torsions:
  status: ('A' for Active; 'I' for Inactive)
    1  A    between atoms: C_5  and  C_35
    2  A    between atoms: C_8  and  C_11
    3  A    between atoms: C_8  and  C_35
    4  A    between atoms: C_11  and  C_12
    5  A    between atoms: C_15  and  CA_39
    6  A    between atoms: C_17  and  C_30
    7  A    between atoms: C_17  and  CA_39
    8  A    between atoms: C_20  and  C_27
    9  A    between atoms: C_22  and  C_31
   10  A    between atoms: C_24  and  C_30
   11  A    between atoms: C_24  and  C_34
   12  A    between atoms: C_27  and  C_35
   13  A    between atoms: C_33  and  N_42
   14  A    between atoms: C_34  and  C_38
                            x       y       z     vdW  Elec       q    Type
                         _______ _______ _______ _____ _____    ______ ____

>  <TORSDO>
F 14

$$$$
=
 OpenBabel11062419493D

 46 49  0  0  1  0  0  0  0  0999 V2000
  192.1580  173.2180  143.2960 C   0  0  0  0  0  0  0  0  0  0  0  0
  192.7570  174.6030  140.3670 O   0  0  0  0  0  0  0  0  0  0  0  0
  190.8080  169.6820  139.2420 C   0  0  0  0  0  2  0  0  0  0  0  0
  191.6260  174.1370  137.5770 O   0  0  0  0  0  0  0  0  0  0  0  0
  192.9210  173.4170  141.1150 C   0  0  1  0  0  0  0  0  0  0  0  0
  192.0090  173.0790  138.1470 C   0  0  0  0  0  0  0  0  0  0  0  0
  193.3460  173.7480  142.5320 C   0  0  2  0  0  3  0  0  0  0  0  0
  191.1180  172.5920  142.3760 C   0  0  2  0  0  3  0  0  0  0  0  0
  192.0020  171.2640  140.6330 C   0  0  0  0  0  2  0  0  0  0  0  0
  192.3400  172.5930  144.6640 C   0  0  0  0  0  2  0  0  0  0  0  0
  191.7310  173.9840  144.5320 C   0  0  0  0  0  2  0  0  0  0  0  0
  190.0570  171.8210  137.4470 C   0  0  0  0  0  2  0  0  0  0  0  0
  191.0870  171.9260  138.2860 C   0  0  0  0  0  0  0  0  0  0  0  0
  191.2640  170.9240  139.3750 C   0  0  0  0  0  0  0  0  0  0  0  0
  193.4250  172.9790  138.6350 C   0  0  0  0  0  2  0  0  0  0  0  0
  191.6830  172.6300  141.0260 N   0  0  2  0  0  0  0  0  0  0  0  0
  193.7780  173.7390  139.9300 C   0  0  1  0  0  3  0  0  0  0  0  0
  189.5300  174.2580  141.3200 N   0  0  0  0  0  2  0  0  0  0  0  0
  187.9370  175.6050  140.2990 O   0  0  0  0  0  0  0  0  0  0  0  0
  189.8230  173.3460  142.3840 C   0  0  0  0  0  0  0  0  0  0  0  0
  188.4750  175.2250  141.3710 C   0  0  0  0  0  0  0  0  0  0  0  0
  188.9820  173.1440  143.3040 O   0  0  0  0  0  0  0  0  0  0  0  0
  188.5060  176.7940  143.2280 C   0  0  0  0  0  0  0  0  0  0  0  0
  188.0060  175.7530  142.6200 N   0  0  0  0  0  0  0  0  0  0  0  0
  186.6520  177.4180  144.5890 O   0  0  0  0  0  1  0  0  0  0  0  0
  188.0270  177.1640  144.5960 C   0  0  1  0  0  3  0  0  0  0  0  0
  188.3530  176.0430  145.5760 C   0  0  0  0  0  2  0  0  0  0  0  0
  189.5890  176.3650  146.4060 C   0  0  1  0  0  3  0  0  0  0  0  0
  189.3900  177.6270  147.0980 N   0  0  0  0  0  1  0  0  0  0  0  0
  189.8670  175.2860  147.4010 C   0  0  0  0  0  0  0  0  0  0  0  0
  188.9430  174.2700  147.6210 O   0  0  0  0  0  0  0  0  0  0  0  0
  190.9630  175.2760  148.0220 O   0  0  0  0  0  1  0  0  0  0  0  0
  189.5960  177.6280  142.6190 C   0  0  0  0  0  2  0  0  0  0  0  0
  192.0020  177.0090  142.7640 C   0  0  0  0  0  1  0  0  0  0  0  0
  191.1800  179.0640  143.8640 C   0  0  0  0  0  1  0  0  0  0  0  0
  190.8340  177.6350  143.5000 C   0  0  0  0  0  3  0  0  0  0  0  0
  194.6230  172.9850  142.8660 C   0  0  0  0  0  2  0  0  0  0  0  0
  195.6780  173.9350  143.4270 C   0  0  2  0  0  3  0  0  0  0  0  0
  195.2800  174.7850  145.7570 C   0  0  0  0  0  1  0  0  0  0  0  0
  195.9170  173.6910  144.9180 C   0  0  2  0  0  3  0  0  0  0  0  0
  197.2830  173.6040  145.2030 O   0  0  0  0  0  1  0  0  0  0  0  0
  195.2630  175.3820  143.1780 C   0  0  0  0  0  2  0  0  0  0  0  0
  196.3570  176.1530  142.5180 C   0  0  0  0  0  0  0  0  0  0  0  0
  196.9570  177.0690  143.1430 O   0  0  0  0  0  0  0  0  0  0  0  0
  196.7370  175.8380  141.1700 C   0  0  0  0  0  0  0  0  0  0  0  0
  197.0610  175.5740  140.0380 C   0  0  0  0  0  3  0  0  0  0  0  0
  1 11  1  0  0  0  0
  1 10  1  0  0  0  0
  3 14  2  0  0  0  0
  4  6  2  0  0  0  0
  5  2  1  6  0  0  0
  5  7  1  0  0  0  0
  6 13  1  0  0  0  0
  6 15  1  0  0  0  0
  7 37  1  1  0  0  0
  7  1  1  0  0  0  0
  8 20  1  6  0  0  0
  8  1  1  0  0  0  0
 11 10  1  0  0  0  0
 12 13  2  0  0  0  0
 13 14  1  0  0  0  0
 14  9  1  0  0  0  0
 16  9  1  1  0  0  0
 16  5  1  0  0  0  0
 16  8  1  0  0  0  0
 17 15  1  6  0  0  0
 17  2  1  0  0  0  0
 17  5  1  0  0  0  0
 18 21  1  0  0  0  0
 18 20  1  0  0  0  0
 19 21  2  0  0  0  0
 20 22  2  0  0  0  0
 21 24  1  0  0  0  0
 23 26  1  0  0  0  0
 24 23  2  0  0  0  0
 26 25  1  6  0  0  0
 26 27  1  0  0  0  0
 27 28  1  0  0  0  0
 28 29  1  1  0  0  0
 28 30  1  0  0  0  0
 30 31  2  0  0  0  0
 30 32  1  0  0  0  0
 33 23  1  0  0  0  0
 33 36  1  0  0  0  0
 34 36  1  0  0  0  0
 36 35  1  0  0  0  0
 38 37  1  1  0  0  0
 38 40  1  0  0  0  0
 40 41  1  0  0  0  0
 40 39  1  1  0  0  0
 42 38  1  0  0  0  0
 43 44  2  0  0  0  0
 43 42  1  0  0  0  0
 45 43  1  0  0  0  0
 46 45  3  0  0  0  0
M  END
>  <MODEL>
6

>  <REMARK>
 VINA RESULT:      -5.9      2.575      7.579
  Name = 
  14 active torsions:
  status: ('A' for Active; 'I' for Inactive)
    1  A    between atoms: C_5  and  C_35
    2  A    between atoms: C_8  and  C_11
    3  A    between atoms: C_8  and  C_35
    4  A    between atoms: C_11  and  C_12
    5  A    between atoms: C_15  and  CA_39
    6  A    between atoms: C_17  and  C_30
    7  A    between atoms: C_17  and  CA_39
    8  A    between atoms: C_20  and  C_27
    9  A    between atoms: C_22  and  C_31
   10  A    between atoms: C_24  and  C_30
   11  A    between atoms: C_24  and  C_34
   12  A    between atoms: C_27  and  C_35
   13  A    between atoms: C_33  and  N_42
   14  A    between atoms: C_34  and  C_38
                            x       y       z     vdW  Elec       q    Type
                         _______ _______ _______ _____ _____    ______ ____

>  <TORSDO>
F 14

$$$$
=
 OpenBabel11062419493D

 46 49  0  0  1  0  0  0  0  0999 V2000
  190.7770  176.7970  143.4840 C   0  0  0  0  0  0  0  0  0  0  0  0
  190.9080  173.9340  145.1090 O   0  0  0  0  0  0  0  0  0  0  0  0
  191.2620  172.6150  139.8730 C   0  0  0  0  0  2  0  0  0  0  0  0
  192.0630  171.2010  144.4170 O   0  0  0  0  0  0  0  0  0  0  0  0
  190.3080  174.5880  144.0100 C   0  0  1  0  0  0  0  0  0  0  0  0
  191.3140  171.6720  143.5180 C   0  0  0  0  0  0  0  0  0  0  0  0
  189.8920  175.9920  144.4020 C   0  0  2  0  0  3  0  0  0  0  0  0
  191.6360  175.9090  142.5920 C   0  0  2  0  0  3  0  0  0  0  0  0
  190.5240  174.0250  141.6980 C   0  0  0  0  0  2  0  0  0  0  0  0
  190.2880  178.1040  142.8950 C   0  0  0  0  0  2  0  0  0  0  0  0
  191.3200  178.1070  144.0160 C   0  0  0  0  0  2  0  0  0  0  0  0
  192.8110  171.0220  141.7240 C   0  0  0  0  0  2  0  0  0  0  0  0
  191.8010  171.7950  142.1240 C   0  0  0  0  0  0  0  0  0  0  0  0
  191.2200  172.8000  141.1890 C   0  0  0  0  0  0  0  0  0  0  0  0
  189.9040  172.0560  143.8650 C   0  0  0  0  0  2  0  0  0  0  0  0
  191.2310  174.5290  142.8680 N   0  0  2  0  0  0  0  0  0  0  0  0
  189.7050  173.3710  144.6430 C   0  0  1  0  0  3  0  0  0  0  0  0
  193.9890  176.4630  141.8380 N   0  0  0  0  0  2  0  0  0  0  0  0
  196.1300  177.1650  141.2750 O   0  0  0  0  0  0  0  0  0  0  0  0
  193.0990  176.0550  142.8820 C   0  0  0  0  0  0  0  0  0  0  0  0
  195.4150  176.3590  141.9240 C   0  0  0  0  0  0  0  0  0  0  0  0
  193.5310  175.8540  144.0510 O   0  0  0  0  0  0  0  0  0  0  0  0
  196.2490  174.1270  142.4080 C   0  0  0  0  0  0  0  0  0  0  0  0
  196.0430  175.3690  142.7520 N   0  0  0  0  0  0  0  0  0  0  0  0
  197.7050  173.7670  144.2600 O   0  0  0  0  0  1  0  0  0  0  0  0
  196.7820  173.1520  143.4090 C   0  0  1  0  0  3  0  0  0  0  0  0
  195.6310  172.5610  144.2150 C   0  0  0  0  0  2  0  0  0  0  0  0
  195.7490  171.0470  144.3350 C   0  0  1  0  0  3  0  0  0  0  0  0
  196.3990  170.5170  143.1490 N   0  0  0  0  0  1  0  0  0  0  0  0
  196.5300  170.6620  145.5490 C   0  0  0  0  0  0  0  0  0  0  0  0
  197.1200  169.4060  145.6440 O   0  0  0  0  0  0  0  0  0  0  0  0
  196.6840  171.4940  146.4820 O   0  0  0  0  0  1  0  0  0  0  0  0
  195.9260  173.6150  141.0340 C   0  0  0  0  0  2  0  0  0  0  0  0
  196.8130  172.1750  139.2080 C   0  0  0  0  0  1  0  0  0  0  0  0
  197.9040  174.3300  139.7310 C   0  0  0  0  0  1  0  0  0  0  0  0
  197.1800  173.1380  140.3210 C   0  0  0  0  0  3  0  0  0  0  0  0
  188.4150  176.1870  144.0830 C   0  0  0  0  0  2  0  0  0  0  0  0
  187.7270  176.9630  145.2030 C   0  0  2  0  0  3  0  0  0  0  0  0
  188.1850  175.5790  147.2490 C   0  0  0  0  0  1  0  0  0  0  0  0
  188.5080  176.8690  146.5150 C   0  0  2  0  0  3  0  0  0  0  0  0
  188.2460  177.9680  147.3380 O   0  0  0  0  0  1  0  0  0  0  0  0
  186.2990  176.4550  145.3890 C   0  0  0  0  0  2  0  0  0  0  0  0
  185.3390  177.5860  145.5490 C   0  0  0  0  0  0  0  0  0  0  0  0
  184.4420  177.5410  146.4330 O   0  0  0  0  0  0  0  0  0  0  0  0
  185.4490  178.7390  144.6990 C   0  0  0  0  0  0  0  0  0  0  0  0
  185.5430  179.7090  143.9880 C   0  0  0  0  0  3  0  0  0  0  0  0
  1 11  1  0  0  0  0
  1  7  1  0  0  0  0
  3 14  2  0  0  0  0
  5  7  1  0  0  0  0
  5 17  1  0  0  0  0
  5  2  1  1  0  0  0
  6 15  1  0  0  0  0
  6  4  2  0  0  0  0
  7 37  1  6  0  0  0
  8 16  1  0  0  0  0
  8 20  1  1  0  0  0
  8  1  1  0  0  0  0
 10  1  1  0  0  0  0
 10 11  1  0  0  0  0
 12 13  2  0  0  0  0
 13  6  1  0  0  0  0
 14  9  1  0  0  0  0
 14 13  1  0  0  0  0
 16  9  1  6  0  0  0
 16  5  1  0  0  0  0
 17 15  1  6  0  0  0
 17  2  1  0  0  0  0
 18 21  1  0  0  0  0
 18 20  1  0  0  0  0
 19 21  2  0  0  0  0
 20 22  2  0  0  0  0
 21 24  1  0  0  0  0
 23 24  2  0  0  0  0
 23 26  1  0  0  0  0
 26 27  1  0  0  0  0
 26 25  1  1  0  0  0
 27 28  1  0  0  0  0
 28 29  1  6  0  0  0
 28 30  1  0  0  0  0
 30 31  2  0  0  0  0
 30 32  1  0  0  0  0
 33 23  1  0  0  0  0
 34 36  1  0  0  0  0
 35 36  1  0  0  0  0
 36 33  1  0  0  0  0
 38 37  1  6  0  0  0
 38 42  1  0  0  0  0
 38 40  1  0  0  0  0
 40 39  1  1  0  0  0
 40 41  1  0  0  0  0
 42 43  1  0  0  0  0
 43 44  2  0  0  0  0
 45 43  1  0  0  0  0
 46 45  3  0  0  0  0
M  END
>  <MODEL>
7

>  <REMARK>
 VINA RESULT:      -5.9      1.984      2.868
  Name = 
  14 active torsions:
  status: ('A' for Active; 'I' for Inactive)
    1  A    between atoms: C_5  and  C_35
    2  A    between atoms: C_8  and  C_11
    3  A    between atoms: C_8  and  C_35
    4  A    between atoms: C_11  and  C_12
    5  A    between atoms: C_15  and  CA_39
    6  A    between atoms: C_17  and  C_30
    7  A    between atoms: C_17  and  CA_39
    8  A    between atoms: C_20  and  C_27
    9  A    between atoms: C_22  and  C_31
   10  A    between atoms: C_24  and  C_30
   11  A    between atoms: C_24  and  C_34
   12  A    between atoms: C_27  and  C_35
   13  A    between atoms: C_33  and  N_42
   14  A    between atoms: C_34  and  C_38
                            x       y       z     vdW  Elec       q    Type
                         _______ _______ _______ _____ _____    ______ ____

>  <TORSDO>
F 14

$$$$
=
 OpenBabel11062419493D

 46 49  0  0  1  0  0  0  0  0999 V2000
  193.4680  174.7230  142.6700 C   0  0  0  0  0  0  0  0  0  0  0  0
  192.4550  173.9990  145.7200 O   0  0  0  0  0  0  0  0  0  0  0  0
  189.5490  178.3180  144.2440 C   0  0  0  0  0  2  0  0  0  0  0  0
  189.8710  174.5480  147.2380 O   0  0  0  0  0  0  0  0  0  0  0  0
  192.8530  175.0620  144.8800 C   0  0  1  0  0  0  0  0  0  0  0  0
  190.3590  175.5740  146.6910 C   0  0  0  0  0  0  0  0  0  0  0  0
  194.0580  174.6530  144.0570 C   0  0  2  0  0  3  0  0  0  0  0  0
  192.0120  175.1730  142.6880 C   0  0  2  0  0  3  0  0  0  0  0  0
  191.5340  176.9320  144.1910 C   0  0  0  0  0  2  0  0  0  0  0  0
  194.3150  175.1660  141.4950 C   0  0  0  0  0  2  0  0  0  0  0  0
  193.9430  173.6970  141.6620 C   0  0  0  0  0  2  0  0  0  0  0  0
  188.2080  176.3440  145.8780 C   0  0  0  0  0  2  0  0  0  0  0  0
  189.5360  176.4000  145.7770 C   0  0  0  0  0  0  0  0  0  0  0  0
  190.1660  177.2400  144.7190 C   0  0  0  0  0  0  0  0  0  0  0  0
  191.7670  175.9800  147.0190 C   0  0  0  0  0  2  0  0  0  0  0  0
  191.6940  175.4890  144.0820 N   0  0  2  0  0  0  0  0  0  0  0  0
  192.9040  175.1620  146.3730 C   0  0  1  0  0  3  0  0  0  0  0  0
  190.4870  173.2050  143.1480 N   0  0  0  0  0  2  0  0  0  0  0  0
  188.9090  171.5420  143.5200 O   0  0  0  0  0  0  0  0  0  0  0  0
  191.0790  174.1040  142.2050 C   0  0  0  0  0  0  0  0  0  0  0  0
  189.8210  171.9920  142.7800 C   0  0  0  0  0  0  0  0  0  0  0  0
  190.7920  174.0270  140.9790 O   0  0  0  0  0  0  0  0  0  0  0  0
  191.0720  170.3650  141.4750 C   0  0  0  0  0  0  0  0  0  0  0  0
  190.1580  171.2920  141.5730 N   0  0  0  0  0  0  0  0  0  0  0  0
  190.4590  168.9140  139.6870 O   0  0  0  0  0  1  0  0  0  0  0  0
  191.4340  169.8100  140.1350 C   0  0  1  0  0  3  0  0  0  0  0  0
  191.6060  170.9480  139.1350 C   0  0  0  0  0  2  0  0  0  0  0  0
  190.5700  170.8790  138.0210 C   0  0  1  0  0  3  0  0  0  0  0  0
  189.6500  171.9960  138.1470 N   0  0  0  0  0  1  0  0  0  0  0  0
  191.2200  170.9130  136.6770 C   0  0  0  0  0  0  0  0  0  0  0  0
  191.0080  169.8900  135.7600 O   0  0  0  0  0  0  0  0  0  0  0  0
  191.9420  171.8950  136.3570 O   0  0  0  0  0  1  0  0  0  0  0  0
  191.8220  169.8540  142.6720 C   0  0  0  0  0  2  0  0  0  0  0  0
  193.3070  171.0370  144.2800 C   0  0  0  0  0  1  0  0  0  0  0  0
  194.2810  169.6580  142.4750 C   0  0  0  0  0  1  0  0  0  0  0  0
  193.1420  170.5870  142.8410 C   0  0  0  0  0  3  0  0  0  0  0  0
  195.1710  175.6760  144.2530 C   0  0  0  0  0  2  0  0  0  0  0  0
  196.4970  174.9710  144.5270 C   0  0  2  0  0  3  0  0  0  0  0  0
  197.2970  176.7680  142.9650 C   0  0  0  0  0  1  0  0  0  0  0  0
  197.5700  175.3800  143.5160 C   0  0  2  0  0  3  0  0  0  0  0  0
  197.6560  174.4570  142.4700 O   0  0  0  0  0  1  0  0  0  0  0  0
  196.2960  173.4580  144.5150 C   0  0  0  0  0  2  0  0  0  0  0  0
  196.7570  172.8410  145.7930 C   0  0  0  0  0  0  0  0  0  0  0  0
  197.1890  173.5650  146.7310 O   0  0  0  0  0  0  0  0  0  0  0  0
  196.6950  171.4160  145.9600 C   0  0  0  0  0  0  0  0  0  0  0  0
  196.6400  170.2190  146.0990 C   0  0  0  0  0  3  0  0  0  0  0  0
  1  8  1  0  0  0  0
  1  7  1  0  0  0  0
  2 17  1  0  0  0  0
  3 14  2  0  0  0  0
  5  2  1  1  0  0  0
  5 17  1  0  0  0  0
  6 15  1  0  0  0  0
  6  4  2  0  0  0  0
  7 37  1  6  0  0  0
  7  5  1  0  0  0  0
  8 20  1  1  0  0  0
  8 16  1  0  0  0  0
  9 14  1  0  0  0  0
 10 11  1  0  0  0  0
 10  1  1  0  0  0  0
 11  1  1  0  0  0  0
 13 12  2  0  0  0  0
 13  6  1  0  0  0  0
 14 13  1  0  0  0  0
 16  9  1  6  0  0  0
 16  5  1  0  0  0  0
 17 15  1  1  0  0  0
 20 18  1  0  0  0  0
 21 18  1  0  0  0  0
 21 19  2  0  0  0  0
 22 20  2  0  0  0  0
 23 24  2  0  0  0  0
 23 33  1  0  0  0  0
 24 21  1  0  0  0  0
 26 25  1  6  0  0  0
 26 23  1  0  0  0  0
 27 26  1  0  0  0  0
 28 29  1  6  0  0  0
 28 27  1  0  0  0  0
 30 28  1  0  0  0  0
 31 30  2  0  0  0  0
 32 30  1  0  0  0  0
 33 36  1  0  0  0  0
 35 36  1  0  0  0  0
 36 34  1  0  0  0  0
 38 37  1  6  0  0  0
 40 39  1  6  0  0  0
 40 38  1  0  0  0  0
 41 40  1  0  0  0  0
 42 38  1  0  0  0  0
 42 43  1  0  0  0  0
 43 45  1  0  0  0  0
 43 44  2  0  0  0  0
 45 46  3  0  0  0  0
M  END
>  <MODEL>
8

>  <REMARK>
 VINA RESULT:      -5.7      2.787      7.989
  Name = 
  14 active torsions:
  status: ('A' for Active; 'I' for Inactive)
    1  A    between atoms: C_5  and  C_35
    2  A    between atoms: C_8  and  C_11
    3  A    between atoms: C_8  and  C_35
    4  A    between atoms: C_11  and  C_12
    5  A    between atoms: C_15  and  CA_39
    6  A    between atoms: C_17  and  C_30
    7  A    between atoms: C_17  and  CA_39
    8  A    between atoms: C_20  and  C_27
    9  A    between atoms: C_22  and  C_31
   10  A    between atoms: C_24  and  C_30
   11  A    between atoms: C_24  and  C_34
   12  A    between atoms: C_27  and  C_35
   13  A    between atoms: C_33  and  N_42
   14  A    between atoms: C_34  and  C_38
                            x       y       z     vdW  Elec       q    Type
                         _______ _______ _______ _____ _____    ______ ____

>  <TORSDO>
F 14

$$$$
=
 OpenBabel11062419493D

 46 49  0  0  1  0  0  0  0  0999 V2000
  193.6540  174.6910  143.7750 C   0  0  0  0  0  0  0  0  0  0  0  0
  192.3550  174.5700  140.7510 O   0  0  0  0  0  0  0  0  0  0  0  0
  189.0330  171.6250  143.8440 C   0  0  0  0  0  2  0  0  0  0  0  0
  189.5310  174.0790  139.7190 O   0  0  0  0  0  0  0  0  0  0  0  0
  192.6920  173.7810  141.8720 C   0  0  1  0  0  0  0  0  0  0  0  0
  189.9210  173.2110  140.5460 C   0  0  0  0  0  0  0  0  0  0  0  0
  194.0490  174.1890  142.4090 C   0  0  2  0  0  3  0  0  0  0  0  0
  192.1580  174.5550  144.0260 C   0  0  2  0  0  3  0  0  0  0  0  0
  191.2010  172.5340  143.2630 C   0  0  0  0  0  2  0  0  0  0  0  0
  194.5760  174.4950  144.9620 C   0  0  0  0  0  2  0  0  0  0  0  0
  194.4230  175.8730  144.3290 C   0  0  0  0  0  2  0  0  0  0  0  0
  187.8090  173.1850  141.7390 C   0  0  0  0  0  2  0  0  0  0  0  0
  189.1130  172.9050  141.7500 C   0  0  0  0  0  0  0  0  0  0  0  0
  189.7420  172.3470  142.9810 C   0  0  0  0  0  0  0  0  0  0  0  0
  191.1870  172.4520  140.2710 C   0  0  0  0  0  2  0  0  0  0  0  0
  191.6030  173.8730  142.8550 N   0  0  2  0  0  0  0  0  0  0  0  0
  192.5180  173.1940  140.5060 C   0  0  1  0  0  3  0  0  0  0  0  0
  190.8690  176.2230  145.4280 N   0  0  0  0  0  2  0  0  0  0  0  0
  189.8800  177.8810  146.7200 O   0  0  0  0  0  0  0  0  0  0  0  0
  191.4840  175.8840  144.1810 C   0  0  0  0  0  0  0  0  0  0  0  0
  189.9660  177.3220  145.5960 C   0  0  0  0  0  0  0  0  0  0  0  0
  191.4950  176.7110  143.2270 O   0  0  0  0  0  0  0  0  0  0  0  0
  187.9010  177.5730  144.3370 C   0  0  0  0  0  0  0  0  0  0  0  0
  189.1740  177.8110  144.5040 N   0  0  0  0  0  0  0  0  0  0  0  0
  188.1480  178.2950  142.0790 O   0  0  0  0  0  1  0  0  0  0  0  0
  187.2160  178.0170  143.0830 C   0  0  1  0  0  3  0  0  0  0  0  0
  186.2420  176.9400  142.6200 C   0  0  0  0  0  2  0  0  0  0  0  0
  184.9640  177.5450  142.0530 C   0  0  1  0  0  3  0  0  0  0  0  0
  184.6020  178.7200  142.8260 N   0  0  0  0  0  1  0  0  0  0  0  0
  185.1350  177.9200  140.6180 C   0  0  0  0  0  0  0  0  0  0  0  0
  186.0650  177.2650  139.8190 O   0  0  0  0  0  0  0  0  0  0  0  0
  184.4050  178.8170  140.1160 O   0  0  0  0  0  1  0  0  0  0  0  0
  187.0900  176.8190  145.3500 C   0  0  0  0  0  2  0  0  0  0  0  0
  184.8860  177.7920  145.9710 C   0  0  0  0  0  1  0  0  0  0  0  0
  186.5660  177.3100  147.7180 C   0  0  0  0  0  1  0  0  0  0  0  0
  186.3690  177.7710  146.2890 C   0  0  0  0  0  3  0  0  0  0  0  0
  194.9470  172.9600  142.4920 C   0  0  0  0  0  2  0  0  0  0  0  0
  196.1090  173.0840  141.5090 C   0  0  2  0  0  3  0  0  0  0  0  0
  197.2070  171.9350  139.5630 C   0  0  0  0  0  1  0  0  0  0  0  0
  196.4410  171.7390  140.8590 C   0  0  2  0  0  3  0  0  0  0  0  0
  195.2820  170.9940  140.6230 O   0  0  0  0  0  1  0  0  0  0  0  0
  197.3340  173.6550  142.2190 C   0  0  0  0  0  2  0  0  0  0  0  0
  197.5830  175.0690  141.8130 C   0  0  0  0  0  0  0  0  0  0  0  0
  197.6380  175.9810  142.6820 O   0  0  0  0  0  0  0  0  0  0  0  0
  197.7760  175.3890  140.4270 C   0  0  0  0  0  0  0  0  0  0  0  0
  197.9410  175.6610  139.2630 C   0  0  0  0  0  3  0  0  0  0  0  0
  1  8  1  0  0  0  0
  1 11  1  0  0  0  0
  1 10  1  0  0  0  0
  4  6  2  0  0  0  0
  5  2  1  6  0  0  0
  5  7  1  0  0  0  0
  5 16  1  0  0  0  0
  6 13  1  0  0  0  0
  7 37  1  1  0  0  0
  7  1  1  0  0  0  0
  8 20  1  6  0  0  0
 11 10  1  0  0  0  0
 12 13  2  0  0  0  0
 13 14  1  0  0  0  0
 14  9  1  0  0  0  0
 14  3  2  0  0  0  0
 15  6  1  0  0  0  0
 16  9  1  1  0  0  0
 16  8  1  0  0  0  0
 17 15  1  1  0  0  0
 17  2  1  0  0  0  0
 17  5  1  0  0  0  0
 18 21  1  0  0  0  0
 20 18  1  0  0  0  0
 21 19  2  0  0  0  0
 22 20  2  0  0  0  0
 23 24  2  0  0  0  0
 23 33  1  0  0  0  0
 24 21  1  0  0  0  0
 26 25  1  6  0  0  0
 26 23  1  0  0  0  0
 27 26  1  0  0  0  0
 28 27  1  0  0  0  0
 28 29  1  1  0  0  0
 30 28  1  0  0  0  0
 31 30  2  0  0  0  0
 32 30  1  0  0  0  0
 33 36  1  0  0  0  0
 34 36  1  0  0  0  0
 36 35  1  0  0  0  0
 38 42  1  1  0  0  0
 38 37  1  0  0  0  0
 40 39  1  6  0  0  0
 40 38  1  0  0  0  0
 41 40  1  0  0  0  0
 43 42  1  0  0  0  0
 43 44  2  0  0  0  0
 45 43  1  0  0  0  0
 46 45  3  0  0  0  0
M  END
>  <MODEL>
9

>  <REMARK>
 VINA RESULT:      -5.7      2.792      8.905
  Name = 
  14 active torsions:
  status: ('A' for Active; 'I' for Inactive)
    1  A    between atoms: C_5  and  C_35
    2  A    between atoms: C_8  and  C_11
    3  A    between atoms: C_8  and  C_35
    4  A    between atoms: C_11  and  C_12
    5  A    between atoms: C_15  and  CA_39
    6  A    between atoms: C_17  and  C_30
    7  A    between atoms: C_17  and  CA_39
    8  A    between atoms: C_20  and  C_27
    9  A    between atoms: C_22  and  C_31
   10  A    between atoms: C_24  and  C_30
   11  A    between atoms: C_24  and  C_34
   12  A    between atoms: C_27  and  C_35
   13  A    between atoms: C_33  and  N_42
   14  A    between atoms: C_34  and  C_38
                            x       y       z     vdW  Elec       q    Type
                         _______ _______ _______ _____ _____    ______ ____

>  <TORSDO>
F 14

$$$$
