=
 OpenBabel11062422563D

 29 31  0  0  1  0  0  0  0  0999 V2000
  190.1780  175.6360  143.3150 C   0  0  0  0  0  0  0  0  0  0  0  0
  189.2440  176.4040  144.0960 N   0  0  0  0  0  0  0  0  0  0  0  0
  191.5460  175.3600  145.3370 C   0  0  1  0  0  3  0  0  0  0  0  0
  190.3560  175.6190  147.6540 C   0  0  0  0  0  1  0  0  0  0  0  0
  187.3040  177.8750  145.5960 C   0  0  0  0  0  2  0  0  0  0  0  0
  189.2940  176.3550  145.5410 C   0  0  0  0  0  0  0  0  0  0  0  0
  186.3180  176.2660  144.1100 O   0  0  0  0  0  1  0  0  0  0  0  0
  188.3460  177.3390  143.4160 C   0  0  0  0  0  2  0  0  0  0  0  0
  191.1350  174.7160  144.0050 C   0  0  1  0  0  3  0  0  0  0  0  0
  190.3490  175.7920  146.1650 C   0  0  0  0  0  0  0  0  0  0  0  0
  190.1810  175.7110  142.0580 O   0  0  0  0  0  0  0  0  0  0  0  0
  187.0080  177.4860  144.1460 C   0  0  2  0  0  0  0  0  0  0  0  0
  188.0840  176.7870  146.3260 C   0  0  0  0  0  2  0  0  0  0  0  0
  186.1680  178.5950  143.4720 C   0  0  1  0  0  3  0  0  0  0  0  0
  186.2110  178.1630  141.0110 C   0  0  0  0  0  2  0  0  0  0  0  0
  184.8550  179.3530  145.3870 O   0  0  0  0  0  0  0  0  0  0  0  0
  184.1140  178.2410  142.2860 C   0  0  0  0  0  0  0  0  0  0  0  0
  185.5660  178.1520  142.1710 C   0  0  0  0  0  0  0  0  0  0  0  0
  183.7270  178.6510  143.4470 N   0  0  0  0  0  0  0  0  0  0  0  0
  184.8980  178.8930  144.2160 C   0  0  0  0  0  0  0  0  0  0  0  0
  183.2310  177.9300  141.2500 O   0  0  0  0  0  0  0  0  0  0  0  0
  181.8530  178.2610  141.3150 C   0  0  0  0  0  1  0  0  0  0  0  0
  191.4720  172.0340  144.1890 O   0  0  0  0  0  0  0  0  0  0  0  0
  189.2940  172.7710  142.8370 C   0  0  0  0  0  1  0  0  0  0  0  0
  190.4000  173.0860  144.1940 S   0  0  0  0  0  0  0  0  0  0  0  0
  189.6290  173.0030  145.4810 O   0  0  0  0  0  0  0  0  0  0  0  0
  192.6010  174.5500  146.0830 C   0  0  0  0  0  2  0  0  0  0  0  0
  194.0750  176.4650  146.6090 C   0  0  0  0  0  1  0  0  0  0  0  0
  193.9760  175.1510  145.8650 C   0  0  0  0  0  2  0  0  0  0  0  0
  1  9  1  0  0  0  0
  1  2  1  0  0  0  0
  2  6  1  0  0  0  0
  3 27  1  1  0  0  0
  3 10  1  0  0  0  0
  5 13  1  0  0  0  0
  6 10  2  0  0  0  0
  6 13  1  0  0  0  0
  8  2  1  0  0  0  0
  8 12  1  0  0  0  0
  9 25  1  1  0  0  0
  9  3  1  0  0  0  0
 10  4  1  0  0  0  0
 11  1  2  0  0  0  0
 12  7  1  6  0  0  0
 12  5  1  0  0  0  0
 14 18  1  6  0  0  0
 14 12  1  0  0  0  0
 14 20  1  0  0  0  0
 15 18  2  0  0  0  0
 17 19  2  0  0  0  0
 18 17  1  0  0  0  0
 19 20  1  0  0  0  0
 20 16  2  0  0  0  0
 21 22  1  0  0  0  0
 21 17  1  0  0  0  0
 23 25  2  0  0  0  0
 24 25  1  0  0  0  0
 25 26  2  0  0  0  0
 29 27  1  0  0  0  0
 29 28  1  0  0  0  0
M  END
>  <MODEL>
1

>  <REMARK>
 VINA RESULT:      -7.4      0.000      0.000
  Name = 
  5 active torsions:
  status: ('A' for Active; 'I' for Inactive)
    1  A    between atoms: C_1  and  C_26
    2  A    between atoms: C_2  and  C_10
    3  A    between atoms: C_2  and  C_22
    4  A    between atoms: C_8  and  O_15
    5  A    between atoms: C_21  and  S_23
                            x       y       z     vdW  Elec       q    Type
                         _______ _______ _______ _____ _____    ______ ____

>  <TORSDO>
F 5

$$$$
=
 OpenBabel11062422563D

 29 31  0  0  1  0  0  0  0  0999 V2000
  188.0920  175.5490  142.7440 C   0  0  0  0  0  0  0  0  0  0  0  0
  189.2380  175.7010  143.6010 N   0  0  0  0  0  0  0  0  0  0  0  0
  186.7270  176.6210  144.4830 C   0  0  1  0  0  3  0  0  0  0  0  0
  187.9510  178.1590  146.2120 C   0  0  0  0  0  1  0  0  0  0  0  0
  191.5770  176.0380  145.2130 C   0  0  0  0  0  2  0  0  0  0  0  0
  189.1850  176.6060  144.7290 C   0  0  0  0  0  0  0  0  0  0  0  0
  191.9390  176.5960  142.9050 O   0  0  0  0  0  1  0  0  0  0  0  0
  190.3980  174.8310  143.4030 C   0  0  0  0  0  2  0  0  0  0  0  0
  186.8820  176.3990  142.9720 C   0  0  1  0  0  3  0  0  0  0  0  0
  188.0050  177.1240  145.1280 C   0  0  0  0  0  0  0  0  0  0  0  0
  188.1050  174.7250  141.7920 O   0  0  0  0  0  0  0  0  0  0  0  0
  191.7100  175.5240  143.7770 C   0  0  2  0  0  0  0  0  0  0  0  0
  190.4760  177.0870  145.3370 C   0  0  0  0  0  2  0  0  0  0  0  0
  192.8740  174.5100  143.6960 C   0  0  1  0  0  3  0  0  0  0  0  0
  194.9820  175.8240  143.4210 C   0  0  0  0  0  2  0  0  0  0  0  0
  191.8040  172.5580  144.7010 O   0  0  0  0  0  0  0  0  0  0  0  0
  194.6330  174.2970  145.3120 C   0  0  0  0  0  0  0  0  0  0  0  0
  194.1750  175.0860  144.1740 C   0  0  0  0  0  0  0  0  0  0  0  0
  193.8200  173.3430  145.6210 N   0  0  0  0  0  0  0  0  0  0  0  0
  192.7430  173.3970  144.6950 C   0  0  0  0  0  0  0  0  0  0  0  0
  195.8280  174.5360  145.9940 O   0  0  0  0  0  0  0  0  0  0  0  0
  196.8730  173.5760  146.0340 C   0  0  0  0  0  1  0  0  0  0  0  0
  186.3770  179.0550  142.7940 O   0  0  0  0  0  0  0  0  0  0  0  0
  186.1700  177.7460  140.4780 C   0  0  0  0  0  1  0  0  0  0  0  0
  187.0150  177.9280  142.0330 S   0  0  0  0  0  0  0  0  0  0  0  0
  188.4570  178.2590  141.7690 O   0  0  0  0  0  0  0  0  0  0  0  0
  185.4640  177.3980  144.8390 C   0  0  0  0  0  2  0  0  0  0  0  0
  184.3930  178.1820  146.9260 C   0  0  0  0  0  1  0  0  0  0  0  0
  184.9550  176.9760  146.2040 C   0  0  0  0  0  2  0  0  0  0  0  0
  1  9  1  0  0  0  0
  1  2  1  0  0  0  0
  2  6  1  0  0  0  0
  3 27  1  6  0  0  0
  3 10  1  0  0  0  0
  5 13  1  0  0  0  0
  6 10  2  0  0  0  0
  6 13  1  0  0  0  0
  8  2  1  0  0  0  0
  8 12  1  0  0  0  0
  9 25  1  6  0  0  0
  9  3  1  0  0  0  0
 10  4  1  0  0  0  0
 11  1  2  0  0  0  0
 12  7  1  6  0  0  0
 12  5  1  0  0  0  0
 14 12  1  0  0  0  0
 14 18  1  1  0  0  0
 14 20  1  0  0  0  0
 15 18  2  0  0  0  0
 17 19  2  0  0  0  0
 17 21  1  0  0  0  0
 18 17  1  0  0  0  0
 20 16  2  0  0  0  0
 20 19  1  0  0  0  0
 21 22  1  0  0  0  0
 24 25  1  0  0  0  0
 25 23  2  0  0  0  0
 26 25  2  0  0  0  0
 27 29  1  0  0  0  0
 29 28  1  0  0  0  0
M  END
>  <MODEL>
2

>  <REMARK>
 VINA RESULT:      -7.0      2.604      7.832
  Name = 
  5 active torsions:
  status: ('A' for Active; 'I' for Inactive)
    1  A    between atoms: C_1  and  C_26
    2  A    between atoms: C_2  and  C_10
    3  A    between atoms: C_2  and  C_22
    4  A    between atoms: C_8  and  O_15
    5  A    between atoms: C_21  and  S_23
                            x       y       z     vdW  Elec       q    Type
                         _______ _______ _______ _____ _____    ______ ____

>  <TORSDO>
F 5

$$$$
=
 OpenBabel11062422563D

 29 31  0  0  1  0  0  0  0  0999 V2000
  194.6090  176.2340  145.0780 C   0  0  0  0  0  0  0  0  0  0  0  0
  193.2270  175.8440  144.9830 N   0  0  0  0  0  0  0  0  0  0  0  0
  195.2160  173.8540  145.0900 C   0  0  1  0  0  3  0  0  0  0  0  0
  193.5090  172.1590  144.0570 C   0  0  0  0  0  1  0  0  0  0  0  0
  190.4660  175.1500  144.7150 C   0  0  0  0  0  2  0  0  0  0  0  0
  192.8800  174.4920  144.6020 C   0  0  0  0  0  0  0  0  0  0  0  0
  191.1250  176.9530  143.2720 O   0  0  0  0  0  1  0  0  0  0  0  0
  192.1900  176.7830  145.4110 C   0  0  0  0  0  2  0  0  0  0  0  0
  195.6790  175.2630  144.6910 C   0  0  1  0  0  3  0  0  0  0  0  0
  193.8280  173.5320  144.5700 C   0  0  0  0  0  0  0  0  0  0  0  0
  194.9260  177.3920  145.4610 O   0  0  0  0  0  0  0  0  0  0  0  0
  190.8940  176.6150  144.6120 C   0  0  2  0  0  0  0  0  0  0  0  0
  191.4930  174.2140  144.0860 C   0  0  0  0  0  2  0  0  0  0  0  0
  189.7940  177.5210  145.2110 C   0  0  1  0  0  3  0  0  0  0  0  0
  188.0150  177.7710  143.4740 C   0  0  0  0  0  2  0  0  0  0  0  0
  190.3060  177.2890  147.5880 O   0  0  0  0  0  0  0  0  0  0  0  0
  187.5500  176.8280  145.6930 C   0  0  0  0  0  0  0  0  0  0  0  0
  188.4410  177.2520  144.6200 C   0  0  0  0  0  0  0  0  0  0  0  0
  188.1360  176.7770  146.8430 N   0  0  0  0  0  0  0  0  0  0  0  0
  189.4830  177.1850  146.6410 C   0  0  0  0  0  0  0  0  0  0  0  0
  186.2010  176.5200  145.5080 O   0  0  0  0  0  0  0  0  0  0  0  0
  185.1680  177.2520  146.1500 C   0  0  0  0  0  1  0  0  0  0  0  0
  195.9280  174.0900  142.2620 O   0  0  0  0  0  0  0  0  0  0  0  0
  197.7290  175.9990  142.7430 C   0  0  0  0  0  1  0  0  0  0  0  0
  196.0570  175.4240  142.9400 S   0  0  0  0  0  0  0  0  0  0  0  0
  195.1240  176.4060  142.2890 O   0  0  0  0  0  0  0  0  0  0  0  0
  196.2770  172.7890  144.8290 C   0  0  0  0  0  2  0  0  0  0  0  0
  196.6040  170.7180  146.1400 C   0  0  0  0  0  1  0  0  0  0  0  0
  196.7840  172.2210  146.1400 C   0  0  0  0  0  2  0  0  0  0  0  0
  1 11  2  0  0  0  0
  2  1  1  0  0  0  0
  2  8  1  0  0  0  0
  3 27  1  6  0  0  0
  4 10  1  0  0  0  0
  6  2  1  0  0  0  0
  9 25  1  6  0  0  0
  9  1  1  0  0  0  0
  9  3  1  0  0  0  0
 10  6  2  0  0  0  0
 10  3  1  0  0  0  0
 12  7  1  6  0  0  0
 12  5  1  0  0  0  0
 12 14  1  0  0  0  0
 12  8  1  0  0  0  0
 13  6  1  0  0  0  0
 13  5  1  0  0  0  0
 14 18  1  6  0  0  0
 14 20  1  0  0  0  0
 15 18  2  0  0  0  0
 17 19  2  0  0  0  0
 18 17  1  0  0  0  0
 20 19  1  0  0  0  0
 20 16  2  0  0  0  0
 21 17  1  0  0  0  0
 21 22  1  0  0  0  0
 23 25  2  0  0  0  0
 24 25  1  0  0  0  0
 26 25  2  0  0  0  0
 27 29  1  0  0  0  0
 28 29  1  0  0  0  0
M  END
>  <MODEL>
3

>  <REMARK>
 VINA RESULT:      -6.9      3.264      5.240
  Name = 
  5 active torsions:
  status: ('A' for Active; 'I' for Inactive)
    1  A    between atoms: C_1  and  C_26
    2  A    between atoms: C_2  and  C_10
    3  A    between atoms: C_2  and  C_22
    4  A    between atoms: C_8  and  O_15
    5  A    between atoms: C_21  and  S_23
                            x       y       z     vdW  Elec       q    Type
                         _______ _______ _______ _____ _____    ______ ____

>  <TORSDO>
F 5

$$$$
=
 OpenBabel11062422563D

 29 31  0  0  1  0  0  0  0  0999 V2000
  189.6900  177.3830  143.7450 C   0  0  0  0  0  0  0  0  0  0  0  0
  190.3540  176.1380  144.0280 N   0  0  0  0  0  0  0  0  0  0  0  0
  188.4400  176.2390  141.9660 C   0  0  1  0  0  3  0  0  0  0  0  0
  188.1890  173.6390  142.1350 C   0  0  0  0  0  1  0  0  0  0  0  0
  191.6600  173.6840  144.7020 C   0  0  0  0  0  2  0  0  0  0  0  0
  189.8160  174.8960  143.5160 C   0  0  0  0  0  0  0  0  0  0  0  0
  190.9210  174.9150  146.6290 O   0  0  0  0  0  1  0  0  0  0  0  0
  191.6470  176.1590  144.7140 C   0  0  0  0  0  2  0  0  0  0  0  0
  188.3930  177.3740  142.9990 C   0  0  1  0  0  3  0  0  0  0  0  0
  188.8430  174.9120  142.5820 C   0  0  0  0  0  0  0  0  0  0  0  0
  190.1760  178.4760  144.1380 O   0  0  0  0  0  0  0  0  0  0  0  0
  191.8580  174.9180  145.5860 C   0  0  2  0  0  0  0  0  0  0  0  0
  190.2380  173.6010  144.1580 C   0  0  0  0  0  2  0  0  0  0  0  0
  193.2940  174.9230  146.1570 C   0  0  1  0  0  3  0  0  0  0  0  0
  194.6290  173.2910  144.8150 C   0  0  0  0  0  2  0  0  0  0  0  0
  193.2750  177.0670  147.3290 O   0  0  0  0  0  0  0  0  0  0  0  0
  195.2450  175.6620  144.9730 C   0  0  0  0  0  0  0  0  0  0  0  0
  194.3230  174.5430  145.1320 C   0  0  0  0  0  0  0  0  0  0  0  0
  194.9420  176.6720  145.7200 N   0  0  0  0  0  0  0  0  0  0  0  0
  193.7890  176.3070  146.4660 C   0  0  0  0  0  0  0  0  0  0  0  0
  196.3460  175.6470  144.1160 O   0  0  0  0  0  0  0  0  0  0  0  0
  196.7320  176.7910  143.3690 C   0  0  0  0  0  1  0  0  0  0  0  0
  186.0110  176.2510  143.6350 O   0  0  0  0  0  0  0  0  0  0  0  0
  186.2230  178.8210  144.3170 C   0  0  0  0  0  1  0  0  0  0  0  0
  187.0180  177.2390  144.1510 S   0  0  0  0  0  0  0  0  0  0  0  0
  187.5050  176.7940  145.5010 O   0  0  0  0  0  0  0  0  0  0  0  0
  187.2000  176.1990  141.0770 C   0  0  0  0  0  2  0  0  0  0  0  0
  185.5380  177.9410  140.5130 C   0  0  0  0  0  1  0  0  0  0  0  0
  186.9940  177.5410  140.4030 C   0  0  0  0  0  2  0  0  0  0  0  0
  1  2  1  0  0  0  0
  1 11  2  0  0  0  0
  2  8  1  0  0  0  0
  3 27  1  1  0  0  0
  3 10  1  0  0  0  0
  3  9  1  0  0  0  0
  4 10  1  0  0  0  0
  5 12  1  0  0  0  0
  6  2  1  0  0  0  0
  6 13  1  0  0  0  0
  8 12  1  0  0  0  0
  9  1  1  0  0  0  0
  9 25  1  1  0  0  0
 10  6  2  0  0  0  0
 12 14  1  0  0  0  0
 12  7  1  1  0  0  0
 13  5  1  0  0  0  0
 14 18  1  6  0  0  0
 14 20  1  0  0  0  0
 15 18  2  0  0  0  0
 17 18  1  0  0  0  0
 17 19  2  0  0  0  0
 19 20  1  0  0  0  0
 20 16  2  0  0  0  0
 21 17  1  0  0  0  0
 22 21  1  0  0  0  0
 23 25  2  0  0  0  0
 25 24  1  0  0  0  0
 25 26  2  0  0  0  0
 29 28  1  0  0  0  0
 29 27  1  0  0  0  0
M  END
>  <MODEL>
4

>  <REMARK>
 VINA RESULT:      -6.8      2.679      7.836
  Name = 
  5 active torsions:
  status: ('A' for Active; 'I' for Inactive)
    1  A    between atoms: C_1  and  C_26
    2  A    between atoms: C_2  and  C_10
    3  A    between atoms: C_2  and  C_22
    4  A    between atoms: C_8  and  O_15
    5  A    between atoms: C_21  and  S_23
                            x       y       z     vdW  Elec       q    Type
                         _______ _______ _______ _____ _____    ______ ____

>  <TORSDO>
F 5

$$$$
=
 OpenBabel11062422563D

 29 31  0  0  1  0  0  0  0  0999 V2000
  192.7230  174.3850  143.0050 C   0  0  0  0  0  0  0  0  0  0  0  0
  191.9020  175.3100  143.7410 N   0  0  0  0  0  0  0  0  0  0  0  0
  194.6850  175.7190  143.6390 C   0  0  1  0  0  3  0  0  0  0  0  0
  194.4950  177.2240  145.7720 C   0  0  0  0  0  1  0  0  0  0  0  0
  190.2130  177.0590  145.2470 C   0  0  0  0  0  2  0  0  0  0  0  0
  192.5070  176.2210  144.6880 C   0  0  0  0  0  0  0  0  0  0  0  0
  189.6920  174.7380  145.5770 O   0  0  0  0  0  1  0  0  0  0  0  0
  190.4780  175.4140  143.4170 C   0  0  0  0  0  2  0  0  0  0  0  0
  194.1890  174.3080  143.2930 C   0  0  1  0  0  3  0  0  0  0  0  0
  193.8460  176.3820  144.7150 C   0  0  0  0  0  0  0  0  0  0  0  0
  192.2170  173.6240  142.1390 O   0  0  0  0  0  0  0  0  0  0  0  0
  189.6330  175.7790  144.6410 C   0  0  2  0  0  0  0  0  0  0  0  0
  191.6400  176.8540  145.7440 C   0  0  0  0  0  2  0  0  0  0  0  0
  188.1700  176.0260  144.2070 C   0  0  1  0  0  3  0  0  0  0  0  0
  186.8620  176.5400  146.2730 C   0  0  0  0  0  2  0  0  0  0  0  0
  188.5100  176.5040  141.8350 O   0  0  0  0  0  0  0  0  0  0  0  0
  187.0110  178.1160  144.3960 C   0  0  0  0  0  0  0  0  0  0  0  0
  187.4370  176.9390  145.1450 C   0  0  0  0  0  0  0  0  0  0  0  0
  187.3750  178.0820  143.1570 N   0  0  0  0  0  0  0  0  0  0  0  0
  188.0700  176.8580  142.9610 C   0  0  0  0  0  0  0  0  0  0  0  0
  186.2760  179.1670  144.9490 O   0  0  0  0  0  0  0  0  0  0  0  0
  185.3860  179.9510  144.1710 C   0  0  0  0  0  1  0  0  0  0  0  0
  195.1600  173.7670  145.7640 O   0  0  0  0  0  0  0  0  0  0  0  0
  195.5890  171.8360  143.9750 C   0  0  0  0  0  1  0  0  0  0  0  0
  194.5010  173.1010  144.5900 S   0  0  0  0  0  0  0  0  0  0  0  0
  193.2150  172.4640  145.0370 O   0  0  0  0  0  0  0  0  0  0  0  0
  196.1940  175.7770  143.8570 C   0  0  0  0  0  2  0  0  0  0  0  0
  196.2430  176.7080  141.5660 C   0  0  0  0  0  1  0  0  0  0  0  0
  196.8140  176.8320  142.9630 C   0  0  0  0  0  2  0  0  0  0  0  0
  1  9  1  0  0  0  0
  1  2  1  0  0  0  0
  2  6  1  0  0  0  0
  3 27  1  1  0  0  0
  3 10  1  0  0  0  0
  5 13  1  0  0  0  0
  6 10  2  0  0  0  0
  6 13  1  0  0  0  0
  8  2  1  0  0  0  0
  8 12  1  0  0  0  0
  9  3  1  0  0  0  0
  9 25  1  1  0  0  0
 10  4  1  0  0  0  0
 11  1  2  0  0  0  0
 12  5  1  0  0  0  0
 12  7  1  1  0  0  0
 14 20  1  6  0  0  0
 14 12  1  0  0  0  0
 14 18  1  0  0  0  0
 16 20  2  0  0  0  0
 17 21  1  0  0  0  0
 17 18  1  0  0  0  0
 18 15  2  0  0  0  0
 19 17  2  0  0  0  0
 20 19  1  0  0  0  0
 22 21  1  0  0  0  0
 24 25  1  0  0  0  0
 25 26  2  0  0  0  0
 25 23  2  0  0  0  0
 28 29  1  0  0  0  0
 29 27  1  0  0  0  0
M  END
>  <MODEL>
5

>  <REMARK>
 VINA RESULT:      -6.7      2.486      4.125
  Name = 
  5 active torsions:
  status: ('A' for Active; 'I' for Inactive)
    1  A    between atoms: C_1  and  C_26
    2  A    between atoms: C_2  and  C_10
    3  A    between atoms: C_2  and  C_22
    4  A    between atoms: C_8  and  O_15
    5  A    between atoms: C_21  and  S_23
                            x       y       z     vdW  Elec       q    Type
                         _______ _______ _______ _____ _____    ______ ____

>  <TORSDO>
F 5

$$$$
=
 OpenBabel11062422563D

 29 31  0  0  1  0  0  0  0  0999 V2000
  190.8360  175.5360  145.8370 C   0  0  0  0  0  0  0  0  0  0  0  0
  189.7620  175.5620  144.8800 N   0  0  0  0  0  0  0  0  0  0  0  0
  191.8880  173.7520  144.5160 C   0  0  1  0  0  3  0  0  0  0  0  0
  191.2330  173.5650  141.9890 C   0  0  0  0  0  1  0  0  0  0  0  0
  187.6300  175.7270  142.9800 C   0  0  0  0  0  2  0  0  0  0  0  0
  189.9280  174.9330  143.5880 C   0  0  0  0  0  0  0  0  0  0  0  0
  188.4380  177.8800  143.6750 O   0  0  0  0  0  1  0  0  0  0  0  0
  188.4620  176.1020  145.2810 C   0  0  0  0  0  2  0  0  0  0  0  0
  192.1530  174.9390  145.4540 C   0  0  1  0  0  3  0  0  0  0  0  0
  190.9790  174.1200  143.3580 C   0  0  0  0  0  0  0  0  0  0  0  0
  190.6870  176.0310  146.9860 O   0  0  0  0  0  0  0  0  0  0  0  0
  187.7230  176.7560  144.1100 C   0  0  2  0  0  0  0  0  0  0  0  0
  189.0090  175.3300  142.4620 C   0  0  0  0  0  2  0  0  0  0  0  0
  186.3010  177.1650  144.5570 C   0  0  1  0  0  3  0  0  0  0  0  0
  186.0600  176.5020  146.9550 C   0  0  0  0  0  2  0  0  0  0  0  0
  185.7770  178.8170  142.8350 O   0  0  0  0  0  0  0  0  0  0  0  0
  185.8020  178.8280  146.2120 C   0  0  0  0  0  0  0  0  0  0  0  0
  186.2180  177.4420  146.0300 C   0  0  0  0  0  0  0  0  0  0  0  0
  185.6320  179.4520  145.0940 N   0  0  0  0  0  0  0  0  0  0  0  0
  185.9050  178.5230  144.0530 C   0  0  0  0  0  0  0  0  0  0  0  0
  185.5960  179.4210  147.4580 O   0  0  0  0  0  0  0  0  0  0  0  0
  186.6550  179.6050  148.3860 C   0  0  0  0  0  1  0  0  0  0  0  0
  193.9420  175.6370  143.5430 O   0  0  0  0  0  0  0  0  0  0  0  0
  194.4190  176.7210  145.9340 C   0  0  0  0  0  1  0  0  0  0  0  0
  193.2160  176.1980  144.7320 S   0  0  0  0  0  0  0  0  0  0  0  0
  192.4050  177.3880  144.3040 O   0  0  0  0  0  0  0  0  0  0  0  0
  193.1620  173.0030  144.1370 C   0  0  0  0  0  2  0  0  0  0  0  0
  195.3020  172.9830  145.3760 C   0  0  0  0  0  1  0  0  0  0  0  0
  193.8660  172.5020  145.3820 C   0  0  0  0  0  2  0  0  0  0  0  0
  1 11  2  0  0  0  0
  2  8  1  0  0  0  0
  2  1  1  0  0  0  0
  3 27  1  6  0  0  0
  3  9  1  0  0  0  0
  4 10  1  0  0  0  0
  5 12  1  0  0  0  0
  6  2  1  0  0  0  0
  9 25  1  6  0  0  0
  9  1  1  0  0  0  0
 10  6  2  0  0  0  0
 10  3  1  0  0  0  0
 12  7  1  6  0  0  0
 12 14  1  0  0  0  0
 12  8  1  0  0  0  0
 13  5  1  0  0  0  0
 13  6  1  0  0  0  0
 14 20  1  6  0  0  0
 14 18  1  0  0  0  0
 16 20  2  0  0  0  0
 17 21  1  0  0  0  0
 18 17  1  0  0  0  0
 18 15  2  0  0  0  0
 19 17  2  0  0  0  0
 20 19  1  0  0  0  0
 21 22  1  0  0  0  0
 23 25  2  0  0  0  0
 25 24  1  0  0  0  0
 26 25  2  0  0  0  0
 27 29  1  0  0  0  0
 28 29  1  0  0  0  0
M  END
>  <MODEL>
6

>  <REMARK>
 VINA RESULT:      -6.6      2.327      4.134
  Name = 
  5 active torsions:
  status: ('A' for Active; 'I' for Inactive)
    1  A    between atoms: C_1  and  C_26
    2  A    between atoms: C_2  and  C_10
    3  A    between atoms: C_2  and  C_22
    4  A    between atoms: C_8  and  O_15
    5  A    between atoms: C_21  and  S_23
                            x       y       z     vdW  Elec       q    Type
                         _______ _______ _______ _____ _____    ______ ____

>  <TORSDO>
F 5

$$$$
=
 OpenBabel11062422563D

 29 31  0  0  1  0  0  0  0  0999 V2000
  191.3410  174.9050  142.9280 C   0  0  0  0  0  0  0  0  0  0  0  0
  190.9210  175.7970  143.9760 N   0  0  0  0  0  0  0  0  0  0  0  0
  193.5930  174.9130  143.9090 C   0  0  1  0  0  3  0  0  0  0  0  0
  193.8120  175.5360  146.4420 C   0  0  0  0  0  1  0  0  0  0  0  0
  189.9900  177.5070  146.0710 C   0  0  0  0  0  2  0  0  0  0  0  0
  191.7390  175.9630  145.1580 C   0  0  0  0  0  0  0  0  0  0  0  0
  188.4730  175.7100  145.5820 O   0  0  0  0  0  1  0  0  0  0  0  0
  189.7380  176.6330  143.7690 C   0  0  0  0  0  2  0  0  0  0  0  0
  192.5780  174.0830  143.1090 C   0  0  1  0  0  3  0  0  0  0  0  0
  192.9990  175.4830  145.1840 C   0  0  0  0  0  0  0  0  0  0  0  0
  190.6670  174.7910  141.8700 O   0  0  0  0  0  0  0  0  0  0  0  0
  188.9910  176.9100  145.0770 C   0  0  2  0  0  0  0  0  0  0  0  0
  191.1100  176.5280  146.4040 C   0  0  0  0  0  2  0  0  0  0  0  0
  187.8490  177.9190  144.8190 C   0  0  1  0  0  3  0  0  0  0  0  0
  187.6990  178.2500  142.3460 C   0  0  0  0  0  2  0  0  0  0  0  0
  186.6320  177.7280  146.9290 O   0  0  0  0  0  0  0  0  0  0  0  0
  185.8030  177.4220  143.6690 C   0  0  0  0  0  0  0  0  0  0  0  0
  187.2140  177.7390  143.4710 C   0  0  0  0  0  0  0  0  0  0  0  0
  185.4720  177.3640  144.9160 N   0  0  0  0  0  0  0  0  0  0  0  0
  186.6410  177.6560  145.6710 C   0  0  0  0  0  0  0  0  0  0  0  0
  184.8980  177.2150  142.6270 O   0  0  0  0  0  0  0  0  0  0  0  0
  183.9280  178.1880  142.2710 C   0  0  0  0  0  1  0  0  0  0  0  0
  193.1620  172.1980  144.9650 O   0  0  0  0  0  0  0  0  0  0  0  0
  192.2310  171.2160  142.6660 C   0  0  0  0  0  1  0  0  0  0  0  0
  192.1690  172.5120  143.8820 S   0  0  0  0  0  0  0  0  0  0  0  0
  190.7880  172.5610  144.4730 O   0  0  0  0  0  0  0  0  0  0  0  0
  194.9360  174.2070  144.0710 C   0  0  0  0  0  2  0  0  0  0  0  0
  195.5710  176.0910  142.6010 C   0  0  0  0  0  1  0  0  0  0  0  0
  196.0660  175.1280  143.6590 C   0  0  0  0  0  2  0  0  0  0  0  0
  1  9  1  0  0  0  0
  1  2  1  0  0  0  0
  2  6  1  0  0  0  0
  3 27  1  1  0  0  0
  3 10  1  0  0  0  0
  5 13  1  0  0  0  0
  6 10  2  0  0  0  0
  6 13  1  0  0  0  0
  8  2  1  0  0  0  0
  8 12  1  0  0  0  0
  9 25  1  1  0  0  0
  9  3  1  0  0  0  0
 10  4  1  0  0  0  0
 11  1  2  0  0  0  0
 12  7  1  1  0  0  0
 12  5  1  0  0  0  0
 14 18  1  6  0  0  0
 14 12  1  0  0  0  0
 14 20  1  0  0  0  0
 15 18  2  0  0  0  0
 17 19  2  0  0  0  0
 18 17  1  0  0  0  0
 19 20  1  0  0  0  0
 20 16  2  0  0  0  0
 21 17  1  0  0  0  0
 22 21  1  0  0  0  0
 24 25  1  0  0  0  0
 25 26  2  0  0  0  0
 25 23  2  0  0  0  0
 28 29  1  0  0  0  0
 29 27  1  0  0  0  0
M  END
>  <MODEL>
7

>  <REMARK>
 VINA RESULT:      -6.4      1.867      2.523
  Name = 
  5 active torsions:
  status: ('A' for Active; 'I' for Inactive)
    1  A    between atoms: C_1  and  C_26
    2  A    between atoms: C_2  and  C_10
    3  A    between atoms: C_2  and  C_22
    4  A    between atoms: C_8  and  O_15
    5  A    between atoms: C_21  and  S_23
                            x       y       z     vdW  Elec       q    Type
                         _______ _______ _______ _____ _____    ______ ____

>  <TORSDO>
F 5

$$$$
=
 OpenBabel11062422563D

 29 31  0  0  1  0  0  0  0  0999 V2000
  188.6900  175.2680  143.6530 C   0  0  0  0  0  0  0  0  0  0  0  0
  189.6120  175.4260  144.7460 N   0  0  0  0  0  0  0  0  0  0  0  0
  186.9960  176.4360  144.9950 C   0  0  1  0  0  3  0  0  0  0  0  0
  187.8380  178.0090  146.9120 C   0  0  0  0  0  1  0  0  0  0  0  0
  191.5270  175.7670  146.8430 C   0  0  0  0  0  2  0  0  0  0  0  0
  189.3300  176.3730  145.8020 C   0  0  0  0  0  0  0  0  0  0  0  0
  192.4280  176.2300  144.6650 O   0  0  0  0  0  1  0  0  0  0  0  0
  190.7580  174.5210  144.8470 C   0  0  0  0  0  2  0  0  0  0  0  0
  187.4870  176.1540  143.5680 C   0  0  1  0  0  3  0  0  0  0  0  0
  188.1070  176.9330  145.9020 C   0  0  0  0  0  0  0  0  0  0  0  0
  188.8960  174.4090  142.7550 O   0  0  0  0  0  0  0  0  0  0  0  0
  191.9710  175.1970  145.4940 C   0  0  2  0  0  0  0  0  0  0  0  0
  190.4600  176.8450  146.6780 C   0  0  0  0  0  2  0  0  0  0  0  0
  193.0900  174.1530  145.7140 C   0  0  1  0  0  3  0  0  0  0  0  0
  192.4830  172.1260  144.3860 C   0  0  0  0  0  2  0  0  0  0  0  0
  194.8810  175.6170  146.5000 O   0  0  0  0  0  0  0  0  0  0  0  0
  194.5800  173.3490  144.0160 C   0  0  0  0  0  0  0  0  0  0  0  0
  193.2330  173.2080  144.5580 C   0  0  0  0  0  0  0  0  0  0  0  0
  195.2810  174.2360  144.6390 N   0  0  0  0  0  0  0  0  0  0  0  0
  194.4630  174.7610  145.6770 C   0  0  0  0  0  0  0  0  0  0  0  0
  195.0700  172.6000  142.9450 O   0  0  0  0  0  0  0  0  0  0  0  0
  196.3700  172.0310  142.9590 C   0  0  0  0  0  1  0  0  0  0  0  0
  187.1130  178.8110  143.1900 O   0  0  0  0  0  0  0  0  0  0  0  0
  187.4220  177.4200  140.9350 C   0  0  0  0  0  1  0  0  0  0  0  0
  187.8800  177.6430  142.6390 S   0  0  0  0  0  0  0  0  0  0  0  0
  189.3530  177.9360  142.7130 O   0  0  0  0  0  0  0  0  0  0  0  0
  185.7100  177.2560  145.0260 C   0  0  0  0  0  2  0  0  0  0  0  0
  184.1830  178.1820  146.7360 C   0  0  0  0  0  1  0  0  0  0  0  0
  184.9160  176.9390  146.2780 C   0  0  0  0  0  2  0  0  0  0  0  0
  1  2  1  0  0  0  0
  2  8  1  0  0  0  0
  2  6  1  0  0  0  0
  3 27  1  6  0  0  0
  3 10  1  0  0  0  0
  6 10  2  0  0  0  0
  6 13  1  0  0  0  0
  8 12  1  0  0  0  0
  9 25  1  1  0  0  0
  9  1  1  0  0  0  0
  9  3  1  0  0  0  0
 10  4  1  0  0  0  0
 11  1  2  0  0  0  0
 12  7  1  6  0  0  0
 12 14  1  0  0  0  0
 12  5  1  0  0  0  0
 13  5  1  0  0  0  0
 14 18  1  6  0  0  0
 15 18  2  0  0  0  0
 17 18  1  0  0  0  0
 17 19  2  0  0  0  0
 19 20  1  0  0  0  0
 20 14  1  0  0  0  0
 20 16  2  0  0  0  0
 21 22  1  0  0  0  0
 21 17  1  0  0  0  0
 24 25  1  0  0  0  0
 25 26  2  0  0  0  0
 25 23  2  0  0  0  0
 27 29  1  0  0  0  0
 29 28  1  0  0  0  0
M  END
>  <MODEL>
8

>  <REMARK>
 VINA RESULT:      -6.4      2.788      7.807
  Name = 
  5 active torsions:
  status: ('A' for Active; 'I' for Inactive)
    1  A    between atoms: C_1  and  C_26
    2  A    between atoms: C_2  and  C_10
    3  A    between atoms: C_2  and  C_22
    4  A    between atoms: C_8  and  O_15
    5  A    between atoms: C_21  and  S_23
                            x       y       z     vdW  Elec       q    Type
                         _______ _______ _______ _____ _____    ______ ____

>  <TORSDO>
F 5

$$$$
=
 OpenBabel11062422563D

 29 31  0  0  1  0  0  0  0  0999 V2000
  191.7950  174.9770  145.7810 C   0  0  0  0  0  0  0  0  0  0  0  0
  191.0200  174.8470  144.5750 N   0  0  0  0  0  0  0  0  0  0  0  0
  193.3260  173.2660  144.9080 C   0  0  1  0  0  3  0  0  0  0  0  0
  193.3950  172.9050  142.3170 C   0  0  0  0  0  1  0  0  0  0  0  0
  189.4720  174.7010  142.1750 C   0  0  0  0  0  2  0  0  0  0  0  0
  191.5860  174.1880  143.4180 C   0  0  0  0  0  0  0  0  0  0  0  0
  189.8570  176.9560  142.9080 O   0  0  0  0  0  1  0  0  0  0  0  0
  189.6160  175.2580  144.5820 C   0  0  0  0  0  2  0  0  0  0  0  0
  193.2170  174.5120  145.7990 C   0  0  1  0  0  3  0  0  0  0  0  0
  192.7320  173.4850  143.5300 C   0  0  0  0  0  0  0  0  0  0  0  0
  191.2970  175.5000  146.8130 O   0  0  0  0  0  0  0  0  0  0  0  0
  189.1610  175.7790  143.2160 C   0  0  2  0  0  0  0  0  0  0  0  0
  190.9700  174.4350  142.0660 C   0  0  0  0  0  2  0  0  0  0  0  0
  187.6390  176.0490  143.2440 C   0  0  1  0  0  3  0  0  0  0  0  0
  187.0400  176.6600  145.5920 C   0  0  0  0  0  2  0  0  0  0  0  0
  187.2370  176.4450  140.8670 O   0  0  0  0  0  0  0  0  0  0  0  0
  186.6240  178.1730  143.7030 C   0  0  0  0  0  0  0  0  0  0  0  0
  187.2440  177.0090  144.3280 C   0  0  0  0  0  0  0  0  0  0  0  0
  186.5880  178.0910  142.4150 N   0  0  0  0  0  0  0  0  0  0  0  0
  187.1700  176.8440  142.0600 C   0  0  0  0  0  0  0  0  0  0  0  0
  186.1110  179.2580  144.4170 O   0  0  0  0  0  0  0  0  0  0  0  0
  184.7170  179.4270  144.6250 C   0  0  0  0  0  1  0  0  0  0  0  0
  195.7240  175.3470  145.2000 O   0  0  0  0  0  0  0  0  0  0  0  0
  194.2570  177.1490  146.5110 C   0  0  0  0  0  1  0  0  0  0  0  0
  194.3120  175.8490  145.2980 S   0  0  0  0  0  0  0  0  0  0  0  0
  193.8870  176.4050  143.9680 O   0  0  0  0  0  0  0  0  0  0  0  0
  194.7200  172.6460  144.9300 C   0  0  0  0  0  2  0  0  0  0  0  0
  194.0680  170.2610  144.9570 C   0  0  0  0  0  1  0  0  0  0  0  0
  194.7160  171.3730  145.7530 C   0  0  0  0  0  2  0  0  0  0  0  0
  1  9  1  0  0  0  0
  1 11  2  0  0  0  0
  2  8  1  0  0  0  0
  2  1  1  0  0  0  0
  3 27  1  6  0  0  0
  3  9  1  0  0  0  0
  4 10  1  0  0  0  0
  5 12  1  0  0  0  0
  6 10  2  0  0  0  0
  6  2  1  0  0  0  0
  9 25  1  6  0  0  0
 10  3  1  0  0  0  0
 12  7  1  6  0  0  0
 12 14  1  0  0  0  0
 12  8  1  0  0  0  0
 13  5  1  0  0  0  0
 13  6  1  0  0  0  0
 14 20  1  6  0  0  0
 14 18  1  0  0  0  0
 16 20  2  0  0  0  0
 17 18  1  0  0  0  0
 17 21  1  0  0  0  0
 18 15  2  0  0  0  0
 19 17  2  0  0  0  0
 20 19  1  0  0  0  0
 21 22  1  0  0  0  0
 23 25  2  0  0  0  0
 25 24  1  0  0  0  0
 26 25  2  0  0  0  0
 27 29  1  0  0  0  0
 28 29  1  0  0  0  0
M  END
>  <MODEL>
9

>  <REMARK>
 VINA RESULT:      -6.4      2.607      4.464
  Name = 
  5 active torsions:
  status: ('A' for Active; 'I' for Inactive)
    1  A    between atoms: C_1  and  C_26
    2  A    between atoms: C_2  and  C_10
    3  A    between atoms: C_2  and  C_22
    4  A    between atoms: C_8  and  O_15
    5  A    between atoms: C_21  and  S_23
                            x       y       z     vdW  Elec       q    Type
                         _______ _______ _______ _____ _____    ______ ____

>  <TORSDO>
F 5

$$$$
