=
 OpenBabel11072409103D

 65 71  0  0  1  0  0  0  0  0999 V2000
  189.7160  174.2410  145.6030 C   0  0  0  0  0  0  0  0  0  0  0  0
  190.1520  172.9690  145.2130 C   0  0  0  0  0  3  0  0  0  0  0  0
  190.1150  172.6070  143.8610 C   0  0  0  0  0  0  0  0  0  0  0  0
  189.6470  173.5250  142.9220 C   0  0  0  0  0  3  0  0  0  0  0  0
  189.2480  174.8010  143.3360 C   0  0  0  0  0  0  0  0  0  0  0  0
  189.2740  175.1180  144.6580 N   0  0  0  0  0  0  0  0  0  0  0  0
  188.6310  174.3820  147.7530 O   0  0  0  0  0  1  0  0  0  0  0  0
  189.7180  174.6180  146.9820 N   0  0  0  0  0  0  0  0  0  0  0  0
  190.7890  175.3470  147.5170 N   0  0  0  0  0  1  0  0  0  0  0  0
  190.5440  171.3510  143.4180 O   0  0  0  0  0  0  0  0  0  0  0  0
  195.5460  173.0680  141.1370 C   0  0  1  0  0  0  0  0  0  0  0  0
  194.6450  170.6820  141.4180 O   0  0  0  0  0  0  0  0  0  0  0  0
  193.1160  171.9180  143.1410 O   0  0  0  0  0  0  0  0  0  0  0  0
  195.7410  170.0360  145.1190 C   0  0  0  0  0  1  0  0  0  0  0  0
  191.4290  169.3710  140.4980 O   0  0  0  0  0  0  0  0  0  0  0  0
  197.3820  171.4400  140.7290 O   0  0  0  0  0  1  0  0  0  0  0  0
  195.1120  171.3000  144.5430 C   0  0  0  0  0  0  0  0  0  0  0  0
  196.5530  173.8860  140.6490 F   0  0  0  0  0  0  0  0  0  0  0  0
  190.8750  169.6100  141.7600 C   0  0  0  0  0  2  0  0  0  0  0  0
  192.4530  171.5800  141.9150 C   0  0  1  0  0  3  0  0  0  0  0  0
  195.2060  172.0720  138.8700 O   0  0  0  0  0  1  0  0  0  0  0  0
  195.5750  173.1200  142.7010 C   0  0  1  0  0  3  0  0  0  0  0  0
  194.3300  173.6260  140.7380 O   0  0  0  0  0  1  0  0  0  0  0  0
  193.7520  170.9760  143.9540 C   0  0  0  0  0  0  0  0  0  0  0  0
  195.9460  169.8920  139.5690 O   0  0  0  0  0  1  0  0  0  0  0  0
  193.3420  170.7860  140.9120 C   0  0  2  0  0  3  0  0  0  0  0  0
  195.7380  171.3910  140.3280 P   0  0  0  0  0  0  0  0  0  0  0  0
  191.0010  171.0950  142.0930 C   0  0  2  0  0  3  0  0  0  0  0  0
  196.0820  171.8680  143.4610 C   0  0  1  0  0  3  0  0  0  0  0  0
  193.2070  169.8530  144.1510 O   0  0  0  0  0  0  0  0  0  0  0  0
  197.3790  172.0520  143.9530 O   0  0  0  0  0  1  0  0  0  0  0  0
  192.8130  169.3640  140.7030 C   0  0  0  0  0  2  0  0  0  0  0  0
  194.9140  172.2750  145.6900 C   0  0  0  0  0  1  0  0  0  0  0  0
  197.0800  174.3960  144.1690 O   0  0  0  0  0  1  0  0  0  0  0  0
  196.0400  174.4960  143.2460 C   0  0  2  0  0  3  0  0  0  0  0  0
  194.8890  175.2950  143.8540 C   0  0  0  0  0  2  0  0  0  0  0  0
  194.2210  175.9400  146.1240 C   0  0  0  0  0  2  0  0  0  0  0  0
  195.3080  176.0150  145.1280 C   0  0  2  0  0  3  0  0  0  0  0  0
  194.4380  177.0970  145.3550 O   0  0  0  0  0  0  0  0  0  0  0  0
  188.7790  175.8220  142.3370 C   0  0  0  0  0  2  0  0  0  0  0  0
  188.7260  177.2590  142.8820 C   0  0  1  0  0  3  0  0  0  0  0  0
  190.0840  177.7660  143.2810 C   0  0  0  0  0  0  0  0  0  0  0  0
  190.2700  178.2940  144.5520 O   0  0  0  0  0  1  0  0  0  0  0  0
  191.0630  177.6810  142.4910 O   0  0  0  0  0  0  0  0  0  0  0  0
  187.9730  178.1750  141.9110 C   0  0  0  0  0  2  0  0  0  0  0  0
  186.5700  178.5680  142.3700 C   0  0  2  0  0  3  0  0  0  0  0  0
  185.7500  177.2880  144.2630 O   0  0  0  0  0  0  0  0  0  0  0  0
  185.6040  179.6440  145.9810 C   0  0  0  0  0  2  0  0  0  0  0  0
  184.3400  177.8850  147.4540 C   0  0  0  0  0  2  0  0  0  0  0  0
  185.5870  179.6920  144.4530 C   0  0  0  0  0  2  0  0  0  0  0  0
  186.3640  178.4940  143.8850 C   0  0  2  0  0  3  0  0  0  0  0  0
  185.4360  178.2080  146.4640 C   0  0  0  0  0  0  0  0  0  0  0  0
  185.7790  178.0540  147.9250 C   0  0  0  0  0  2  0  0  0  0  0  0
  186.0510  177.0950  145.6220 C   0  0  0  0  0  2  0  0  0  0  0  0
  185.6250  177.7260  141.7250 O   0  0  0  0  0  0  0  0  0  0  0  0
  184.4740  178.2410  141.1320 C   0  0  0  0  0  0  0  0  0  0  0  0
  184.5400  178.7040  139.9610 O   0  0  0  0  0  0  0  0  0  0  0  0
  183.2530  178.2140  141.8160 O   0  0  0  0  0  0  0  0  0  0  0  0
  182.0000  178.1020  141.1450 C   0  0  0  0  0  2  0  0  0  0  0  0
  180.9330  179.0450  141.7110 C   0  0  2  0  0  0  0  0  0  0  0  0
  181.0750  179.5260  142.9980 F   0  0  0  0  0  0  0  0  0  0  0  0
  178.5310  179.5240  141.9150 F   0  0  0  0  0  0  0  0  0  0  0  0
  179.5700  179.0340  141.1450 C   0  0  0  0  0  0  0  0  0  0  0  0
  180.4980  180.0450  140.8160 O   0  0  0  0  0  0  0  0  0  0  0  0
  179.2900  178.2220  140.0620 F   0  0  0  0  0  0  0  0  0  0  0  0
  1  8  1  0  0  0  0
  2  1  1  0  0  0  0
  3  2  2  0  0  0  0
  4  5  2  0  0  0  0
  4  3  1  0  0  0  0
  5  6  1  0  0  0  0
  6  1  2  0  0  0  0
  8  9  1  0  0  0  0
  8  7  1  0  0  0  0
 10  3  1  0  0  0  0
 11 18  1  6  0  0  0
 11 22  1  0  0  0  0
 13 24  1  0  0  0  0
 15 32  1  0  0  0  0
 15 19  1  0  0  0  0
 17 14  1  0  0  0  0
 17 33  1  0  0  0  0
 19 28  1  0  0  0  0
 20 28  1  0  0  0  0
 20 13  1  1  0  0  0
 21 27  1  0  0  0  0
 22 35  1  6  0  0  0
 22 29  1  0  0  0  0
 23 11  1  0  0  0  0
 24 30  2  0  0  0  0
 24 17  1  0  0  0  0
 25 27  1  0  0  0  0
 26 32  1  1  0  0  0
 26 12  1  0  0  0  0
 26 20  1  0  0  0  0
 27 16  1  0  0  0  0
 27 11  1  0  0  0  0
 27 12  1  0  0  0  0
 28 10  1  1  0  0  0
 29 31  1  1  0  0  0
 29 17  1  0  0  0  0
 35 36  1  0  0  0  0
 35 34  1  1  0  0  0
 38 36  1  6  0  0  0
 38 39  1  0  0  0  0
 38 37  1  0  0  0  0
 39 37  1  0  0  0  0
 40 41  1  0  0  0  0
 40  5  1  0  0  0  0
 41 45  1  6  0  0  0
 41 42  1  0  0  0  0
 42 43  1  0  0  0  0
 44 42  2  0  0  0  0
 46 45  1  1  0  0  0
 47 54  1  0  0  0  0
 48 52  1  0  0  0  0
 49 53  1  0  0  0  0
 50 48  1  0  0  0  0
 51 46  1  6  0  0  0
 51 47  1  0  0  0  0
 51 50  1  0  0  0  0
 52 49  1  0  0  0  0
 52 53  1  0  0  0  0
 54 52  1  0  0  0  0
 55 46  1  0  0  0  0
 56 55  1  0  0  0  0
 56 58  1  0  0  0  0
 57 56  2  0  0  0  0
 59 60  1  0  0  0  0
 59 58  1  0  0  0  0
 60 61  1  1  0  0  0
 63 60  1  0  0  0  0
 63 62  1  0  0  0  0
 64 63  1  0  0  0  0
 64 60  1  0  0  0  0
 65 63  1  0  0  0  0
M  END
>  <MODEL>
1

>  <REMARK>
 VINA RESULT:      -8.2      0.000      0.000
  Name = 
  17 active torsions:
  status: ('A' for Active; 'I' for Inactive)
    1  A    between atoms: C_3  and  C_21
    2  A    between atoms: C_6  and  C_18
    3  A    between atoms: C_6  and  C_49
    4  A    between atoms: C_9  and  C_42
    5  A    between atoms: C_9  and  O_54
    6  A    between atoms: C_9  and  C_61
    7  A    between atoms: C_10  and  N_43
    8  A    between atoms: C_12  and  C_52
    9  A    between atoms: C_18  and  C_23
   10  A    between atoms: C_18  and  C_61
   11  A    between atoms: C_20  and  O_44
   12  A    between atoms: C_21  and  O_35
   13  A    between atoms: C_34  and  C_60
   14  A    between atoms: O_35  and  C_39
   15  A    between atoms: C_39  and  O_54
   16  A    between atoms: O_44  and  C_48
   17  A    between atoms: C_52  and  C_60
                            x       y       z     vdW  Elec       q    Type
                         _______ _______ _______ _____ _____    ______ ____

>  <TORSDO>
F 17

$$$$
=
 OpenBabel11072409103D

 65 71  0  0  1  0  0  0  0  0999 V2000
  188.9590  175.8640  144.9470 C   0  0  0  0  0  0  0  0  0  0  0  0
  189.7630  174.9560  144.2450 C   0  0  0  0  0  3  0  0  0  0  0  0
  189.3530  174.4940  142.9890 C   0  0  0  0  0  0  0  0  0  0  0  0
  188.1490  174.9490  142.4550 C   0  0  0  0  0  3  0  0  0  0  0  0
  187.3820  175.8810  143.1630 C   0  0  0  0  0  0  0  0  0  0  0  0
  187.7930  176.2970  144.3900 N   0  0  0  0  0  0  0  0  0  0  0  0
  189.9410  177.5310  146.3870 O   0  0  0  0  0  1  0  0  0  0  0  0
  189.3470  176.3240  146.2440 N   0  0  0  0  0  0  0  0  0  0  0  0
  189.2350  175.4810  147.3590 N   0  0  0  0  0  1  0  0  0  0  0  0
  190.1210  173.5920  142.2450 O   0  0  0  0  0  0  0  0  0  0  0  0
  195.6830  175.0080  141.7690 C   0  0  1  0  0  0  0  0  0  0  0  0
  194.4120  173.0910  140.6320 O   0  0  0  0  0  0  0  0  0  0  0  0
  192.7470  173.6060  142.5810 O   0  0  0  0  0  0  0  0  0  0  0  0
  194.6020  170.4340  143.5000 C   0  0  0  0  0  1  0  0  0  0  0  0
  191.3070  173.2110  138.8280 O   0  0  0  0  0  0  0  0  0  0  0  0
  197.3120  173.4330  140.7440 O   0  0  0  0  0  1  0  0  0  0  0  0
  194.2950  171.9220  143.6300 C   0  0  0  0  0  0  0  0  0  0  0  0
  196.8760  175.7020  141.9020 F   0  0  0  0  0  0  0  0  0  0  0  0
  190.5410  172.9010  139.9560 C   0  0  0  0  0  2  0  0  0  0  0  0
  192.3150  174.0970  141.3050 C   0  0  1  0  0  3  0  0  0  0  0  0
  195.6890  175.4020  139.3010 O   0  0  0  0  0  1  0  0  0  0  0  0
  195.3900  174.2570  143.1100 C   0  0  1  0  0  3  0  0  0  0  0  0
  194.6700  175.9560  141.6090 O   0  0  0  0  0  1  0  0  0  0  0  0
  193.0580  172.2650  142.8220 C   0  0  0  0  0  0  0  0  0  0  0  0
  195.9460  173.0640  138.7940 O   0  0  0  0  0  1  0  0  0  0  0  0
  193.2730  173.7350  140.1300 C   0  0  2  0  0  3  0  0  0  0  0  0
  195.7990  173.9770  140.2120 P   0  0  0  0  0  0  0  0  0  0  0  0
  190.8050  173.9400  141.0450 C   0  0  2  0  0  3  0  0  0  0  0  0
  195.5420  172.7150  143.1280 C   0  0  1  0  0  3  0  0  0  0  0  0
  192.3290  171.3580  142.3300 O   0  0  0  0  0  0  0  0  0  0  0  0
  196.7200  172.3190  143.7730 O   0  0  0  0  0  1  0  0  0  0  0  0
  192.6020  172.7800  139.1380 C   0  0  0  0  0  2  0  0  0  0  0  0
  194.0020  172.2010  145.0930 C   0  0  0  0  0  1  0  0  0  0  0  0
  197.1200  174.5010  144.8410 O   0  0  0  0  0  1  0  0  0  0  0  0
  195.9210  175.0200  144.3530 C   0  0  2  0  0  3  0  0  0  0  0  0
  194.8900  175.0790  145.4780 C   0  0  0  0  0  2  0  0  0  0  0  0
  193.6590  176.7460  146.7900 C   0  0  0  0  0  2  0  0  0  0  0  0
  194.0650  176.3570  145.4250 C   0  0  2  0  0  3  0  0  0  0  0  0
  192.7730  176.0930  145.9150 O   0  0  0  0  0  0  0  0  0  0  0  0
  186.1000  176.4190  142.5880 C   0  0  0  0  0  2  0  0  0  0  0  0
  186.2180  177.8350  142.0010 C   0  0  1  0  0  3  0  0  0  0  0  0
  187.3020  177.9310  140.9630 C   0  0  0  0  0  0  0  0  0  0  0  0
  188.5680  178.3640  141.3350 O   0  0  0  0  0  1  0  0  0  0  0  0
  187.0840  177.5880  139.7700 O   0  0  0  0  0  0  0  0  0  0  0  0
  184.8500  178.3380  141.5310 C   0  0  0  0  0  2  0  0  0  0  0  0
  183.7320  178.1930  142.5620 C   0  0  2  0  0  3  0  0  0  0  0  0
  182.3550  178.4590  140.5810 O   0  0  0  0  0  0  0  0  0  0  0  0
  179.9500  178.9990  142.1470 C   0  0  0  0  0  2  0  0  0  0  0  0
  179.1170  179.6180  139.7420 C   0  0  0  0  0  2  0  0  0  0  0  0
  181.3750  179.1940  142.6660 C   0  0  0  0  0  2  0  0  0  0  0  0
  182.3240  178.2090  141.9640 C   0  0  2  0  0  3  0  0  0  0  0  0
  179.9670  178.7510  140.6430 C   0  0  0  0  0  0  0  0  0  0  0  0
  178.6470  178.2240  140.1380 C   0  0  0  0  0  2  0  0  0  0  0  0
  181.1420  177.9730  140.0610 C   0  0  0  0  0  2  0  0  0  0  0  0
  183.8500  179.2390  143.5160 O   0  0  0  0  0  0  0  0  0  0  0  0
  184.7510  179.1620  144.5770 C   0  0  0  0  0  0  0  0  0  0  0  0
  185.5460  180.1180  144.7790 O   0  0  0  0  0  0  0  0  0  0  0  0
  184.7490  178.0490  145.4260 O   0  0  0  0  0  0  0  0  0  0  0  0
  184.5330  178.1570  146.8320 C   0  0  0  0  0  2  0  0  0  0  0  0
  185.8130  177.9620  147.6490 C   0  0  2  0  0  0  0  0  0  0  0  0
  186.0180  176.7620  148.3040 F   0  0  0  0  0  0  0  0  0  0  0  0
  187.3980  178.9690  149.2350 F   0  0  0  0  0  0  0  0  0  0  0  0
  186.5430  179.1380  148.1610 C   0  0  0  0  0  0  0  0  0  0  0  0
  186.9870  178.4310  147.0230 O   0  0  0  0  0  0  0  0  0  0  0  0
  186.1010  180.4070  147.8360 F   0  0  0  0  0  0  0  0  0  0  0  0
  1  8  1  0  0  0  0
  2  1  2  0  0  0  0
  3  2  1  0  0  0  0
  4  3  2  0  0  0  0
  4  5  1  0  0  0  0
  5  6  2  0  0  0  0
  6  1  1  0  0  0  0
  8  7  1  0  0  0  0
  8  9  1  0  0  0  0
 10  3  1  0  0  0  0
 11 23  1  6  0  0  0
 11 18  1  0  0  0  0
 11 22  1  0  0  0  0
 13 24  1  0  0  0  0
 14 17  1  0  0  0  0
 15 32  1  0  0  0  0
 15 19  1  0  0  0  0
 17 33  1  0  0  0  0
 19 28  1  0  0  0  0
 20 13  1  1  0  0  0
 21 27  1  0  0  0  0
 22 29  1  0  0  0  0
 22 35  1  1  0  0  0
 24 17  1  0  0  0  0
 25 27  1  0  0  0  0
 26 32  1  6  0  0  0
 26 12  1  0  0  0  0
 26 20  1  0  0  0  0
 27 12  1  0  0  0  0
 27 16  1  0  0  0  0
 27 11  1  0  0  0  0
 28 20  1  0  0  0  0
 28 10  1  1  0  0  0
 29 17  1  0  0  0  0
 29 31  1  1  0  0  0
 30 24  2  0  0  0  0
 35 34  1  1  0  0  0
 35 36  1  0  0  0  0
 38 36  1  1  0  0  0
 38 39  1  0  0  0  0
 38 37  1  0  0  0  0
 39 37  1  0  0  0  0
 40  5  1  0  0  0  0
 41 45  1  6  0  0  0
 41 40  1  0  0  0  0
 42 43  1  0  0  0  0
 42 41  1  0  0  0  0
 44 42  2  0  0  0  0
 46 45  1  6  0  0  0
 46 55  1  0  0  0  0
 47 51  1  0  0  0  0
 48 50  1  0  0  0  0
 49 53  1  0  0  0  0
 49 52  1  0  0  0  0
 51 46  1  1  0  0  0
 51 50  1  0  0  0  0
 52 48  1  0  0  0  0
 53 52  1  0  0  0  0
 54 47  1  0  0  0  0
 54 52  1  0  0  0  0
 55 56  1  0  0  0  0
 56 57  2  0  0  0  0
 56 58  1  0  0  0  0
 58 59  1  0  0  0  0
 59 60  1  0  0  0  0
 60 63  1  0  0  0  0
 60 61  1  1  0  0  0
 63 62  1  0  0  0  0
 64 60  1  0  0  0  0
 64 63  1  0  0  0  0
 65 63  1  0  0  0  0
M  END
>  <MODEL>
2

>  <REMARK>
 VINA RESULT:      -8.2      2.692      4.608
  Name = 
  17 active torsions:
  status: ('A' for Active; 'I' for Inactive)
    1  A    between atoms: C_3  and  C_21
    2  A    between atoms: C_6  and  C_18
    3  A    between atoms: C_6  and  C_49
    4  A    between atoms: C_9  and  C_42
    5  A    between atoms: C_9  and  O_54
    6  A    between atoms: C_9  and  C_61
    7  A    between atoms: C_10  and  N_43
    8  A    between atoms: C_12  and  C_52
    9  A    between atoms: C_18  and  C_23
   10  A    between atoms: C_18  and  C_61
   11  A    between atoms: C_20  and  O_44
   12  A    between atoms: C_21  and  O_35
   13  A    between atoms: C_34  and  C_60
   14  A    between atoms: O_35  and  C_39
   15  A    between atoms: C_39  and  O_54
   16  A    between atoms: O_44  and  C_48
   17  A    between atoms: C_52  and  C_60
                            x       y       z     vdW  Elec       q    Type
                         _______ _______ _______ _____ _____    ______ ____

>  <TORSDO>
F 17

$$$$
=
 OpenBabel11072409103D

 65 71  0  0  1  0  0  0  0  0999 V2000
  190.7520  171.6090  138.4480 C   0  0  0  0  0  0  0  0  0  0  0  0
  192.0410  172.1180  138.6550 C   0  0  0  0  0  3  0  0  0  0  0  0
  192.2080  173.3200  139.3520 C   0  0  0  0  0  0  0  0  0  0  0  0
  191.0860  173.9910  139.8320 C   0  0  0  0  0  3  0  0  0  0  0  0
  189.8120  173.4430  139.6410 C   0  0  0  0  0  0  0  0  0  0  0  0
  189.6770  172.2850  138.9420 N   0  0  0  0  0  0  0  0  0  0  0  0
  189.3760  170.1510  137.1060 O   0  0  0  0  0  1  0  0  0  0  0  0
  190.5600  170.3970  137.7130 N   0  0  0  0  0  0  0  0  0  0  0  0
  191.5430  169.3990  137.7210 N   0  0  0  0  0  1  0  0  0  0  0  0
  193.4730  173.8680  139.5890 O   0  0  0  0  0  0  0  0  0  0  0  0
  194.4440  172.0980  144.9830 C   0  0  1  0  0  0  0  0  0  0  0  0
  195.9920  173.4260  143.4270 O   0  0  0  0  0  0  0  0  0  0  0  0
  194.3410  172.4500  141.6500 O   0  0  0  0  0  0  0  0  0  0  0  0
  197.5510  170.4520  141.4150 C   0  0  0  0  0  1  0  0  0  0  0  0
  195.2630  176.3810  141.5170 O   0  0  0  0  0  0  0  0  0  0  0  0
  196.7400  172.1330  145.9380 O   0  0  0  0  0  1  0  0  0  0  0  0
  196.0890  170.6460  141.8050 C   0  0  0  0  0  0  0  0  0  0  0  0
  194.2400  171.5540  146.2420 F   0  0  0  0  0  0  0  0  0  0  0  0
  194.9140  175.6580  140.3710 C   0  0  0  0  0  2  0  0  0  0  0  0
  194.1260  173.8370  141.9400 C   0  0  1  0  0  3  0  0  0  0  0  0
  194.8310  174.3560  145.9820 O   0  0  0  0  0  1  0  0  0  0  0  0
  194.5990  170.9290  143.9540 C   0  0  1  0  0  3  0  0  0  0  0  0
  193.2800  172.7880  144.6370 O   0  0  0  0  0  1  0  0  0  0  0  0
  195.5650  171.9390  141.2090 C   0  0  0  0  0  0  0  0  0  0  0  0
  197.1320  174.4180  145.2840 O   0  0  0  0  0  1  0  0  0  0  0  0
  195.1500  174.4400  142.9500 C   0  0  2  0  0  3  0  0  0  0  0  0
  195.8550  173.3200  145.1160 P   0  0  0  0  0  0  0  0  0  0  0  0
  193.7770  174.6950  140.7090 C   0  0  2  0  0  3  0  0  0  0  0  0
  196.0060  170.6620  143.3630 C   0  0  1  0  0  3  0  0  0  0  0  0
  196.2360  172.5820  140.3520 O   0  0  0  0  0  0  0  0  0  0  0  0
  196.6030  169.5340  143.9390 O   0  0  0  0  0  1  0  0  0  0  0  0
  196.0330  175.4990  142.2840 C   0  0  0  0  0  2  0  0  0  0  0  0
  195.3010  169.4930  141.2100 C   0  0  0  0  0  1  0  0  0  0  0  0
  194.5330  168.6260  144.8140 O   0  0  0  0  0  1  0  0  0  0  0  0
  193.7580  169.6810  144.3330 C   0  0  2  0  0  3  0  0  0  0  0  0
  192.8890  169.1960  143.1760 C   0  0  0  0  0  2  0  0  0  0  0  0
  190.8590  169.6030  141.8590 C   0  0  0  0  0  2  0  0  0  0  0  0
  191.8150  170.2090  142.8080 C   0  0  2  0  0  3  0  0  0  0  0  0
  191.8790  170.4690  141.4270 O   0  0  0  0  0  0  0  0  0  0  0  0
  188.5900  174.1270  140.1880 C   0  0  0  0  0  2  0  0  0  0  0  0
  188.6390  174.3900  141.7020 C   0  0  1  0  0  3  0  0  0  0  0  0
  189.0650  173.1740  142.4760 C   0  0  0  0  0  0  0  0  0  0  0  0
  190.2090  173.2300  143.2610 O   0  0  0  0  0  1  0  0  0  0  0  0
  188.3740  172.1190  142.4520 O   0  0  0  0  0  0  0  0  0  0  0  0
  189.4600  175.6480  142.0030 C   0  0  0  0  0  2  0  0  0  0  0  0
  188.7830  176.6350  142.9510 C   0  0  2  0  0  3  0  0  0  0  0  0
  190.7420  176.2810  144.3410 O   0  0  0  0  0  0  0  0  0  0  0  0
  189.1540  176.0910  146.7850 C   0  0  0  0  0  2  0  0  0  0  0  0
  191.4940  175.3020  147.6580 C   0  0  0  0  0  2  0  0  0  0  0  0
  188.6040  175.8380  145.3800 C   0  0  0  0  0  2  0  0  0  0  0  0
  189.3910  176.6700  144.3550 C   0  0  2  0  0  3  0  0  0  0  0  0
  190.6750  176.1850  146.7450 C   0  0  0  0  0  0  0  0  0  0  0  0
  191.2440  176.7600  148.0180 C   0  0  0  0  0  2  0  0  0  0  0  0
  191.3200  176.8060  145.5110 C   0  0  0  0  0  2  0  0  0  0  0  0
  187.4040  176.3100  143.0430 O   0  0  0  0  0  0  0  0  0  0  0  0
  186.4250  177.1010  142.4450 C   0  0  0  0  0  0  0  0  0  0  0  0
  186.2910  177.0700  141.1920 O   0  0  0  0  0  0  0  0  0  0  0  0
  185.5810  177.8950  143.2300 O   0  0  0  0  0  0  0  0  0  0  0  0
  185.9890  178.4440  144.4800 C   0  0  0  0  0  2  0  0  0  0  0  0
  184.9180  178.3160  145.5670 C   0  0  2  0  0  0  0  0  0  0  0  0
  183.6340  178.7530  145.3030 F   0  0  0  0  0  0  0  0  0  0  0  0
  184.3900  178.5640  147.9550 F   0  0  0  0  0  0  0  0  0  0  0  0
  185.3190  178.2310  146.9860 C   0  0  0  0  0  0  0  0  0  0  0  0
  184.9270  177.0870  146.2590 O   0  0  0  0  0  0  0  0  0  0  0  0
  186.6610  178.1970  147.3120 F   0  0  0  0  0  0  0  0  0  0  0  0
  1  2  2  0  0  0  0
  1  6  1  0  0  0  0
  2  3  1  0  0  0  0
  3 10  1  0  0  0  0
  3  4  2  0  0  0  0
  5  4  1  0  0  0  0
  5 40  1  0  0  0  0
  6  5  2  0  0  0  0
  7  8  1  0  0  0  0
  8  9  1  0  0  0  0
  8  1  1  0  0  0  0
 11 23  1  6  0  0  0
 11 27  1  0  0  0  0
 11 18  1  0  0  0  0
 12 27  1  0  0  0  0
 14 17  1  0  0  0  0
 15 32  1  0  0  0  0
 17 29  1  0  0  0  0
 19 28  1  0  0  0  0
 19 15  1  0  0  0  0
 20 13  1  6  0  0  0
 20 26  1  0  0  0  0
 22 35  1  1  0  0  0
 22 11  1  0  0  0  0
 24 13  1  0  0  0  0
 24 17  1  0  0  0  0
 26 32  1  6  0  0  0
 26 12  1  0  0  0  0
 27 25  1  0  0  0  0
 27 16  1  0  0  0  0
 27 21  1  0  0  0  0
 28 10  1  6  0  0  0
 28 20  1  0  0  0  0
 29 31  1  1  0  0  0
 29 22  1  0  0  0  0
 30 24  2  0  0  0  0
 33 17  1  0  0  0  0
 35 34  1  6  0  0  0
 36 35  1  0  0  0  0
 37 38  1  0  0  0  0
 38 36  1  6  0  0  0
 39 37  1  0  0  0  0
 39 38  1  0  0  0  0
 41 40  1  6  0  0  0
 41 45  1  0  0  0  0
 41 42  1  0  0  0  0
 42 43  1  0  0  0  0
 44 42  2  0  0  0  0
 46 45  1  6  0  0  0
 46 55  1  0  0  0  0
 47 51  1  0  0  0  0
 47 54  1  0  0  0  0
 49 53  1  0  0  0  0
 50 48  1  0  0  0  0
 51 46  1  6  0  0  0
 51 50  1  0  0  0  0
 52 48  1  0  0  0  0
 52 49  1  0  0  0  0
 52 53  1  0  0  0  0
 54 52  1  0  0  0  0
 56 55  1  0  0  0  0
 56 58  1  0  0  0  0
 57 56  2  0  0  0  0
 58 59  1  0  0  0  0
 59 60  1  0  0  0  0
 60 61  1  6  0  0  0
 60 64  1  0  0  0  0
 60 63  1  0  0  0  0
 63 65  1  0  0  0  0
 63 62  1  0  0  0  0
 64 63  1  0  0  0  0
M  END
>  <MODEL>
3

>  <REMARK>
 VINA RESULT:      -8.0      3.243      5.889
  Name = 
  17 active torsions:
  status: ('A' for Active; 'I' for Inactive)
    1  A    between atoms: C_3  and  C_21
    2  A    between atoms: C_6  and  C_18
    3  A    between atoms: C_6  and  C_49
    4  A    between atoms: C_9  and  C_42
    5  A    between atoms: C_9  and  O_54
    6  A    between atoms: C_9  and  C_61
    7  A    between atoms: C_10  and  N_43
    8  A    between atoms: C_12  and  C_52
    9  A    between atoms: C_18  and  C_23
   10  A    between atoms: C_18  and  C_61
   11  A    between atoms: C_20  and  O_44
   12  A    between atoms: C_21  and  O_35
   13  A    between atoms: C_34  and  C_60
   14  A    between atoms: O_35  and  C_39
   15  A    between atoms: C_39  and  O_54
   16  A    between atoms: O_44  and  C_48
   17  A    between atoms: C_52  and  C_60
                            x       y       z     vdW  Elec       q    Type
                         _______ _______ _______ _____ _____    ______ ____

>  <TORSDO>
F 17

$$$$
=
 OpenBabel11072409103D

 65 71  0  0  1  0  0  0  0  0999 V2000
  188.9560  173.7580  139.0530 C   0  0  0  0  0  0  0  0  0  0  0  0
  189.8320  172.8300  139.6290 C   0  0  0  0  0  3  0  0  0  0  0  0
  190.0200  172.8220  141.0170 C   0  0  0  0  0  0  0  0  0  0  0  0
  189.3270  173.7390  141.8040 C   0  0  0  0  0  3  0  0  0  0  0  0
  188.4330  174.6340  141.2050 C   0  0  0  0  0  0  0  0  0  0  0  0
  188.2850  174.6340  139.8540 N   0  0  0  0  0  0  0  0  0  0  0  0
  187.9850  174.7500  137.0800 O   0  0  0  0  0  1  0  0  0  0  0  0
  188.7740  173.8010  137.6350 N   0  0  0  0  0  0  0  0  0  0  0  0
  189.3010  172.7890  136.8220 N   0  0  0  0  0  1  0  0  0  0  0  0
  190.8800  171.9120  141.6420 O   0  0  0  0  0  0  0  0  0  0  0  0
  196.6370  172.0560  141.7210 C   0  0  1  0  0  0  0  0  0  0  0  0
  195.0700  170.1350  142.3850 O   0  0  0  0  0  0  0  0  0  0  0  0
  193.3760  172.1230  142.4990 O   0  0  0  0  0  0  0  0  0  0  0  0
  194.2850  171.2190  146.0640 C   0  0  0  0  0  1  0  0  0  0  0  0
  192.3090  168.7500  140.5510 O   0  0  0  0  0  0  0  0  0  0  0  0
  197.9350  170.3140  142.9330 O   0  0  0  0  0  1  0  0  0  0  0  0
  194.3390  172.1060  144.8240 C   0  0  0  0  0  0  0  0  0  0  0  0
  197.9410  172.4890  141.5370 F   0  0  0  0  0  0  0  0  0  0  0  0
  191.3700  169.5820  141.1690 C   0  0  0  0  0  2  0  0  0  0  0  0
  193.2220  171.2970  141.3390 C   0  0  1  0  0  3  0  0  0  0  0  0
  197.0130  170.1430  140.1570 O   0  0  0  0  0  1  0  0  0  0  0  0
  196.0220  172.8270  142.9360 C   0  0  1  0  0  3  0  0  0  0  0  0
  195.9100  172.4390  140.5920 O   0  0  0  0  0  1  0  0  0  0  0  0
  193.3200  171.6300  143.8060 C   0  0  0  0  0  0  0  0  0  0  0  0
  196.7450  168.4970  141.8910 O   0  0  0  0  0  1  0  0  0  0  0  0
  194.1860  170.0730  141.3000 C   0  0  2  0  0  3  0  0  0  0  0  0
  196.6690  170.1870  141.8160 P   0  0  0  0  0  0  0  0  0  0  0  0
  191.7570  171.0410  140.9330 C   0  0  2  0  0  3  0  0  0  0  0  0
  195.7890  172.0440  144.2530 C   0  0  1  0  0  3  0  0  0  0  0  0
  192.4510  170.7640  144.1090 O   0  0  0  0  0  0  0  0  0  0  0  0
  196.7550  172.3550  145.2170 O   0  0  0  0  0  1  0  0  0  0  0  0
  193.4170  168.7530  141.4060 C   0  0  0  0  0  2  0  0  0  0  0  0
  193.9630  173.5130  145.2540 C   0  0  0  0  0  1  0  0  0  0  0  0
  197.1420  174.5160  144.3290 O   0  0  0  0  0  1  0  0  0  0  0  0
  196.5820  174.2680  143.0770 C   0  0  2  0  0  3  0  0  0  0  0  0
  195.5310  175.3300  142.7630 C   0  0  0  0  0  2  0  0  0  0  0  0
  196.3300  175.9860  140.5390 C   0  0  0  0  0  2  0  0  0  0  0  0
  196.1000  176.4600  141.9180 C   0  0  2  0  0  3  0  0  0  0  0  0
  197.3810  176.0990  141.4650 O   0  0  0  0  0  0  0  0  0  0  0  0
  187.6420  175.6040  142.0380 C   0  0  0  0  0  2  0  0  0  0  0  0
  187.5260  177.0110  141.4270 C   0  0  1  0  0  3  0  0  0  0  0  0
  186.0980  177.3980  141.1610 C   0  0  0  0  0  0  0  0  0  0  0  0
  185.7150  177.7540  139.8740 O   0  0  0  0  0  0  0  0  0  0  0  0
  185.2380  177.3670  142.0830 O   0  0  0  0  0  1  0  0  0  0  0  0
  188.3080  178.0270  142.2650 C   0  0  0  0  0  2  0  0  0  0  0  0
  188.6970  177.5360  143.6570 C   0  0  2  0  0  3  0  0  0  0  0  0
  186.9300  176.7180  145.1070 O   0  0  0  0  0  0  0  0  0  0  0  0
  185.8730  179.4000  145.5750 C   0  0  0  0  0  2  0  0  0  0  0  0
  183.9700  177.9340  146.6210 C   0  0  0  0  0  2  0  0  0  0  0  0
  186.7250  179.0100  144.3660 C   0  0  0  0  0  2  0  0  0  0  0  0
  187.6690  177.8580  144.7440 C   0  0  2  0  0  3  0  0  0  0  0  0
  185.4390  178.1530  146.3360 C   0  0  0  0  0  0  0  0  0  0  0  0
  184.8920  178.4810  147.7030 C   0  0  0  0  0  2  0  0  0  0  0  0
  186.4050  176.9740  146.3860 C   0  0  0  0  0  2  0  0  0  0  0  0
  189.9500  178.1050  144.0120 O   0  0  0  0  0  0  0  0  0  0  0  0
  190.9360  177.3580  144.6530 C   0  0  0  0  0  0  0  0  0  0  0  0
  191.9560  177.0010  144.0040 O   0  0  0  0  0  0  0  0  0  0  0  0
  190.8090  177.0360  146.0090 O   0  0  0  0  0  0  0  0  0  0  0  0
  191.2050  175.7720  146.5380 C   0  0  0  0  0  2  0  0  0  0  0  0
  190.0910  174.7230  146.4730 C   0  0  2  0  0  0  0  0  0  0  0  0
  189.3940  174.4100  147.6240 F   0  0  0  0  0  0  0  0  0  0  0  0
  189.3900  172.5400  145.5880 F   0  0  0  0  0  0  0  0  0  0  0  0
  190.0960  173.7130  145.3960 C   0  0  0  0  0  0  0  0  0  0  0  0
  189.2420  174.8360  145.3530 O   0  0  0  0  0  0  0  0  0  0  0  0
  191.0680  173.7700  144.4150 F   0  0  0  0  0  0  0  0  0  0  0  0
  1  2  2  0  0  0  0
  1  6  1  0  0  0  0
  2  3  1  0  0  0  0
  3 10  1  0  0  0  0
  3  4  2  0  0  0  0
  5  4  1  0  0  0  0
  5 40  1  0  0  0  0
  6  5  2  0  0  0  0
  7  8  1  0  0  0  0
  8  1  1  0  0  0  0
  9  8  1  0  0  0  0
 11 23  1  6  0  0  0
 11 27  1  0  0  0  0
 11 22  1  0  0  0  0
 13 24  1  0  0  0  0
 15 19  1  0  0  0  0
 15 32  1  0  0  0  0
 17 33  1  0  0  0  0
 17 14  1  0  0  0  0
 18 11  1  0  0  0  0
 20 13  1  1  0  0  0
 21 27  1  0  0  0  0
 22 35  1  1  0  0  0
 22 29  1  0  0  0  0
 24 30  2  0  0  0  0
 24 17  1  0  0  0  0
 26 20  1  0  0  0  0
 26 32  1  1  0  0  0
 26 12  1  0  0  0  0
 27 25  1  0  0  0  0
 27 12  1  0  0  0  0
 27 16  1  0  0  0  0
 28 19  1  0  0  0  0
 28 20  1  0  0  0  0
 28 10  1  1  0  0  0
 29 17  1  0  0  0  0
 29 31  1  1  0  0  0
 35 34  1  1  0  0  0
 36 35  1  0  0  0  0
 37 39  1  0  0  0  0
 37 38  1  0  0  0  0
 38 36  1  1  0  0  0
 39 38  1  0  0  0  0
 41 40  1  1  0  0  0
 41 45  1  0  0  0  0
 42 41  1  0  0  0  0
 42 44  1  0  0  0  0
 43 42  2  0  0  0  0
 46 45  1  6  0  0  0
 46 55  1  0  0  0  0
 47 54  1  0  0  0  0
 48 52  1  0  0  0  0
 49 53  1  0  0  0  0
 50 51  1  0  0  0  0
 50 48  1  0  0  0  0
 51 46  1  6  0  0  0
 51 47  1  0  0  0  0
 52 54  1  0  0  0  0
 52 49  1  0  0  0  0
 52 53  1  0  0  0  0
 55 56  1  0  0  0  0
 56 58  1  0  0  0  0
 57 56  2  0  0  0  0
 58 59  1  0  0  0  0
 60 59  1  0  0  0  0
 60 61  1  1  0  0  0
 63 62  1  0  0  0  0
 63 60  1  0  0  0  0
 64 63  1  0  0  0  0
 64 60  1  0  0  0  0
 65 63  1  0  0  0  0
M  END
>  <MODEL>
4

>  <REMARK>
 VINA RESULT:      -7.9      3.594      5.448
  Name = 
  17 active torsions:
  status: ('A' for Active; 'I' for Inactive)
    1  A    between atoms: C_3  and  C_21
    2  A    between atoms: C_6  and  C_18
    3  A    between atoms: C_6  and  C_49
    4  A    between atoms: C_9  and  C_42
    5  A    between atoms: C_9  and  O_54
    6  A    between atoms: C_9  and  C_61
    7  A    between atoms: C_10  and  N_43
    8  A    between atoms: C_12  and  C_52
    9  A    between atoms: C_18  and  C_23
   10  A    between atoms: C_18  and  C_61
   11  A    between atoms: C_20  and  O_44
   12  A    between atoms: C_21  and  O_35
   13  A    between atoms: C_34  and  C_60
   14  A    between atoms: O_35  and  C_39
   15  A    between atoms: C_39  and  O_54
   16  A    between atoms: O_44  and  C_48
   17  A    between atoms: C_52  and  C_60
                            x       y       z     vdW  Elec       q    Type
                         _______ _______ _______ _____ _____    ______ ____

>  <TORSDO>
F 17

$$$$
=
 OpenBabel11072409103D

 65 71  0  0  1  0  0  0  0  0999 V2000
  188.9580  173.7930  138.5970 C   0  0  0  0  0  0  0  0  0  0  0  0
  189.7660  172.8920  139.3020 C   0  0  0  0  0  3  0  0  0  0  0  0
  189.8350  172.9680  140.6990 C   0  0  0  0  0  0  0  0  0  0  0  0
  189.0930  173.9410  141.3650 C   0  0  0  0  0  3  0  0  0  0  0  0
  188.2680  174.8070  140.6380 C   0  0  0  0  0  0  0  0  0  0  0  0
  188.2370  174.7250  139.2810 N   0  0  0  0  0  0  0  0  0  0  0  0
  189.3220  172.6490  136.5040 O   0  0  0  0  0  1  0  0  0  0  0  0
  188.8990  173.7490  137.1690 N   0  0  0  0  0  0  0  0  0  0  0  0
  188.5250  174.8860  136.4390 N   0  0  0  0  0  1  0  0  0  0  0  0
  190.6220  172.0890  141.4500 O   0  0  0  0  0  0  0  0  0  0  0  0
  195.5420  171.8400  138.4670 C   0  0  1  0  0  0  0  0  0  0  0  0
  194.9390  170.6690  140.6680 O   0  0  0  0  0  0  0  0  0  0  0  0
  193.1120  172.5380  140.6690 O   0  0  0  0  0  0  0  0  0  0  0  0
  195.7710  173.5690  143.1620 C   0  0  0  0  0  1  0  0  0  0  0  0
  192.0180  168.7300  141.4580 O   0  0  0  0  0  0  0  0  0  0  0  0
  197.6040  170.9020  139.4930 O   0  0  0  0  0  1  0  0  0  0  0  0
  195.0360  173.6710  141.8290 C   0  0  0  0  0  0  0  0  0  0  0  0
  196.4730  172.0180  137.4550 F   0  0  0  0  0  0  0  0  0  0  0  0
  191.3270  169.8280  141.9810 C   0  0  0  0  0  2  0  0  0  0  0  0
  192.6120  171.2400  140.3220 C   0  0  1  0  0  3  0  0  0  0  0  0
  195.5420  169.3700  138.0820 O   0  0  0  0  0  1  0  0  0  0  0  0
  195.4220  173.1750  139.2750 C   0  0  1  0  0  3  0  0  0  0  0  0
  194.3040  171.6270  137.8560 O   0  0  0  0  0  1  0  0  0  0  0  0
  193.7900  172.8070  141.8610 C   0  0  0  0  0  0  0  0  0  0  0  0
  196.4940  168.8990  140.2410 O   0  0  0  0  0  1  0  0  0  0  0  0
  193.6850  170.1110  140.3850 C   0  0  2  0  0  3  0  0  0  0  0  0
  196.0240  170.3000  139.4150 P   0  0  0  0  0  0  0  0  0  0  0  0
  191.2270  170.9160  140.9130 C   0  0  2  0  0  3  0  0  0  0  0  0
  196.0180  173.2150  140.7050 C   0  0  1  0  0  3  0  0  0  0  0  0
  193.3810  172.2920  142.9400 O   0  0  0  0  0  0  0  0  0  0  0  0
  197.2300  173.9140  140.7410 O   0  0  0  0  0  1  0  0  0  0  0  0
  193.3680  169.1010  141.4910 C   0  0  0  0  0  2  0  0  0  0  0  0
  194.6100  175.1170  141.6520 C   0  0  0  0  0  1  0  0  0  0  0  0
  196.5560  175.3330  138.9530 O   0  0  0  0  0  1  0  0  0  0  0  0
  195.6510  174.4310  138.3940 C   0  0  2  0  0  3  0  0  0  0  0  0
  194.3460  175.1510  138.0640 C   0  0  0  0  0  2  0  0  0  0  0  0
  192.6620  175.6460  136.3500 C   0  0  0  0  0  2  0  0  0  0  0  0
  193.9290  174.9360  136.6160 C   0  0  2  0  0  3  0  0  0  0  0  0
  192.6960  174.2600  136.5850 O   0  0  0  0  0  0  0  0  0  0  0  0
  187.4260  175.8370  141.3390 C   0  0  0  0  0  2  0  0  0  0  0  0
  187.4370  177.2220  140.6690 C   0  0  1  0  0  3  0  0  0  0  0  0
  186.1270  177.5410  140.0040 C   0  0  0  0  0  0  0  0  0  0  0  0
  185.2230  178.3790  140.6430 O   0  0  0  0  0  1  0  0  0  0  0  0
  185.8580  177.0890  138.8580 O   0  0  0  0  0  0  0  0  0  0  0  0
  187.9200  178.2910  141.6540 C   0  0  0  0  0  2  0  0  0  0  0  0
  188.4670  177.7410  142.9700 C   0  0  2  0  0  3  0  0  0  0  0  0
  187.3210  176.9610  144.9630 O   0  0  0  0  0  0  0  0  0  0  0  0
  185.6660  179.3610  145.1290 C   0  0  0  0  0  2  0  0  0  0  0  0
  184.4970  177.8360  146.9090 C   0  0  0  0  0  2  0  0  0  0  0  0
  186.3390  178.8680  143.8470 C   0  0  0  0  0  2  0  0  0  0  0  0
  187.6240  178.1000  144.1950 C   0  0  2  0  0  3  0  0  0  0  0  0
  185.7590  178.2960  146.2150 C   0  0  0  0  0  0  0  0  0  0  0  0
  185.4220  178.8430  147.5800 C   0  0  0  0  0  2  0  0  0  0  0  0
  187.0090  177.4220  146.2540 C   0  0  0  0  0  2  0  0  0  0  0  0
  189.7910  178.2210  143.1530 O   0  0  0  0  0  0  0  0  0  0  0  0
  190.8060  177.3990  143.6390 C   0  0  0  0  0  0  0  0  0  0  0  0
  191.3810  176.6010  142.8510 O   0  0  0  0  0  0  0  0  0  0  0  0
  191.2010  177.4820  144.9790 O   0  0  0  0  0  0  0  0  0  0  0  0
  191.1270  176.3710  145.8700 C   0  0  0  0  0  2  0  0  0  0  0  0
  192.4140  176.1660  146.6760 C   0  0  2  0  0  0  0  0  0  0  0  0
  192.6910  177.0150  147.7290 F   0  0  0  0  0  0  0  0  0  0  0  0
  194.8180  175.6630  146.5930 F   0  0  0  0  0  0  0  0  0  0  0  0
  193.5560  175.4580  146.0650 C   0  0  0  0  0  0  0  0  0  0  0  0
  192.7010  174.8200  146.9900 O   0  0  0  0  0  0  0  0  0  0  0  0
  193.4270  174.9260  144.7960 F   0  0  0  0  0  0  0  0  0  0  0  0
  1  6  2  0  0  0  0
  1  2  1  0  0  0  0
  2  3  2  0  0  0  0
  3  4  1  0  0  0  0
  3 10  1  0  0  0  0
  5 40  1  0  0  0  0
  5  4  2  0  0  0  0
  6  5  1  0  0  0  0
  7  8  1  0  0  0  0
  8  1  1  0  0  0  0
  9  8  1  0  0  0  0
 11 18  1  6  0  0  0
 11 22  1  0  0  0  0
 11 27  1  0  0  0  0
 13 24  1  0  0  0  0
 15 32  1  0  0  0  0
 15 19  1  0  0  0  0
 17 24  1  0  0  0  0
 17 14  1  0  0  0  0
 20 26  1  0  0  0  0
 20 13  1  1  0  0  0
 20 28  1  0  0  0  0
 21 27  1  0  0  0  0
 22 35  1  6  0  0  0
 22 29  1  0  0  0  0
 23 11  1  0  0  0  0
 24 30  2  0  0  0  0
 26 12  1  0  0  0  0
 26 32  1  1  0  0  0
 27 16  1  0  0  0  0
 27 25  1  0  0  0  0
 27 12  1  0  0  0  0
 28 10  1  1  0  0  0
 28 19  1  0  0  0  0
 29 31  1  6  0  0  0
 29 17  1  0  0  0  0
 33 17  1  0  0  0  0
 35 34  1  1  0  0  0
 36 35  1  0  0  0  0
 37 39  1  0  0  0  0
 37 38  1  0  0  0  0
 38 36  1  1  0  0  0
 39 38  1  0  0  0  0
 41 40  1  1  0  0  0
 41 45  1  0  0  0  0
 42 43  1  0  0  0  0
 42 41  1  0  0  0  0
 44 42  2  0  0  0  0
 46 45  1  6  0  0  0
 46 55  1  0  0  0  0
 47 54  1  0  0  0  0
 48 52  1  0  0  0  0
 49 53  1  0  0  0  0
 50 51  1  0  0  0  0
 50 48  1  0  0  0  0
 51 46  1  6  0  0  0
 51 47  1  0  0  0  0
 52 54  1  0  0  0  0
 52 49  1  0  0  0  0
 52 53  1  0  0  0  0
 55 56  1  0  0  0  0
 56 58  1  0  0  0  0
 57 56  2  0  0  0  0
 58 59  1  0  0  0  0
 59 60  1  0  0  0  0
 60 64  1  0  0  0  0
 60 61  1  1  0  0  0
 63 62  1  0  0  0  0
 63 60  1  0  0  0  0
 63 64  1  0  0  0  0
 65 63  1  0  0  0  0
M  END
>  <MODEL>
5

>  <REMARK>
 VINA RESULT:      -7.6      4.195      6.520
  Name = 
  17 active torsions:
  status: ('A' for Active; 'I' for Inactive)
    1  A    between atoms: C_3  and  C_21
    2  A    between atoms: C_6  and  C_18
    3  A    between atoms: C_6  and  C_49
    4  A    between atoms: C_9  and  C_42
    5  A    between atoms: C_9  and  O_54
    6  A    between atoms: C_9  and  C_61
    7  A    between atoms: C_10  and  N_43
    8  A    between atoms: C_12  and  C_52
    9  A    between atoms: C_18  and  C_23
   10  A    between atoms: C_18  and  C_61
   11  A    between atoms: C_20  and  O_44
   12  A    between atoms: C_21  and  O_35
   13  A    between atoms: C_34  and  C_60
   14  A    between atoms: O_35  and  C_39
   15  A    between atoms: C_39  and  O_54
   16  A    between atoms: O_44  and  C_48
   17  A    between atoms: C_52  and  C_60
                            x       y       z     vdW  Elec       q    Type
                         _______ _______ _______ _____ _____    ______ ____

>  <TORSDO>
F 17

$$$$
=
 OpenBabel11072409103D

 65 71  0  0  1  0  0  0  0  0999 V2000
  191.3800  176.3020  146.3740 C   0  0  0  0  0  0  0  0  0  0  0  0
  191.4010  174.9800  145.9120 C   0  0  0  0  0  3  0  0  0  0  0  0
  190.4820  174.5700  144.9380 C   0  0  0  0  0  0  0  0  0  0  0  0
  189.5600  175.4890  144.4420 C   0  0  0  0  0  3  0  0  0  0  0  0
  189.5820  176.8120  144.8980 C   0  0  0  0  0  0  0  0  0  0  0  0
  190.4720  177.1780  145.8590 N   0  0  0  0  0  0  0  0  0  0  0  0
  191.8250  177.2800  148.5340 O   0  0  0  0  0  1  0  0  0  0  0  0
  192.2910  176.7300  147.3890 N   0  0  0  0  0  0  0  0  0  0  0  0
  193.6740  176.7060  147.1570 N   0  0  0  0  0  1  0  0  0  0  0  0
  190.4650  173.2630  144.4400 O   0  0  0  0  0  0  0  0  0  0  0  0
  195.1800  172.7470  141.1730 C   0  0  1  0  0  0  0  0  0  0  0  0
  193.3570  171.0050  141.6450 O   0  0  0  0  0  0  0  0  0  0  0  0
  192.9100  172.6370  143.6380 O   0  0  0  0  0  0  0  0  0  0  0  0
  194.6970  169.6090  145.0470 C   0  0  0  0  0  1  0  0  0  0  0  0
  189.7890  171.3650  141.4110 O   0  0  0  0  0  0  0  0  0  0  0  0
  195.9570  170.5120  140.4060 O   0  0  0  0  0  1  0  0  0  0  0  0
  194.6220  171.0670  144.6050 C   0  0  0  0  0  0  0  0  0  0  0  0
  196.3410  173.0670  140.4840 F   0  0  0  0  0  0  0  0  0  0  0  0
  189.6500  171.7140  142.7580 C   0  0  0  0  0  2  0  0  0  0  0  0
  191.9530  172.7440  142.5760 C   0  0  1  0  0  3  0  0  0  0  0  0
  194.0110  172.2170  139.0280 O   0  0  0  0  0  1  0  0  0  0  0  0
  195.5180  172.6410  142.6970 C   0  0  1  0  0  3  0  0  0  0  0  0
  194.3040  173.8250  141.0290 O   0  0  0  0  0  1  0  0  0  0  0  0
  193.1820  171.4410  144.3080 C   0  0  0  0  0  0  0  0  0  0  0  0
  193.7850  169.8840  139.5730 O   0  0  0  0  0  1  0  0  0  0  0  0
  192.1770  171.7280  141.4160 C   0  0  2  0  0  3  0  0  0  0  0  0
  194.4300  171.2430  140.3510 P   0  0  0  0  0  0  0  0  0  0  0  0
  190.5010  172.9480  143.0510 C   0  0  2  0  0  3  0  0  0  0  0  0
  195.5260  171.2330  143.3440 C   0  0  1  0  0  3  0  0  0  0  0  0
  192.2310  170.6700  144.6190 O   0  0  0  0  0  0  0  0  0  0  0  0
  196.8300  170.7710  143.5590 O   0  0  0  0  0  1  0  0  0  0  0  0
  191.0280  170.7190  141.3280 C   0  0  0  0  0  2  0  0  0  0  0  0
  195.1080  171.9210  145.7620 C   0  0  0  0  0  1  0  0  0  0  0  0
  197.7560  172.9490  143.6700 O   0  0  0  0  0  1  0  0  0  0  0  0
  196.6520  173.6080  143.1280 C   0  0  2  0  0  3  0  0  0  0  0  0
  196.1620  174.6760  144.1030 C   0  0  0  0  0  2  0  0  0  0  0  0
  196.8080  176.9080  143.3150 C   0  0  0  0  0  2  0  0  0  0  0  0
  195.7000  175.9340  143.3820 C   0  0  2  0  0  3  0  0  0  0  0  0
  195.7780  177.0270  144.2630 O   0  0  0  0  0  0  0  0  0  0  0  0
  188.6250  177.8330  144.3460 C   0  0  0  0  0  2  0  0  0  0  0  0
  187.1440  177.5130  144.6080 C   0  0  1  0  0  3  0  0  0  0  0  0
  186.8250  177.4610  146.0770 C   0  0  0  0  0  0  0  0  0  0  0  0
  186.2440  178.5640  146.6890 O   0  0  0  0  0  0  0  0  0  0  0  0
  187.0430  176.4160  146.7470 O   0  0  0  0  0  1  0  0  0  0  0  0
  186.2400  178.4510  143.8010 C   0  0  0  0  0  2  0  0  0  0  0  0
  185.8470  177.9230  142.4230 C   0  0  2  0  0  3  0  0  0  0  0  0
  184.0830  178.3690  140.8170 O   0  0  0  0  0  0  0  0  0  0  0  0
  182.0640  178.6870  142.9030 C   0  0  0  0  0  2  0  0  0  0  0  0
  180.7430  179.5410  140.8080 C   0  0  0  0  0  2  0  0  0  0  0  0
  183.5670  178.8550  143.1280 C   0  0  0  0  0  2  0  0  0  0  0  0
  184.3450  177.9720  142.1400 C   0  0  2  0  0  3  0  0  0  0  0  0
  181.7620  178.6020  141.4110 C   0  0  0  0  0  0  0  0  0  0  0  0
  180.3640  178.1040  141.1400 C   0  0  0  0  0  2  0  0  0  0  0  0
  182.7870  177.9160  140.5130 C   0  0  0  0  0  2  0  0  0  0  0  0
  186.3070  176.5840  142.2980 O   0  0  0  0  0  0  0  0  0  0  0  0
  187.1990  176.2090  141.2960 C   0  0  0  0  0  0  0  0  0  0  0  0
  187.4390  177.0110  140.3530 O   0  0  0  0  0  0  0  0  0  0  0  0
  187.8450  174.9680  141.3530 O   0  0  0  0  0  0  0  0  0  0  0  0
  188.8580  174.5870  140.4240 C   0  0  0  0  0  2  0  0  0  0  0  0
  188.3480  173.6290  139.3430 C   0  0  2  0  0  0  0  0  0  0  0  0
  187.4660  172.6260  139.6950 F   0  0  0  0  0  0  0  0  0  0  0  0
  188.9260  172.2790  137.3730 F   0  0  0  0  0  0  0  0  0  0  0  0
  189.1340  173.4310  138.1100 C   0  0  0  0  0  0  0  0  0  0  0  0
  187.9870  174.2520  138.1300 O   0  0  0  0  0  0  0  0  0  0  0  0
  190.2880  174.1660  137.9120 F   0  0  0  0  0  0  0  0  0  0  0  0
  1  8  1  0  0  0  0
  2  1  1  0  0  0  0
  3  2  2  0  0  0  0
  4  5  2  0  0  0  0
  4  3  1  0  0  0  0
  5  6  1  0  0  0  0
  6  1  2  0  0  0  0
  8  7  1  0  0  0  0
  9  8  1  0  0  0  0
 10  3  1  0  0  0  0
 11 18  1  6  0  0  0
 11 22  1  0  0  0  0
 13 24  1  0  0  0  0
 15 19  1  0  0  0  0
 17 14  1  0  0  0  0
 17 33  1  0  0  0  0
 19 28  1  0  0  0  0
 20 28  1  0  0  0  0
 20 13  1  1  0  0  0
 21 27  1  0  0  0  0
 22 35  1  6  0  0  0
 22 29  1  0  0  0  0
 23 11  1  0  0  0  0
 24 17  1  0  0  0  0
 24 30  2  0  0  0  0
 25 27  1  0  0  0  0
 26 32  1  1  0  0  0
 26 12  1  0  0  0  0
 26 20  1  0  0  0  0
 27 16  1  0  0  0  0
 27 11  1  0  0  0  0
 27 12  1  0  0  0  0
 28 10  1  1  0  0  0
 29 31  1  1  0  0  0
 29 17  1  0  0  0  0
 32 15  1  0  0  0  0
 35 34  1  1  0  0  0
 35 36  1  0  0  0  0
 37 38  1  0  0  0  0
 37 39  1  0  0  0  0
 38 36  1  1  0  0  0
 38 39  1  0  0  0  0
 40 41  1  0  0  0  0
 40  5  1  0  0  0  0
 41 45  1  6  0  0  0
 41 42  1  0  0  0  0
 42 43  2  0  0  0  0
 42 44  1  0  0  0  0
 46 45  1  1  0  0  0
 47 51  1  0  0  0  0
 48 50  1  0  0  0  0
 49 53  1  0  0  0  0
 49 52  1  0  0  0  0
 51 46  1  1  0  0  0
 51 50  1  0  0  0  0
 52 48  1  0  0  0  0
 53 52  1  0  0  0  0
 54 47  1  0  0  0  0
 54 52  1  0  0  0  0
 55 46  1  0  0  0  0
 56 58  1  0  0  0  0
 56 55  1  0  0  0  0
 57 56  2  0  0  0  0
 59 58  1  0  0  0  0
 60 61  1  1  0  0  0
 60 59  1  0  0  0  0
 62 63  1  0  0  0  0
 63 64  1  0  0  0  0
 63 60  1  0  0  0  0
 64 60  1  0  0  0  0
 65 63  1  0  0  0  0
M  END
>  <MODEL>
6

>  <REMARK>
 VINA RESULT:      -7.6      2.856      4.611
  Name = 
  17 active torsions:
  status: ('A' for Active; 'I' for Inactive)
    1  A    between atoms: C_3  and  C_21
    2  A    between atoms: C_6  and  C_18
    3  A    between atoms: C_6  and  C_49
    4  A    between atoms: C_9  and  C_42
    5  A    between atoms: C_9  and  O_54
    6  A    between atoms: C_9  and  C_61
    7  A    between atoms: C_10  and  N_43
    8  A    between atoms: C_12  and  C_52
    9  A    between atoms: C_18  and  C_23
   10  A    between atoms: C_18  and  C_61
   11  A    between atoms: C_20  and  O_44
   12  A    between atoms: C_21  and  O_35
   13  A    between atoms: C_34  and  C_60
   14  A    between atoms: O_35  and  C_39
   15  A    between atoms: C_39  and  O_54
   16  A    between atoms: O_44  and  C_48
   17  A    between atoms: C_52  and  C_60
                            x       y       z     vdW  Elec       q    Type
                         _______ _______ _______ _____ _____    ______ ____

>  <TORSDO>
F 17

$$$$
=
 OpenBabel11072409103D

 65 71  0  0  1  0  0  0  0  0999 V2000
  187.8330  174.8180  138.2940 C   0  0  0  0  0  0  0  0  0  0  0  0
  188.7510  174.0960  137.5200 C   0  0  0  0  0  3  0  0  0  0  0  0
  189.5150  173.0850  138.1150 C   0  0  0  0  0  0  0  0  0  0  0  0
  189.3480  172.8130  139.4710 C   0  0  0  0  0  3  0  0  0  0  0  0
  188.4010  173.5270  140.2130 C   0  0  0  0  0  0  0  0  0  0  0  0
  187.6870  174.5180  139.6150 N   0  0  0  0  0  0  0  0  0  0  0  0
  187.0960  176.0780  136.3730 O   0  0  0  0  0  1  0  0  0  0  0  0
  187.0640  175.8740  137.7100 N   0  0  0  0  0  0  0  0  0  0  0  0
  186.3760  176.7840  138.5240 N   0  0  0  0  0  1  0  0  0  0  0  0
  190.4410  172.3320  137.3850 O   0  0  0  0  0  0  0  0  0  0  0  0
  195.5350  174.4630  139.0230 C   0  0  1  0  0  0  0  0  0  0  0  0
  195.0470  172.5590  137.3740 O   0  0  0  0  0  0  0  0  0  0  0  0
  192.7570  172.6250  138.6340 O   0  0  0  0  0  0  0  0  0  0  0  0
  194.6600  169.6140  139.9230 C   0  0  0  0  0  1  0  0  0  0  0  0
  192.7690  172.5180  134.5960 O   0  0  0  0  0  0  0  0  0  0  0  0
  197.6420  173.2360  138.5340 O   0  0  0  0  0  1  0  0  0  0  0  0
  194.0980  171.0270  140.0420 C   0  0  0  0  0  0  0  0  0  0  0  0
  196.4860  175.2750  139.6220 F   0  0  0  0  0  0  0  0  0  0  0  0
  191.7210  171.9830  135.3530 C   0  0  0  0  0  2  0  0  0  0  0  0
  192.7160  173.2110  137.3270 C   0  0  1  0  0  3  0  0  0  0  0  0
  196.3220  175.1530  136.7530 O   0  0  0  0  0  1  0  0  0  0  0  0
  194.9230  173.5230  140.1140 C   0  0  1  0  0  3  0  0  0  0  0  0
  194.5020  175.2930  138.5810 O   0  0  0  0  0  1  0  0  0  0  0  0
  193.1740  171.3120  138.8730 C   0  0  0  0  0  0  0  0  0  0  0  0
  197.1010  172.9430  136.2050 O   0  0  0  0  0  1  0  0  0  0  0  0
  194.0620  173.1150  136.5470 C   0  0  2  0  0  3  0  0  0  0  0  0
  196.3370  173.6510  137.5390 P   0  0  0  0  0  0  0  0  0  0  0  0
  191.4310  172.9050  136.5360 C   0  0  2  0  0  3  0  0  0  0  0  0
  195.3000  172.0200  140.0740 C   0  0  1  0  0  3  0  0  0  0  0  0
  192.8090  170.3900  138.0900 O   0  0  0  0  0  0  0  0  0  0  0  0
  196.2330  171.6950  141.0660 O   0  0  0  0  0  1  0  0  0  0  0  0
  193.9300  172.2140  135.3150 C   0  0  0  0  0  2  0  0  0  0  0  0
  193.2820  171.0870  141.3210 C   0  0  0  0  0  1  0  0  0  0  0  0
  193.7690  175.0260  141.6820 O   0  0  0  0  0  1  0  0  0  0  0  0
  194.8700  174.1870  141.5160 C   0  0  2  0  0  3  0  0  0  0  0  0
  196.1520  174.9500  141.8420 C   0  0  0  0  0  2  0  0  0  0  0  0
  197.1440  176.7820  143.1380 C   0  0  0  0  0  2  0  0  0  0  0  0
  195.8730  176.2070  142.6550 C   0  0  2  0  0  3  0  0  0  0  0  0
  196.3180  176.0120  143.9750 O   0  0  0  0  0  0  0  0  0  0  0  0
  188.1720  173.2220  141.6670 C   0  0  0  0  0  2  0  0  0  0  0  0
  189.2620  173.7690  142.6050 C   0  0  1  0  0  3  0  0  0  0  0  0
  190.2630  172.7140  142.9880 C   0  0  0  0  0  0  0  0  0  0  0  0
  189.9900  171.3810  142.7120 O   0  0  0  0  0  0  0  0  0  0  0  0
  191.3610  173.0310  143.5200 O   0  0  0  0  0  1  0  0  0  0  0  0
  189.8810  175.0440  142.0240 C   0  0  0  0  0  2  0  0  0  0  0  0
  189.4320  176.3340  142.7060 C   0  0  2  0  0  3  0  0  0  0  0  0
  191.2150  176.0600  144.3300 O   0  0  0  0  0  0  0  0  0  0  0  0
  189.3580  176.0400  146.5840 C   0  0  0  0  0  2  0  0  0  0  0  0
  191.5730  175.2950  147.7680 C   0  0  0  0  0  2  0  0  0  0  0  0
  188.9680  175.6990  145.1450 C   0  0  0  0  0  2  0  0  0  0  0  0
  189.8770  176.4580  144.1650 C   0  0  2  0  0  3  0  0  0  0  0  0
  190.8750  176.1220  146.7120 C   0  0  0  0  0  0  0  0  0  0  0  0
  191.3030  176.7760  148.0020 C   0  0  0  0  0  2  0  0  0  0  0  0
  191.6640  176.6570  145.5220 C   0  0  0  0  0  2  0  0  0  0  0  0
  188.0160  176.4210  142.6360 O   0  0  0  0  0  0  0  0  0  0  0  0
  187.3750  177.5830  142.2120 C   0  0  0  0  0  0  0  0  0  0  0  0
  187.8350  178.2130  141.2220 O   0  0  0  0  0  0  0  0  0  0  0  0
  186.2160  178.0270  142.8590 O   0  0  0  0  0  0  0  0  0  0  0  0
  185.3780  177.1560  143.6160 C   0  0  0  0  0  2  0  0  0  0  0  0
  185.4200  177.4460  145.1190 C   0  0  2  0  0  0  0  0  0  0  0  0
  186.0030  176.5240  145.9670 F   0  0  0  0  0  0  0  0  0  0  0  0
  184.1900  178.2950  147.0700 F   0  0  0  0  0  0  0  0  0  0  0  0
  184.4420  178.3790  145.7140 C   0  0  0  0  0  0  0  0  0  0  0  0
  185.7730  178.7700  145.4530 O   0  0  0  0  0  0  0  0  0  0  0  0
  183.5440  179.0360  144.8940 F   0  0  0  0  0  0  0  0  0  0  0  0
  1  6  1  0  0  0  0
  2  3  1  0  0  0  0
  2  1  2  0  0  0  0
  3  4  2  0  0  0  0
  4  5  1  0  0  0  0
  5 40  1  0  0  0  0
  6  5  2  0  0  0  0
  7  8  1  0  0  0  0
  8  1  1  0  0  0  0
  8  9  1  0  0  0  0
 10  3  1  0  0  0  0
 11 23  1  6  0  0  0
 11 18  1  0  0  0  0
 11 22  1  0  0  0  0
 12 27  1  0  0  0  0
 13 24  1  0  0  0  0
 14 17  1  0  0  0  0
 15 32  1  0  0  0  0
 15 19  1  0  0  0  0
 17 29  1  0  0  0  0
 17 33  1  0  0  0  0
 19 28  1  0  0  0  0
 20 13  1  1  0  0  0
 21 27  1  0  0  0  0
 22 35  1  1  0  0  0
 24 17  1  0  0  0  0
 25 27  1  0  0  0  0
 26 32  1  6  0  0  0
 26 20  1  0  0  0  0
 26 12  1  0  0  0  0
 27 16  1  0  0  0  0
 27 11  1  0  0  0  0
 28 20  1  0  0  0  0
 28 10  1  1  0  0  0
 29 22  1  0  0  0  0
 29 31  1  1  0  0  0
 30 24  2  0  0  0  0
 35 34  1  6  0  0  0
 35 36  1  0  0  0  0
 37 39  1  0  0  0  0
 38 36  1  6  0  0  0
 38 37  1  0  0  0  0
 38 39  1  0  0  0  0
 41 40  1  6  0  0  0
 41 42  1  0  0  0  0
 42 44  1  0  0  0  0
 43 42  2  0  0  0  0
 45 41  1  0  0  0  0
 46 45  1  1  0  0  0
 47 54  1  0  0  0  0
 48 52  1  0  0  0  0
 49 53  1  0  0  0  0
 50 48  1  0  0  0  0
 51 46  1  6  0  0  0
 51 47  1  0  0  0  0
 51 50  1  0  0  0  0
 52 49  1  0  0  0  0
 52 53  1  0  0  0  0
 54 52  1  0  0  0  0
 55 46  1  0  0  0  0
 56 55  1  0  0  0  0
 56 58  1  0  0  0  0
 57 56  2  0  0  0  0
 58 59  1  0  0  0  0
 59 60  1  0  0  0  0
 60 64  1  0  0  0  0
 60 63  1  0  0  0  0
 60 61  1  1  0  0  0
 63 62  1  0  0  0  0
 64 63  1  0  0  0  0
 65 63  1  0  0  0  0
M  END
>  <MODEL>
7

>  <REMARK>
 VINA RESULT:      -7.4      3.311      5.367
  Name = 
  17 active torsions:
  status: ('A' for Active; 'I' for Inactive)
    1  A    between atoms: C_3  and  C_21
    2  A    between atoms: C_6  and  C_18
    3  A    between atoms: C_6  and  C_49
    4  A    between atoms: C_9  and  C_42
    5  A    between atoms: C_9  and  O_54
    6  A    between atoms: C_9  and  C_61
    7  A    between atoms: C_10  and  N_43
    8  A    between atoms: C_12  and  C_52
    9  A    between atoms: C_18  and  C_23
   10  A    between atoms: C_18  and  C_61
   11  A    between atoms: C_20  and  O_44
   12  A    between atoms: C_21  and  O_35
   13  A    between atoms: C_34  and  C_60
   14  A    between atoms: O_35  and  C_39
   15  A    between atoms: C_39  and  O_54
   16  A    between atoms: O_44  and  C_48
   17  A    between atoms: C_52  and  C_60
                            x       y       z     vdW  Elec       q    Type
                         _______ _______ _______ _____ _____    ______ ____

>  <TORSDO>
F 17

$$$$
=
 OpenBabel11072409103D

 65 71  0  0  1  0  0  0  0  0999 V2000
  187.5890  175.2480  137.4730 C   0  0  0  0  0  0  0  0  0  0  0  0
  188.3550  174.0770  137.4110 C   0  0  0  0  0  3  0  0  0  0  0  0
  188.8610  173.5160  138.5900 C   0  0  0  0  0  0  0  0  0  0  0  0
  188.5920  174.1340  139.8090 C   0  0  0  0  0  3  0  0  0  0  0  0
  187.7960  175.2840  139.8460 C   0  0  0  0  0  0  0  0  0  0  0  0
  187.3350  175.8200  138.6840 N   0  0  0  0  0  0  0  0  0  0  0  0
  187.9450  176.3540  135.3590 O   0  0  0  0  0  1  0  0  0  0  0  0
  187.0880  175.8520  136.2780 N   0  0  0  0  0  0  0  0  0  0  0  0
  185.7100  176.0460  136.1040 N   0  0  0  0  0  1  0  0  0  0  0  0
  189.6270  172.3450  138.5830 O   0  0  0  0  0  0  0  0  0  0  0  0
  195.1850  173.3760  139.6840 C   0  0  1  0  0  0  0  0  0  0  0  0
  194.0600  171.1610  139.0470 O   0  0  0  0  0  0  0  0  0  0  0  0
  191.9540  172.4930  139.8370 O   0  0  0  0  0  0  0  0  0  0  0  0
  192.8310  170.0470  142.5930 C   0  0  0  0  0  1  0  0  0  0  0  0
  191.8000  170.4840  136.3360 O   0  0  0  0  0  0  0  0  0  0  0  0
  196.7700  171.5020  140.0830 O   0  0  0  0  0  1  0  0  0  0  0  0
  192.7550  171.4400  141.9780 C   0  0  0  0  0  0  0  0  0  0  0  0
  196.3650  174.0510  139.9570 F   0  0  0  0  0  0  0  0  0  0  0  0
  190.6610  170.7110  137.1160 C   0  0  0  0  0  2  0  0  0  0  0  0
  192.0610  172.3710  138.4130 C   0  0  1  0  0  3  0  0  0  0  0  0
  196.0790  172.6360  137.4700 O   0  0  0  0  0  1  0  0  0  0  0  0
  194.3390  173.2980  140.9990 C   0  0  1  0  0  3  0  0  0  0  0  0
  194.4590  174.1610  138.7850 O   0  0  0  0  0  1  0  0  0  0  0  0
  191.9340  171.3960  140.7030 C   0  0  0  0  0  0  0  0  0  0  0  0
  196.0890  170.3140  138.1010 O   0  0  0  0  0  1  0  0  0  0  0  0
  193.2790  171.5210  137.9400 C   0  0  2  0  0  3  0  0  0  0  0  0
  195.6360  171.7610  138.8530 P   0  0  0  0  0  0  0  0  0  0  0  0
  190.7200  172.1230  137.6960 C   0  0  2  0  0  3  0  0  0  0  0  0
  194.2130  171.9220  141.7010 C   0  0  1  0  0  3  0  0  0  0  0  0
  191.2680  170.3680  140.3910 O   0  0  0  0  0  0  0  0  0  0  0  0
  195.0240  171.8470  142.8400 O   0  0  0  0  0  1  0  0  0  0  0  0
  192.8250  170.2290  137.2540 C   0  0  0  0  0  2  0  0  0  0  0  0
  192.0440  172.3400  142.9720 C   0  0  0  0  0  1  0  0  0  0  0  0
  193.6200  175.5450  141.6920 O   0  0  0  0  0  1  0  0  0  0  0  0
  194.5480  174.5290  141.9200 C   0  0  2  0  0  3  0  0  0  0  0  0
  195.9630  175.0940  141.8190 C   0  0  0  0  0  2  0  0  0  0  0  0
  196.8250  176.7780  143.3810 C   0  0  0  0  0  2  0  0  0  0  0  0
  196.5770  175.3350  143.1910 C   0  0  2  0  0  3  0  0  0  0  0  0
  197.8590  175.8910  143.0320 O   0  0  0  0  0  0  0  0  0  0  0  0
  187.4560  175.9440  141.1530 C   0  0  0  0  0  2  0  0  0  0  0  0
  187.1920  177.4550  141.0470 C   0  0  1  0  0  3  0  0  0  0  0  0
  185.7240  177.7780  141.0620 C   0  0  0  0  0  0  0  0  0  0  0  0
  184.9440  177.3650  142.1350 O   0  0  0  0  0  1  0  0  0  0  0  0
  185.2010  178.4510  140.1330 O   0  0  0  0  0  0  0  0  0  0  0  0
  188.0150  178.2200  142.0890 C   0  0  0  0  0  2  0  0  0  0  0  0
  188.3560  177.4150  143.3420 C   0  0  2  0  0  3  0  0  0  0  0  0
  187.3350  176.8570  145.4720 O   0  0  0  0  0  0  0  0  0  0  0  0
  185.9370  179.4150  145.6400 C   0  0  0  0  0  2  0  0  0  0  0  0
  184.8010  178.1060  147.6050 C   0  0  0  0  0  2  0  0  0  0  0  0
  186.4360  178.7910  144.3350 C   0  0  0  0  0  2  0  0  0  0  0  0
  187.6700  177.9180  144.6140 C   0  0  2  0  0  3  0  0  0  0  0  0
  186.0300  178.4030  146.7760 C   0  0  0  0  0  0  0  0  0  0  0  0
  185.8760  179.0500  148.1290 C   0  0  0  0  0  2  0  0  0  0  0  0
  187.1900  177.4110  146.7560 C   0  0  0  0  0  2  0  0  0  0  0  0
  189.7640  177.4330  143.5290 O   0  0  0  0  0  0  0  0  0  0  0  0
  190.4760  176.2720  143.8270 C   0  0  0  0  0  0  0  0  0  0  0  0
  190.2010  175.2070  143.2120 O   0  0  0  0  0  0  0  0  0  0  0  0
  191.5040  176.2980  144.7770 O   0  0  0  0  0  0  0  0  0  0  0  0
  192.6930  177.0640  144.5990 C   0  0  0  0  0  2  0  0  0  0  0  0
  193.7470  176.7890  145.6760 C   0  0  2  0  0  0  0  0  0  0  0  0
  194.5680  177.8200  146.0930 F   0  0  0  0  0  0  0  0  0  0  0  0
  195.4600  175.2360  146.5090 F   0  0  0  0  0  0  0  0  0  0  0  0
  194.2370  175.4130  145.8890 C   0  0  0  0  0  0  0  0  0  0  0  0
  193.2920  176.0030  146.7560 O   0  0  0  0  0  0  0  0  0  0  0  0
  193.6860  174.3750  145.1610 F   0  0  0  0  0  0  0  0  0  0  0  0
  1  6  1  0  0  0  0
  2  1  2  0  0  0  0
  2  3  1  0  0  0  0
  3  4  2  0  0  0  0
  4  5  1  0  0  0  0
  5 40  1  0  0  0  0
  6  5  2  0  0  0  0
  7  8  1  0  0  0  0
  8  1  1  0  0  0  0
  9  8  1  0  0  0  0
 10  3  1  0  0  0  0
 11 23  1  6  0  0  0
 11 18  1  0  0  0  0
 11 22  1  0  0  0  0
 13 24  1  0  0  0  0
 15 19  1  0  0  0  0
 15 32  1  0  0  0  0
 17 14  1  0  0  0  0
 17 33  1  0  0  0  0
 19 28  1  0  0  0  0
 20 13  1  1  0  0  0
 21 27  1  0  0  0  0
 22 29  1  0  0  0  0
 22 35  1  1  0  0  0
 24 17  1  0  0  0  0
 25 27  1  0  0  0  0
 26 32  1  1  0  0  0
 26 20  1  0  0  0  0
 26 12  1  0  0  0  0
 27 12  1  0  0  0  0
 27 11  1  0  0  0  0
 27 16  1  0  0  0  0
 28 20  1  0  0  0  0
 28 10  1  1  0  0  0
 29 17  1  0  0  0  0
 29 31  1  1  0  0  0
 30 24  2  0  0  0  0
 35 34  1  6  0  0  0
 36 35  1  0  0  0  0
 38 36  1  6  0  0  0
 38 37  1  0  0  0  0
 39 38  1  0  0  0  0
 39 37  1  0  0  0  0
 41 42  1  0  0  0  0
 41 40  1  1  0  0  0
 41 45  1  0  0  0  0
 42 43  1  0  0  0  0
 44 42  2  0  0  0  0
 46 45  1  6  0  0  0
 46 55  1  0  0  0  0
 47 54  1  0  0  0  0
 48 52  1  0  0  0  0
 49 53  1  0  0  0  0
 50 51  1  0  0  0  0
 50 48  1  0  0  0  0
 51 46  1  6  0  0  0
 51 47  1  0  0  0  0
 52 49  1  0  0  0  0
 52 53  1  0  0  0  0
 54 52  1  0  0  0  0
 55 56  1  0  0  0  0
 56 58  1  0  0  0  0
 57 56  2  0  0  0  0
 59 58  1  0  0  0  0
 59 60  1  0  0  0  0
 60 63  1  0  0  0  0
 60 61  1  1  0  0  0
 60 64  1  0  0  0  0
 63 62  1  0  0  0  0
 63 64  1  0  0  0  0
 65 63  1  0  0  0  0
M  END
>  <MODEL>
8

>  <REMARK>
 VINA RESULT:      -7.2      4.327      6.639
  Name = 
  17 active torsions:
  status: ('A' for Active; 'I' for Inactive)
    1  A    between atoms: C_3  and  C_21
    2  A    between atoms: C_6  and  C_18
    3  A    between atoms: C_6  and  C_49
    4  A    between atoms: C_9  and  C_42
    5  A    between atoms: C_9  and  O_54
    6  A    between atoms: C_9  and  C_61
    7  A    between atoms: C_10  and  N_43
    8  A    between atoms: C_12  and  C_52
    9  A    between atoms: C_18  and  C_23
   10  A    between atoms: C_18  and  C_61
   11  A    between atoms: C_20  and  O_44
   12  A    between atoms: C_21  and  O_35
   13  A    between atoms: C_34  and  C_60
   14  A    between atoms: O_35  and  C_39
   15  A    between atoms: C_39  and  O_54
   16  A    between atoms: O_44  and  C_48
   17  A    between atoms: C_52  and  C_60
                            x       y       z     vdW  Elec       q    Type
                         _______ _______ _______ _____ _____    ______ ____

>  <TORSDO>
F 17

$$$$
=
 OpenBabel11072409103D

 65 71  0  0  1  0  0  0  0  0999 V2000
  187.9810  174.6510  138.0000 C   0  0  0  0  0  0  0  0  0  0  0  0
  188.6920  173.4480  137.8950 C   0  0  0  0  0  3  0  0  0  0  0  0
  189.2160  172.8500  139.0470 C   0  0  0  0  0  0  0  0  0  0  0  0
  189.0190  173.4610  140.2830 C   0  0  0  0  0  3  0  0  0  0  0  0
  188.2760  174.6450  140.3630 C   0  0  0  0  0  0  0  0  0  0  0  0
  187.7970  175.2160  139.2260 N   0  0  0  0  0  0  0  0  0  0  0  0
  188.1750  175.2840  135.6800 O   0  0  0  0  0  1  0  0  0  0  0  0
  187.4640  175.2920  136.8310 N   0  0  0  0  0  0  0  0  0  0  0  0
  186.2820  176.0420  136.8980 N   0  0  0  0  0  1  0  0  0  0  0  0
  189.9290  171.6470  138.9970 O   0  0  0  0  0  0  0  0  0  0  0  0
  195.4560  172.1910  137.4720 C   0  0  1  0  0  0  0  0  0  0  0  0
  194.1000  170.0460  137.8490 O   0  0  0  0  0  0  0  0  0  0  0  0
  192.5720  171.7440  139.1230 O   0  0  0  0  0  0  0  0  0  0  0  0
  194.4640  169.7570  141.7360 C   0  0  0  0  0  1  0  0  0  0  0  0
  190.8810  169.1590  136.5200 O   0  0  0  0  0  0  0  0  0  0  0  0
  197.0020  170.2460  137.5820 O   0  0  0  0  0  1  0  0  0  0  0  0
  194.1760  171.0130  140.9200 C   0  0  0  0  0  0  0  0  0  0  0  0
  196.6610  172.7580  137.0840 F   0  0  0  0  0  0  0  0  0  0  0  0
  190.1900  169.6590  137.6290 C   0  0  0  0  0  2  0  0  0  0  0  0
  192.0590  171.3500  137.8440 C   0  0  1  0  0  3  0  0  0  0  0  0
  195.2990  170.9550  135.3040 O   0  0  0  0  0  1  0  0  0  0  0  0
  195.2490  172.4560  139.0000 C   0  0  1  0  0  3  0  0  0  0  0  0
  194.4410  172.8780  136.8020 O   0  0  0  0  0  1  0  0  0  0  0  0
  192.8900  170.8340  140.1360 C   0  0  0  0  0  0  0  0  0  0  0  0
  195.5060  168.8040  136.3620 O   0  0  0  0  0  1  0  0  0  0  0  0
  192.9330  170.2880  137.1100 C   0  0  2  0  0  3  0  0  0  0  0  0
  195.4610  170.4080  136.9010 P   0  0  0  0  0  0  0  0  0  0  0  0
  190.5340  171.1370  137.8120 C   0  0  2  0  0  3  0  0  0  0  0  0
  195.3920  171.2580  139.9720 C   0  0  1  0  0  3  0  0  0  0  0  0
  192.1230  169.8540  140.3560 O   0  0  0  0  0  0  0  0  0  0  0  0
  196.6070  171.2970  140.6650 O   0  0  0  0  0  1  0  0  0  0  0  0
  192.1910  168.9560  136.9690 C   0  0  0  0  0  2  0  0  0  0  0  0
  193.9840  172.1580  141.8970 C   0  0  0  0  0  1  0  0  0  0  0  0
  196.9370  173.6380  140.3430 O   0  0  0  0  0  1  0  0  0  0  0  0
  195.8680  173.8020  139.4640 C   0  0  2  0  0  3  0  0  0  0  0  0
  194.8280  174.7310  140.0860 C   0  0  0  0  0  2  0  0  0  0  0  0
  194.9300  175.8810  142.2510 C   0  0  0  0  0  2  0  0  0  0  0  0
  195.4760  175.8580  140.8790 C   0  0  2  0  0  3  0  0  0  0  0  0
  194.4870  176.7800  141.2650 O   0  0  0  0  0  0  0  0  0  0  0  0
  188.0130  175.3000  141.6910 C   0  0  0  0  0  2  0  0  0  0  0  0
  188.0990  176.8350  141.6640 C   0  0  1  0  0  3  0  0  0  0  0  0
  186.7410  177.4810  141.6790 C   0  0  0  0  0  0  0  0  0  0  0  0
  185.6630  176.7900  142.2170 O   0  0  0  0  0  1  0  0  0  0  0  0
  186.5790  178.6530  141.2450 O   0  0  0  0  0  0  0  0  0  0  0  0
  189.0480  177.3410  142.7560 C   0  0  0  0  0  2  0  0  0  0  0  0
  188.9530  176.5830  144.0780 C   0  0  2  0  0  3  0  0  0  0  0  0
  187.4780  178.3530  144.8410 O   0  0  0  0  0  0  0  0  0  0  0  0
  186.5840  176.8130  147.1540 C   0  0  0  0  0  2  0  0  0  0  0  0
  185.5800  179.1660  147.7160 C   0  0  0  0  0  2  0  0  0  0  0  0
  187.9000  176.5670  146.4140 C   0  0  0  0  0  2  0  0  0  0  0  0
  187.7530  176.9780  144.9400 C   0  0  2  0  0  3  0  0  0  0  0  0
  185.9550  178.1210  146.6900 C   0  0  0  0  0  0  0  0  0  0  0  0
  184.5170  178.2490  147.1250 C   0  0  0  0  0  2  0  0  0  0  0  0
  186.1370  178.5220  145.2290 C   0  0  0  0  0  2  0  0  0  0  0  0
  190.1500  176.7920  144.8140 O   0  0  0  0  0  0  0  0  0  0  0  0
  191.3990  176.4690  144.2850 C   0  0  0  0  0  0  0  0  0  0  0  0
  192.2150  177.3940  144.0250 O   0  0  0  0  0  0  0  0  0  0  0  0
  191.7520  175.1310  144.0740 O   0  0  0  0  0  0  0  0  0  0  0  0
  191.1180  174.3160  143.0910 C   0  0  0  0  0  2  0  0  0  0  0  0
  190.7920  172.9090  143.6010 C   0  0  2  0  0  0  0  0  0  0  0  0
  190.8180  171.8490  142.7160 F   0  0  0  0  0  0  0  0  0  0  0  0
  189.3280  171.5410  145.0240 F   0  0  0  0  0  0  0  0  0  0  0  0
  189.9830  172.7420  144.8250 C   0  0  0  0  0  0  0  0  0  0  0  0
  191.3850  172.5810  144.8390 O   0  0  0  0  0  0  0  0  0  0  0  0
  189.5880  173.8590  145.5370 F   0  0  0  0  0  0  0  0  0  0  0  0
  1  6  1  0  0  0  0
  2  1  2  0  0  0  0
  2  3  1  0  0  0  0
  3  4  2  0  0  0  0
  4  5  1  0  0  0  0
  5 40  1  0  0  0  0
  6  5  2  0  0  0  0
  7  8  1  0  0  0  0
  8  9  1  0  0  0  0
  8  1  1  0  0  0  0
 10  3  1  0  0  0  0
 11 23  1  6  0  0  0
 11 22  1  0  0  0  0
 13 24  1  0  0  0  0
 15 32  1  0  0  0  0
 15 19  1  0  0  0  0
 17 14  1  0  0  0  0
 17 33  1  0  0  0  0
 18 11  1  0  0  0  0
 19 28  1  0  0  0  0
 20 13  1  1  0  0  0
 21 27  1  0  0  0  0
 22 35  1  1  0  0  0
 22 29  1  0  0  0  0
 24 30  2  0  0  0  0
 24 17  1  0  0  0  0
 25 27  1  0  0  0  0
 26 32  1  1  0  0  0
 26 20  1  0  0  0  0
 26 12  1  0  0  0  0
 27 11  1  0  0  0  0
 27 16  1  0  0  0  0
 27 12  1  0  0  0  0
 28 20  1  0  0  0  0
 28 10  1  1  0  0  0
 29 31  1  1  0  0  0
 29 17  1  0  0  0  0
 35 36  1  0  0  0  0
 35 34  1  1  0  0  0
 38 36  1  6  0  0  0
 38 39  1  0  0  0  0
 38 37  1  0  0  0  0
 39 37  1  0  0  0  0
 41 42  1  0  0  0  0
 41 40  1  1  0  0  0
 41 45  1  0  0  0  0
 42 43  1  0  0  0  0
 44 42  2  0  0  0  0
 46 45  1  6  0  0  0
 46 55  1  0  0  0  0
 47 51  1  0  0  0  0
 47 54  1  0  0  0  0
 50 48  1  0  0  0  0
 51 46  1  6  0  0  0
 51 50  1  0  0  0  0
 52 53  1  0  0  0  0
 52 48  1  0  0  0  0
 52 49  1  0  0  0  0
 53 49  1  0  0  0  0
 54 52  1  0  0  0  0
 56 55  1  0  0  0  0
 57 56  2  0  0  0  0
 58 56  1  0  0  0  0
 59 60  1  0  0  0  0
 59 58  1  0  0  0  0
 60 61  1  6  0  0  0
 60 63  1  0  0  0  0
 60 64  1  0  0  0  0
 63 64  1  0  0  0  0
 63 62  1  0  0  0  0
 63 65  1  0  0  0  0
M  END
>  <MODEL>
9

>  <REMARK>
 VINA RESULT:      -7.1      4.007      6.210
  Name = 
  17 active torsions:
  status: ('A' for Active; 'I' for Inactive)
    1  A    between atoms: C_3  and  C_21
    2  A    between atoms: C_6  and  C_18
    3  A    between atoms: C_6  and  C_49
    4  A    between atoms: C_9  and  C_42
    5  A    between atoms: C_9  and  O_54
    6  A    between atoms: C_9  and  C_61
    7  A    between atoms: C_10  and  N_43
    8  A    between atoms: C_12  and  C_52
    9  A    between atoms: C_18  and  C_23
   10  A    between atoms: C_18  and  C_61
   11  A    between atoms: C_20  and  O_44
   12  A    between atoms: C_21  and  O_35
   13  A    between atoms: C_34  and  C_60
   14  A    between atoms: O_35  and  C_39
   15  A    between atoms: C_39  and  O_54
   16  A    between atoms: O_44  and  C_48
   17  A    between atoms: C_52  and  C_60
                            x       y       z     vdW  Elec       q    Type
                         _______ _______ _______ _____ _____    ______ ____

>  <TORSDO>
F 17

$$$$
