=
 OpenBabel11062422233D

 41 45  0  0  1  0  0  0  0  0999 V2000
  185.0730  178.1650  146.3410 C   0  0  0  0  0  0  0  0  0  0  0  0
  186.7300  177.3100  144.7880 C   0  0  0  0  0  0  0  0  0  0  0  0
  183.7550  179.2970  145.0950 N   0  0  0  0  0  0  0  0  0  0  0  0
  187.3530  176.6560  145.8930 C   0  0  0  0  0  0  0  0  0  0  0  0
  185.6590  177.5420  147.4340 C   0  0  0  0  0  3  0  0  0  0  0  0
  186.8140  176.7820  147.1950 C   0  0  0  0  0  3  0  0  0  0  0  0
  183.9970  178.9040  146.3160 O   0  0  0  0  0  0  0  0  0  0  0  0
  184.7150  178.7930  144.2820 C   0  0  0  0  0  3  0  0  0  0  0  0
  185.5770  178.0620  145.0780 C   0  0  0  0  0  0  0  0  0  0  0  0
  186.8510  176.1150  142.5580 N   0  0  0  0  0  2  0  0  0  0  0  0
  188.0400  178.0780  142.9480 O   0  0  0  0  0  0  0  0  0  0  0  0
  187.2460  177.2090  143.3970 C   0  0  0  0  0  0  0  0  0  0  0  0
  187.2790  175.9460  141.1740 C   0  0  1  0  0  3  0  0  0  0  0  0
  187.3390  177.1870  140.5360 O   0  0  0  0  0  1  0  0  0  0  0  0
  188.6340  175.2550  141.1120 C   0  0  0  0  0  2  0  0  0  0  0  0
  188.6710  174.2170  140.0010 C   0  0  0  0  0  2  0  0  0  0  0  0
  189.7980  172.0700  139.8440 C   0  0  0  0  0  2  0  0  0  0  0  0
  188.9910  172.8620  140.5470 C   0  0  0  0  0  0  0  0  0  0  0  0
  187.1170  172.4980  142.0270 O   0  0  0  0  0  1  0  0  0  0  0  0
  188.4540  172.4480  141.8180 N   0  0  0  0  0  0  0  0  0  0  0  0
  189.2920  171.8880  142.8720 C   0  0  0  0  0  2  0  0  0  0  0  0
  191.5900  172.7660  143.1300 C   0  0  0  0  0  2  0  0  0  0  0  0
  190.1360  172.9770  143.5070 C   0  0  0  0  0  3  0  0  0  0  0  0
  191.0940  172.3400  144.4960 C   0  0  0  0  0  2  0  0  0  0  0  0
  188.6040  175.8540  145.7420 C   0  0  0  0  0  2  0  0  0  0  0  0
  189.8140  176.7720  145.6140 C   0  0  0  0  0  2  0  0  0  0  0  0
  191.7400  178.2020  143.7100 O   0  0  0  0  0  1  0  0  0  0  0  0
  195.3710  175.9090  142.0320 C   0  0  2  0  0  3  0  0  0  0  0  0
  195.9380  175.5360  144.6530 S   0  0  0  0  0  0  0  0  0  0  0  0
  196.2560  176.4800  143.1350 C   0  0  0  0  0  2  0  0  0  0  0  0
  193.2650  175.5540  144.9260 C   0  0  0  0  0  0  0  0  0  0  0  0
  192.1700  175.8030  145.5800 C   0  0  0  0  0  0  0  0  0  0  0  0
  192.0340  175.2360  146.9500 C   0  0  0  0  0  1  0  0  0  0  0  0
  191.1860  176.9360  143.4630 C   0  0  1  0  0  3  0  0  0  0  0  0
  194.0180  175.5790  142.6440 C   0  0  2  0  0  3  0  0  0  0  0  0
  193.1500  176.6670  142.4380 O   0  0  0  0  0  0  0  0  0  0  0  0
  191.9190  176.1760  142.5100 O   0  0  0  0  0  0  0  0  0  0  0  0
  190.9350  176.1490  144.7750 C   0  0  2  0  0  3  0  0  0  0  0  0
  194.2550  175.3560  144.1070 C   0  0  0  0  0  0  0  0  0  0  0  0
  195.9490  174.7490  141.5170 O   0  0  0  0  0  0  0  0  0  0  0  0
  194.9250  174.1260  140.8030 C   0  0  0  0  0  1  0  0  0  0  0  0
  1  5  1  0  0  0  0
  2  9  1  0  0  0  0
  2  4  2  0  0  0  0
  3  7  1  0  0  0  0
  4  6  1  0  0  0  0
  6  5  2  0  0  0  0
  7  1  1  0  0  0  0
  8  9  1  0  0  0  0
  8  3  2  0  0  0  0
  9  1  2  0  0  0  0
 10 12  1  0  0  0  0
 11 12  2  0  0  0  0
 12  2  1  0  0  0  0
 13 14  1  1  0  0  0
 13 10  1  0  0  0  0
 15 13  1  0  0  0  0
 16 18  1  0  0  0  0
 16 15  1  0  0  0  0
 17 18  2  0  0  0  0
 18 20  1  0  0  0  0
 20 19  1  0  0  0  0
 20 21  1  0  0  0  0
 21 23  1  0  0  0  0
 22 23  1  0  0  0  0
 22 24  1  0  0  0  0
 23 24  1  0  0  0  0
 25  4  1  0  0  0  0
 26 25  1  0  0  0  0
 28 40  1  1  0  0  0
 28 35  1  0  0  0  0
 28 30  1  0  0  0  0
 30 29  1  0  0  0  0
 31 32  2  0  0  0  0
 32 33  1  0  0  0  0
 34 27  1  1  0  0  0
 34 38  1  0  0  0  0
 35 36  1  1  0  0  0
 35 39  1  0  0  0  0
 36 37  1  0  0  0  0
 37 34  1  0  0  0  0
 38 32  1  0  0  0  0
 38 26  1  1  0  0  0
 39 29  1  0  0  0  0
 39 31  2  0  0  0  0
 41 40  1  0  0  0  0
M  END
>  <MODEL>
1

>  <REMARK>
 VINA RESULT:      -7.2      0.000      0.000
  Name = 
  12 active torsions:
  status: ('A' for Active; 'I' for Inactive)
    1  A    between atoms: C_3  and  C_19
    2  A    between atoms: C_3  and  C_20
    3  A    between atoms: C_4  and  C_27
    4  A    between atoms: C_7  and  C_21
    5  A    between atoms: C_7  and  C_24
    6  A    between atoms: N_8  and  C_21
    7  A    between atoms: C_9  and  O_10
    8  A    between atoms: C_11  and  C_32
    9  A    between atoms: C_20  and  C_39
   10  A    between atoms: C_24  and  C_36
   11  A    between atoms: N_26  and  C_32
   12  A    between atoms: N_26  and  C_36
                            x       y       z     vdW  Elec       q    Type
                         _______ _______ _______ _____ _____    ______ ____

>  <TORSDO>
F 12

$$$$
=
 OpenBabel11062422233D

 41 45  0  0  1  0  0  0  0  0999 V2000
  184.6980  177.9170  140.6380 C   0  0  0  0  0  0  0  0  0  0  0  0
  185.8010  178.2270  142.7770 C   0  0  0  0  0  0  0  0  0  0  0  0
  182.6380  178.2900  141.0780 N   0  0  0  0  0  0  0  0  0  0  0  0
  187.0370  177.9400  142.1230 C   0  0  0  0  0  0  0  0  0  0  0  0
  185.8840  177.6320  139.9770 C   0  0  0  0  0  3  0  0  0  0  0  0
  187.0620  177.6450  140.7390 C   0  0  0  0  0  3  0  0  0  0  0  0
  183.4920  177.9770  140.1400 O   0  0  0  0  0  0  0  0  0  0  0  0
  183.3140  178.4430  142.2430 C   0  0  0  0  0  3  0  0  0  0  0  0
  184.6490  178.1990  141.9710 C   0  0  0  0  0  0  0  0  0  0  0  0
  185.5400  177.5030  145.1910 N   0  0  0  0  0  2  0  0  0  0  0  0
  185.7830  179.7460  144.6160 O   0  0  0  0  0  0  0  0  0  0  0  0
  185.7130  178.5500  144.2260 C   0  0  0  0  0  0  0  0  0  0  0  0
  185.4740  177.7170  146.6310 C   0  0  1  0  0  3  0  0  0  0  0  0
  184.2040  177.3820  147.1070 O   0  0  0  0  0  1  0  0  0  0  0  0
  186.5380  176.8980  147.3450 C   0  0  0  0  0  2  0  0  0  0  0  0
  187.4420  176.1850  146.3510 C   0  0  0  0  0  2  0  0  0  0  0  0
  188.9440  174.6790  147.5280 C   0  0  0  0  0  2  0  0  0  0  0  0
  188.7700  175.8730  146.9650 C   0  0  0  0  0  0  0  0  0  0  0  0
  189.7630  177.9540  147.6860 O   0  0  0  0  0  1  0  0  0  0  0  0
  189.8350  176.8430  146.9170 N   0  0  0  0  0  0  0  0  0  0  0  0
  191.0440  176.6300  146.1300 C   0  0  0  0  0  2  0  0  0  0  0  0
  193.4880  176.2670  146.2400 C   0  0  0  0  0  2  0  0  0  0  0  0
  192.1960  176.2330  147.0340 C   0  0  0  0  0  3  0  0  0  0  0  0
  192.8040  174.9440  146.5130 C   0  0  0  0  0  2  0  0  0  0  0  0
  188.3360  177.8980  142.8580 C   0  0  0  0  0  2  0  0  0  0  0  0
  189.4020  177.2060  142.0160 C   0  0  0  0  0  2  0  0  0  0  0  0
  189.3320  174.3380  140.9420 O   0  0  0  0  0  1  0  0  0  0  0  0
  191.7890  171.0700  143.0740 C   0  0  2  0  0  3  0  0  0  0  0  0
  193.8520  172.7520  142.5770 S   0  0  0  0  0  0  0  0  0  0  0  0
  192.9320  171.2670  142.0830 C   0  0  0  0  0  2  0  0  0  0  0  0
  191.9790  174.6560  142.8680 C   0  0  0  0  0  0  0  0  0  0  0  0
  191.4550  175.8160  142.6000 C   0  0  0  0  0  0  0  0  0  0  0  0
  192.3170  177.0200  142.7540 C   0  0  0  0  0  1  0  0  0  0  0  0
  189.1440  174.6770  142.2920 C   0  0  1  0  0  3  0  0  0  0  0  0
  191.2170  172.4410  143.4030 C   0  0  2  0  0  3  0  0  0  0  0  0
  190.1170  172.6870  142.5610 O   0  0  0  0  0  0  0  0  0  0  0  0
  189.3710  173.5920  143.1820 O   0  0  0  0  0  0  0  0  0  0  0  0
  189.9490  175.9410  142.6880 C   0  0  2  0  0  3  0  0  0  0  0  0
  192.3130  173.4320  143.1510 C   0  0  0  0  0  0  0  0  0  0  0  0
  192.2720  170.4720  144.2380 O   0  0  0  0  0  0  0  0  0  0  0  0
  192.9540  169.3360  143.7990 C   0  0  0  0  0  1  0  0  0  0  0  0
  1  9  1  0  0  0  0
  2 12  1  0  0  0  0
  3  8  2  0  0  0  0
  4  2  1  0  0  0  0
  4 25  1  0  0  0  0
  5  1  2  0  0  0  0
  5  6  1  0  0  0  0
  6  4  2  0  0  0  0
  7  1  1  0  0  0  0
  7  3  1  0  0  0  0
  9  8  1  0  0  0  0
  9  2  2  0  0  0  0
 10 13  1  0  0  0  0
 12 11  2  0  0  0  0
 12 10  1  0  0  0  0
 13 14  1  1  0  0  0
 13 15  1  0  0  0  0
 16 18  1  0  0  0  0
 16 15  1  0  0  0  0
 18 17  2  0  0  0  0
 20 18  1  0  0  0  0
 20 19  1  0  0  0  0
 21 20  1  0  0  0  0
 21 23  1  0  0  0  0
 22 24  1  0  0  0  0
 22 23  1  0  0  0  0
 24 23  1  0  0  0  0
 26 25  1  0  0  0  0
 28 35  1  0  0  0  0
 28 40  1  1  0  0  0
 29 39  1  0  0  0  0
 30 29  1  0  0  0  0
 30 28  1  0  0  0  0
 31 39  2  0  0  0  0
 32 38  1  0  0  0  0
 32 33  1  0  0  0  0
 32 31  2  0  0  0  0
 34 27  1  6  0  0  0
 34 38  1  0  0  0  0
 34 37  1  0  0  0  0
 35 36  1  6  0  0  0
 36 37  1  0  0  0  0
 38 26  1  6  0  0  0
 39 35  1  0  0  0  0
 41 40  1  0  0  0  0
M  END
>  <MODEL>
2

>  <REMARK>
 VINA RESULT:      -7.2      2.774      5.204
  Name = 
  12 active torsions:
  status: ('A' for Active; 'I' for Inactive)
    1  A    between atoms: C_3  and  C_19
    2  A    between atoms: C_3  and  C_20
    3  A    between atoms: C_4  and  C_27
    4  A    between atoms: C_7  and  C_21
    5  A    between atoms: C_7  and  C_24
    6  A    between atoms: N_8  and  C_21
    7  A    between atoms: C_9  and  O_10
    8  A    between atoms: C_11  and  C_32
    9  A    between atoms: C_20  and  C_39
   10  A    between atoms: C_24  and  C_36
   11  A    between atoms: N_26  and  C_32
   12  A    between atoms: N_26  and  C_36
                            x       y       z     vdW  Elec       q    Type
                         _______ _______ _______ _____ _____    ______ ____

>  <TORSDO>
F 12

$$$$
=
 OpenBabel11062422233D

 41 45  0  0  1  0  0  0  0  0999 V2000
  184.9240  178.5960  144.8550 C   0  0  0  0  0  0  0  0  0  0  0  0
  187.1710  177.7970  145.3030 C   0  0  0  0  0  0  0  0  0  0  0  0
  183.9100  178.3100  146.7160 N   0  0  0  0  0  0  0  0  0  0  0  0
  187.5060  178.1420  143.9600 C   0  0  0  0  0  0  0  0  0  0  0  0
  185.2210  178.9390  143.5440 C   0  0  0  0  0  3  0  0  0  0  0  0
  186.5320  178.7030  143.1010 C   0  0  0  0  0  3  0  0  0  0  0  0
  183.7890  178.7340  145.4870 O   0  0  0  0  0  0  0  0  0  0  0  0
  185.1800  177.8740  146.8990 C   0  0  0  0  0  3  0  0  0  0  0  0
  185.8450  178.0500  145.6990 C   0  0  0  0  0  0  0  0  0  0  0  0
  188.5600  175.8420  146.1200 N   0  0  0  0  0  2  0  0  0  0  0  0
  188.6310  177.9100  147.1870 O   0  0  0  0  0  0  0  0  0  0  0  0
  188.1540  177.2110  146.2540 C   0  0  0  0  0  0  0  0  0  0  0  0
  189.5380  175.1880  146.9810 C   0  0  1  0  0  3  0  0  0  0  0  0
  188.9270  174.1630  147.7070 O   0  0  0  0  0  1  0  0  0  0  0  0
  190.6940  174.6370  146.1590 C   0  0  0  0  0  2  0  0  0  0  0  0
  192.0320  175.1100  146.7070 C   0  0  0  0  0  2  0  0  0  0  0  0
  193.0720  173.3930  145.3350 C   0  0  0  0  0  2  0  0  0  0  0  0
  193.1600  174.6150  145.8590 C   0  0  0  0  0  0  0  0  0  0  0  0
  194.5600  176.5000  146.4300 O   0  0  0  0  0  1  0  0  0  0  0  0
  194.2980  175.4610  145.6010 N   0  0  0  0  0  0  0  0  0  0  0  0
  195.2400  175.1900  144.5220 C   0  0  0  0  0  2  0  0  0  0  0  0
  195.7740  176.3010  142.3780 C   0  0  0  0  0  2  0  0  0  0  0  0
  195.6920  176.4890  143.8800 C   0  0  0  0  0  3  0  0  0  0  0  0
  197.0360  176.2630  143.2140 C   0  0  0  0  0  2  0  0  0  0  0  0
  188.8650  177.8960  143.3890 C   0  0  0  0  0  2  0  0  0  0  0  0
  188.7690  177.0320  142.1380 C   0  0  0  0  0  2  0  0  0  0  0  0
  188.5120  174.6520  140.2270 O   0  0  0  0  0  1  0  0  0  0  0  0
  190.5040  170.6440  141.3350 C   0  0  2  0  0  3  0  0  0  0  0  0
  192.7420  172.1620  141.4640 S   0  0  0  0  0  0  0  0  0  0  0  0
  191.7270  171.0070  140.5000 C   0  0  0  0  0  2  0  0  0  0  0  0
  191.0360  174.0790  142.2580 C   0  0  0  0  0  0  0  0  0  0  0  0
  190.6400  175.3150  142.3420 C   0  0  0  0  0  0  0  0  0  0  0  0
  191.5950  176.3140  142.8950 C   0  0  0  0  0  1  0  0  0  0  0  0
  188.2620  174.5830  141.6060 C   0  0  1  0  0  3  0  0  0  0  0  0
  190.0380  171.9030  142.0510 C   0  0  2  0  0  3  0  0  0  0  0  0
  189.0270  172.5120  141.2830 O   0  0  0  0  0  0  0  0  0  0  0  0
  188.3250  173.2600  142.1250 O   0  0  0  0  0  0  0  0  0  0  0  0
  189.1490  175.5710  142.4060 C   0  0  2  0  0  3  0  0  0  0  0  0
  191.2350  172.7990  142.1600 C   0  0  0  0  0  0  0  0  0  0  0  0
  190.8470  169.6710  142.2740 O   0  0  0  0  0  0  0  0  0  0  0  0
  191.2140  168.5570  141.5170 C   0  0  0  0  0  1  0  0  0  0  0  0
  1  7  1  0  0  0  0
  1  9  1  0  0  0  0
  2  9  2  0  0  0  0
  2 12  1  0  0  0  0
  3  8  2  0  0  0  0
  4  2  1  0  0  0  0
  5  1  2  0  0  0  0
  6  5  1  0  0  0  0
  6  4  2  0  0  0  0
  7  3  1  0  0  0  0
  9  8  1  0  0  0  0
 10 12  1  0  0  0  0
 10 13  1  0  0  0  0
 12 11  2  0  0  0  0
 13 14  1  6  0  0  0
 15 16  1  0  0  0  0
 15 13  1  0  0  0  0
 17 18  2  0  0  0  0
 18 16  1  0  0  0  0
 20 18  1  0  0  0  0
 20 19  1  0  0  0  0
 21 20  1  0  0  0  0
 22 24  1  0  0  0  0
 22 23  1  0  0  0  0
 23 21  1  0  0  0  0
 24 23  1  0  0  0  0
 25  4  1  0  0  0  0
 26 25  1  0  0  0  0
 28 35  1  0  0  0  0
 28 40  1  1  0  0  0
 29 39  1  0  0  0  0
 30 28  1  0  0  0  0
 30 29  1  0  0  0  0
 31 32  2  0  0  0  0
 32 38  1  0  0  0  0
 32 33  1  0  0  0  0
 34 27  1  6  0  0  0
 34 37  1  0  0  0  0
 34 38  1  0  0  0  0
 35 36  1  6  0  0  0
 35 39  1  0  0  0  0
 36 37  1  0  0  0  0
 38 26  1  6  0  0  0
 39 31  2  0  0  0  0
 41 40  1  0  0  0  0
M  END
>  <MODEL>
3

>  <REMARK>
 VINA RESULT:      -7.1      2.661      5.370
  Name = 
  12 active torsions:
  status: ('A' for Active; 'I' for Inactive)
    1  A    between atoms: C_3  and  C_19
    2  A    between atoms: C_3  and  C_20
    3  A    between atoms: C_4  and  C_27
    4  A    between atoms: C_7  and  C_21
    5  A    between atoms: C_7  and  C_24
    6  A    between atoms: N_8  and  C_21
    7  A    between atoms: C_9  and  O_10
    8  A    between atoms: C_11  and  C_32
    9  A    between atoms: C_20  and  C_39
   10  A    between atoms: C_24  and  C_36
   11  A    between atoms: N_26  and  C_32
   12  A    between atoms: N_26  and  C_36
                            x       y       z     vdW  Elec       q    Type
                         _______ _______ _______ _____ _____    ______ ____

>  <TORSDO>
F 12

$$$$
=
 OpenBabel11062422233D

 41 45  0  0  1  0  0  0  0  0999 V2000
  194.9760  176.5200  144.8020 C   0  0  0  0  0  0  0  0  0  0  0  0
  193.3550  174.7650  145.2240 C   0  0  0  0  0  0  0  0  0  0  0  0
  195.8480  175.9580  142.9320 N   0  0  0  0  0  0  0  0  0  0  0  0
  193.0060  175.4470  146.4280 C   0  0  0  0  0  0  0  0  0  0  0  0
  194.6590  177.2040  145.9670 C   0  0  0  0  0  3  0  0  0  0  0  0
  193.6610  176.6500  146.7840 C   0  0  0  0  0  3  0  0  0  0  0  0
  195.8510  176.8460  143.8890 O   0  0  0  0  0  0  0  0  0  0  0  0
  194.9300  175.0060  143.2300 C   0  0  0  0  0  3  0  0  0  0  0  0
  194.3620  175.3570  144.4410 C   0  0  0  0  0  0  0  0  0  0  0  0
  191.3710  173.5270  144.2500 N   0  0  0  0  0  2  0  0  0  0  0  0
  193.2970  172.4000  144.9130 O   0  0  0  0  0  0  0  0  0  0  0  0
  192.6970  173.5010  144.7950 C   0  0  0  0  0  0  0  0  0  0  0  0
  190.6560  172.3480  143.7750 C   0  0  1  0  0  3  0  0  0  0  0  0
  189.3840  172.2950  144.3510 O   0  0  0  0  0  1  0  0  0  0  0  0
  190.5480  172.3610  142.2580 C   0  0  0  0  0  2  0  0  0  0  0  0
  190.7480  173.7640  141.7040 C   0  0  0  0  0  2  0  0  0  0  0  0
  188.9230  173.6120  140.1060 C   0  0  0  0  0  2  0  0  0  0  0  0
  189.4800  174.2880  141.1090 C   0  0  0  0  0  0  0  0  0  0  0  0
  187.8060  176.0280  141.0010 O   0  0  0  0  0  1  0  0  0  0  0  0
  188.8730  175.4850  141.6350 N   0  0  0  0  0  0  0  0  0  0  0  0
  189.3100  176.0920  142.8870 C   0  0  0  0  0  2  0  0  0  0  0  0
  191.5050  177.2010  143.1420 C   0  0  0  0  0  2  0  0  0  0  0  0
  190.0940  177.3610  142.6090 C   0  0  0  0  0  3  0  0  0  0  0  0
  190.4850  177.9940  143.9320 C   0  0  0  0  0  2  0  0  0  0  0  0
  191.9810  174.9170  147.3760 C   0  0  0  0  0  2  0  0  0  0  0  0
  191.2000  176.0610  148.0110 C   0  0  0  0  0  2  0  0  0  0  0  0
  188.4430  174.7930  147.5980 O   0  0  0  0  0  1  0  0  0  0  0  0
  185.1850  177.1600  145.3520 C   0  0  2  0  0  3  0  0  0  0  0  0
  185.6560  179.0060  147.2760 S   0  0  0  0  0  0  0  0  0  0  0  0
  184.6100  177.6490  146.6770 C   0  0  0  0  0  2  0  0  0  0  0  0
  188.1610  178.0420  147.1690 C   0  0  0  0  0  0  0  0  0  0  0  0
  189.3090  177.7390  147.7000 C   0  0  0  0  0  0  0  0  0  0  0  0
  190.0420  178.8100  148.4300 C   0  0  0  0  0  1  0  0  0  0  0  0
  189.1890  175.4030  146.5770 C   0  0  1  0  0  3  0  0  0  0  0  0
  186.7020  177.1710  145.4710 C   0  0  2  0  0  3  0  0  0  0  0  0
  187.1350  175.8860  145.8500 O   0  0  0  0  0  0  0  0  0  0  0  0
  188.4000  175.7930  145.4590 O   0  0  0  0  0  0  0  0  0  0  0  0
  190.0640  176.5640  147.1140 C   0  0  2  0  0  3  0  0  0  0  0  0
  187.0400  178.1790  146.5260 C   0  0  0  0  0  0  0  0  0  0  0  0
  184.7890  178.0150  144.3230 O   0  0  0  0  0  0  0  0  0  0  0  0
  185.4440  177.5340  143.1870 C   0  0  0  0  0  1  0  0  0  0  0  0
  1  5  1  0  0  0  0
  2  4  2  0  0  0  0
  3  8  2  0  0  0  0
  3  7  1  0  0  0  0
  4  6  1  0  0  0  0
  4 25  1  0  0  0  0
  5  6  2  0  0  0  0
  7  1  1  0  0  0  0
  8  9  1  0  0  0  0
  9  1  2  0  0  0  0
  9  2  1  0  0  0  0
 10 12  1  0  0  0  0
 12 11  2  0  0  0  0
 12  2  1  0  0  0  0
 13 10  1  0  0  0  0
 13 14  1  1  0  0  0
 15 13  1  0  0  0  0
 16 15  1  0  0  0  0
 17 18  2  0  0  0  0
 18 20  1  0  0  0  0
 18 16  1  0  0  0  0
 19 20  1  0  0  0  0
 20 21  1  0  0  0  0
 22 24  1  0  0  0  0
 23 21  1  0  0  0  0
 23 22  1  0  0  0  0
 23 24  1  0  0  0  0
 25 26  1  0  0  0  0
 28 40  1  6  0  0  0
 28 35  1  0  0  0  0
 28 30  1  0  0  0  0
 30 29  1  0  0  0  0
 31 32  2  0  0  0  0
 32 33  1  0  0  0  0
 34 38  1  0  0  0  0
 34 27  1  1  0  0  0
 35 36  1  1  0  0  0
 35 39  1  0  0  0  0
 37 36  1  0  0  0  0
 37 34  1  0  0  0  0
 38 32  1  0  0  0  0
 38 26  1  1  0  0  0
 39 31  2  0  0  0  0
 39 29  1  0  0  0  0
 41 40  1  0  0  0  0
M  END
>  <MODEL>
4

>  <REMARK>
 VINA RESULT:      -7.1      3.098      7.299
  Name = 
  12 active torsions:
  status: ('A' for Active; 'I' for Inactive)
    1  A    between atoms: C_3  and  C_19
    2  A    between atoms: C_3  and  C_20
    3  A    between atoms: C_4  and  C_27
    4  A    between atoms: C_7  and  C_21
    5  A    between atoms: C_7  and  C_24
    6  A    between atoms: N_8  and  C_21
    7  A    between atoms: C_9  and  O_10
    8  A    between atoms: C_11  and  C_32
    9  A    between atoms: C_20  and  C_39
   10  A    between atoms: C_24  and  C_36
   11  A    between atoms: N_26  and  C_32
   12  A    between atoms: N_26  and  C_36
                            x       y       z     vdW  Elec       q    Type
                         _______ _______ _______ _____ _____    ______ ____

>  <TORSDO>
F 12

$$$$
=
 OpenBabel11062422233D

 41 45  0  0  1  0  0  0  0  0999 V2000
  184.8340  178.2920  145.9180 C   0  0  0  0  0  0  0  0  0  0  0  0
  186.6200  177.2340  144.6600 C   0  0  0  0  0  0  0  0  0  0  0  0
  183.6120  179.1780  144.4040 N   0  0  0  0  0  0  0  0  0  0  0  0
  187.1570  176.7810  145.9030 C   0  0  0  0  0  0  0  0  0  0  0  0
  185.3350  177.8660  147.1410 C   0  0  0  0  0  3  0  0  0  0  0  0
  186.5130  177.1030  147.1210 C   0  0  0  0  0  3  0  0  0  0  0  0
  183.7570  178.9930  145.6890 O   0  0  0  0  0  0  0  0  0  0  0  0
  184.6400  178.5710  143.7620 C   0  0  0  0  0  3  0  0  0  0  0  0
  185.4410  177.9970  144.7330 C   0  0  0  0  0  0  0  0  0  0  0  0
  187.0200  175.6510  142.7240 N   0  0  0  0  0  2  0  0  0  0  0  0
  187.9920  177.7650  142.7820 O   0  0  0  0  0  0  0  0  0  0  0  0
  187.2490  176.9210  143.3490 C   0  0  0  0  0  0  0  0  0  0  0  0
  187.5670  175.2640  141.4290 C   0  0  1  0  0  3  0  0  0  0  0  0
  187.5140  176.3430  140.5440 O   0  0  0  0  0  1  0  0  0  0  0  0
  188.9990  174.7710  141.5760 C   0  0  0  0  0  2  0  0  0  0  0  0
  189.1190  173.7580  142.7040 C   0  0  0  0  0  2  0  0  0  0  0  0
  191.0500  172.7800  143.8090 C   0  0  0  0  0  2  0  0  0  0  0  0
  190.4420  173.0630  142.6590 C   0  0  0  0  0  0  0  0  0  0  0  0
  192.0480  173.4140  140.8880 O   0  0  0  0  0  1  0  0  0  0  0  0
  191.0210  172.6900  141.3930 N   0  0  0  0  0  0  0  0  0  0  0  0
  190.5990  171.4980  140.6660 C   0  0  0  0  0  2  0  0  0  0  0  0
  189.1860  172.2540  138.7830 C   0  0  0  0  0  2  0  0  0  0  0  0
  190.5710  171.7740  139.1740 C   0  0  0  0  0  3  0  0  0  0  0  0
  189.5910  170.8190  138.5190 C   0  0  0  0  0  2  0  0  0  0  0  0
  188.4230  175.9920  145.9830 C   0  0  0  0  0  2  0  0  0  0  0  0
  189.6310  176.9050  145.8110 C   0  0  0  0  0  2  0  0  0  0  0  0
  191.6370  178.2510  143.9280 O   0  0  0  0  0  1  0  0  0  0  0  0
  195.2570  175.8430  142.3930 C   0  0  2  0  0  3  0  0  0  0  0  0
  195.7480  175.5140  145.0350 S   0  0  0  0  0  0  0  0  0  0  0  0
  196.1260  176.4170  143.5070 C   0  0  0  0  0  2  0  0  0  0  0  0
  193.0700  175.5970  145.2380 C   0  0  0  0  0  0  0  0  0  0  0  0
  191.9640  175.8840  145.8590 C   0  0  0  0  0  0  0  0  0  0  0  0
  191.7820  175.3500  147.2360 C   0  0  0  0  0  1  0  0  0  0  0  0
  191.0610  176.9930  143.6930 C   0  0  1  0  0  3  0  0  0  0  0  0
  193.8810  175.5560  142.9770 C   0  0  2  0  0  3  0  0  0  0  0  0
  193.0440  176.6580  142.7260 O   0  0  0  0  0  0  0  0  0  0  0  0
  191.8010  176.1970  142.7760 O   0  0  0  0  0  0  0  0  0  0  0  0
  190.7590  176.2400  145.0140 C   0  0  2  0  0  3  0  0  0  0  0  0
  194.0760  175.3600  144.4500 C   0  0  0  0  0  0  0  0  0  0  0  0
  195.8210  174.6590  141.9180 O   0  0  0  0  0  0  0  0  0  0  0  0
  197.0980  175.0200  141.4850 C   0  0  0  0  0  1  0  0  0  0  0  0
  1  5  1  0  0  0  0
  2  9  1  0  0  0  0
  2  4  2  0  0  0  0
  3  7  1  0  0  0  0
  4 25  1  0  0  0  0
  4  6  1  0  0  0  0
  6  5  2  0  0  0  0
  7  1  1  0  0  0  0
  8  3  2  0  0  0  0
  8  9  1  0  0  0  0
  9  1  2  0  0  0  0
 10 12  1  0  0  0  0
 11 12  2  0  0  0  0
 12  2  1  0  0  0  0
 13 14  1  6  0  0  0
 13 15  1  0  0  0  0
 13 10  1  0  0  0  0
 15 16  1  0  0  0  0
 18 16  1  0  0  0  0
 18 17  2  0  0  0  0
 19 20  1  0  0  0  0
 20 18  1  0  0  0  0
 21 20  1  0  0  0  0
 22 23  1  0  0  0  0
 23 21  1  0  0  0  0
 24 22  1  0  0  0  0
 24 23  1  0  0  0  0
 26 25  1  0  0  0  0
 28 40  1  1  0  0  0
 28 35  1  0  0  0  0
 28 30  1  0  0  0  0
 30 29  1  0  0  0  0
 31 32  2  0  0  0  0
 32 33  1  0  0  0  0
 34 27  1  1  0  0  0
 34 38  1  0  0  0  0
 35 36  1  1  0  0  0
 35 39  1  0  0  0  0
 36 37  1  0  0  0  0
 37 34  1  0  0  0  0
 38 26  1  1  0  0  0
 38 32  1  0  0  0  0
 39 29  1  0  0  0  0
 39 31  2  0  0  0  0
 41 40  1  0  0  0  0
M  END
>  <MODEL>
5

>  <REMARK>
 VINA RESULT:      -7.0      1.091      2.039
  Name = 
  12 active torsions:
  status: ('A' for Active; 'I' for Inactive)
    1  A    between atoms: C_3  and  C_19
    2  A    between atoms: C_3  and  C_20
    3  A    between atoms: C_4  and  C_27
    4  A    between atoms: C_7  and  C_21
    5  A    between atoms: C_7  and  C_24
    6  A    between atoms: N_8  and  C_21
    7  A    between atoms: C_9  and  O_10
    8  A    between atoms: C_11  and  C_32
    9  A    between atoms: C_20  and  C_39
   10  A    between atoms: C_24  and  C_36
   11  A    between atoms: N_26  and  C_32
   12  A    between atoms: N_26  and  C_36
                            x       y       z     vdW  Elec       q    Type
                         _______ _______ _______ _____ _____    ______ ____

>  <TORSDO>
F 12

$$$$
=
 OpenBabel11062422233D

 41 45  0  0  1  0  0  0  0  0999 V2000
  184.7730  178.3410  145.8110 C   0  0  0  0  0  0  0  0  0  0  0  0
  186.6080  177.1660  144.7420 C   0  0  0  0  0  0  0  0  0  0  0  0
  183.6180  179.0680  144.1650 N   0  0  0  0  0  0  0  0  0  0  0  0
  187.0910  176.8400  146.0450 C   0  0  0  0  0  0  0  0  0  0  0  0
  185.2210  178.0410  147.0900 C   0  0  0  0  0  3  0  0  0  0  0  0
  186.3970  177.2820  147.1960 C   0  0  0  0  0  3  0  0  0  0  0  0
  183.7080  179.0130  145.4670 O   0  0  0  0  0  0  0  0  0  0  0  0
  184.6700  178.4010  143.6320 C   0  0  0  0  0  3  0  0  0  0  0  0
  185.4280  177.9290  144.6880 C   0  0  0  0  0  0  0  0  0  0  0  0
  187.1320  175.3790  143.0240 N   0  0  0  0  0  2  0  0  0  0  0  0
  188.0180  177.5240  142.8510 O   0  0  0  0  0  0  0  0  0  0  0  0
  187.2900  176.7230  143.4960 C   0  0  0  0  0  0  0  0  0  0  0  0
  187.7340  174.8620  141.8020 C   0  0  1  0  0  3  0  0  0  0  0  0
  187.7970  175.8680  140.8360 O   0  0  0  0  0  1  0  0  0  0  0  0
  189.1250  174.3100  142.0800 C   0  0  0  0  0  2  0  0  0  0  0  0
  189.0600  172.8600  142.5350 C   0  0  0  0  0  2  0  0  0  0  0  0
  189.7740  172.7520  144.8560 C   0  0  0  0  0  2  0  0  0  0  0  0
  190.0970  172.5800  143.5760 C   0  0  0  0  0  0  0  0  0  0  0  0
  191.9880  172.6050  142.0710 O   0  0  0  0  0  1  0  0  0  0  0  0
  191.4030  172.1100  143.1880 N   0  0  0  0  0  0  0  0  0  0  0  0
  192.1690  171.1780  144.0070 C   0  0  0  0  0  2  0  0  0  0  0  0
  194.6080  171.5710  144.1050 C   0  0  0  0  0  2  0  0  0  0  0  0
  193.2750  171.9110  144.7430 C   0  0  0  0  0  3  0  0  0  0  0  0
  194.1910  170.8890  145.3910 C   0  0  0  0  0  2  0  0  0  0  0  0
  188.3510  176.0670  146.2570 C   0  0  0  0  0  2  0  0  0  0  0  0
  189.5670  176.9610  146.0500 C   0  0  0  0  0  2  0  0  0  0  0  0
  191.6690  178.2440  144.2280 O   0  0  0  0  0  1  0  0  0  0  0  0
  195.2190  175.7050  142.7420 C   0  0  2  0  0  3  0  0  0  0  0  0
  195.6360  175.3240  145.3900 S   0  0  0  0  0  0  0  0  0  0  0  0
  196.0860  176.2290  143.8820 C   0  0  0  0  0  2  0  0  0  0  0  0
  192.9610  175.5160  145.5350 C   0  0  0  0  0  0  0  0  0  0  0  0
  191.8540  175.8430  146.1350 C   0  0  0  0  0  0  0  0  0  0  0  0
  191.6180  175.3000  147.5010 C   0  0  0  0  0  1  0  0  0  0  0  0
  191.0470  177.0140  143.9650 C   0  0  1  0  0  3  0  0  0  0  0  0
  193.8200  175.4680  143.2920 C   0  0  2  0  0  3  0  0  0  0  0  0
  193.0350  176.6080  143.0360 O   0  0  0  0  0  0  0  0  0  0  0  0
  191.7730  176.1990  143.0530 O   0  0  0  0  0  0  0  0  0  0  0  0
  190.6830  176.2590  145.2690 C   0  0  2  0  0  3  0  0  0  0  0  0
  193.9730  175.2470  144.7660 C   0  0  0  0  0  0  0  0  0  0  0  0
  195.7440  174.5040  142.2640 O   0  0  0  0  0  0  0  0  0  0  0  0
  197.0240  174.8280  141.8110 C   0  0  0  0  0  1  0  0  0  0  0  0
  1  5  1  0  0  0  0
  2  4  2  0  0  0  0
  3  7  1  0  0  0  0
  4 25  1  0  0  0  0
  4  6  1  0  0  0  0
  5  6  2  0  0  0  0
  7  1  1  0  0  0  0
  8  3  2  0  0  0  0
  8  9  1  0  0  0  0
  9  2  1  0  0  0  0
  9  1  2  0  0  0  0
 10 12  1  0  0  0  0
 11 12  2  0  0  0  0
 12  2  1  0  0  0  0
 13 14  1  6  0  0  0
 13 15  1  0  0  0  0
 13 10  1  0  0  0  0
 15 16  1  0  0  0  0
 16 18  1  0  0  0  0
 18 17  2  0  0  0  0
 19 20  1  0  0  0  0
 20 18  1  0  0  0  0
 20 21  1  0  0  0  0
 21 23  1  0  0  0  0
 22 23  1  0  0  0  0
 22 24  1  0  0  0  0
 23 24  1  0  0  0  0
 26 25  1  0  0  0  0
 28 40  1  1  0  0  0
 28 35  1  0  0  0  0
 28 30  1  0  0  0  0
 30 29  1  0  0  0  0
 31 32  2  0  0  0  0
 32 33  1  0  0  0  0
 34 27  1  1  0  0  0
 34 38  1  0  0  0  0
 35 36  1  1  0  0  0
 35 39  1  0  0  0  0
 36 37  1  0  0  0  0
 37 34  1  0  0  0  0
 38 26  1  1  0  0  0
 38 32  1  0  0  0  0
 39 29  1  0  0  0  0
 39 31  2  0  0  0  0
 41 40  1  0  0  0  0
M  END
>  <MODEL>
6

>  <REMARK>
 VINA RESULT:      -6.9      1.403      1.912
  Name = 
  12 active torsions:
  status: ('A' for Active; 'I' for Inactive)
    1  A    between atoms: C_3  and  C_19
    2  A    between atoms: C_3  and  C_20
    3  A    between atoms: C_4  and  C_27
    4  A    between atoms: C_7  and  C_21
    5  A    between atoms: C_7  and  C_24
    6  A    between atoms: N_8  and  C_21
    7  A    between atoms: C_9  and  O_10
    8  A    between atoms: C_11  and  C_32
    9  A    between atoms: C_20  and  C_39
   10  A    between atoms: C_24  and  C_36
   11  A    between atoms: N_26  and  C_32
   12  A    between atoms: N_26  and  C_36
                            x       y       z     vdW  Elec       q    Type
                         _______ _______ _______ _____ _____    ______ ____

>  <TORSDO>
F 12

$$$$
=
 OpenBabel11062422233D

 41 45  0  0  1  0  0  0  0  0999 V2000
  184.7160  177.9260  140.5170 C   0  0  0  0  0  0  0  0  0  0  0  0
  185.8010  178.2930  142.6560 C   0  0  0  0  0  0  0  0  0  0  0  0
  182.6380  178.1760  140.9600 N   0  0  0  0  0  0  0  0  0  0  0  0
  187.0510  178.0810  142.0000 C   0  0  0  0  0  0  0  0  0  0  0  0
  185.9160  177.7140  139.8540 C   0  0  0  0  0  3  0  0  0  0  0  0
  187.0920  177.7930  140.6160 C   0  0  0  0  0  3  0  0  0  0  0  0
  183.5080  177.9170  140.0210 O   0  0  0  0  0  0  0  0  0  0  0  0
  183.3060  178.3640  142.1250 C   0  0  0  0  0  3  0  0  0  0  0  0
  184.6520  178.2000  141.8520 C   0  0  0  0  0  0  0  0  0  0  0  0
  185.4810  177.5550  145.0590 N   0  0  0  0  0  2  0  0  0  0  0  0
  185.7870  179.7960  144.5090 O   0  0  0  0  0  0  0  0  0  0  0  0
  185.6960  178.6060  144.1070 C   0  0  0  0  0  0  0  0  0  0  0  0
  185.3950  177.7570  146.5000 C   0  0  1  0  0  3  0  0  0  0  0  0
  184.5610  176.7930  147.0700 O   0  0  0  0  0  1  0  0  0  0  0  0
  186.7770  177.7010  147.1340 C   0  0  0  0  0  2  0  0  0  0  0  0
  187.6240  176.6030  146.5090 C   0  0  0  0  0  2  0  0  0  0  0  0
  189.5720  177.8790  147.2050 C   0  0  0  0  0  2  0  0  0  0  0  0
  189.0360  176.6780  146.9940 C   0  0  0  0  0  0  0  0  0  0  0  0
  190.8970  175.5210  148.0130 O   0  0  0  0  0  1  0  0  0  0  0  0
  189.7790  175.4700  147.2500 N   0  0  0  0  0  0  0  0  0  0  0  0
  189.3240  174.1640  146.7870 C   0  0  0  0  0  2  0  0  0  0  0  0
  189.6910  172.4890  145.0050 C   0  0  0  0  0  2  0  0  0  0  0  0
  189.6820  173.9710  145.3250 C   0  0  0  0  0  3  0  0  0  0  0  0
  190.9970  173.2190  145.2390 C   0  0  0  0  0  2  0  0  0  0  0  0
  188.3510  178.1120  142.7350 C   0  0  0  0  0  2  0  0  0  0  0  0
  188.8400  176.6960  143.0130 C   0  0  0  0  0  2  0  0  0  0  0  0
  191.5010  176.6110  144.5290 O   0  0  0  0  0  1  0  0  0  0  0  0
  195.2720  175.0530  142.3820 C   0  0  2  0  0  3  0  0  0  0  0  0
  193.7500  172.8460  142.0040 S   0  0  0  0  0  0  0  0  0  0  0  0
  195.0490  173.6640  142.9730 C   0  0  0  0  0  2  0  0  0  0  0  0
  191.7310  174.6160  141.9240 C   0  0  0  0  0  0  0  0  0  0  0  0
  190.4990  174.9770  142.1290 C   0  0  0  0  0  0  0  0  0  0  0  0
  189.4210  174.1310  141.5440 C   0  0  0  0  0  1  0  0  0  0  0  0
  191.3440  177.1600  143.2460 C   0  0  1  0  0  3  0  0  0  0  0  0
  193.9130  175.6200  141.9980 C   0  0  2  0  0  3  0  0  0  0  0  0
  193.4390  176.4160  143.0570 O   0  0  0  0  0  0  0  0  0  0  0  0
  192.5640  177.2590  142.5230 O   0  0  0  0  0  0  0  0  0  0  0  0
  190.2370  176.4360  142.4390 C   0  0  2  0  0  3  0  0  0  0  0  0
  193.0100  174.4450  141.7700 C   0  0  0  0  0  0  0  0  0  0  0  0
  196.0780  174.9580  141.2470 O   0  0  0  0  0  0  0  0  0  0  0  0
  197.1380  174.1350  141.6300 C   0  0  0  0  0  1  0  0  0  0  0  0
  1  9  1  0  0  0  0
  2 12  1  0  0  0  0
  3  8  2  0  0  0  0
  4  2  1  0  0  0  0
  4 25  1  0  0  0  0
  5  1  2  0  0  0  0
  5  6  1  0  0  0  0
  6  4  2  0  0  0  0
  7  1  1  0  0  0  0
  7  3  1  0  0  0  0
  9  8  1  0  0  0  0
  9  2  2  0  0  0  0
 10 13  1  0  0  0  0
 12 11  2  0  0  0  0
 12 10  1  0  0  0  0
 13 14  1  1  0  0  0
 13 15  1  0  0  0  0
 16 18  1  0  0  0  0
 16 15  1  0  0  0  0
 18 17  2  0  0  0  0
 18 20  1  0  0  0  0
 20 19  1  0  0  0  0
 21 20  1  0  0  0  0
 22 24  1  0  0  0  0
 22 23  1  0  0  0  0
 23 21  1  0  0  0  0
 24 23  1  0  0  0  0
 25 26  1  0  0  0  0
 28 40  1  6  0  0  0
 28 30  1  0  0  0  0
 29 30  1  0  0  0  0
 31 32  2  0  0  0  0
 32 38  1  0  0  0  0
 33 32  1  0  0  0  0
 34 27  1  1  0  0  0
 35 39  1  1  0  0  0
 35 28  1  0  0  0  0
 35 36  1  0  0  0  0
 37 36  1  0  0  0  0
 37 34  1  0  0  0  0
 38 26  1  1  0  0  0
 38 34  1  0  0  0  0
 39 31  2  0  0  0  0
 39 29  1  0  0  0  0
 40 41  1  0  0  0  0
M  END
>  <MODEL>
7

>  <REMARK>
 VINA RESULT:      -6.9      2.438      4.589
  Name = 
  12 active torsions:
  status: ('A' for Active; 'I' for Inactive)
    1  A    between atoms: C_3  and  C_19
    2  A    between atoms: C_3  and  C_20
    3  A    between atoms: C_4  and  C_27
    4  A    between atoms: C_7  and  C_21
    5  A    between atoms: C_7  and  C_24
    6  A    between atoms: N_8  and  C_21
    7  A    between atoms: C_9  and  O_10
    8  A    between atoms: C_11  and  C_32
    9  A    between atoms: C_20  and  C_39
   10  A    between atoms: C_24  and  C_36
   11  A    between atoms: N_26  and  C_32
   12  A    between atoms: N_26  and  C_36
                            x       y       z     vdW  Elec       q    Type
                         _______ _______ _______ _____ _____    ______ ____

>  <TORSDO>
F 12

$$$$
=
 OpenBabel11062422233D

 41 45  0  0  1  0  0  0  0  0999 V2000
  184.8080  178.3140  146.0110 C   0  0  0  0  0  0  0  0  0  0  0  0
  186.6800  177.3430  144.8100 C   0  0  0  0  0  0  0  0  0  0  0  0
  183.5360  179.0400  144.4530 N   0  0  0  0  0  0  0  0  0  0  0  0
  187.2380  176.9850  146.0740 C   0  0  0  0  0  0  0  0  0  0  0  0
  185.3280  177.9800  147.2540 C   0  0  0  0  0  3  0  0  0  0  0  0
  186.5600  177.3090  147.2730 C   0  0  0  0  0  3  0  0  0  0  0  0
  183.6830  178.9220  145.7450 O   0  0  0  0  0  0  0  0  0  0  0  0
  184.6120  178.4860  143.8440 C   0  0  0  0  0  3  0  0  0  0  0  0
  185.4460  178.0160  144.8430 C   0  0  0  0  0  0  0  0  0  0  0  0
  187.3580  175.6760  143.0280 N   0  0  0  0  0  2  0  0  0  0  0  0
  187.9010  177.9320  142.8470 O   0  0  0  0  0  0  0  0  0  0  0  0
  187.3430  177.0240  143.5170 C   0  0  0  0  0  0  0  0  0  0  0  0
  187.9540  175.2700  141.7610 C   0  0  1  0  0  3  0  0  0  0  0  0
  187.6210  176.1850  140.7600 O   0  0  0  0  0  1  0  0  0  0  0  0
  189.4660  175.1570  141.8910 C   0  0  0  0  0  2  0  0  0  0  0  0
  189.8540  174.0290  142.8350 C   0  0  0  0  0  2  0  0  0  0  0  0
  189.6560  171.6090  142.7400 C   0  0  0  0  0  2  0  0  0  0  0  0
  189.9700  172.7330  142.0990 C   0  0  0  0  0  0  0  0  0  0  0  0
  191.7000  172.8750  140.4180 O   0  0  0  0  0  1  0  0  0  0  0  0
  190.3890  172.7190  140.7200 N   0  0  0  0  0  0  0  0  0  0  0  0
  189.4610  172.4520  139.6280 C   0  0  0  0  0  2  0  0  0  0  0  0
  188.1900  173.9810  138.1570 C   0  0  0  0  0  2  0  0  0  0  0  0
  189.5790  173.5270  138.5640 C   0  0  0  0  0  3  0  0  0  0  0  0
  188.9550  173.0130  137.2790 C   0  0  0  0  0  2  0  0  0  0  0  0
  188.5600  176.3000  146.1960 C   0  0  0  0  0  2  0  0  0  0  0  0
  189.6470  177.3000  146.5700 C   0  0  0  0  0  2  0  0  0  0  0  0
  190.5550  174.3930  146.2430 O   0  0  0  0  0  1  0  0  0  0  0  0
  194.7320  173.5190  144.4960 C   0  0  2  0  0  3  0  0  0  0  0  0
  193.8150  174.9920  142.4170 S   0  0  0  0  0  0  0  0  0  0  0  0
  194.1270  173.3420  143.1070 C   0  0  0  0  0  2  0  0  0  0  0  0
  192.4430  176.2880  144.3290 C   0  0  0  0  0  0  0  0  0  0  0  0
  191.4130  176.9490  144.7690 C   0  0  0  0  0  0  0  0  0  0  0  0
  191.0010  178.1700  144.0240 C   0  0  0  0  0  1  0  0  0  0  0  0
  191.3310  175.3960  146.8460 C   0  0  1  0  0  3  0  0  0  0  0  0
  194.0170  174.6790  145.1710 C   0  0  2  0  0  3  0  0  0  0  0  0
  192.9700  174.1680  145.9620 O   0  0  0  0  0  0  0  0  0  0  0  0
  192.7190  175.0890  146.8830 O   0  0  0  0  0  0  0  0  0  0  0  0
  191.0520  176.7910  146.2310 C   0  0  2  0  0  3  0  0  0  0  0  0
  193.4790  175.5460  144.0730 C   0  0  0  0  0  0  0  0  0  0  0  0
  196.0920  173.8080  144.3840 O   0  0  0  0  0  0  0  0  0  0  0  0
  196.5370  173.9500  145.6990 C   0  0  0  0  0  1  0  0  0  0  0  0
  1  5  1  0  0  0  0
  2  9  1  0  0  0  0
  2  4  2  0  0  0  0
  3  7  1  0  0  0  0
  4 25  1  0  0  0  0
  4  6  1  0  0  0  0
  5  6  2  0  0  0  0
  7  1  1  0  0  0  0
  8  3  2  0  0  0  0
  8  9  1  0  0  0  0
  9  1  2  0  0  0  0
 10 12  1  0  0  0  0
 11 12  2  0  0  0  0
 12  2  1  0  0  0  0
 13 14  1  6  0  0  0
 13 15  1  0  0  0  0
 13 10  1  0  0  0  0
 15 16  1  0  0  0  0
 18 17  2  0  0  0  0
 18 16  1  0  0  0  0
 19 20  1  0  0  0  0
 20 18  1  0  0  0  0
 21 20  1  0  0  0  0
 22 23  1  0  0  0  0
 23 21  1  0  0  0  0
 24 22  1  0  0  0  0
 24 23  1  0  0  0  0
 25 26  1  0  0  0  0
 28 40  1  6  0  0  0
 28 35  1  0  0  0  0
 29 30  1  0  0  0  0
 29 39  1  0  0  0  0
 30 28  1  0  0  0  0
 31 32  2  0  0  0  0
 32 38  1  0  0  0  0
 33 32  1  0  0  0  0
 34 27  1  6  0  0  0
 34 37  1  0  0  0  0
 35 39  1  6  0  0  0
 35 36  1  0  0  0  0
 36 37  1  0  0  0  0
 38 26  1  6  0  0  0
 38 34  1  0  0  0  0
 39 31  2  0  0  0  0
 40 41  1  0  0  0  0
M  END
>  <MODEL>
8

>  <REMARK>
 VINA RESULT:      -6.8      1.917      3.005
  Name = 
  12 active torsions:
  status: ('A' for Active; 'I' for Inactive)
    1  A    between atoms: C_3  and  C_19
    2  A    between atoms: C_3  and  C_20
    3  A    between atoms: C_4  and  C_27
    4  A    between atoms: C_7  and  C_21
    5  A    between atoms: C_7  and  C_24
    6  A    between atoms: N_8  and  C_21
    7  A    between atoms: C_9  and  O_10
    8  A    between atoms: C_11  and  C_32
    9  A    between atoms: C_20  and  C_39
   10  A    between atoms: C_24  and  C_36
   11  A    between atoms: N_26  and  C_32
   12  A    between atoms: N_26  and  C_36
                            x       y       z     vdW  Elec       q    Type
                         _______ _______ _______ _____ _____    ______ ____

>  <TORSDO>
F 12

$$$$
=
 OpenBabel11062422233D

 41 45  0  0  1  0  0  0  0  0999 V2000
  184.8810  178.0360  144.0500 C   0  0  0  0  0  0  0  0  0  0  0  0
  186.7420  176.8150  145.0150 C   0  0  0  0  0  0  0  0  0  0  0  0
  184.0440  179.0770  145.7210 N   0  0  0  0  0  0  0  0  0  0  0  0
  187.0250  176.3160  143.7090 C   0  0  0  0  0  0  0  0  0  0  0  0
  185.1310  177.5650  142.7700 C   0  0  0  0  0  3  0  0  0  0  0  0
  186.2190  176.6930  142.6090 C   0  0  0  0  0  3  0  0  0  0  0  0
  183.9440  178.8600  144.4370 O   0  0  0  0  0  0  0  0  0  0  0  0
  185.0940  178.3650  146.1980 C   0  0  0  0  0  3  0  0  0  0  0  0
  185.6410  177.6830  145.1260 C   0  0  0  0  0  0  0  0  0  0  0  0
  188.9900  176.4920  146.1380 N   0  0  0  0  0  2  0  0  0  0  0  0
  186.9980  176.1210  147.2840 O   0  0  0  0  0  0  0  0  0  0  0  0
  187.5580  176.4590  146.2080 C   0  0  0  0  0  0  0  0  0  0  0  0
  189.8730  176.1900  147.2580 C   0  0  1  0  0  3  0  0  0  0  0  0
  189.7830  174.8360  147.5880 O   0  0  0  0  0  1  0  0  0  0  0  0
  191.3110  176.5570  146.9220 C   0  0  0  0  0  2  0  0  0  0  0  0
  192.0940  175.3380  146.4560 C   0  0  0  0  0  2  0  0  0  0  0  0
  194.4670  175.8280  146.2640 C   0  0  0  0  0  2  0  0  0  0  0  0
  193.2870  175.7470  145.6520 C   0  0  0  0  0  0  0  0  0  0  0  0
  194.2610  176.1260  143.4740 O   0  0  0  0  0  1  0  0  0  0  0  0
  193.1520  176.0170  144.2430 N   0  0  0  0  0  0  0  0  0  0  0  0
  191.8520  176.0930  143.5870 C   0  0  0  0  0  2  0  0  0  0  0  0
  191.2420  178.4770  143.8340 C   0  0  0  0  0  2  0  0  0  0  0  0
  191.7080  177.4150  142.8560 C   0  0  0  0  0  3  0  0  0  0  0  0
  190.2500  177.8340  142.8870 C   0  0  0  0  0  2  0  0  0  0  0  0
  188.1400  175.3570  143.4460 C   0  0  0  0  0  2  0  0  0  0  0  0
  188.0330  174.7890  142.0360 C   0  0  0  0  0  2  0  0  0  0  0  0
  188.6030  171.9560  143.0530 O   0  0  0  0  0  1  0  0  0  0  0  0
  191.9280  169.4660  141.0510 C   0  0  2  0  0  3  0  0  0  0  0  0
  190.4840  169.9370  138.8100 S   0  0  0  0  0  0  0  0  0  0  0  0
  190.8970  168.7890  140.1540 C   0  0  0  0  0  2  0  0  0  0  0  0
  189.8870  172.2500  140.0390 C   0  0  0  0  0  0  0  0  0  0  0  0
  189.0980  173.2470  140.3100 C   0  0  0  0  0  0  0  0  0  0  0  0
  188.5450  174.0250  139.1670 C   0  0  0  0  0  1  0  0  0  0  0  0
  189.5930  172.9270  142.8370 C   0  0  1  0  0  3  0  0  0  0  0  0
  191.5430  170.9330  141.1780 C   0  0  2  0  0  3  0  0  0  0  0  0
  190.7780  171.1010  142.3470 O   0  0  0  0  0  0  0  0  0  0  0  0
  190.8960  172.3790  142.6850 O   0  0  0  0  0  0  0  0  0  0  0  0
  189.2190  173.8860  141.6780 C   0  0  2  0  0  3  0  0  0  0  0  0
  190.7360  171.2690  139.9610 C   0  0  0  0  0  0  0  0  0  0  0  0
  193.1940  169.3620  140.4760 O   0  0  0  0  0  0  0  0  0  0  0  0
  194.0420  170.0410  141.3520 C   0  0  0  0  0  1  0  0  0  0  0  0
  1  7  1  0  0  0  0
  1  9  1  0  0  0  0
  2  9  2  0  0  0  0
  2 12  1  0  0  0  0
  3  8  2  0  0  0  0
  4  2  1  0  0  0  0
  5  1  2  0  0  0  0
  6  5  1  0  0  0  0
  6  4  2  0  0  0  0
  7  3  1  0  0  0  0
  9  8  1  0  0  0  0
 10 12  1  0  0  0  0
 10 13  1  0  0  0  0
 12 11  2  0  0  0  0
 13 14  1  6  0  0  0
 15 13  1  0  0  0  0
 16 15  1  0  0  0  0
 18 17  2  0  0  0  0
 18 16  1  0  0  0  0
 19 20  1  0  0  0  0
 20 18  1  0  0  0  0
 21 20  1  0  0  0  0
 23 24  1  0  0  0  0
 23 21  1  0  0  0  0
 23 22  1  0  0  0  0
 24 22  1  0  0  0  0
 25  4  1  0  0  0  0
 26 25  1  0  0  0  0
 28 40  1  6  0  0  0
 28 35  1  0  0  0  0
 29 39  1  0  0  0  0
 29 30  1  0  0  0  0
 30 28  1  0  0  0  0
 31 32  2  0  0  0  0
 32 38  1  0  0  0  0
 33 32  1  0  0  0  0
 34 27  1  6  0  0  0
 35 39  1  6  0  0  0
 35 36  1  0  0  0  0
 36 37  1  0  0  0  0
 37 34  1  0  0  0  0
 38 26  1  1  0  0  0
 38 34  1  0  0  0  0
 39 31  2  0  0  0  0
 40 41  1  0  0  0  0
M  END
>  <MODEL>
9

>  <REMARK>
 VINA RESULT:      -6.6      2.974      5.783
  Name = 
  12 active torsions:
  status: ('A' for Active; 'I' for Inactive)
    1  A    between atoms: C_3  and  C_19
    2  A    between atoms: C_3  and  C_20
    3  A    between atoms: C_4  and  C_27
    4  A    between atoms: C_7  and  C_21
    5  A    between atoms: C_7  and  C_24
    6  A    between atoms: N_8  and  C_21
    7  A    between atoms: C_9  and  O_10
    8  A    between atoms: C_11  and  C_32
    9  A    between atoms: C_20  and  C_39
   10  A    between atoms: C_24  and  C_36
   11  A    between atoms: N_26  and  C_32
   12  A    between atoms: N_26  and  C_36
                            x       y       z     vdW  Elec       q    Type
                         _______ _______ _______ _____ _____    ______ ____

>  <TORSDO>
F 12

$$$$
