=
 OpenBabel11062418223D

 66 70  0  0  1  0  0  0  0  0999 V2000
  184.6260  178.2900  140.7790 N   0  0  0  0  0  0  0  0  0  0  0  0
  186.2380  177.0210  141.6140 N   0  0  0  0  0  0  0  0  0  0  0  0
  185.7880  177.6670  140.5290 C   0  0  0  0  0  0  0  0  0  0  0  0
  184.3900  177.9790  142.0760 C   0  0  0  0  0  3  0  0  0  0  0  0
  185.3710  177.2010  142.5880 N   0  0  0  0  0  0  0  0  0  0  0  0
  187.2170  174.7310  141.7780 C   0  0  0  0  0  2  0  0  0  0  0  0
  187.4250  176.2240  141.7330 C   0  0  0  0  0  0  0  0  0  0  0  0
  188.7100  173.6820  141.6720 S   0  0  0  0  0  0  0  0  0  0  0  0
  189.6250  174.7030  142.8450 C   0  0  2  0  0  3  0  0  0  0  0  0
  190.9670  176.8440  142.9020 C   0  0  0  0  0  1  0  0  0  0  0  0
  188.6040  176.8260  142.0050 C   0  0  0  0  0  0  0  0  0  0  0  0
  189.8930  176.0440  142.1670 C   0  0  2  0  0  3  0  0  0  0  0  0
  188.6280  178.3070  142.2150 C   0  0  0  0  0  1  0  0  0  0  0  0
  190.8710  174.0290  143.2000 N   0  0  0  0  0  2  0  0  0  0  0  0
  190.6560  173.3160  144.4550 C   0  0  1  0  0  3  0  0  0  0  0  0
  191.6250  172.2280  144.5830 N   0  0  0  0  0  0  0  0  0  0  0  0
  190.7980  171.0290  142.6950 N   0  0  0  0  0  1  0  0  0  0  0  0
  191.7020  171.2010  143.7810 C   0  0  0  0  0  3  0  0  0  0  0  0
  190.8000  174.2640  145.6520 C   0  0  0  0  0  2  0  0  0  0  0  0
  192.2150  174.2500  146.2280 C   0  0  0  0  0  2  0  0  0  0  0  0
  195.1320  175.9430  144.2580 C   0  0  0  0  0  2  0  0  0  0  0  0
  193.0640  175.3430  145.5930 C   0  0  1  0  0  3  0  0  0  0  0  0
  193.5840  176.3350  146.6310 C   0  0  0  0  0  2  0  0  0  0  0  0
  194.1910  174.8080  144.6880 C   0  0  2  0  0  3  0  0  0  0  0  0
  194.6310  177.2050  144.6100 O   0  0  0  0  0  0  0  0  0  0  0  0
  194.6510  177.2600  146.0160 C   0  0  0  0  0  2  0  0  0  0  0  0
  195.4210  172.6100  144.7820 C   0  0  0  0  0  0  0  0  0  0  0  0
  195.0050  173.7450  145.3570 C   0  0  0  0  0  3  0  0  0  0  0  0
  197.6730  172.0290  145.2330 O   0  0  0  0  0  1  0  0  0  0  0  0
  196.3430  171.7410  145.5820 C   0  0  2  0  0  3  0  0  0  0  0  0
  195.9850  170.2470  145.4590 C   0  0  0  0  0  3  0  0  0  0  0  0
  194.6510  169.9220  146.1100 C   0  0  0  0  0  2  0  0  0  0  0  0
  195.9400  169.5630  146.8190 C   0  0  0  0  0  2  0  0  0  0  0  0
  195.0880  172.2200  143.4720 O   0  0  0  0  0  0  0  0  0  0  0  0
  195.7690  172.6770  142.3060 C   0  0  0  0  0  2  0  0  0  0  0  0
  195.2760  171.9150  141.0950 C   0  0  0  0  0  2  0  0  0  0  0  0
  194.3520  172.6820  140.4150 F   0  0  0  0  0  0  0  0  0  0  0  0
  186.4550  177.6540  139.1960 C   0  0  0  0  0  2  0  0  0  0  0  0
  186.1190  176.4760  138.5040 O   0  0  0  0  0  0  0  0  0  0  0  0
  184.4750  176.0250  135.7910 C   0  0  0  0  0  0  0  0  0  0  0  0
  187.0350  175.2620  136.6530 C   0  0  2  0  0  3  0  0  0  0  0  0
  184.0910  176.7120  134.8090 O   0  0  0  0  0  0  0  0  0  0  0  0
  187.4650  177.6370  136.8550 O   0  0  0  0  0  1  0  0  0  0  0  0
  185.8400  176.0450  136.1910 N   0  0  0  0  0  0  0  0  0  0  0  0
  186.7840  176.4740  137.2560 C   0  0  2  0  0  0  0  0  0  0  0  0
  183.4970  175.2090  136.5720 C   0  0  0  0  0  2  0  0  0  0  0  0
  182.0650  175.2890  136.0210 C   0  0  1  0  0  3  0  0  0  0  0  0
  181.4950  173.9380  135.7160 C   0  0  0  0  0  0  0  0  0  0  0  0
  181.4030  173.5830  134.5140 O   0  0  0  0  0  0  0  0  0  0  0  0
  180.7680  171.7450  136.7150 C   0  0  0  0  0  3  0  0  0  0  0  0
  181.0680  173.0440  136.8210 C   0  0  0  0  0  3  0  0  0  0  0  0
  180.9870  169.4910  135.7400 C   0  0  0  0  0  1  0  0  0  0  0  0
  180.7940  170.9650  135.4420 C   0  0  1  0  0  3  0  0  0  0  0  0
  179.5930  171.1490  134.7610 O   0  0  0  0  0  1  0  0  0  0  0  0
  181.1870  175.9920  137.0340 C   0  0  0  0  0  2  0  0  0  0  0  0
  179.8070  176.2260  136.4460 C   0  0  0  0  0  2  0  0  0  0  0  0
  178.8830  176.3680  137.4790 O   0  0  0  0  0  1  0  0  0  0  0  0
  188.4820  175.3800  135.5160 S   0  0  0  0  0  0  0  0  0  0  0  0
  189.1330  172.7890  135.4250 O   0  0  0  0  0  1  0  0  0  0  0  0
  189.4750  173.9600  136.0870 C   0  0  1  0  0  3  0  0  0  0  0  0
  190.9730  174.2170  136.0300 C   0  0  0  0  0  2  0  0  0  0  0  0
  191.6710  173.5970  137.2360 C   0  0  1  0  0  3  0  0  0  0  0  0
  190.7700  173.6990  138.4590 C   0  0  0  0  0  2  0  0  0  0  0  0
  191.5230  173.5820  139.6250 O   0  0  0  0  0  1  0  0  0  0  0  0
  191.9850  172.1710  136.9530 C   0  0  0  0  0  3  0  0  0  0  0  0
  191.3080  171.2780  137.4300 O   0  0  0  0  0  0  0  0  0  0  0  0
  1  4  1  0  0  0  0
  2  7  1  0  0  0  0
  2  5  1  0  0  0  0
  3  1  2  0  0  0  0
  3  2  1  0  0  0  0
  4  5  2  0  0  0  0
  7  6  1  0  0  0  0
  7 11  2  0  0  0  0
  8  6  1  0  0  0  0
  8  9  1  0  0  0  0
  9 14  1  6  0  0  0
 11 12  1  0  0  0  0
 11 13  1  0  0  0  0
 12  9  1  0  0  0  0
 12 10  1  1  0  0  0
 14 15  1  0  0  0  0
 15 16  1  0  0  0  0
 15 19  1  1  0  0  0
 17 18  1  0  0  0  0
 18 16  2  0  0  0  0
 19 20  1  0  0  0  0
 21 25  1  0  0  0  0
 21 24  1  0  0  0  0
 22 20  1  1  0  0  0
 22 23  1  0  0  0  0
 24 28  1  1  0  0  0
 24 22  1  0  0  0  0
 25 26  1  0  0  0  0
 26 23  1  0  0  0  0
 27 28  2  0  0  0  0
 27 30  1  0  0  0  0
 30 29  1  6  0  0  0
 31 30  1  0  0  0  0
 31 32  1  0  0  0  0
 31 33  1  0  0  0  0
 32 33  1  0  0  0  0
 34 27  1  0  0  0  0
 35 34  1  0  0  0  0
 36 35  1  0  0  0  0
 37 36  1  0  0  0  0
 38  3  1  0  0  0  0
 39 38  1  0  0  0  0
 40 44  1  0  0  0  0
 40 46  1  0  0  0  0
 41 58  1  6  0  0  0
 41 45  1  0  0  0  0
 42 40  2  0  0  0  0
 44 41  1  0  0  0  0
 44 45  1  0  0  0  0
 45 43  1  6  0  0  0
 45 39  1  0  0  0  0
 47 46  1  1  0  0  0
 47 55  1  0  0  0  0
 48 47  1  0  0  0  0
 48 51  1  0  0  0  0
 49 48  2  0  0  0  0
 50 51  2  0  0  0  0
 53 52  1  1  0  0  0
 53 50  1  0  0  0  0
 54 53  1  0  0  0  0
 56 55  1  0  0  0  0
 56 57  1  0  0  0  0
 58 60  1  0  0  0  0
 60 59  1  6  0  0  0
 61 60  1  0  0  0  0
 62 61  1  6  0  0  0
 62 63  1  0  0  0  0
 63 64  1  0  0  0  0
 65 62  1  0  0  0  0
 65 66  2  0  0  0  0
M  END
>  <MODEL>
1

>  <REMARK>
 VINA RESULT:      -4.8      0.000      0.000
  Name = 
  29 active torsions:
  status: ('A' for Active; 'I' for Inactive)
    1  A    between atoms: C_1  and  C_26
    2  A    between atoms: N_2  and  C_30
    3  A    between atoms: N_2  and  C_40
    4  A    between atoms: C_3  and  O_20
    5  A    between atoms: C_3  and  C_66
    6  A    between atoms: C_5  and  C_66
    7  A    between atoms: C_6  and  C_10
    8  A    between atoms: C_7  and  C_13
    9  A    between atoms: C_7  and  C_32
   10  A    between atoms: C_7  and  C_54
   11  A    between atoms: C_9  and  C_25
   12  A    between atoms: C_10  and  C_38
   13  A    between atoms: C_10  and  C_61
   14  A    between atoms: C_12  and  O_15
   15  A    between atoms: C_12  and  C_57
   16  A    between atoms: C_13  and  C_42
   17  A    between atoms: C_14  and  C_39
   18  A    between atoms: O_15  and  C_59
   19  A    between atoms: C_16  and  N_17
   20  A    between atoms: O_20  and  C_26
   21  A    between atoms: C_21  and  C_23
   22  A    between atoms: C_25  and  C_65
   23  A    between atoms: N_27  and  C_40
   24  A    between atoms: C_29  and  C_54
   25  A    between atoms: C_31  and  C_32
   26  A    between atoms: C_35  and  S_37
   27  A    between atoms: S_37  and  C_56
   28  A    between atoms: C_40  and  C_65
   29  A    between atoms: C_56  and  C_61
                            x       y       z     vdW  Elec       q    Type
                         _______ _______ _______ _____ _____    ______ ____

>  <TORSDO>
F 29

$$$$
=
 OpenBabel11062418223D

 66 70  0  0  1  0  0  0  0  0999 V2000
  189.1700  176.2580  142.2590 N   0  0  0  0  0  0  0  0  0  0  0  0
  189.1780  174.1420  141.6030 N   0  0  0  0  0  0  0  0  0  0  0  0
  189.9300  175.1900  141.9680 C   0  0  0  0  0  0  0  0  0  0  0  0
  187.9130  175.8020  142.0400 C   0  0  0  0  0  3  0  0  0  0  0  0
  187.9150  174.5110  141.6360 N   0  0  0  0  0  0  0  0  0  0  0  0
  190.2620  171.9940  142.2690 C   0  0  0  0  0  2  0  0  0  0  0  0
  189.6230  172.8400  141.1960 C   0  0  0  0  0  0  0  0  0  0  0  0
  190.6060  170.2480  141.8540 S   0  0  0  0  0  0  0  0  0  0  0  0
  191.2820  170.6680  140.2350 C   0  0  2  0  0  3  0  0  0  0  0  0
  190.4910  171.2110  137.8970 C   0  0  0  0  0  1  0  0  0  0  0  0
  189.6460  172.5270  139.8820 C   0  0  0  0  0  0  0  0  0  0  0  0
  190.1250  171.1790  139.3800 C   0  0  2  0  0  3  0  0  0  0  0  0
  189.2430  173.5670  138.8850 C   0  0  0  0  0  1  0  0  0  0  0  0
  191.8930  169.4810  139.6450 N   0  0  0  0  0  2  0  0  0  0  0  0
  193.3400  169.5930  139.8050 C   0  0  1  0  0  3  0  0  0  0  0  0
  193.8710  168.3690  140.4050 N   0  0  0  0  0  0  0  0  0  0  0  0
  195.1980  169.5220  142.0160 N   0  0  0  0  0  1  0  0  0  0  0  0
  194.7000  168.3330  141.4130 C   0  0  0  0  0  3  0  0  0  0  0  0
  194.0210  169.8280  138.4520 C   0  0  0  0  0  2  0  0  0  0  0  0
  195.1340  170.8720  138.5440 C   0  0  0  0  0  2  0  0  0  0  0  0
  196.5430  172.4720  135.2710 C   0  0  0  0  0  2  0  0  0  0  0  0
  195.8660  170.9940  137.2140 C   0  0  1  0  0  3  0  0  0  0  0  0
  195.2800  170.0630  136.1540 C   0  0  0  0  0  2  0  0  0  0  0  0
  195.9930  172.4430  136.7040 C   0  0  2  0  0  3  0  0  0  0  0  0
  196.9900  171.2100  134.8520 O   0  0  0  0  0  0  0  0  0  0  0  0
  195.8460  170.3960  134.7610 C   0  0  0  0  0  2  0  0  0  0  0  0
  194.4550  174.3300  137.3590 C   0  0  0  0  0  0  0  0  0  0  0  0
  194.6860  173.1730  136.7260 C   0  0  0  0  0  3  0  0  0  0  0  0
  192.2760  174.0660  136.4680 O   0  0  0  0  0  1  0  0  0  0  0  0
  193.1160  174.9670  137.1420 C   0  0  2  0  0  3  0  0  0  0  0  0
  193.2320  176.3370  136.4460 C   0  0  0  0  0  3  0  0  0  0  0  0
  192.0960  176.5820  135.4690 C   0  0  0  0  0  2  0  0  0  0  0  0
  193.4640  176.1930  134.9480 C   0  0  0  0  0  2  0  0  0  0  0  0
  195.4020  174.9940  138.1600 O   0  0  0  0  0  0  0  0  0  0  0  0
  195.2080  175.2940  139.5410 C   0  0  0  0  0  2  0  0  0  0  0  0
  195.2850  174.0220  140.3550 C   0  0  0  0  0  2  0  0  0  0  0  0
  196.3480  174.1000  141.2310 F   0  0  0  0  0  0  0  0  0  0  0  0
  191.4190  175.1970  141.9970 C   0  0  0  0  0  2  0  0  0  0  0  0
  191.8750  176.0480  143.0200 O   0  0  0  0  0  0  0  0  0  0  0  0
  190.2270  175.3530  145.6790 C   0  0  0  0  0  0  0  0  0  0  0  0
  192.9320  175.9020  145.1650 C   0  0  2  0  0  3  0  0  0  0  0  0
  189.6550  174.3530  146.1860 O   0  0  0  0  0  0  0  0  0  0  0  0
  192.8570  173.9490  143.7340 O   0  0  0  0  0  1  0  0  0  0  0  0
  191.5750  175.2610  145.2350 N   0  0  0  0  0  0  0  0  0  0  0  0
  192.4610  175.2630  144.0410 C   0  0  2  0  0  0  0  0  0  0  0  0
  189.4850  176.6380  145.5010 C   0  0  0  0  0  2  0  0  0  0  0  0
  189.3850  177.4650  146.7920 C   0  0  1  0  0  3  0  0  0  0  0  0
  187.9670  177.6710  147.2280 C   0  0  0  0  0  0  0  0  0  0  0  0
  187.7000  178.6630  147.9520 O   0  0  0  0  0  0  0  0  0  0  0  0
  185.8120  177.0320  146.0960 C   0  0  0  0  0  3  0  0  0  0  0  0
  186.9110  176.7240  146.7940 C   0  0  0  0  0  3  0  0  0  0  0  0
  185.9720  178.6510  144.2440 C   0  0  0  0  0  1  0  0  0  0  0  0
  185.4460  178.4070  145.6440 C   0  0  1  0  0  3  0  0  0  0  0  0
  184.0600  178.5450  145.6520 O   0  0  0  0  0  1  0  0  0  0  0  0
  190.1540  176.7610  147.8880 C   0  0  0  0  0  2  0  0  0  0  0  0
  191.3580  177.5940  148.2910 C   0  0  0  0  0  2  0  0  0  0  0  0
  191.0600  178.3040  149.4520 O   0  0  0  0  0  1  0  0  0  0  0  0
  194.2600  174.9130  145.9760 S   0  0  0  0  0  0  0  0  0  0  0  0
  195.7980  176.0140  144.0880 O   0  0  0  0  0  1  0  0  0  0  0  0
  195.4570  174.7720  144.6070 C   0  0  1  0  0  3  0  0  0  0  0  0
  196.6910  173.9600  144.9720 C   0  0  0  0  0  2  0  0  0  0  0  0
  196.5540  172.5240  144.4780 C   0  0  1  0  0  3  0  0  0  0  0  0
  197.9330  171.8960  144.3390 C   0  0  0  0  0  2  0  0  0  0  0  0
  197.8770  170.7870  143.4990 O   0  0  0  0  0  1  0  0  0  0  0  0
  195.7340  171.7410  145.4410 C   0  0  0  0  0  3  0  0  0  0  0  0
  195.1130  170.7600  145.0740 O   0  0  0  0  0  0  0  0  0  0  0  0
  2  5  1  0  0  0  0
  2  3  1  0  0  0  0
  3 38  1  0  0  0  0
  3  1  2  0  0  0  0
  4  1  1  0  0  0  0
  5  4  2  0  0  0  0
  7  2  1  0  0  0  0
  7  6  1  0  0  0  0
  8  6  1  0  0  0  0
  9 14  1  6  0  0  0
  9  8  1  0  0  0  0
 11  7  2  0  0  0  0
 12 10  1  6  0  0  0
 12 11  1  0  0  0  0
 12  9  1  0  0  0  0
 13 11  1  0  0  0  0
 14 15  1  0  0  0  0
 15 19  1  6  0  0  0
 15 16  1  0  0  0  0
 16 18  2  0  0  0  0
 18 17  1  0  0  0  0
 19 20  1  0  0  0  0
 21 24  1  0  0  0  0
 22 20  1  1  0  0  0
 23 22  1  0  0  0  0
 24 28  1  6  0  0  0
 24 22  1  0  0  0  0
 25 21  1  0  0  0  0
 26 25  1  0  0  0  0
 26 23  1  0  0  0  0
 27 34  1  0  0  0  0
 28 27  2  0  0  0  0
 30 29  1  6  0  0  0
 30 27  1  0  0  0  0
 31 30  1  0  0  0  0
 32 31  1  0  0  0  0
 33 32  1  0  0  0  0
 33 31  1  0  0  0  0
 34 35  1  0  0  0  0
 35 36  1  0  0  0  0
 36 37  1  0  0  0  0
 38 39  1  0  0  0  0
 39 45  1  0  0  0  0
 40 42  2  0  0  0  0
 41 44  1  0  0  0  0
 41 58  1  1  0  0  0
 44 40  1  0  0  0  0
 45 43  1  6  0  0  0
 45 41  1  0  0  0  0
 45 44  1  0  0  0  0
 46 40  1  0  0  0  0
 47 46  1  6  0  0  0
 47 48  1  0  0  0  0
 47 55  1  0  0  0  0
 48 49  2  0  0  0  0
 50 51  2  0  0  0  0
 51 48  1  0  0  0  0
 53 52  1  6  0  0  0
 53 54  1  0  0  0  0
 53 50  1  0  0  0  0
 55 56  1  0  0  0  0
 56 57  1  0  0  0  0
 60 59  1  1  0  0  0
 60 61  1  0  0  0  0
 60 58  1  0  0  0  0
 62 63  1  1  0  0  0
 62 61  1  0  0  0  0
 62 65  1  0  0  0  0
 64 63  1  0  0  0  0
 66 65  2  0  0  0  0
M  END
>  <MODEL>
2

>  <REMARK>
 VINA RESULT:      -4.8      5.046      9.736
  Name = 
  29 active torsions:
  status: ('A' for Active; 'I' for Inactive)
    1  A    between atoms: C_1  and  C_26
    2  A    between atoms: N_2  and  C_30
    3  A    between atoms: N_2  and  C_40
    4  A    between atoms: C_3  and  O_20
    5  A    between atoms: C_3  and  C_66
    6  A    between atoms: C_5  and  C_66
    7  A    between atoms: C_6  and  C_10
    8  A    between atoms: C_7  and  C_13
    9  A    between atoms: C_7  and  C_32
   10  A    between atoms: C_7  and  C_54
   11  A    between atoms: C_9  and  C_25
   12  A    between atoms: C_10  and  C_38
   13  A    between atoms: C_10  and  C_61
   14  A    between atoms: C_12  and  O_15
   15  A    between atoms: C_12  and  C_57
   16  A    between atoms: C_13  and  C_42
   17  A    between atoms: C_14  and  C_39
   18  A    between atoms: O_15  and  C_59
   19  A    between atoms: C_16  and  N_17
   20  A    between atoms: O_20  and  C_26
   21  A    between atoms: C_21  and  C_23
   22  A    between atoms: C_25  and  C_65
   23  A    between atoms: N_27  and  C_40
   24  A    between atoms: C_29  and  C_54
   25  A    between atoms: C_31  and  C_32
   26  A    between atoms: C_35  and  S_37
   27  A    between atoms: S_37  and  C_56
   28  A    between atoms: C_40  and  C_65
   29  A    between atoms: C_56  and  C_61
                            x       y       z     vdW  Elec       q    Type
                         _______ _______ _______ _____ _____    ______ ____

>  <TORSDO>
F 29

$$$$
=
 OpenBabel11062418223D

 66 70  0  0  1  0  0  0  0  0999 V2000
  188.4040  177.8150  142.0910 N   0  0  0  0  0  0  0  0  0  0  0  0
  188.3230  175.6210  141.7940 N   0  0  0  0  0  0  0  0  0  0  0  0
  189.1180  176.6830  141.9820 C   0  0  0  0  0  0  0  0  0  0  0  0
  187.1280  177.3810  141.9490 C   0  0  0  0  0  3  0  0  0  0  0  0
  187.0750  176.0430  141.7630 N   0  0  0  0  0  0  0  0  0  0  0  0
  189.3880  173.5920  142.7830 C   0  0  0  0  0  2  0  0  0  0  0  0
  188.7120  174.2530  141.6080 C   0  0  0  0  0  0  0  0  0  0  0  0
  189.6640  171.7890  142.6750 S   0  0  0  0  0  0  0  0  0  0  0  0
  190.2620  171.8880  140.9750 C   0  0  2  0  0  3  0  0  0  0  0  0
  189.3580  172.0300  138.6190 C   0  0  0  0  0  1  0  0  0  0  0  0
  188.6560  173.7090  140.3720 C   0  0  0  0  0  0  0  0  0  0  0  0
  189.0730  172.2770  140.0990 C   0  0  2  0  0  3  0  0  0  0  0  0
  188.2260  174.5660  139.2240 C   0  0  0  0  0  1  0  0  0  0  0  0
  190.8100  170.5940  140.5810 N   0  0  0  0  0  2  0  0  0  0  0  0
  192.2620  170.6590  140.7180 C   0  0  1  0  0  3  0  0  0  0  0  0
  192.7700  169.3960  141.2510 N   0  0  0  0  0  0  0  0  0  0  0  0
  193.8500  170.4090  143.1190 N   0  0  0  0  0  1  0  0  0  0  0  0
  193.4750  169.2770  142.3430 C   0  0  0  0  0  3  0  0  0  0  0  0
  192.9260  170.9400  139.3650 C   0  0  0  0  0  2  0  0  0  0  0  0
  194.3540  171.4610  139.5240 C   0  0  0  0  0  2  0  0  0  0  0  0
  196.9570  170.6080  136.7380 C   0  0  0  0  0  2  0  0  0  0  0  0
  195.3190  170.6480  138.6710 C   0  0  1  0  0  3  0  0  0  0  0  0
  194.6130  169.5020  137.9480 C   0  0  0  0  0  2  0  0  0  0  0  0
  196.1710  171.5010  137.7100 C   0  0  2  0  0  3  0  0  0  0  0  0
  196.8780  169.2520  137.0880 O   0  0  0  0  0  0  0  0  0  0  0  0
  195.5380  168.8710  136.8910 C   0  0  0  0  0  2  0  0  0  0  0  0
  195.7670  173.6360  136.4330 C   0  0  0  0  0  0  0  0  0  0  0  0
  195.3440  172.4590  136.9120 C   0  0  0  0  0  3  0  0  0  0  0  0
  195.4490  175.5570  135.0850 O   0  0  0  0  0  1  0  0  0  0  0  0
  194.8250  174.3840  135.5390 C   0  0  2  0  0  3  0  0  0  0  0  0
  193.4620  174.6330  136.2130 C   0  0  0  0  0  3  0  0  0  0  0  0
  193.0990  176.1070  136.2440 C   0  0  0  0  0  2  0  0  0  0  0  0
  193.6050  175.4310  137.5010 C   0  0  0  0  0  2  0  0  0  0  0  0
  197.0440  174.1740  136.6780 O   0  0  0  0  0  0  0  0  0  0  0  0
  197.2710  175.4580  137.2550 C   0  0  0  0  0  2  0  0  0  0  0  0
  197.4520  175.3200  138.7500 C   0  0  0  0  0  2  0  0  0  0  0  0
  197.5900  173.9860  139.0750 F   0  0  0  0  0  0  0  0  0  0  0  0
  190.6070  176.6340  142.0110 C   0  0  0  0  0  2  0  0  0  0  0  0
  191.0890  177.3850  143.0980 O   0  0  0  0  0  0  0  0  0  0  0  0
  189.3570  176.1950  145.5160 C   0  0  0  0  0  0  0  0  0  0  0  0
  192.0320  177.0080  145.2680 C   0  0  2  0  0  3  0  0  0  0  0  0
  188.8410  175.0930  145.8390 O   0  0  0  0  0  0  0  0  0  0  0  0
  192.1980  175.2830  143.5770 O   0  0  0  0  0  1  0  0  0  0  0  0
  190.7300  176.2670  145.1560 N   0  0  0  0  0  0  0  0  0  0  0  0
  191.6790  176.5060  144.0370 C   0  0  2  0  0  0  0  0  0  0  0  0
  188.5230  177.4340  145.4710 C   0  0  0  0  0  2  0  0  0  0  0  0
  187.8600  177.7700  146.8150 C   0  0  1  0  0  3  0  0  0  0  0  0
  186.5380  177.0890  146.9840 C   0  0  0  0  0  0  0  0  0  0  0  0
  186.1080  176.8940  148.1490 O   0  0  0  0  0  0  0  0  0  0  0  0
  185.0160  177.4690  145.0160 C   0  0  0  0  0  3  0  0  0  0  0  0
  185.7580  176.6720  145.7930 C   0  0  0  0  0  3  0  0  0  0  0  0
  184.8220  179.6580  143.8980 C   0  0  0  0  0  1  0  0  0  0  0  0
  184.8290  178.9350  145.2290 C   0  0  1  0  0  3  0  0  0  0  0  0
  183.6210  179.1570  145.8870 O   0  0  0  0  0  1  0  0  0  0  0  0
  188.7890  177.3610  147.9380 C   0  0  0  0  0  2  0  0  0  0  0  0
  189.3970  178.5950  148.5790 C   0  0  0  0  0  2  0  0  0  0  0  0
  190.7580  178.3800  148.7930 O   0  0  0  0  0  1  0  0  0  0  0  0
  193.3890  176.0110  146.0210 S   0  0  0  0  0  0  0  0  0  0  0  0
  195.3730  177.7540  145.6130 O   0  0  0  0  0  1  0  0  0  0  0  0
  194.8190  176.6090  145.0580 C   0  0  1  0  0  3  0  0  0  0  0  0
  195.8700  175.5360  144.8210 C   0  0  0  0  0  2  0  0  0  0  0  0
  195.8700  175.0970  143.3600 C   0  0  1  0  0  3  0  0  0  0  0  0
  197.0280  175.7560  142.6260 C   0  0  0  0  0  2  0  0  0  0  0  0
  197.9410  174.7940  142.1990 O   0  0  0  0  0  1  0  0  0  0  0  0
  195.9950  173.6170  143.2840 C   0  0  0  0  0  3  0  0  0  0  0  0
  196.2560  172.9630  144.2780 O   0  0  0  0  0  0  0  0  0  0  0  0
  2  3  1  0  0  0  0
  3 38  1  0  0  0  0
  3  1  2  0  0  0  0
  4  1  1  0  0  0  0
  5  2  1  0  0  0  0
  5  4  2  0  0  0  0
  7  2  1  0  0  0  0
  7  6  1  0  0  0  0
  8  6  1  0  0  0  0
  9 14  1  6  0  0  0
  9  8  1  0  0  0  0
 11  7  2  0  0  0  0
 12 10  1  6  0  0  0
 12 11  1  0  0  0  0
 12  9  1  0  0  0  0
 13 11  1  0  0  0  0
 14 15  1  0  0  0  0
 15 19  1  6  0  0  0
 15 16  1  0  0  0  0
 16 18  2  0  0  0  0
 18 17  1  0  0  0  0
 19 20  1  0  0  0  0
 21 25  1  0  0  0  0
 21 24  1  0  0  0  0
 22 20  1  6  0  0  0
 23 22  1  0  0  0  0
 24 28  1  6  0  0  0
 24 22  1  0  0  0  0
 26 25  1  0  0  0  0
 26 23  1  0  0  0  0
 27 34  1  0  0  0  0
 27 28  2  0  0  0  0
 30 29  1  1  0  0  0
 30 31  1  0  0  0  0
 30 27  1  0  0  0  0
 31 32  1  0  0  0  0
 31 33  1  0  0  0  0
 32 33  1  0  0  0  0
 34 35  1  0  0  0  0
 35 36  1  0  0  0  0
 36 37  1  0  0  0  0
 38 39  1  0  0  0  0
 39 45  1  0  0  0  0
 40 42  2  0  0  0  0
 41 58  1  1  0  0  0
 44 41  1  0  0  0  0
 44 40  1  0  0  0  0
 45 43  1  6  0  0  0
 45 44  1  0  0  0  0
 45 41  1  0  0  0  0
 46 40  1  0  0  0  0
 47 46  1  6  0  0  0
 47 48  1  0  0  0  0
 47 55  1  0  0  0  0
 48 49  2  0  0  0  0
 50 53  1  0  0  0  0
 50 51  2  0  0  0  0
 51 48  1  0  0  0  0
 53 52  1  6  0  0  0
 53 54  1  0  0  0  0
 55 56  1  0  0  0  0
 56 57  1  0  0  0  0
 60 59  1  1  0  0  0
 60 58  1  0  0  0  0
 61 60  1  0  0  0  0
 62 63  1  6  0  0  0
 62 61  1  0  0  0  0
 64 63  1  0  0  0  0
 65 62  1  0  0  0  0
 65 66  2  0  0  0  0
M  END
>  <MODEL>
3

>  <REMARK>
 VINA RESULT:      -4.3      5.164      9.153
  Name = 
  29 active torsions:
  status: ('A' for Active; 'I' for Inactive)
    1  A    between atoms: C_1  and  C_26
    2  A    between atoms: N_2  and  C_30
    3  A    between atoms: N_2  and  C_40
    4  A    between atoms: C_3  and  O_20
    5  A    between atoms: C_3  and  C_66
    6  A    between atoms: C_5  and  C_66
    7  A    between atoms: C_6  and  C_10
    8  A    between atoms: C_7  and  C_13
    9  A    between atoms: C_7  and  C_32
   10  A    between atoms: C_7  and  C_54
   11  A    between atoms: C_9  and  C_25
   12  A    between atoms: C_10  and  C_38
   13  A    between atoms: C_10  and  C_61
   14  A    between atoms: C_12  and  O_15
   15  A    between atoms: C_12  and  C_57
   16  A    between atoms: C_13  and  C_42
   17  A    between atoms: C_14  and  C_39
   18  A    between atoms: O_15  and  C_59
   19  A    between atoms: C_16  and  N_17
   20  A    between atoms: O_20  and  C_26
   21  A    between atoms: C_21  and  C_23
   22  A    between atoms: C_25  and  C_65
   23  A    between atoms: N_27  and  C_40
   24  A    between atoms: C_29  and  C_54
   25  A    between atoms: C_31  and  C_32
   26  A    between atoms: C_35  and  S_37
   27  A    between atoms: S_37  and  C_56
   28  A    between atoms: C_40  and  C_65
   29  A    between atoms: C_56  and  C_61
                            x       y       z     vdW  Elec       q    Type
                         _______ _______ _______ _____ _____    ______ ____

>  <TORSDO>
F 29

$$$$
=
 OpenBabel11062418223D

 66 70  0  0  1  0  0  0  0  0999 V2000
  197.4210  174.1320  137.8960 N   0  0  0  0  0  0  0  0  0  0  0  0
  196.4230  174.3750  139.8590 N   0  0  0  0  0  0  0  0  0  0  0  0
  197.0750  173.5320  139.0460 C   0  0  0  0  0  0  0  0  0  0  0  0
  196.9340  175.3870  138.0520 C   0  0  0  0  0  3  0  0  0  0  0  0
  196.3210  175.5380  139.2480 N   0  0  0  0  0  0  0  0  0  0  0  0
  194.4150  173.7190  141.1880 C   0  0  0  0  0  2  0  0  0  0  0  0
  195.8750  174.0990  141.1560 C   0  0  0  0  0  0  0  0  0  0  0  0
  193.7520  173.1150  142.7800 S   0  0  0  0  0  0  0  0  0  0  0  0
  194.5730  174.4160  143.7240 C   0  0  2  0  0  3  0  0  0  0  0  0
  196.8380  174.9440  144.7120 C   0  0  0  0  0  1  0  0  0  0  0  0
  196.5990  174.3880  142.2580 C   0  0  0  0  0  0  0  0  0  0  0  0
  196.0730  174.1440  143.6590 C   0  0  2  0  0  3  0  0  0  0  0  0
  197.9410  175.0290  142.0930 C   0  0  0  0  0  1  0  0  0  0  0  0
  194.0880  174.3910  145.1010 N   0  0  0  0  0  2  0  0  0  0  0  0
  192.8140  175.1030  145.1420 C   0  0  1  0  0  3  0  0  0  0  0  0
  192.8950  176.2140  146.0890 N   0  0  0  0  0  0  0  0  0  0  0  0
  191.0300  175.4840  147.3830 N   0  0  0  0  0  1  0  0  0  0  0  0
  192.0990  176.3820  147.1110 C   0  0  0  0  0  3  0  0  0  0  0  0
  192.4470  175.6450  143.7560 C   0  0  0  0  0  2  0  0  0  0  0  0
  191.0120  176.1690  143.7060 C   0  0  0  0  0  2  0  0  0  0  0  0
  187.7140  174.4810  142.4690 C   0  0  0  0  0  2  0  0  0  0  0  0
  190.0810  175.1290  143.0990 C   0  0  1  0  0  3  0  0  0  0  0  0
  190.1130  173.8140  143.8760 C   0  0  0  0  0  2  0  0  0  0  0  0
  188.6420  175.6350  142.8760 C   0  0  2  0  0  3  0  0  0  0  0  0
  188.4260  173.3040  142.1940 O   0  0  0  0  0  0  0  0  0  0  0  0
  188.9770  172.8810  143.4180 C   0  0  0  0  0  2  0  0  0  0  0  0
  187.3380  177.4120  144.0990 C   0  0  0  0  0  0  0  0  0  0  0  0
  188.0740  176.2940  144.0950 C   0  0  0  0  0  3  0  0  0  0  0  0
  187.4650  177.2280  146.4570 O   0  0  0  0  0  1  0  0  0  0  0  0
  186.7480  177.8310  145.4110 C   0  0  2  0  0  3  0  0  0  0  0  0
  185.2300  177.5680  145.4740 C   0  0  0  0  0  3  0  0  0  0  0  0
  184.4570  178.7850  145.9510 C   0  0  0  0  0  2  0  0  0  0  0  0
  184.7050  177.6330  146.9010 C   0  0  0  0  0  2  0  0  0  0  0  0
  187.0520  178.1730  142.9510 O   0  0  0  0  0  0  0  0  0  0  0  0
  186.2270  177.7210  141.8800 C   0  0  0  0  0  2  0  0  0  0  0  0
  187.0250  177.7000  140.5950 C   0  0  0  0  0  2  0  0  0  0  0  0
  186.4200  176.8480  139.6930 F   0  0  0  0  0  0  0  0  0  0  0  0
  197.3360  172.0970  139.3460 C   0  0  0  0  0  2  0  0  0  0  0  0
  196.8650  171.2930  138.2920 O   0  0  0  0  0  0  0  0  0  0  0  0
  195.1150  169.1650  136.6570 C   0  0  0  0  0  0  0  0  0  0  0  0
  195.5870  169.5910  139.3910 C   0  0  2  0  0  3  0  0  0  0  0  0
  195.3150  168.1660  135.9160 O   0  0  0  0  0  0  0  0  0  0  0  0
  197.9140  169.1810  138.8560 O   0  0  0  0  0  1  0  0  0  0  0  0
  195.7310  169.2440  137.9360 N   0  0  0  0  0  0  0  0  0  0  0  0
  196.7480  169.9600  138.7500 C   0  0  2  0  0  0  0  0  0  0  0  0
  194.2610  170.2960  136.1850 C   0  0  0  0  0  2  0  0  0  0  0  0
  192.8600  170.3030  136.8150 C   0  0  1  0  0  3  0  0  0  0  0  0
  192.6240  171.5110  137.6670 C   0  0  0  0  0  0  0  0  0  0  0  0
  192.8270  171.4240  138.9040 O   0  0  0  0  0  0  0  0  0  0  0  0
  191.0450  173.4420  137.3260 C   0  0  0  0  0  3  0  0  0  0  0  0
  192.1730  172.7820  137.0460 C   0  0  0  0  0  3  0  0  0  0  0  0
  189.7770  174.0830  139.3420 C   0  0  0  0  0  1  0  0  0  0  0  0
  190.0190  172.9950  138.3150 C   0  0  1  0  0  3  0  0  0  0  0  0
  188.8280  172.7090  137.6510 O   0  0  0  0  0  1  0  0  0  0  0  0
  191.8240  170.2490  135.7130 C   0  0  0  0  0  2  0  0  0  0  0  0
  190.4480  170.0180  136.3090 C   0  0  0  0  0  2  0  0  0  0  0  0
  190.4990  168.9300  137.1790 O   0  0  0  0  0  1  0  0  0  0  0  0
  195.8860  168.1670  140.5240 S   0  0  0  0  0  0  0  0  0  0  0  0
  195.9090  170.4090  141.9800 O   0  0  0  0  0  1  0  0  0  0  0  0
  195.9970  169.0310  142.1270 C   0  0  1  0  0  3  0  0  0  0  0  0
  195.0020  168.5140  143.1550 C   0  0  0  0  0  2  0  0  0  0  0  0
  195.6840  168.2980  144.5020 C   0  0  1  0  0  3  0  0  0  0  0  0
  197.1810  168.5310  144.3620 C   0  0  0  0  0  2  0  0  0  0  0  0
  197.7780  168.6080  145.6180 O   0  0  0  0  0  1  0  0  0  0  0  0
  195.1150  169.2360  145.5060 C   0  0  0  0  0  3  0  0  0  0  0  0
  195.1090  170.4360  145.3030 O   0  0  0  0  0  0  0  0  0  0  0  0
  1  4  1  0  0  0  0
  1  3  2  0  0  0  0
  2  7  1  0  0  0  0
  3 38  1  0  0  0  0
  3  2  1  0  0  0  0
  4  5  2  0  0  0  0
  5  2  1  0  0  0  0
  6  8  1  0  0  0  0
  7  6  1  0  0  0  0
  7 11  2  0  0  0  0
  8  9  1  0  0  0  0
  9 14  1  1  0  0  0
 11 12  1  0  0  0  0
 12  9  1  0  0  0  0
 12 10  1  1  0  0  0
 13 11  1  0  0  0  0
 14 15  1  0  0  0  0
 15 19  1  6  0  0  0
 15 16  1  0  0  0  0
 16 18  2  0  0  0  0
 18 17  1  0  0  0  0
 20 19  1  0  0  0  0
 21 24  1  0  0  0  0
 22 20  1  1  0  0  0
 22 23  1  0  0  0  0
 24 22  1  0  0  0  0
 24 28  1  1  0  0  0
 25 21  1  0  0  0  0
 25 26  1  0  0  0  0
 26 23  1  0  0  0  0
 27 30  1  0  0  0  0
 28 27  2  0  0  0  0
 30 31  1  0  0  0  0
 30 29  1  1  0  0  0
 31 32  1  0  0  0  0
 31 33  1  0  0  0  0
 32 33  1  0  0  0  0
 34 27  1  0  0  0  0
 35 34  1  0  0  0  0
 36 35  1  0  0  0  0
 37 36  1  0  0  0  0
 39 45  1  0  0  0  0
 39 38  1  0  0  0  0
 40 44  1  0  0  0  0
 41 58  1  1  0  0  0
 42 40  2  0  0  0  0
 44 45  1  0  0  0  0
 44 41  1  0  0  0  0
 45 43  1  1  0  0  0
 45 41  1  0  0  0  0
 46 40  1  0  0  0  0
 46 47  1  0  0  0  0
 47 55  1  6  0  0  0
 47 48  1  0  0  0  0
 48 49  2  0  0  0  0
 50 53  1  0  0  0  0
 51 50  2  0  0  0  0
 51 48  1  0  0  0  0
 53 52  1  1  0  0  0
 54 53  1  0  0  0  0
 55 56  1  0  0  0  0
 56 57  1  0  0  0  0
 58 60  1  0  0  0  0
 60 59  1  6  0  0  0
 60 61  1  0  0  0  0
 62 61  1  6  0  0  0
 62 65  1  0  0  0  0
 63 62  1  0  0  0  0
 63 64  1  0  0  0  0
 66 65  2  0  0  0  0
M  END
>  <MODEL>
4

>  <REMARK>
 VINA RESULT:      -4.3      5.198     10.061
  Name = 
  29 active torsions:
  status: ('A' for Active; 'I' for Inactive)
    1  A    between atoms: C_1  and  C_26
    2  A    between atoms: N_2  and  C_30
    3  A    between atoms: N_2  and  C_40
    4  A    between atoms: C_3  and  O_20
    5  A    between atoms: C_3  and  C_66
    6  A    between atoms: C_5  and  C_66
    7  A    between atoms: C_6  and  C_10
    8  A    between atoms: C_7  and  C_13
    9  A    between atoms: C_7  and  C_32
   10  A    between atoms: C_7  and  C_54
   11  A    between atoms: C_9  and  C_25
   12  A    between atoms: C_10  and  C_38
   13  A    between atoms: C_10  and  C_61
   14  A    between atoms: C_12  and  O_15
   15  A    between atoms: C_12  and  C_57
   16  A    between atoms: C_13  and  C_42
   17  A    between atoms: C_14  and  C_39
   18  A    between atoms: O_15  and  C_59
   19  A    between atoms: C_16  and  N_17
   20  A    between atoms: O_20  and  C_26
   21  A    between atoms: C_21  and  C_23
   22  A    between atoms: C_25  and  C_65
   23  A    between atoms: N_27  and  C_40
   24  A    between atoms: C_29  and  C_54
   25  A    between atoms: C_31  and  C_32
   26  A    between atoms: C_35  and  S_37
   27  A    between atoms: S_37  and  C_56
   28  A    between atoms: C_40  and  C_65
   29  A    between atoms: C_56  and  C_61
                            x       y       z     vdW  Elec       q    Type
                         _______ _______ _______ _____ _____    ______ ____

>  <TORSDO>
F 29

$$$$
=
 OpenBabel11062418223D

 66 70  0  0  1  0  0  0  0  0999 V2000
  196.7460  174.2430  137.0860 N   0  0  0  0  0  0  0  0  0  0  0  0
  195.8990  174.8110  139.0530 N   0  0  0  0  0  0  0  0  0  0  0  0
  196.4220  173.8200  138.3180 C   0  0  0  0  0  0  0  0  0  0  0  0
  196.3800  175.5480  137.1100 C   0  0  0  0  0  3  0  0  0  0  0  0
  195.8590  175.8970  138.3080 N   0  0  0  0  0  0  0  0  0  0  0  0
  194.0120  174.2060  140.5700 C   0  0  0  0  0  2  0  0  0  0  0  0
  195.4110  174.7440  140.4000 C   0  0  0  0  0  0  0  0  0  0  0  0
  193.4560  173.8670  142.2780 S   0  0  0  0  0  0  0  0  0  0  0  0
  194.1220  175.4240  142.9040 C   0  0  2  0  0  3  0  0  0  0  0  0
  196.3180  176.4120  143.6690 C   0  0  0  0  0  1  0  0  0  0  0  0
  196.1110  175.3390  141.3900 C   0  0  0  0  0  0  0  0  0  0  0  0
  195.6430  175.3260  142.8320 C   0  0  2  0  0  3  0  0  0  0  0  0
  197.3590  176.0890  141.0430 C   0  0  0  0  0  1  0  0  0  0  0  0
  193.6670  175.6250  144.2760 N   0  0  0  0  0  2  0  0  0  0  0  0
  192.2720  176.0560  144.2300 C   0  0  1  0  0  3  0  0  0  0  0  0
  191.9350  176.7840  145.4520 N   0  0  0  0  0  0  0  0  0  0  0  0
  190.9450  174.8950  146.5190 N   0  0  0  0  0  1  0  0  0  0  0  0
  191.3480  176.2600  146.4940 C   0  0  0  0  0  3  0  0  0  0  0  0
  192.0220  176.9600  143.0170 C   0  0  0  0  0  2  0  0  0  0  0  0
  190.6330  177.5970  143.0540 C   0  0  0  0  0  2  0  0  0  0  0  0
  187.2500  176.2510  141.6370 C   0  0  0  0  0  2  0  0  0  0  0  0
  189.6600  176.8120  142.1840 C   0  0  1  0  0  3  0  0  0  0  0  0
  189.8600  175.3040  142.3230 C   0  0  0  0  0  2  0  0  0  0  0  0
  188.1860  177.2200  142.3750 C   0  0  2  0  0  3  0  0  0  0  0  0
  187.9550  175.3680  140.8060 O   0  0  0  0  0  0  0  0  0  0  0  0
  188.7030  174.5360  141.6590 C   0  0  0  0  0  2  0  0  0  0  0  0
  186.9510  178.1490  144.3670 C   0  0  0  0  0  0  0  0  0  0  0  0
  187.7870  177.2590  143.8180 C   0  0  0  0  0  3  0  0  0  0  0  0
  187.5520  177.1410  146.4250 O   0  0  0  0  0  1  0  0  0  0  0  0
  186.5730  177.9300  145.8000 C   0  0  2  0  0  3  0  0  0  0  0  0
  185.1450  177.3670  145.9430 C   0  0  0  0  0  3  0  0  0  0  0  0
  184.1210  178.4580  146.2030 C   0  0  0  0  0  2  0  0  0  0  0  0
  184.5910  177.5820  147.3450 C   0  0  0  0  0  2  0  0  0  0  0  0
  186.3800  179.2290  143.6710 O   0  0  0  0  0  0  0  0  0  0  0  0
  184.9990  179.3170  143.3280 C   0  0  0  0  0  2  0  0  0  0  0  0
  184.6150  178.1420  142.4560 C   0  0  0  0  0  2  0  0  0  0  0  0
  183.2410  178.0850  142.3410 F   0  0  0  0  0  0  0  0  0  0  0  0
  196.5770  172.4120  138.7800 C   0  0  0  0  0  2  0  0  0  0  0  0
  195.6390  171.5890  138.1320 O   0  0  0  0  0  0  0  0  0  0  0  0
  193.8100  169.2330  136.9610 C   0  0  0  0  0  0  0  0  0  0  0  0
  194.8880  169.7680  139.4960 C   0  0  2  0  0  3  0  0  0  0  0  0
  193.9400  168.2510  136.1830 O   0  0  0  0  0  0  0  0  0  0  0  0
  197.0430  169.6300  138.3970 O   0  0  0  0  0  1  0  0  0  0  0  0
  194.7090  169.4110  138.0480 N   0  0  0  0  0  0  0  0  0  0  0  0
  195.8010  170.2610  138.5910 C   0  0  2  0  0  0  0  0  0  0  0  0
  192.7350  170.2440  136.7270 C   0  0  0  0  0  2  0  0  0  0  0  0
  191.3360  169.6230  136.5930 C   0  0  1  0  0  3  0  0  0  0  0  0
  190.7890  169.1630  137.9090 C   0  0  0  0  0  0  0  0  0  0  0  0
  191.3350  168.1840  138.4780 O   0  0  0  0  0  0  0  0  0  0  0  0
  189.6720  170.6590  139.5970 C   0  0  0  0  0  3  0  0  0  0  0  0
  189.6350  169.8660  138.5210 C   0  0  0  0  0  3  0  0  0  0  0  0
  191.8850  171.7460  139.5480 C   0  0  0  0  0  1  0  0  0  0  0  0
  190.9010  170.9610  140.3910 C   0  0  1  0  0  3  0  0  0  0  0  0
  190.5540  171.7040  141.5160 O   0  0  0  0  0  1  0  0  0  0  0  0
  190.4000  170.6440  135.9840 C   0  0  0  0  0  2  0  0  0  0  0  0
  191.1090  171.9800  135.8530 C   0  0  0  0  0  2  0  0  0  0  0  0
  191.0840  172.3870  134.5200 O   0  0  0  0  0  1  0  0  0  0  0  0
  195.6290  168.4140  140.5050 S   0  0  0  0  0  0  0  0  0  0  0  0
  196.8720  170.2730  141.9680 O   0  0  0  0  0  1  0  0  0  0  0  0
  195.9060  169.2840  142.0850 C   0  0  1  0  0  3  0  0  0  0  0  0
  194.6250  169.8240  142.7020 C   0  0  0  0  0  2  0  0  0  0  0  0
  194.3030  169.0890  144.0000 C   0  0  1  0  0  3  0  0  0  0  0  0
  195.3960  169.3570  145.0250 C   0  0  0  0  0  2  0  0  0  0  0  0
  195.1950  170.5930  145.6350 O   0  0  0  0  0  1  0  0  0  0  0  0
  192.9900  169.5520  144.5230 C   0  0  0  0  0  3  0  0  0  0  0  0
  192.4060  170.4850  144.0020 O   0  0  0  0  0  0  0  0  0  0  0  0
  1  4  1  0  0  0  0
  1  3  2  0  0  0  0
  2  7  1  0  0  0  0
  3 38  1  0  0  0  0
  3  2  1  0  0  0  0
  4  5  2  0  0  0  0
  5  2  1  0  0  0  0
  6  8  1  0  0  0  0
  7  6  1  0  0  0  0
  7 11  2  0  0  0  0
  8  9  1  0  0  0  0
  9 14  1  1  0  0  0
 11 12  1  0  0  0  0
 12  9  1  0  0  0  0
 12 10  1  1  0  0  0
 13 11  1  0  0  0  0
 15 19  1  6  0  0  0
 15 14  1  0  0  0  0
 15 16  1  0  0  0  0
 16 18  2  0  0  0  0
 18 17  1  0  0  0  0
 19 20  1  0  0  0  0
 21 24  1  0  0  0  0
 22 23  1  0  0  0  0
 22 24  1  0  0  0  0
 22 20  1  1  0  0  0
 24 28  1  1  0  0  0
 25 21  1  0  0  0  0
 25 26  1  0  0  0  0
 26 23  1  0  0  0  0
 27 30  1  0  0  0  0
 28 27  2  0  0  0  0
 30 31  1  0  0  0  0
 30 29  1  6  0  0  0
 31 32  1  0  0  0  0
 31 33  1  0  0  0  0
 32 33  1  0  0  0  0
 34 27  1  0  0  0  0
 35 34  1  0  0  0  0
 36 35  1  0  0  0  0
 37 36  1  0  0  0  0
 39 45  1  0  0  0  0
 39 38  1  0  0  0  0
 40 44  1  0  0  0  0
 41 58  1  1  0  0  0
 42 40  2  0  0  0  0
 44 45  1  0  0  0  0
 44 41  1  0  0  0  0
 45 43  1  1  0  0  0
 45 41  1  0  0  0  0
 46 40  1  0  0  0  0
 47 55  1  1  0  0  0
 47 46  1  0  0  0  0
 47 48  1  0  0  0  0
 48 49  2  0  0  0  0
 48 51  1  0  0  0  0
 50 53  1  0  0  0  0
 51 50  2  0  0  0  0
 53 52  1  6  0  0  0
 53 54  1  0  0  0  0
 56 55  1  0  0  0  0
 57 56  1  0  0  0  0
 58 60  1  0  0  0  0
 60 59  1  6  0  0  0
 60 61  1  0  0  0  0
 62 61  1  6  0  0  0
 62 65  1  0  0  0  0
 62 63  1  0  0  0  0
 63 64  1  0  0  0  0
 66 65  2  0  0  0  0
M  END
>  <MODEL>
5

>  <REMARK>
 VINA RESULT:      -4.3      5.351      9.863
  Name = 
  29 active torsions:
  status: ('A' for Active; 'I' for Inactive)
    1  A    between atoms: C_1  and  C_26
    2  A    between atoms: N_2  and  C_30
    3  A    between atoms: N_2  and  C_40
    4  A    between atoms: C_3  and  O_20
    5  A    between atoms: C_3  and  C_66
    6  A    between atoms: C_5  and  C_66
    7  A    between atoms: C_6  and  C_10
    8  A    between atoms: C_7  and  C_13
    9  A    between atoms: C_7  and  C_32
   10  A    between atoms: C_7  and  C_54
   11  A    between atoms: C_9  and  C_25
   12  A    between atoms: C_10  and  C_38
   13  A    between atoms: C_10  and  C_61
   14  A    between atoms: C_12  and  O_15
   15  A    between atoms: C_12  and  C_57
   16  A    between atoms: C_13  and  C_42
   17  A    between atoms: C_14  and  C_39
   18  A    between atoms: O_15  and  C_59
   19  A    between atoms: C_16  and  N_17
   20  A    between atoms: O_20  and  C_26
   21  A    between atoms: C_21  and  C_23
   22  A    between atoms: C_25  and  C_65
   23  A    between atoms: N_27  and  C_40
   24  A    between atoms: C_29  and  C_54
   25  A    between atoms: C_31  and  C_32
   26  A    between atoms: C_35  and  S_37
   27  A    between atoms: S_37  and  C_56
   28  A    between atoms: C_40  and  C_65
   29  A    between atoms: C_56  and  C_61
                            x       y       z     vdW  Elec       q    Type
                         _______ _______ _______ _____ _____    ______ ____

>  <TORSDO>
F 29

$$$$
=
 OpenBabel11062418223D

 66 70  0  0  1  0  0  0  0  0999 V2000
  196.0350  173.7630  137.8020 N   0  0  0  0  0  0  0  0  0  0  0  0
  195.1860  174.3920  139.7490 N   0  0  0  0  0  0  0  0  0  0  0  0
  195.7540  173.3920  139.0610 C   0  0  0  0  0  0  0  0  0  0  0  0
  195.5980  175.0440  137.7600 C   0  0  0  0  0  3  0  0  0  0  0  0
  195.0750  175.4310  138.9460 N   0  0  0  0  0  0  0  0  0  0  0  0
  193.3510  173.7880  141.3280 C   0  0  0  0  0  2  0  0  0  0  0  0
  194.7230  174.3740  141.1070 C   0  0  0  0  0  0  0  0  0  0  0  0
  192.8360  173.5140  143.0600 S   0  0  0  0  0  0  0  0  0  0  0  0
  193.4440  175.1270  143.5950 C   0  0  2  0  0  3  0  0  0  0  0  0
  195.6080  176.2450  144.2700 C   0  0  0  0  0  1  0  0  0  0  0  0
  195.4120  175.0480  142.0530 C   0  0  0  0  0  0  0  0  0  0  0  0
  194.9680  175.0900  143.5010 C   0  0  2  0  0  3  0  0  0  0  0  0
  196.6210  175.8310  141.6460 C   0  0  0  0  0  1  0  0  0  0  0  0
  193.0020  175.3790  144.9630 N   0  0  0  0  0  2  0  0  0  0  0  0
  191.7760  176.1700  144.9020 C   0  0  1  0  0  3  0  0  0  0  0  0
  191.6760  177.0250  146.0830 N   0  0  0  0  0  0  0  0  0  0  0  0
  189.6020  176.0930  146.8030 N   0  0  0  0  0  1  0  0  0  0  0  0
  190.7020  176.9830  146.9530 C   0  0  0  0  0  3  0  0  0  0  0  0
  191.7540  177.0440  143.6420 C   0  0  0  0  0  2  0  0  0  0  0  0
  190.4040  177.7330  143.4460 C   0  0  0  0  0  2  0  0  0  0  0  0
  187.2150  176.2250  141.7680 C   0  0  0  0  0  2  0  0  0  0  0  0
  189.5400  176.9520  142.4650 C   0  0  1  0  0  3  0  0  0  0  0  0
  189.8830  175.4630  142.4660 C   0  0  0  0  0  2  0  0  0  0  0  0
  188.0280  177.1980  142.6350 C   0  0  2  0  0  3  0  0  0  0  0  0
  188.0290  175.5000  140.8850 O   0  0  0  0  0  0  0  0  0  0  0  0
  188.8270  174.6600  141.6830 C   0  0  0  0  0  2  0  0  0  0  0  0
  186.7200  177.8640  144.6840 C   0  0  0  0  0  0  0  0  0  0  0  0
  187.5820  177.0540  144.0560 C   0  0  0  0  0  3  0  0  0  0  0  0
  185.4570  176.3430  145.9880 O   0  0  0  0  0  1  0  0  0  0  0  0
  186.2970  177.4660  146.0650 C   0  0  2  0  0  3  0  0  0  0  0  0
  185.6800  178.6430  146.8440 C   0  0  0  0  0  3  0  0  0  0  0  0
  186.6410  179.2170  147.8710 C   0  0  0  0  0  2  0  0  0  0  0  0
  185.5100  178.3160  148.3220 C   0  0  0  0  0  2  0  0  0  0  0  0
  186.1600  179.0190  144.1080 O   0  0  0  0  0  0  0  0  0  0  0  0
  184.7600  179.2190  143.9220 C   0  0  0  0  0  2  0  0  0  0  0  0
  184.2330  178.2270  142.9100 C   0  0  0  0  0  2  0  0  0  0  0  0
  184.0400  178.8620  141.7010 F   0  0  0  0  0  0  0  0  0  0  0  0
  195.9940  172.0230  139.5980 C   0  0  0  0  0  2  0  0  0  0  0  0
  194.8320  171.2430  139.4590 O   0  0  0  0  0  0  0  0  0  0  0  0
  192.4560  169.1750  140.0480 C   0  0  0  0  0  0  0  0  0  0  0  0
  194.9850  169.5960  141.1920 C   0  0  2  0  0  3  0  0  0  0  0  0
  191.9410  168.1660  139.4990 O   0  0  0  0  0  0  0  0  0  0  0  0
  195.8530  169.0950  138.9870 O   0  0  0  0  0  1  0  0  0  0  0  0
  193.8610  169.2370  140.2630 N   0  0  0  0  0  0  0  0  0  0  0  0
  195.1200  169.9170  139.8610 C   0  0  2  0  0  0  0  0  0  0  0  0
  191.6040  170.3360  140.4460 C   0  0  0  0  0  2  0  0  0  0  0  0
  191.6530  171.4980  139.4420 C   0  0  1  0  0  3  0  0  0  0  0  0
  191.4020  171.0470  138.0370 C   0  0  0  0  0  0  0  0  0  0  0  0
  190.3330  170.4360  137.7840 O   0  0  0  0  0  0  0  0  0  0  0  0
  192.9620  170.4430  136.1560 C   0  0  0  0  0  3  0  0  0  0  0  0
  192.3970  171.3370  136.9750 C   0  0  0  0  0  3  0  0  0  0  0  0
  192.2230  168.5040  134.8230 C   0  0  0  0  0  1  0  0  0  0  0  0
  192.6960  168.9740  136.1840 C   0  0  1  0  0  3  0  0  0  0  0  0
  193.8650  168.2990  136.5300 O   0  0  0  0  0  1  0  0  0  0  0  0
  190.6200  172.5320  139.8350 C   0  0  0  0  0  2  0  0  0  0  0  0
  189.5310  172.5990  138.7800 C   0  0  0  0  0  2  0  0  0  0  0  0
  189.4550  173.8970  138.2780 O   0  0  0  0  0  1  0  0  0  0  0  0
  196.0630  168.1680  141.6360 S   0  0  0  0  0  0  0  0  0  0  0  0
  197.6790  168.2260  143.7650 O   0  0  0  0  0  1  0  0  0  0  0  0
  196.3710  168.5150  143.4010 C   0  0  1  0  0  3  0  0  0  0  0  0
  195.9750  169.9260  143.8100 C   0  0  0  0  0  2  0  0  0  0  0  0
  194.6750  169.9090  144.6080 C   0  0  1  0  0  3  0  0  0  0  0  0
  193.7990  168.7570  144.1370 C   0  0  0  0  0  2  0  0  0  0  0  0
  192.5970  168.7440  144.8400 O   0  0  0  0  0  1  0  0  0  0  0  0
  194.9790  169.7580  146.0560 C   0  0  0  0  0  3  0  0  0  0  0  0
  196.1080  169.9390  146.4760 O   0  0  0  0  0  0  0  0  0  0  0  0
  1  3  2  0  0  0  0
  2  7  1  0  0  0  0
  3 38  1  0  0  0  0
  3  2  1  0  0  0  0
  4  1  1  0  0  0  0
  4  5  2  0  0  0  0
  5  2  1  0  0  0  0
  6  8  1  0  0  0  0
  7  6  1  0  0  0  0
  7 11  2  0  0  0  0
  8  9  1  0  0  0  0
  9 14  1  1  0  0  0
 11 12  1  0  0  0  0
 12  9  1  0  0  0  0
 12 10  1  6  0  0  0
 13 11  1  0  0  0  0
 15 19  1  6  0  0  0
 15 14  1  0  0  0  0
 15 16  1  0  0  0  0
 16 18  2  0  0  0  0
 17 18  1  0  0  0  0
 20 19  1  0  0  0  0
 21 24  1  0  0  0  0
 22 23  1  0  0  0  0
 22 24  1  0  0  0  0
 22 20  1  1  0  0  0
 24 28  1  1  0  0  0
 25 26  1  0  0  0  0
 25 21  1  0  0  0  0
 26 23  1  0  0  0  0
 27 30  1  0  0  0  0
 28 27  2  0  0  0  0
 30 29  1  6  0  0  0
 30 31  1  0  0  0  0
 31 32  1  0  0  0  0
 31 33  1  0  0  0  0
 32 33  1  0  0  0  0
 34 27  1  0  0  0  0
 35 34  1  0  0  0  0
 36 35  1  0  0  0  0
 37 36  1  0  0  0  0
 39 38  1  0  0  0  0
 39 45  1  0  0  0  0
 40 44  1  0  0  0  0
 40 46  1  0  0  0  0
 41 58  1  6  0  0  0
 42 40  2  0  0  0  0
 44 41  1  0  0  0  0
 45 43  1  6  0  0  0
 45 44  1  0  0  0  0
 45 41  1  0  0  0  0
 47 55  1  1  0  0  0
 47 46  1  0  0  0  0
 48 47  1  0  0  0  0
 49 48  2  0  0  0  0
 50 53  1  0  0  0  0
 50 51  2  0  0  0  0
 51 48  1  0  0  0  0
 53 52  1  6  0  0  0
 53 54  1  0  0  0  0
 56 55  1  0  0  0  0
 57 56  1  0  0  0  0
 58 60  1  0  0  0  0
 60 59  1  6  0  0  0
 60 61  1  0  0  0  0
 62 61  1  6  0  0  0
 62 65  1  0  0  0  0
 63 62  1  0  0  0  0
 63 64  1  0  0  0  0
 65 66  2  0  0  0  0
M  END
>  <MODEL>
6

>  <REMARK>
 VINA RESULT:      -4.3      5.265      9.930
  Name = 
  29 active torsions:
  status: ('A' for Active; 'I' for Inactive)
    1  A    between atoms: C_1  and  C_26
    2  A    between atoms: N_2  and  C_30
    3  A    between atoms: N_2  and  C_40
    4  A    between atoms: C_3  and  O_20
    5  A    between atoms: C_3  and  C_66
    6  A    between atoms: C_5  and  C_66
    7  A    between atoms: C_6  and  C_10
    8  A    between atoms: C_7  and  C_13
    9  A    between atoms: C_7  and  C_32
   10  A    between atoms: C_7  and  C_54
   11  A    between atoms: C_9  and  C_25
   12  A    between atoms: C_10  and  C_38
   13  A    between atoms: C_10  and  C_61
   14  A    between atoms: C_12  and  O_15
   15  A    between atoms: C_12  and  C_57
   16  A    between atoms: C_13  and  C_42
   17  A    between atoms: C_14  and  C_39
   18  A    between atoms: O_15  and  C_59
   19  A    between atoms: C_16  and  N_17
   20  A    between atoms: O_20  and  C_26
   21  A    between atoms: C_21  and  C_23
   22  A    between atoms: C_25  and  C_65
   23  A    between atoms: N_27  and  C_40
   24  A    between atoms: C_29  and  C_54
   25  A    between atoms: C_31  and  C_32
   26  A    between atoms: C_35  and  S_37
   27  A    between atoms: S_37  and  C_56
   28  A    between atoms: C_40  and  C_65
   29  A    between atoms: C_56  and  C_61
                            x       y       z     vdW  Elec       q    Type
                         _______ _______ _______ _____ _____    ______ ____

>  <TORSDO>
F 29

$$$$
=
 OpenBabel11062418223D

 66 70  0  0  1  0  0  0  0  0999 V2000
  189.8760  172.7190  137.7510 N   0  0  0  0  0  0  0  0  0  0  0  0
  188.6140  173.9930  139.0520 N   0  0  0  0  0  0  0  0  0  0  0  0
  189.8520  173.5410  138.8120 C   0  0  0  0  0  0  0  0  0  0  0  0
  188.5780  172.6890  137.3640 C   0  0  0  0  0  3  0  0  0  0  0  0
  187.8040  173.4630  138.1580 N   0  0  0  0  0  0  0  0  0  0  0  0
  188.4000  174.3570  141.5120 C   0  0  0  0  0  2  0  0  0  0  0  0
  188.1850  174.8640  140.1080 C   0  0  0  0  0  0  0  0  0  0  0  0
  188.1040  175.5380  142.8740 S   0  0  0  0  0  0  0  0  0  0  0  0
  186.5670  176.1410  142.1440 C   0  0  2  0  0  3  0  0  0  0  0  0
  185.7800  177.7690  140.3790 C   0  0  0  0  0  1  0  0  0  0  0  0
  187.4450  175.9540  139.8090 C   0  0  0  0  0  0  0  0  0  0  0  0
  186.9390  176.9050  140.8760 C   0  0  2  0  0  3  0  0  0  0  0  0
  187.0580  176.1970  138.3840 C   0  0  0  0  0  1  0  0  0  0  0  0
  185.8850  177.0040  143.1030 N   0  0  0  0  0  2  0  0  0  0  0  0
  186.8940  177.8170  143.7750 C   0  0  1  0  0  3  0  0  0  0  0  0
  186.2920  179.0590  144.2590 N   0  0  0  0  0  0  0  0  0  0  0  0
  184.8550  177.9660  145.8170 N   0  0  0  0  0  1  0  0  0  0  0  0
  185.3810  179.1310  145.1910 C   0  0  0  0  0  3  0  0  0  0  0  0
  187.5070  177.0590  144.9580 C   0  0  0  0  0  2  0  0  0  0  0  0
  188.7810  177.7290  145.4710 C   0  0  0  0  0  2  0  0  0  0  0  0
  191.4610  175.6360  147.3930 C   0  0  0  0  0  2  0  0  0  0  0  0
  189.4200  176.8930  146.5720 C   0  0  1  0  0  3  0  0  0  0  0  0
  188.6610  175.5890  146.8100 C   0  0  0  0  0  2  0  0  0  0  0  0
  190.9310  176.6560  146.3750 C   0  0  2  0  0  3  0  0  0  0  0  0
  190.5090  175.3290  148.3770 O   0  0  0  0  0  0  0  0  0  0  0  0
  189.4690  174.6450  147.7200 C   0  0  0  0  0  2  0  0  0  0  0  0
  192.3260  176.5310  144.2790 C   0  0  0  0  0  0  0  0  0  0  0  0
  191.2570  176.1660  144.9980 C   0  0  0  0  0  3  0  0  0  0  0  0
  191.5500  176.2050  142.0650 O   0  0  0  0  0  1  0  0  0  0  0  0
  192.5440  175.8190  142.9790 C   0  0  2  0  0  3  0  0  0  0  0  0
  192.6510  174.2930  143.1640 C   0  0  0  0  0  3  0  0  0  0  0  0
  193.2570  173.9180  144.5050 C   0  0  0  0  0  2  0  0  0  0  0  0
  194.1000  173.8340  143.2500 C   0  0  0  0  0  2  0  0  0  0  0  0
  193.2660  177.4910  144.6950 O   0  0  0  0  0  0  0  0  0  0  0  0
  194.6020  177.1830  145.0870 C   0  0  0  0  0  2  0  0  0  0  0  0
  194.6260  176.7860  146.5460 C   0  0  0  0  0  2  0  0  0  0  0  0
  194.7820  175.4190  146.6480 F   0  0  0  0  0  0  0  0  0  0  0  0
  191.0470  173.8580  139.6440 C   0  0  0  0  0  2  0  0  0  0  0  0
  192.2210  173.6060  138.9120 O   0  0  0  0  0  0  0  0  0  0  0  0
  195.3560  173.7890  139.5480 C   0  0  0  0  0  0  0  0  0  0  0  0
  193.6740  171.7150  138.6830 C   0  0  2  0  0  3  0  0  0  0  0  0
  196.0970  173.9030  140.5590 O   0  0  0  0  0  0  0  0  0  0  0  0
  192.4890  172.0670  140.7660 O   0  0  0  0  0  1  0  0  0  0  0  0
  194.3610  172.7740  139.4960 N   0  0  0  0  0  0  0  0  0  0  0  0
  192.8990  172.5100  139.4960 C   0  0  2  0  0  0  0  0  0  0  0  0
  195.4870  174.7430  138.4050 C   0  0  0  0  0  2  0  0  0  0  0  0
  195.8870  174.0610  137.0870 C   0  0  1  0  0  3  0  0  0  0  0  0
  195.9730  175.0290  135.9480 C   0  0  0  0  0  0  0  0  0  0  0  0
  196.7530  176.0090  136.0510 O   0  0  0  0  0  0  0  0  0  0  0  0
  193.9060  175.2310  134.5260 C   0  0  0  0  0  3  0  0  0  0  0  0
  195.1600  174.8130  134.7260 C   0  0  0  0  0  3  0  0  0  0  0  0
  193.3810  177.4690  135.4200 C   0  0  0  0  0  1  0  0  0  0  0  0
  193.0900  175.9850  135.5240 C   0  0  1  0  0  3  0  0  0  0  0  0
  191.7370  175.7580  135.2830 O   0  0  0  0  0  1  0  0  0  0  0  0
  197.2230  173.3760  137.2730 C   0  0  0  0  0  2  0  0  0  0  0  0
  197.2420  172.0660  136.5070 C   0  0  0  0  0  2  0  0  0  0  0  0
  196.7650  171.0450  137.3270 O   0  0  0  0  0  1  0  0  0  0  0  0
  193.8400  170.0190  139.3870 S   0  0  0  0  0  0  0  0  0  0  0  0
  191.3190  169.1350  139.3140 O   0  0  0  0  0  1  0  0  0  0  0  0
  192.4680  169.1670  138.5370 C   0  0  1  0  0  3  0  0  0  0  0  0
  192.1900  169.7210  137.1480 C   0  0  0  0  0  2  0  0  0  0  0  0
  192.5420  168.6920  136.0780 C   0  0  1  0  0  3  0  0  0  0  0  0
  191.9260  169.1030  134.7490 C   0  0  0  0  0  2  0  0  0  0  0  0
  192.1360  170.4600  134.5170 O   0  0  0  0  0  1  0  0  0  0  0  0
  194.0210  168.5970  135.9460 C   0  0  0  0  0  3  0  0  0  0  0  0
  194.5440  168.5150  134.8490 O   0  0  0  0  0  0  0  0  0  0  0  0
  1  3  2  0  0  0  0
  2  7  1  0  0  0  0
  3  2  1  0  0  0  0
  3 38  1  0  0  0  0
  4  1  1  0  0  0  0
  4  5  2  0  0  0  0
  5  2  1  0  0  0  0
  6  8  1  0  0  0  0
  7  6  1  0  0  0  0
  9  8  1  0  0  0  0
  9 14  1  1  0  0  0
 11  7  2  0  0  0  0
 11 12  1  0  0  0  0
 12 10  1  6  0  0  0
 12  9  1  0  0  0  0
 13 11  1  0  0  0  0
 14 15  1  0  0  0  0
 15 16  1  0  0  0  0
 15 19  1  1  0  0  0
 16 18  2  0  0  0  0
 18 17  1  0  0  0  0
 19 20  1  0  0  0  0
 21 25  1  0  0  0  0
 22 20  1  6  0  0  0
 22 23  1  0  0  0  0
 23 26  1  0  0  0  0
 24 28  1  6  0  0  0
 24 22  1  0  0  0  0
 24 21  1  0  0  0  0
 26 25  1  0  0  0  0
 27 34  1  0  0  0  0
 27 28  2  0  0  0  0
 30 29  1  6  0  0  0
 30 31  1  0  0  0  0
 30 27  1  0  0  0  0
 31 33  1  0  0  0  0
 31 32  1  0  0  0  0
 33 32  1  0  0  0  0
 34 35  1  0  0  0  0
 35 36  1  0  0  0  0
 36 37  1  0  0  0  0
 39 45  1  0  0  0  0
 39 38  1  0  0  0  0
 40 42  2  0  0  0  0
 41 58  1  1  0  0  0
 41 45  1  0  0  0  0
 41 44  1  0  0  0  0
 44 40  1  0  0  0  0
 45 44  1  0  0  0  0
 45 43  1  1  0  0  0
 46 40  1  0  0  0  0
 47 55  1  1  0  0  0
 47 46  1  0  0  0  0
 48 49  2  0  0  0  0
 48 47  1  0  0  0  0
 50 51  2  0  0  0  0
 50 53  1  0  0  0  0
 51 48  1  0  0  0  0
 53 52  1  6  0  0  0
 54 53  1  0  0  0  0
 56 55  1  0  0  0  0
 56 57  1  0  0  0  0
 60 59  1  1  0  0  0
 60 58  1  0  0  0  0
 61 60  1  0  0  0  0
 62 63  1  6  0  0  0
 62 61  1  0  0  0  0
 64 63  1  0  0  0  0
 65 62  1  0  0  0  0
 66 65  2  0  0  0  0
M  END
>  <MODEL>
7

>  <REMARK>
 VINA RESULT:      -3.8      4.757      8.661
  Name = 
  29 active torsions:
  status: ('A' for Active; 'I' for Inactive)
    1  A    between atoms: C_1  and  C_26
    2  A    between atoms: N_2  and  C_30
    3  A    between atoms: N_2  and  C_40
    4  A    between atoms: C_3  and  O_20
    5  A    between atoms: C_3  and  C_66
    6  A    between atoms: C_5  and  C_66
    7  A    between atoms: C_6  and  C_10
    8  A    between atoms: C_7  and  C_13
    9  A    between atoms: C_7  and  C_32
   10  A    between atoms: C_7  and  C_54
   11  A    between atoms: C_9  and  C_25
   12  A    between atoms: C_10  and  C_38
   13  A    between atoms: C_10  and  C_61
   14  A    between atoms: C_12  and  O_15
   15  A    between atoms: C_12  and  C_57
   16  A    between atoms: C_13  and  C_42
   17  A    between atoms: C_14  and  C_39
   18  A    between atoms: O_15  and  C_59
   19  A    between atoms: C_16  and  N_17
   20  A    between atoms: O_20  and  C_26
   21  A    between atoms: C_21  and  C_23
   22  A    between atoms: C_25  and  C_65
   23  A    between atoms: N_27  and  C_40
   24  A    between atoms: C_29  and  C_54
   25  A    between atoms: C_31  and  C_32
   26  A    between atoms: C_35  and  S_37
   27  A    between atoms: S_37  and  C_56
   28  A    between atoms: C_40  and  C_65
   29  A    between atoms: C_56  and  C_61
                            x       y       z     vdW  Elec       q    Type
                         _______ _______ _______ _____ _____    ______ ____

>  <TORSDO>
F 29

$$$$
=
 OpenBabel11062418223D

 66 70  0  0  1  0  0  0  0  0999 V2000
  195.7170  173.9500  137.7980 N   0  0  0  0  0  0  0  0  0  0  0  0
  195.0000  174.6350  139.7790 N   0  0  0  0  0  0  0  0  0  0  0  0
  195.5070  173.6100  139.0800 C   0  0  0  0  0  0  0  0  0  0  0  0
  195.2990  175.2380  137.7550 C   0  0  0  0  0  3  0  0  0  0  0  0
  194.8570  175.6590  138.9630 N   0  0  0  0  0  0  0  0  0  0  0  0
  193.3470  173.9210  141.5080 C   0  0  0  0  0  2  0  0  0  0  0  0
  194.6200  174.6530  141.1630 C   0  0  0  0  0  0  0  0  0  0  0  0
  192.9710  173.7050  143.2830 S   0  0  0  0  0  0  0  0  0  0  0  0
  193.4020  175.4130  143.6790 C   0  0  2  0  0  3  0  0  0  0  0  0
  195.4440  176.8280  144.1430 C   0  0  0  0  0  1  0  0  0  0  0  0
  195.2730  175.4680  142.0200 C   0  0  0  0  0  0  0  0  0  0  0  0
  194.9100  175.5540  143.4890 C   0  0  2  0  0  3  0  0  0  0  0  0
  196.3490  176.3620  141.4890 C   0  0  0  0  0  1  0  0  0  0  0  0
  193.0110  175.7020  145.0550 N   0  0  0  0  0  2  0  0  0  0  0  0
  191.5610  175.8760  145.0840 C   0  0  1  0  0  3  0  0  0  0  0  0
  191.0450  175.9830  143.7200 N   0  0  0  0  0  0  0  0  0  0  0  0
  191.1110  178.3660  143.6890 N   0  0  0  0  0  1  0  0  0  0  0  0
  190.8540  177.1060  143.0810 C   0  0  0  0  0  3  0  0  0  0  0  0
  190.8840  174.6960  145.7900 C   0  0  0  0  0  2  0  0  0  0  0  0
  189.3630  174.8360  145.8120 C   0  0  0  0  0  2  0  0  0  0  0  0
  187.3240  177.9400  147.0260 C   0  0  0  0  0  2  0  0  0  0  0  0
  188.9470  176.0270  146.6650 C   0  0  1  0  0  3  0  0  0  0  0  0
  190.0400  177.0930  146.7270 C   0  0  0  0  0  2  0  0  0  0  0  0
  187.5790  176.6230  146.2770 C   0  0  2  0  0  3  0  0  0  0  0  0
  188.2830  178.1720  148.0240 O   0  0  0  0  0  0  0  0  0  0  0  0
  189.5020  178.3910  147.3570 C   0  0  0  0  0  2  0  0  0  0  0  0
  186.5680  177.6910  144.2300 C   0  0  0  0  0  0  0  0  0  0  0  0
  187.4660  176.8840  144.8070 C   0  0  0  0  0  3  0  0  0  0  0  0
  187.9540  178.5250  142.5010 O   0  0  0  0  0  1  0  0  0  0  0  0
  186.7110  177.9240  142.7570 C   0  0  2  0  0  3  0  0  0  0  0  0
  185.5180  178.7060  142.1740 C   0  0  0  0  0  3  0  0  0  0  0  0
  184.2730  177.8440  142.0500 C   0  0  0  0  0  2  0  0  0  0  0  0
  185.0940  178.1610  140.8170 C   0  0  0  0  0  2  0  0  0  0  0  0
  185.5450  178.3610  144.9270 O   0  0  0  0  0  0  0  0  0  0  0  0
  184.4590  177.7040  145.5760 C   0  0  0  0  0  2  0  0  0  0  0  0
  183.6940  178.6970  146.4220 C   0  0  0  0  0  2  0  0  0  0  0  0
  184.3890  178.9390  147.5880 F   0  0  0  0  0  0  0  0  0  0  0  0
  195.7560  172.2480  139.6300 C   0  0  0  0  0  2  0  0  0  0  0  0
  194.6290  171.4330  139.4200 O   0  0  0  0  0  0  0  0  0  0  0  0
  192.4070  169.1270  139.3210 C   0  0  0  0  0  0  0  0  0  0  0  0
  194.6540  169.5820  140.9410 C   0  0  2  0  0  3  0  0  0  0  0  0
  192.0940  168.1660  138.5700 O   0  0  0  0  0  0  0  0  0  0  0  0
  195.9240  169.4540  138.8820 O   0  0  0  0  0  1  0  0  0  0  0  0
  193.7420  169.2670  139.7890 N   0  0  0  0  0  0  0  0  0  0  0  0
  194.9770  170.0910  139.7030 C   0  0  2  0  0  0  0  0  0  0  0  0
  191.3890  170.1540  139.6970 C   0  0  0  0  0  2  0  0  0  0  0  0
  190.8640  170.9570  138.4980 C   0  0  1  0  0  3  0  0  0  0  0  0
  189.7900  171.9250  138.8860 C   0  0  0  0  0  0  0  0  0  0  0  0
  188.6150  171.7070  138.4980 O   0  0  0  0  0  0  0  0  0  0  0  0
  189.7570  173.2970  140.9970 C   0  0  0  0  0  3  0  0  0  0  0  0
  190.1200  173.1050  139.7240 C   0  0  0  0  0  3  0  0  0  0  0  0
  189.3410  172.4010  143.2570 C   0  0  0  0  0  1  0  0  0  0  0  0
  188.9280  172.3480  141.7990 C   0  0  1  0  0  3  0  0  0  0  0  0
  187.5840  172.6940  141.6830 O   0  0  0  0  0  1  0  0  0  0  0  0
  192.0160  171.7060  137.8640 C   0  0  0  0  0  2  0  0  0  0  0  0
  192.0090  171.4880  136.3620 C   0  0  0  0  0  2  0  0  0  0  0  0
  192.6960  170.3130  136.0630 O   0  0  0  0  0  1  0  0  0  0  0  0
  195.7790  168.1930  141.3940 S   0  0  0  0  0  0  0  0  0  0  0  0
  197.8570  169.6310  142.2660 O   0  0  0  0  0  1  0  0  0  0  0  0
  196.7370  168.9640  142.7420 C   0  0  1  0  0  3  0  0  0  0  0  0
  195.8930  169.8570  143.6400 C   0  0  0  0  0  2  0  0  0  0  0  0
  195.3390  169.0630  144.8180 C   0  0  1  0  0  3  0  0  0  0  0  0
  196.2860  169.1740  146.0040 C   0  0  0  0  0  2  0  0  0  0  0  0
  195.6100  168.9020  147.1910 O   0  0  0  0  0  1  0  0  0  0  0  0
  193.9970  169.5890  145.1880 C   0  0  0  0  0  3  0  0  0  0  0  0
  193.3710  170.2930  144.4160 O   0  0  0  0  0  0  0  0  0  0  0  0
  1  3  2  0  0  0  0
  2  7  1  0  0  0  0
  3 38  1  0  0  0  0
  3  2  1  0  0  0  0
  4  1  1  0  0  0  0
  4  5  2  0  0  0  0
  5  2  1  0  0  0  0
  6  8  1  0  0  0  0
  7  6  1  0  0  0  0
  7 11  2  0  0  0  0
  8  9  1  0  0  0  0
  9 14  1  1  0  0  0
 11 12  1  0  0  0  0
 12  9  1  0  0  0  0
 12 10  1  6  0  0  0
 13 11  1  0  0  0  0
 14 15  1  0  0  0  0
 15 19  1  6  0  0  0
 16 15  1  0  0  0  0
 18 17  1  0  0  0  0
 18 16  2  0  0  0  0
 19 20  1  0  0  0  0
 21 25  1  0  0  0  0
 22 20  1  6  0  0  0
 22 23  1  0  0  0  0
 23 26  1  0  0  0  0
 24 28  1  6  0  0  0
 24 22  1  0  0  0  0
 24 21  1  0  0  0  0
 26 25  1  0  0  0  0
 27 28  2  0  0  0  0
 27 34  1  0  0  0  0
 30 29  1  1  0  0  0
 30 27  1  0  0  0  0
 31 30  1  0  0  0  0
 32 31  1  0  0  0  0
 33 32  1  0  0  0  0
 33 31  1  0  0  0  0
 34 35  1  0  0  0  0
 35 36  1  0  0  0  0
 36 37  1  0  0  0  0
 39 38  1  0  0  0  0
 39 45  1  0  0  0  0
 40 46  1  0  0  0  0
 40 44  1  0  0  0  0
 41 58  1  6  0  0  0
 42 40  2  0  0  0  0
 44 41  1  0  0  0  0
 45 43  1  6  0  0  0
 45 44  1  0  0  0  0
 45 41  1  0  0  0  0
 47 55  1  1  0  0  0
 47 48  1  0  0  0  0
 47 46  1  0  0  0  0
 48 51  1  0  0  0  0
 49 48  2  0  0  0  0
 50 53  1  0  0  0  0
 51 50  2  0  0  0  0
 53 52  1  1  0  0  0
 54 53  1  0  0  0  0
 56 55  1  0  0  0  0
 57 56  1  0  0  0  0
 58 60  1  0  0  0  0
 60 59  1  6  0  0  0
 60 61  1  0  0  0  0
 62 61  1  6  0  0  0
 62 65  1  0  0  0  0
 62 63  1  0  0  0  0
 63 64  1  0  0  0  0
 66 65  2  0  0  0  0
M  END
>  <MODEL>
8

>  <REMARK>
 VINA RESULT:      -3.7      5.154      9.810
  Name = 
  29 active torsions:
  status: ('A' for Active; 'I' for Inactive)
    1  A    between atoms: C_1  and  C_26
    2  A    between atoms: N_2  and  C_30
    3  A    between atoms: N_2  and  C_40
    4  A    between atoms: C_3  and  O_20
    5  A    between atoms: C_3  and  C_66
    6  A    between atoms: C_5  and  C_66
    7  A    between atoms: C_6  and  C_10
    8  A    between atoms: C_7  and  C_13
    9  A    between atoms: C_7  and  C_32
   10  A    between atoms: C_7  and  C_54
   11  A    between atoms: C_9  and  C_25
   12  A    between atoms: C_10  and  C_38
   13  A    between atoms: C_10  and  C_61
   14  A    between atoms: C_12  and  O_15
   15  A    between atoms: C_12  and  C_57
   16  A    between atoms: C_13  and  C_42
   17  A    between atoms: C_14  and  C_39
   18  A    between atoms: O_15  and  C_59
   19  A    between atoms: C_16  and  N_17
   20  A    between atoms: O_20  and  C_26
   21  A    between atoms: C_21  and  C_23
   22  A    between atoms: C_25  and  C_65
   23  A    between atoms: N_27  and  C_40
   24  A    between atoms: C_29  and  C_54
   25  A    between atoms: C_31  and  C_32
   26  A    between atoms: C_35  and  S_37
   27  A    between atoms: S_37  and  C_56
   28  A    between atoms: C_40  and  C_65
   29  A    between atoms: C_56  and  C_61
                            x       y       z     vdW  Elec       q    Type
                         _______ _______ _______ _____ _____    ______ ____

>  <TORSDO>
F 29

$$$$
=
 OpenBabel11062418223D

 66 70  0  0  1  0  0  0  0  0999 V2000
  187.3420  177.4480  143.0710 N   0  0  0  0  0  0  0  0  0  0  0  0
  187.4440  176.4570  141.0910 N   0  0  0  0  0  0  0  0  0  0  0  0
  187.6100  176.3090  142.4130 C   0  0  0  0  0  0  0  0  0  0  0  0
  187.0110  178.3020  142.0720 C   0  0  0  0  0  3  0  0  0  0  0  0
  187.0760  177.7010  140.8610 N   0  0  0  0  0  0  0  0  0  0  0  0
  188.4850  174.2810  140.4530 C   0  0  0  0  0  2  0  0  0  0  0  0
  187.6580  175.4810  140.0630 C   0  0  0  0  0  0  0  0  0  0  0  0
  188.5640  172.9030  139.2550 S   0  0  0  0  0  0  0  0  0  0  0  0
  188.8230  174.0110  137.8540 C   0  0  2  0  0  3  0  0  0  0  0  0
  187.4930  175.4810  136.2860 C   0  0  0  0  0  1  0  0  0  0  0  0
  187.3100  175.7690  138.7900 C   0  0  0  0  0  0  0  0  0  0  0  0
  187.5280  174.7940  137.6500 C   0  0  2  0  0  3  0  0  0  0  0  0
  186.7460  177.1210  138.4840 C   0  0  0  0  0  1  0  0  0  0  0  0
  189.1590  173.2230  136.6720 N   0  0  0  0  0  2  0  0  0  0  0  0
  190.2010  172.2720  137.0460 C   0  0  1  0  0  3  0  0  0  0  0  0
  189.9190  170.9650  136.4550 N   0  0  0  0  0  0  0  0  0  0  0  0
  190.4460  169.7530  138.4390 N   0  0  0  0  0  1  0  0  0  0  0  0
  190.0140  169.8260  137.0850 C   0  0  0  0  0  3  0  0  0  0  0  0
  191.5760  172.7560  136.5710 C   0  0  0  0  0  2  0  0  0  0  0  0
  192.6880  172.3750  137.5470 C   0  0  0  0  0  2  0  0  0  0  0  0
  194.3800  174.9490  139.9490 C   0  0  0  0  0  2  0  0  0  0  0  0
  192.8350  173.4330  138.6330 C   0  0  1  0  0  3  0  0  0  0  0  0
  192.3620  172.9220  139.9930 C   0  0  0  0  0  2  0  0  0  0  0  0
  194.2420  174.0570  138.7060 C   0  0  2  0  0  3  0  0  0  0  0  0
  193.1500  175.1480  140.5940 O   0  0  0  0  0  0  0  0  0  0  0  0
  192.7700  173.8970  141.1130 C   0  0  0  0  0  2  0  0  0  0  0  0
  196.4170  173.0190  137.9680 C   0  0  0  0  0  0  0  0  0  0  0  0
  195.3240  173.0230  138.7420 C   0  0  0  0  0  3  0  0  0  0  0  0
  197.0280  170.7440  137.7150 O   0  0  0  0  0  1  0  0  0  0  0  0
  197.4480  171.9710  138.2560 C   0  0  2  0  0  3  0  0  0  0  0  0
  197.7960  171.8950  139.7550 C   0  0  0  0  0  3  0  0  0  0  0  0
  197.9400  170.4630  140.2390 C   0  0  0  0  0  2  0  0  0  0  0  0
  196.6820  171.2420  140.5610 C   0  0  0  0  0  2  0  0  0  0  0  0
  196.6690  173.9590  136.9510 O   0  0  0  0  0  0  0  0  0  0  0  0
  196.2360  175.3160  136.9950 C   0  0  0  0  0  2  0  0  0  0  0  0
  195.6330  175.7030  135.6630 C   0  0  0  0  0  2  0  0  0  0  0  0
  194.4730  174.9840  135.4580 F   0  0  0  0  0  0  0  0  0  0  0  0
  188.0860  175.0610  143.0730 C   0  0  0  0  0  2  0  0  0  0  0  0
  189.3350  175.2870  143.6810 O   0  0  0  0  0  0  0  0  0  0  0  0
  189.5290  174.6010  146.8050 C   0  0  0  0  0  0  0  0  0  0  0  0
  191.1550  174.0220  144.5910 C   0  0  2  0  0  3  0  0  0  0  0  0
  188.9440  173.8560  147.6340 O   0  0  0  0  0  0  0  0  0  0  0  0
  189.2160  172.8650  143.7130 O   0  0  0  0  0  1  0  0  0  0  0  0
  190.0320  174.0650  145.5880 N   0  0  0  0  0  0  0  0  0  0  0  0
  189.8650  174.0470  144.1110 C   0  0  2  0  0  0  0  0  0  0  0  0
  189.6700  176.0650  147.0720 C   0  0  0  0  0  2  0  0  0  0  0  0
  188.9280  176.9420  146.0520 C   0  0  1  0  0  3  0  0  0  0  0  0
  187.5890  177.3870  146.5510 C   0  0  0  0  0  0  0  0  0  0  0  0
  187.5210  178.4430  147.2310 O   0  0  0  0  0  0  0  0  0  0  0  0
  185.1570  177.0870  145.9730 C   0  0  0  0  0  3  0  0  0  0  0  0
  186.3750  176.5970  146.2300 C   0  0  0  0  0  3  0  0  0  0  0  0
  184.4000  178.9870  144.5950 C   0  0  0  0  0  1  0  0  0  0  0  0
  184.8020  178.5380  145.9860 C   0  0  1  0  0  3  0  0  0  0  0  0
  183.7450  178.7490  146.8670 O   0  0  0  0  0  1  0  0  0  0  0  0
  189.7780  178.1520  145.7330 C   0  0  0  0  0  2  0  0  0  0  0  0
  190.7080  177.8390  144.5750 C   0  0  0  0  0  2  0  0  0  0  0  0
  190.4860  178.7520  143.5460 O   0  0  0  0  0  1  0  0  0  0  0  0
  191.8990  172.3470  144.3870 S   0  0  0  0  0  0  0  0  0  0  0  0
  193.7000  173.8670  145.6490 O   0  0  0  0  0  1  0  0  0  0  0  0
  193.6010  172.6640  144.9650 C   0  0  1  0  0  3  0  0  0  0  0  0
  194.1830  171.5120  145.7700 C   0  0  0  0  0  2  0  0  0  0  0  0
  195.3040  170.8270  144.9960 C   0  0  1  0  0  3  0  0  0  0  0  0
  195.9390  171.8170  144.0300 C   0  0  0  0  0  2  0  0  0  0  0  0
  197.0130  172.4630  144.6360 O   0  0  0  0  0  1  0  0  0  0  0  0
  196.3270  170.3160  145.9470 C   0  0  0  0  0  3  0  0  0  0  0  0
  196.0970  169.3480  146.6480 O   0  0  0  0  0  0  0  0  0  0  0  0
  2  3  1  0  0  0  0
  3  1  2  0  0  0  0
  3 38  1  0  0  0  0
  4  1  1  0  0  0  0
  5  2  1  0  0  0  0
  5  4  2  0  0  0  0
  7  6  1  0  0  0  0
  7  2  1  0  0  0  0
  8  6  1  0  0  0  0
  9 14  1  6  0  0  0
  9  8  1  0  0  0  0
 11  7  2  0  0  0  0
 12 10  1  6  0  0  0
 12  9  1  0  0  0  0
 12 11  1  0  0  0  0
 13 11  1  0  0  0  0
 14 15  1  0  0  0  0
 15 19  1  6  0  0  0
 16 15  1  0  0  0  0
 16 18  2  0  0  0  0
 18 17  1  0  0  0  0
 19 20  1  0  0  0  0
 21 25  1  0  0  0  0
 22 20  1  6  0  0  0
 22 24  1  0  0  0  0
 22 23  1  0  0  0  0
 23 26  1  0  0  0  0
 24 28  1  1  0  0  0
 24 21  1  0  0  0  0
 25 26  1  0  0  0  0
 27 30  1  0  0  0  0
 27 28  2  0  0  0  0
 30 29  1  1  0  0  0
 30 31  1  0  0  0  0
 31 32  1  0  0  0  0
 31 33  1  0  0  0  0
 32 33  1  0  0  0  0
 34 35  1  0  0  0  0
 34 27  1  0  0  0  0
 36 35  1  0  0  0  0
 37 36  1  0  0  0  0
 38 39  1  0  0  0  0
 39 45  1  0  0  0  0
 40 46  1  0  0  0  0
 40 42  2  0  0  0  0
 41 58  1  1  0  0  0
 41 44  1  0  0  0  0
 44 40  1  0  0  0  0
 45 43  1  6  0  0  0
 45 41  1  0  0  0  0
 45 44  1  0  0  0  0
 47 55  1  1  0  0  0
 47 48  1  0  0  0  0
 47 46  1  0  0  0  0
 48 49  2  0  0  0  0
 50 53  1  0  0  0  0
 50 51  2  0  0  0  0
 51 48  1  0  0  0  0
 53 52  1  6  0  0  0
 53 54  1  0  0  0  0
 56 55  1  0  0  0  0
 57 56  1  0  0  0  0
 58 60  1  0  0  0  0
 60 59  1  1  0  0  0
 60 61  1  0  0  0  0
 62 63  1  6  0  0  0
 62 61  1  0  0  0  0
 62 65  1  0  0  0  0
 63 64  1  0  0  0  0
 65 66  2  0  0  0  0
M  END
>  <MODEL>
9

>  <REMARK>
 VINA RESULT:      -3.5      4.632      8.668
  Name = 
  29 active torsions:
  status: ('A' for Active; 'I' for Inactive)
    1  A    between atoms: C_1  and  C_26
    2  A    between atoms: N_2  and  C_30
    3  A    between atoms: N_2  and  C_40
    4  A    between atoms: C_3  and  O_20
    5  A    between atoms: C_3  and  C_66
    6  A    between atoms: C_5  and  C_66
    7  A    between atoms: C_6  and  C_10
    8  A    between atoms: C_7  and  C_13
    9  A    between atoms: C_7  and  C_32
   10  A    between atoms: C_7  and  C_54
   11  A    between atoms: C_9  and  C_25
   12  A    between atoms: C_10  and  C_38
   13  A    between atoms: C_10  and  C_61
   14  A    between atoms: C_12  and  O_15
   15  A    between atoms: C_12  and  C_57
   16  A    between atoms: C_13  and  C_42
   17  A    between atoms: C_14  and  C_39
   18  A    between atoms: O_15  and  C_59
   19  A    between atoms: C_16  and  N_17
   20  A    between atoms: O_20  and  C_26
   21  A    between atoms: C_21  and  C_23
   22  A    between atoms: C_25  and  C_65
   23  A    between atoms: N_27  and  C_40
   24  A    between atoms: C_29  and  C_54
   25  A    between atoms: C_31  and  C_32
   26  A    between atoms: C_35  and  S_37
   27  A    between atoms: S_37  and  C_56
   28  A    between atoms: C_40  and  C_65
   29  A    between atoms: C_56  and  C_61
                            x       y       z     vdW  Elec       q    Type
                         _______ _______ _______ _____ _____    ______ ____

>  <TORSDO>
F 29

$$$$
