=
 OpenBabel11062419023D

 68 76  0  0  1  0  0  0  0  0999 V2000
  188.1420  174.9540  138.0010 C   0  0  2  0  0  3  0  0  0  0  0  0
  187.1750  176.6940  136.6600 O   0  0  0  0  0  0  0  0  0  0  0  0
  187.2110  175.2990  136.8460 C   0  0  2  0  0  3  0  0  0  0  0  0
  186.0890  176.1230  137.3480 C   0  0  0  0  0  2  0  0  0  0  0  0
  188.1850  172.6070  137.6130 O   0  0  0  0  0  0  0  0  0  0  0  0
  188.8310  173.6280  137.8040 C   0  0  0  0  0  0  0  0  0  0  0  0
  190.6170  173.5380  137.9590 S   0  0  0  0  0  0  0  0  0  0  0  0
  190.8420  172.2760  136.6470 C   0  0  2  0  0  3  0  0  0  0  0  0
  191.6160  169.2970  138.5230 C   0  0  0  0  0  2  0  0  0  0  0  0
  192.9320  169.1940  136.4140 C   0  0  0  0  0  2  0  0  0  0  0  0
  191.6360  168.7990  137.0990 C   0  0  2  0  0  3  0  0  0  0  0  0
  191.6920  170.0490  136.2400 C   0  0  1  0  0  3  0  0  0  0  0  0
  191.7590  171.2250  137.1200 N   0  0  0  0  0  0  0  0  0  0  0  0
  191.2800  170.7600  138.4190 C   0  0  0  0  0  2  0  0  0  0  0  0
  191.3800  172.9870  135.4030 C   0  0  0  0  0  2  0  0  0  0  0  0
  192.7260  173.6430  135.6840 C   0  0  0  0  0  2  0  0  0  0  0  0
  192.6100  175.0300  135.5550 O   0  0  0  0  0  0  0  0  0  0  0  0
  193.6530  175.5600  136.3180 C   0  0  0  0  0  2  0  0  0  0  0  0
  194.9450  176.4690  134.5130 O   0  0  0  0  0  1  0  0  0  0  0  0
  194.9650  175.5230  135.5450 C   0  0  1  0  0  3  0  0  0  0  0  0
  196.1270  175.7970  136.4990 C   0  0  2  0  0  3  0  0  0  0  0  0
  197.1960  176.3650  135.8010 O   0  0  0  0  0  1  0  0  0  0  0  0
  196.5730  174.5240  137.2260 C   0  0  1  0  0  3  0  0  0  0  0  0
  197.7680  174.0600  136.6790 O   0  0  0  0  0  1  0  0  0  0  0  0
  197.9300  174.8860  139.1700 O   0  0  0  0  0  0  0  0  0  0  0  0
  196.7680  174.7430  138.6950 C   0  0  0  0  0  0  0  0  0  0  0  0
  195.6330  174.6890  139.5680 N   0  0  0  0  0  2  0  0  0  0  0  0
  195.7260  174.9200  141.0050 C   0  0  2  0  0  3  0  0  0  0  0  0
  196.2250  176.3310  141.2990 C   0  0  0  0  0  1  0  0  0  0  0  0
  196.6150  173.9000  141.6530 C   0  0  0  0  0  0  0  0  0  0  0  0
  197.5690  174.3240  142.4770 C   0  0  0  0  0  2  0  0  0  0  0  0
  197.5660  171.6970  141.6600 O   0  0  0  0  0  0  0  0  0  0  0  0
  196.9730  171.6550  140.3750 C   0  0  0  0  0  2  0  0  0  0  0  0
  195.3320  171.8380  142.1970 O   0  0  0  0  0  1  0  0  0  0  0  0
  196.3770  172.4250  141.4900 C   0  0  2  0  0  0  0  0  0  0  0  0
  187.3370  174.9620  139.3010 C   0  0  0  0  0  2  0  0  0  0  0  0
  188.2070  175.2550  140.5160 C   0  0  0  0  0  2  0  0  0  0  0  0
  188.0070  176.6820  141.0000 C   0  0  0  0  0  2  0  0  0  0  0  0
  186.4830  177.6080  142.7640 C   0  0  0  0  0  0  0  0  0  0  0  0
  186.3900  178.7220  142.1630 O   0  0  0  0  0  0  0  0  0  0  0  0
  187.5070  176.6760  142.3670 N   0  0  0  0  0  0  0  0  0  0  0  0
  184.2700  178.1160  143.7630 C   0  0  0  0  0  2  0  0  0  0  0  0
  185.3830  178.6690  145.7800 C   0  0  0  0  0  0  0  0  0  0  0  0
  187.0990  176.9820  145.9150 C   0  0  0  0  0  3  0  0  0  0  0  0
  186.7750  178.5720  147.7390 C   0  0  0  0  0  3  0  0  0  0  0  0
  185.5370  177.2510  143.8820 C   0  0  2  0  0  3  0  0  0  0  0  0
  184.2880  179.1450  144.9130 C   0  0  0  0  0  2  0  0  0  0  0  0
  186.0660  177.6140  145.2260 C   0  0  0  0  0  0  0  0  0  0  0  0
  185.7230  179.1770  147.0360 C   0  0  0  0  0  3  0  0  0  0  0  0
  187.4540  177.4710  147.1840 C   0  0  0  0  0  3  0  0  0  0  0  0
  188.2190  175.8870  143.3670 C   0  0  0  0  0  2  0  0  0  0  0  0
  194.3450  175.7110  145.7110 C   0  0  0  0  0  2  0  0  0  0  0  0
  191.6150  176.5670  146.5920 O   0  0  0  0  0  0  0  0  0  0  0  0
  191.7770  176.3340  145.1170 S   0  0  0  0  0  0  0  0  0  0  0  0
  195.2510  173.4470  145.0970 N   0  0  0  0  0  0  0  0  0  0  0  0
  193.9930  173.0040  145.7020 C   0  0  0  0  0  2  0  0  0  0  0  0
  190.6460  175.2780  143.1130 C   0  0  1  0  0  3  0  0  0  0  0  0
  190.3440  175.5600  144.5250 N   0  0  2  0  0  0  0  0  0  0  0  0
  193.1830  175.2570  144.8370 C   0  0  2  0  0  3  0  0  0  0  0  0
  190.1800  173.8500  142.8210 C   0  0  0  0  0  2  0  0  0  0  0  0
  192.0120  177.6510  144.4300 O   0  0  0  0  0  0  0  0  0  0  0  0
  195.5790  174.8120  145.5350 C   0  0  0  0  0  2  0  0  0  0  0  0
  189.6760  176.3310  143.4640 C   0  0  2  0  0  3  0  0  0  0  0  0
  190.9030  172.8480  143.7280 C   0  0  0  0  0  2  0  0  0  0  0  0
  192.8210  173.7710  145.0850 C   0  0  1  0  0  3  0  0  0  0  0  0
  192.4190  173.0770  143.7780 C   0  0  0  0  0  2  0  0  0  0  0  0
  197.1190  173.3190  146.5570 N   0  0  0  0  0  1  0  0  0  0  0  0
  196.2990  172.5800  145.6160 C   0  0  0  0  0  2  0  0  0  0  0  0
  1 36  1  1  0  0  0
  2  3  1  0  0  0  0
  2  4  1  0  0  0  0
  3  4  1  0  0  0  0
  3  1  1  1  0  0  0
  5  6  2  0  0  0  0
  6  7  1  0  0  0  0
  6  1  1  0  0  0  0
  8 15  1  6  0  0  0
  8 13  1  0  0  0  0
  8  7  1  0  0  0  0
 11 10  1  1  0  0  0
 11  9  1  0  0  0  0
 12 10  1  6  0  0  0
 12 11  1  0  0  0  0
 12 13  1  0  0  0  0
 13 14  1  0  0  0  0
 14  9  1  0  0  0  0
 15 16  1  0  0  0  0
 17 16  1  0  0  0  0
 17 18  1  0  0  0  0
 20 19  1  6  0  0  0
 20 18  1  0  0  0  0
 20 21  1  0  0  0  0
 21 22  1  6  0  0  0
 21 23  1  0  0  0  0
 23 24  1  6  0  0  0
 23 26  1  0  0  0  0
 26 25  2  0  0  0  0
 26 27  1  0  0  0  0
 27 28  1  0  0  0  0
 28 29  1  6  0  0  0
 28 30  1  0  0  0  0
 30 31  2  0  0  0  0
 33 35  1  0  0  0  0
 33 32  1  0  0  0  0
 35 30  1  0  0  0  0
 35 32  1  0  0  0  0
 35 34  1  1  0  0  0
 36 37  1  0  0  0  0
 37 38  1  0  0  0  0
 38 41  1  0  0  0  0
 40 39  2  0  0  0  0
 41 39  1  0  0  0  0
 41 51  1  0  0  0  0
 42 46  1  0  0  0  0
 42 47  1  0  0  0  0
 43 49  1  0  0  0  0
 44 50  2  0  0  0  0
 46 39  1  6  0  0  0
 46 48  1  0  0  0  0
 47 43  1  0  0  0  0
 48 43  2  0  0  0  0
 48 44  1  0  0  0  0
 49 45  2  0  0  0  0
 50 45  1  0  0  0  0
 54 53  2  0  0  0  0
 55 62  1  0  0  0  0
 55 68  1  0  0  0  0
 55 56  1  0  0  0  0
 57 60  1  6  0  0  0
 57 63  1  0  0  0  0
 57 58  1  0  0  0  0
 58 54  1  1  0  0  0
 59 65  1  0  0  0  0
 59 54  1  0  0  0  0
 59 52  1  1  0  0  0
 60 64  1  0  0  0  0
 61 54  2  0  0  0  0
 62 52  1  0  0  0  0
 63 51  1  6  0  0  0
 63 58  1  0  0  0  0
 64 66  1  0  0  0  0
 65 66  1  6  0  0  0
 65 56  1  0  0  0  0
 68 67  1  0  0  0  0
M  END
>  <MODEL>
1

>  <REMARK>
 VINA RESULT:      -5.9      0.000      0.000
  Name = 
  24 active torsions:
  status: ('A' for Active; 'I' for Inactive)
    1  A    between atoms: C_1  and  C_28
    2  A    between atoms: C_3  and  O_16
    3  A    between atoms: C_3  and  C_24
    4  A    between atoms: C_4  and  O_16
    5  A    between atoms: C_4  and  C_63
    6  A    between atoms: C_5  and  C_26
    7  A    between atoms: C_5  and  C_55
    8  A    between atoms: C_5  and  C_61
    9  A    between atoms: C_10  and  N_35
   10  A    between atoms: C_10  and  C_52
   11  A    between atoms: N_14  and  C_65
   12  A    between atoms: C_21  and  C_33
   13  A    between atoms: C_21  and  N_60
   14  A    between atoms: C_24  and  C_57
   15  A    between atoms: C_26  and  S_51
   16  A    between atoms: C_29  and  C_48
   17  A    between atoms: C_29  and  C_63
   18  A    between atoms: C_33  and  C_54
   19  A    between atoms: N_35  and  C_58
   20  A    between atoms: C_40  and  C_48
   21  A    between atoms: S_51  and  C_57
   22  A    between atoms: N_56  and  C_57
   23  A    between atoms: C_58  and  C_66
   24  A    between atoms: C_61  and  C_66
                            x       y       z     vdW  Elec       q    Type
                         _______ _______ _______ _____ _____    ______ ____

>  <TORSDO>
F 24

$$$$
=
 OpenBabel11062419023D

 68 76  0  0  1  0  0  0  0  0999 V2000
  188.2410  174.6470  142.0010 C   0  0  2  0  0  3  0  0  0  0  0  0
  187.6200  176.1610  140.2460 O   0  0  0  0  0  0  0  0  0  0  0  0
  188.6510  175.3140  140.6940 C   0  0  2  0  0  3  0  0  0  0  0  0
  187.7180  174.9040  139.6210 C   0  0  0  0  0  2  0  0  0  0  0  0
  186.3260  175.6190  143.0260 O   0  0  0  0  0  0  0  0  0  0  0  0
  187.5450  175.6030  142.9370 C   0  0  0  0  0  0  0  0  0  0  0  0
  188.5230  176.8010  143.8500 S   0  0  0  0  0  0  0  0  0  0  0  0
  187.7830  176.4190  145.4840 C   0  0  2  0  0  3  0  0  0  0  0  0
  185.6180  179.2350  144.8690 C   0  0  0  0  0  2  0  0  0  0  0  0
  184.7500  178.0740  146.8920 C   0  0  0  0  0  2  0  0  0  0  0  0
  184.6570  178.1900  145.3810 C   0  0  2  0  0  3  0  0  0  0  0  0
  185.5290  177.1180  146.0090 C   0  0  1  0  0  3  0  0  0  0  0  0
  186.9340  177.5400  145.9200 N   0  0  0  0  0  0  0  0  0  0  0  0
  186.9640  178.5610  144.8760 C   0  0  0  0  0  2  0  0  0  0  0  0
  188.9280  176.1530  146.4640 C   0  0  0  0  0  2  0  0  0  0  0  0
  189.6690  177.4400  146.8050 C   0  0  0  0  0  2  0  0  0  0  0  0
  190.9410  177.1350  147.2980 O   0  0  0  0  0  0  0  0  0  0  0  0
  191.5010  176.2660  146.3590 C   0  0  0  0  0  2  0  0  0  0  0  0
  192.7300  174.3420  147.0940 O   0  0  0  0  0  1  0  0  0  0  0  0
  192.8340  175.7170  146.8530 C   0  0  1  0  0  3  0  0  0  0  0  0
  193.9190  175.9980  145.8150 C   0  0  2  0  0  3  0  0  0  0  0  0
  193.7180  177.2570  145.2400 O   0  0  0  0  0  1  0  0  0  0  0  0
  193.9620  174.9130  144.7350 C   0  0  1  0  0  3  0  0  0  0  0  0
  193.1880  175.3000  143.6420 O   0  0  0  0  0  1  0  0  0  0  0  0
  196.1410  173.9370  144.9700 O   0  0  0  0  0  0  0  0  0  0  0  0
  195.3560  174.6300  144.2630 C   0  0  0  0  0  0  0  0  0  0  0  0
  195.8200  175.2360  143.0510 N   0  0  0  0  0  2  0  0  0  0  0  0
  197.1500  174.9930  142.5010 C   0  0  2  0  0  3  0  0  0  0  0  0
  197.9400  176.2920  142.3900 C   0  0  0  0  0  1  0  0  0  0  0  0
  197.0580  174.3140  141.1660 C   0  0  0  0  0  0  0  0  0  0  0  0
  197.5690  173.0930  141.0400 C   0  0  0  0  0  2  0  0  0  0  0  0
  196.4210  174.1390  138.8590 O   0  0  0  0  0  0  0  0  0  0  0  0
  196.9960  175.4320  138.8100 C   0  0  0  0  0  2  0  0  0  0  0  0
  194.9860  175.3170  140.2210 O   0  0  0  0  0  1  0  0  0  0  0  0
  196.3060  174.9260  140.0170 C   0  0  2  0  0  0  0  0  0  0  0  0
  189.4840  174.0490  142.6590 C   0  0  0  0  0  2  0  0  0  0  0  0
  190.4040  173.3760  141.6490 C   0  0  0  0  0  2  0  0  0  0  0  0
  189.8780  172.0050  141.2580 C   0  0  0  0  0  2  0  0  0  0  0  0
  190.8060  172.3050  138.9470 C   0  0  0  0  0  0  0  0  0  0  0  0
  189.9350  173.1820  138.6620 O   0  0  0  0  0  0  0  0  0  0  0  0
  190.6290  171.4910  140.1220 N   0  0  0  0  0  0  0  0  0  0  0  0
  192.3750  173.4450  137.4000 C   0  0  0  0  0  2  0  0  0  0  0  0
  191.7500  171.8880  135.7270 C   0  0  0  0  0  0  0  0  0  0  0  0
  191.5860  169.8240  136.9620 C   0  0  0  0  0  3  0  0  0  0  0  0
  191.3110  169.8460  134.5360 C   0  0  0  0  0  3  0  0  0  0  0  0
  192.0200  172.1090  138.0760 C   0  0  2  0  0  3  0  0  0  0  0  0
  192.0220  173.3270  135.9020 C   0  0  0  0  0  2  0  0  0  0  0  0
  191.7630  171.2060  136.9200 C   0  0  0  0  0  0  0  0  0  0  0  0
  191.5160  171.2330  134.5160 C   0  0  0  0  0  3  0  0  0  0  0  0
  191.3570  169.1420  135.7550 C   0  0  0  0  0  3  0  0  0  0  0  0
  190.9860  170.0750  140.1040 C   0  0  0  0  0  2  0  0  0  0  0  0
  196.6970  170.4120  143.3150 C   0  0  0  0  0  2  0  0  0  0  0  0
  194.7240  172.2540  142.0200 O   0  0  0  0  0  0  0  0  0  0  0  0
  194.5850  170.8010  141.6660 S   0  0  0  0  0  0  0  0  0  0  0  0
  196.4710  168.8640  145.2850 N   0  0  0  0  0  0  0  0  0  0  0  0
  195.2320  169.6190  145.4770 C   0  0  0  0  0  2  0  0  0  0  0  0
  192.8710  168.9660  141.3440 C   0  0  1  0  0  3  0  0  0  0  0  0
  192.8970  170.4170  141.5850 N   0  0  2  0  0  0  0  0  0  0  0  0
  195.3530  169.8010  142.9410 C   0  0  2  0  0  3  0  0  0  0  0  0
  191.8100  168.3670  142.2710 C   0  0  0  0  0  2  0  0  0  0  0  0
  195.2690  170.5440  140.3510 O   0  0  0  0  0  0  0  0  0  0  0  0
  197.3990  169.6130  144.4250 C   0  0  0  0  0  2  0  0  0  0  0  0
  192.4920  169.8990  140.2670 C   0  0  2  0  0  3  0  0  0  0  0  0
  192.1460  168.6560  143.7380 C   0  0  0  0  0  2  0  0  0  0  0  0
  194.4290  169.6420  144.1740 C   0  0  1  0  0  3  0  0  0  0  0  0
  193.6090  168.3490  144.0840 C   0  0  0  0  0  2  0  0  0  0  0  0
  196.1040  168.8560  147.6300 N   0  0  0  0  0  1  0  0  0  0  0  0
  197.1080  168.7560  146.5890 C   0  0  0  0  0  2  0  0  0  0  0  0
  1 36  1  1  0  0  0
  1  6  1  0  0  0  0
  2  3  1  0  0  0  0
  3  1  1  1  0  0  0
  4  2  1  0  0  0  0
  4  3  1  0  0  0  0
  6  5  2  0  0  0  0
  6  7  1  0  0  0  0
  7  8  1  0  0  0  0
  8 13  1  0  0  0  0
  8 15  1  1  0  0  0
  9 14  1  0  0  0  0
 11  9  1  1  0  0  0
 11 12  1  0  0  0  0
 11 10  1  0  0  0  0
 12 10  1  1  0  0  0
 13 12  1  0  0  0  0
 14 13  1  0  0  0  0
 15 16  1  0  0  0  0
 16 17  1  0  0  0  0
 18 20  1  0  0  0  0
 18 17  1  0  0  0  0
 20 19  1  6  0  0  0
 21 22  1  6  0  0  0
 21 20  1  0  0  0  0
 23 24  1  6  0  0  0
 23 21  1  0  0  0  0
 26 23  1  0  0  0  0
 26 25  2  0  0  0  0
 27 26  1  0  0  0  0
 28 29  1  6  0  0  0
 28 27  1  0  0  0  0
 30 28  1  0  0  0  0
 31 30  2  0  0  0  0
 32 35  1  0  0  0  0
 33 32  1  0  0  0  0
 33 35  1  0  0  0  0
 35 34  1  1  0  0  0
 35 30  1  0  0  0  0
 37 36  1  0  0  0  0
 38 37  1  0  0  0  0
 39 41  1  0  0  0  0
 40 39  2  0  0  0  0
 41 38  1  0  0  0  0
 42 46  1  0  0  0  0
 43 47  1  0  0  0  0
 43 48  1  0  0  0  0
 45 50  2  0  0  0  0
 46 39  1  1  0  0  0
 47 42  1  0  0  0  0
 48 44  2  0  0  0  0
 48 46  1  0  0  0  0
 49 45  1  0  0  0  0
 49 43  2  0  0  0  0
 50 44  1  0  0  0  0
 51 41  1  0  0  0  0
 52 62  1  0  0  0  0
 54 53  2  0  0  0  0
 54 59  1  0  0  0  0
 55 56  1  0  0  0  0
 55 68  1  0  0  0  0
 57 58  1  0  0  0  0
 57 60  1  1  0  0  0
 58 54  1  6  0  0  0
 59 52  1  1  0  0  0
 59 65  1  0  0  0  0
 60 64  1  0  0  0  0
 61 54  2  0  0  0  0
 62 55  1  0  0  0  0
 63 51  1  1  0  0  0
 63 57  1  0  0  0  0
 63 58  1  0  0  0  0
 64 66  1  0  0  0  0
 65 66  1  6  0  0  0
 65 56  1  0  0  0  0
 68 67  1  0  0  0  0
M  END
>  <MODEL>
2

>  <REMARK>
 VINA RESULT:      -5.8      2.544      8.725
  Name = 
  24 active torsions:
  status: ('A' for Active; 'I' for Inactive)
    1  A    between atoms: C_1  and  C_28
    2  A    between atoms: C_3  and  O_16
    3  A    between atoms: C_3  and  C_24
    4  A    between atoms: C_4  and  O_16
    5  A    between atoms: C_4  and  C_63
    6  A    between atoms: C_5  and  C_26
    7  A    between atoms: C_5  and  C_55
    8  A    between atoms: C_5  and  C_61
    9  A    between atoms: C_10  and  N_35
   10  A    between atoms: C_10  and  C_52
   11  A    between atoms: N_14  and  C_65
   12  A    between atoms: C_21  and  C_33
   13  A    between atoms: C_21  and  N_60
   14  A    between atoms: C_24  and  C_57
   15  A    between atoms: C_26  and  S_51
   16  A    between atoms: C_29  and  C_48
   17  A    between atoms: C_29  and  C_63
   18  A    between atoms: C_33  and  C_54
   19  A    between atoms: N_35  and  C_58
   20  A    between atoms: C_40  and  C_48
   21  A    between atoms: S_51  and  C_57
   22  A    between atoms: N_56  and  C_57
   23  A    between atoms: C_58  and  C_66
   24  A    between atoms: C_61  and  C_66
                            x       y       z     vdW  Elec       q    Type
                         _______ _______ _______ _____ _____    ______ ____

>  <TORSDO>
F 24

$$$$
=
 OpenBabel11062419023D

 68 76  0  0  1  0  0  0  0  0999 V2000
  189.7470  172.4800  141.5130 C   0  0  2  0  0  3  0  0  0  0  0  0
  188.5040  172.2650  139.4710 O   0  0  0  0  0  0  0  0  0  0  0  0
  188.5330  172.9310  140.7110 C   0  0  2  0  0  3  0  0  0  0  0  0
  188.9850  173.5870  139.4640 C   0  0  0  0  0  2  0  0  0  0  0  0
  191.0670  174.4570  141.4120 O   0  0  0  0  0  0  0  0  0  0  0  0
  190.4960  173.6400  142.1190 C   0  0  0  0  0  0  0  0  0  0  0  0
  190.6330  173.7540  143.9060 S   0  0  0  0  0  0  0  0  0  0  0  0
  191.4040  175.4180  143.9150 C   0  0  2  0  0  3  0  0  0  0  0  0
  194.8450  176.4420  144.2380 C   0  0  0  0  0  2  0  0  0  0  0  0
  194.0160  175.9370  146.5290 C   0  0  0  0  0  2  0  0  0  0  0  0
  194.2160  177.0180  145.4820 C   0  0  2  0  0  3  0  0  0  0  0  0
  192.8730  176.3220  145.6100 C   0  0  1  0  0  3  0  0  0  0  0  0
  192.7440  175.3420  144.5210 N   0  0  0  0  0  0  0  0  0  0  0  0
  193.7190  175.7540  143.5150 C   0  0  0  0  0  2  0  0  0  0  0  0
  190.4770  176.3580  144.6890 C   0  0  0  0  0  2  0  0  0  0  0  0
  189.2560  175.6140  145.2150 C   0  0  0  0  0  2  0  0  0  0  0  0
  189.4320  175.3180  146.5690 O   0  0  0  0  0  0  0  0  0  0  0  0
  188.3260  175.8750  147.2150 C   0  0  0  0  0  2  0  0  0  0  0  0
  186.0620  175.8910  146.4230 O   0  0  0  0  0  1  0  0  0  0  0  0
  187.3330  176.4370  146.2070 C   0  0  1  0  0  3  0  0  0  0  0  0
  187.2880  177.9600  146.3290 C   0  0  2  0  0  3  0  0  0  0  0  0
  188.1060  178.3800  147.3820 O   0  0  0  0  0  1  0  0  0  0  0  0
  185.8570  178.4700  146.5210 C   0  0  1  0  0  3  0  0  0  0  0  0
  185.8570  179.5780  147.3670 O   0  0  0  0  0  1  0  0  0  0  0  0
  184.1510  179.5460  145.2220 O   0  0  0  0  0  0  0  0  0  0  0  0
  185.2070  178.8520  145.2260 C   0  0  0  0  0  0  0  0  0  0  0  0
  185.7390  178.3390  143.9980 N   0  0  0  0  0  2  0  0  0  0  0  0
  185.1890  178.6830  142.6910 C   0  0  2  0  0  3  0  0  0  0  0  0
  183.7280  178.2590  142.5850 C   0  0  0  0  0  1  0  0  0  0  0  0
  186.0000  178.0620  141.5920 C   0  0  0  0  0  0  0  0  0  0  0  0
  185.5860  178.2130  140.3370 C   0  0  0  0  0  2  0  0  0  0  0  0
  187.6040  176.4260  140.8800 O   0  0  0  0  0  0  0  0  0  0  0  0
  187.4020  175.9480  142.1970 C   0  0  0  0  0  2  0  0  0  0  0  0
  188.4290  178.1810  142.1220 O   0  0  0  0  0  1  0  0  0  0  0  0
  187.3150  177.3870  141.8630 C   0  0  2  0  0  0  0  0  0  0  0  0
  190.6610  171.6590  140.6020 C   0  0  0  0  0  2  0  0  0  0  0  0
  191.6900  170.8580  141.3890 C   0  0  0  0  0  2  0  0  0  0  0  0
  192.7200  170.2320  140.4630 C   0  0  0  0  0  2  0  0  0  0  0  0
  194.2450  171.1060  142.2520 C   0  0  0  0  0  0  0  0  0  0  0  0
  193.4840  172.0950  142.4810 O   0  0  0  0  0  0  0  0  0  0  0  0
  194.0440  170.3220  141.0610 N   0  0  0  0  0  0  0  0  0  0  0  0
  194.7320  170.0980  144.4660 C   0  0  0  0  0  2  0  0  0  0  0  0
  195.7740  172.1340  145.0870 C   0  0  0  0  0  0  0  0  0  0  0  0
  196.9420  172.7640  143.0750 C   0  0  0  0  0  3  0  0  0  0  0  0
  197.2020  174.0680  145.1230 C   0  0  0  0  0  3  0  0  0  0  0  0
  195.3490  170.7410  143.2120 C   0  0  2  0  0  3  0  0  0  0  0  0
  194.8680  171.1030  145.6300 C   0  0  0  0  0  2  0  0  0  0  0  0
  196.0570  171.9320  143.7580 C   0  0  0  0  0  0  0  0  0  0  0  0
  196.3270  173.2030  145.7960 C   0  0  0  0  0  3  0  0  0  0  0  0
  197.5160  173.8420  143.7690 C   0  0  0  0  0  3  0  0  0  0  0  0
  195.1850  169.8100  140.3090 C   0  0  0  0  0  2  0  0  0  0  0  0
  193.4330  173.5380  135.2030 C   0  0  0  0  0  2  0  0  0  0  0  0
  192.1460  171.8290  137.2970 O   0  0  0  0  0  0  0  0  0  0  0  0
  193.6260  171.6400  137.1260 S   0  0  0  0  0  0  0  0  0  0  0  0
  194.7920  175.6450  135.3910 N   0  0  0  0  0  0  0  0  0  0  0  0
  194.2760  175.6130  136.7610 C   0  0  0  0  0  2  0  0  0  0  0  0
  195.7810  171.3660  138.4260 C   0  0  1  0  0  3  0  0  0  0  0  0
  194.3360  171.4300  138.6920 N   0  0  2  0  0  0  0  0  0  0  0  0
  194.3260  173.1010  136.3560 C   0  0  2  0  0  3  0  0  0  0  0  0
  196.4790  172.2420  139.4690 C   0  0  0  0  0  2  0  0  0  0  0  0
  193.8740  170.4460  136.2470 O   0  0  0  0  0  0  0  0  0  0  0  0
  193.9660  174.8030  134.5130 C   0  0  0  0  0  2  0  0  0  0  0  0
  195.0500  170.1500  138.8280 C   0  0  2  0  0  3  0  0  0  0  0  0
  195.9860  173.6900  139.3780 C   0  0  0  0  0  2  0  0  0  0  0  0
  194.5380  174.2400  137.3840 C   0  0  1  0  0  3  0  0  0  0  0  0
  195.9680  174.2220  137.9390 C   0  0  0  0  0  2  0  0  0  0  0  0
  193.4920  177.6260  135.5440 N   0  0  0  0  0  1  0  0  0  0  0  0
  194.6450  177.0130  134.9150 C   0  0  0  0  0  2  0  0  0  0  0  0
  1 36  1  6  0  0  0
  1  6  1  0  0  0  0
  2  3  1  0  0  0  0
  3  1  1  1  0  0  0
  4  2  1  0  0  0  0
  4  3  1  0  0  0  0
  5  6  2  0  0  0  0
  6  7  1  0  0  0  0
  7  8  1  0  0  0  0
  8 13  1  0  0  0  0
  8 15  1  1  0  0  0
 11  9  1  6  0  0  0
 11 12  1  0  0  0  0
 11 10  1  0  0  0  0
 12 10  1  1  0  0  0
 13 12  1  0  0  0  0
 14  9  1  0  0  0  0
 14 13  1  0  0  0  0
 15 16  1  0  0  0  0
 16 17  1  0  0  0  0
 17 18  1  0  0  0  0
 20 21  1  0  0  0  0
 20 19  1  1  0  0  0
 20 18  1  0  0  0  0
 21 23  1  0  0  0  0
 21 22  1  1  0  0  0
 23 24  1  1  0  0  0
 25 26  2  0  0  0  0
 26 23  1  0  0  0  0
 27 26  1  0  0  0  0
 28 29  1  1  0  0  0
 28 27  1  0  0  0  0
 30 35  1  0  0  0  0
 30 28  1  0  0  0  0
 31 30  2  0  0  0  0
 32 35  1  0  0  0  0
 32 33  1  0  0  0  0
 35 34  1  1  0  0  0
 35 33  1  0  0  0  0
 36 37  1  0  0  0  0
 38 41  1  0  0  0  0
 38 37  1  0  0  0  0
 39 40  2  0  0  0  0
 41 39  1  0  0  0  0
 42 47  1  0  0  0  0
 43 47  1  0  0  0  0
 43 49  1  0  0  0  0
 44 48  1  0  0  0  0
 44 50  2  0  0  0  0
 45 49  2  0  0  0  0
 46 39  1  6  0  0  0
 46 48  1  0  0  0  0
 46 42  1  0  0  0  0
 48 43  2  0  0  0  0
 50 45  1  0  0  0  0
 51 41  1  0  0  0  0
 54 53  2  0  0  0  0
 55 56  1  0  0  0  0
 57 58  1  0  0  0  0
 57 63  1  0  0  0  0
 57 60  1  1  0  0  0
 58 54  1  6  0  0  0
 58 63  1  0  0  0  0
 59 52  1  6  0  0  0
 59 54  1  0  0  0  0
 59 65  1  0  0  0  0
 61 54  2  0  0  0  0
 62 52  1  0  0  0  0
 62 55  1  0  0  0  0
 63 51  1  1  0  0  0
 64 60  1  0  0  0  0
 65 56  1  6  0  0  0
 65 66  1  0  0  0  0
 66 64  1  0  0  0  0
 68 55  1  0  0  0  0
 68 67  1  0  0  0  0
M  END
>  <MODEL>
3

>  <REMARK>
 VINA RESULT:      -5.5      2.780     10.572
  Name = 
  24 active torsions:
  status: ('A' for Active; 'I' for Inactive)
    1  A    between atoms: C_1  and  C_28
    2  A    between atoms: C_3  and  O_16
    3  A    between atoms: C_3  and  C_24
    4  A    between atoms: C_4  and  O_16
    5  A    between atoms: C_4  and  C_63
    6  A    between atoms: C_5  and  C_26
    7  A    between atoms: C_5  and  C_55
    8  A    between atoms: C_5  and  C_61
    9  A    between atoms: C_10  and  N_35
   10  A    between atoms: C_10  and  C_52
   11  A    between atoms: N_14  and  C_65
   12  A    between atoms: C_21  and  C_33
   13  A    between atoms: C_21  and  N_60
   14  A    between atoms: C_24  and  C_57
   15  A    between atoms: C_26  and  S_51
   16  A    between atoms: C_29  and  C_48
   17  A    between atoms: C_29  and  C_63
   18  A    between atoms: C_33  and  C_54
   19  A    between atoms: N_35  and  C_58
   20  A    between atoms: C_40  and  C_48
   21  A    between atoms: S_51  and  C_57
   22  A    between atoms: N_56  and  C_57
   23  A    between atoms: C_58  and  C_66
   24  A    between atoms: C_61  and  C_66
                            x       y       z     vdW  Elec       q    Type
                         _______ _______ _______ _____ _____    ______ ____

>  <TORSDO>
F 24

$$$$
=
 OpenBabel11062419023D

 68 76  0  0  1  0  0  0  0  0999 V2000
  191.1570  172.9290  139.9950 C   0  0  2  0  0  3  0  0  0  0  0  0
  189.1310  174.0380  139.3430 O   0  0  0  0  0  0  0  0  0  0  0  0
  189.9730  172.9530  139.0360 C   0  0  2  0  0  3  0  0  0  0  0  0
  188.7200  172.7730  139.8010 C   0  0  0  0  0  2  0  0  0  0  0  0
  193.0380  171.5380  140.4330 O   0  0  0  0  0  0  0  0  0  0  0  0
  192.1500  171.8470  139.6520 C   0  0  0  0  0  0  0  0  0  0  0  0
  192.0830  171.0810  138.0290 S   0  0  0  0  0  0  0  0  0  0  0  0
  193.2790  172.2290  137.2450 C   0  0  2  0  0  3  0  0  0  0  0  0
  196.3620  171.9430  135.3990 C   0  0  0  0  0  2  0  0  0  0  0  0
  196.4960  170.3400  137.2970 C   0  0  0  0  0  2  0  0  0  0  0  0
  196.8160  171.7470  136.8240 C   0  0  2  0  0  3  0  0  0  0  0  0
  195.5480  171.4800  137.6150 C   0  0  1  0  0  3  0  0  0  0  0  0
  194.4080  171.4650  136.6870 N   0  0  0  0  0  0  0  0  0  0  0  0
  194.8750  172.1600  135.4920 C   0  0  0  0  0  2  0  0  0  0  0  0
  193.7340  173.2280  138.3110 C   0  0  0  0  0  2  0  0  0  0  0  0
  193.6700  174.6570  137.7860 C   0  0  0  0  0  2  0  0  0  0  0  0
  194.2850  175.5210  138.6960 O   0  0  0  0  0  0  0  0  0  0  0  0
  194.8510  174.6920  139.6660 C   0  0  0  0  0  2  0  0  0  0  0  0
  194.7230  175.6580  141.8580 O   0  0  0  0  0  1  0  0  0  0  0  0
  195.5540  175.5130  140.7410 C   0  0  1  0  0  3  0  0  0  0  0  0
  196.8630  174.8270  141.1320 C   0  0  2  0  0  3  0  0  0  0  0  0
  197.9370  175.4380  140.4800 O   0  0  0  0  0  1  0  0  0  0  0  0
  196.8280  173.3270  140.8270 C   0  0  1  0  0  3  0  0  0  0  0  0
  197.9020  172.9860  140.0060 O   0  0  0  0  0  1  0  0  0  0  0  0
  197.5350  171.4060  142.0770 O   0  0  0  0  0  0  0  0  0  0  0  0
  196.8830  172.4890  142.0670 C   0  0  0  0  0  0  0  0  0  0  0  0
  196.1100  172.8770  143.2090 N   0  0  0  0  0  2  0  0  0  0  0  0
  196.1270  172.1380  144.4670 C   0  0  2  0  0  3  0  0  0  0  0  0
  197.5210  171.5910  144.7580 C   0  0  0  0  0  1  0  0  0  0  0  0
  195.1180  171.0280  144.4480 C   0  0  0  0  0  0  0  0  0  0  0  0
  194.0070  171.1950  143.7360 C   0  0  0  0  0  2  0  0  0  0  0  0
  194.2260  169.1990  145.7180 O   0  0  0  0  0  0  0  0  0  0  0  0
  195.3040  169.5290  146.5740 C   0  0  0  0  0  2  0  0  0  0  0  0
  196.0290  168.7130  144.3700 O   0  0  0  0  0  1  0  0  0  0  0  0
  195.3850  169.7040  145.1070 C   0  0  2  0  0  0  0  0  0  0  0  0
  190.6330  172.7540  141.4200 C   0  0  0  0  0  2  0  0  0  0  0  0
  191.2320  173.7700  142.3830 C   0  0  0  0  0  2  0  0  0  0  0  0
  190.2280  174.8610  142.7210 C   0  0  0  0  0  2  0  0  0  0  0  0
  190.1660  174.1410  145.1230 C   0  0  0  0  0  0  0  0  0  0  0  0
  189.4840  173.1090  144.8420 O   0  0  0  0  0  0  0  0  0  0  0  0
  190.3040  175.1830  144.1380 N   0  0  0  0  0  0  0  0  0  0  0  0
  190.0670  175.3320  147.2970 C   0  0  0  0  0  2  0  0  0  0  0  0
  192.2510  176.1460  146.8740 C   0  0  0  0  0  0  0  0  0  0  0  0
  193.3440  174.2360  145.8900 C   0  0  0  0  0  3  0  0  0  0  0  0
  194.5990  176.2750  146.3700 C   0  0  0  0  0  3  0  0  0  0  0  0
  190.8320  174.2870  146.4670 C   0  0  2  0  0  3  0  0  0  0  0  0
  190.9470  176.5970  147.3950 C   0  0  0  0  0  2  0  0  0  0  0  0
  192.2010  174.8670  146.3750 C   0  0  0  0  0  0  0  0  0  0  0  0
  193.4390  176.8810  146.8750 C   0  0  0  0  0  3  0  0  0  0  0  0
  194.5530  174.9520  145.8890 C   0  0  0  0  0  3  0  0  0  0  0  0
  190.2830  176.5870  144.5370 C   0  0  0  0  0  2  0  0  0  0  0  0
  185.3760  178.2000  140.4910 C   0  0  0  0  0  2  0  0  0  0  0  0
  187.5100  176.1150  140.7310 O   0  0  0  0  0  0  0  0  0  0  0  0
  187.6900  177.3290  141.5970 S   0  0  0  0  0  0  0  0  0  0  0  0
  183.4140  178.7390  141.9700 N   0  0  0  0  0  0  0  0  0  0  0  0
  183.7660  177.4470  142.5620 C   0  0  0  0  0  2  0  0  0  0  0  0
  188.3290  178.0530  143.9370 C   0  0  1  0  0  3  0  0  0  0  0  0
  188.2950  176.8190  143.1380 N   0  0  2  0  0  0  0  0  0  0  0  0
  186.1040  178.1350  141.8270 C   0  0  2  0  0  3  0  0  0  0  0  0
  187.7530  177.7230  145.3160 C   0  0  0  0  0  2  0  0  0  0  0  0
  188.6400  178.2810  140.9230 O   0  0  0  0  0  0  0  0  0  0  0  0
  183.9950  178.8610  140.6240 C   0  0  0  0  0  2  0  0  0  0  0  0
  189.5870  177.4360  143.4770 C   0  0  2  0  0  3  0  0  0  0  0  0
  186.3140  177.2100  145.1940 C   0  0  0  0  0  2  0  0  0  0  0  0
  185.2570  177.4240  142.9110 C   0  0  1  0  0  3  0  0  0  0  0  0
  185.4460  178.0860  144.2810 C   0  0  0  0  0  2  0  0  0  0  0  0
  181.6310  178.2900  140.4670 N   0  0  0  0  0  1  0  0  0  0  0  0
  181.9680  178.7480  141.8010 C   0  0  0  0  0  2  0  0  0  0  0  0
  1 36  1  1  0  0  0
  2  4  1  0  0  0  0
  3  2  1  0  0  0  0
  3  4  1  0  0  0  0
  3  1  1  1  0  0  0
  6  1  1  0  0  0  0
  6  5  2  0  0  0  0
  7  6  1  0  0  0  0
  8  7  1  0  0  0  0
  8 15  1  1  0  0  0
  9 14  1  0  0  0  0
 11  9  1  6  0  0  0
 11 10  1  0  0  0  0
 11 12  1  0  0  0  0
 12 10  1  6  0  0  0
 13  8  1  0  0  0  0
 13 12  1  0  0  0  0
 14 13  1  0  0  0  0
 16 15  1  0  0  0  0
 16 17  1  0  0  0  0
 17 18  1  0  0  0  0
 18 20  1  0  0  0  0
 20 21  1  0  0  0  0
 20 19  1  1  0  0  0
 21 22  1  6  0  0  0
 23 24  1  6  0  0  0
 23 21  1  0  0  0  0
 23 26  1  0  0  0  0
 26 25  2  0  0  0  0
 26 27  1  0  0  0  0
 27 28  1  0  0  0  0
 28 29  1  6  0  0  0
 30 28  1  0  0  0  0
 30 35  1  0  0  0  0
 31 30  2  0  0  0  0
 32 33  1  0  0  0  0
 35 34  1  6  0  0  0
 35 32  1  0  0  0  0
 35 33  1  0  0  0  0
 36 37  1  0  0  0  0
 37 38  1  0  0  0  0
 38 41  1  0  0  0  0
 40 39  2  0  0  0  0
 41 51  1  0  0  0  0
 41 39  1  0  0  0  0
 42 47  1  0  0  0  0
 43 49  1  0  0  0  0
 43 47  1  0  0  0  0
 44 48  1  0  0  0  0
 45 49  2  0  0  0  0
 46 39  1  6  0  0  0
 46 42  1  0  0  0  0
 48 46  1  0  0  0  0
 48 43  2  0  0  0  0
 50 44  2  0  0  0  0
 50 45  1  0  0  0  0
 52 62  1  0  0  0  0
 53 54  2  0  0  0  0
 54 59  1  0  0  0  0
 55 56  1  0  0  0  0
 57 60  1  1  0  0  0
 58 54  1  6  0  0  0
 58 63  1  0  0  0  0
 58 57  1  0  0  0  0
 59 52  1  6  0  0  0
 59 65  1  0  0  0  0
 61 54  2  0  0  0  0
 62 55  1  0  0  0  0
 63 57  1  0  0  0  0
 63 51  1  1  0  0  0
 64 60  1  0  0  0  0
 65 56  1  6  0  0  0
 65 66  1  0  0  0  0
 66 64  1  0  0  0  0
 67 68  1  0  0  0  0
 68 55  1  0  0  0  0
M  END
>  <MODEL>
4

>  <REMARK>
 VINA RESULT:      -4.8      2.584      6.603
  Name = 
  24 active torsions:
  status: ('A' for Active; 'I' for Inactive)
    1  A    between atoms: C_1  and  C_28
    2  A    between atoms: C_3  and  O_16
    3  A    between atoms: C_3  and  C_24
    4  A    between atoms: C_4  and  O_16
    5  A    between atoms: C_4  and  C_63
    6  A    between atoms: C_5  and  C_26
    7  A    between atoms: C_5  and  C_55
    8  A    between atoms: C_5  and  C_61
    9  A    between atoms: C_10  and  N_35
   10  A    between atoms: C_10  and  C_52
   11  A    between atoms: N_14  and  C_65
   12  A    between atoms: C_21  and  C_33
   13  A    between atoms: C_21  and  N_60
   14  A    between atoms: C_24  and  C_57
   15  A    between atoms: C_26  and  S_51
   16  A    between atoms: C_29  and  C_48
   17  A    between atoms: C_29  and  C_63
   18  A    between atoms: C_33  and  C_54
   19  A    between atoms: N_35  and  C_58
   20  A    between atoms: C_40  and  C_48
   21  A    between atoms: S_51  and  C_57
   22  A    between atoms: N_56  and  C_57
   23  A    between atoms: C_58  and  C_66
   24  A    between atoms: C_61  and  C_66
                            x       y       z     vdW  Elec       q    Type
                         _______ _______ _______ _____ _____    ______ ____

>  <TORSDO>
F 24

$$$$
=
 OpenBabel11062419023D

 68 76  0  0  1  0  0  0  0  0999 V2000
  189.7380  172.6600  140.7240 C   0  0  2  0  0  3  0  0  0  0  0  0
  190.6060  171.7160  142.7530 O   0  0  0  0  0  0  0  0  0  0  0  0
  189.5230  171.6610  141.8550 C   0  0  2  0  0  3  0  0  0  0  0  0
  190.6060  170.6530  141.8310 C   0  0  0  0  0  2  0  0  0  0  0  0
  188.5150  174.6200  140.1530 O   0  0  0  0  0  0  0  0  0  0  0  0
  189.1150  174.0010  141.0200 C   0  0  0  0  0  0  0  0  0  0  0  0
  189.3520  174.7370  142.6400 S   0  0  0  0  0  0  0  0  0  0  0  0
  189.9200  176.3630  142.0100 C   0  0  2  0  0  3  0  0  0  0  0  0
  192.1340  177.5710  144.5860 C   0  0  0  0  0  2  0  0  0  0  0  0
  193.2610  175.6350  143.5040 C   0  0  0  0  0  2  0  0  0  0  0  0
  192.3570  176.0800  144.6390 C   0  0  2  0  0  3  0  0  0  0  0  0
  191.7550  175.5410  143.3530 C   0  0  1  0  0  3  0  0  0  0  0  0
  191.2530  176.6700  142.5570 N   0  0  0  0  0  0  0  0  0  0  0  0
  191.1100  177.7740  143.5020 C   0  0  0  0  0  2  0  0  0  0  0  0
  188.8810  177.4100  142.4150 C   0  0  0  0  0  2  0  0  0  0  0  0
  187.9950  177.7890  141.2340 C   0  0  0  0  0  2  0  0  0  0  0  0
  186.7090  178.0950  141.6890 O   0  0  0  0  0  0  0  0  0  0  0  0
  186.8660  179.2090  142.5160 C   0  0  0  0  0  2  0  0  0  0  0  0
  185.5430  180.3630  144.1500 O   0  0  0  0  0  1  0  0  0  0  0  0
  185.9870  179.0960  143.7540 C   0  0  1  0  0  3  0  0  0  0  0  0
  184.7990  178.1810  143.4550 C   0  0  2  0  0  3  0  0  0  0  0  0
  183.6040  178.8250  143.7880 O   0  0  0  0  0  1  0  0  0  0  0  0
  184.9160  176.8440  144.1920 C   0  0  1  0  0  3  0  0  0  0  0  0
  185.7440  175.9800  143.4780 O   0  0  0  0  0  1  0  0  0  0  0  0
  184.6980  177.3070  146.5360 O   0  0  0  0  0  0  0  0  0  0  0  0
  185.4630  177.0010  145.5790 C   0  0  0  0  0  0  0  0  0  0  0  0
  186.8770  176.8970  145.7890 N   0  0  0  0  0  2  0  0  0  0  0  0
  187.4920  177.0040  147.1070 C   0  0  2  0  0  3  0  0  0  0  0  0
  187.5470  178.4580  147.5660 C   0  0  0  0  0  1  0  0  0  0  0  0
  188.8650  176.3990  147.1050 C   0  0  0  0  0  0  0  0  0  0  0  0
  189.9160  177.2120  147.1610 C   0  0  0  0  0  2  0  0  0  0  0  0
  190.4390  174.5880  147.0750 O   0  0  0  0  0  0  0  0  0  0  0  0
  189.6110  174.1510  146.0120 C   0  0  0  0  0  2  0  0  0  0  0  0
  188.4600  174.1940  148.1850 O   0  0  0  0  0  1  0  0  0  0  0  0
  189.0740  174.9120  147.1630 C   0  0  2  0  0  0  0  0  0  0  0  0
  189.1720  172.0700  139.4330 C   0  0  0  0  0  2  0  0  0  0  0  0
  190.2580  171.7900  138.4030 C   0  0  0  0  0  2  0  0  0  0  0  0
  191.1340  173.0130  138.1860 C   0  0  0  0  0  2  0  0  0  0  0  0
  192.2560  172.2150  136.0890 C   0  0  0  0  0  0  0  0  0  0  0  0
  191.1880  171.6710  135.6710 O   0  0  0  0  0  0  0  0  0  0  0  0
  192.3410  172.6370  137.4630 N   0  0  0  0  0  0  0  0  0  0  0  0
  194.4180  171.2580  135.3370 C   0  0  0  0  0  2  0  0  0  0  0  0
  195.4710  173.2590  136.0440 C   0  0  0  0  0  0  0  0  0  0  0  0
  193.8940  174.9520  135.3680 C   0  0  0  0  0  3  0  0  0  0  0  0
  196.0510  175.5760  136.3260 C   0  0  0  0  0  3  0  0  0  0  0  0
  193.4290  172.4250  135.1660 C   0  0  2  0  0  3  0  0  0  0  0  0
  195.6650  171.7970  136.0690 C   0  0  0  0  0  2  0  0  0  0  0  0
  194.2470  173.6150  135.5320 C   0  0  0  0  0  0  0  0  0  0  0  0
  196.3940  174.2220  136.4600 C   0  0  0  0  0  3  0  0  0  0  0  0
  194.8090  175.9390  135.7720 C   0  0  0  0  0  3  0  0  0  0  0  0
  193.5810  172.4690  138.2150 C   0  0  0  0  0  2  0  0  0  0  0  0
  195.6860  168.3720  142.8870 C   0  0  0  0  0  2  0  0  0  0  0  0
  195.8470  168.6780  139.9140 O   0  0  0  0  0  0  0  0  0  0  0  0
  194.7950  169.5050  140.5950 S   0  0  0  0  0  0  0  0  0  0  0  0
  196.5360  169.8320  144.7500 N   0  0  0  0  0  0  0  0  0  0  0  0
  197.2630  170.4640  143.6490 C   0  0  0  0  0  2  0  0  0  0  0  0
  193.7750  171.8220  140.6380 C   0  0  1  0  0  3  0  0  0  0  0  0
  194.7460  171.0620  139.8360 N   0  0  2  0  0  0  0  0  0  0  0  0
  195.2250  169.7090  142.3240 C   0  0  2  0  0  3  0  0  0  0  0  0
  194.3710  173.2100  140.8840 C   0  0  0  0  0  2  0  0  0  0  0  0
  193.4690  168.8030  140.4910 O   0  0  0  0  0  0  0  0  0  0  0  0
  196.0930  168.4830  144.3650 C   0  0  0  0  0  2  0  0  0  0  0  0
  193.4230  171.3820  139.2750 C   0  0  2  0  0  3  0  0  0  0  0  0
  195.7060  173.1030  141.6280 C   0  0  0  0  0  2  0  0  0  0  0  0
  196.2930  170.8150  142.5180 C   0  0  1  0  0  3  0  0  0  0  0  0
  195.6370  172.1630  142.8390 C   0  0  0  0  0  2  0  0  0  0  0  0
  197.1750  168.4470  146.5700 N   0  0  0  0  0  1  0  0  0  0  0  0
  197.4830  169.6630  145.8420 C   0  0  0  0  0  2  0  0  0  0  0  0
  1 36  1  6  0  0  0
  1  6  1  0  0  0  0
  3  1  1  6  0  0  0
  3  2  1  0  0  0  0
  4  3  1  0  0  0  0
  4  2  1  0  0  0  0
  5  6  2  0  0  0  0
  6  7  1  0  0  0  0
  8 15  1  1  0  0  0
  8 13  1  0  0  0  0
  8  7  1  0  0  0  0
  9 11  1  0  0  0  0
 11 10  1  6  0  0  0
 12 10  1  6  0  0  0
 12 11  1  0  0  0  0
 13 12  1  0  0  0  0
 13 14  1  0  0  0  0
 14  9  1  0  0  0  0
 16 17  1  0  0  0  0
 16 15  1  0  0  0  0
 17 18  1  0  0  0  0
 18 20  1  0  0  0  0
 20 19  1  6  0  0  0
 21 20  1  0  0  0  0
 21 22  1  1  0  0  0
 21 23  1  0  0  0  0
 23 24  1  6  0  0  0
 23 26  1  0  0  0  0
 26 27  1  0  0  0  0
 26 25  2  0  0  0  0
 27 28  1  0  0  0  0
 28 29  1  6  0  0  0
 30 28  1  0  0  0  0
 30 31  2  0  0  0  0
 30 35  1  0  0  0  0
 32 35  1  0  0  0  0
 33 32  1  0  0  0  0
 33 35  1  0  0  0  0
 35 34  1  1  0  0  0
 37 36  1  0  0  0  0
 38 37  1  0  0  0  0
 39 41  1  0  0  0  0
 40 39  2  0  0  0  0
 41 38  1  0  0  0  0
 41 51  1  0  0  0  0
 42 47  1  0  0  0  0
 43 47  1  0  0  0  0
 43 49  1  0  0  0  0
 44 48  1  0  0  0  0
 44 50  2  0  0  0  0
 45 49  2  0  0  0  0
 46 42  1  0  0  0  0
 46 48  1  0  0  0  0
 46 39  1  1  0  0  0
 48 43  2  0  0  0  0
 50 45  1  0  0  0  0
 52 62  1  0  0  0  0
 53 54  2  0  0  0  0
 54 59  1  0  0  0  0
 55 68  1  0  0  0  0
 56 55  1  0  0  0  0
 57 60  1  6  0  0  0
 58 54  1  1  0  0  0
 58 57  1  0  0  0  0
 59 65  1  0  0  0  0
 59 52  1  6  0  0  0
 60 64  1  0  0  0  0
 61 54  2  0  0  0  0
 62 55  1  0  0  0  0
 63 51  1  6  0  0  0
 63 58  1  0  0  0  0
 63 57  1  0  0  0  0
 64 66  1  0  0  0  0
 65 66  1  1  0  0  0
 65 56  1  0  0  0  0
 68 67  1  0  0  0  0
M  END
>  <MODEL>
5

>  <REMARK>
 VINA RESULT:      -4.7      3.014      9.901
  Name = 
  24 active torsions:
  status: ('A' for Active; 'I' for Inactive)
    1  A    between atoms: C_1  and  C_28
    2  A    between atoms: C_3  and  O_16
    3  A    between atoms: C_3  and  C_24
    4  A    between atoms: C_4  and  O_16
    5  A    between atoms: C_4  and  C_63
    6  A    between atoms: C_5  and  C_26
    7  A    between atoms: C_5  and  C_55
    8  A    between atoms: C_5  and  C_61
    9  A    between atoms: C_10  and  N_35
   10  A    between atoms: C_10  and  C_52
   11  A    between atoms: N_14  and  C_65
   12  A    between atoms: C_21  and  C_33
   13  A    between atoms: C_21  and  N_60
   14  A    between atoms: C_24  and  C_57
   15  A    between atoms: C_26  and  S_51
   16  A    between atoms: C_29  and  C_48
   17  A    between atoms: C_29  and  C_63
   18  A    between atoms: C_33  and  C_54
   19  A    between atoms: N_35  and  C_58
   20  A    between atoms: C_40  and  C_48
   21  A    between atoms: S_51  and  C_57
   22  A    between atoms: N_56  and  C_57
   23  A    between atoms: C_58  and  C_66
   24  A    between atoms: C_61  and  C_66
                            x       y       z     vdW  Elec       q    Type
                         _______ _______ _______ _____ _____    ______ ____

>  <TORSDO>
F 24

$$$$
=
 OpenBabel11062419023D

 68 76  0  0  1  0  0  0  0  0999 V2000
  192.1260  175.9050  143.3440 C   0  0  2  0  0  3  0  0  0  0  0  0
  190.6580  177.6970  142.7170 O   0  0  0  0  0  0  0  0  0  0  0  0
  190.9660  176.8010  143.7580 C   0  0  2  0  0  3  0  0  0  0  0  0
  191.4190  178.2100  143.7840 C   0  0  0  0  0  2  0  0  0  0  0  0
  192.5190  174.7800  141.2840 O   0  0  0  0  0  0  0  0  0  0  0  0
  191.7540  174.9730  142.2180 C   0  0  0  0  0  0  0  0  0  0  0  0
  190.1230  174.2220  142.2060 S   0  0  0  0  0  0  0  0  0  0  0  0
  190.6910  172.5640  142.7460 C   0  0  2  0  0  3  0  0  0  0  0  0
  191.3780  169.6230  140.7770 C   0  0  0  0  0  2  0  0  0  0  0  0
  191.1550  171.5270  139.1910 C   0  0  0  0  0  2  0  0  0  0  0  0
  190.4290  170.3930  139.8920 C   0  0  2  0  0  3  0  0  0  0  0  0
  190.3900  171.7950  140.4730 C   0  0  1  0  0  3  0  0  0  0  0  0
  191.3160  171.8600  141.6130 N   0  0  0  0  0  0  0  0  0  0  0  0
  191.5350  170.4720  142.0100 C   0  0  0  0  0  2  0  0  0  0  0  0
  189.4760  171.8090  143.2900 C   0  0  0  0  0  2  0  0  0  0  0  0
  189.1450  172.2530  144.7090 C   0  0  0  0  0  2  0  0  0  0  0  0
  189.8270  173.4360  145.0040 O   0  0  0  0  0  0  0  0  0  0  0  0
  189.8970  173.4850  146.3970 C   0  0  0  0  0  2  0  0  0  0  0  0
  188.4590  174.2270  148.1680 O   0  0  0  0  0  1  0  0  0  0  0  0
  189.0280  174.6090  146.9470 C   0  0  1  0  0  3  0  0  0  0  0  0
  189.8750  175.8700  147.1220 C   0  0  2  0  0  3  0  0  0  0  0  0
  191.0080  175.5820  147.8880 O   0  0  0  0  0  1  0  0  0  0  0  0
  189.0690  177.0070  147.7560 C   0  0  1  0  0  3  0  0  0  0  0  0
  189.9130  178.0760  148.0540 O   0  0  0  0  0  1  0  0  0  0  0  0
  186.8320  177.7680  147.3440 O   0  0  0  0  0  0  0  0  0  0  0  0
  187.9690  177.4960  146.8640 C   0  0  0  0  0  0  0  0  0  0  0  0
  188.1890  177.5550  145.4500 N   0  0  0  0  0  2  0  0  0  0  0  0
  187.1860  178.0460  144.5110 C   0  0  2  0  0  3  0  0  0  0  0  0
  185.8610  178.3110  145.2180 C   0  0  0  0  0  1  0  0  0  0  0  0
  186.9960  177.0790  143.3800 C   0  0  0  0  0  0  0  0  0  0  0  0
  187.2120  175.7870  143.6080 C   0  0  0  0  0  2  0  0  0  0  0  0
  186.8890  178.8160  141.7270 O   0  0  0  0  0  0  0  0  0  0  0  0
  185.4980  178.6360  141.9190 C   0  0  0  0  0  2  0  0  0  0  0  0
  186.6070  176.6650  140.9570 O   0  0  0  0  0  1  0  0  0  0  0  0
  186.4580  177.5170  142.0460 C   0  0  2  0  0  0  0  0  0  0  0  0
  192.6020  175.1200  144.5660 C   0  0  0  0  0  2  0  0  0  0  0  0
  193.6720  174.0960  144.2120 C   0  0  0  0  0  2  0  0  0  0  0  0
  195.0480  174.7410  144.1510 C   0  0  0  0  0  2  0  0  0  0  0  0
  196.5390  173.2360  145.4950 C   0  0  0  0  0  0  0  0  0  0  0  0
  196.4790  174.0030  146.5040 O   0  0  0  0  0  0  0  0  0  0  0  0
  196.0790  173.7160  144.2170 N   0  0  0  0  0  0  0  0  0  0  0  0
  197.9230  171.5090  144.3740 C   0  0  0  0  0  2  0  0  0  0  0  0
  196.0420  170.0700  144.4180 C   0  0  0  0  0  0  0  0  0  0  0  0
  195.0870  170.5150  146.5860 C   0  0  0  0  0  3  0  0  0  0  0  0
  194.1640  168.7640  145.1580 C   0  0  0  0  0  3  0  0  0  0  0  0
  197.0800  171.8350  145.6190 C   0  0  2  0  0  3  0  0  0  0  0  0
  197.1380  170.4880  143.5230 C   0  0  0  0  0  2  0  0  0  0  0  0
  196.0130  170.7970  145.5830 C   0  0  0  0  0  0  0  0  0  0  0  0
  195.1200  169.0500  144.1730 C   0  0  0  0  0  3  0  0  0  0  0  0
  194.1540  169.4880  146.3650 C   0  0  0  0  0  3  0  0  0  0  0  0
  196.7930  173.3650  142.9930 C   0  0  0  0  0  2  0  0  0  0  0  0
  195.6120  174.1200  136.5830 C   0  0  0  0  0  2  0  0  0  0  0  0
  197.7640  174.7400  138.5700 O   0  0  0  0  0  0  0  0  0  0  0  0
  196.4260  174.3840  139.1530 S   0  0  0  0  0  0  0  0  0  0  0  0
  194.6700  171.9260  135.7940 N   0  0  0  0  0  0  0  0  0  0  0  0
  195.8520  171.4040  136.4840 C   0  0  0  0  0  2  0  0  0  0  0  0
  195.3280  173.0160  140.9780 C   0  0  1  0  0  3  0  0  0  0  0  0
  196.6840  173.3980  140.5540 N   0  0  2  0  0  0  0  0  0  0  0  0
  195.4810  173.4540  137.9460 C   0  0  2  0  0  3  0  0  0  0  0  0
  195.3550  171.5220  141.3100 C   0  0  0  0  0  2  0  0  0  0  0  0
  195.6860  175.6460  139.5000 O   0  0  0  0  0  0  0  0  0  0  0  0
  194.8420  173.3560  135.4950 C   0  0  0  0  0  2  0  0  0  0  0  0
  196.1080  173.9810  141.7760 C   0  0  2  0  0  3  0  0  0  0  0  0
  195.7780  170.7030  140.0860 C   0  0  0  0  0  2  0  0  0  0  0  0
  195.9160  171.9670  137.9050 C   0  0  1  0  0  3  0  0  0  0  0  0
  195.0260  171.1080  138.8110 C   0  0  0  0  0  2  0  0  0  0  0  0
  193.9190  169.9660  134.6850 N   0  0  0  0  0  1  0  0  0  0  0  0
  194.5900  171.2400  134.5130 C   0  0  0  0  0  2  0  0  0  0  0  0
  1 36  1  1  0  0  0
  2  3  1  0  0  0  0
  2  4  1  0  0  0  0
  3  1  1  6  0  0  0
  3  4  1  0  0  0  0
  5  6  2  0  0  0  0
  6  1  1  0  0  0  0
  7  6  1  0  0  0  0
  7  8  1  0  0  0  0
  8 15  1  6  0  0  0
  9 14  1  0  0  0  0
 11 10  1  6  0  0  0
 11 12  1  0  0  0  0
 11  9  1  0  0  0  0
 12 10  1  6  0  0  0
 12 13  1  0  0  0  0
 13 14  1  0  0  0  0
 13  8  1  0  0  0  0
 15 16  1  0  0  0  0
 16 17  1  0  0  0  0
 17 18  1  0  0  0  0
 18 20  1  0  0  0  0
 20 21  1  0  0  0  0
 20 19  1  1  0  0  0
 21 23  1  0  0  0  0
 21 22  1  1  0  0  0
 23 24  1  6  0  0  0
 26 25  2  0  0  0  0
 26 23  1  0  0  0  0
 27 26  1  0  0  0  0
 28 29  1  1  0  0  0
 28 27  1  0  0  0  0
 30 31  2  0  0  0  0
 30 28  1  0  0  0  0
 32 33  1  0  0  0  0
 32 35  1  0  0  0  0
 33 35  1  0  0  0  0
 35 34  1  6  0  0  0
 35 30  1  0  0  0  0
 37 36  1  0  0  0  0
 38 37  1  0  0  0  0
 38 41  1  0  0  0  0
 39 40  2  0  0  0  0
 41 39  1  0  0  0  0
 42 46  1  0  0  0  0
 43 48  1  0  0  0  0
 45 50  2  0  0  0  0
 46 39  1  6  0  0  0
 47 42  1  0  0  0  0
 47 43  1  0  0  0  0
 48 46  1  0  0  0  0
 48 44  2  0  0  0  0
 49 43  2  0  0  0  0
 49 45  1  0  0  0  0
 50 44  1  0  0  0  0
 51 41  1  0  0  0  0
 53 54  2  0  0  0  0
 54 61  2  0  0  0  0
 55 56  1  0  0  0  0
 57 60  1  1  0  0  0
 57 63  1  0  0  0  0
 58 54  1  6  0  0  0
 58 57  1  0  0  0  0
 58 63  1  0  0  0  0
 59 52  1  6  0  0  0
 59 54  1  0  0  0  0
 62 55  1  0  0  0  0
 62 52  1  0  0  0  0
 63 51  1  1  0  0  0
 64 60  1  0  0  0  0
 65 56  1  6  0  0  0
 65 59  1  0  0  0  0
 65 66  1  0  0  0  0
 66 64  1  0  0  0  0
 68 67  1  0  0  0  0
 68 55  1  0  0  0  0
M  END
>  <MODEL>
6

>  <REMARK>
 VINA RESULT:      -4.6      2.701      9.996
  Name = 
  24 active torsions:
  status: ('A' for Active; 'I' for Inactive)
    1  A    between atoms: C_1  and  C_28
    2  A    between atoms: C_3  and  O_16
    3  A    between atoms: C_3  and  C_24
    4  A    between atoms: C_4  and  O_16
    5  A    between atoms: C_4  and  C_63
    6  A    between atoms: C_5  and  C_26
    7  A    between atoms: C_5  and  C_55
    8  A    between atoms: C_5  and  C_61
    9  A    between atoms: C_10  and  N_35
   10  A    between atoms: C_10  and  C_52
   11  A    between atoms: N_14  and  C_65
   12  A    between atoms: C_21  and  C_33
   13  A    between atoms: C_21  and  N_60
   14  A    between atoms: C_24  and  C_57
   15  A    between atoms: C_26  and  S_51
   16  A    between atoms: C_29  and  C_48
   17  A    between atoms: C_29  and  C_63
   18  A    between atoms: C_33  and  C_54
   19  A    between atoms: N_35  and  C_58
   20  A    between atoms: C_40  and  C_48
   21  A    between atoms: S_51  and  C_57
   22  A    between atoms: N_56  and  C_57
   23  A    between atoms: C_58  and  C_66
   24  A    between atoms: C_61  and  C_66
                            x       y       z     vdW  Elec       q    Type
                         _______ _______ _______ _____ _____    ______ ____

>  <TORSDO>
F 24

$$$$
=
 OpenBabel11062419023D

 68 76  0  0  1  0  0  0  0  0999 V2000
  191.8840  173.6890  143.0760 C   0  0  2  0  0  3  0  0  0  0  0  0
  190.9500  174.2450  145.2150 O   0  0  0  0  0  0  0  0  0  0  0  0
  192.1590  173.9780  144.5460 C   0  0  2  0  0  3  0  0  0  0  0  0
  191.7330  175.3590  144.8620 C   0  0  0  0  0  2  0  0  0  0  0  0
  190.3300  171.9310  143.4760 O   0  0  0  0  0  0  0  0  0  0  0  0
  191.3170  172.3080  142.8610 C   0  0  0  0  0  0  0  0  0  0  0  0
  192.1730  171.1720  141.7650 S   0  0  0  0  0  0  0  0  0  0  0  0
  190.7660  170.9520  140.6100 C   0  0  2  0  0  3  0  0  0  0  0  0
  190.6260  168.2990  138.1730 C   0  0  0  0  0  2  0  0  0  0  0  0
  191.1900  170.3880  136.9460 C   0  0  0  0  0  2  0  0  0  0  0  0
  190.0690  169.4740  137.4080 C   0  0  2  0  0  3  0  0  0  0  0  0
  190.4400  170.6970  138.2280 C   0  0  1  0  0  3  0  0  0  0  0  0
  191.2260  170.2640  139.3920 N   0  0  0  0  0  0  0  0  0  0  0  0
  190.9390  168.8400  139.5420 C   0  0  0  0  0  2  0  0  0  0  0  0
  190.1930  172.3370  140.3030 C   0  0  0  0  0  2  0  0  0  0  0  0
  188.6910  172.2660  140.0550 C   0  0  0  0  0  2  0  0  0  0  0  0
  188.1680  173.5590  139.9640 O   0  0  0  0  0  0  0  0  0  0  0  0
  189.2260  174.4090  140.2910 C   0  0  0  0  0  2  0  0  0  0  0  0
  187.3240  175.7070  140.9650 O   0  0  0  0  0  1  0  0  0  0  0  0
  188.7230  175.6510  141.0150 C   0  0  1  0  0  3  0  0  0  0  0  0
  189.2050  175.6280  142.4650 C   0  0  2  0  0  3  0  0  0  0  0  0
  188.6040  174.5710  143.1530 O   0  0  0  0  0  1  0  0  0  0  0  0
  188.9310  176.9580  143.1730 C   0  0  1  0  0  3  0  0  0  0  0  0
  188.6020  177.9350  142.2350 O   0  0  0  0  0  1  0  0  0  0  0  0
  187.0290  175.8710  144.1490 O   0  0  0  0  0  0  0  0  0  0  0  0
  187.8190  176.8560  144.1730 C   0  0  0  0  0  0  0  0  0  0  0  0
  187.6030  177.9350  145.0900 N   0  0  0  0  0  2  0  0  0  0  0  0
  186.5660  177.9070  146.1160 C   0  0  2  0  0  3  0  0  0  0  0  0
  186.3460  176.4880  146.6310 C   0  0  0  0  0  1  0  0  0  0  0  0
  185.2830  178.4830  145.5930 C   0  0  0  0  0  0  0  0  0  0  0  0
  184.2220  178.4990  146.3950 C   0  0  0  0  0  2  0  0  0  0  0  0
  183.9370  178.9630  143.6660 O   0  0  0  0  0  0  0  0  0  0  0  0
  185.0330  178.3640  143.0000 C   0  0  0  0  0  2  0  0  0  0  0  0
  185.6170  180.4680  144.1290 O   0  0  0  0  0  1  0  0  0  0  0  0
  185.2040  179.1440  144.2450 C   0  0  2  0  0  0  0  0  0  0  0  0
  193.1800  173.8740  142.2870 C   0  0  0  0  0  2  0  0  0  0  0  0
  193.0660  174.9780  141.2440 C   0  0  0  0  0  2  0  0  0  0  0  0
  194.3640  175.7620  141.1340 C   0  0  0  0  0  2  0  0  0  0  0  0
  194.3080  174.7600  138.8350 C   0  0  0  0  0  0  0  0  0  0  0  0
  193.3600  173.9770  139.1510 O   0  0  0  0  0  0  0  0  0  0  0  0
  195.0240  175.4530  139.8740 N   0  0  0  0  0  0  0  0  0  0  0  0
  193.7770  176.0570  136.7890 C   0  0  0  0  0  2  0  0  0  0  0  0
  193.3560  174.0070  135.6790 C   0  0  0  0  0  0  0  0  0  0  0  0
  195.1010  172.5790  136.5300 C   0  0  0  0  0  3  0  0  0  0  0  0
  193.5890  171.7870  134.7850 C   0  0  0  0  0  3  0  0  0  0  0  0
  194.6860  174.9730  137.3920 C   0  0  2  0  0  3  0  0  0  0  0  0
  192.8040  175.3690  135.8070 C   0  0  0  0  0  2  0  0  0  0  0  0
  194.4050  173.7850  136.5380 C   0  0  0  0  0  0  0  0  0  0  0  0
  192.9180  173.0180  134.7950 C   0  0  0  0  0  3  0  0  0  0  0  0
  194.6840  171.5720  135.6430 C   0  0  0  0  0  3  0  0  0  0  0  0
  196.4690  175.6430  139.7780 C   0  0  0  0  0  2  0  0  0  0  0  0
  197.2830  171.8730  145.0860 C   0  0  0  0  0  2  0  0  0  0  0  0
  195.4180  173.9900  144.0860 O   0  0  0  0  0  0  0  0  0  0  0  0
  196.7170  173.8660  143.3420 S   0  0  0  0  0  0  0  0  0  0  0  0
  197.7850  169.5660  144.2200 N   0  0  0  0  0  0  0  0  0  0  0  0
  196.5870  169.8270  143.4200 C   0  0  0  0  0  2  0  0  0  0  0  0
  197.7020  173.8300  141.0100 C   0  0  1  0  0  3  0  0  0  0  0  0
  196.4020  174.0780  141.6510 N   0  0  2  0  0  0  0  0  0  0  0  0
  197.4020  172.2310  143.6110 C   0  0  2  0  0  3  0  0  0  0  0  0
  197.4510  172.9350  139.7940 C   0  0  0  0  0  2  0  0  0  0  0  0
  197.6810  174.9010  143.8540 O   0  0  0  0  0  0  0  0  0  0  0  0
  197.8330  170.4690  145.3800 C   0  0  0  0  0  2  0  0  0  0  0  0
  197.1550  175.1990  141.0660 C   0  0  2  0  0  3  0  0  0  0  0  0
  196.8090  171.6110  140.2200 C   0  0  0  0  0  2  0  0  0  0  0  0
  196.7230  171.1740  142.7040 C   0  0  1  0  0  3  0  0  0  0  0  0
  197.5210  170.9610  141.4130 C   0  0  0  0  0  2  0  0  0  0  0  0
  196.5840  168.1760  145.7250 N   0  0  0  0  0  1  0  0  0  0  0  0
  197.6560  168.2160  144.7490 C   0  0  0  0  0  2  0  0  0  0  0  0
  1 36  1  6  0  0  0
  3  1  1  6  0  0  0
  3  4  1  0  0  0  0
  3  2  1  0  0  0  0
  4  2  1  0  0  0  0
  6  1  1  0  0  0  0
  6  5  2  0  0  0  0
  7  6  1  0  0  0  0
  8 15  1  6  0  0  0
  8  7  1  0  0  0  0
  9 14  1  0  0  0  0
 11 10  1  6  0  0  0
 11  9  1  0  0  0  0
 11 12  1  0  0  0  0
 12 10  1  6  0  0  0
 12 13  1  0  0  0  0
 13 14  1  0  0  0  0
 13  8  1  0  0  0  0
 16 15  1  0  0  0  0
 17 16  1  0  0  0  0
 17 18  1  0  0  0  0
 18 20  1  0  0  0  0
 20 19  1  1  0  0  0
 20 21  1  0  0  0  0
 21 22  1  1  0  0  0
 21 23  1  0  0  0  0
 23 24  1  6  0  0  0
 23 26  1  0  0  0  0
 25 26  2  0  0  0  0
 26 27  1  0  0  0  0
 27 28  1  0  0  0  0
 28 29  1  6  0  0  0
 30 28  1  0  0  0  0
 30 31  2  0  0  0  0
 32 35  1  0  0  0  0
 33 32  1  0  0  0  0
 33 35  1  0  0  0  0
 35 34  1  6  0  0  0
 35 30  1  0  0  0  0
 37 36  1  0  0  0  0
 38 37  1  0  0  0  0
 39 40  2  0  0  0  0
 39 41  1  0  0  0  0
 41 38  1  0  0  0  0
 42 46  1  0  0  0  0
 43 47  1  0  0  0  0
 43 48  1  0  0  0  0
 44 48  2  0  0  0  0
 45 49  1  0  0  0  0
 45 50  2  0  0  0  0
 46 39  1  1  0  0  0
 47 42  1  0  0  0  0
 48 46  1  0  0  0  0
 49 43  2  0  0  0  0
 50 44  1  0  0  0  0
 51 41  1  0  0  0  0
 52 62  1  0  0  0  0
 54 59  1  0  0  0  0
 54 61  2  0  0  0  0
 54 53  2  0  0  0  0
 55 68  1  0  0  0  0
 55 62  1  0  0  0  0
 56 55  1  0  0  0  0
 57 60  1  6  0  0  0
 57 63  1  0  0  0  0
 57 58  1  0  0  0  0
 58 54  1  1  0  0  0
 59 52  1  1  0  0  0
 60 64  1  0  0  0  0
 63 51  1  6  0  0  0
 63 58  1  0  0  0  0
 64 66  1  0  0  0  0
 65 66  1  6  0  0  0
 65 56  1  0  0  0  0
 65 59  1  0  0  0  0
 68 67  1  0  0  0  0
M  END
>  <MODEL>
7

>  <REMARK>
 VINA RESULT:      -4.4      2.649      9.149
  Name = 
  24 active torsions:
  status: ('A' for Active; 'I' for Inactive)
    1  A    between atoms: C_1  and  C_28
    2  A    between atoms: C_3  and  O_16
    3  A    between atoms: C_3  and  C_24
    4  A    between atoms: C_4  and  O_16
    5  A    between atoms: C_4  and  C_63
    6  A    between atoms: C_5  and  C_26
    7  A    between atoms: C_5  and  C_55
    8  A    between atoms: C_5  and  C_61
    9  A    between atoms: C_10  and  N_35
   10  A    between atoms: C_10  and  C_52
   11  A    between atoms: N_14  and  C_65
   12  A    between atoms: C_21  and  C_33
   13  A    between atoms: C_21  and  N_60
   14  A    between atoms: C_24  and  C_57
   15  A    between atoms: C_26  and  S_51
   16  A    between atoms: C_29  and  C_48
   17  A    between atoms: C_29  and  C_63
   18  A    between atoms: C_33  and  C_54
   19  A    between atoms: N_35  and  C_58
   20  A    between atoms: C_40  and  C_48
   21  A    between atoms: S_51  and  C_57
   22  A    between atoms: N_56  and  C_57
   23  A    between atoms: C_58  and  C_66
   24  A    between atoms: C_61  and  C_66
                            x       y       z     vdW  Elec       q    Type
                         _______ _______ _______ _____ _____    ______ ____

>  <TORSDO>
F 24

$$$$
=
 OpenBabel11062419023D

 68 76  0  0  1  0  0  0  0  0999 V2000
  189.0940  173.3210  140.3120 C   0  0  2  0  0  3  0  0  0  0  0  0
  190.5750  172.5460  142.0340 O   0  0  0  0  0  0  0  0  0  0  0  0
  189.2170  172.7230  141.7070 C   0  0  2  0  0  3  0  0  0  0  0  0
  189.8730  171.3990  141.6180 C   0  0  0  0  0  2  0  0  0  0  0  0
  187.8230  175.0050  139.2100 O   0  0  0  0  0  0  0  0  0  0  0  0
  188.1410  174.4890  140.2720 C   0  0  0  0  0  0  0  0  0  0  0  0
  187.5530  175.1920  141.8160 S   0  0  0  0  0  0  0  0  0  0  0  0
  188.5340  176.7360  141.6890 C   0  0  2  0  0  3  0  0  0  0  0  0
  191.9640  176.6580  142.7950 C   0  0  0  0  0  2  0  0  0  0  0  0
  190.7450  178.2130  144.3070 C   0  0  0  0  0  2  0  0  0  0  0  0
  191.5750  178.0950  143.0420 C   0  0  2  0  0  3  0  0  0  0  0  0
  190.0600  178.1190  142.9570 C   0  0  1  0  0  3  0  0  0  0  0  0
  189.5780  176.7490  142.7280 N   0  0  0  0  0  0  0  0  0  0  0  0
  190.7330  176.0160  142.2160 C   0  0  0  0  0  2  0  0  0  0  0  0
  187.5690  177.9150  141.8330 C   0  0  0  0  0  2  0  0  0  0  0  0
  186.1490  177.5110  141.4570 C   0  0  0  0  0  2  0  0  0  0  0  0
  185.2880  177.7650  142.5270 O   0  0  0  0  0  0  0  0  0  0  0  0
  185.7530  178.9500  143.1020 C   0  0  0  0  0  2  0  0  0  0  0  0
  185.9270  179.9910  145.2560 O   0  0  0  0  0  1  0  0  0  0  0  0
  186.0260  178.7630  144.5890 C   0  0  1  0  0  3  0  0  0  0  0  0
  185.0300  177.7580  145.1680 C   0  0  2  0  0  3  0  0  0  0  0  0
  184.2610  178.3660  146.1650 O   0  0  0  0  0  1  0  0  0  0  0  0
  185.7370  176.5150  145.7150 C   0  0  1  0  0  3  0  0  0  0  0  0
  186.3200  175.8020  144.6680 O   0  0  0  0  0  1  0  0  0  0  0  0
  186.5410  177.6290  147.6810 O   0  0  0  0  0  0  0  0  0  0  0  0
  186.7990  176.8540  146.7170 C   0  0  0  0  0  0  0  0  0  0  0  0
  188.1320  176.3700  146.5150 N   0  0  0  0  0  2  0  0  0  0  0  0
  189.2190  176.6240  147.4540 C   0  0  2  0  0  3  0  0  0  0  0  0
  189.7990  178.0210  147.2510 C   0  0  0  0  0  1  0  0  0  0  0  0
  190.2910  175.5830  147.3230 C   0  0  0  0  0  0  0  0  0  0  0  0
  191.0170  175.2830  148.3960 C   0  0  0  0  0  2  0  0  0  0  0  0
  189.3320  174.8550  145.2480 O   0  0  0  0  0  0  0  0  0  0  0  0
  189.6830  173.5840  145.7630 C   0  0  0  0  0  2  0  0  0  0  0  0
  191.6290  175.0150  145.3020 O   0  0  0  0  0  1  0  0  0  0  0  0
  190.4790  174.7960  146.0560 C   0  0  2  0  0  0  0  0  0  0  0  0
  188.6510  172.2250  139.3430 C   0  0  0  0  0  2  0  0  0  0  0  0
  189.5670  172.1220  138.1310 C   0  0  0  0  0  2  0  0  0  0  0  0
  190.4140  173.3750  137.9780 C   0  0  0  0  0  2  0  0  0  0  0  0
  191.3170  172.7710  135.7170 C   0  0  0  0  0  0  0  0  0  0  0  0
  190.2300  172.2050  135.3850 O   0  0  0  0  0  0  0  0  0  0  0  0
  191.5430  173.1060  137.0990 N   0  0  0  0  0  0  0  0  0  0  0  0
  193.3400  171.9130  134.5670 C   0  0  0  0  0  2  0  0  0  0  0  0
  194.5230  173.7930  135.3910 C   0  0  0  0  0  0  0  0  0  0  0  0
  192.9120  175.5720  135.1610 C   0  0  0  0  0  3  0  0  0  0  0  0
  195.1890  176.0460  135.9030 C   0  0  0  0  0  3  0  0  0  0  0  0
  192.3650  173.0970  134.6850 C   0  0  2  0  0  3  0  0  0  0  0  0
  194.6840  172.3400  135.1950 C   0  0  0  0  0  2  0  0  0  0  0  0
  193.2520  174.2220  135.0960 C   0  0  0  0  0  0  0  0  0  0  0  0
  195.5140  174.6850  135.8080 C   0  0  0  0  0  3  0  0  0  0  0  0
  193.8950  176.4890  135.5700 C   0  0  0  0  0  3  0  0  0  0  0  0
  192.8680  172.9490  137.6930 C   0  0  0  0  0  2  0  0  0  0  0  0
  195.1970  170.5770  143.3490 C   0  0  0  0  0  2  0  0  0  0  0  0
  195.3950  170.0170  140.4150 O   0  0  0  0  0  0  0  0  0  0  0  0
  194.2660  170.9170  140.8290 S   0  0  0  0  0  0  0  0  0  0  0  0
  195.8890  172.5810  144.7020 N   0  0  0  0  0  0  0  0  0  0  0  0
  196.5860  172.9240  143.4610 C   0  0  0  0  0  2  0  0  0  0  0  0
  193.0640  173.0540  140.1980 C   0  0  1  0  0  3  0  0  0  0  0  0
  194.1080  172.1760  139.6490 N   0  0  2  0  0  0  0  0  0  0  0  0
  194.6430  171.6500  142.4210 C   0  0  2  0  0  3  0  0  0  0  0  0
  193.5410  174.4980  140.0260 C   0  0  0  0  0  2  0  0  0  0  0  0
  193.0030  170.1080  140.9390 O   0  0  0  0  0  0  0  0  0  0  0  0
  195.5640  171.1470  144.7280 C   0  0  0  0  0  2  0  0  0  0  0  0
  192.7760  172.2090  139.0240 C   0  0  2  0  0  3  0  0  0  0  0  0
  194.8650  174.7230  140.7640 C   0  0  0  0  0  2  0  0  0  0  0  0
  195.6150  172.8490  142.2800 C   0  0  1  0  0  3  0  0  0  0  0  0
  194.8470  174.1730  142.1970 C   0  0  0  0  0  2  0  0  0  0  0  0
  197.7300  173.8900  145.4330 N   0  0  0  0  0  1  0  0  0  0  0  0
  196.8240  172.8160  145.7920 C   0  0  0  0  0  2  0  0  0  0  0  0
  1 36  1  6  0  0  0
  3  1  1  6  0  0  0
  3  2  1  0  0  0  0
  4  3  1  0  0  0  0
  4  2  1  0  0  0  0
  5  6  2  0  0  0  0
  6  1  1  0  0  0  0
  6  7  1  0  0  0  0
  8  7  1  0  0  0  0
  8 15  1  1  0  0  0
  8 13  1  0  0  0  0
 11  9  1  1  0  0  0
 11 10  1  0  0  0  0
 12 11  1  0  0  0  0
 12 10  1  1  0  0  0
 13 12  1  0  0  0  0
 14 13  1  0  0  0  0
 14  9  1  0  0  0  0
 16 15  1  0  0  0  0
 16 17  1  0  0  0  0
 17 18  1  0  0  0  0
 18 20  1  0  0  0  0
 20 21  1  0  0  0  0
 20 19  1  1  0  0  0
 21 23  1  0  0  0  0
 21 22  1  1  0  0  0
 23 24  1  6  0  0  0
 23 26  1  0  0  0  0
 26 25  2  0  0  0  0
 27 26  1  0  0  0  0
 27 28  1  0  0  0  0
 28 29  1  6  0  0  0
 30 28  1  0  0  0  0
 30 31  2  0  0  0  0
 32 33  1  0  0  0  0
 32 35  1  0  0  0  0
 33 35  1  0  0  0  0
 35 34  1  6  0  0  0
 35 30  1  0  0  0  0
 37 36  1  0  0  0  0
 38 37  1  0  0  0  0
 39 41  1  0  0  0  0
 40 39  2  0  0  0  0
 41 51  1  0  0  0  0
 41 38  1  0  0  0  0
 42 46  1  0  0  0  0
 42 47  1  0  0  0  0
 43 49  1  0  0  0  0
 44 50  2  0  0  0  0
 46 48  1  0  0  0  0
 46 39  1  1  0  0  0
 47 43  1  0  0  0  0
 48 44  1  0  0  0  0
 48 43  2  0  0  0  0
 49 45  2  0  0  0  0
 50 45  1  0  0  0  0
 52 62  1  0  0  0  0
 53 54  2  0  0  0  0
 54 61  2  0  0  0  0
 54 59  1  0  0  0  0
 55 62  1  0  0  0  0
 55 68  1  0  0  0  0
 56 55  1  0  0  0  0
 57 60  1  6  0  0  0
 58 57  1  0  0  0  0
 58 54  1  1  0  0  0
 59 52  1  1  0  0  0
 60 64  1  0  0  0  0
 63 51  1  6  0  0  0
 63 58  1  0  0  0  0
 63 57  1  0  0  0  0
 64 66  1  0  0  0  0
 65 66  1  1  0  0  0
 65 59  1  0  0  0  0
 65 56  1  0  0  0  0
 67 68  1  0  0  0  0
M  END
>  <MODEL>
8

>  <REMARK>
 VINA RESULT:      -4.2      2.808      9.533
  Name = 
  24 active torsions:
  status: ('A' for Active; 'I' for Inactive)
    1  A    between atoms: C_1  and  C_28
    2  A    between atoms: C_3  and  O_16
    3  A    between atoms: C_3  and  C_24
    4  A    between atoms: C_4  and  O_16
    5  A    between atoms: C_4  and  C_63
    6  A    between atoms: C_5  and  C_26
    7  A    between atoms: C_5  and  C_55
    8  A    between atoms: C_5  and  C_61
    9  A    between atoms: C_10  and  N_35
   10  A    between atoms: C_10  and  C_52
   11  A    between atoms: N_14  and  C_65
   12  A    between atoms: C_21  and  C_33
   13  A    between atoms: C_21  and  N_60
   14  A    between atoms: C_24  and  C_57
   15  A    between atoms: C_26  and  S_51
   16  A    between atoms: C_29  and  C_48
   17  A    between atoms: C_29  and  C_63
   18  A    between atoms: C_33  and  C_54
   19  A    between atoms: N_35  and  C_58
   20  A    between atoms: C_40  and  C_48
   21  A    between atoms: S_51  and  C_57
   22  A    between atoms: N_56  and  C_57
   23  A    between atoms: C_58  and  C_66
   24  A    between atoms: C_61  and  C_66
                            x       y       z     vdW  Elec       q    Type
                         _______ _______ _______ _____ _____    ______ ____

>  <TORSDO>
F 24

$$$$
=
 OpenBabel11062419023D

 68 76  0  0  1  0  0  0  0  0999 V2000
  192.1930  169.0600  141.8760 C   0  0  2  0  0  3  0  0  0  0  0  0
  194.3430  169.3790  142.8940 O   0  0  0  0  0  0  0  0  0  0  0  0
  193.2950  170.0490  142.2340 C   0  0  2  0  0  3  0  0  0  0  0  0
  193.4490  170.1020  143.7050 C   0  0  0  0  0  2  0  0  0  0  0  0
  191.1550  168.5360  139.8000 O   0  0  0  0  0  0  0  0  0  0  0  0
  192.2010  168.7000  140.4120 C   0  0  0  0  0  0  0  0  0  0  0  0
  193.7700  168.4080  139.5910 S   0  0  0  0  0  0  0  0  0  0  0  0
  193.3650  169.3830  138.0910 C   0  0  2  0  0  3  0  0  0  0  0  0
  192.4140  168.1720  134.8310 C   0  0  0  0  0  2  0  0  0  0  0  0
  194.8950  168.3680  134.8420 C   0  0  0  0  0  2  0  0  0  0  0  0
  193.5870  169.0670  134.5170 C   0  0  2  0  0  3  0  0  0  0  0  0
  194.2700  169.3140  135.8500 C   0  0  1  0  0  3  0  0  0  0  0  0
  193.5640  168.5530  136.8900 N   0  0  0  0  0  0  0  0  0  0  0  0
  192.2510  168.2560  136.3250 C   0  0  0  0  0  2  0  0  0  0  0  0
  194.2610  170.6230  138.0840 C   0  0  0  0  0  2  0  0  0  0  0  0
  195.1390  170.6730  139.3280 C   0  0  0  0  0  2  0  0  0  0  0  0
  196.4410  171.0350  138.9720 O   0  0  0  0  0  0  0  0  0  0  0  0
  196.6020  172.3410  139.4400 C   0  0  0  0  0  2  0  0  0  0  0  0
  194.4040  173.1120  140.0130 O   0  0  0  0  0  1  0  0  0  0  0  0
  195.4140  173.2100  139.0480 C   0  0  1  0  0  3  0  0  0  0  0  0
  195.8700  174.6610  138.8960 C   0  0  2  0  0  3  0  0  0  0  0  0
  197.2150  174.7020  138.5190 O   0  0  0  0  0  1  0  0  0  0  0  0
  195.6440  175.4610  140.1810 C   0  0  1  0  0  3  0  0  0  0  0  0
  194.3330  175.2920  140.6210 O   0  0  0  0  0  1  0  0  0  0  0  0
  197.8060  175.3420  141.2130 O   0  0  0  0  0  0  0  0  0  0  0  0
  196.5780  175.0540  141.2800 C   0  0  0  0  0  0  0  0  0  0  0  0
  196.0820  174.2510  142.3580 N   0  0  0  0  0  2  0  0  0  0  0  0
  196.9110  173.8350  143.4840 C   0  0  2  0  0  3  0  0  0  0  0  0
  197.2690  172.3560  143.3810 C   0  0  0  0  0  1  0  0  0  0  0  0
  196.2240  174.1230  144.7860 C   0  0  0  0  0  0  0  0  0  0  0  0
  196.2650  173.1980  145.7420 C   0  0  0  0  0  2  0  0  0  0  0  0
  194.8100  175.8950  144.0010 O   0  0  0  0  0  0  0  0  0  0  0  0
  195.9570  176.6710  144.2990 C   0  0  0  0  0  2  0  0  0  0  0  0
  194.9400  175.6380  146.2860 O   0  0  0  0  0  1  0  0  0  0  0  0
  195.6050  175.4620  145.0760 C   0  0  2  0  0  0  0  0  0  0  0  0
  190.8460  169.6560  142.2840 C   0  0  0  0  0  2  0  0  0  0  0  0
  190.7740  171.1530  142.0160 C   0  0  0  0  0  2  0  0  0  0  0  0
  189.7440  171.4680  140.9430 C   0  0  0  0  0  2  0  0  0  0  0  0
  190.4190  172.6150  138.8160 C   0  0  0  0  0  0  0  0  0  0  0  0
  190.8530  171.5320  138.3170 O   0  0  0  0  0  0  0  0  0  0  0  0
  190.1290  172.6750  140.2250 N   0  0  0  0  0  0  0  0  0  0  0  0
  188.9280  173.6290  137.1120 C   0  0  0  0  0  2  0  0  0  0  0  0
  190.7930  173.7560  135.6550 C   0  0  0  0  0  0  0  0  0  0  0  0
  192.5760  174.4110  137.1380 C   0  0  0  0  0  3  0  0  0  0  0  0
  192.9610  174.2360  134.7330 C   0  0  0  0  0  3  0  0  0  0  0  0
  190.2000  173.8310  137.9530 C   0  0  2  0  0  3  0  0  0  0  0  0
  189.3590  173.4070  135.6460 C   0  0  0  0  0  2  0  0  0  0  0  0
  191.2610  174.0070  136.9220 C   0  0  0  0  0  0  0  0  0  0  0  0
  191.6260  173.8530  134.5380 C   0  0  0  0  0  3  0  0  0  0  0  0
  193.4320  174.5240  136.0290 C   0  0  0  0  0  3  0  0  0  0  0  0
  190.4430  173.8740  140.9960 C   0  0  0  0  0  2  0  0  0  0  0  0
  188.0740  176.1900  146.6600 C   0  0  0  0  0  2  0  0  0  0  0  0
  190.6750  176.0690  145.1820 O   0  0  0  0  0  0  0  0  0  0  0  0
  189.6030  175.1420  144.6850 S   0  0  0  0  0  0  0  0  0  0  0  0
  185.8960  177.3080  146.0880 N   0  0  0  0  0  0  0  0  0  0  0  0
  186.7290  177.9580  145.0750 C   0  0  0  0  0  2  0  0  0  0  0  0
  188.5210  174.2720  142.5680 C   0  0  1  0  0  3  0  0  0  0  0  0
  189.6660  175.1100  142.9540 N   0  0  2  0  0  0  0  0  0  0  0  0
  187.9990  175.7550  145.2020 C   0  0  2  0  0  3  0  0  0  0  0  0
  187.8120  174.9720  141.4060 C   0  0  0  0  0  2  0  0  0  0  0  0
  189.8240  173.7730  145.2670 O   0  0  0  0  0  0  0  0  0  0  0  0
  186.7330  176.7500  147.1600 C   0  0  0  0  0  2  0  0  0  0  0  0
  189.8950  173.7590  142.4160 C   0  0  2  0  0  3  0  0  0  0  0  0
  187.3320  176.3660  141.8230 C   0  0  0  0  0  2  0  0  0  0  0  0
  187.5050  176.9020  144.2840 C   0  0  1  0  0  3  0  0  0  0  0  0
  186.5990  176.3630  143.1710 C   0  0  0  0  0  2  0  0  0  0  0  0
  185.7220  179.6370  146.5170 N   0  0  0  0  0  1  0  0  0  0  0  0
  185.0800  178.3490  146.6970 C   0  0  0  0  0  2  0  0  0  0  0  0
  1 36  1  6  0  0  0
  2  4  1  0  0  0  0
  3  1  1  1  0  0  0
  3  2  1  0  0  0  0
  3  4  1  0  0  0  0
  5  6  2  0  0  0  0
  6  1  1  0  0  0  0
  7  6  1  0  0  0  0
  8 15  1  6  0  0  0
  8  7  1  0  0  0  0
  9 14  1  0  0  0  0
 11  9  1  1  0  0  0
 11 10  1  0  0  0  0
 11 12  1  0  0  0  0
 12 10  1  6  0  0  0
 12 13  1  0  0  0  0
 13  8  1  0  0  0  0
 14 13  1  0  0  0  0
 15 16  1  0  0  0  0
 17 16  1  0  0  0  0
 17 18  1  0  0  0  0
 20 18  1  0  0  0  0
 20 19  1  1  0  0  0
 21 22  1  1  0  0  0
 21 20  1  0  0  0  0
 21 23  1  0  0  0  0
 23 24  1  1  0  0  0
 23 26  1  0  0  0  0
 25 26  2  0  0  0  0
 26 27  1  0  0  0  0
 27 28  1  0  0  0  0
 28 29  1  6  0  0  0
 28 30  1  0  0  0  0
 30 35  1  0  0  0  0
 30 31  2  0  0  0  0
 32 33  1  0  0  0  0
 32 35  1  0  0  0  0
 33 35  1  0  0  0  0
 35 34  1  1  0  0  0
 37 36  1  0  0  0  0
 38 37  1  0  0  0  0
 39 41  1  0  0  0  0
 40 39  2  0  0  0  0
 41 38  1  0  0  0  0
 41 51  1  0  0  0  0
 42 46  1  0  0  0  0
 43 48  1  0  0  0  0
 45 50  2  0  0  0  0
 46 39  1  6  0  0  0
 47 43  1  0  0  0  0
 47 42  1  0  0  0  0
 48 44  2  0  0  0  0
 48 46  1  0  0  0  0
 49 45  1  0  0  0  0
 49 43  2  0  0  0  0
 50 44  1  0  0  0  0
 52 62  1  0  0  0  0
 54 53  2  0  0  0  0
 54 59  1  0  0  0  0
 54 61  2  0  0  0  0
 55 68  1  0  0  0  0
 55 62  1  0  0  0  0
 56 55  1  0  0  0  0
 57 60  1  6  0  0  0
 57 58  1  0  0  0  0
 58 54  1  1  0  0  0
 59 52  1  1  0  0  0
 60 64  1  0  0  0  0
 63 51  1  6  0  0  0
 63 57  1  0  0  0  0
 63 58  1  0  0  0  0
 64 66  1  0  0  0  0
 65 66  1  6  0  0  0
 65 56  1  0  0  0  0
 65 59  1  0  0  0  0
 67 68  1  0  0  0  0
M  END
>  <MODEL>
9

>  <REMARK>
 VINA RESULT:      -3.9      2.508      7.148
  Name = 
  24 active torsions:
  status: ('A' for Active; 'I' for Inactive)
    1  A    between atoms: C_1  and  C_28
    2  A    between atoms: C_3  and  O_16
    3  A    between atoms: C_3  and  C_24
    4  A    between atoms: C_4  and  O_16
    5  A    between atoms: C_4  and  C_63
    6  A    between atoms: C_5  and  C_26
    7  A    between atoms: C_5  and  C_55
    8  A    between atoms: C_5  and  C_61
    9  A    between atoms: C_10  and  N_35
   10  A    between atoms: C_10  and  C_52
   11  A    between atoms: N_14  and  C_65
   12  A    between atoms: C_21  and  C_33
   13  A    between atoms: C_21  and  N_60
   14  A    between atoms: C_24  and  C_57
   15  A    between atoms: C_26  and  S_51
   16  A    between atoms: C_29  and  C_48
   17  A    between atoms: C_29  and  C_63
   18  A    between atoms: C_33  and  C_54
   19  A    between atoms: N_35  and  C_58
   20  A    between atoms: C_40  and  C_48
   21  A    between atoms: S_51  and  C_57
   22  A    between atoms: N_56  and  C_57
   23  A    between atoms: C_58  and  C_66
   24  A    between atoms: C_61  and  C_66
                            x       y       z     vdW  Elec       q    Type
                         _______ _______ _______ _____ _____    ______ ____

>  <TORSDO>
F 24

$$$$
