=
 OpenBabel11062422403D

 44 48  0  0  1  0  0  0  0  0999 V2000
  189.8180  174.5400  142.3440 N   0  0  0  0  0  0  0  0  0  0  0  0
  190.2360  175.8760  142.7290 C   0  0  1  0  0  3  0  0  0  0  0  0
  187.7810  175.7490  142.8250 C   0  0  1  0  0  3  0  0  0  0  0  0
  188.4060  174.4870  142.3610 C   0  0  0  0  0  0  0  0  0  0  0  0
  188.9770  176.5840  143.2940 C   0  0  1  0  0  3  0  0  0  0  0  0
  187.7520  173.4710  142.0020 O   0  0  0  0  0  0  0  0  0  0  0  0
  187.5030  176.4560  140.4530 O   0  0  0  0  0  0  0  0  0  0  0  0
  185.7840  177.6310  140.5980 C   0  0  0  0  0  0  0  0  0  0  0  0
  186.7050  177.1800  139.7280 N   0  0  0  0  0  0  0  0  0  0  0  0
  185.9830  177.2030  141.8600 N   0  0  0  0  0  0  0  0  0  0  0  0
  184.7060  178.4790  140.2210 N   0  0  0  0  0  1  0  0  0  0  0  0
  187.0900  176.4540  141.7010 C   0  0  0  0  0  0  0  0  0  0  0  0
  190.6520  173.6230  141.5760 C   0  0  0  0  0  2  0  0  0  0  0  0
  190.2680  173.6750  140.1080 C   0  0  0  0  0  3  0  0  0  0  0  0
  191.4270  173.1700  139.2770 C   0  0  0  0  0  2  0  0  0  0  0  0
  190.2450  172.2660  139.5530 C   0  0  0  0  0  2  0  0  0  0  0  0
  188.9680  176.6180  144.7180 O   0  0  0  0  0  0  0  0  0  0  0  0
  186.4560  176.9110  147.4390 N   0  0  0  0  0  0  0  0  0  0  0  0
  187.8910  177.0340  145.5170 C   0  0  0  0  0  0  0  0  0  0  0  0
  184.6030  178.4160  147.7500 N   0  0  0  0  0  1  0  0  0  0  0  0
  187.1310  178.1110  145.0570 C   0  0  0  0  0  3  0  0  0  0  0  0
  188.2560  175.3380  147.2890 N   0  0  0  0  0  1  0  0  0  0  0  0
  187.5270  176.4340  146.7470 C   0  0  0  0  0  0  0  0  0  0  0  0
  186.0410  178.5790  145.7890 C   0  0  0  0  0  3  0  0  0  0  0  0
  185.7150  177.9560  146.9930 C   0  0  0  0  0  0  0  0  0  0  0  0
  191.4670  175.8650  143.6380 C   0  0  0  0  0  2  0  0  0  0  0  0
  191.8900  177.2150  143.9790 N   0  0  0  0  0  2  0  0  0  0  0  0
  193.2120  177.0990  144.5690 C   0  0  0  0  0  2  0  0  0  0  0  0
  193.1330  176.2690  145.8310 C   0  0  0  0  0  2  0  0  0  0  0  0
  194.5230  175.8860  146.2870 C   0  0  0  0  0  2  0  0  0  0  0  0
  194.0170  173.8250  145.2290 O   0  0  0  0  0  0  0  0  0  0  0  0
  194.9210  174.5940  145.6510 C   0  0  0  0  0  0  0  0  0  0  0  0
  196.3390  174.2260  145.4770 C   0  0  0  0  0  0  0  0  0  0  0  0
  196.9020  173.3140  146.2700 C   0  0  0  0  0  2  0  0  0  0  0  0
  197.6690  173.0870  141.1600 C   0  0  0  0  0  2  0  0  0  0  0  0
  196.1690  175.5710  143.3700 C   0  0  1  0  0  3  0  0  0  0  0  0
  197.6370  173.6720  143.4820 N   0  0  0  0  0  2  0  0  0  0  0  0
  196.2840  174.9770  141.9670 C   0  0  1  0  0  3  0  0  0  0  0  0
  197.0890  174.7510  144.2850 C   0  0  2  0  0  3  0  0  0  0  0  0
  197.1630  173.7970  142.1580 C   0  0  0  0  0  0  0  0  0  0  0  0
  196.5900  176.9000  143.3520 O   0  0  0  0  0  1  0  0  0  0  0  0
  194.2640  173.5170  142.0280 O   0  0  0  0  0  1  0  0  0  0  0  0
  194.9310  174.5910  141.4560 C   0  0  0  0  0  0  0  0  0  0  0  0
  194.3990  175.2160  140.5020 O   0  0  0  0  0  0  0  0  0  0  0  0
  1  4  1  0  0  0  0
  1  2  1  0  0  0  0
  2  5  1  0  0  0  0
  2 26  1  1  0  0  0
  3 12  1  6  0  0  0
  3  5  1  0  0  0  0
  4  3  1  0  0  0  0
  5 17  1  1  0  0  0
  6  4  2  0  0  0  0
  7 12  1  0  0  0  0
  8 10  1  0  0  0  0
  9  7  1  0  0  0  0
  9  8  2  0  0  0  0
 11  8  1  0  0  0  0
 12 10  2  0  0  0  0
 13  1  1  0  0  0  0
 14 13  1  0  0  0  0
 15 16  1  0  0  0  0
 15 14  1  0  0  0  0
 16 14  1  0  0  0  0
 17 19  1  0  0  0  0
 19 23  1  0  0  0  0
 21 19  2  0  0  0  0
 21 24  1  0  0  0  0
 23 22  1  0  0  0  0
 23 18  2  0  0  0  0
 24 25  2  0  0  0  0
 25 18  1  0  0  0  0
 25 20  1  0  0  0  0
 26 27  1  0  0  0  0
 27 28  1  0  0  0  0
 28 29  1  0  0  0  0
 29 30  1  0  0  0  0
 31 32  2  0  0  0  0
 32 30  1  0  0  0  0
 33 32  1  0  0  0  0
 33 34  2  0  0  0  0
 35 40  2  0  0  0  0
 36 41  1  6  0  0  0
 36 39  1  0  0  0  0
 37 39  1  0  0  0  0
 38 43  1  1  0  0  0
 38 40  1  0  0  0  0
 38 36  1  0  0  0  0
 39 33  1  1  0  0  0
 40 37  1  0  0  0  0
 43 42  1  0  0  0  0
 44 43  2  0  0  0  0
M  END
>  <MODEL>
1

>  <REMARK>
 VINA RESULT:      -7.1      0.000      0.000
  Name = 
  14 active torsions:
  status: ('A' for Active; 'I' for Inactive)
    1  A    between atoms: N_2  and  C_15
    2  A    between atoms: C_5  and  C_15
    3  A    between atoms: C_6  and  O_21
    4  A    between atoms: C_10  and  C_16
    5  A    between atoms: C_10  and  C_23
    6  A    between atoms: C_16  and  C_35
    7  A    between atoms: C_19  and  C_26
    8  A    between atoms: O_21  and  C_25
    9  A    between atoms: C_22  and  C_40
   10  A    between atoms: C_23  and  C_28
   11  A    between atoms: C_26  and  N_38
   12  A    between atoms: C_28  and  C_31
   13  A    between atoms: C_30  and  C_41
   14  A    between atoms: C_35  and  N_38
                            x       y       z     vdW  Elec       q    Type
                         _______ _______ _______ _____ _____    ______ ____

>  <TORSDO>
F 14

$$$$
=
 OpenBabel11062422403D

 44 48  0  0  1  0  0  0  0  0999 V2000
  191.1950  174.8020  144.6920 N   0  0  0  0  0  0  0  0  0  0  0  0
  190.8650  175.7510  143.6440 C   0  0  1  0  0  3  0  0  0  0  0  0
  192.6680  174.2800  142.8470 C   0  0  1  0  0  3  0  0  0  0  0  0
  192.2590  173.9870  144.2420 C   0  0  0  0  0  0  0  0  0  0  0  0
  191.6030  175.2710  142.3680 C   0  0  1  0  0  3  0  0  0  0  0  0
  192.8090  173.1140  144.9660 O   0  0  0  0  0  0  0  0  0  0  0  0
  194.4910  175.7220  143.7410 O   0  0  0  0  0  0  0  0  0  0  0  0
  195.8840  175.5880  142.1920 C   0  0  0  0  0  0  0  0  0  0  0  0
  195.6680  176.1500  143.3950 N   0  0  0  0  0  0  0  0  0  0  0  0
  194.8680  174.8100  141.7720 N   0  0  0  0  0  0  0  0  0  0  0  0
  197.0720  175.7970  141.4380 N   0  0  0  0  0  1  0  0  0  0  0  0
  194.0130  174.9330  142.8050 C   0  0  0  0  0  0  0  0  0  0  0  0
  190.8730  175.0070  146.0980 C   0  0  0  0  0  2  0  0  0  0  0  0
  191.2080  176.4300  146.5070 C   0  0  0  0  0  3  0  0  0  0  0  0
  191.3520  176.4900  148.0130 C   0  0  0  0  0  2  0  0  0  0  0  0
  192.5850  176.4530  147.1370 C   0  0  0  0  0  2  0  0  0  0  0  0
  190.7360  174.5950  141.4630 O   0  0  0  0  0  0  0  0  0  0  0  0
  190.4870  170.9020  141.1520 N   0  0  0  0  0  0  0  0  0  0  0  0
  190.8820  173.2670  141.0310 C   0  0  0  0  0  0  0  0  0  0  0  0
  191.4750  169.3580  139.5920 N   0  0  0  0  0  1  0  0  0  0  0  0
  191.6930  173.0430  139.9160 C   0  0  0  0  0  3  0  0  0  0  0  0
  189.4220  172.2950  142.7830 N   0  0  0  0  0  1  0  0  0  0  0  0
  190.2690  172.1500  141.6480 C   0  0  0  0  0  0  0  0  0  0  0  0
  191.8960  171.7520  139.4290 C   0  0  0  0  0  3  0  0  0  0  0  0
  191.2760  170.6810  140.0700 C   0  0  0  0  0  0  0  0  0  0  0  0
  189.3570  175.9720  143.5080 C   0  0  0  0  0  2  0  0  0  0  0  0
  189.0260  177.3880  143.4730 N   0  0  0  0  0  2  0  0  0  0  0  0
  188.6200  177.6870  142.1110 C   0  0  0  0  0  2  0  0  0  0  0  0
  187.2300  177.1420  141.8650 C   0  0  0  0  0  2  0  0  0  0  0  0
  186.2830  178.2720  141.5280 C   0  0  0  0  0  2  0  0  0  0  0  0
  184.0190  177.8940  142.1250 O   0  0  0  0  0  0  0  0  0  0  0  0
  185.1540  178.2900  142.5050 C   0  0  0  0  0  0  0  0  0  0  0  0
  185.3510  178.7210  143.9020 C   0  0  0  0  0  0  0  0  0  0  0  0
  185.5940  180.0000  144.1860 C   0  0  0  0  0  2  0  0  0  0  0  0
  187.5300  176.0590  147.0450 C   0  0  0  0  0  1  0  0  0  0  0  0
  184.8760  178.4620  146.3490 C   0  0  1  0  0  3  0  0  0  0  0  0
  186.2220  176.8390  145.1970 N   0  0  0  0  0  0  0  0  0  0  0  0
  185.8630  177.8670  147.3510 C   0  0  1  0  0  3  0  0  0  0  0  0
  185.0970  177.7400  145.0130 C   0  0  2  0  0  3  0  0  0  0  0  0
  186.6660  176.9250  146.5350 C   0  0  0  0  0  0  0  0  0  0  0  0
  183.5710  178.2440  146.7890 O   0  0  0  0  0  1  0  0  0  0  0  0
  186.1620  180.2070  148.1570 O   0  0  0  0  0  0  0  0  0  0  0  0
  186.7070  178.9490  147.9520 C   0  0  0  0  0  0  0  0  0  0  0  0
  187.9100  178.7340  148.2550 O   0  0  0  0  0  1  0  0  0  0  0  0
  1 13  1  0  0  0  0
  2 26  1  6  0  0  0
  2  1  1  0  0  0  0
  3 12  1  1  0  0  0
  3  4  1  0  0  0  0
  4  1  1  0  0  0  0
  4  6  2  0  0  0  0
  5 17  1  6  0  0  0
  5  3  1  0  0  0  0
  5  2  1  0  0  0  0
  8  9  2  0  0  0  0
  9  7  1  0  0  0  0
 10  8  1  0  0  0  0
 10 12  2  0  0  0  0
 11  8  1  0  0  0  0
 12  7  1  0  0  0  0
 13 14  1  0  0  0  0
 14 16  1  0  0  0  0
 14 15  1  0  0  0  0
 16 15  1  0  0  0  0
 18 23  1  0  0  0  0
 19 17  1  0  0  0  0
 19 23  2  0  0  0  0
 20 25  1  0  0  0  0
 21 19  1  0  0  0  0
 23 22  1  0  0  0  0
 24 21  2  0  0  0  0
 24 25  1  0  0  0  0
 25 18  2  0  0  0  0
 27 26  1  0  0  0  0
 28 27  1  0  0  0  0
 29 28  1  0  0  0  0
 30 29  1  0  0  0  0
 30 32  1  0  0  0  0
 31 32  2  0  0  0  0
 32 33  1  0  0  0  0
 33 34  2  0  0  0  0
 36 41  1  1  0  0  0
 36 38  1  0  0  0  0
 37 40  2  0  0  0  0
 38 43  1  6  0  0  0
 39 33  1  6  0  0  0
 39 37  1  0  0  0  0
 39 36  1  0  0  0  0
 40 35  1  0  0  0  0
 40 38  1  0  0  0  0
 43 42  2  0  0  0  0
 43 44  1  0  0  0  0
M  END
>  <MODEL>
2

>  <REMARK>
 VINA RESULT:      -7.0      2.624      9.362
  Name = 
  14 active torsions:
  status: ('A' for Active; 'I' for Inactive)
    1  A    between atoms: N_2  and  C_15
    2  A    between atoms: C_5  and  C_15
    3  A    between atoms: C_6  and  O_21
    4  A    between atoms: C_10  and  C_16
    5  A    between atoms: C_10  and  C_23
    6  A    between atoms: C_16  and  C_35
    7  A    between atoms: C_19  and  C_26
    8  A    between atoms: O_21  and  C_25
    9  A    between atoms: C_22  and  C_40
   10  A    between atoms: C_23  and  C_28
   11  A    between atoms: C_26  and  N_38
   12  A    between atoms: C_28  and  C_31
   13  A    between atoms: C_30  and  C_41
   14  A    between atoms: C_35  and  N_38
                            x       y       z     vdW  Elec       q    Type
                         _______ _______ _______ _____ _____    ______ ____

>  <TORSDO>
F 14

$$$$
=
 OpenBabel11062422403D

 44 48  0  0  1  0  0  0  0  0999 V2000
  187.3070  177.0300  145.3490 N   0  0  0  0  0  0  0  0  0  0  0  0
  188.3640  176.0470  145.1940 C   0  0  1  0  0  3  0  0  0  0  0  0
  188.4910  177.6530  143.3350 C   0  0  1  0  0  3  0  0  0  0  0  0
  187.3600  177.9240  144.2550 C   0  0  0  0  0  0  0  0  0  0  0  0
  189.2920  176.5730  144.0690 C   0  0  1  0  0  3  0  0  0  0  0  0
  186.5190  178.8460  144.0800 O   0  0  0  0  0  0  0  0  0  0  0  0
  188.2880  175.9160  141.5620 O   0  0  0  0  0  0  0  0  0  0  0  0
  187.1130  176.9260  140.1640 C   0  0  0  0  0  0  0  0  0  0  0  0
  187.7410  175.7590  140.3940 N   0  0  0  0  0  0  0  0  0  0  0  0
  187.2490  177.8170  141.1650 N   0  0  0  0  0  0  0  0  0  0  0  0
  186.3770  177.1920  138.9760 N   0  0  0  0  0  1  0  0  0  0  0  0
  188.0040  177.1110  142.0280 C   0  0  0  0  0  0  0  0  0  0  0  0
  186.1140  176.8120  146.1570 C   0  0  0  0  0  2  0  0  0  0  0  0
  186.2030  177.6110  147.4440 C   0  0  0  0  0  3  0  0  0  0  0  0
  185.9700  179.0740  147.1340 C   0  0  0  0  0  2  0  0  0  0  0  0
  184.8560  178.2410  147.7300 C   0  0  0  0  0  2  0  0  0  0  0  0
  190.4810  177.1690  144.5820 O   0  0  0  0  0  0  0  0  0  0  0  0
  194.0410  176.1330  144.7970 N   0  0  0  0  0  0  0  0  0  0  0  0
  191.7920  176.7810  144.2630 C   0  0  0  0  0  0  0  0  0  0  0  0
  195.6740  175.6600  143.0930 N   0  0  0  0  0  1  0  0  0  0  0  0
  192.1170  176.6790  142.9090 C   0  0  0  0  0  3  0  0  0  0  0  0
  192.5430  176.5640  146.6160 N   0  0  0  0  0  1  0  0  0  0  0  0
  192.7970  176.4910  145.2170 C   0  0  0  0  0  0  0  0  0  0  0  0
  193.3990  176.3070  142.5090 C   0  0  0  0  0  3  0  0  0  0  0  0
  194.3600  176.0350  143.4810 C   0  0  0  0  0  0  0  0  0  0  0  0
  189.0430  175.7030  146.5220 C   0  0  0  0  0  2  0  0  0  0  0  0
  189.1930  174.2650  146.6880 N   0  0  0  0  0  2  0  0  0  0  0  0
  190.1880  173.8370  145.7220 C   0  0  0  0  0  2  0  0  0  0  0  0
  189.6760  172.6300  144.9680 C   0  0  0  0  0  2  0  0  0  0  0  0
  189.6830  172.9070  143.4800 C   0  0  0  0  0  2  0  0  0  0  0  0
  191.6090  171.5240  143.4950 O   0  0  0  0  0  0  0  0  0  0  0  0
  190.6730  172.0140  142.8080 C   0  0  0  0  0  0  0  0  0  0  0  0
  190.5530  171.6690  141.3790 C   0  0  0  0  0  0  0  0  0  0  0  0
  190.7280  170.4120  140.9710 C   0  0  0  0  0  2  0  0  0  0  0  0
  191.7510  174.0160  137.5370 C   0  0  0  0  0  2  0  0  0  0  0  0
  189.2170  172.0710  139.2970 C   0  0  1  0  0  3  0  0  0  0  0  0
  191.1500  173.4140  139.7760 N   0  0  0  0  0  2  0  0  0  0  0  0
  189.8220  172.5210  137.9690 C   0  0  1  0  0  3  0  0  0  0  0  0
  190.0530  172.7090  140.4150 C   0  0  2  0  0  3  0  0  0  0  0  0
  191.0220  173.2920  138.3750 C   0  0  0  0  0  0  0  0  0  0  0  0
  187.8990  172.5160  139.3860 O   0  0  0  0  0  1  0  0  0  0  0  0
  189.4940  171.0980  135.9480 O   0  0  0  0  0  0  0  0  0  0  0  0
  190.1780  171.3310  137.1320 C   0  0  0  0  0  0  0  0  0  0  0  0
  191.0780  170.5310  137.4990 O   0  0  0  0  0  1  0  0  0  0  0  0
  1 13  1  0  0  0  0
  2  1  1  0  0  0  0
  2 26  1  1  0  0  0
  3 12  1  6  0  0  0
  3  5  1  0  0  0  0
  3  4  1  0  0  0  0
  4  1  1  0  0  0  0
  5 17  1  1  0  0  0
  5  2  1  0  0  0  0
  6  4  2  0  0  0  0
  7 12  1  0  0  0  0
  8  9  2  0  0  0  0
  8 10  1  0  0  0  0
  9  7  1  0  0  0  0
 10 12  2  0  0  0  0
 11  8  1  0  0  0  0
 13 14  1  0  0  0  0
 14 16  1  0  0  0  0
 15 14  1  0  0  0  0
 15 16  1  0  0  0  0
 18 23  1  0  0  0  0
 19 17  1  0  0  0  0
 19 23  2  0  0  0  0
 20 25  1  0  0  0  0
 21 19  1  0  0  0  0
 23 22  1  0  0  0  0
 24 21  2  0  0  0  0
 24 25  1  0  0  0  0
 25 18  2  0  0  0  0
 26 27  1  0  0  0  0
 28 27  1  0  0  0  0
 29 28  1  0  0  0  0
 30 29  1  0  0  0  0
 32 30  1  0  0  0  0
 32 31  2  0  0  0  0
 33 32  1  0  0  0  0
 34 33  2  0  0  0  0
 35 40  2  0  0  0  0
 36 41  1  6  0  0  0
 36 39  1  0  0  0  0
 37 39  1  0  0  0  0
 38 43  1  6  0  0  0
 38 40  1  0  0  0  0
 38 36  1  0  0  0  0
 39 33  1  1  0  0  0
 40 37  1  0  0  0  0
 42 43  2  0  0  0  0
 43 44  1  0  0  0  0
M  END
>  <MODEL>
3

>  <REMARK>
 VINA RESULT:      -6.9      2.635      6.606
  Name = 
  14 active torsions:
  status: ('A' for Active; 'I' for Inactive)
    1  A    between atoms: N_2  and  C_15
    2  A    between atoms: C_5  and  C_15
    3  A    between atoms: C_6  and  O_21
    4  A    between atoms: C_10  and  C_16
    5  A    between atoms: C_10  and  C_23
    6  A    between atoms: C_16  and  C_35
    7  A    between atoms: C_19  and  C_26
    8  A    between atoms: O_21  and  C_25
    9  A    between atoms: C_22  and  C_40
   10  A    between atoms: C_23  and  C_28
   11  A    between atoms: C_26  and  N_38
   12  A    between atoms: C_28  and  C_31
   13  A    between atoms: C_30  and  C_41
   14  A    between atoms: C_35  and  N_38
                            x       y       z     vdW  Elec       q    Type
                         _______ _______ _______ _____ _____    ______ ____

>  <TORSDO>
F 14

$$$$
=
 OpenBabel11062422403D

 44 48  0  0  1  0  0  0  0  0999 V2000
  189.7320  176.0040  144.6380 N   0  0  0  0  0  0  0  0  0  0  0  0
  189.3210  174.7530  144.0260 C   0  0  1  0  0  3  0  0  0  0  0  0
  189.0180  176.5730  142.3990 C   0  0  1  0  0  3  0  0  0  0  0  0
  189.5160  177.0510  143.7120 C   0  0  0  0  0  0  0  0  0  0  0  0
  189.1130  175.0490  142.5180 C   0  0  1  0  0  3  0  0  0  0  0  0
  189.7150  178.2640  143.9880 O   0  0  0  0  0  0  0  0  0  0  0  0
  186.6140  176.7290  143.0330 O   0  0  0  0  0  0  0  0  0  0  0  0
  185.8330  177.6900  141.3530 C   0  0  0  0  0  0  0  0  0  0  0  0
  185.4940  177.1710  142.5470 N   0  0  0  0  0  0  0  0  0  0  0  0
  187.1470  177.5870  141.0760 N   0  0  0  0  0  0  0  0  0  0  0  0
  184.8920  178.2880  140.4690 N   0  0  0  0  0  1  0  0  0  0  0  0
  187.5910  176.9700  142.1880 C   0  0  0  0  0  0  0  0  0  0  0  0
  189.8250  176.2060  146.0780 C   0  0  0  0  0  2  0  0  0  0  0  0
  191.2780  176.3490  146.4910 C   0  0  0  0  0  3  0  0  0  0  0  0
  191.3410  176.7050  147.9610 C   0  0  0  0  0  2  0  0  0  0  0  0
  191.6100  175.2840  147.5150 C   0  0  0  0  0  2  0  0  0  0  0  0
  190.2080  174.6060  141.7220 O   0  0  0  0  0  0  0  0  0  0  0  0
  190.9870  172.7210  138.6180 N   0  0  0  0  0  0  0  0  0  0  0  0
  190.1110  173.8060  140.5720 C   0  0  0  0  0  0  0  0  0  0  0  0
  189.5980  171.4100  137.1530 N   0  0  0  0  0  1  0  0  0  0  0  0
  188.8530  173.2850  140.2600 C   0  0  0  0  0  3  0  0  0  0  0  0
  192.5090  173.9850  139.9680 N   0  0  0  0  0  1  0  0  0  0  0  0
  191.1950  173.5000  139.7140 C   0  0  0  0  0  0  0  0  0  0  0  0
  188.6720  172.4890  139.1310 C   0  0  0  0  0  3  0  0  0  0  0  0
  189.7650  172.2150  138.3120 C   0  0  0  0  0  0  0  0  0  0  0  0
  190.2670  173.5990  144.3610 C   0  0  0  0  0  2  0  0  0  0  0  0
  189.7860  172.3380  143.8160 N   0  0  0  0  0  2  0  0  0  0  0  0
  190.9560  171.5080  143.5930 C   0  0  0  0  0  2  0  0  0  0  0  0
  192.1340  172.0790  144.3520 C   0  0  0  0  0  2  0  0  0  0  0  0
  193.4220  171.4660  143.8470 C   0  0  0  0  0  2  0  0  0  0  0  0
  194.5630  172.2440  145.7750 O   0  0  0  0  0  0  0  0  0  0  0  0
  194.5850  172.1170  144.5210 C   0  0  0  0  0  0  0  0  0  0  0  0
  195.7630  172.5710  143.7570 C   0  0  0  0  0  0  0  0  0  0  0  0
  196.7620  171.7290  143.4930 C   0  0  0  0  0  2  0  0  0  0  0  0
  193.0510  176.3080  143.1380 C   0  0  0  0  0  1  0  0  0  0  0  0
  196.3210  174.9930  144.0750 C   0  0  1  0  0  3  0  0  0  0  0  0
  194.3890  174.3510  142.8000 N   0  0  0  0  0  0  0  0  0  0  0  0
  195.2760  176.0990  144.2080 C   0  0  1  0  0  3  0  0  0  0  0  0
  195.7420  173.9350  143.1260 C   0  0  2  0  0  3  0  0  0  0  0  0
  194.1210  175.5840  143.4330 C   0  0  0  0  0  0  0  0  0  0  0  0
  197.4930  175.5190  143.5310 O   0  0  0  0  0  1  0  0  0  0  0  0
  194.6280  177.5920  146.0970 O   0  0  0  0  0  0  0  0  0  0  0  0
  194.9310  176.3150  145.6500 C   0  0  0  0  0  0  0  0  0  0  0  0
  194.9310  175.3540  146.4630 O   0  0  0  0  0  1  0  0  0  0  0  0
  1 13  1  0  0  0  0
  2 26  1  6  0  0  0
  2  1  1  0  0  0  0
  3 12  1  1  0  0  0
  3  5  1  0  0  0  0
  3  4  1  0  0  0  0
  4  6  2  0  0  0  0
  4  1  1  0  0  0  0
  5 17  1  6  0  0  0
  5  2  1  0  0  0  0
  8  9  2  0  0  0  0
  9  7  1  0  0  0  0
 10  8  1  0  0  0  0
 10 12  2  0  0  0  0
 11  8  1  0  0  0  0
 12  7  1  0  0  0  0
 13 14  1  0  0  0  0
 14 16  1  0  0  0  0
 14 15  1  0  0  0  0
 16 15  1  0  0  0  0
 18 23  1  0  0  0  0
 19 17  1  0  0  0  0
 20 25  1  0  0  0  0
 21 19  1  0  0  0  0
 23 22  1  0  0  0  0
 23 19  2  0  0  0  0
 24 21  2  0  0  0  0
 25 18  2  0  0  0  0
 25 24  1  0  0  0  0
 27 26  1  0  0  0  0
 28 27  1  0  0  0  0
 28 29  1  0  0  0  0
 30 29  1  0  0  0  0
 30 32  1  0  0  0  0
 32 31  2  0  0  0  0
 33 32  1  0  0  0  0
 34 33  2  0  0  0  0
 35 40  1  0  0  0  0
 36 41  1  6  0  0  0
 36 38  1  0  0  0  0
 37 39  1  0  0  0  0
 37 40  2  0  0  0  0
 38 43  1  1  0  0  0
 39 33  1  1  0  0  0
 39 36  1  0  0  0  0
 40 38  1  0  0  0  0
 43 42  2  0  0  0  0
 43 44  1  0  0  0  0
M  END
>  <MODEL>
4

>  <REMARK>
 VINA RESULT:      -6.9      2.414      5.626
  Name = 
  14 active torsions:
  status: ('A' for Active; 'I' for Inactive)
    1  A    between atoms: N_2  and  C_15
    2  A    between atoms: C_5  and  C_15
    3  A    between atoms: C_6  and  O_21
    4  A    between atoms: C_10  and  C_16
    5  A    between atoms: C_10  and  C_23
    6  A    between atoms: C_16  and  C_35
    7  A    between atoms: C_19  and  C_26
    8  A    between atoms: O_21  and  C_25
    9  A    between atoms: C_22  and  C_40
   10  A    between atoms: C_23  and  C_28
   11  A    between atoms: C_26  and  N_38
   12  A    between atoms: C_28  and  C_31
   13  A    between atoms: C_30  and  C_41
   14  A    between atoms: C_35  and  N_38
                            x       y       z     vdW  Elec       q    Type
                         _______ _______ _______ _____ _____    ______ ____

>  <TORSDO>
F 14

$$$$
=
 OpenBabel11062422403D

 44 48  0  0  1  0  0  0  0  0999 V2000
  191.4910  174.1450  144.5870 N   0  0  0  0  0  0  0  0  0  0  0  0
  191.1990  174.8510  143.3520 C   0  0  1  0  0  3  0  0  0  0  0  0
  193.4000  173.7710  143.1500 C   0  0  1  0  0  3  0  0  0  0  0  0
  192.7750  173.5620  144.4790 C   0  0  0  0  0  0  0  0  0  0  0  0
  192.2760  174.4110  142.3280 C   0  0  1  0  0  3  0  0  0  0  0  0
  193.3300  172.9420  145.4250 O   0  0  0  0  0  0  0  0  0  0  0  0
  194.5930  175.7780  144.0180 O   0  0  0  0  0  0  0  0  0  0  0  0
  196.3610  175.6840  142.9140 C   0  0  0  0  0  0  0  0  0  0  0  0
  195.7150  176.4090  143.8450 N   0  0  0  0  0  0  0  0  0  0  0  0
  195.6700  174.6060  142.4960 N   0  0  0  0  0  0  0  0  0  0  0  0
  197.6500  176.0270  142.4180 N   0  0  0  0  0  1  0  0  0  0  0  0
  194.5540  174.7190  143.2410 C   0  0  0  0  0  0  0  0  0  0  0  0
  190.8410  174.4370  145.8580 C   0  0  0  0  0  2  0  0  0  0  0  0
  191.5370  175.5980  146.5440 C   0  0  0  0  0  3  0  0  0  0  0  0
  190.5020  176.6250  146.9490 C   0  0  0  0  0  2  0  0  0  0  0  0
  191.0690  175.6760  147.9820 C   0  0  0  0  0  2  0  0  0  0  0  0
  191.7860  173.4400  141.4090 O   0  0  0  0  0  0  0  0  0  0  0  0
  190.5950  173.4920  137.8910 N   0  0  0  0  0  0  0  0  0  0  0  0
  191.7070  173.5990  140.0170 C   0  0  0  0  0  0  0  0  0  0  0  0
  191.6900  174.1220  135.8420 N   0  0  0  0  0  1  0  0  0  0  0  0
  192.8460  174.0740  139.3620 C   0  0  0  0  0  3  0  0  0  0  0  0
  189.3570  172.8320  139.8320 N   0  0  0  0  0  1  0  0  0  0  0  0
  190.5600  173.3100  139.2390 C   0  0  0  0  0  0  0  0  0  0  0  0
  192.8520  174.2530  137.9800 C   0  0  0  0  0  3  0  0  0  0  0  0
  191.7020  173.9510  137.2530 C   0  0  0  0  0  0  0  0  0  0  0  0
  189.7430  174.6830  142.9130 C   0  0  0  0  0  2  0  0  0  0  0  0
  189.3280  175.7550  142.0200 N   0  0  0  0  0  2  0  0  0  0  0  0
  187.9230  175.5320  141.7280 C   0  0  0  0  0  2  0  0  0  0  0  0
  187.4700  176.4950  140.6530 C   0  0  0  0  0  2  0  0  0  0  0  0
  187.3840  177.8970  141.2160 C   0  0  0  0  0  2  0  0  0  0  0  0
  185.1640  178.3260  140.5000 O   0  0  0  0  0  0  0  0  0  0  0  0
  185.9550  178.2460  141.4770 C   0  0  0  0  0  0  0  0  0  0  0  0
  185.4530  178.4570  142.8480 C   0  0  0  0  0  0  0  0  0  0  0  0
  184.2340  178.0410  143.1920 C   0  0  0  0  0  2  0  0  0  0  0  0
  185.6750  179.6040  147.3580 C   0  0  0  0  0  1  0  0  0  0  0  0
  187.1860  177.8370  144.5480 C   0  0  1  0  0  3  0  0  0  0  0  0
  185.6770  179.6600  144.9640 N   0  0  0  0  0  0  0  0  0  0  0  0
  186.9780  177.9450  146.0580 C   0  0  1  0  0  3  0  0  0  0  0  0
  186.3930  178.9790  143.8990 C   0  0  2  0  0  3  0  0  0  0  0  0
  186.0040  179.0550  146.1980 C   0  0  0  0  0  0  0  0  0  0  0  0
  188.5410  177.9800  144.2510 O   0  0  0  0  0  1  0  0  0  0  0  0
  185.1650  176.2440  146.2420 O   0  0  0  0  0  0  0  0  0  0  0  0
  186.4400  176.6570  146.6000 C   0  0  0  0  0  0  0  0  0  0  0  0
  187.1230  175.9550  147.3900 O   0  0  0  0  0  1  0  0  0  0  0  0
  1 13  1  0  0  0  0
  2 26  1  6  0  0  0
  2  1  1  0  0  0  0
  3 12  1  1  0  0  0
  3  4  1  0  0  0  0
  4  1  1  0  0  0  0
  4  6  2  0  0  0  0
  5 17  1  6  0  0  0
  5  3  1  0  0  0  0
  5  2  1  0  0  0  0
  8  9  2  0  0  0  0
  9  7  1  0  0  0  0
 10  8  1  0  0  0  0
 10 12  2  0  0  0  0
 11  8  1  0  0  0  0
 12  7  1  0  0  0  0
 13 14  1  0  0  0  0
 14 15  1  0  0  0  0
 14 16  1  0  0  0  0
 15 16  1  0  0  0  0
 18 23  1  0  0  0  0
 19 17  1  0  0  0  0
 20 25  1  0  0  0  0
 21 19  1  0  0  0  0
 23 22  1  0  0  0  0
 23 19  2  0  0  0  0
 24 21  2  0  0  0  0
 25 18  2  0  0  0  0
 25 24  1  0  0  0  0
 27 26  1  0  0  0  0
 28 27  1  0  0  0  0
 29 30  1  0  0  0  0
 29 28  1  0  0  0  0
 30 32  1  0  0  0  0
 31 32  2  0  0  0  0
 32 33  1  0  0  0  0
 33 34  2  0  0  0  0
 36 41  1  1  0  0  0
 36 38  1  0  0  0  0
 37 40  2  0  0  0  0
 38 40  1  0  0  0  0
 38 43  1  6  0  0  0
 39 33  1  6  0  0  0
 39 36  1  0  0  0  0
 39 37  1  0  0  0  0
 40 35  1  0  0  0  0
 42 43  2  0  0  0  0
 43 44  1  0  0  0  0
M  END
>  <MODEL>
5

>  <REMARK>
 VINA RESULT:      -6.9      2.472      9.452
  Name = 
  14 active torsions:
  status: ('A' for Active; 'I' for Inactive)
    1  A    between atoms: N_2  and  C_15
    2  A    between atoms: C_5  and  C_15
    3  A    between atoms: C_6  and  O_21
    4  A    between atoms: C_10  and  C_16
    5  A    between atoms: C_10  and  C_23
    6  A    between atoms: C_16  and  C_35
    7  A    between atoms: C_19  and  C_26
    8  A    between atoms: O_21  and  C_25
    9  A    between atoms: C_22  and  C_40
   10  A    between atoms: C_23  and  C_28
   11  A    between atoms: C_26  and  N_38
   12  A    between atoms: C_28  and  C_31
   13  A    between atoms: C_30  and  C_41
   14  A    between atoms: C_35  and  N_38
                            x       y       z     vdW  Elec       q    Type
                         _______ _______ _______ _____ _____    ______ ____

>  <TORSDO>
F 14

$$$$
=
 OpenBabel11062422403D

 44 48  0  0  1  0  0  0  0  0999 V2000
  191.1620  174.5530  145.2450 N   0  0  0  0  0  0  0  0  0  0  0  0
  191.6750  173.9760  144.0160 C   0  0  1  0  0  3  0  0  0  0  0  0
  193.5350  174.2560  145.6010 C   0  0  1  0  0  3  0  0  0  0  0  0
  192.2430  174.7500  146.1350 C   0  0  0  0  0  0  0  0  0  0  0  0
  193.1310  173.5340  144.3120 C   0  0  1  0  0  3  0  0  0  0  0  0
  192.1140  175.3030  147.2600 O   0  0  0  0  0  0  0  0  0  0  0  0
  194.5410  176.5060  145.9630 O   0  0  0  0  0  0  0  0  0  0  0  0
  195.8290  176.6220  144.3240 C   0  0  0  0  0  0  0  0  0  0  0  0
  195.4010  177.3020  145.4030 N   0  0  0  0  0  0  0  0  0  0  0  0
  195.2580  175.4090  144.1930 N   0  0  0  0  0  0  0  0  0  0  0  0
  196.7910  177.1360  143.4110 N   0  0  0  0  0  1  0  0  0  0  0  0
  194.4510  175.3930  145.2710 C   0  0  0  0  0  0  0  0  0  0  0  0
  189.9010  175.2790  145.3320 C   0  0  0  0  0  2  0  0  0  0  0  0
  189.9050  176.4470  144.3620 C   0  0  0  0  0  3  0  0  0  0  0  0
  189.1310  177.5960  144.9700 C   0  0  0  0  0  2  0  0  0  0  0  0
  190.6440  177.6090  144.9890 C   0  0  0  0  0  2  0  0  0  0  0  0
  193.2370  172.1310  144.5340 O   0  0  0  0  0  0  0  0  0  0  0  0
  196.5830  170.5980  144.0300 N   0  0  0  0  0  0  0  0  0  0  0  0
  194.4350  171.4210  144.7170 C   0  0  0  0  0  0  0  0  0  0  0  0
  197.9400  169.2150  145.4600 N   0  0  0  0  0  1  0  0  0  0  0  0
  194.6110  170.7700  145.9400 C   0  0  0  0  0  3  0  0  0  0  0  0
  195.3660  171.9640  142.4840 N   0  0  0  0  0  1  0  0  0  0  0  0
  195.4650  171.3210  143.7510 C   0  0  0  0  0  0  0  0  0  0  0  0
  195.7680  170.0370  146.1980 C   0  0  0  0  0  3  0  0  0  0  0  0
  196.7550  169.9620  145.2170 C   0  0  0  0  0  0  0  0  0  0  0  0
  190.7490  172.9020  143.4420 C   0  0  0  0  0  2  0  0  0  0  0  0
  190.5710  173.0610  142.0070 N   0  0  0  0  0  2  0  0  0  0  0  0
  189.2510  172.5460  141.6920 C   0  0  0  0  0  2  0  0  0  0  0  0
  188.2160  173.6240  141.9310 C   0  0  0  0  0  2  0  0  0  0  0  0
  188.8220  174.9880  141.6830 C   0  0  0  0  0  2  0  0  0  0  0  0
  187.5110  175.6410  139.8180 O   0  0  0  0  0  0  0  0  0  0  0  0
  187.8170  175.8710  141.0190 C   0  0  0  0  0  0  0  0  0  0  0  0
  187.1560  176.9700  141.7480 C   0  0  0  0  0  0  0  0  0  0  0  0
  187.5680  178.2280  141.5900 C   0  0  0  0  0  2  0  0  0  0  0  0
  185.5470  176.4350  146.0870 C   0  0  0  0  0  1  0  0  0  0  0  0
  185.1170  177.9700  142.8060 C   0  0  1  0  0  3  0  0  0  0  0  0
  186.2000  176.0760  143.8110 N   0  0  0  0  0  0  0  0  0  0  0  0
  184.8840  178.0350  144.3150 C   0  0  1  0  0  3  0  0  0  0  0  0
  185.9020  176.6810  142.5250 C   0  0  2  0  0  3  0  0  0  0  0  0
  185.6260  176.8610  144.8350 C   0  0  0  0  0  0  0  0  0  0  0  0
  183.8900  177.9240  142.1440 O   0  0  0  0  0  1  0  0  0  0  0  0
  185.3410  180.4760  144.0990 O   0  0  0  0  0  0  0  0  0  0  0  0
  185.4150  179.3230  144.8650 C   0  0  0  0  0  0  0  0  0  0  0  0
  185.9430  179.3670  146.0070 O   0  0  0  0  0  1  0  0  0  0  0  0
  1 13  1  0  0  0  0
  1  4  1  0  0  0  0
  2 26  1  1  0  0  0
  2  5  1  0  0  0  0
  2  1  1  0  0  0  0
  3 12  1  6  0  0  0
  3  4  1  0  0  0  0
  4  6  2  0  0  0  0
  5 17  1  1  0  0  0
  5  3  1  0  0  0  0
  8  9  2  0  0  0  0
  9  7  1  0  0  0  0
 10  8  1  0  0  0  0
 10 12  2  0  0  0  0
 11  8  1  0  0  0  0
 12  7  1  0  0  0  0
 14 15  1  0  0  0  0
 14 16  1  0  0  0  0
 14 13  1  0  0  0  0
 15 16  1  0  0  0  0
 17 19  1  0  0  0  0
 18 25  1  0  0  0  0
 19 21  2  0  0  0  0
 21 24  1  0  0  0  0
 22 23  1  0  0  0  0
 23 18  2  0  0  0  0
 23 19  1  0  0  0  0
 25 20  1  0  0  0  0
 25 24  2  0  0  0  0
 27 26  1  0  0  0  0
 28 29  1  0  0  0  0
 28 27  1  0  0  0  0
 30 29  1  0  0  0  0
 31 32  2  0  0  0  0
 32 30  1  0  0  0  0
 32 33  1  0  0  0  0
 34 33  2  0  0  0  0
 36 41  1  6  0  0  0
 36 38  1  0  0  0  0
 37 40  2  0  0  0  0
 38 40  1  0  0  0  0
 38 43  1  1  0  0  0
 39 33  1  1  0  0  0
 39 36  1  0  0  0  0
 39 37  1  0  0  0  0
 40 35  1  0  0  0  0
 42 43  2  0  0  0  0
 43 44  1  0  0  0  0
M  END
>  <MODEL>
6

>  <REMARK>
 VINA RESULT:      -6.6      2.751      9.670
  Name = 
  14 active torsions:
  status: ('A' for Active; 'I' for Inactive)
    1  A    between atoms: N_2  and  C_15
    2  A    between atoms: C_5  and  C_15
    3  A    between atoms: C_6  and  O_21
    4  A    between atoms: C_10  and  C_16
    5  A    between atoms: C_10  and  C_23
    6  A    between atoms: C_16  and  C_35
    7  A    between atoms: C_19  and  C_26
    8  A    between atoms: O_21  and  C_25
    9  A    between atoms: C_22  and  C_40
   10  A    between atoms: C_23  and  C_28
   11  A    between atoms: C_26  and  N_38
   12  A    between atoms: C_28  and  C_31
   13  A    between atoms: C_30  and  C_41
   14  A    between atoms: C_35  and  N_38
                            x       y       z     vdW  Elec       q    Type
                         _______ _______ _______ _____ _____    ______ ____

>  <TORSDO>
F 14

$$$$
=
 OpenBabel11062422403D

 44 48  0  0  1  0  0  0  0  0999 V2000
  194.8550  172.1970  144.1180 N   0  0  0  0  0  0  0  0  0  0  0  0
  193.7470  173.1290  144.0090 C   0  0  1  0  0  3  0  0  0  0  0  0
  194.5440  172.5700  141.7500 C   0  0  1  0  0  3  0  0  0  0  0  0
  195.3350  171.9130  142.8190 C   0  0  0  0  0  0  0  0  0  0  0  0
  193.3600  173.1770  142.5080 C   0  0  1  0  0  3  0  0  0  0  0  0
  196.3410  171.1870  142.6020 O   0  0  0  0  0  0  0  0  0  0  0  0
  195.7190  174.7650  141.6900 O   0  0  0  0  0  0  0  0  0  0  0  0
  196.3220  174.8270  139.6930 C   0  0  0  0  0  0  0  0  0  0  0  0
  196.3520  175.5210  140.8440 N   0  0  0  0  0  0  0  0  0  0  0  0
  195.6850  173.6440  139.7940 N   0  0  0  0  0  0  0  0  0  0  0  0
  196.9070  175.2980  138.4840 N   0  0  0  0  0  1  0  0  0  0  0  0
  195.3290  173.6620  141.0930 C   0  0  0  0  0  0  0  0  0  0  0  0
  195.6500  172.0260  145.3280 C   0  0  0  0  0  2  0  0  0  0  0  0
  196.9520  172.7980  145.2100 C   0  0  0  0  0  3  0  0  0  0  0  0
  196.6540  174.2800  145.2690 C   0  0  0  0  0  2  0  0  0  0  0  0
  197.1890  173.5680  146.4920 C   0  0  0  0  0  2  0  0  0  0  0  0
  192.2000  172.4000  142.2230 O   0  0  0  0  0  0  0  0  0  0  0  0
  189.4780  174.1700  140.4190 N   0  0  0  0  0  0  0  0  0  0  0  0
  191.1930  172.7430  141.3080 C   0  0  0  0  0  0  0  0  0  0  0  0
  188.1890  173.5650  138.4790 N   0  0  0  0  0  1  0  0  0  0  0  0
  190.9170  171.8290  140.2880 C   0  0  0  0  0  3  0  0  0  0  0  0
  190.6680  174.9280  142.3550 N   0  0  0  0  0  1  0  0  0  0  0  0
  190.4420  173.9420  141.3530 C   0  0  0  0  0  0  0  0  0  0  0  0
  189.9260  172.0910  139.3440 C   0  0  0  0  0  3  0  0  0  0  0  0
  189.2080  173.2830  139.4290 C   0  0  0  0  0  0  0  0  0  0  0  0
  192.6150  172.8100  144.9870 C   0  0  0  0  0  2  0  0  0  0  0  0
  191.9150  174.0150  145.4050 N   0  0  0  0  0  2  0  0  0  0  0  0
  192.9340  174.9810  145.7750 C   0  0  0  0  0  2  0  0  0  0  0  0
  192.3890  175.9130  146.8340 C   0  0  0  0  0  2  0  0  0  0  0  0
  190.9210  175.6310  147.0670 C   0  0  0  0  0  2  0  0  0  0  0  0
  190.1170  177.7720  147.6950 O   0  0  0  0  0  0  0  0  0  0  0  0
  190.1250  176.8690  146.8150 C   0  0  0  0  0  0  0  0  0  0  0  0
  189.3890  177.0680  145.5520 C   0  0  0  0  0  0  0  0  0  0  0  0
  189.9010  177.8290  144.5850 C   0  0  0  0  0  2  0  0  0  0  0  0
  184.8330  176.9020  146.5140 C   0  0  0  0  0  1  0  0  0  0  0  0
  187.4620  176.6990  143.9930 C   0  0  1  0  0  3  0  0  0  0  0  0
  187.1750  176.4230  146.3620 N   0  0  0  0  0  0  0  0  0  0  0  0
  186.0110  177.0310  144.3370 C   0  0  1  0  0  3  0  0  0  0  0  0
  188.1470  176.2610  145.2950 C   0  0  2  0  0  3  0  0  0  0  0  0
  185.9570  176.8780  145.8110 C   0  0  0  0  0  0  0  0  0  0  0  0
  187.4980  175.6540  143.0710 O   0  0  0  0  0  1  0  0  0  0  0  0
  184.8790  178.6290  142.7940 O   0  0  0  0  0  0  0  0  0  0  0  0
  185.6830  178.4270  143.9060 C   0  0  0  0  0  0  0  0  0  0  0  0
  186.1430  179.4190  144.5300 O   0  0  0  0  0  1  0  0  0  0  0  0
  1 13  1  0  0  0  0
  2  1  1  0  0  0  0
  2 26  1  1  0  0  0
  3 12  1  1  0  0  0
  3  5  1  0  0  0  0
  3  4  1  0  0  0  0
  4  1  1  0  0  0  0
  5 17  1  1  0  0  0
  5  2  1  0  0  0  0
  6  4  2  0  0  0  0
  8 10  1  0  0  0  0
  8  9  2  0  0  0  0
  9  7  1  0  0  0  0
 10 12  2  0  0  0  0
 11  8  1  0  0  0  0
 12  7  1  0  0  0  0
 14 15  1  0  0  0  0
 14 13  1  0  0  0  0
 14 16  1  0  0  0  0
 15 16  1  0  0  0  0
 18 23  1  0  0  0  0
 19 23  2  0  0  0  0
 19 17  1  0  0  0  0
 20 25  1  0  0  0  0
 21 19  1  0  0  0  0
 23 22  1  0  0  0  0
 24 25  1  0  0  0  0
 24 21  2  0  0  0  0
 25 18  2  0  0  0  0
 26 27  1  0  0  0  0
 27 28  1  0  0  0  0
 28 29  1  0  0  0  0
 29 30  1  0  0  0  0
 32 30  1  0  0  0  0
 32 31  2  0  0  0  0
 33 32  1  0  0  0  0
 34 33  2  0  0  0  0
 36 41  1  6  0  0  0
 36 38  1  0  0  0  0
 36 39  1  0  0  0  0
 38 43  1  1  0  0  0
 38 40  1  0  0  0  0
 39 33  1  1  0  0  0
 39 37  1  0  0  0  0
 40 37  2  0  0  0  0
 40 35  1  0  0  0  0
 42 43  2  0  0  0  0
 43 44  1  0  0  0  0
M  END
>  <MODEL>
7

>  <REMARK>
 VINA RESULT:      -6.5      2.428      8.539
  Name = 
  14 active torsions:
  status: ('A' for Active; 'I' for Inactive)
    1  A    between atoms: N_2  and  C_15
    2  A    between atoms: C_5  and  C_15
    3  A    between atoms: C_6  and  O_21
    4  A    between atoms: C_10  and  C_16
    5  A    between atoms: C_10  and  C_23
    6  A    between atoms: C_16  and  C_35
    7  A    between atoms: C_19  and  C_26
    8  A    between atoms: O_21  and  C_25
    9  A    between atoms: C_22  and  C_40
   10  A    between atoms: C_23  and  C_28
   11  A    between atoms: C_26  and  N_38
   12  A    between atoms: C_28  and  C_31
   13  A    between atoms: C_30  and  C_41
   14  A    between atoms: C_35  and  N_38
                            x       y       z     vdW  Elec       q    Type
                         _______ _______ _______ _____ _____    ______ ____

>  <TORSDO>
F 14

$$$$
=
 OpenBabel11062422403D

 44 48  0  0  1  0  0  0  0  0999 V2000
  191.8420  173.5750  144.6330 N   0  0  0  0  0  0  0  0  0  0  0  0
  191.9630  174.9900  144.3330 C   0  0  1  0  0  3  0  0  0  0  0  0
  189.6220  174.3070  144.0160 C   0  0  1  0  0  3  0  0  0  0  0  0
  190.5030  173.1800  144.4080 C   0  0  0  0  0  0  0  0  0  0  0  0
  190.5180  175.5360  144.1940 C   0  0  1  0  0  3  0  0  0  0  0  0
  190.1100  171.9880  144.5180 O   0  0  0  0  0  0  0  0  0  0  0  0
  188.8650  175.2080  141.8210 O   0  0  0  0  0  0  0  0  0  0  0  0
  188.6820  173.4440  140.7200 C   0  0  0  0  0  0  0  0  0  0  0  0
  188.5320  174.7790  140.6410 N   0  0  0  0  0  0  0  0  0  0  0  0
  189.1060  173.0220  141.9270 N   0  0  0  0  0  0  0  0  0  0  0  0
  188.4160  172.5660  139.6340 N   0  0  0  0  0  1  0  0  0  0  0  0
  189.2090  174.1940  142.5820 C   0  0  0  0  0  0  0  0  0  0  0  0
  192.9680  172.6500  144.6310 C   0  0  0  0  0  2  0  0  0  0  0  0
  193.7600  172.7950  143.3440 C   0  0  0  0  0  3  0  0  0  0  0  0
  195.1090  172.1310  143.5170 C   0  0  0  0  0  2  0  0  0  0  0  0
  194.0090  171.4220  142.7580 C   0  0  0  0  0  2  0  0  0  0  0  0
  190.0900  176.2370  145.3580 O   0  0  0  0  0  0  0  0  0  0  0  0
  186.7170  176.4320  146.9010 N   0  0  0  0  0  0  0  0  0  0  0  0
  188.7650  176.5900  145.6570 C   0  0  0  0  0  0  0  0  0  0  0  0
  184.7900  177.7720  146.3670 N   0  0  0  0  0  1  0  0  0  0  0  0
  188.1670  177.5670  144.8570 C   0  0  0  0  0  3  0  0  0  0  0  0
  188.5390  175.0280  147.5690 N   0  0  0  0  0  1  0  0  0  0  0  0
  188.0000  176.0230  146.7050 C   0  0  0  0  0  0  0  0  0  0  0  0
  186.8520  177.9680  145.0840 C   0  0  0  0  0  3  0  0  0  0  0  0
  186.1340  177.3800  146.1240 C   0  0  0  0  0  0  0  0  0  0  0  0
  192.8680  175.7230  145.3260 C   0  0  0  0  0  2  0  0  0  0  0  0
  193.8650  176.5330  144.6420 N   0  0  0  0  0  2  0  0  0  0  0  0
  195.1520  175.9140  144.9010 C   0  0  0  0  0  2  0  0  0  0  0  0
  196.0680  176.1310  143.7160 C   0  0  0  0  0  2  0  0  0  0  0  0
  195.3040  175.9250  142.4270 C   0  0  0  0  0  2  0  0  0  0  0  0
  197.3030  174.8250  141.7830 O   0  0  0  0  0  0  0  0  0  0  0  0
  196.0940  175.0500  141.5100 C   0  0  0  0  0  0  0  0  0  0  0  0
  195.4790  174.4210  140.3260 C   0  0  0  0  0  0  0  0  0  0  0  0
  195.9850  173.2970  139.8190 C   0  0  0  0  0  2  0  0  0  0  0  0
  192.9220  174.7990  136.4490 C   0  0  0  0  0  2  0  0  0  0  0  0
  193.0440  173.9330  139.9910 C   0  0  1  0  0  3  0  0  0  0  0  0
  194.2460  175.2620  138.3900 N   0  0  0  0  0  2  0  0  0  0  0  0
  192.3950  173.7300  138.6220 C   0  0  1  0  0  3  0  0  0  0  0  0
  194.1730  174.9570  139.8090 C   0  0  2  0  0  3  0  0  0  0  0  0
  193.2350  174.5470  137.7120 C   0  0  0  0  0  0  0  0  0  0  0  0
  192.1000  174.4310  140.8880 O   0  0  0  0  0  1  0  0  0  0  0  0
  193.5680  171.7250  137.7160 O   0  0  0  0  0  0  0  0  0  0  0  0
  192.4140  172.2800  138.2500 C   0  0  0  0  0  0  0  0  0  0  0  0
  191.3900  171.5630  138.3990 O   0  0  0  0  0  1  0  0  0  0  0  0
  2  1  1  0  0  0  0
  2 26  1  1  0  0  0
  3 12  1  6  0  0  0
  3  5  1  0  0  0  0
  3  4  1  0  0  0  0
  4  6  2  0  0  0  0
  4  1  1  0  0  0  0
  5  2  1  0  0  0  0
  5 17  1  1  0  0  0
  7 12  1  0  0  0  0
  8 10  1  0  0  0  0
  9  8  2  0  0  0  0
  9  7  1  0  0  0  0
 10 12  2  0  0  0  0
 11  8  1  0  0  0  0
 13  1  1  0  0  0  0
 14 15  1  0  0  0  0
 14 13  1  0  0  0  0
 16 14  1  0  0  0  0
 16 15  1  0  0  0  0
 17 19  1  0  0  0  0
 19 23  2  0  0  0  0
 21 24  2  0  0  0  0
 21 19  1  0  0  0  0
 23 18  1  0  0  0  0
 23 22  1  0  0  0  0
 24 25  1  0  0  0  0
 25 20  1  0  0  0  0
 25 18  2  0  0  0  0
 27 28  1  0  0  0  0
 27 26  1  0  0  0  0
 29 28  1  0  0  0  0
 30 29  1  0  0  0  0
 32 31  2  0  0  0  0
 32 30  1  0  0  0  0
 33 32  1  0  0  0  0
 34 33  2  0  0  0  0
 35 40  2  0  0  0  0
 36 41  1  1  0  0  0
 37 39  1  0  0  0  0
 38 43  1  6  0  0  0
 38 36  1  0  0  0  0
 39 36  1  0  0  0  0
 39 33  1  6  0  0  0
 40 37  1  0  0  0  0
 40 38  1  0  0  0  0
 42 43  2  0  0  0  0
 43 44  1  0  0  0  0
M  END
>  <MODEL>
8

>  <REMARK>
 VINA RESULT:      -6.5      2.425      4.129
  Name = 
  14 active torsions:
  status: ('A' for Active; 'I' for Inactive)
    1  A    between atoms: N_2  and  C_15
    2  A    between atoms: C_5  and  C_15
    3  A    between atoms: C_6  and  O_21
    4  A    between atoms: C_10  and  C_16
    5  A    between atoms: C_10  and  C_23
    6  A    between atoms: C_16  and  C_35
    7  A    between atoms: C_19  and  C_26
    8  A    between atoms: O_21  and  C_25
    9  A    between atoms: C_22  and  C_40
   10  A    between atoms: C_23  and  C_28
   11  A    between atoms: C_26  and  N_38
   12  A    between atoms: C_28  and  C_31
   13  A    between atoms: C_30  and  C_41
   14  A    between atoms: C_35  and  N_38
                            x       y       z     vdW  Elec       q    Type
                         _______ _______ _______ _____ _____    ______ ____

>  <TORSDO>
F 14

$$$$
=
 OpenBabel11062422403D

 44 48  0  0  1  0  0  0  0  0999 V2000
  189.7640  174.4670  142.2080 N   0  0  0  0  0  0  0  0  0  0  0  0
  190.0930  175.7390  142.8240 C   0  0  1  0  0  3  0  0  0  0  0  0
  187.6460  175.5230  142.6980 C   0  0  1  0  0  3  0  0  0  0  0  0
  188.3580  174.3680  142.1010 C   0  0  0  0  0  0  0  0  0  0  0  0
  188.7650  176.3120  143.3850 C   0  0  1  0  0  3  0  0  0  0  0  0
  187.7780  173.4000  141.5400 O   0  0  0  0  0  0  0  0  0  0  0  0
  187.4440  176.4700  140.4040 O   0  0  0  0  0  0  0  0  0  0  0  0
  185.7920  177.7220  140.6450 C   0  0  0  0  0  0  0  0  0  0  0  0
  186.7000  177.3060  139.7440 N   0  0  0  0  0  0  0  0  0  0  0  0
  185.9460  177.1640  141.8620 N   0  0  0  0  0  0  0  0  0  0  0  0
  184.7690  178.6620  140.3410 N   0  0  0  0  0  1  0  0  0  0  0  0
  187.0130  176.3720  141.6410 C   0  0  0  0  0  0  0  0  0  0  0  0
  190.6930  173.7060  141.3810 C   0  0  0  0  0  2  0  0  0  0  0  0
  191.4690  172.7230  142.2380 C   0  0  0  0  0  3  0  0  0  0  0  0
  190.5690  171.5590  142.5910 C   0  0  0  0  0  2  0  0  0  0  0  0
  191.5990  171.4120  141.4920 C   0  0  0  0  0  2  0  0  0  0  0  0
  188.6460  176.1260  144.7920 O   0  0  0  0  0  0  0  0  0  0  0  0
  187.1050  178.0690  147.5570 N   0  0  0  0  0  0  0  0  0  0  0  0
  187.7290  176.7840  145.6280 C   0  0  0  0  0  0  0  0  0  0  0  0
  184.8180  178.6680  148.0100 N   0  0  0  0  0  1  0  0  0  0  0  0
  186.3840  176.7470  145.2550 C   0  0  0  0  0  3  0  0  0  0  0  0
  189.4270  177.5640  147.2580 N   0  0  0  0  0  1  0  0  0  0  0  0
  188.0770  177.4730  146.8140 C   0  0  0  0  0  0  0  0  0  0  0  0
  185.4110  177.3690  146.0360 C   0  0  0  0  0  3  0  0  0  0  0  0
  185.7970  178.0330  147.1990 C   0  0  0  0  0  0  0  0  0  0  0  0
  191.2500  175.6270  143.8180 C   0  0  0  0  0  2  0  0  0  0  0  0
  192.4510  176.2770  143.3150 N   0  0  0  0  0  2  0  0  0  0  0  0
  193.3550  176.4100  144.4440 C   0  0  0  0  0  2  0  0  0  0  0  0
  194.7510  176.0010  144.0260 C   0  0  0  0  0  2  0  0  0  0  0  0
  194.8140  174.5030  143.8250 C   0  0  0  0  0  2  0  0  0  0  0  0
  197.0290  174.3830  142.9860 O   0  0  0  0  0  0  0  0  0  0  0  0
  196.2340  174.0450  143.9040 C   0  0  0  0  0  0  0  0  0  0  0  0
  196.7240  173.2470  145.0430 C   0  0  0  0  0  0  0  0  0  0  0  0
  196.8220  173.7920  146.2560 C   0  0  0  0  0  2  0  0  0  0  0  0
  195.6290  169.1110  146.8870 C   0  0  0  0  0  1  0  0  0  0  0  0
  195.9070  171.1770  143.8930 C   0  0  1  0  0  3  0  0  0  0  0  0
  196.7990  171.0550  146.1200 N   0  0  0  0  0  0  0  0  0  0  0  0
  195.2290  170.0120  144.6130 C   0  0  1  0  0  3  0  0  0  0  0  0
  196.9370  171.7700  144.8640 C   0  0  2  0  0  3  0  0  0  0  0  0
  195.8100  170.0570  145.9770 C   0  0  0  0  0  0  0  0  0  0  0  0
  196.5560  170.7080  142.7510 O   0  0  0  0  0  1  0  0  0  0  0  0
  193.2220  171.4480  144.9660 O   0  0  0  0  0  1  0  0  0  0  0  0
  193.7450  170.2080  144.6300 C   0  0  0  0  0  0  0  0  0  0  0  0
  192.9650  169.2560  144.3620 O   0  0  0  0  0  0  0  0  0  0  0  0
  1  2  1  0  0  0  0
  2  5  1  0  0  0  0
  2 26  1  1  0  0  0
  3 12  1  6  0  0  0
  3  5  1  0  0  0  0
  4  1  1  0  0  0  0
  4  3  1  0  0  0  0
  5 17  1  1  0  0  0
  6  4  2  0  0  0  0
  7 12  1  0  0  0  0
  8 10  1  0  0  0  0
  9  7  1  0  0  0  0
  9  8  2  0  0  0  0
 11  8  1  0  0  0  0
 12 10  2  0  0  0  0
 13  1  1  0  0  0  0
 13 14  1  0  0  0  0
 14 15  1  0  0  0  0
 16 14  1  0  0  0  0
 16 15  1  0  0  0  0
 17 19  1  0  0  0  0
 19 23  1  0  0  0  0
 21 19  2  0  0  0  0
 21 24  1  0  0  0  0
 23 22  1  0  0  0  0
 23 18  2  0  0  0  0
 24 25  2  0  0  0  0
 25 18  1  0  0  0  0
 25 20  1  0  0  0  0
 27 26  1  0  0  0  0
 27 28  1  0  0  0  0
 29 28  1  0  0  0  0
 30 32  1  0  0  0  0
 30 29  1  0  0  0  0
 31 32  2  0  0  0  0
 32 33  1  0  0  0  0
 33 34  2  0  0  0  0
 36 41  1  6  0  0  0
 36 38  1  0  0  0  0
 36 39  1  0  0  0  0
 38 43  1  1  0  0  0
 38 40  1  0  0  0  0
 39 33  1  1  0  0  0
 39 37  1  0  0  0  0
 40 37  2  0  0  0  0
 40 35  1  0  0  0  0
 43 42  1  0  0  0  0
 44 43  2  0  0  0  0
M  END
>  <MODEL>
9

>  <REMARK>
 VINA RESULT:      -6.5      2.066      2.921
  Name = 
  14 active torsions:
  status: ('A' for Active; 'I' for Inactive)
    1  A    between atoms: N_2  and  C_15
    2  A    between atoms: C_5  and  C_15
    3  A    between atoms: C_6  and  O_21
    4  A    between atoms: C_10  and  C_16
    5  A    between atoms: C_10  and  C_23
    6  A    between atoms: C_16  and  C_35
    7  A    between atoms: C_19  and  C_26
    8  A    between atoms: O_21  and  C_25
    9  A    between atoms: C_22  and  C_40
   10  A    between atoms: C_23  and  C_28
   11  A    between atoms: C_26  and  N_38
   12  A    between atoms: C_28  and  C_31
   13  A    between atoms: C_30  and  C_41
   14  A    between atoms: C_35  and  N_38
                            x       y       z     vdW  Elec       q    Type
                         _______ _______ _______ _____ _____    ______ ____

>  <TORSDO>
F 14

$$$$
