=
 OpenBabel11062421233D

 31 35  0  0  1  0  0  0  0  0999 V2000
  185.3240  177.8230  144.9310 C   0  0  0  0  0  0  0  0  0  0  0  0
  184.4350  178.2610  145.9240 C   0  0  0  0  0  3  0  0  0  0  0  0
  186.1430  177.9390  147.6080 C   0  0  0  0  0  3  0  0  0  0  0  0
  187.0380  177.5090  146.6210 C   0  0  0  0  0  0  0  0  0  0  0  0
  186.6260  177.4490  145.2850 C   0  0  0  0  0  3  0  0  0  0  0  0
  184.8440  178.3170  147.2590 C   0  0  0  0  0  3  0  0  0  0  0  0
  184.8040  179.0500  142.9660 O   0  0  0  0  0  1  0  0  0  0  0  0
  184.9120  177.7620  143.4960 C   0  0  1  0  0  3  0  0  0  0  0  0
  185.8920  176.9600  142.7010 C   0  0  0  0  0  3  0  0  0  0  0  0
  186.5170  177.4930  141.7180 N   0  0  0  0  0  0  0  0  0  0  0  0
  187.4570  176.7150  140.9580 C   0  0  0  0  0  2  0  0  0  0  0  0
  190.0090  174.8590  141.9970 C   0  0  0  0  0  0  0  0  0  0  0  0
  189.6310  176.8840  143.0380 C   0  0  0  0  0  2  0  0  0  0  0  0
  189.0030  175.6580  142.5670 N   0  0  0  0  0  0  0  0  0  0  0  0
  191.0870  176.5710  142.8500 C   0  0  0  0  0  0  0  0  0  0  0  0
  188.2620  174.4210  140.7880 N   0  0  0  0  0  2  0  0  0  0  0  0
  192.0160  177.3340  143.2210 O   0  0  0  0  0  0  0  0  0  0  0  0
  189.6300  174.1820  140.9730 N   0  0  0  0  0  0  0  0  0  0  0  0
  187.8250  175.4530  141.7270 C   0  0  2  0  0  3  0  0  0  0  0  0
  191.3300  175.3340  142.1820 N   0  0  0  0  0  2  0  0  0  0  0  0
  188.4180  177.0920  146.9930 C   0  0  0  0  0  2  0  0  0  0  0  0
  192.2500  175.7520  146.8850 C   0  0  1  0  0  3  0  0  0  0  0  0
  192.1070  172.6730  144.5200 C   0  0  0  0  0  1  0  0  0  0  0  0
  190.4300  174.1020  145.5780 C   0  0  0  0  0  3  0  0  0  0  0  0
  190.0720  175.3240  146.3720 C   0  0  1  0  0  0  0  0  0  0  0  0
  189.4540  175.0180  147.5960 O   0  0  0  0  0  0  0  0  0  0  0  0
  193.1830  176.7310  147.1630 F   0  0  0  0  0  0  0  0  0  0  0  0
  191.0330  176.3540  146.5000 O   0  0  0  0  0  0  0  0  0  0  0  0
  192.7840  174.8360  145.7740 C   0  0  0  0  0  2  0  0  0  0  0  0
  191.7230  173.8580  145.3340 C   0  0  0  0  0  0  0  0  0  0  0  0
  188.6440  175.6360  146.6150 C   0  0  1  0  0  3  0  0  0  0  0  0
  1  5  2  0  0  0  0
  1  2  1  0  0  0  0
  2  6  2  0  0  0  0
  4 21  1  0  0  0  0
  4  3  2  0  0  0  0
  5  4  1  0  0  0  0
  6  3  1  0  0  0  0
  8  7  1  6  0  0  0
  8  1  1  0  0  0  0
  9  8  1  0  0  0  0
 10  9  2  0  0  0  0
 11 10  1  0  0  0  0
 12 20  1  0  0  0  0
 12 14  1  0  0  0  0
 14 13  1  0  0  0  0
 15 13  1  0  0  0  0
 15 17  2  0  0  0  0
 16 18  1  0  0  0  0
 16 19  1  0  0  0  0
 18 12  2  0  0  0  0
 19 11  1  6  0  0  0
 19 14  1  0  0  0  0
 20 15  1  0  0  0  0
 22 27  1  6  0  0  0
 23 30  1  0  0  0  0
 25 24  1  6  0  0  0
 25 28  1  0  0  0  0
 25 31  1  0  0  0  0
 25 26  1  0  0  0  0
 28 22  1  0  0  0  0
 29 22  1  0  0  0  0
 30 24  2  0  0  0  0
 30 29  1  0  0  0  0
 31 21  1  1  0  0  0
 31 26  1  0  0  0  0
M  END
>  <MODEL>
1

>  <REMARK>
 VINA RESULT:      -8.0      0.000      0.000
  Name = 
  6 active torsions:
  status: ('A' for Active; 'I' for Inactive)
    1  A    between atoms: C_10  and  C_26
    2  A    between atoms: C_11  and  C_26
    3  A    between atoms: C_12  and  C_20
    4  A    between atoms: C_12  and  C_31
    5  A    between atoms: C_15  and  C_24
    6  A    between atoms: C_15  and  N_27
                            x       y       z     vdW  Elec       q    Type
                         _______ _______ _______ _____ _____    ______ ____

>  <TORSDO>
F 6

$$$$
=
 OpenBabel11062421233D

 31 35  0  0  1  0  0  0  0  0999 V2000
  185.3890  177.6180  144.8660 C   0  0  0  0  0  0  0  0  0  0  0  0
  184.6250  178.3340  145.7990 C   0  0  0  0  0  3  0  0  0  0  0  0
  186.0590  177.5540  147.5860 C   0  0  0  0  0  3  0  0  0  0  0  0
  186.8310  176.8450  146.6580 C   0  0  0  0  0  0  0  0  0  0  0  0
  186.4940  176.8750  145.3010 C   0  0  0  0  0  3  0  0  0  0  0  0
  184.9580  178.2990  147.1550 C   0  0  0  0  0  3  0  0  0  0  0  0
  185.0890  178.9560  142.9270 O   0  0  0  0  0  1  0  0  0  0  0  0
  185.0570  177.6450  143.4090 C   0  0  1  0  0  3  0  0  0  0  0  0
  186.0090  176.7900  142.6360 C   0  0  0  0  0  3  0  0  0  0  0  0
  186.7610  177.3090  141.7380 N   0  0  0  0  0  0  0  0  0  0  0  0
  187.6740  176.4810  140.9990 C   0  0  0  0  0  2  0  0  0  0  0  0
  190.1090  174.3750  141.8220 C   0  0  0  0  0  0  0  0  0  0  0  0
  190.1160  176.4820  142.7640 C   0  0  0  0  0  2  0  0  0  0  0  0
  189.2900  175.3220  142.4610 N   0  0  0  0  0  0  0  0  0  0  0  0
  191.4860  175.9800  142.4110 C   0  0  0  0  0  0  0  0  0  0  0  0
  188.1740  174.0980  140.8810 N   0  0  0  0  0  2  0  0  0  0  0  0
  192.5400  176.6390  142.6060 O   0  0  0  0  0  0  0  0  0  0  0  0
  189.5160  173.6990  140.9030 N   0  0  0  0  0  0  0  0  0  0  0  0
  187.9930  175.2240  141.7970 C   0  0  2  0  0  3  0  0  0  0  0  0
  191.4890  174.6900  141.8010 N   0  0  0  0  0  2  0  0  0  0  0  0
  187.9950  176.0380  147.1170 C   0  0  0  0  0  2  0  0  0  0  0  0
  191.1560  174.1720  145.3780 C   0  0  1  0  0  3  0  0  0  0  0  0
  194.2420  176.1590  146.6500 C   0  0  0  0  0  1  0  0  0  0  0  0
  191.8230  176.4940  146.7580 C   0  0  0  0  0  3  0  0  0  0  0  0
  190.4270  175.9920  146.5370 C   0  0  1  0  0  0  0  0  0  0  0  0
  189.7090  176.7640  145.6080 O   0  0  0  0  0  0  0  0  0  0  0  0
  190.9050  172.8540  145.0530 F   0  0  0  0  0  0  0  0  0  0  0  0
  190.2280  174.6050  146.3490 O   0  0  0  0  0  0  0  0  0  0  0  0
  192.5950  174.3090  145.8950 C   0  0  0  0  0  2  0  0  0  0  0  0
  192.8460  175.7030  146.4110 C   0  0  0  0  0  0  0  0  0  0  0  0
  189.2810  176.8350  146.9540 C   0  0  1  0  0  3  0  0  0  0  0  0
  1  5  2  0  0  0  0
  1  2  1  0  0  0  0
  2  6  2  0  0  0  0
  4 21  1  0  0  0  0
  4  3  2  0  0  0  0
  5  4  1  0  0  0  0
  6  3  1  0  0  0  0
  8  7  1  6  0  0  0
  8  1  1  0  0  0  0
  9  8  1  0  0  0  0
 10  9  2  0  0  0  0
 11 10  1  0  0  0  0
 12 14  1  0  0  0  0
 14 13  1  0  0  0  0
 15 17  2  0  0  0  0
 15 13  1  0  0  0  0
 16 18  1  0  0  0  0
 16 19  1  0  0  0  0
 18 12  2  0  0  0  0
 19 11  1  6  0  0  0
 19 14  1  0  0  0  0
 20 12  1  0  0  0  0
 20 15  1  0  0  0  0
 22 27  1  1  0  0  0
 22 29  1  0  0  0  0
 22 28  1  0  0  0  0
 25 24  1  1  0  0  0
 25 31  1  0  0  0  0
 26 25  1  0  0  0  0
 26 31  1  0  0  0  0
 28 25  1  0  0  0  0
 29 30  1  0  0  0  0
 30 23  1  0  0  0  0
 30 24  2  0  0  0  0
 31 21  1  6  0  0  0
M  END
>  <MODEL>
2

>  <REMARK>
 VINA RESULT:      -7.4      1.185      1.676
  Name = 
  6 active torsions:
  status: ('A' for Active; 'I' for Inactive)
    1  A    between atoms: C_10  and  C_26
    2  A    between atoms: C_11  and  C_26
    3  A    between atoms: C_12  and  C_20
    4  A    between atoms: C_12  and  C_31
    5  A    between atoms: C_15  and  C_24
    6  A    between atoms: C_15  and  N_27
                            x       y       z     vdW  Elec       q    Type
                         _______ _______ _______ _____ _____    ______ ____

>  <TORSDO>
F 6

$$$$
=
 OpenBabel11062421233D

 31 35  0  0  1  0  0  0  0  0999 V2000
  186.6980  177.9060  143.1770 C   0  0  0  0  0  0  0  0  0  0  0  0
  185.8600  179.0170  143.3510 C   0  0  0  0  0  3  0  0  0  0  0  0
  186.0570  178.7980  145.7540 C   0  0  0  0  0  3  0  0  0  0  0  0
  186.9010  177.6940  145.5860 C   0  0  0  0  0  0  0  0  0  0  0  0
  187.2180  177.2480  144.2980 C   0  0  0  0  0  3  0  0  0  0  0  0
  185.5400  179.4590  144.6380 C   0  0  0  0  0  3  0  0  0  0  0  0
  188.0710  178.2140  141.2640 O   0  0  0  0  0  1  0  0  0  0  0  0
  187.0620  177.4180  141.8120 C   0  0  1  0  0  3  0  0  0  0  0  0
  187.5030  175.9910  141.8630 C   0  0  0  0  0  3  0  0  0  0  0  0
  188.1100  175.4660  140.8650 N   0  0  0  0  0  0  0  0  0  0  0  0
  188.5310  174.0920  140.9210 C   0  0  0  0  0  2  0  0  0  0  0  0
  190.7260  172.4440  142.7940 C   0  0  0  0  0  0  0  0  0  0  0  0
  191.3870  174.4310  141.8230 C   0  0  0  0  0  2  0  0  0  0  0  0
  190.3300  173.7760  142.5820 N   0  0  0  0  0  0  0  0  0  0  0  0
  192.4610  173.3840  141.8310 C   0  0  0  0  0  0  0  0  0  0  0  0
  188.5710  172.3120  142.5850 N   0  0  0  0  0  2  0  0  0  0  0  0
  193.6120  173.5640  141.3570 O   0  0  0  0  0  0  0  0  0  0  0  0
  189.7610  171.5960  142.7640 N   0  0  0  0  0  0  0  0  0  0  0  0
  188.8890  173.7200  142.3540 C   0  0  2  0  0  3  0  0  0  0  0  0
  192.0530  172.1420  142.4040 N   0  0  0  0  0  2  0  0  0  0  0  0
  187.4420  176.9780  146.7740 C   0  0  0  0  0  2  0  0  0  0  0  0
  191.2590  176.5230  148.0850 C   0  0  1  0  0  3  0  0  0  0  0  0
  192.8680  174.1200  145.4920 C   0  0  0  0  0  1  0  0  0  0  0  0
  190.5890  174.8840  145.9390 C   0  0  0  0  0  3  0  0  0  0  0  0
  189.6360  175.7850  146.6670 C   0  0  1  0  0  0  0  0  0  0  0  0
  188.7260  175.0810  147.4740 O   0  0  0  0  0  0  0  0  0  0  0  0
  191.7070  177.5820  148.8500 F   0  0  0  0  0  0  0  0  0  0  0  0
  190.1500  176.9330  147.3140 O   0  0  0  0  0  0  0  0  0  0  0  0
  192.3970  176.0220  147.1850 C   0  0  0  0  0  2  0  0  0  0  0  0
  191.8940  174.9760  146.2220 C   0  0  0  0  0  0  0  0  0  0  0  0
  188.1930  175.7290  146.3360 C   0  0  1  0  0  3  0  0  0  0  0  0
  1  2  2  0  0  0  0
  1  5  1  0  0  0  0
  2  6  1  0  0  0  0
  4  3  1  0  0  0  0
  4 21  1  0  0  0  0
  5  4  2  0  0  0  0
  6  3  2  0  0  0  0
  8  7  1  1  0  0  0
  8  9  1  0  0  0  0
  8  1  1  0  0  0  0
 10 11  1  0  0  0  0
 10  9  2  0  0  0  0
 13 15  1  0  0  0  0
 13 14  1  0  0  0  0
 14 12  1  0  0  0  0
 15 20  1  0  0  0  0
 16 18  1  0  0  0  0
 17 15  2  0  0  0  0
 18 12  2  0  0  0  0
 19 11  1  6  0  0  0
 19 14  1  0  0  0  0
 19 16  1  0  0  0  0
 20 12  1  0  0  0  0
 22 27  1  6  0  0  0
 23 30  1  0  0  0  0
 24 30  2  0  0  0  0
 25 24  1  6  0  0  0
 25 28  1  0  0  0  0
 25 26  1  0  0  0  0
 28 22  1  0  0  0  0
 29 22  1  0  0  0  0
 30 29  1  0  0  0  0
 31 25  1  0  0  0  0
 31 21  1  1  0  0  0
 31 26  1  0  0  0  0
M  END
>  <MODEL>
3

>  <REMARK>
 VINA RESULT:      -7.4      1.924      2.430
  Name = 
  6 active torsions:
  status: ('A' for Active; 'I' for Inactive)
    1  A    between atoms: C_10  and  C_26
    2  A    between atoms: C_11  and  C_26
    3  A    between atoms: C_12  and  C_20
    4  A    between atoms: C_12  and  C_31
    5  A    between atoms: C_15  and  C_24
    6  A    between atoms: C_15  and  N_27
                            x       y       z     vdW  Elec       q    Type
                         _______ _______ _______ _____ _____    ______ ____

>  <TORSDO>
F 6

$$$$
=
 OpenBabel11062421233D

 31 35  0  0  1  0  0  0  0  0999 V2000
  185.0110  178.3320  144.0930 C   0  0  0  0  0  0  0  0  0  0  0  0
  183.9090  178.6950  144.8810 C   0  0  0  0  0  3  0  0  0  0  0  0
  185.2040  178.2950  146.8880 C   0  0  0  0  0  3  0  0  0  0  0  0
  186.3090  177.9390  146.1050 C   0  0  0  0  0  0  0  0  0  0  0  0
  186.2100  177.9550  144.7100 C   0  0  0  0  0  3  0  0  0  0  0  0
  184.0060  178.6740  146.2750 C   0  0  0  0  0  3  0  0  0  0  0  0
  185.6480  177.2790  142.0620 O   0  0  0  0  0  1  0  0  0  0  0  0
  184.9350  178.3530  142.6000 C   0  0  1  0  0  3  0  0  0  0  0  0
  183.5120  178.3060  142.1450 C   0  0  0  0  0  3  0  0  0  0  0  0
  183.2290  178.3860  140.8980 N   0  0  0  0  0  0  0  0  0  0  0  0
  181.8590  178.3400  140.4680 C   0  0  0  0  0  2  0  0  0  0  0  0
  178.7990  179.2820  141.3550 C   0  0  0  0  0  0  0  0  0  0  0  0
  179.7940  177.5540  142.5170 C   0  0  0  0  0  2  0  0  0  0  0  0
  179.9930  178.8960  141.9870 N   0  0  0  0  0  0  0  0  0  0  0  0
  178.3250  177.3520  142.2880 C   0  0  0  0  0  0  0  0  0  0  0  0
  180.3410  180.2210  140.1530 N   0  0  0  0  0  2  0  0  0  0  0  0
  177.6910  176.3400  142.6860 O   0  0  0  0  0  0  0  0  0  0  0  0
  178.9660  179.9970  140.3000 N   0  0  0  0  0  0  0  0  0  0  0  0
  181.0640  179.4420  141.1570 C   0  0  2  0  0  3  0  0  0  0  0  0
  177.7060  178.4010  141.5450 N   0  0  0  0  0  2  0  0  0  0  0  0
  187.5810  177.5200  146.7560 C   0  0  0  0  0  2  0  0  0  0  0  0
  191.3070  176.2290  147.7280 C   0  0  1  0  0  3  0  0  0  0  0  0
  192.1700  173.6550  144.9500 C   0  0  0  0  0  1  0  0  0  0  0  0
  190.1440  174.8550  145.6070 C   0  0  0  0  0  3  0  0  0  0  0  0
  189.4610  175.9040  146.4350 C   0  0  1  0  0  0  0  0  0  0  0  0
  188.4890  175.3710  147.2980 O   0  0  0  0  0  0  0  0  0  0  0  0
  192.0250  177.1390  148.4790 F   0  0  0  0  0  0  0  0  0  0  0  0
  190.2530  176.8920  147.0640 O   0  0  0  0  0  0  0  0  0  0  0  0
  192.2410  175.5410  146.7230 C   0  0  0  0  0  2  0  0  0  0  0  0
  191.4570  174.6630  145.7810 C   0  0  0  0  0  0  0  0  0  0  0  0
  188.0170  176.1620  146.2260 C   0  0  1  0  0  3  0  0  0  0  0  0
  1  5  2  0  0  0  0
  1  2  1  0  0  0  0
  2  6  2  0  0  0  0
  4 21  1  0  0  0  0
  4  3  2  0  0  0  0
  5  4  1  0  0  0  0
  6  3  1  0  0  0  0
  8  7  1  6  0  0  0
  8  1  1  0  0  0  0
  9  8  1  0  0  0  0
 10  9  2  0  0  0  0
 11 10  1  0  0  0  0
 12 20  1  0  0  0  0
 12 14  1  0  0  0  0
 14 13  1  0  0  0  0
 15 13  1  0  0  0  0
 15 17  2  0  0  0  0
 16 18  1  0  0  0  0
 16 19  1  0  0  0  0
 18 12  2  0  0  0  0
 19 11  1  6  0  0  0
 19 14  1  0  0  0  0
 20 15  1  0  0  0  0
 22 27  1  6  0  0  0
 23 30  1  0  0  0  0
 24 30  2  0  0  0  0
 25 24  1  6  0  0  0
 25 28  1  0  0  0  0
 25 26  1  0  0  0  0
 28 22  1  0  0  0  0
 29 22  1  0  0  0  0
 30 29  1  0  0  0  0
 31 25  1  0  0  0  0
 31 21  1  1  0  0  0
 31 26  1  0  0  0  0
M  END
>  <MODEL>
4

>  <REMARK>
 VINA RESULT:      -7.3      3.980      6.450
  Name = 
  6 active torsions:
  status: ('A' for Active; 'I' for Inactive)
    1  A    between atoms: C_10  and  C_26
    2  A    between atoms: C_11  and  C_26
    3  A    between atoms: C_12  and  C_20
    4  A    between atoms: C_12  and  C_31
    5  A    between atoms: C_15  and  C_24
    6  A    between atoms: C_15  and  N_27
                            x       y       z     vdW  Elec       q    Type
                         _______ _______ _______ _____ _____    ______ ____

>  <TORSDO>
F 6

$$$$
=
 OpenBabel11062421233D

 31 35  0  0  1  0  0  0  0  0999 V2000
  190.6310  176.1450  146.0290 C   0  0  0  0  0  0  0  0  0  0  0  0
  189.9120  175.4360  147.0030 C   0  0  0  0  0  3  0  0  0  0  0  0
  187.8370  176.3270  146.1310 C   0  0  0  0  0  3  0  0  0  0  0  0
  188.5480  177.0290  145.1510 C   0  0  0  0  0  0  0  0  0  0  0  0
  189.9440  176.9400  145.1040 C   0  0  0  0  0  3  0  0  0  0  0  0
  188.5190  175.5300  147.0540 C   0  0  0  0  0  3  0  0  0  0  0  0
  192.6310  175.4130  147.0800 O   0  0  0  0  0  1  0  0  0  0  0  0
  192.1210  176.0560  145.9490 C   0  0  1  0  0  3  0  0  0  0  0  0
  192.5390  175.3280  144.7110 C   0  0  0  0  0  3  0  0  0  0  0  0
  192.5390  174.0480  144.6840 N   0  0  0  0  0  0  0  0  0  0  0  0
  192.9430  173.3550  143.4910 C   0  0  0  0  0  2  0  0  0  0  0  0
  189.6620  172.9400  143.1700 C   0  0  0  0  0  0  0  0  0  0  0  0
  190.7510  174.2890  141.6460 C   0  0  0  0  0  2  0  0  0  0  0  0
  190.7900  173.0060  142.3340 N   0  0  0  0  0  0  0  0  0  0  0  0
  189.3970  174.8030  142.0390 C   0  0  0  0  0  0  0  0  0  0  0  0
  191.1840  171.8620  144.2770 N   0  0  0  0  0  2  0  0  0  0  0  0
  188.8980  175.8660  141.5870 O   0  0  0  0  0  0  0  0  0  0  0  0
  189.8660  172.3350  144.2850 N   0  0  0  0  0  0  0  0  0  0  0  0
  191.8650  172.3590  143.0820 C   0  0  2  0  0  3  0  0  0  0  0  0
  188.7280  173.9910  143.0030 N   0  0  0  0  0  2  0  0  0  0  0  0
  187.8250  177.8910  144.1760 C   0  0  0  0  0  2  0  0  0  0  0  0
  185.8840  177.6970  140.6140 C   0  0  1  0  0  3  0  0  0  0  0  0
  182.1670  178.3590  141.5260 C   0  0  0  0  0  1  0  0  0  0  0  0
  184.2000  177.9380  142.8160 C   0  0  0  0  0  3  0  0  0  0  0  0
  185.6900  177.7680  142.8820 C   0  0  1  0  0  0  0  0  0  0  0  0
  186.0740  176.4930  143.3300 O   0  0  0  0  0  0  0  0  0  0  0  0
  186.6930  177.9820  139.5310 F   0  0  0  0  0  0  0  0  0  0  0  0
  186.4720  178.2110  141.7900 O   0  0  0  0  0  0  0  0  0  0  0  0
  184.4920  178.3030  140.3870 C   0  0  0  0  0  2  0  0  0  0  0  0
  183.6370  178.1510  141.6200 C   0  0  0  0  0  0  0  0  0  0  0  0
  186.3370  177.5750  144.2010 C   0  0  1  0  0  3  0  0  0  0  0  0
  1  2  1  0  0  0  0
  2  6  2  0  0  0  0
  3  6  1  0  0  0  0
  4  3  2  0  0  0  0
  5  4  1  0  0  0  0
  5  1  2  0  0  0  0
  8  1  1  0  0  0  0
  8  7  1  1  0  0  0
  9  8  1  0  0  0  0
 10  9  2  0  0  0  0
 11 10  1  0  0  0  0
 12 18  2  0  0  0  0
 13 15  1  0  0  0  0
 13 14  1  0  0  0  0
 14 19  1  0  0  0  0
 14 12  1  0  0  0  0
 15 20  1  0  0  0  0
 16 18  1  0  0  0  0
 17 15  2  0  0  0  0
 19 11  1  1  0  0  0
 19 16  1  0  0  0  0
 20 12  1  0  0  0  0
 21  4  1  0  0  0  0
 22 27  1  6  0  0  0
 22 28  1  0  0  0  0
 23 30  1  0  0  0  0
 25 24  1  6  0  0  0
 25 26  1  0  0  0  0
 25 31  1  0  0  0  0
 26 31  1  0  0  0  0
 28 25  1  0  0  0  0
 29 22  1  0  0  0  0
 29 30  1  0  0  0  0
 30 24  2  0  0  0  0
 31 21  1  6  0  0  0
M  END
>  <MODEL>
5

>  <REMARK>
 VINA RESULT:      -7.1      2.789      6.433
  Name = 
  6 active torsions:
  status: ('A' for Active; 'I' for Inactive)
    1  A    between atoms: C_10  and  C_26
    2  A    between atoms: C_11  and  C_26
    3  A    between atoms: C_12  and  C_20
    4  A    between atoms: C_12  and  C_31
    5  A    between atoms: C_15  and  C_24
    6  A    between atoms: C_15  and  N_27
                            x       y       z     vdW  Elec       q    Type
                         _______ _______ _______ _____ _____    ______ ____

>  <TORSDO>
F 6

$$$$
=
 OpenBabel11062421233D

 31 35  0  0  1  0  0  0  0  0999 V2000
  185.3910  177.7450  144.7750 C   0  0  0  0  0  0  0  0  0  0  0  0
  184.8560  178.7110  145.6400 C   0  0  0  0  0  3  0  0  0  0  0  0
  186.4430  178.0670  147.3520 C   0  0  0  0  0  3  0  0  0  0  0  0
  186.9860  177.1080  146.4890 C   0  0  0  0  0  0  0  0  0  0  0  0
  186.4580  176.9460  145.2040 C   0  0  0  0  0  3  0  0  0  0  0  0
  185.3800  178.8680  146.9260 C   0  0  0  0  0  3  0  0  0  0  0  0
  183.9620  178.5900  143.0770 O   0  0  0  0  0  1  0  0  0  0  0  0
  184.8530  177.5610  143.3920 C   0  0  1  0  0  3  0  0  0  0  0  0
  185.9670  177.5210  142.3960 C   0  0  0  0  0  3  0  0  0  0  0  0
  186.5070  176.4050  142.0750 N   0  0  0  0  0  0  0  0  0  0  0  0
  187.5780  176.3740  141.1160 C   0  0  0  0  0  2  0  0  0  0  0  0
  189.0620  173.4830  141.8050 C   0  0  0  0  0  0  0  0  0  0  0  0
  189.0050  174.1900  139.6090 C   0  0  0  0  0  2  0  0  0  0  0  0
  189.2860  174.5970  140.9780 N   0  0  0  0  0  0  0  0  0  0  0  0
  188.8120  172.7100  139.7650 C   0  0  0  0  0  0  0  0  0  0  0  0
  188.4630  175.1640  143.0380 N   0  0  0  0  0  2  0  0  0  0  0  0
  188.6350  171.9250  138.7980 O   0  0  0  0  0  0  0  0  0  0  0  0
  188.5650  173.7690  142.9550 N   0  0  0  0  0  0  0  0  0  0  0  0
  188.8160  175.7480  141.7450 C   0  0  2  0  0  3  0  0  0  0  0  0
  188.8170  172.2670  141.1210 N   0  0  0  0  0  2  0  0  0  0  0  0
  188.1080  176.2420  146.9460 C   0  0  0  0  0  2  0  0  0  0  0  0
  191.2130  174.2410  145.2560 C   0  0  1  0  0  3  0  0  0  0  0  0
  194.3610  176.0890  146.5830 C   0  0  0  0  0  1  0  0  0  0  0  0
  191.9580  176.5300  146.6510 C   0  0  0  0  0  3  0  0  0  0  0  0
  190.5440  176.0900  146.4070 C   0  0  1  0  0  0  0  0  0  0  0  0
  189.8770  176.8930  145.4680 O   0  0  0  0  0  0  0  0  0  0  0  0
  190.9090  172.9350  144.9250 F   0  0  0  0  0  0  0  0  0  0  0  0
  190.2880  174.7130  146.2130 O   0  0  0  0  0  0  0  0  0  0  0  0
  192.6470  174.3130  145.7980 C   0  0  0  0  0  2  0  0  0  0  0  0
  192.9500  175.6950  146.3200 C   0  0  0  0  0  0  0  0  0  0  0  0
  189.4300  176.9820  146.8060 C   0  0  1  0  0  3  0  0  0  0  0  0
  1  5  2  0  0  0  0
  1  2  1  0  0  0  0
  2  6  2  0  0  0  0
  4 21  1  0  0  0  0
  4  3  2  0  0  0  0
  5  4  1  0  0  0  0
  6  3  1  0  0  0  0
  8  7  1  6  0  0  0
  8  1  1  0  0  0  0
  9  8  1  0  0  0  0
 10  9  2  0  0  0  0
 11 10  1  0  0  0  0
 12 18  2  0  0  0  0
 13 15  1  0  0  0  0
 13 14  1  0  0  0  0
 14 19  1  0  0  0  0
 14 12  1  0  0  0  0
 15 20  1  0  0  0  0
 17 15  2  0  0  0  0
 18 16  1  0  0  0  0
 19 11  1  6  0  0  0
 19 16  1  0  0  0  0
 20 12  1  0  0  0  0
 22 27  1  1  0  0  0
 22 29  1  0  0  0  0
 22 28  1  0  0  0  0
 25 24  1  1  0  0  0
 25 31  1  0  0  0  0
 26 25  1  0  0  0  0
 26 31  1  0  0  0  0
 28 25  1  0  0  0  0
 29 30  1  0  0  0  0
 30 23  1  0  0  0  0
 30 24  2  0  0  0  0
 31 21  1  6  0  0  0
M  END
>  <MODEL>
6

>  <REMARK>
 VINA RESULT:      -7.1      2.094      2.736
  Name = 
  6 active torsions:
  status: ('A' for Active; 'I' for Inactive)
    1  A    between atoms: C_10  and  C_26
    2  A    between atoms: C_11  and  C_26
    3  A    between atoms: C_12  and  C_20
    4  A    between atoms: C_12  and  C_31
    5  A    between atoms: C_15  and  C_24
    6  A    between atoms: C_15  and  N_27
                            x       y       z     vdW  Elec       q    Type
                         _______ _______ _______ _____ _____    ______ ____

>  <TORSDO>
F 6

$$$$
=
 OpenBabel11062421233D

 31 35  0  0  1  0  0  0  0  0999 V2000
  191.9720  176.2880  145.4480 C   0  0  0  0  0  0  0  0  0  0  0  0
  192.6190  175.7360  146.5630 C   0  0  0  0  0  3  0  0  0  0  0  0
  190.4800  175.3810  147.6390 C   0  0  0  0  0  3  0  0  0  0  0  0
  189.8280  175.9220  146.5250 C   0  0  0  0  0  0  0  0  0  0  0  0
  190.5750  176.3780  145.4330 C   0  0  0  0  0  3  0  0  0  0  0  0
  191.8740  175.2860  147.6570 C   0  0  0  0  0  3  0  0  0  0  0  0
  194.1190  176.6650  144.5050 O   0  0  0  0  0  1  0  0  0  0  0  0
  192.7460  176.7690  144.2640 C   0  0  1  0  0  3  0  0  0  0  0  0
  192.3770  175.9910  143.0420 C   0  0  0  0  0  3  0  0  0  0  0  0
  192.5100  174.7170  143.0240 N   0  0  0  0  0  0  0  0  0  0  0  0
  192.1530  173.9740  141.8460 C   0  0  0  0  0  2  0  0  0  0  0  0
  188.9380  173.6340  142.6100 C   0  0  0  0  0  0  0  0  0  0  0  0
  189.4970  174.1790  140.4380 C   0  0  0  0  0  2  0  0  0  0  0  0
  189.7990  173.2920  141.5530 N   0  0  0  0  0  0  0  0  0  0  0  0
  188.2650  174.8800  140.9320 C   0  0  0  0  0  0  0  0  0  0  0  0
  190.7640  173.0290  143.6120 N   0  0  0  0  0  2  0  0  0  0  0  0
  187.5970  175.6870  140.2350 O   0  0  0  0  0  0  0  0  0  0  0  0
  189.4670  173.5310  143.7770 N   0  0  0  0  0  0  0  0  0  0  0  0
  191.0720  172.9560  142.1840 C   0  0  2  0  0  3  0  0  0  0  0  0
  187.9270  174.5710  142.2830 N   0  0  0  0  0  2  0  0  0  0  0  0
  188.3440  176.0380  146.5110 C   0  0  0  0  0  2  0  0  0  0  0  0
  185.1930  178.5910  146.7470 C   0  0  1  0  0  3  0  0  0  0  0  0
  183.7600  178.6570  143.1370 C   0  0  0  0  0  1  0  0  0  0  0  0
  185.7830  177.7460  144.1620 C   0  0  0  0  0  3  0  0  0  0  0  0
  186.5930  177.4200  145.3830 C   0  0  1  0  0  0  0  0  0  0  0  0
  187.8170  178.1080  145.4260 O   0  0  0  0  0  0  0  0  0  0  0  0
  184.6570  178.6860  148.0160 F   0  0  0  0  0  0  0  0  0  0  0  0
  185.9450  177.4010  146.6400 O   0  0  0  0  0  0  0  0  0  0  0  0
  184.0630  178.6200  145.7090 C   0  0  0  0  0  2  0  0  0  0  0  0
  184.6010  178.3530  144.3260 C   0  0  0  0  0  0  0  0  0  0  0  0
  187.8840  176.7100  145.2260 C   0  0  1  0  0  3  0  0  0  0  0  0
  1  2  1  0  0  0  0
  2  6  2  0  0  0  0
  3  6  1  0  0  0  0
  4  3  2  0  0  0  0
  5  1  2  0  0  0  0
  5  4  1  0  0  0  0
  8  7  1  1  0  0  0
  8  1  1  0  0  0  0
  9  8  1  0  0  0  0
 10  9  2  0  0  0  0
 11 10  1  0  0  0  0
 12 18  2  0  0  0  0
 13 15  1  0  0  0  0
 13 14  1  0  0  0  0
 14 19  1  0  0  0  0
 14 12  1  0  0  0  0
 15 20  1  0  0  0  0
 16 18  1  0  0  0  0
 17 15  2  0  0  0  0
 19 11  1  1  0  0  0
 19 16  1  0  0  0  0
 20 12  1  0  0  0  0
 21  4  1  0  0  0  0
 22 27  1  1  0  0  0
 23 30  1  0  0  0  0
 24 30  2  0  0  0  0
 25 24  1  6  0  0  0
 25 26  1  0  0  0  0
 25 28  1  0  0  0  0
 28 22  1  0  0  0  0
 29 22  1  0  0  0  0
 30 29  1  0  0  0  0
 31 25  1  0  0  0  0
 31 26  1  0  0  0  0
 31 21  1  1  0  0  0
M  END
>  <MODEL>
7

>  <REMARK>
 VINA RESULT:      -7.0      2.553      6.065
  Name = 
  6 active torsions:
  status: ('A' for Active; 'I' for Inactive)
    1  A    between atoms: C_10  and  C_26
    2  A    between atoms: C_11  and  C_26
    3  A    between atoms: C_12  and  C_20
    4  A    between atoms: C_12  and  C_31
    5  A    between atoms: C_15  and  C_24
    6  A    between atoms: C_15  and  N_27
                            x       y       z     vdW  Elec       q    Type
                         _______ _______ _______ _____ _____    ______ ____

>  <TORSDO>
F 6

$$$$
=
 OpenBabel11062421233D

 31 35  0  0  1  0  0  0  0  0999 V2000
  185.8480  177.9010  144.8160 C   0  0  0  0  0  0  0  0  0  0  0  0
  184.8720  178.1410  145.7940 C   0  0  0  0  0  3  0  0  0  0  0  0
  186.5200  177.8020  147.5340 C   0  0  0  0  0  3  0  0  0  0  0  0
  187.5010  177.5710  146.5620 C   0  0  0  0  0  0  0  0  0  0  0  0
  187.1630  177.6180  145.2050 C   0  0  0  0  0  3  0  0  0  0  0  0
  185.2080  178.0880  147.1490 C   0  0  0  0  0  3  0  0  0  0  0  0
  186.0290  179.1260  142.7890 O   0  0  0  0  0  1  0  0  0  0  0  0
  185.5160  177.9580  143.3600 C   0  0  1  0  0  3  0  0  0  0  0  0
  186.0550  176.7590  142.6500 C   0  0  0  0  0  3  0  0  0  0  0  0
  187.1030  176.8570  141.9200 N   0  0  0  0  0  0  0  0  0  0  0  0
  187.6160  175.6990  141.2390 C   0  0  0  0  0  2  0  0  0  0  0  0
  189.6550  173.1490  141.8530 C   0  0  0  0  0  0  0  0  0  0  0  0
  189.3660  173.8190  139.6640 C   0  0  0  0  0  2  0  0  0  0  0  0
  189.6250  174.2810  141.0200 N   0  0  0  0  0  0  0  0  0  0  0  0
  189.4670  172.3310  139.8240 C   0  0  0  0  0  0  0  0  0  0  0  0
  188.8000  174.6920  143.1160 N   0  0  0  0  0  2  0  0  0  0  0  0
  189.4010  171.5210  138.8640 O   0  0  0  0  0  0  0  0  0  0  0  0
  189.1640  173.3420  143.0250 N   0  0  0  0  0  0  0  0  0  0  0  0
  188.9770  175.3250  141.8100 C   0  0  2  0  0  3  0  0  0  0  0  0
  189.6180  171.9050  141.1780 N   0  0  0  0  0  2  0  0  0  0  0  0
  188.8960  177.2510  146.9700 C   0  0  0  0  0  2  0  0  0  0  0  0
  192.8040  176.1440  147.0260 C   0  0  1  0  0  3  0  0  0  0  0  0
  192.9370  173.0320  144.7050 C   0  0  0  0  0  1  0  0  0  0  0  0
  191.1370  174.3700  145.6780 C   0  0  0  0  0  3  0  0  0  0  0  0
  190.6770  175.5780  146.4390 C   0  0  1  0  0  0  0  0  0  0  0  0
  190.0310  175.2510  147.6440 O   0  0  0  0  0  0  0  0  0  0  0  0
  193.6650  177.1820  147.3240 F   0  0  0  0  0  0  0  0  0  0  0  0
  191.5680  176.6660  146.5870 O   0  0  0  0  0  0  0  0  0  0  0  0
  193.4330  175.2470  145.9510 C   0  0  0  0  0  2  0  0  0  0  0  0
  192.4510  174.2010  145.4870 C   0  0  0  0  0  0  0  0  0  0  0  0
  189.2240  175.8060  146.6240 C   0  0  1  0  0  3  0  0  0  0  0  0
  1  5  2  0  0  0  0
  1  2  1  0  0  0  0
  2  6  2  0  0  0  0
  4 21  1  0  0  0  0
  4  3  2  0  0  0  0
  5  4  1  0  0  0  0
  6  3  1  0  0  0  0
  8  7  1  6  0  0  0
  8  1  1  0  0  0  0
  9  8  1  0  0  0  0
 10  9  2  0  0  0  0
 11 10  1  0  0  0  0
 12 18  2  0  0  0  0
 13 15  1  0  0  0  0
 13 14  1  0  0  0  0
 14 19  1  0  0  0  0
 14 12  1  0  0  0  0
 15 20  1  0  0  0  0
 17 15  2  0  0  0  0
 18 16  1  0  0  0  0
 19 11  1  6  0  0  0
 19 16  1  0  0  0  0
 20 12  1  0  0  0  0
 22 27  1  6  0  0  0
 23 30  1  0  0  0  0
 25 24  1  6  0  0  0
 25 28  1  0  0  0  0
 25 31  1  0  0  0  0
 25 26  1  0  0  0  0
 28 22  1  0  0  0  0
 29 22  1  0  0  0  0
 30 24  2  0  0  0  0
 30 29  1  0  0  0  0
 31 21  1  1  0  0  0
 31 26  1  0  0  0  0
M  END
>  <MODEL>
8

>  <REMARK>
 VINA RESULT:      -7.0      1.832      2.249
  Name = 
  6 active torsions:
  status: ('A' for Active; 'I' for Inactive)
    1  A    between atoms: C_10  and  C_26
    2  A    between atoms: C_11  and  C_26
    3  A    between atoms: C_12  and  C_20
    4  A    between atoms: C_12  and  C_31
    5  A    between atoms: C_15  and  C_24
    6  A    between atoms: C_15  and  N_27
                            x       y       z     vdW  Elec       q    Type
                         _______ _______ _______ _____ _____    ______ ____

>  <TORSDO>
F 6

$$$$
=
 OpenBabel11062421233D

 31 35  0  0  1  0  0  0  0  0999 V2000
  186.4240  178.2830  145.5320 C   0  0  0  0  0  0  0  0  0  0  0  0
  185.2700  179.0280  145.2460 C   0  0  0  0  0  3  0  0  0  0  0  0
  185.9080  179.1360  142.9130 C   0  0  0  0  0  3  0  0  0  0  0  0
  187.0560  178.3850  143.1910 C   0  0  0  0  0  0  0  0  0  0  0  0
  187.3140  177.9620  144.5000 C   0  0  0  0  0  3  0  0  0  0  0  0
  185.0160  179.4550  143.9400 C   0  0  0  0  0  3  0  0  0  0  0  0
  185.6870  176.9790  147.3750 O   0  0  0  0  0  1  0  0  0  0  0  0
  186.7150  177.8080  146.9190 C   0  0  1  0  0  3  0  0  0  0  0  0
  188.0200  177.0820  146.9630 C   0  0  0  0  0  3  0  0  0  0  0  0
  188.1070  175.8820  146.5230 N   0  0  0  0  0  0  0  0  0  0  0  0
  189.3650  175.1880  146.5680 C   0  0  0  0  0  2  0  0  0  0  0  0
  192.4870  176.2350  146.1240 C   0  0  0  0  0  0  0  0  0  0  0  0
  190.8650  176.9650  144.6520 C   0  0  0  0  0  2  0  0  0  0  0  0
  191.1890  176.7720  146.0580 N   0  0  0  0  0  0  0  0  0  0  0  0
  192.1830  176.6740  143.9940 C   0  0  0  0  0  0  0  0  0  0  0  0
  191.4650  175.3110  147.7990 N   0  0  0  0  0  2  0  0  0  0  0  0
  192.3900  176.8120  142.7610 O   0  0  0  0  0  0  0  0  0  0  0  0
  192.6590  175.3830  147.0700 N   0  0  0  0  0  0  0  0  0  0  0  0
  190.4420  176.1100  147.1250 C   0  0  2  0  0  3  0  0  0  0  0  0
  193.1830  176.1960  144.8910 N   0  0  0  0  0  2  0  0  0  0  0  0
  188.0160  178.0570  142.1010 C   0  0  0  0  0  2  0  0  0  0  0  0
  189.3700  174.2300  142.2430 C   0  0  1  0  0  3  0  0  0  0  0  0
  188.5060  172.7920  138.7400 C   0  0  0  0  0  1  0  0  0  0  0  0
  187.9410  174.8470  139.9360 C   0  0  0  0  0  3  0  0  0  0  0  0
  188.1240  175.7640  141.1100 C   0  0  1  0  0  0  0  0  0  0  0  0
  186.9510  175.9240  141.8660 O   0  0  0  0  0  0  0  0  0  0  0  0
  190.3900  174.0420  143.1550 F   0  0  0  0  0  0  0  0  0  0  0  0
  189.2690  175.6020  141.9250 O   0  0  0  0  0  0  0  0  0  0  0  0
  189.6470  173.3950  140.9850 C   0  0  0  0  0  2  0  0  0  0  0  0
  188.6390  173.7050  139.9070 C   0  0  0  0  0  0  0  0  0  0  0  0
  187.3940  177.0530  141.1410 C   0  0  1  0  0  3  0  0  0  0  0  0
  1  8  1  0  0  0  0
  2  1  1  0  0  0  0
  3  4  2  0  0  0  0
  3  6  1  0  0  0  0
  4  5  1  0  0  0  0
  5  1  2  0  0  0  0
  6  2  2  0  0  0  0
  8  9  1  0  0  0  0
  8  7  1  6  0  0  0
 10 11  1  0  0  0  0
 10  9  2  0  0  0  0
 12 18  2  0  0  0  0
 13 14  1  0  0  0  0
 14 12  1  0  0  0  0
 14 19  1  0  0  0  0
 15 13  1  0  0  0  0
 15 20  1  0  0  0  0
 17 15  2  0  0  0  0
 18 16  1  0  0  0  0
 19 11  1  6  0  0  0
 19 16  1  0  0  0  0
 20 12  1  0  0  0  0
 21  4  1  0  0  0  0
 22 27  1  1  0  0  0
 23 30  1  0  0  0  0
 25 24  1  6  0  0  0
 25 31  1  0  0  0  0
 25 26  1  0  0  0  0
 25 28  1  0  0  0  0
 28 22  1  0  0  0  0
 29 22  1  0  0  0  0
 30 24  2  0  0  0  0
 30 29  1  0  0  0  0
 31 26  1  0  0  0  0
 31 21  1  1  0  0  0
M  END
>  <MODEL>
9

>  <REMARK>
 VINA RESULT:      -7.0      2.888      4.966
  Name = 
  6 active torsions:
  status: ('A' for Active; 'I' for Inactive)
    1  A    between atoms: C_10  and  C_26
    2  A    between atoms: C_11  and  C_26
    3  A    between atoms: C_12  and  C_20
    4  A    between atoms: C_12  and  C_31
    5  A    between atoms: C_15  and  C_24
    6  A    between atoms: C_15  and  N_27
                            x       y       z     vdW  Elec       q    Type
                         _______ _______ _______ _____ _____    ______ ____

>  <TORSDO>
F 6

$$$$
