=
 OpenBabel11072409143D

 39 42  0  0  1  0  0  0  0  0999 V2000
  189.5800  174.4950  141.8610 C   0  0  0  0  0  2  0  0  0  0  0  0
  190.8060  173.6650  142.2120 C   0  0  2  0  0  3  0  0  0  0  0  0
  188.7270  174.7190  143.0970 C   0  0  0  0  0  2  0  0  0  0  0  0
  190.5520  175.1380  145.6070 C   0  0  0  0  0  0  0  0  0  0  0  0
  189.0320  176.0740  143.7320 C   0  0  2  0  0  3  0  0  0  0  0  0
  189.6550  174.0980  146.1810 C   0  0  0  0  0  1  0  0  0  0  0  0
  192.0700  174.4790  141.9490 C   0  0  1  0  0  3  0  0  0  0  0  0
  192.3050  171.9510  141.1110 C   0  0  0  0  0  1  0  0  0  0  0  0
  191.7660  175.3800  146.0270 O   0  0  0  0  0  0  0  0  0  0  0  0
  193.1340  174.0760  142.9540 C   0  0  0  0  0  2  0  0  0  0  0  0
  193.6260  176.8940  145.3900 C   0  0  0  0  0  2  0  0  0  0  0  0
  191.6810  173.3400  141.0050 C   0  0  1  0  0  0  0  0  0  0  0  0
  192.2400  176.3490  145.2730 C   0  0  0  0  0  0  0  0  0  0  0  0
  194.1590  175.1880  143.0810 C   0  0  0  0  0  2  0  0  0  0  0  0
  190.2800  176.0000  144.5630 C   0  0  0  0  0  0  0  0  0  0  0  0
  195.8750  174.0260  144.5010 N   0  0  0  0  0  2  0  0  0  0  0  0
  194.6110  175.8150  145.3980 N   0  0  0  0  0  0  0  0  0  0  0  0
  194.8880  175.0520  144.3800 C   0  0  0  0  0  0  0  0  0  0  0  0
  191.3560  176.7810  144.3480 N   0  0  0  0  0  0  0  0  0  0  0  0
  196.6390  173.8170  145.7230 C   0  0  0  0  0  2  0  0  0  0  0  0
  196.7800  172.3940  145.9650 N   0  0  0  0  0  1  0  0  0  0  0  0
  191.1260  173.7170  139.7700 O   0  0  0  0  0  0  0  0  0  0  0  0
  190.8240  172.5290  139.0930 C   0  0  0  0  0  2  0  0  0  0  0  0
  188.3410  172.4010  139.2820 O   0  0  0  0  0  1  0  0  0  0  0  0
  189.4650  172.6220  138.4960 C   0  0  0  0  0  0  0  0  0  0  0  0
  189.3320  172.9060  137.2770 O   0  0  0  0  0  0  0  0  0  0  0  0
  187.8390  176.6450  144.5240 C   0  0  2  0  0  3  0  0  0  0  0  0
  186.7450  177.1270  143.5480 C   0  0  2  0  0  3  0  0  0  0  0  0
  184.2250  177.9890  142.3100 C   0  0  0  0  0  2  0  0  0  0  0  0
  186.2150  177.6460  141.1260 C   0  0  0  0  0  2  0  0  0  0  0  0
  187.2990  177.5990  142.2000 C   0  0  0  0  0  2  0  0  0  0  0  0
  185.2030  178.6430  141.4520 N   0  0  0  0  0  2  0  0  0  0  0  0
  184.4880  178.2940  143.7860 C   0  0  0  0  0  2  0  0  0  0  0  0
  185.9670  178.2770  144.1860 C   0  0  0  0  0  2  0  0  0  0  0  0
  188.2900  177.7100  145.3310 O   0  0  0  0  0  0  0  0  0  0  0  0
  187.9780  177.4280  146.6790 C   0  0  0  0  0  0  0  0  0  0  0  0
  187.1490  178.3980  147.2190 F   0  0  0  0  0  0  0  0  0  0  0  0
  187.3790  176.1870  146.8000 F   0  0  0  0  0  0  0  0  0  0  0  0
  189.1520  177.4130  147.4060 F   0  0  0  0  0  0  0  0  0  0  0  0
  1  3  1  0  0  0  0
  2  1  1  6  0  0  0
  3  5  1  0  0  0  0
  4  9  1  0  0  0  0
  4  6  1  0  0  0  0
  5 27  1  1  0  0  0
  5 15  1  0  0  0  0
  7  2  1  0  0  0  0
  7 10  1  1  0  0  0
 10 14  1  0  0  0  0
 11 17  1  0  0  0  0
 12  8  1  1  0  0  0
 12  7  1  0  0  0  0
 12  2  1  0  0  0  0
 13 11  1  0  0  0  0
 13  9  1  0  0  0  0
 14 18  1  0  0  0  0
 15  4  2  0  0  0  0
 16 20  1  0  0  0  0
 18 16  1  0  0  0  0
 18 17  2  0  0  0  0
 19 15  1  0  0  0  0
 19 13  2  0  0  0  0
 20 21  1  0  0  0  0
 22 12  1  0  0  0  0
 23 22  1  0  0  0  0
 25 23  1  0  0  0  0
 25 24  1  0  0  0  0
 26 25  2  0  0  0  0
 27 35  1  6  0  0  0
 28 34  1  0  0  0  0
 28 27  1  1  0  0  0
 29 33  1  0  0  0  0
 30 32  1  0  0  0  0
 30 31  1  0  0  0  0
 31 28  1  0  0  0  0
 32 29  1  0  0  0  0
 33 34  1  0  0  0  0
 35 36  1  0  0  0  0
 36 38  1  0  0  0  0
 36 37  1  0  0  0  0
 36 39  1  0  0  0  0
M  END
>  <MODEL>
1

>  <REMARK>
 VINA RESULT:      -7.6      0.000      0.000
  Name = 
  8 active torsions:
  status: ('A' for Active; 'I' for Inactive)
    1  A    between atoms: O_1  and  C_23
    2  A    between atoms: O_1  and  C_30
    3  A    between atoms: C_3  and  O_14
    4  A    between atoms: C_7  and  C_31
    5  A    between atoms: C_10  and  C_31
    6  A    between atoms: C_13  and  C_30
    7  A    between atoms: O_14  and  C_31
    8  A    between atoms: C_25  and  N_34
                            x       y       z     vdW  Elec       q    Type
                         _______ _______ _______ _____ _____    ______ ____

>  <TORSDO>
F 8

$$$$
=
 OpenBabel11072409143D

 39 42  0  0  1  0  0  0  0  0999 V2000
  190.4040  174.4460  141.7650 C   0  0  0  0  0  2  0  0  0  0  0  0
  189.2570  175.4040  141.4780 C   0  0  2  0  0  3  0  0  0  0  0  0
  191.5410  175.1810  142.4530 C   0  0  0  0  0  2  0  0  0  0  0  0
  190.4000  177.3050  144.4520 C   0  0  0  0  0  0  0  0  0  0  0  0
  191.4700  174.9980  143.9680 C   0  0  2  0  0  3  0  0  0  0  0  0
  191.3520  178.1940  143.7330 C   0  0  0  0  0  1  0  0  0  0  0  0
  188.0120  174.9550  142.2390 C   0  0  1  0  0  3  0  0  0  0  0  0
  187.4480  175.7170  139.7380 C   0  0  0  0  0  1  0  0  0  0  0  0
  189.3370  177.7210  145.0890 O   0  0  0  0  0  0  0  0  0  0  0  0
  187.2020  176.1800  142.6230 C   0  0  0  0  0  2  0  0  0  0  0  0
  187.4620  176.6830  146.3390 C   0  0  0  0  0  2  0  0  0  0  0  0
  188.1010  174.7530  140.7250 C   0  0  1  0  0  0  0  0  0  0  0  0
  188.7480  176.6520  145.5780 C   0  0  0  0  0  0  0  0  0  0  0  0
  186.2980  175.8430  143.7950 C   0  0  0  0  0  2  0  0  0  0  0  0
  190.4570  175.9290  144.5670 C   0  0  0  0  0  0  0  0  0  0  0  0
  184.9160  177.9390  143.8850 N   0  0  0  0  0  2  0  0  0  0  0  0
  186.4520  177.4580  145.6210 N   0  0  0  0  0  0  0  0  0  0  0  0
  185.8970  177.1010  144.4980 C   0  0  0  0  0  0  0  0  0  0  0  0
  189.4030  175.5060  145.2920 N   0  0  0  0  0  0  0  0  0  0  0  0
  184.4590  179.1800  144.4930 C   0  0  0  0  0  2  0  0  0  0  0  0
  185.3450  180.2610  144.1040 N   0  0  0  0  0  1  0  0  0  0  0  0
  188.3610  173.4430  140.2860 O   0  0  0  0  0  0  0  0  0  0  0  0
  188.3170  173.4780  138.8870 C   0  0  0  0  0  2  0  0  0  0  0  0
  189.7790  171.6210  138.0920 O   0  0  0  0  0  1  0  0  0  0  0  0
  189.6030  172.9780  138.3300 C   0  0  0  0  0  0  0  0  0  0  0  0
  190.5300  173.7880  138.0690 O   0  0  0  0  0  0  0  0  0  0  0  0
  192.8470  175.1190  144.6500 C   0  0  2  0  0  3  0  0  0  0  0  0
  193.7010  173.8740  144.3320 C   0  0  2  0  0  3  0  0  0  0  0  0
  195.5000  171.9040  143.1030 C   0  0  0  0  0  2  0  0  0  0  0  0
  194.2710  171.5160  145.0580 C   0  0  0  0  0  2  0  0  0  0  0  0
  193.8170  172.9010  145.5090 C   0  0  0  0  0  2  0  0  0  0  0  0
  195.6230  171.5620  144.5140 N   0  0  0  0  0  2  0  0  0  0  0  0
  195.7380  173.3970  142.8700 C   0  0  0  0  0  2  0  0  0  0  0  0
  195.1060  174.3140  143.9220 C   0  0  0  0  0  2  0  0  0  0  0  0
  192.6620  175.2530  146.0420 O   0  0  0  0  0  0  0  0  0  0  0  0
  193.4850  176.2980  146.5160 C   0  0  0  0  0  0  0  0  0  0  0  0
  192.8740  176.9940  147.5460 F   0  0  0  0  0  0  0  0  0  0  0  0
  194.7050  175.8100  146.9460 F   0  0  0  0  0  0  0  0  0  0  0  0
  193.7140  177.1800  145.4780 F   0  0  0  0  0  0  0  0  0  0  0  0
  1  3  1  0  0  0  0
  2  1  1  1  0  0  0
  2  7  1  0  0  0  0
  3  5  1  0  0  0  0
  4 15  2  0  0  0  0
  4  9  1  0  0  0  0
  5 15  1  0  0  0  0
  5 27  1  1  0  0  0
  6  4  1  0  0  0  0
  7 10  1  6  0  0  0
  9 13  1  0  0  0  0
 10 14  1  0  0  0  0
 12  8  1  6  0  0  0
 12  2  1  0  0  0  0
 12  7  1  0  0  0  0
 13 11  1  0  0  0  0
 14 18  1  0  0  0  0
 15 19  1  0  0  0  0
 16 20  1  0  0  0  0
 16 18  1  0  0  0  0
 17 11  1  0  0  0  0
 18 17  2  0  0  0  0
 19 13  2  0  0  0  0
 21 20  1  0  0  0  0
 22 12  1  0  0  0  0
 23 22  1  0  0  0  0
 24 25  1  0  0  0  0
 25 23  1  0  0  0  0
 26 25  2  0  0  0  0
 27 35  1  1  0  0  0
 28 27  1  1  0  0  0
 28 31  1  0  0  0  0
 29 32  1  0  0  0  0
 30 31  1  0  0  0  0
 32 30  1  0  0  0  0
 33 29  1  0  0  0  0
 33 34  1  0  0  0  0
 34 28  1  0  0  0  0
 35 36  1  0  0  0  0
 36 38  1  0  0  0  0
 36 37  1  0  0  0  0
 39 36  1  0  0  0  0
M  END
>  <MODEL>
2

>  <REMARK>
 VINA RESULT:      -7.2      2.309      7.196
  Name = 
  8 active torsions:
  status: ('A' for Active; 'I' for Inactive)
    1  A    between atoms: O_1  and  C_23
    2  A    between atoms: O_1  and  C_30
    3  A    between atoms: C_3  and  O_14
    4  A    between atoms: C_7  and  C_31
    5  A    between atoms: C_10  and  C_31
    6  A    between atoms: C_13  and  C_30
    7  A    between atoms: O_14  and  C_31
    8  A    between atoms: C_25  and  N_34
                            x       y       z     vdW  Elec       q    Type
                         _______ _______ _______ _____ _____    ______ ____

>  <TORSDO>
F 8

$$$$
=
 OpenBabel11072409143D

 39 42  0  0  1  0  0  0  0  0999 V2000
  192.2530  175.0280  143.2040 C   0  0  0  0  0  2  0  0  0  0  0  0
  191.3680  175.2060  144.4280 C   0  0  2  0  0  3  0  0  0  0  0  0
  191.7870  173.8340  142.3890 C   0  0  0  0  0  2  0  0  0  0  0  0
  188.6600  173.6650  142.4140 C   0  0  0  0  0  0  0  0  0  0  0  0
  190.8840  174.2770  141.2400 C   0  0  2  0  0  3  0  0  0  0  0  0
  188.9420  172.2540  142.7950 C   0  0  0  0  0  1  0  0  0  0  0  0
  190.6580  176.5560  144.3560 C   0  0  1  0  0  3  0  0  0  0  0  0
  191.5810  176.0300  146.8100 C   0  0  0  0  0  1  0  0  0  0  0  0
  187.5500  174.2980  142.6910 O   0  0  0  0  0  0  0  0  0  0  0  0
  189.2970  176.4330  145.0160 C   0  0  0  0  0  2  0  0  0  0  0  0
  186.6460  176.5840  142.3560 C   0  0  0  0  0  2  0  0  0  0  0  0
  191.8140  176.3490  145.3360 C   0  0  1  0  0  0  0  0  0  0  0  0
  187.6790  175.5140  142.2080 C   0  0  0  0  0  0  0  0  0  0  0  0
  188.3840  177.5320  144.5040 C   0  0  0  0  0  2  0  0  0  0  0  0
  189.4890  174.5340  141.7310 C   0  0  0  0  0  0  0  0  0  0  0  0
  186.4270  177.2150  146.0480 N   0  0  0  0  0  2  0  0  0  0  0  0
  186.2140  176.7020  143.7480 N   0  0  0  0  0  0  0  0  0  0  0  0
  186.9570  177.1410  144.7240 C   0  0  0  0  0  0  0  0  0  0  0  0
  188.8630  175.7180  141.5920 N   0  0  0  0  0  0  0  0  0  0  0  0
  185.0510  176.8600  146.3610 C   0  0  0  0  0  2  0  0  0  0  0  0
  184.2400  178.0620  146.4010 N   0  0  0  0  0  1  0  0  0  0  0  0
  193.0460  176.9240  144.9760 O   0  0  0  0  0  0  0  0  0  0  0  0
  193.9410  176.6200  146.0090 C   0  0  0  0  0  2  0  0  0  0  0  0
  195.6330  176.1850  144.2290 O   0  0  0  0  0  0  0  0  0  0  0  0
  195.0940  175.8520  145.4650 C   0  0  0  0  0  0  0  0  0  0  0  0
  195.5850  174.9020  146.1300 O   0  0  0  0  0  1  0  0  0  0  0  0
  190.9110  173.3020  140.0470 C   0  0  2  0  0  3  0  0  0  0  0  0
  192.2630  173.4110  139.3110 C   0  0  2  0  0  3  0  0  0  0  0  0
  195.0730  173.1860  138.4880 C   0  0  0  0  0  2  0  0  0  0  0  0
  193.4920  174.5250  137.3970 C   0  0  0  0  0  2  0  0  0  0  0  0
  192.1450  174.0290  137.9140 C   0  0  0  0  0  2  0  0  0  0  0  0
  194.4180  173.4150  137.2070 N   0  0  0  0  0  2  0  0  0  0  0  0
  194.4130  172.0380  139.2530 C   0  0  0  0  0  2  0  0  0  0  0  0
  192.8830  172.0210  139.1790 C   0  0  0  0  0  2  0  0  0  0  0  0
  189.8440  173.6080  139.1770 O   0  0  0  0  0  0  0  0  0  0  0  0
  189.1110  172.4300  138.9160 C   0  0  0  0  0  0  0  0  0  0  0  0
  189.0940  172.1340  137.5630 F   0  0  0  0  0  0  0  0  0  0  0  0
  189.6320  171.3570  139.6180 F   0  0  0  0  0  0  0  0  0  0  0  0
  187.8080  172.6240  139.3310 F   0  0  0  0  0  0  0  0  0  0  0  0
  2  1  1  6  0  0  0
  2 12  1  0  0  0  0
  3  1  1  0  0  0  0
  4  9  1  0  0  0  0
  4  6  1  0  0  0  0
  5 27  1  6  0  0  0
  5 15  1  0  0  0  0
  5  3  1  0  0  0  0
  7  2  1  0  0  0  0
  7 10  1  1  0  0  0
  7 12  1  0  0  0  0
 11 17  1  0  0  0  0
 12  8  1  1  0  0  0
 13 11  1  0  0  0  0
 13  9  1  0  0  0  0
 14 18  1  0  0  0  0
 14 10  1  0  0  0  0
 15  4  2  0  0  0  0
 16 20  1  0  0  0  0
 17 18  2  0  0  0  0
 18 16  1  0  0  0  0
 19 15  1  0  0  0  0
 19 13  2  0  0  0  0
 20 21  1  0  0  0  0
 22 12  1  0  0  0  0
 22 23  1  0  0  0  0
 24 25  2  0  0  0  0
 25 23  1  0  0  0  0
 25 26  1  0  0  0  0
 27 35  1  6  0  0  0
 28 27  1  6  0  0  0
 29 33  1  0  0  0  0
 30 31  1  0  0  0  0
 31 28  1  0  0  0  0
 32 30  1  0  0  0  0
 32 29  1  0  0  0  0
 34 33  1  0  0  0  0
 34 28  1  0  0  0  0
 36 35  1  0  0  0  0
 36 39  1  0  0  0  0
 36 38  1  0  0  0  0
 37 36  1  0  0  0  0
M  END
>  <MODEL>
3

>  <REMARK>
 VINA RESULT:      -7.1      3.815      8.176
  Name = 
  8 active torsions:
  status: ('A' for Active; 'I' for Inactive)
    1  A    between atoms: O_1  and  C_23
    2  A    between atoms: O_1  and  C_30
    3  A    between atoms: C_3  and  O_14
    4  A    between atoms: C_7  and  C_31
    5  A    between atoms: C_10  and  C_31
    6  A    between atoms: C_13  and  C_30
    7  A    between atoms: O_14  and  C_31
    8  A    between atoms: C_25  and  N_34
                            x       y       z     vdW  Elec       q    Type
                         _______ _______ _______ _____ _____    ______ ____

>  <TORSDO>
F 8

$$$$
=
 OpenBabel11072409143D

 39 42  0  0  1  0  0  0  0  0999 V2000
  190.4490  177.4260  143.9090 C   0  0  0  0  0  2  0  0  0  0  0  0
  191.1860  176.7530  142.7610 C   0  0  2  0  0  3  0  0  0  0  0  0
  189.1630  178.0590  143.4080 C   0  0  0  0  0  2  0  0  0  0  0  0
  187.8500  176.2460  141.2180 C   0  0  0  0  0  0  0  0  0  0  0  0
  187.9710  177.1340  143.6470 C   0  0  2  0  0  3  0  0  0  0  0  0
  187.8090  177.5310  140.4680 C   0  0  0  0  0  1  0  0  0  0  0  0
  191.2930  175.2540  143.0290 C   0  0  1  0  0  3  0  0  0  0  0  0
  193.5710  176.2740  142.0680 C   0  0  0  0  0  1  0  0  0  0  0  0
  187.8460  175.0640  140.6600 O   0  0  0  0  0  0  0  0  0  0  0  0
  191.2550  174.5120  141.7050 C   0  0  0  0  0  2  0  0  0  0  0  0
  187.9710  172.7070  141.4260 C   0  0  0  0  0  2  0  0  0  0  0  0
  192.5250  176.1490  143.1730 C   0  0  1  0  0  0  0  0  0  0  0  0
  187.9030  174.1850  141.6360 C   0  0  0  0  0  0  0  0  0  0  0  0
  190.8220  173.0770  141.9400 C   0  0  0  0  0  2  0  0  0  0  0  0
  187.9050  176.0720  142.5870 C   0  0  0  0  0  0  0  0  0  0  0  0
  191.2240  172.1290  139.6480 N   0  0  0  0  0  2  0  0  0  0  0  0
  189.0130  172.3660  140.4600 N   0  0  0  0  0  0  0  0  0  0  0  0
  190.2920  172.4980  140.6660 C   0  0  0  0  0  0  0  0  0  0  0  0
  187.9340  174.7540  142.8610 N   0  0  0  0  0  0  0  0  0  0  0  0
  190.8060  171.5550  138.3770 C   0  0  0  0  0  2  0  0  0  0  0  0
  190.7560  172.5990  137.3710 N   0  0  0  0  0  1  0  0  0  0  0  0
  192.9190  176.4600  144.4860 O   0  0  0  0  0  0  0  0  0  0  0  0
  194.3100  176.3070  144.5290 C   0  0  0  0  0  2  0  0  0  0  0  0
  195.6320  174.9150  146.1200 O   0  0  0  0  0  0  0  0  0  0  0  0
  194.7350  175.9540  145.9100 C   0  0  0  0  0  0  0  0  0  0  0  0
  194.2860  176.6040  146.8900 O   0  0  0  0  0  1  0  0  0  0  0  0
  186.6410  177.8980  143.7900 C   0  0  2  0  0  3  0  0  0  0  0  0
  186.3060  178.0930  145.2830 C   0  0  2  0  0  3  0  0  0  0  0  0
  185.0140  178.7260  147.8440 C   0  0  0  0  0  2  0  0  0  0  0  0
  187.2290  177.9960  147.6400 C   0  0  0  0  0  2  0  0  0  0  0  0
  187.3210  177.4350  146.2230 C   0  0  0  0  0  2  0  0  0  0  0  0
  185.9410  177.6760  148.2440 N   0  0  0  0  0  2  0  0  0  0  0  0
  184.1610  178.2900  146.6510 C   0  0  0  0  0  2  0  0  0  0  0  0
  184.9230  177.5110  145.5740 C   0  0  0  0  0  2  0  0  0  0  0  0
  185.6200  177.1710  143.1420 O   0  0  0  0  0  0  0  0  0  0  0  0
  184.8540  178.0580  142.3540 C   0  0  0  0  0  0  0  0  0  0  0  0
  184.6250  177.5410  141.0890 F   0  0  0  0  0  0  0  0  0  0  0  0
  183.6450  178.3430  142.9630 F   0  0  0  0  0  0  0  0  0  0  0  0
  185.5570  179.2380  142.2150 F   0  0  0  0  0  0  0  0  0  0  0  0
  2  7  1  0  0  0  0
  2 12  1  0  0  0  0
  2  1  1  1  0  0  0
  3  5  1  0  0  0  0
  3  1  1  0  0  0  0
  4 15  2  0  0  0  0
  5 27  1  6  0  0  0
  6  4  1  0  0  0  0
  7 10  1  6  0  0  0
  7 12  1  0  0  0  0
  9  4  1  0  0  0  0
  9 13  1  0  0  0  0
 10 14  1  0  0  0  0
 11 13  1  0  0  0  0
 12  8  1  6  0  0  0
 12 22  1  0  0  0  0
 13 19  2  0  0  0  0
 15 19  1  0  0  0  0
 15  5  1  0  0  0  0
 16 18  1  0  0  0  0
 17 18  2  0  0  0  0
 17 11  1  0  0  0  0
 18 14  1  0  0  0  0
 20 16  1  0  0  0  0
 21 20  1  0  0  0  0
 22 23  1  0  0  0  0
 23 25  1  0  0  0  0
 25 24  2  0  0  0  0
 25 26  1  0  0  0  0
 27 35  1  1  0  0  0
 28 27  1  6  0  0  0
 28 34  1  0  0  0  0
 28 31  1  0  0  0  0
 29 32  1  0  0  0  0
 30 32  1  0  0  0  0
 31 30  1  0  0  0  0
 33 29  1  0  0  0  0
 34 33  1  0  0  0  0
 36 38  1  0  0  0  0
 36 35  1  0  0  0  0
 37 36  1  0  0  0  0
 39 36  1  0  0  0  0
M  END
>  <MODEL>
4

>  <REMARK>
 VINA RESULT:      -7.0      3.416      6.092
  Name = 
  8 active torsions:
  status: ('A' for Active; 'I' for Inactive)
    1  A    between atoms: O_1  and  C_23
    2  A    between atoms: O_1  and  C_30
    3  A    between atoms: C_3  and  O_14
    4  A    between atoms: C_7  and  C_31
    5  A    between atoms: C_10  and  C_31
    6  A    between atoms: C_13  and  C_30
    7  A    between atoms: O_14  and  C_31
    8  A    between atoms: C_25  and  N_34
                            x       y       z     vdW  Elec       q    Type
                         _______ _______ _______ _____ _____    ______ ____

>  <TORSDO>
F 8

$$$$
=
 OpenBabel11072409143D

 39 42  0  0  1  0  0  0  0  0999 V2000
  191.9850  175.0160  142.6190 C   0  0  0  0  0  2  0  0  0  0  0  0
  191.2330  175.2470  143.9210 C   0  0  2  0  0  3  0  0  0  0  0  0
  191.4240  173.8040  141.8970 C   0  0  0  0  0  2  0  0  0  0  0  0
  188.3150  173.6810  142.2480 C   0  0  0  0  0  0  0  0  0  0  0  0
  190.4130  174.2230  140.8320 C   0  0  2  0  0  3  0  0  0  0  0  0
  188.6190  172.2790  142.6460 C   0  0  0  0  0  1  0  0  0  0  0  0
  190.5350  176.6030  143.8770 C   0  0  1  0  0  3  0  0  0  0  0  0
  191.7000  176.1440  146.2390 C   0  0  0  0  0  1  0  0  0  0  0  0
  187.2460  174.3390  142.6160 O   0  0  0  0  0  0  0  0  0  0  0  0
  189.2470  176.5220  144.6770 C   0  0  0  0  0  2  0  0  0  0  0  0
  186.3380  176.6260  142.3000 C   0  0  0  0  0  2  0  0  0  0  0  0
  191.7830  176.4110  144.7390 C   0  0  1  0  0  0  0  0  0  0  0  0
  187.3380  175.5370  142.0820 C   0  0  0  0  0  0  0  0  0  0  0  0
  188.2980  177.6170  144.2250 C   0  0  0  0  0  2  0  0  0  0  0  0
  189.0780  174.5150  141.4550 C   0  0  0  0  0  0  0  0  0  0  0  0
  186.5080  177.3780  145.9720 N   0  0  0  0  0  2  0  0  0  0  0  0
  186.0540  176.7940  143.7230 N   0  0  0  0  0  0  0  0  0  0  0  0
  186.8970  177.2540  144.6030 C   0  0  0  0  0  0  0  0  0  0  0  0
  188.4550  175.7040  141.3410 N   0  0  0  0  0  0  0  0  0  0  0  0
  185.1680  177.0530  146.4360 C   0  0  0  0  0  2  0  0  0  0  0  0
  184.3670  178.2620  146.4810 N   0  0  0  0  0  1  0  0  0  0  0  0
  192.9770  176.9570  144.2360 O   0  0  0  0  0  0  0  0  0  0  0  0
  193.9350  176.8130  145.2480 C   0  0  0  0  0  2  0  0  0  0  0  0
  196.0410  176.7970  143.9140 O   0  0  0  0  0  0  0  0  0  0  0  0
  195.1330  176.1130  144.7100 C   0  0  0  0  0  0  0  0  0  0  0  0
  195.3260  174.8990  144.9840 O   0  0  0  0  0  1  0  0  0  0  0  0
  190.3060  173.2100  139.6760 C   0  0  2  0  0  3  0  0  0  0  0  0
  191.6120  172.3960  139.5690 C   0  0  2  0  0  3  0  0  0  0  0  0
  193.8090  170.4870  139.9680 C   0  0  0  0  0  2  0  0  0  0  0  0
  193.8470  172.2170  138.3900 C   0  0  0  0  0  2  0  0  0  0  0  0
  192.3940  172.6700  138.2800 C   0  0  0  0  0  2  0  0  0  0  0  0
  193.9310  170.7690  138.5440 N   0  0  0  0  0  2  0  0  0  0  0  0
  192.3790  170.0860  140.3350 C   0  0  0  0  0  2  0  0  0  0  0  0
  191.2890  170.9050  139.6360 C   0  0  0  0  0  2  0  0  0  0  0  0
  190.0530  173.9050  138.4750 O   0  0  0  0  0  0  0  0  0  0  0  0
  188.7670  173.5570  138.0050 C   0  0  0  0  0  0  0  0  0  0  0  0
  188.2150  172.5320  138.7560 F   0  0  0  0  0  0  0  0  0  0  0  0
  187.9210  174.6510  138.0220 F   0  0  0  0  0  0  0  0  0  0  0  0
  188.8820  173.1210  136.7000 F   0  0  0  0  0  0  0  0  0  0  0  0
  2  1  1  6  0  0  0
  2 12  1  0  0  0  0
  3  1  1  0  0  0  0
  4  9  1  0  0  0  0
  4  6  1  0  0  0  0
  5 27  1  6  0  0  0
  5 15  1  0  0  0  0
  5  3  1  0  0  0  0
  7  2  1  0  0  0  0
  7 10  1  1  0  0  0
  7 12  1  0  0  0  0
 11 17  1  0  0  0  0
 12  8  1  1  0  0  0
 13 11  1  0  0  0  0
 13  9  1  0  0  0  0
 14 18  1  0  0  0  0
 14 10  1  0  0  0  0
 15  4  2  0  0  0  0
 16 20  1  0  0  0  0
 17 18  2  0  0  0  0
 18 16  1  0  0  0  0
 19 15  1  0  0  0  0
 19 13  2  0  0  0  0
 20 21  1  0  0  0  0
 22 12  1  0  0  0  0
 22 23  1  0  0  0  0
 24 25  2  0  0  0  0
 25 26  1  0  0  0  0
 25 23  1  0  0  0  0
 27 35  1  6  0  0  0
 28 34  1  0  0  0  0
 28 27  1  6  0  0  0
 29 33  1  0  0  0  0
 30 32  1  0  0  0  0
 31 30  1  0  0  0  0
 31 28  1  0  0  0  0
 32 29  1  0  0  0  0
 34 33  1  0  0  0  0
 36 38  1  0  0  0  0
 36 35  1  0  0  0  0
 36 37  1  0  0  0  0
 39 36  1  0  0  0  0
M  END
>  <MODEL>
5

>  <REMARK>
 VINA RESULT:      -7.0      3.858      8.200
  Name = 
  8 active torsions:
  status: ('A' for Active; 'I' for Inactive)
    1  A    between atoms: O_1  and  C_23
    2  A    between atoms: O_1  and  C_30
    3  A    between atoms: C_3  and  O_14
    4  A    between atoms: C_7  and  C_31
    5  A    between atoms: C_10  and  C_31
    6  A    between atoms: C_13  and  C_30
    7  A    between atoms: O_14  and  C_31
    8  A    between atoms: C_25  and  N_34
                            x       y       z     vdW  Elec       q    Type
                         _______ _______ _______ _____ _____    ______ ____

>  <TORSDO>
F 8

$$$$
=
 OpenBabel11072409143D

 39 42  0  0  1  0  0  0  0  0999 V2000
  188.6870  175.9420  145.6690 C   0  0  0  0  0  2  0  0  0  0  0  0
  187.2070  176.0400  145.3300 C   0  0  2  0  0  3  0  0  0  0  0  0
  189.3530  174.8800  144.8110 C   0  0  0  0  0  2  0  0  0  0  0  0
  188.1470  174.9150  141.9210 C   0  0  0  0  0  0  0  0  0  0  0  0
  190.0300  175.5080  143.5950 C   0  0  2  0  0  3  0  0  0  0  0  0
  188.0150  173.4550  142.1780 C   0  0  0  0  0  1  0  0  0  0  0  0
  186.8960  177.4330  144.7880 C   0  0  1  0  0  3  0  0  0  0  0  0
  185.0310  176.5760  146.5030 C   0  0  0  0  0  1  0  0  0  0  0  0
  187.4180  175.5850  141.0680 O   0  0  0  0  0  0  0  0  0  0  0  0
  185.7770  177.3260  143.7680 C   0  0  0  0  0  2  0  0  0  0  0  0
  187.2000  177.9480  140.3460 C   0  0  0  0  0  2  0  0  0  0  0  0
  186.4530  177.0420  146.1990 C   0  0  1  0  0  0  0  0  0  0  0  0
  187.8160  176.8360  141.1310 C   0  0  0  0  0  0  0  0  0  0  0  0
  185.8130  178.5330  142.8480 C   0  0  0  0  0  2  0  0  0  0  0  0
  189.0240  175.7990  142.5200 C   0  0  0  0  0  0  0  0  0  0  0  0
  183.6680  178.1750  141.5910 N   0  0  0  0  0  2  0  0  0  0  0  0
  185.7450  177.9370  140.4800 N   0  0  0  0  0  0  0  0  0  0  0  0
  185.0960  178.2150  141.5750 C   0  0  0  0  0  0  0  0  0  0  0  0
  188.8200  177.0300  142.0140 N   0  0  0  0  0  0  0  0  0  0  0  0
  182.8810  177.8780  140.4020 C   0  0  0  0  0  2  0  0  0  0  0  0
  181.5080  178.2920  140.6170 N   0  0  0  0  0  1  0  0  0  0  0  0
  187.2090  177.5720  147.2590 O   0  0  0  0  0  0  0  0  0  0  0  0
  186.3020  178.2120  148.1110 C   0  0  0  0  0  2  0  0  0  0  0  0
  185.5650  179.8350  146.3670 O   0  0  0  0  0  0  0  0  0  0  0  0
  186.0670  179.6040  147.6420 C   0  0  0  0  0  0  0  0  0  0  0  0
  186.3170  180.5740  148.4040 O   0  0  0  0  0  1  0  0  0  0  0  0
  191.2160  174.6730  143.0730 C   0  0  2  0  0  3  0  0  0  0  0  0
  192.4750  174.9670  143.9140 C   0  0  2  0  0  3  0  0  0  0  0  0
  194.5490  175.0350  145.9930 C   0  0  0  0  0  2  0  0  0  0  0  0
  194.5490  176.4100  144.0980 C   0  0  0  0  0  2  0  0  0  0  0  0
  193.5400  175.7640  143.1530 C   0  0  0  0  0  2  0  0  0  0  0  0
  195.3190  175.3980  144.8100 N   0  0  0  0  0  2  0  0  0  0  0  0
  193.7470  173.7530  145.7640 C   0  0  0  0  0  2  0  0  0  0  0  0
  193.0930  173.6500  144.3820 C   0  0  0  0  0  2  0  0  0  0  0  0
  191.4380  174.9860  141.7160 O   0  0  0  0  0  0  0  0  0  0  0  0
  191.5380  173.7860  140.9780 C   0  0  0  0  0  0  0  0  0  0  0  0
  190.6790  173.7880  139.8920 F   0  0  0  0  0  0  0  0  0  0  0  0
  192.8350  173.5800  140.5430 F   0  0  0  0  0  0  0  0  0  0  0  0
  191.1880  172.7350  141.8030 F   0  0  0  0  0  0  0  0  0  0  0  0
  2  1  1  1  0  0  0
  2 12  1  0  0  0  0
  3  1  1  0  0  0  0
  4  6  1  0  0  0  0
  4 15  2  0  0  0  0
  5 27  1  6  0  0  0
  5  3  1  0  0  0  0
  7 10  1  6  0  0  0
  7  2  1  0  0  0  0
  7 12  1  0  0  0  0
  9 13  1  0  0  0  0
  9  4  1  0  0  0  0
 11 17  1  0  0  0  0
 11 13  1  0  0  0  0
 12  8  1  1  0  0  0
 12 22  1  0  0  0  0
 13 19  2  0  0  0  0
 14 10  1  0  0  0  0
 15  5  1  0  0  0  0
 17 18  2  0  0  0  0
 18 16  1  0  0  0  0
 18 14  1  0  0  0  0
 19 15  1  0  0  0  0
 20 21  1  0  0  0  0
 20 16  1  0  0  0  0
 22 23  1  0  0  0  0
 24 25  2  0  0  0  0
 25 23  1  0  0  0  0
 25 26  1  0  0  0  0
 27 35  1  6  0  0  0
 28 27  1  6  0  0  0
 28 34  1  0  0  0  0
 30 32  1  0  0  0  0
 31 28  1  0  0  0  0
 31 30  1  0  0  0  0
 32 29  1  0  0  0  0
 33 29  1  0  0  0  0
 34 33  1  0  0  0  0
 36 35  1  0  0  0  0
 36 39  1  0  0  0  0
 37 36  1  0  0  0  0
 38 36  1  0  0  0  0
M  END
>  <MODEL>
6

>  <REMARK>
 VINA RESULT:      -7.0      3.013      8.966
  Name = 
  8 active torsions:
  status: ('A' for Active; 'I' for Inactive)
    1  A    between atoms: O_1  and  C_23
    2  A    between atoms: O_1  and  C_30
    3  A    between atoms: C_3  and  O_14
    4  A    between atoms: C_7  and  C_31
    5  A    between atoms: C_10  and  C_31
    6  A    between atoms: C_13  and  C_30
    7  A    between atoms: O_14  and  C_31
    8  A    between atoms: C_25  and  N_34
                            x       y       z     vdW  Elec       q    Type
                         _______ _______ _______ _____ _____    ______ ____

>  <TORSDO>
F 8

$$$$
=
 OpenBabel11072409143D

 39 42  0  0  1  0  0  0  0  0999 V2000
  188.9740  174.5300  141.4000 C   0  0  0  0  0  2  0  0  0  0  0  0
  189.9110  173.3320  141.3350 C   0  0  2  0  0  3  0  0  0  0  0  0
  188.4740  174.7280  142.8200 C   0  0  0  0  0  2  0  0  0  0  0  0
  190.7560  174.0900  144.8670 C   0  0  0  0  0  0  0  0  0  0  0  0
  189.3060  175.7810  143.5490 C   0  0  2  0  0  3  0  0  0  0  0  0
  189.6920  173.2520  145.4840 C   0  0  0  0  0  1  0  0  0  0  0  0
  191.3000  173.7910  140.9000 C   0  0  1  0  0  3  0  0  0  0  0  0
  190.5580  171.5270  139.6860 C   0  0  0  0  0  1  0  0  0  0  0  0
  192.0390  173.8860  145.0200 O   0  0  0  0  0  0  0  0  0  0  0  0
  192.3410  172.9050  141.5620 C   0  0  0  0  0  2  0  0  0  0  0  0
  194.1400  174.9080  144.1850 C   0  0  0  0  0  2  0  0  0  0  0  0
  190.4040  173.0270  139.9240 C   0  0  1  0  0  0  0  0  0  0  0  0
  192.6540  174.8130  144.3200 C   0  0  0  0  0  0  0  0  0  0  0  0
  193.6740  173.6310  141.5990 C   0  0  0  0  0  2  0  0  0  0  0  0
  190.5930  175.1880  144.0460 C   0  0  0  0  0  0  0  0  0  0  0  0
  195.1520  171.7650  142.4030 N   0  0  0  0  0  2  0  0  0  0  0  0
  194.7110  173.6160  143.8110 N   0  0  0  0  0  0  0  0  0  0  0  0
  194.5410  173.0300  142.6600 C   0  0  0  0  0  0  0  0  0  0  0  0
  191.8050  175.6590  143.6960 N   0  0  0  0  0  0  0  0  0  0  0  0
  196.0140  171.1030  143.3700 C   0  0  0  0  0  2  0  0  0  0  0  0
  195.2570  170.0840  144.0730 N   0  0  0  0  0  1  0  0  0  0  0  0
  189.7860  173.7910  138.9180 O   0  0  0  0  0  0  0  0  0  0  0  0
  189.4330  172.8950  137.9020 C   0  0  0  0  0  2  0  0  0  0  0  0
  189.3160  172.8750  135.4110 O   0  0  0  0  0  0  0  0  0  0  0  0
  189.7690  173.4800  136.5760 C   0  0  0  0  0  0  0  0  0  0  0  0
  190.4600  174.5300  136.5100 O   0  0  0  0  0  1  0  0  0  0  0  0
  188.5220  176.4920  144.6690 C   0  0  2  0  0  3  0  0  0  0  0  0
  187.2420  177.1290  144.0900 C   0  0  2  0  0  3  0  0  0  0  0  0
  184.4940  178.0530  143.6190 C   0  0  0  0  0  2  0  0  0  0  0  0
  186.2420  178.3060  142.0830 C   0  0  0  0  0  2  0  0  0  0  0  0
  187.5090  178.0480  142.8940 C   0  0  0  0  0  2  0  0  0  0  0  0
  185.2590  179.0410  142.8700 N   0  0  0  0  0  2  0  0  0  0  0  0
  185.0130  177.9170  145.0510 C   0  0  0  0  0  2  0  0  0  0  0  0
  186.5400  177.9380  145.1800 C   0  0  0  0  0  2  0  0  0  0  0  0
  189.3460  177.4760  145.2550 O   0  0  0  0  0  0  0  0  0  0  0  0
  189.5480  177.1550  146.6160 C   0  0  0  0  0  0  0  0  0  0  0  0
  190.8620  176.7920  146.8600 F   0  0  0  0  0  0  0  0  0  0  0  0
  189.2020  178.2180  147.4310 F   0  0  0  0  0  0  0  0  0  0  0  0
  188.7380  176.0840  146.9370 F   0  0  0  0  0  0  0  0  0  0  0  0
  1  3  1  0  0  0  0
  2  1  1  6  0  0  0
  3  5  1  0  0  0  0
  4  9  1  0  0  0  0
  4  6  1  0  0  0  0
  5 15  1  0  0  0  0
  5 27  1  1  0  0  0
  7  2  1  0  0  0  0
  7 10  1  1  0  0  0
 10 14  1  0  0  0  0
 11 13  1  0  0  0  0
 12  8  1  6  0  0  0
 12  7  1  0  0  0  0
 12  2  1  0  0  0  0
 13  9  1  0  0  0  0
 14 18  1  0  0  0  0
 15  4  2  0  0  0  0
 16 18  1  0  0  0  0
 16 20  1  0  0  0  0
 17 11  1  0  0  0  0
 18 17  2  0  0  0  0
 19 15  1  0  0  0  0
 19 13  2  0  0  0  0
 20 21  1  0  0  0  0
 22 12  1  0  0  0  0
 23 22  1  0  0  0  0
 24 25  2  0  0  0  0
 25 23  1  0  0  0  0
 26 25  1  0  0  0  0
 27 35  1  6  0  0  0
 28 27  1  1  0  0  0
 28 34  1  0  0  0  0
 29 33  1  0  0  0  0
 30 32  1  0  0  0  0
 30 31  1  0  0  0  0
 31 28  1  0  0  0  0
 32 29  1  0  0  0  0
 33 34  1  0  0  0  0
 35 36  1  0  0  0  0
 36 37  1  0  0  0  0
 36 39  1  0  0  0  0
 36 38  1  0  0  0  0
M  END
>  <MODEL>
7

>  <REMARK>
 VINA RESULT:      -6.8      1.559      2.032
  Name = 
  8 active torsions:
  status: ('A' for Active; 'I' for Inactive)
    1  A    between atoms: O_1  and  C_23
    2  A    between atoms: O_1  and  C_30
    3  A    between atoms: C_3  and  O_14
    4  A    between atoms: C_7  and  C_31
    5  A    between atoms: C_10  and  C_31
    6  A    between atoms: C_13  and  C_30
    7  A    between atoms: O_14  and  C_31
    8  A    between atoms: C_25  and  N_34
                            x       y       z     vdW  Elec       q    Type
                         _______ _______ _______ _____ _____    ______ ____

>  <TORSDO>
F 8

$$$$
=
 OpenBabel11072409143D

 39 42  0  0  1  0  0  0  0  0999 V2000
  190.9650  173.7150  144.5270 C   0  0  0  0  0  2  0  0  0  0  0  0
  189.7160  174.1920  145.2530 C   0  0  2  0  0  3  0  0  0  0  0  0
  190.5840  173.0010  143.2420 C   0  0  0  0  0  2  0  0  0  0  0  0
  188.1320  174.4180  141.9050 C   0  0  0  0  0  0  0  0  0  0  0  0
  190.6730  173.9460  142.0460 C   0  0  2  0  0  3  0  0  0  0  0  0
  187.6060  173.0260  141.8680 C   0  0  0  0  0  1  0  0  0  0  0  0
  189.7300  175.7150  145.3520 C   0  0  1  0  0  3  0  0  0  0  0  0
  188.9380  174.5620  147.6310 C   0  0  0  0  0  1  0  0  0  0  0  0
  187.3850  175.4910  141.8910 O   0  0  0  0  0  0  0  0  0  0  0  0
  188.3020  176.2270  145.3020 C   0  0  0  0  0  2  0  0  0  0  0  0
  187.7480  177.9420  142.0050 C   0  0  0  0  0  2  0  0  0  0  0  0
  190.0130  174.8630  146.5910 C   0  0  1  0  0  0  0  0  0  0  0  0
  188.2020  176.5200  141.9480 C   0  0  0  0  0  0  0  0  0  0  0  0
  188.2980  177.6790  144.8610 C   0  0  0  0  0  2  0  0  0  0  0  0
  189.4530  174.8170  141.9670 C   0  0  0  0  0  0  0  0  0  0  0  0
  185.8780  178.2350  145.2440 N   0  0  0  0  0  2  0  0  0  0  0  0
  186.7330  178.1240  143.0390 N   0  0  0  0  0  0  0  0  0  0  0  0
  186.9500  178.0350  144.3210 C   0  0  0  0  0  0  0  0  0  0  0  0
  189.5040  176.1620  141.9890 N   0  0  0  0  0  0  0  0  0  0  0  0
  184.5330  178.5870  144.8160 C   0  0  0  0  0  2  0  0  0  0  0  0
  183.6890  178.7730  145.9810 N   0  0  0  0  0  1  0  0  0  0  0  0
  191.3570  174.7770  146.9940 O   0  0  0  0  0  0  0  0  0  0  0  0
  191.4230  175.3400  148.2740 C   0  0  0  0  0  2  0  0  0  0  0  0
  191.5380  177.6840  149.1180 O   0  0  0  0  0  1  0  0  0  0  0  0
  191.9330  176.7350  148.1830 C   0  0  0  0  0  0  0  0  0  0  0  0
  192.7280  177.0550  147.2610 O   0  0  0  0  0  0  0  0  0  0  0  0
  190.9500  173.2100  140.7210 C   0  0  2  0  0  3  0  0  0  0  0  0
  192.4510  173.2960  140.3760 C   0  0  2  0  0  3  0  0  0  0  0  0
  195.1370  174.1900  139.5930 C   0  0  0  0  0  2  0  0  0  0  0  0
  194.5740  171.9600  140.0270 C   0  0  0  0  0  2  0  0  0  0  0  0
  193.2340  172.0350  140.7540 C   0  0  0  0  0  2  0  0  0  0  0  0
  195.4530  173.0480  140.4400 N   0  0  0  0  0  2  0  0  0  0  0  0
  194.1910  175.1620  140.3000 C   0  0  0  0  0  2  0  0  0  0  0  0
  193.0700  174.4900  141.1010 C   0  0  0  0  0  2  0  0  0  0  0  0
  190.1700  173.7900  139.6990 O   0  0  0  0  0  0  0  0  0  0  0  0
  189.7060  172.7700  138.8390 C   0  0  0  0  0  0  0  0  0  0  0  0
  188.4290  173.0430  138.3760 F   0  0  0  0  0  0  0  0  0  0  0  0
  190.5620  172.6010  137.7660 F   0  0  0  0  0  0  0  0  0  0  0  0
  189.6630  171.5860  139.5490 F   0  0  0  0  0  0  0  0  0  0  0  0
  2  1  1  6  0  0  0
  2  7  1  0  0  0  0
  2 12  1  0  0  0  0
  3  1  1  0  0  0  0
  4 15  2  0  0  0  0
  5 27  1  6  0  0  0
  5  3  1  0  0  0  0
  6  4  1  0  0  0  0
  7 10  1  1  0  0  0
  7 12  1  0  0  0  0
  9  4  1  0  0  0  0
  9 13  1  0  0  0  0
 11 17  1  0  0  0  0
 12 22  1  0  0  0  0
 12  8  1  1  0  0  0
 13 19  2  0  0  0  0
 13 11  1  0  0  0  0
 14 10  1  0  0  0  0
 15 19  1  0  0  0  0
 15  5  1  0  0  0  0
 17 18  2  0  0  0  0
 18 14  1  0  0  0  0
 18 16  1  0  0  0  0
 20 16  1  0  0  0  0
 20 21  1  0  0  0  0
 22 23  1  0  0  0  0
 25 23  1  0  0  0  0
 25 24  1  0  0  0  0
 26 25  2  0  0  0  0
 27 35  1  6  0  0  0
 28 27  1  1  0  0  0
 28 31  1  0  0  0  0
 28 34  1  0  0  0  0
 29 33  1  0  0  0  0
 29 32  1  0  0  0  0
 30 32  1  0  0  0  0
 30 31  1  0  0  0  0
 33 34  1  0  0  0  0
 36 39  1  0  0  0  0
 36 35  1  0  0  0  0
 37 36  1  0  0  0  0
 38 36  1  0  0  0  0
M  END
>  <MODEL>
8

>  <REMARK>
 VINA RESULT:      -6.8      3.651      8.402
  Name = 
  8 active torsions:
  status: ('A' for Active; 'I' for Inactive)
    1  A    between atoms: O_1  and  C_23
    2  A    between atoms: O_1  and  C_30
    3  A    between atoms: C_3  and  O_14
    4  A    between atoms: C_7  and  C_31
    5  A    between atoms: C_10  and  C_31
    6  A    between atoms: C_13  and  C_30
    7  A    between atoms: O_14  and  C_31
    8  A    between atoms: C_25  and  N_34
                            x       y       z     vdW  Elec       q    Type
                         _______ _______ _______ _____ _____    ______ ____

>  <TORSDO>
F 8

$$$$
=
 OpenBabel11072409143D

 39 42  0  0  1  0  0  0  0  0999 V2000
  191.6580  172.8350  141.4470 C   0  0  0  0  0  2  0  0  0  0  0  0
  190.6450  173.7280  140.7470 C   0  0  2  0  0  3  0  0  0  0  0  0
  192.7270  173.6810  142.1190 C   0  0  0  0  0  2  0  0  0  0  0  0
  191.4510  176.2770  143.3190 C   0  0  0  0  0  0  0  0  0  0  0  0
  192.4080  173.8880  143.5980 C   0  0  2  0  0  3  0  0  0  0  0  0
  192.5680  176.9240  142.5770 C   0  0  0  0  0  1  0  0  0  0  0  0
  189.2670  173.5280  141.3720 C   0  0  1  0  0  3  0  0  0  0  0  0
  189.1560  173.6540  138.7040 C   0  0  0  0  0  1  0  0  0  0  0  0
  190.3370  176.8760  143.6470 O   0  0  0  0  0  0  0  0  0  0  0  0
  188.5000  174.8360  141.3050 C   0  0  0  0  0  2  0  0  0  0  0  0
  188.2180  176.2500  144.7760 C   0  0  0  0  0  2  0  0  0  0  0  0
  189.5730  172.9470  139.9910 C   0  0  1  0  0  0  0  0  0  0  0  0
  189.6000  175.9850  144.2750 C   0  0  0  0  0  0  0  0  0  0  0  0
  187.4030  174.8360  142.3540 C   0  0  0  0  0  2  0  0  0  0  0  0
  191.3860  174.9740  143.7730 C   0  0  0  0  0  0  0  0  0  0  0  0
  186.1850  176.9330  141.6980 N   0  0  0  0  0  2  0  0  0  0  0  0
  187.3920  176.8530  143.7320 N   0  0  0  0  0  0  0  0  0  0  0  0
  186.9940  176.2430  142.6520 C   0  0  0  0  0  0  0  0  0  0  0  0
  190.2050  174.7830  144.3900 N   0  0  0  0  0  0  0  0  0  0  0  0
  185.7340  178.3020  141.8990 C   0  0  0  0  0  2  0  0  0  0  0  0
  184.6750  178.6050  140.9550 N   0  0  0  0  0  1  0  0  0  0  0  0
  189.8000  171.5610  139.9340 O   0  0  0  0  0  0  0  0  0  0  0  0
  189.8970  171.2320  138.5760 C   0  0  0  0  0  2  0  0  0  0  0  0
  191.9010  169.9540  139.3290 O   0  0  0  0  0  1  0  0  0  0  0  0
  191.2130  170.5930  138.3060 C   0  0  0  0  0  0  0  0  0  0  0  0
  191.7010  170.6270  137.1460 O   0  0  0  0  0  0  0  0  0  0  0  0
  193.6670  174.1300  144.4520 C   0  0  2  0  0  3  0  0  0  0  0  0
  194.5400  172.8580  144.4730 C   0  0  2  0  0  3  0  0  0  0  0  0
  196.5400  170.7780  143.9230 C   0  0  0  0  0  2  0  0  0  0  0  0
  194.8380  170.5700  145.5180 C   0  0  0  0  0  2  0  0  0  0  0  0
  194.3210  171.9920  145.7180 C   0  0  0  0  0  2  0  0  0  0  0  0
  196.2850  170.5610  145.3420 N   0  0  0  0  0  2  0  0  0  0  0  0
  196.8710  172.2430  143.6350 C   0  0  0  0  0  2  0  0  0  0  0  0
  196.0150  173.2530  144.4060 C   0  0  0  0  0  2  0  0  0  0  0  0
  193.2760  174.4870  145.7600 O   0  0  0  0  0  0  0  0  0  0  0  0
  193.9960  175.6340  146.1580 C   0  0  0  0  0  0  0  0  0  0  0  0
  195.1280  175.2930  146.8810 F   0  0  0  0  0  0  0  0  0  0  0  0
  194.3580  176.3970  145.0630 F   0  0  0  0  0  0  0  0  0  0  0  0
  193.1830  176.4010  146.9690 F   0  0  0  0  0  0  0  0  0  0  0  0
  1  3  1  0  0  0  0
  2  7  1  0  0  0  0
  2  1  1  1  0  0  0
  3  5  1  0  0  0  0
  4  9  1  0  0  0  0
  4 15  2  0  0  0  0
  5 15  1  0  0  0  0
  5 27  1  1  0  0  0
  6  4  1  0  0  0  0
  7 10  1  6  0  0  0
  9 13  1  0  0  0  0
 10 14  1  0  0  0  0
 12  8  1  6  0  0  0
 12  2  1  0  0  0  0
 12  7  1  0  0  0  0
 13 19  2  0  0  0  0
 13 11  1  0  0  0  0
 14 18  1  0  0  0  0
 15 19  1  0  0  0  0
 16 20  1  0  0  0  0
 16 18  1  0  0  0  0
 17 11  1  0  0  0  0
 18 17  2  0  0  0  0
 21 20  1  0  0  0  0
 22 12  1  0  0  0  0
 23 22  1  0  0  0  0
 25 23  1  0  0  0  0
 25 24  1  0  0  0  0
 26 25  2  0  0  0  0
 27 35  1  1  0  0  0
 28 27  1  1  0  0  0
 28 31  1  0  0  0  0
 29 32  1  0  0  0  0
 30 31  1  0  0  0  0
 32 30  1  0  0  0  0
 33 29  1  0  0  0  0
 33 34  1  0  0  0  0
 34 28  1  0  0  0  0
 35 36  1  0  0  0  0
 36 37  1  0  0  0  0
 36 39  1  0  0  0  0
 38 36  1  0  0  0  0
M  END
>  <MODEL>
9

>  <REMARK>
 VINA RESULT:      -6.3      2.517      7.484
  Name = 
  8 active torsions:
  status: ('A' for Active; 'I' for Inactive)
    1  A    between atoms: O_1  and  C_23
    2  A    between atoms: O_1  and  C_30
    3  A    between atoms: C_3  and  O_14
    4  A    between atoms: C_7  and  C_31
    5  A    between atoms: C_10  and  C_31
    6  A    between atoms: C_13  and  C_30
    7  A    between atoms: O_14  and  C_31
    8  A    between atoms: C_25  and  N_34
                            x       y       z     vdW  Elec       q    Type
                         _______ _______ _______ _____ _____    ______ ____

>  <TORSDO>
F 8

$$$$
