=
 OpenBabel11062421073D

 27 30  0  0  1  0  0  0  0  0999 V2000
  189.2980  175.2220  146.5520 C   0  0  0  0  0  2  0  0  0  0  0  0
  191.1300  176.5930  147.6240 C   0  0  1  0  0  3  0  0  0  0  0  0
  191.5400  176.1530  146.2780 N   0  0  2  0  0  0  0  0  0  0  0  0
  190.1330  177.5660  147.5090 O   0  0  0  0  0  1  0  0  0  0  0  0
  190.7110  175.2720  147.1190 C   0  0  2  0  0  3  0  0  0  0  0  0
  194.8420  176.9240  145.6710 C   0  0  0  0  0  2  0  0  0  0  0  0
  193.4080  175.2390  145.0140 C   0  0  0  0  0  2  0  0  0  0  0  0
  192.9120  175.6770  146.3800 C   0  0  1  0  0  3  0  0  0  0  0  0
  193.8180  176.8210  146.7780 C   0  0  0  0  0  2  0  0  0  0  0  0
  194.2750  176.2860  144.4920 N   0  0  2  0  0  0  0  0  0  0  0  0
  194.8120  174.8060  142.6370 C   0  0  0  0  0  2  0  0  0  0  0  0
  196.7210  175.9830  141.8650 O   0  0  0  0  0  1  0  0  0  0  0  0
  195.3660  175.6350  143.7820 C   0  0  1  0  0  3  0  0  0  0  0  0
  195.4300  176.1580  142.3570 C   0  0  2  0  0  3  0  0  0  0  0  0
  189.3270  174.5950  145.1700 C   0  0  0  0  0  2  0  0  0  0  0  0
  187.8600  177.8710  144.8900 C   0  0  0  0  0  3  0  0  0  0  0  0
  188.7710  175.5370  144.1570 C   0  0  0  0  0  0  0  0  0  0  0  0
  188.3100  176.7020  144.5210 C   0  0  0  0  0  0  0  0  0  0  0  0
  188.5870  175.0780  142.7540 C   0  0  0  0  0  1  0  0  0  0  0  0
  183.7950  178.7920  145.7130 N   0  0  0  0  0  0  0  0  0  0  0  0
  184.2940  179.0120  144.4720 C   0  0  0  0  0  3  0  0  0  0  0  0
  186.6090  177.4480  147.5790 N   0  0  0  0  0  1  0  0  0  0  0  0
  185.6260  178.7120  144.1970 C   0  0  0  0  0  0  0  0  0  0  0  0
  186.1380  178.9670  142.8190 C   0  0  0  0  0  1  0  0  0  0  0  0
  184.5560  178.2930  146.6870 N   0  0  0  0  0  0  0  0  0  0  0  0
  185.8640  177.9790  146.4880 C   0  0  0  0  0  0  0  0  0  0  0  0
  186.4440  178.1830  145.2130 C   0  0  0  0  0  0  0  0  0  0  0  0
  2  4  1  6  0  0  0
  3  8  1  1  0  0  0
  3  5  1  0  0  0  0
  3  2  1  0  0  0  0
  5  1  1  6  0  0  0
  5  2  1  0  0  0  0
  6  9  1  0  0  0  0
  8  7  1  6  0  0  0
  8  9  1  0  0  0  0
 10  7  1  1  0  0  0
 10  6  1  0  0  0  0
 13 11  1  6  0  0  0
 13 10  1  0  0  0  0
 14 12  1  6  0  0  0
 14 11  1  0  0  0  0
 14 13  1  0  0  0  0
 15  1  1  0  0  0  0
 16 27  1  0  0  0  0
 17 18  2  0  0  0  0
 17 15  1  0  0  0  0
 18 16  2  0  0  0  0
 19 17  1  0  0  0  0
 20 25  1  0  0  0  0
 21 20  2  0  0  0  0
 23 21  1  0  0  0  0
 23 27  2  0  0  0  0
 24 23  1  0  0  0  0
 26 25  2  0  0  0  0
 26 22  1  0  0  0  0
 27 26  1  0  0  0  0
M  END
>  <MODEL>
1

>  <REMARK>
 VINA RESULT:      -7.3      0.000      0.000
  Name = 
  6 active torsions:
  status: ('A' for Active; 'I' for Inactive)
    1  A    between atoms: C_8  and  C_12
    2  A    between atoms: C_8  and  C_25
    3  A    between atoms: C_10  and  N_27
    4  A    between atoms: C_11  and  C_26
    5  A    between atoms: C_14  and  N_17
    6  A    between atoms: CA_23  and  C_25
                            x       y       z     vdW  Elec       q    Type
                         _______ _______ _______ _____ _____    ______ ____

>  <TORSDO>
F 6

$$$$
=
 OpenBabel11062421073D

 27 30  0  0  1  0  0  0  0  0999 V2000
  189.3220  175.2340  146.6710 C   0  0  0  0  0  2  0  0  0  0  0  0
  191.2020  176.5670  147.7100 C   0  0  1  0  0  3  0  0  0  0  0  0
  191.5610  176.1540  146.3410 N   0  0  2  0  0  0  0  0  0  0  0  0
  190.2090  177.5500  147.6510 O   0  0  0  0  0  1  0  0  0  0  0  0
  190.7540  175.2610  147.1900 C   0  0  2  0  0  3  0  0  0  0  0  0
  194.8420  176.8960  145.5960 C   0  0  0  0  0  2  0  0  0  0  0  0
  193.3670  175.2240  144.9990 C   0  0  0  0  0  2  0  0  0  0  0  0
  192.9330  175.6650  146.3850 C   0  0  1  0  0  3  0  0  0  0  0  0
  193.8650  176.8010  146.7450 C   0  0  0  0  0  2  0  0  0  0  0  0
  194.2200  176.2640  144.4420 N   0  0  2  0  0  0  0  0  0  0  0  0
  194.6710  174.8390  142.5220 C   0  0  0  0  0  2  0  0  0  0  0  0
  196.6060  175.9780  141.7580 O   0  0  0  0  0  1  0  0  0  0  0  0
  195.2740  175.6030  143.6860 C   0  0  1  0  0  3  0  0  0  0  0  0
  195.3300  176.1790  142.2810 C   0  0  2  0  0  3  0  0  0  0  0  0
  189.2870  174.5560  145.3140 C   0  0  0  0  0  2  0  0  0  0  0  0
  187.9400  177.8680  144.8930 C   0  0  0  0  0  3  0  0  0  0  0  0
  188.9110  175.5310  144.2510 C   0  0  0  0  0  0  0  0  0  0  0  0
  188.4210  176.6980  144.5690 C   0  0  0  0  0  0  0  0  0  0  0  0
  188.9370  175.1080  142.8250 C   0  0  0  0  0  1  0  0  0  0  0  0
  183.8170  178.8040  145.3110 N   0  0  0  0  0  0  0  0  0  0  0  0
  184.5120  178.3440  146.3800 C   0  0  0  0  0  3  0  0  0  0  0  0
  186.2670  178.8900  142.6280 N   0  0  0  0  0  1  0  0  0  0  0  0
  185.8630  178.0350  146.2480 C   0  0  0  0  0  0  0  0  0  0  0  0
  186.5940  177.5320  147.4480 C   0  0  0  0  0  1  0  0  0  0  0  0
  184.4010  178.9680  144.1240 N   0  0  0  0  0  0  0  0  0  0  0  0
  185.7160  178.6860  143.9250 C   0  0  0  0  0  0  0  0  0  0  0  0
  186.4970  178.2040  145.0030 C   0  0  0  0  0  0  0  0  0  0  0  0
  2  4  1  6  0  0  0
  3  8  1  1  0  0  0
  3  5  1  0  0  0  0
  3  2  1  0  0  0  0
  5  1  1  6  0  0  0
  5  2  1  0  0  0  0
  6  9  1  0  0  0  0
  8  7  1  6  0  0  0
  8  9  1  0  0  0  0
 10  7  1  1  0  0  0
 10  6  1  0  0  0  0
 13 11  1  6  0  0  0
 13 10  1  0  0  0  0
 14 12  1  6  0  0  0
 14 11  1  0  0  0  0
 14 13  1  0  0  0  0
 15  1  1  0  0  0  0
 16 27  1  0  0  0  0
 17 18  2  0  0  0  0
 17 15  1  0  0  0  0
 18 16  2  0  0  0  0
 19 17  1  0  0  0  0
 20 21  1  0  0  0  0
 22 26  1  0  0  0  0
 23 21  2  0  0  0  0
 23 24  1  0  0  0  0
 25 20  2  0  0  0  0
 26 25  1  0  0  0  0
 26 27  2  0  0  0  0
 27 23  1  0  0  0  0
M  END
>  <MODEL>
2

>  <REMARK>
 VINA RESULT:      -7.2      0.921      1.655
  Name = 
  6 active torsions:
  status: ('A' for Active; 'I' for Inactive)
    1  A    between atoms: C_8  and  C_12
    2  A    between atoms: C_8  and  C_25
    3  A    between atoms: C_10  and  N_27
    4  A    between atoms: C_11  and  C_26
    5  A    between atoms: C_14  and  N_17
    6  A    between atoms: CA_23  and  C_25
                            x       y       z     vdW  Elec       q    Type
                         _______ _______ _______ _____ _____    ______ ____

>  <TORSDO>
F 6

$$$$
=
 OpenBabel11062421073D

 27 30  0  0  1  0  0  0  0  0999 V2000
  185.0790  178.6280  144.1440 C   0  0  0  0  0  2  0  0  0  0  0  0
  185.5060  178.0960  141.7100 C   0  0  1  0  0  3  0  0  0  0  0  0
  186.1480  177.0900  142.5750 N   0  0  2  0  0  0  0  0  0  0  0  0
  184.1180  177.9280  141.7570 O   0  0  0  0  0  1  0  0  0  0  0  0
  186.0840  178.4970  143.0060 C   0  0  2  0  0  3  0  0  0  0  0  0
  188.0390  175.2010  140.4010 C   0  0  0  0  0  2  0  0  0  0  0  0
  188.0800  175.6110  142.6720 C   0  0  0  0  0  2  0  0  0  0  0  0
  187.4880  176.8630  142.0490 C   0  0  1  0  0  3  0  0  0  0  0  0
  187.4070  176.5640  140.5690 C   0  0  0  0  0  2  0  0  0  0  0  0
  187.9900  174.5350  141.6940 N   0  0  2  0  0  0  0  0  0  0  0  0
  188.9830  172.6340  142.8420 C   0  0  0  0  0  2  0  0  0  0  0  0
  190.1050  171.7120  140.9670 O   0  0  0  0  0  1  0  0  0  0  0  0
  189.1970  173.7330  141.8180 C   0  0  1  0  0  3  0  0  0  0  0  0
  188.9120  172.3110  141.3660 C   0  0  2  0  0  3  0  0  0  0  0  0
  185.8060  179.0010  145.4230 C   0  0  0  0  0  2  0  0  0  0  0  0
  188.6870  177.3210  146.7810 C   0  0  0  0  0  3  0  0  0  0  0  0
  186.1860  177.7770  146.1850 C   0  0  0  0  0  0  0  0  0  0  0  0
  187.4350  177.5440  146.4800 C   0  0  0  0  0  0  0  0  0  0  0  0
  185.1590  176.7380  146.4610 C   0  0  0  0  0  1  0  0  0  0  0  0
  191.3580  174.8870  144.5490 N   0  0  0  0  0  0  0  0  0  0  0  0
  190.6830  174.3540  145.5980 C   0  0  0  0  0  3  0  0  0  0  0  0
  190.2540  178.3480  144.4440 N   0  0  0  0  0  1  0  0  0  0  0  0
  189.8070  175.1490  146.3320 C   0  0  0  0  0  0  0  0  0  0  0  0
  189.0810  174.5270  147.4790 C   0  0  0  0  0  1  0  0  0  0  0  0
  191.2040  176.1640  144.2030 N   0  0  0  0  0  0  0  0  0  0  0  0
  190.3660  176.9960  144.8770 C   0  0  0  0  0  0  0  0  0  0  0  0
  189.6300  176.5000  145.9800 C   0  0  0  0  0  0  0  0  0  0  0  0
  1 15  1  0  0  0  0
  2  4  1  1  0  0  0
  2  3  1  0  0  0  0
  2  5  1  0  0  0  0
  3  8  1  6  0  0  0
  3  5  1  0  0  0  0
  5  1  1  1  0  0  0
  6  9  1  0  0  0  0
  8  9  1  6  0  0  0
  8  7  1  0  0  0  0
 10  6  1  6  0  0  0
 10 13  1  0  0  0  0
 10  7  1  0  0  0  0
 13 11  1  1  0  0  0
 14 12  1  6  0  0  0
 14 13  1  0  0  0  0
 14 11  1  0  0  0  0
 15 17  1  0  0  0  0
 17 19  1  0  0  0  0
 17 18  2  0  0  0  0
 18 16  2  0  0  0  0
 20 21  1  0  0  0  0
 21 23  2  0  0  0  0
 22 26  1  0  0  0  0
 23 24  1  0  0  0  0
 25 20  2  0  0  0  0
 25 26  1  0  0  0  0
 26 27  2  0  0  0  0
 27 23  1  0  0  0  0
 27 16  1  0  0  0  0
M  END
>  <MODEL>
3

>  <REMARK>
 VINA RESULT:      -7.1      3.693      6.629
  Name = 
  6 active torsions:
  status: ('A' for Active; 'I' for Inactive)
    1  A    between atoms: C_8  and  C_12
    2  A    between atoms: C_8  and  C_25
    3  A    between atoms: C_10  and  N_27
    4  A    between atoms: C_11  and  C_26
    5  A    between atoms: C_14  and  N_17
    6  A    between atoms: CA_23  and  C_25
                            x       y       z     vdW  Elec       q    Type
                         _______ _______ _______ _____ _____    ______ ____

>  <TORSDO>
F 6

$$$$
=
 OpenBabel11062421073D

 27 30  0  0  1  0  0  0  0  0999 V2000
  191.7020  175.9600  147.3720 C   0  0  0  0  0  2  0  0  0  0  0  0
  193.6490  176.2960  145.7970 C   0  0  1  0  0  3  0  0  0  0  0  0
  192.4400  176.9480  145.2640 N   0  0  2  0  0  0  0  0  0  0  0  0
  194.1090  177.0100  146.9080 O   0  0  0  0  0  1  0  0  0  0  0  0
  192.3250  175.6830  146.0100 C   0  0  2  0  0  3  0  0  0  0  0  0
  190.3280  176.5790  142.5680 C   0  0  0  0  0  2  0  0  0  0  0  0
  191.8220  175.2110  143.6740 C   0  0  0  0  0  2  0  0  0  0  0  0
  192.3630  176.6190  143.8470 C   0  0  1  0  0  3  0  0  0  0  0  0
  191.3490  177.5150  143.1730 C   0  0  0  0  0  2  0  0  0  0  0  0
  190.4240  175.3120  143.2760 N   0  0  2  0  0  0  0  0  0  0  0  0
  190.3360  172.8990  142.9770 C   0  0  0  0  0  2  0  0  0  0  0  0
  188.3890  172.8410  141.6240 O   0  0  0  0  0  1  0  0  0  0  0  0
  190.1690  174.2530  142.3120 C   0  0  1  0  0  3  0  0  0  0  0  0
  188.9500  173.4560  142.7420 C   0  0  2  0  0  3  0  0  0  0  0  0
  190.4610  176.8160  147.1990 C   0  0  0  0  0  2  0  0  0  0  0  0
  187.6060  176.9410  145.0080 C   0  0  0  0  0  3  0  0  0  0  0  0
  189.3120  175.9850  146.7390 C   0  0  0  0  0  0  0  0  0  0  0  0
  188.4550  176.4620  145.8780 C   0  0  0  0  0  0  0  0  0  0  0  0
  189.0480  174.6750  147.3900 C   0  0  0  0  0  1  0  0  0  0  0  0
  183.9470  178.9230  145.8590 N   0  0  0  0  0  0  0  0  0  0  0  0
  184.5440  179.1060  144.6560 C   0  0  0  0  0  3  0  0  0  0  0  0
  186.1650  176.6440  147.6180 N   0  0  0  0  0  1  0  0  0  0  0  0
  185.7440  178.4590  144.3730 C   0  0  0  0  0  0  0  0  0  0  0  0
  186.3710  178.6840  143.0370 C   0  0  0  0  0  1  0  0  0  0  0  0
  184.4860  178.1330  146.7870 N   0  0  0  0  0  0  0  0  0  0  0  0
  185.6550  177.4720  146.5770 C   0  0  0  0  0  0  0  0  0  0  0  0
  186.3270  177.6190  145.3400 C   0  0  0  0  0  0  0  0  0  0  0  0
  2  5  1  0  0  0  0
  2  4  1  1  0  0  0
  3  8  1  6  0  0  0
  3  2  1  0  0  0  0
  3  5  1  0  0  0  0
  5  1  1  1  0  0  0
  6  9  1  0  0  0  0
  7  8  1  0  0  0  0
  8  9  1  6  0  0  0
 10  6  1  6  0  0  0
 10  7  1  0  0  0  0
 13 14  1  0  0  0  0
 13 11  1  1  0  0  0
 13 10  1  0  0  0  0
 14 12  1  6  0  0  0
 14 11  1  0  0  0  0
 15  1  1  0  0  0  0
 16 27  1  0  0  0  0
 16 18  2  0  0  0  0
 17 15  1  0  0  0  0
 17 19  1  0  0  0  0
 18 17  2  0  0  0  0
 20 25  1  0  0  0  0
 21 20  2  0  0  0  0
 23 21  1  0  0  0  0
 23 27  2  0  0  0  0
 24 23  1  0  0  0  0
 26 25  2  0  0  0  0
 26 22  1  0  0  0  0
 27 26  1  0  0  0  0
M  END
>  <MODEL>
4

>  <REMARK>
 VINA RESULT:      -7.1      2.269      3.582
  Name = 
  6 active torsions:
  status: ('A' for Active; 'I' for Inactive)
    1  A    between atoms: C_8  and  C_12
    2  A    between atoms: C_8  and  C_25
    3  A    between atoms: C_10  and  N_27
    4  A    between atoms: C_11  and  C_26
    5  A    between atoms: C_14  and  N_17
    6  A    between atoms: CA_23  and  C_25
                            x       y       z     vdW  Elec       q    Type
                         _______ _______ _______ _____ _____    ______ ____

>  <TORSDO>
F 6

$$$$
=
 OpenBabel11062421073D

 27 30  0  0  1  0  0  0  0  0999 V2000
  189.1960  177.0260  146.2920 C   0  0  0  0  0  2  0  0  0  0  0  0
  191.3490  176.0570  147.1940 C   0  0  1  0  0  3  0  0  0  0  0  0
  191.5220  176.4730  145.7910 N   0  0  2  0  0  0  0  0  0  0  0  0
  191.2340  177.1910  148.0030 O   0  0  0  0  0  1  0  0  0  0  0  0
  190.2350  175.9130  146.2370 C   0  0  2  0  0  3  0  0  0  0  0  0
  194.4610  174.6780  145.6860 C   0  0  0  0  0  2  0  0  0  0  0  0
  193.2970  175.9990  144.1940 C   0  0  0  0  0  2  0  0  0  0  0  0
  192.2430  175.4060  145.1110 C   0  0  1  0  0  3  0  0  0  0  0  0
  193.0170  174.5910  146.1230 C   0  0  0  0  0  2  0  0  0  0  0  0
  194.5920  175.8590  144.8460 N   0  0  2  0  0  0  0  0  0  0  0  0
  195.2990  176.3980  142.5810 C   0  0  0  0  0  2  0  0  0  0  0  0
  197.6350  176.3830  142.9910 O   0  0  0  0  0  1  0  0  0  0  0  0
  195.5690  175.5520  143.8120 C   0  0  1  0  0  3  0  0  0  0  0  0
  196.4130  176.7830  143.5290 C   0  0  2  0  0  3  0  0  0  0  0  0
  187.9230  176.5010  146.9320 C   0  0  0  0  0  2  0  0  0  0  0  0
  185.6350  176.4110  144.1540 C   0  0  0  0  0  3  0  0  0  0  0  0
  186.7320  177.2100  146.3840 C   0  0  0  0  0  0  0  0  0  0  0  0
  186.1840  176.8160  145.2670 C   0  0  0  0  0  0  0  0  0  0  0  0
  186.2710  178.4710  147.0240 C   0  0  0  0  0  1  0  0  0  0  0  0
  186.5980  177.8730  140.2830 N   0  0  0  0  0  0  0  0  0  0  0  0
  187.4380  177.0050  140.9000 C   0  0  0  0  0  3  0  0  0  0  0  0
  183.8880  178.3330  142.6610 N   0  0  0  0  0  1  0  0  0  0  0  0
  187.1270  176.5240  142.1690 C   0  0  0  0  0  0  0  0  0  0  0  0
  188.0750  175.5700  142.8160 C   0  0  0  0  0  1  0  0  0  0  0  0
  185.4730  178.2810  140.8670 N   0  0  0  0  0  0  0  0  0  0  0  0
  185.1080  177.8520  142.1050 C   0  0  0  0  0  0  0  0  0  0  0  0
  185.9410  176.9430  142.8010 C   0  0  0  0  0  0  0  0  0  0  0  0
  1 15  1  0  0  0  0
  2  4  1  1  0  0  0
  3  8  1  6  0  0  0
  3  5  1  0  0  0  0
  3  2  1  0  0  0  0
  5  1  1  1  0  0  0
  5  2  1  0  0  0  0
  6  9  1  0  0  0  0
  8  7  1  6  0  0  0
  8  9  1  0  0  0  0
 10  7  1  6  0  0  0
 10  6  1  0  0  0  0
 11 14  1  0  0  0  0
 13 11  1  6  0  0  0
 13 10  1  0  0  0  0
 14 12  1  6  0  0  0
 14 13  1  0  0  0  0
 16 18  2  0  0  0  0
 17 15  1  0  0  0  0
 17 19  1  0  0  0  0
 18 17  2  0  0  0  0
 20 25  2  0  0  0  0
 20 21  1  0  0  0  0
 21 23  2  0  0  0  0
 23 27  1  0  0  0  0
 23 24  1  0  0  0  0
 25 26  1  0  0  0  0
 26 22  1  0  0  0  0
 26 27  2  0  0  0  0
 27 16  1  0  0  0  0
M  END
>  <MODEL>
5

>  <REMARK>
 VINA RESULT:      -6.7      2.157      3.245
  Name = 
  6 active torsions:
  status: ('A' for Active; 'I' for Inactive)
    1  A    between atoms: C_8  and  C_12
    2  A    between atoms: C_8  and  C_25
    3  A    between atoms: C_10  and  N_27
    4  A    between atoms: C_11  and  C_26
    5  A    between atoms: C_14  and  N_17
    6  A    between atoms: CA_23  and  C_25
                            x       y       z     vdW  Elec       q    Type
                         _______ _______ _______ _____ _____    ______ ____

>  <TORSDO>
F 6

$$$$
=
 OpenBabel11062421073D

 27 30  0  0  1  0  0  0  0  0999 V2000
  190.2320  176.0770  144.3050 C   0  0  0  0  0  2  0  0  0  0  0  0
  191.3110  173.9350  145.1010 C   0  0  1  0  0  3  0  0  0  0  0  0
  191.8920  175.0930  145.8030 N   0  0  2  0  0  0  0  0  0  0  0  0
  190.0020  173.7300  145.5500 O   0  0  0  0  0  1  0  0  0  0  0  0
  191.4860  175.2160  144.3930 C   0  0  2  0  0  3  0  0  0  0  0  0
  194.9400  176.6670  145.4830 C   0  0  0  0  0  2  0  0  0  0  0  0
  193.8750  174.9290  144.4000 C   0  0  0  0  0  2  0  0  0  0  0  0
  193.3370  174.9070  145.8190 C   0  0  1  0  0  3  0  0  0  0  0  0
  193.9920  176.0850  146.5060 C   0  0  0  0  0  2  0  0  0  0  0  0
  194.4870  176.2300  144.1700 N   0  0  2  0  0  0  0  0  0  0  0  0
  195.3840  174.9570  142.3020 C   0  0  0  0  0  2  0  0  0  0  0  0
  196.5690  176.7360  141.2750 O   0  0  0  0  0  1  0  0  0  0  0  0
  195.6690  176.0160  143.3500 C   0  0  1  0  0  3  0  0  0  0  0  0
  195.3730  176.4190  141.9160 C   0  0  2  0  0  3  0  0  0  0  0  0
  190.3910  177.2990  145.1910 C   0  0  0  0  0  2  0  0  0  0  0  0
  186.9140  176.5330  145.7310 C   0  0  0  0  0  3  0  0  0  0  0  0
  189.3500  177.3100  146.2590 C   0  0  0  0  0  0  0  0  0  0  0  0
  188.1310  176.9270  145.9970 C   0  0  0  0  0  0  0  0  0  0  0  0
  189.6620  177.9170  147.5800 C   0  0  0  0  0  1  0  0  0  0  0  0
  183.7150  179.0390  144.4940 N   0  0  0  0  0  0  0  0  0  0  0  0
  184.3910  178.3100  143.5720 C   0  0  0  0  0  3  0  0  0  0  0  0
  185.3270  178.2060  147.6430 N   0  0  0  0  0  1  0  0  0  0  0  0
  185.4410  177.4880  143.9730 C   0  0  0  0  0  0  0  0  0  0  0  0
  186.1610  176.7010  142.9290 C   0  0  0  0  0  1  0  0  0  0  0  0
  184.0350  178.9880  145.7870 N   0  0  0  0  0  0  0  0  0  0  0  0
  185.0480  178.2070  146.2470 C   0  0  0  0  0  0  0  0  0  0  0  0
  185.7920  177.4200  145.3340 C   0  0  0  0  0  0  0  0  0  0  0  0
  1 15  1  0  0  0  0
  2  4  1  1  0  0  0
  2  3  1  0  0  0  0
  3  8  1  6  0  0  0
  5  1  1  1  0  0  0
  5  2  1  0  0  0  0
  5  3  1  0  0  0  0
  6  9  1  0  0  0  0
  8  7  1  6  0  0  0
  8  9  1  0  0  0  0
 10  7  1  1  0  0  0
 10  6  1  0  0  0  0
 13 11  1  6  0  0  0
 13 10  1  0  0  0  0
 14 12  1  6  0  0  0
 14 11  1  0  0  0  0
 14 13  1  0  0  0  0
 15 17  1  0  0  0  0
 16 18  2  0  0  0  0
 17 19  1  0  0  0  0
 18 17  2  0  0  0  0
 20 25  1  0  0  0  0
 21 23  1  0  0  0  0
 21 20  2  0  0  0  0
 23 27  2  0  0  0  0
 24 23  1  0  0  0  0
 25 26  2  0  0  0  0
 26 22  1  0  0  0  0
 27 16  1  0  0  0  0
 27 26  1  0  0  0  0
M  END
>  <MODEL>
6

>  <REMARK>
 VINA RESULT:      -6.7      1.595      2.131
  Name = 
  6 active torsions:
  status: ('A' for Active; 'I' for Inactive)
    1  A    between atoms: C_8  and  C_12
    2  A    between atoms: C_8  and  C_25
    3  A    between atoms: C_10  and  N_27
    4  A    between atoms: C_11  and  C_26
    5  A    between atoms: C_14  and  N_17
    6  A    between atoms: CA_23  and  C_25
                            x       y       z     vdW  Elec       q    Type
                         _______ _______ _______ _____ _____    ______ ____

>  <TORSDO>
F 6

$$$$
=
 OpenBabel11062421073D

 27 30  0  0  1  0  0  0  0  0999 V2000
  189.9640  175.2330  144.3680 C   0  0  0  0  0  2  0  0  0  0  0  0
  190.8240  177.2020  143.0380 C   0  0  1  0  0  3  0  0  0  0  0  0
  191.5300  175.9700  142.6430 N   0  0  2  0  0  0  0  0  0  0  0  0
  189.5070  177.1500  142.5720 O   0  0  0  0  0  1  0  0  0  0  0  0
  191.1230  176.1670  144.0450 C   0  0  2  0  0  3  0  0  0  0  0  0
  194.7110  174.6640  142.4390 C   0  0  0  0  0  2  0  0  0  0  0  0
  193.6100  176.0660  143.9040 C   0  0  0  0  0  2  0  0  0  0  0  0
  192.9470  176.2940  142.5570 C   0  0  1  0  0  3  0  0  0  0  0  0
  193.6320  175.3280  141.6150 C   0  0  0  0  0  2  0  0  0  0  0  0
  194.3440  174.8100  143.8390 N   0  0  2  0  0  0  0  0  0  0  0  0
  195.2470  175.2340  146.0580 C   0  0  0  0  0  2  0  0  0  0  0  0
  197.0540  173.7010  145.9370 O   0  0  0  0  0  1  0  0  0  0  0  0
  195.5730  174.9840  144.5970 C   0  0  1  0  0  3  0  0  0  0  0  0
  195.7080  173.8630  145.6130 C   0  0  2  0  0  3  0  0  0  0  0  0
  189.8470  175.0700  145.8720 C   0  0  0  0  0  2  0  0  0  0  0  0
  186.5760  176.5720  145.9640 C   0  0  0  0  0  3  0  0  0  0  0  0
  189.1140  176.2230  146.4680 C   0  0  0  0  0  0  0  0  0  0  0  0
  187.8470  176.4030  146.2140 C   0  0  0  0  0  0  0  0  0  0  0  0
  189.8690  177.2640  147.2160 C   0  0  0  0  0  1  0  0  0  0  0  0
  184.9690  179.0990  142.9500 N   0  0  0  0  0  0  0  0  0  0  0  0
  185.0150  179.5330  144.2340 C   0  0  0  0  0  3  0  0  0  0  0  0
  186.4000  175.7610  143.0850 N   0  0  0  0  0  1  0  0  0  0  0  0
  185.5400  178.7080  145.2250 C   0  0  0  0  0  0  0  0  0  0  0  0
  185.5750  179.2200  146.6260 C   0  0  0  0  0  1  0  0  0  0  0  0
  185.4170  177.8910  142.6110 N   0  0  0  0  0  0  0  0  0  0  0  0
  185.9410  177.0340  143.5280 C   0  0  0  0  0  0  0  0  0  0  0  0
  186.0200  177.4280  144.8850 C   0  0  0  0  0  0  0  0  0  0  0  0
  1 15  1  0  0  0  0
  2  4  1  6  0  0  0
  2  5  1  0  0  0  0
  3  8  1  1  0  0  0
  3  2  1  0  0  0  0
  3  5  1  0  0  0  0
  5  1  1  6  0  0  0
  8  9  1  6  0  0  0
  8  7  1  0  0  0  0
  9  6  1  0  0  0  0
 10  6  1  6  0  0  0
 10  7  1  0  0  0  0
 10 13  1  0  0  0  0
 13 14  1  0  0  0  0
 13 11  1  1  0  0  0
 14 12  1  1  0  0  0
 14 11  1  0  0  0  0
 15 17  1  0  0  0  0
 16 18  2  0  0  0  0
 17 19  1  0  0  0  0
 18 17  2  0  0  0  0
 20 21  1  0  0  0  0
 21 23  2  0  0  0  0
 22 26  1  0  0  0  0
 23 24  1  0  0  0  0
 25 20  2  0  0  0  0
 25 26  1  0  0  0  0
 26 27  2  0  0  0  0
 27 23  1  0  0  0  0
 27 16  1  0  0  0  0
M  END
>  <MODEL>
7

>  <REMARK>
 VINA RESULT:      -6.7      2.436      3.379
  Name = 
  6 active torsions:
  status: ('A' for Active; 'I' for Inactive)
    1  A    between atoms: C_8  and  C_12
    2  A    between atoms: C_8  and  C_25
    3  A    between atoms: C_10  and  N_27
    4  A    between atoms: C_11  and  C_26
    5  A    between atoms: C_14  and  N_17
    6  A    between atoms: CA_23  and  C_25
                            x       y       z     vdW  Elec       q    Type
                         _______ _______ _______ _____ _____    ______ ____

>  <TORSDO>
F 6

$$$$
=
 OpenBabel11062421073D

 27 30  0  0  1  0  0  0  0  0999 V2000
  190.4960  176.9350  143.5720 C   0  0  0  0  0  2  0  0  0  0  0  0
  191.1310  174.4910  143.4740 C   0  0  1  0  0  3  0  0  0  0  0  0
  191.3320  175.0190  144.8350 N   0  0  2  0  0  0  0  0  0  0  0  0
  189.7610  174.3980  143.2120 O   0  0  0  0  0  1  0  0  0  0  0  0
  191.5900  175.8800  143.6680 C   0  0  2  0  0  3  0  0  0  0  0  0
  194.3880  175.9300  146.1380 C   0  0  0  0  0  2  0  0  0  0  0  0
  193.6860  174.8020  144.2510 C   0  0  0  0  0  2  0  0  0  0  0  0
  192.6230  174.5290  145.3000 C   0  0  1  0  0  3  0  0  0  0  0  0
  193.0580  175.3200  146.5140 C   0  0  0  0  0  2  0  0  0  0  0  0
  194.4620  175.9550  144.6840 N   0  0  2  0  0  0  0  0  0  0  0  0
  195.9120  175.1420  142.9080 C   0  0  0  0  0  2  0  0  0  0  0  0
  197.6060  176.7870  143.1360 O   0  0  0  0  0  1  0  0  0  0  0  0
  195.8480  175.7120  144.3130 C   0  0  1  0  0  3  0  0  0  0  0  0
  196.2250  176.6040  143.1430 C   0  0  2  0  0  3  0  0  0  0  0  0
  190.5210  177.8070  144.8140 C   0  0  0  0  0  2  0  0  0  0  0  0
  187.1400  176.5720  144.9290 C   0  0  0  0  0  3  0  0  0  0  0  0
  189.4760  177.3680  145.7830 C   0  0  0  0  0  0  0  0  0  0  0  0
  188.3060  176.9750  145.3590 C   0  0  0  0  0  0  0  0  0  0  0  0
  189.7100  177.5400  147.2410 C   0  0  0  0  0  1  0  0  0  0  0  0
  183.6830  179.0240  144.6440 N   0  0  0  0  0  0  0  0  0  0  0  0
  184.1530  178.6680  145.8650 C   0  0  0  0  0  3  0  0  0  0  0  0
  185.9760  177.4430  142.3090 N   0  0  0  0  0  1  0  0  0  0  0  0
  185.2860  177.8640  145.9630 C   0  0  0  0  0  0  0  0  0  0  0  0
  185.7730  177.4920  147.3240 C   0  0  0  0  0  1  0  0  0  0  0  0
  184.2830  178.6190  143.5260 N   0  0  0  0  0  0  0  0  0  0  0  0
  185.3920  177.8320  143.5480 C   0  0  0  0  0  0  0  0  0  0  0  0
  185.9340  177.4270  144.7920 C   0  0  0  0  0  0  0  0  0  0  0  0
  1 15  1  0  0  0  0
  2  4  1  1  0  0  0
  2  5  1  0  0  0  0
  2  3  1  0  0  0  0
  3  8  1  6  0  0  0
  5  1  1  1  0  0  0
  5  3  1  0  0  0  0
  6  9  1  0  0  0  0
  8  7  1  6  0  0  0
  8  9  1  0  0  0  0
 10  7  1  6  0  0  0
 10  6  1  0  0  0  0
 11 14  1  0  0  0  0
 13 11  1  6  0  0  0
 13 10  1  0  0  0  0
 14 12  1  1  0  0  0
 14 13  1  0  0  0  0
 15 17  1  0  0  0  0
 16 18  2  0  0  0  0
 17 19  1  0  0  0  0
 18 17  2  0  0  0  0
 20 21  1  0  0  0  0
 21 23  2  0  0  0  0
 22 26  1  0  0  0  0
 23 24  1  0  0  0  0
 25 26  1  0  0  0  0
 25 20  2  0  0  0  0
 26 27  2  0  0  0  0
 27 16  1  0  0  0  0
 27 23  1  0  0  0  0
M  END
>  <MODEL>
8

>  <REMARK>
 VINA RESULT:      -6.7      2.015      2.862
  Name = 
  6 active torsions:
  status: ('A' for Active; 'I' for Inactive)
    1  A    between atoms: C_8  and  C_12
    2  A    between atoms: C_8  and  C_25
    3  A    between atoms: C_10  and  N_27
    4  A    between atoms: C_11  and  C_26
    5  A    between atoms: C_14  and  N_17
    6  A    between atoms: CA_23  and  C_25
                            x       y       z     vdW  Elec       q    Type
                         _______ _______ _______ _____ _____    ______ ____

>  <TORSDO>
F 6

$$$$
=
 OpenBabel11062421073D

 27 30  0  0  1  0  0  0  0  0999 V2000
  190.0730  174.7330  143.2050 C   0  0  0  0  0  2  0  0  0  0  0  0
  191.1250  172.9740  144.6840 C   0  0  1  0  0  3  0  0  0  0  0  0
  191.0690  174.2680  145.3860 N   0  0  2  0  0  0  0  0  0  0  0  0
  189.8320  172.4540  144.5680 O   0  0  0  0  0  1  0  0  0  0  0  0
  191.3120  174.2300  143.9340 C   0  0  2  0  0  3  0  0  0  0  0  0
  193.5470  176.5520  146.1000 C   0  0  0  0  0  2  0  0  0  0  0  0
  193.4550  174.5340  144.9850 C   0  0  0  0  0  2  0  0  0  0  0  0
  192.3600  174.4630  146.0330 C   0  0  1  0  0  3  0  0  0  0  0  0
  192.3840  175.8110  146.7190 C   0  0  0  0  0  2  0  0  0  0  0  0
  193.8250  175.9320  144.8130 N   0  0  2  0  0  0  0  0  0  0  0  0
  195.6730  174.9390  143.5810 C   0  0  0  0  0  2  0  0  0  0  0  0
  196.8350  176.9550  143.1200 O   0  0  0  0  0  1  0  0  0  0  0  0
  195.2650  175.9790  144.6080 C   0  0  1  0  0  3  0  0  0  0  0  0
  195.5620  176.3930  143.1770 C   0  0  2  0  0  3  0  0  0  0  0  0
  190.2800  176.1770  142.7870 C   0  0  0  0  0  2  0  0  0  0  0  0
  187.6710  176.7710  145.1970 C   0  0  0  0  0  3  0  0  0  0  0  0
  189.9120  177.1010  143.8980 C   0  0  0  0  0  0  0  0  0  0  0  0
  188.7910  176.9420  144.5450 C   0  0  0  0  0  0  0  0  0  0  0  0
  190.7440  178.3060  144.1540 C   0  0  0  0  0  1  0  0  0  0  0  0
  183.9960  178.7490  144.4070 N   0  0  0  0  0  0  0  0  0  0  0  0
  184.5920  178.8990  145.6160 C   0  0  0  0  0  3  0  0  0  0  0  0
  186.2290  176.5380  142.5810 N   0  0  0  0  0  1  0  0  0  0  0  0
  185.7960  178.2520  145.8790 C   0  0  0  0  0  0  0  0  0  0  0  0
  186.4220  178.4420  147.2210 C   0  0  0  0  0  1  0  0  0  0  0  0
  184.5390  177.9890  143.4570 N   0  0  0  0  0  0  0  0  0  0  0  0
  185.7130  177.3290  143.6470 C   0  0  0  0  0  0  0  0  0  0  0  0
  186.3860  177.4470  144.8870 C   0  0  0  0  0  0  0  0  0  0  0  0
  2  4  1  6  0  0  0
  2  3  1  0  0  0  0
  3  8  1  1  0  0  0
  5  1  1  6  0  0  0
  5  2  1  0  0  0  0
  5  3  1  0  0  0  0
  6  9  1  0  0  0  0
  8  7  1  6  0  0  0
  8  9  1  0  0  0  0
 10  7  1  1  0  0  0
 10  6  1  0  0  0  0
 13 11  1  6  0  0  0
 13 10  1  0  0  0  0
 14 12  1  1  0  0  0
 14 11  1  0  0  0  0
 14 13  1  0  0  0  0
 15  1  1  0  0  0  0
 15 17  1  0  0  0  0
 17 19  1  0  0  0  0
 17 18  2  0  0  0  0
 18 16  2  0  0  0  0
 20 21  1  0  0  0  0
 21 23  2  0  0  0  0
 22 26  1  0  0  0  0
 23 24  1  0  0  0  0
 25 26  1  0  0  0  0
 25 20  2  0  0  0  0
 26 27  2  0  0  0  0
 27 16  1  0  0  0  0
 27 23  1  0  0  0  0
M  END
>  <MODEL>
9

>  <REMARK>
 VINA RESULT:      -6.7      2.054      2.733
  Name = 
  6 active torsions:
  status: ('A' for Active; 'I' for Inactive)
    1  A    between atoms: C_8  and  C_12
    2  A    between atoms: C_8  and  C_25
    3  A    between atoms: C_10  and  N_27
    4  A    between atoms: C_11  and  C_26
    5  A    between atoms: C_14  and  N_17
    6  A    between atoms: CA_23  and  C_25
                            x       y       z     vdW  Elec       q    Type
                         _______ _______ _______ _____ _____    ______ ____

>  <TORSDO>
F 6

$$$$
