=
 OpenBabel11062420443D

 45 47  0  0  1  0  0  0  0  0999 V2000
  190.8590  177.1890  146.9480 O   0  0  0  0  0  1  0  0  0  0  0  0
  189.9510  174.4720  143.9940 C   0  0  2  0  0  3  0  0  0  0  0  0
  191.5980  176.2030  146.2890 C   0  0  1  0  0  0  0  0  0  0  0  0
  189.5150  175.9450  144.1150 C   0  0  0  0  0  2  0  0  0  0  0  0
  190.8290  174.8620  146.3670 C   0  0  0  0  0  2  0  0  0  0  0  0
  190.6540  176.9580  143.9790 C   0  0  2  0  0  3  0  0  0  0  0  0
  191.8820  176.6640  144.8470 C   0  0  0  0  0  2  0  0  0  0  0  0
  190.1770  178.2390  144.2500 O   0  0  0  0  0  1  0  0  0  0  0  0
  190.9220  174.0130  145.0920 C   0  0  0  0  0  2  0  0  0  0  0  0
  192.9590  176.0640  146.9680 C   0  0  0  0  0  2  0  0  0  0  0  0
  194.1370  176.2090  146.0090 C   0  0  0  0  0  2  0  0  0  0  0  0
  195.1870  175.1320  146.2570 C   0  0  0  0  0  2  0  0  0  0  0  0
  195.5130  174.3700  144.9760 C   0  0  1  0  0  3  0  0  0  0  0  0
  197.2430  172.9640  145.8680 O   0  0  0  0  0  1  0  0  0  0  0  0
  196.9130  173.8450  145.0260 C   0  0  0  0  0  0  0  0  0  0  0  0
  197.8630  174.3550  144.1520 O   0  0  0  0  0  0  0  0  0  0  0  0
  194.0310  172.6170  145.6530 O   0  0  0  0  0  0  0  0  0  0  0  0
  194.1310  172.9440  143.3580 N   0  0  0  0  0  2  0  0  0  0  0  0
  194.5220  173.2730  144.6970 C   0  0  0  0  0  0  0  0  0  0  0  0
  194.6470  175.9760  141.2390 C   0  0  0  0  0  2  0  0  0  0  0  0
  194.6130  175.7010  139.8660 O   0  0  0  0  0  0  0  0  0  0  0  0
  195.5690  174.7010  139.6530 C   0  0  0  0  0  2  0  0  0  0  0  0
  194.5520  173.6590  142.1530 C   0  0  1  0  0  3  0  0  0  0  0  0
  194.8640  173.3500  139.5680 C   0  0  0  0  0  2  0  0  0  0  0  0
  194.4650  172.7420  140.9270 C   0  0  0  0  0  2  0  0  0  0  0  0
  193.7910  174.9730  142.0040 C   0  0  0  0  0  2  0  0  0  0  0  0
  190.5360  174.2040  142.6860 N   0  0  0  0  0  2  0  0  0  0  0  0
  190.6410  172.4250  140.7420 S   0  0  0  0  0  0  0  0  0  0  0  0
  189.8590  173.5750  141.5910 C   0  0  0  0  0  0  0  0  0  0  0  0
  188.5430  173.9560  141.1820 N   0  0  0  0  0  2  0  0  0  0  0  0
  188.2520  175.2170  140.6460 N   0  0  0  0  0  2  0  0  0  0  0  0
  187.2610  175.8310  141.5200 C   0  0  0  0  0  2  0  0  0  0  0  0
  187.0140  177.2990  141.1720 C   0  0  1  0  0  0  0  0  0  0  0  0
  188.2220  177.9860  141.3170 O   0  0  0  0  0  1  0  0  0  0  0  0
  186.5500  177.4110  139.7240 C   0  0  0  0  0  1  0  0  0  0  0  0
  186.0070  177.8570  142.0870 N   0  0  0  0  0  2  0  0  0  0  0  0
  186.1320  177.2690  143.4190 C   0  0  0  0  0  2  0  0  0  0  0  0
  184.7430  178.5230  146.6410 C   0  0  1  0  0  3  0  0  0  0  0  0
  185.9520  176.8040  147.7530 F   0  0  0  0  0  0  0  0  0  0  0  0
  186.6580  178.3040  144.4090 C   0  0  2  0  0  3  0  0  0  0  0  0
  183.5650  178.1650  147.2680 F   0  0  0  0  0  0  0  0  0  0  0  0
  185.6400  177.2970  146.4990 C   0  0  2  0  0  3  0  0  0  0  0  0
  186.9330  177.6650  145.7720 C   0  0  0  0  0  2  0  0  0  0  0  0
  184.4220  179.1080  145.2690 C   0  0  0  0  0  2  0  0  0  0  0  0
  185.7090  179.4980  144.5460 C   0  0  0  0  0  2  0  0  0  0  0  0
  2 27  1  6  0  0  0
  2  4  1  0  0  0  0
  2  9  1  0  0  0  0
  3  5  1  0  0  0  0
  3  1  1  1  0  0  0
  3 10  1  0  0  0  0
  6  4  1  0  0  0  0
  6  8  1  1  0  0  0
  6  7  1  0  0  0  0
  7  3  1  0  0  0  0
  9  5  1  0  0  0  0
 11 12  1  0  0  0  0
 11 10  1  0  0  0  0
 13 15  1  0  0  0  0
 13 12  1  1  0  0  0
 15 14  1  0  0  0  0
 16 15  2  0  0  0  0
 18 19  1  0  0  0  0
 19 13  1  0  0  0  0
 19 17  2  0  0  0  0
 20 26  1  0  0  0  0
 21 20  1  0  0  0  0
 22 21  1  0  0  0  0
 23 18  1  1  0  0  0
 24 22  1  0  0  0  0
 24 25  1  0  0  0  0
 25 23  1  0  0  0  0
 26 23  1  0  0  0  0
 28 29  2  0  0  0  0
 29 27  1  0  0  0  0
 30 29  1  0  0  0  0
 31 30  1  0  0  0  0
 31 32  1  0  0  0  0
 33 35  1  6  0  0  0
 33 34  1  0  0  0  0
 33 32  1  0  0  0  0
 33 36  1  0  0  0  0
 36 37  1  0  0  0  0
 38 41  1  6  0  0  0
 40 37  1  6  0  0  0
 40 45  1  0  0  0  0
 40 43  1  0  0  0  0
 42 38  1  0  0  0  0
 42 39  1  1  0  0  0
 43 42  1  0  0  0  0
 44 38  1  0  0  0  0
 45 44  1  0  0  0  0
M  END
>  <MODEL>
1

>  <REMARK>
 VINA RESULT:      -6.9      0.000      0.000
  Name = 
  16 active torsions:
  status: ('A' for Active; 'I' for Inactive)
    1  A    between atoms: N_2  and  C_4
    2  A    between atoms: N_2  and  C_22
    3  A    between atoms: C_5  and  C_16
    4  A    between atoms: C_10  and  C_19
    5  A    between atoms: C_10  and  N_44
    6  A    between atoms: C_13  and  N_36
    7  A    between atoms: C_16  and  C_41
    8  A    between atoms: C_22  and  N_31
    9  A    between atoms: C_26  and  C_27
   10  A    between atoms: C_26  and  C_41
   11  A    between atoms: C_27  and  C_37
   12  A    between atoms: C_27  and  C_38
   13  A    between atoms: C_28  and  C_32
   14  A    between atoms: C_28  and  N_44
   15  A    between atoms: N_30  and  N_31
   16  A    between atoms: N_30  and  C_32
                            x       y       z     vdW  Elec       q    Type
                         _______ _______ _______ _____ _____    ______ ____

>  <TORSDO>
F 16

$$$$
=
 OpenBabel11062420443D

 45 47  0  0  1  0  0  0  0  0999 V2000
  188.1420  172.8240  139.6650 O   0  0  0  0  0  1  0  0  0  0  0  0
  191.1570  171.1450  141.9050 C   0  0  2  0  0  3  0  0  0  0  0  0
  188.8950  173.2730  140.7530 C   0  0  1  0  0  0  0  0  0  0  0  0
  190.9370  171.0770  140.3820 C   0  0  0  0  0  2  0  0  0  0  0  0
  188.8320  172.2140  141.8800 C   0  0  0  0  0  2  0  0  0  0  0  0
  191.0990  172.4150  139.6560 C   0  0  2  0  0  3  0  0  0  0  0  0
  190.3280  173.5820  140.2830 C   0  0  0  0  0  2  0  0  0  0  0  0
  190.7360  172.2690  138.3190 O   0  0  0  0  0  1  0  0  0  0  0  0
  190.1490  172.0350  142.6460 C   0  0  0  0  0  2  0  0  0  0  0  0
  188.3140  174.5960  141.2480 C   0  0  0  0  0  2  0  0  0  0  0  0
  187.4140  174.4480  142.4710 C   0  0  0  0  0  2  0  0  0  0  0  0
  186.7530  175.7720  142.8350 C   0  0  0  0  0  2  0  0  0  0  0  0
  187.1290  176.8700  141.8440 C   0  0  1  0  0  3  0  0  0  0  0  0
  184.8220  177.5260  141.9670 O   0  0  0  0  0  1  0  0  0  0  0  0
  185.8970  177.5250  141.3050 C   0  0  0  0  0  0  0  0  0  0  0  0
  185.9340  178.1150  140.0480 O   0  0  0  0  0  0  0  0  0  0  0  0
  189.0270  178.3250  141.7510 O   0  0  0  0  0  0  0  0  0  0  0  0
  187.9200  178.3340  143.7910 N   0  0  0  0  0  2  0  0  0  0  0  0
  188.0730  177.8780  142.4410 C   0  0  0  0  0  0  0  0  0  0  0  0
  184.4840  178.6360  145.2220 C   0  0  0  0  0  2  0  0  0  0  0  0
  184.4010  178.2070  146.5530 O   0  0  0  0  0  0  0  0  0  0  0  0
  184.8990  176.8990  146.5650 C   0  0  0  0  0  2  0  0  0  0  0  0
  186.8260  177.9680  144.6910 C   0  0  1  0  0  3  0  0  0  0  0  0
  186.3470  176.9230  147.0470 C   0  0  0  0  0  2  0  0  0  0  0  0
  187.3760  177.3520  145.9820 C   0  0  0  0  0  2  0  0  0  0  0  0
  185.8860  179.1490  144.9130 C   0  0  0  0  0  2  0  0  0  0  0  0
  192.5120  171.5800  142.2210 N   0  0  0  0  0  2  0  0  0  0  0  0
  193.3230  170.0680  144.2230 S   0  0  0  0  0  0  0  0  0  0  0  0
  193.1180  171.5220  143.5190 C   0  0  0  0  0  0  0  0  0  0  0  0
  193.5010  172.6960  144.2400 N   0  0  0  0  0  2  0  0  0  0  0  0
  194.8160  173.1760  144.2620 N   0  0  0  0  0  2  0  0  0  0  0  0
  194.8470  174.3670  143.4220 C   0  0  0  0  0  2  0  0  0  0  0  0
  195.0490  175.6440  144.2380 C   0  0  1  0  0  0  0  0  0  0  0  0
  195.3850  175.2750  145.5430 O   0  0  0  0  0  1  0  0  0  0  0  0
  196.1940  176.4550  143.6420 C   0  0  0  0  0  1  0  0  0  0  0  0
  193.8030  176.4240  144.2420 N   0  0  0  0  0  2  0  0  0  0  0  0
  193.0950  176.2670  145.5110 C   0  0  0  0  0  2  0  0  0  0  0  0
  189.7580  174.6120  145.5370 C   0  0  1  0  0  3  0  0  0  0  0  0
  189.7200  174.8760  147.8990 F   0  0  0  0  0  0  0  0  0  0  0  0
  191.6850  176.8400  145.4070 C   0  0  2  0  0  3  0  0  0  0  0  0
  189.4650  173.2650  145.6350 F   0  0  0  0  0  0  0  0  0  0  0  0
  190.5130  175.0640  146.7830 C   0  0  2  0  0  3  0  0  0  0  0  0
  190.8800  176.5440  146.6740 C   0  0  0  0  0  2  0  0  0  0  0  0
  190.6000  174.8500  144.2880 C   0  0  0  0  0  2  0  0  0  0  0  0
  190.9520  176.3310  144.1620 C   0  0  0  0  0  2  0  0  0  0  0  0
  2 27  1  6  0  0  0
  2  9  1  0  0  0  0
  3  1  1  6  0  0  0
  3 10  1  0  0  0  0
  3  5  1  0  0  0  0
  4  2  1  0  0  0  0
  5  9  1  0  0  0  0
  6  8  1  6  0  0  0
  6  7  1  0  0  0  0
  6  4  1  0  0  0  0
  7  3  1  0  0  0  0
 10 11  1  0  0  0  0
 11 12  1  0  0  0  0
 13 19  1  0  0  0  0
 13 12  1  1  0  0  0
 15 13  1  0  0  0  0
 15 14  1  0  0  0  0
 16 15  2  0  0  0  0
 17 19  2  0  0  0  0
 19 18  1  0  0  0  0
 20 21  1  0  0  0  0
 21 22  1  0  0  0  0
 22 24  1  0  0  0  0
 23 18  1  6  0  0  0
 23 26  1  0  0  0  0
 23 25  1  0  0  0  0
 25 24  1  0  0  0  0
 26 20  1  0  0  0  0
 27 29  1  0  0  0  0
 29 28  2  0  0  0  0
 29 30  1  0  0  0  0
 30 31  1  0  0  0  0
 32 33  1  0  0  0  0
 32 31  1  0  0  0  0
 33 35  1  6  0  0  0
 33 36  1  0  0  0  0
 33 34  1  0  0  0  0
 36 37  1  0  0  0  0
 38 41  1  1  0  0  0
 38 42  1  0  0  0  0
 40 37  1  1  0  0  0
 40 43  1  0  0  0  0
 42 39  1  1  0  0  0
 43 42  1  0  0  0  0
 44 38  1  0  0  0  0
 45 44  1  0  0  0  0
 45 40  1  0  0  0  0
M  END
>  <MODEL>
2

>  <REMARK>
 VINA RESULT:      -6.9      2.730      8.331
  Name = 
  16 active torsions:
  status: ('A' for Active; 'I' for Inactive)
    1  A    between atoms: N_2  and  C_4
    2  A    between atoms: N_2  and  C_22
    3  A    between atoms: C_5  and  C_16
    4  A    between atoms: C_10  and  C_19
    5  A    between atoms: C_10  and  N_44
    6  A    between atoms: C_13  and  N_36
    7  A    between atoms: C_16  and  C_41
    8  A    between atoms: C_22  and  N_31
    9  A    between atoms: C_26  and  C_27
   10  A    between atoms: C_26  and  C_41
   11  A    between atoms: C_27  and  C_37
   12  A    between atoms: C_27  and  C_38
   13  A    between atoms: C_28  and  C_32
   14  A    between atoms: C_28  and  N_44
   15  A    between atoms: N_30  and  N_31
   16  A    between atoms: N_30  and  C_32
                            x       y       z     vdW  Elec       q    Type
                         _______ _______ _______ _____ _____    ______ ____

>  <TORSDO>
F 16

$$$$
=
 OpenBabel11062420443D

 45 47  0  0  1  0  0  0  0  0999 V2000
  192.0000  176.2170  147.7350 O   0  0  0  0  0  1  0  0  0  0  0  0
  190.1290  174.3420  144.5860 C   0  0  2  0  0  3  0  0  0  0  0  0
  192.4180  175.8380  146.4560 C   0  0  1  0  0  0  0  0  0  0  0  0
  189.5700  175.4220  145.5340 C   0  0  0  0  0  2  0  0  0  0  0  0
  192.0820  174.3430  146.2410 C   0  0  0  0  0  2  0  0  0  0  0  0
  190.2360  176.7930  145.3970 C   0  0  2  0  0  3  0  0  0  0  0  0
  191.7680  176.7690  145.4160 C   0  0  0  0  0  2  0  0  0  0  0  0
  189.7630  177.6450  146.3920 O   0  0  0  0  0  1  0  0  0  0  0  0
  191.6090  174.0060  144.8210 C   0  0  0  0  0  2  0  0  0  0  0  0
  193.9260  176.0560  146.3410 C   0  0  0  0  0  2  0  0  0  0  0  0
  194.3100  177.1390  145.3370 C   0  0  0  0  0  2  0  0  0  0  0  0
  195.5740  176.7600  144.5730 C   0  0  0  0  0  2  0  0  0  0  0  0
  195.3720  175.4800  143.7680 C   0  0  1  0  0  3  0  0  0  0  0  0
  195.3210  176.5070  141.5980 O   0  0  0  0  0  0  0  0  0  0  0  0
  194.7310  175.7890  142.4520 C   0  0  0  0  0  0  0  0  0  0  0  0
  193.4600  175.3000  142.1840 O   0  0  0  0  0  1  0  0  0  0  0  0
  197.7280  175.3310  143.3700 O   0  0  0  0  0  0  0  0  0  0  0  0
  196.6780  173.2790  143.6490 N   0  0  0  0  0  2  0  0  0  0  0  0
  196.6540  174.7110  143.5900 C   0  0  0  0  0  0  0  0  0  0  0  0
  194.7400  170.8870  145.7630 C   0  0  0  0  0  2  0  0  0  0  0  0
  193.8860  170.0630  145.0200 O   0  0  0  0  0  0  0  0  0  0  0  0
  193.0790  170.9260  144.2680 C   0  0  0  0  0  2  0  0  0  0  0  0
  195.5350  172.4250  143.9690 C   0  0  1  0  0  3  0  0  0  0  0  0
  193.6320  171.0120  142.8490 C   0  0  0  0  0  2  0  0  0  0  0  0
  194.8530  171.9390  142.6850 C   0  0  0  0  0  2  0  0  0  0  0  0
  195.9420  171.3050  144.9220 C   0  0  0  0  0  2  0  0  0  0  0  0
  189.9320  174.7170  143.1910 N   0  0  0  0  0  2  0  0  0  0  0  0
  188.1800  173.1700  141.9690 S   0  0  0  0  0  0  0  0  0  0  0  0
  188.6910  174.6300  142.4790 C   0  0  0  0  0  0  0  0  0  0  0  0
  187.9100  175.7830  142.1550 N   0  0  0  0  0  2  0  0  0  0  0  0
  187.3030  176.5850  143.1290 N   0  0  0  0  0  2  0  0  0  0  0  0
  185.9020  176.7230  142.7520 C   0  0  0  0  0  2  0  0  0  0  0  0
  185.5190  178.1760  142.4670 C   0  0  1  0  0  0  0  0  0  0  0  0
  186.6960  178.9260  142.4000 O   0  0  0  0  0  1  0  0  0  0  0  0
  184.8000  178.2610  141.1260 C   0  0  0  0  0  1  0  0  0  0  0  0
  184.6650  178.6790  143.5520 N   0  0  0  0  0  2  0  0  0  0  0  0
  185.4720  179.2470  144.6290 C   0  0  0  0  0  2  0  0  0  0  0  0
  186.1730  177.0490  147.5550 C   0  0  1  0  0  3  0  0  0  0  0  0
  187.5270  178.7860  148.4490 F   0  0  0  0  0  0  0  0  0  0  0  0
  184.7570  179.0920  145.9680 C   0  0  2  0  0  3  0  0  0  0  0  0
  187.1820  176.1180  147.7100 F   0  0  0  0  0  0  0  0  0  0  0  0
  186.7810  178.4320  147.3410 C   0  0  2  0  0  3  0  0  0  0  0  0
  185.6800  179.4700  147.1280 C   0  0  0  0  0  2  0  0  0  0  0  0
  185.3100  176.6570  146.3590 C   0  0  0  0  0  2  0  0  0  0  0  0
  184.1940  177.6790  146.1550 C   0  0  0  0  0  2  0  0  0  0  0  0
  2 27  1  6  0  0  0
  2  9  1  0  0  0  0
  2  4  1  0  0  0  0
  3  1  1  1  0  0  0
  5  3  1  0  0  0  0
  6  7  1  0  0  0  0
  6  4  1  0  0  0  0
  6  8  1  1  0  0  0
  7  3  1  0  0  0  0
  9  5  1  0  0  0  0
 10  3  1  0  0  0  0
 11 10  1  0  0  0  0
 12 11  1  0  0  0  0
 13 12  1  6  0  0  0
 14 15  2  0  0  0  0
 15 13  1  0  0  0  0
 16 15  1  0  0  0  0
 17 19  2  0  0  0  0
 19 18  1  0  0  0  0
 19 13  1  0  0  0  0
 21 20  1  0  0  0  0
 22 21  1  0  0  0  0
 23 18  1  6  0  0  0
 23 26  1  0  0  0  0
 24 22  1  0  0  0  0
 25 24  1  0  0  0  0
 25 23  1  0  0  0  0
 26 20  1  0  0  0  0
 28 29  2  0  0  0  0
 29 27  1  0  0  0  0
 30 29  1  0  0  0  0
 30 31  1  0  0  0  0
 32 31  1  0  0  0  0
 33 35  1  6  0  0  0
 33 32  1  0  0  0  0
 33 36  1  0  0  0  0
 34 33  1  0  0  0  0
 36 37  1  0  0  0  0
 38 41  1  6  0  0  0
 40 37  1  6  0  0  0
 40 45  1  0  0  0  0
 40 43  1  0  0  0  0
 42 38  1  0  0  0  0
 42 39  1  1  0  0  0
 43 42  1  0  0  0  0
 44 38  1  0  0  0  0
 45 44  1  0  0  0  0
M  END
>  <MODEL>
3

>  <REMARK>
 VINA RESULT:      -6.9      1.885      3.199
  Name = 
  16 active torsions:
  status: ('A' for Active; 'I' for Inactive)
    1  A    between atoms: N_2  and  C_4
    2  A    between atoms: N_2  and  C_22
    3  A    between atoms: C_5  and  C_16
    4  A    between atoms: C_10  and  C_19
    5  A    between atoms: C_10  and  N_44
    6  A    between atoms: C_13  and  N_36
    7  A    between atoms: C_16  and  C_41
    8  A    between atoms: C_22  and  N_31
    9  A    between atoms: C_26  and  C_27
   10  A    between atoms: C_26  and  C_41
   11  A    between atoms: C_27  and  C_37
   12  A    between atoms: C_27  and  C_38
   13  A    between atoms: C_28  and  C_32
   14  A    between atoms: C_28  and  N_44
   15  A    between atoms: N_30  and  N_31
   16  A    between atoms: N_30  and  C_32
                            x       y       z     vdW  Elec       q    Type
                         _______ _______ _______ _____ _____    ______ ____

>  <TORSDO>
F 16

$$$$
=
 OpenBabel11062420443D

 45 47  0  0  1  0  0  0  0  0999 V2000
  192.9400  176.3450  145.6400 O   0  0  0  0  0  1  0  0  0  0  0  0
  189.0420  176.4340  146.9560 C   0  0  2  0  0  3  0  0  0  0  0  0
  191.9250  175.3850  145.7070 C   0  0  1  0  0  0  0  0  0  0  0  0
  189.8100  177.4980  146.1480 C   0  0  0  0  0  2  0  0  0  0  0  0
  191.3560  175.3560  147.1460 C   0  0  0  0  0  2  0  0  0  0  0  0
  190.1890  177.0670  144.7290 C   0  0  2  0  0  3  0  0  0  0  0  0
  190.8650  175.6940  144.6340 C   0  0  0  0  0  2  0  0  0  0  0  0
  191.0010  178.0370  144.1470 O   0  0  0  0  0  1  0  0  0  0  0  0
  189.8380  175.1460  147.2140 C   0  0  0  0  0  2  0  0  0  0  0  0
  192.5090  174.0190  145.3490 C   0  0  0  0  0  2  0  0  0  0  0  0
  193.9690  173.8530  145.7580 C   0  0  0  0  0  2  0  0  0  0  0  0
  194.4400  172.4180  145.5570 C   0  0  0  0  0  2  0  0  0  0  0  0
  195.4850  172.3260  144.4510 C   0  0  1  0  0  3  0  0  0  0  0  0
  197.7480  171.5510  144.2340 O   0  0  0  0  0  0  0  0  0  0  0  0
  196.7170  171.6430  144.9560 C   0  0  0  0  0  0  0  0  0  0  0  0
  196.7110  171.0820  146.2260 O   0  0  0  0  0  1  0  0  0  0  0  0
  194.5550  170.4610  143.2740 O   0  0  0  0  0  0  0  0  0  0  0  0
  194.8930  172.3440  141.9590 N   0  0  0  0  0  2  0  0  0  0  0  0
  194.9500  171.6550  143.2140 C   0  0  0  0  0  0  0  0  0  0  0  0
  194.5080  176.0270  142.4410 C   0  0  0  0  0  2  0  0  0  0  0  0
  194.9630  176.7760  141.3480 O   0  0  0  0  0  0  0  0  0  0  0  0
  196.2870  176.3750  141.1350 C   0  0  0  0  0  2  0  0  0  0  0  0
  195.2420  173.7480  141.7460 C   0  0  1  0  0  3  0  0  0  0  0  0
  196.3230  175.3670  139.9900 C   0  0  0  0  0  2  0  0  0  0  0  0
  195.9040  173.9350  140.3760 C   0  0  0  0  0  2  0  0  0  0  0  0
  194.0350  174.6510  141.9830 C   0  0  0  0  0  2  0  0  0  0  0  0
  187.7760  176.1010  146.3140 N   0  0  0  0  0  2  0  0  0  0  0  0
  186.3390  177.9130  147.5820 S   0  0  0  0  0  0  0  0  0  0  0  0
  186.6080  176.9320  146.3090 C   0  0  0  0  0  0  0  0  0  0  0  0
  185.6440  176.8940  145.2550 N   0  0  0  0  0  2  0  0  0  0  0  0
  185.9800  176.5820  143.9320 N   0  0  0  0  0  2  0  0  0  0  0  0
  186.6420  177.7550  143.3740 C   0  0  0  0  0  2  0  0  0  0  0  0
  187.1070  177.5260  141.9350 C   0  0  1  0  0  0  0  0  0  0  0  0
  186.2590  178.2430  141.0880 O   0  0  0  0  0  1  0  0  0  0  0  0
  188.5300  178.0470  141.7700 C   0  0  0  0  0  1  0  0  0  0  0  0
  187.0350  176.0920  141.6200 N   0  0  0  0  0  2  0  0  0  0  0  0
  188.3730  175.5160  141.5050 C   0  0  0  0  0  2  0  0  0  0  0  0
  190.4920  172.4880  141.9770 C   0  0  1  0  0  3  0  0  0  0  0  0
  189.0160  171.8080  143.7120 F   0  0  0  0  0  0  0  0  0  0  0  0
  188.3020  174.1280  140.8770 C   0  0  2  0  0  3  0  0  0  0  0  0
  191.5980  172.3290  142.7900 F   0  0  0  0  0  0  0  0  0  0  0  0
  189.2760  172.8390  142.8290 C   0  0  2  0  0  3  0  0  0  0  0  0
  188.0510  173.0580  141.9420 C   0  0  0  0  0  2  0  0  0  0  0  0
  190.7710  173.5960  140.9660 C   0  0  0  0  0  2  0  0  0  0  0  0
  189.5580  173.8040  140.0620 C   0  0  0  0  0  2  0  0  0  0  0  0
  2 27  1  6  0  0  0
  2  9  1  0  0  0  0
  3  1  1  6  0  0  0
  3  5  1  0  0  0  0
  4  2  1  0  0  0  0
  5  9  1  0  0  0  0
  6  8  1  1  0  0  0
  6  4  1  0  0  0  0
  7  6  1  0  0  0  0
  7  3  1  0  0  0  0
 10  3  1  0  0  0  0
 10 11  1  0  0  0  0
 12 11  1  0  0  0  0
 13 15  1  0  0  0  0
 13 12  1  1  0  0  0
 14 15  2  0  0  0  0
 15 16  1  0  0  0  0
 18 19  1  0  0  0  0
 19 17  2  0  0  0  0
 19 13  1  0  0  0  0
 21 20  1  0  0  0  0
 22 21  1  0  0  0  0
 23 18  1  6  0  0  0
 23 26  1  0  0  0  0
 24 25  1  0  0  0  0
 24 22  1  0  0  0  0
 25 23  1  0  0  0  0
 26 20  1  0  0  0  0
 29 27  1  0  0  0  0
 29 28  2  0  0  0  0
 30 29  1  0  0  0  0
 31 30  1  0  0  0  0
 32 31  1  0  0  0  0
 33 35  1  6  0  0  0
 33 32  1  0  0  0  0
 34 33  1  0  0  0  0
 36 33  1  0  0  0  0
 37 36  1  0  0  0  0
 38 41  1  1  0  0  0
 38 42  1  0  0  0  0
 40 37  1  1  0  0  0
 40 43  1  0  0  0  0
 42 39  1  1  0  0  0
 43 42  1  0  0  0  0
 44 38  1  0  0  0  0
 45 40  1  0  0  0  0
 45 44  1  0  0  0  0
M  END
>  <MODEL>
4

>  <REMARK>
 VINA RESULT:      -6.6      2.890      4.514
  Name = 
  16 active torsions:
  status: ('A' for Active; 'I' for Inactive)
    1  A    between atoms: N_2  and  C_4
    2  A    between atoms: N_2  and  C_22
    3  A    between atoms: C_5  and  C_16
    4  A    between atoms: C_10  and  C_19
    5  A    between atoms: C_10  and  N_44
    6  A    between atoms: C_13  and  N_36
    7  A    between atoms: C_16  and  C_41
    8  A    between atoms: C_22  and  N_31
    9  A    between atoms: C_26  and  C_27
   10  A    between atoms: C_26  and  C_41
   11  A    between atoms: C_27  and  C_37
   12  A    between atoms: C_27  and  C_38
   13  A    between atoms: C_28  and  C_32
   14  A    between atoms: C_28  and  N_44
   15  A    between atoms: N_30  and  N_31
   16  A    between atoms: N_30  and  C_32
                            x       y       z     vdW  Elec       q    Type
                         _______ _______ _______ _____ _____    ______ ____

>  <TORSDO>
F 16

$$$$
=
 OpenBabel11062420443D

 45 47  0  0  1  0  0  0  0  0999 V2000
  192.1350  176.8710  146.7410 O   0  0  0  0  0  1  0  0  0  0  0  0
  189.4530  175.2910  144.0490 C   0  0  2  0  0  3  0  0  0  0  0  0
  192.1280  175.7130  145.9580 C   0  0  1  0  0  0  0  0  0  0  0  0
  189.8750  176.7620  144.2390 C   0  0  0  0  0  2  0  0  0  0  0  0
  190.8010  174.9530  146.1990 C   0  0  0  0  0  2  0  0  0  0  0  0
  191.3310  177.0570  143.8710 C   0  0  2  0  0  3  0  0  0  0  0  0
  192.3560  176.0970  144.4850 C   0  0  0  0  0  2  0  0  0  0  0  0
  191.6440  178.3700  144.2180 O   0  0  0  0  0  1  0  0  0  0  0  0
  190.2170  174.3000  144.9390 C   0  0  0  0  0  2  0  0  0  0  0  0
  193.3120  174.8350  146.3590 C   0  0  0  0  0  2  0  0  0  0  0  0
  193.9200  174.0620  145.1920 C   0  0  0  0  0  2  0  0  0  0  0  0
  193.7000  172.5620  145.3490 C   0  0  0  0  0  2  0  0  0  0  0  0
  193.8040  171.8420  144.0080 C   0  0  1  0  0  3  0  0  0  0  0  0
  193.9550  169.7170  145.1150 O   0  0  0  0  0  1  0  0  0  0  0  0
  194.3760  170.4730  144.1960 C   0  0  0  0  0  0  0  0  0  0  0  0
  195.4010  170.0420  143.3640 O   0  0  0  0  0  0  0  0  0  0  0  0
  191.5050  171.2080  143.8080 O   0  0  0  0  0  0  0  0  0  0  0  0
  192.3260  172.3940  141.9900 N   0  0  0  0  0  2  0  0  0  0  0  0
  192.4870  171.7950  143.2820 C   0  0  0  0  0  0  0  0  0  0  0  0
  194.2500  175.4920  141.1870 C   0  0  0  0  0  2  0  0  0  0  0  0
  194.7500  175.5070  139.8790 O   0  0  0  0  0  0  0  0  0  0  0  0
  195.4990  174.3320  139.7420 C   0  0  0  0  0  2  0  0  0  0  0  0
  193.3440  173.1720  141.2840 C   0  0  1  0  0  3  0  0  0  0  0  0
  194.6560  173.2870  139.0170 C   0  0  0  0  0  2  0  0  0  0  0  0
  193.6130  172.5720  139.9000 C   0  0  0  0  0  2  0  0  0  0  0  0
  192.9790  174.6530  141.2620 C   0  0  0  0  0  2  0  0  0  0  0  0
  189.5780  174.8860  142.6540 N   0  0  0  0  0  2  0  0  0  0  0  0
  188.0030  172.9900  141.7160 S   0  0  0  0  0  0  0  0  0  0  0  0
  188.4850  174.5440  141.7920 C   0  0  0  0  0  0  0  0  0  0  0  0
  187.8370  175.5060  140.9570 N   0  0  0  0  0  2  0  0  0  0  0  0
  187.5220  176.7990  141.3930 N   0  0  0  0  0  2  0  0  0  0  0  0
  186.4130  176.6730  142.3300 C   0  0  0  0  0  2  0  0  0  0  0  0
  185.5530  177.9360  142.3810 C   0  0  1  0  0  0  0  0  0  0  0  0
  186.3820  179.0090  142.7180 O   0  0  0  0  0  1  0  0  0  0  0  0
  184.9410  178.1940  141.0090 C   0  0  0  0  0  1  0  0  0  0  0  0
  184.5040  177.7740  143.3980 N   0  0  0  0  0  2  0  0  0  0  0  0
  184.7290  178.6750  144.5260 C   0  0  0  0  0  2  0  0  0  0  0  0
  187.0250  177.7040  147.2950 C   0  0  1  0  0  3  0  0  0  0  0  0
  186.5630  179.7980  148.3220 F   0  0  0  0  0  0  0  0  0  0  0  0
  184.4700  177.9520  145.8440 C   0  0  2  0  0  3  0  0  0  0  0  0
  188.3890  177.9040  147.3930 F   0  0  0  0  0  0  0  0  0  0  0  0
  186.3170  179.0510  147.1850 C   0  0  2  0  0  3  0  0  0  0  0  0
  184.8100  178.8490  147.0360 C   0  0  0  0  0  2  0  0  0  0  0  0
  186.7320  176.8470  146.0680 C   0  0  0  0  0  2  0  0  0  0  0  0
  185.2280  176.6230  145.9260 C   0  0  0  0  0  2  0  0  0  0  0  0
  2 27  1  6  0  0  0
  2  4  1  0  0  0  0
  2  9  1  0  0  0  0
  3  5  1  0  0  0  0
  3 10  1  0  0  0  0
  3  1  1  1  0  0  0
  6  8  1  1  0  0  0
  6  4  1  0  0  0  0
  6  7  1  0  0  0  0
  7  3  1  0  0  0  0
  9  5  1  0  0  0  0
 11 12  1  0  0  0  0
 11 10  1  0  0  0  0
 13 15  1  0  0  0  0
 13 12  1  1  0  0  0
 15 14  1  0  0  0  0
 16 15  2  0  0  0  0
 18 19  1  0  0  0  0
 19 17  2  0  0  0  0
 19 13  1  0  0  0  0
 20 26  1  0  0  0  0
 21 20  1  0  0  0  0
 22 21  1  0  0  0  0
 23 18  1  6  0  0  0
 24 22  1  0  0  0  0
 24 25  1  0  0  0  0
 25 23  1  0  0  0  0
 26 23  1  0  0  0  0
 28 29  2  0  0  0  0
 29 27  1  0  0  0  0
 30 31  1  0  0  0  0
 30 29  1  0  0  0  0
 31 32  1  0  0  0  0
 32 33  1  0  0  0  0
 33 35  1  6  0  0  0
 33 34  1  0  0  0  0
 33 36  1  0  0  0  0
 36 37  1  0  0  0  0
 38 41  1  6  0  0  0
 40 37  1  6  0  0  0
 40 45  1  0  0  0  0
 40 43  1  0  0  0  0
 42 38  1  0  0  0  0
 42 39  1  1  0  0  0
 43 42  1  0  0  0  0
 44 38  1  0  0  0  0
 45 44  1  0  0  0  0
M  END
>  <MODEL>
5

>  <REMARK>
 VINA RESULT:      -6.6      1.872      2.394
  Name = 
  16 active torsions:
  status: ('A' for Active; 'I' for Inactive)
    1  A    between atoms: N_2  and  C_4
    2  A    between atoms: N_2  and  C_22
    3  A    between atoms: C_5  and  C_16
    4  A    between atoms: C_10  and  C_19
    5  A    between atoms: C_10  and  N_44
    6  A    between atoms: C_13  and  N_36
    7  A    between atoms: C_16  and  C_41
    8  A    between atoms: C_22  and  N_31
    9  A    between atoms: C_26  and  C_27
   10  A    between atoms: C_26  and  C_41
   11  A    between atoms: C_27  and  C_37
   12  A    between atoms: C_27  and  C_38
   13  A    between atoms: C_28  and  C_32
   14  A    between atoms: C_28  and  N_44
   15  A    between atoms: N_30  and  N_31
   16  A    between atoms: N_30  and  C_32
                            x       y       z     vdW  Elec       q    Type
                         _______ _______ _______ _____ _____    ______ ____

>  <TORSDO>
F 16

$$$$
=
 OpenBabel11062420443D

 45 47  0  0  1  0  0  0  0  0999 V2000
  190.9330  173.3740  141.4520 O   0  0  0  0  0  1  0  0  0  0  0  0
  188.1440  176.3930  141.2560 C   0  0  2  0  0  3  0  0  0  0  0  0
  190.2710  174.1360  142.4200 C   0  0  1  0  0  0  0  0  0  0  0  0
  188.2320  175.1060  140.4120 C   0  0  0  0  0  2  0  0  0  0  0  0
  190.4450  175.6360  142.0820 C   0  0  0  0  0  2  0  0  0  0  0  0
  187.9910  173.8140  141.1970 C   0  0  2  0  0  3  0  0  0  0  0  0
  188.7990  173.6910  142.4940 C   0  0  0  0  0  2  0  0  0  0  0  0
  188.2390  172.7160  140.3770 O   0  0  0  0  0  1  0  0  0  0  0  0
  189.2020  176.4890  142.3650 C   0  0  0  0  0  2  0  0  0  0  0  0
  190.8770  173.8350  143.7900 C   0  0  0  0  0  2  0  0  0  0  0  0
  191.9720  174.8150  144.2010 C   0  0  0  0  0  2  0  0  0  0  0  0
  193.1520  174.0900  144.8360 C   0  0  0  0  0  2  0  0  0  0  0  0
  194.4680  174.7980  144.5310 C   0  0  1  0  0  3  0  0  0  0  0  0
  195.1400  177.0910  144.7710 O   0  0  0  0  0  0  0  0  0  0  0  0
  194.5420  176.0970  145.2680 C   0  0  0  0  0  0  0  0  0  0  0  0
  193.9640  176.1990  146.5270 O   0  0  0  0  0  1  0  0  0  0  0  0
  195.8290  173.4650  145.9810 O   0  0  0  0  0  0  0  0  0  0  0  0
  196.6310  173.6320  143.8090 N   0  0  0  0  0  2  0  0  0  0  0  0
  195.6630  173.9310  144.8220 C   0  0  0  0  0  0  0  0  0  0  0  0
  196.6250  173.0340  140.1220 C   0  0  0  0  0  2  0  0  0  0  0  0
  197.0510  174.1450  139.3840 O   0  0  0  0  0  0  0  0  0  0  0  0
  196.2290  175.2060  139.7800 C   0  0  0  0  0  2  0  0  0  0  0  0
  196.5400  174.0320  142.4050 C   0  0  1  0  0  3  0  0  0  0  0  0
  196.9760  176.0590  140.8000 C   0  0  0  0  0  2  0  0  0  0  0  0
  196.9990  175.4840  142.2310 C   0  0  0  0  0  2  0  0  0  0  0  0
  197.2660  173.0360  141.5060 C   0  0  0  0  0  2  0  0  0  0  0  0
  186.8160  176.5490  141.8370 N   0  0  0  0  0  2  0  0  0  0  0  0
  184.9380  178.0830  140.7990 S   0  0  0  0  0  0  0  0  0  0  0  0
  186.0880  177.7810  141.9140 C   0  0  0  0  0  0  0  0  0  0  0  0
  186.3670  178.7780  142.9000 N   0  0  0  0  0  2  0  0  0  0  0  0
  185.3980  179.2550  143.7920 N   0  0  0  0  0  2  0  0  0  0  0  0
  184.8310  178.0920  144.4640 C   0  0  0  0  0  2  0  0  0  0  0  0
  185.0310  178.1460  145.9790 C   0  0  1  0  0  0  0  0  0  0  0  0
  184.0620  179.0010  146.5120 O   0  0  0  0  0  1  0  0  0  0  0  0
  184.8420  176.7540  146.5690 C   0  0  0  0  0  1  0  0  0  0  0  0
  186.3740  178.6630  146.2770 N   0  0  0  0  0  2  0  0  0  0  0  0
  187.2270  177.6110  146.8250 C   0  0  0  0  0  2  0  0  0  0  0  0
  190.4470  175.7710  147.1830 C   0  0  1  0  0  3  0  0  0  0  0  0
  189.2420  173.7420  146.8950 F   0  0  0  0  0  0  0  0  0  0  0  0
  188.2550  177.1670  145.7890 C   0  0  2  0  0  3  0  0  0  0  0  0
  191.0490  175.3060  148.3350 F   0  0  0  0  0  0  0  0  0  0  0  0
  189.0820  175.1100  147.0150 C   0  0  2  0  0  3  0  0  0  0  0  0
  188.3830  175.6430  145.7650 C   0  0  0  0  0  2  0  0  0  0  0  0
  190.2970  177.2860  147.2740 C   0  0  0  0  0  2  0  0  0  0  0  0
  189.6180  177.8270  146.0170 C   0  0  0  0  0  2  0  0  0  0  0  0
  2 27  1  1  0  0  0
  2  9  1  0  0  0  0
  3  1  1  6  0  0  0
  3  7  1  0  0  0  0
  3 10  1  0  0  0  0
  4  6  1  0  0  0  0
  4  2  1  0  0  0  0
  5  9  1  0  0  0  0
  5  3  1  0  0  0  0
  6  8  1  6  0  0  0
  6  7  1  0  0  0  0
 10 11  1  0  0  0  0
 11 12  1  0  0  0  0
 13 19  1  0  0  0  0
 13 12  1  1  0  0  0
 13 15  1  0  0  0  0
 14 15  2  0  0  0  0
 15 16  1  0  0  0  0
 18 19  1  0  0  0  0
 19 17  2  0  0  0  0
 20 26  1  0  0  0  0
 21 22  1  0  0  0  0
 21 20  1  0  0  0  0
 22 24  1  0  0  0  0
 23 18  1  1  0  0  0
 24 25  1  0  0  0  0
 25 23  1  0  0  0  0
 26 23  1  0  0  0  0
 27 29  1  0  0  0  0
 28 29  2  0  0  0  0
 29 30  1  0  0  0  0
 30 31  1  0  0  0  0
 31 32  1  0  0  0  0
 32 33  1  0  0  0  0
 33 36  1  0  0  0  0
 33 34  1  0  0  0  0
 33 35  1  1  0  0  0
 36 37  1  0  0  0  0
 38 44  1  0  0  0  0
 38 41  1  1  0  0  0
 40 45  1  0  0  0  0
 40 37  1  1  0  0  0
 42 39  1  6  0  0  0
 42 38  1  0  0  0  0
 43 40  1  0  0  0  0
 43 42  1  0  0  0  0
 45 44  1  0  0  0  0
M  END
>  <MODEL>
6

>  <REMARK>
 VINA RESULT:      -6.5      2.838      4.677
  Name = 
  16 active torsions:
  status: ('A' for Active; 'I' for Inactive)
    1  A    between atoms: N_2  and  C_4
    2  A    between atoms: N_2  and  C_22
    3  A    between atoms: C_5  and  C_16
    4  A    between atoms: C_10  and  C_19
    5  A    between atoms: C_10  and  N_44
    6  A    between atoms: C_13  and  N_36
    7  A    between atoms: C_16  and  C_41
    8  A    between atoms: C_22  and  N_31
    9  A    between atoms: C_26  and  C_27
   10  A    between atoms: C_26  and  C_41
   11  A    between atoms: C_27  and  C_37
   12  A    between atoms: C_27  and  C_38
   13  A    between atoms: C_28  and  C_32
   14  A    between atoms: C_28  and  N_44
   15  A    between atoms: N_30  and  N_31
   16  A    between atoms: N_30  and  C_32
                            x       y       z     vdW  Elec       q    Type
                         _______ _______ _______ _____ _____    ______ ____

>  <TORSDO>
F 16

$$$$
=
 OpenBabel11062420443D

 45 47  0  0  1  0  0  0  0  0999 V2000
  189.4490  177.7990  146.4170 O   0  0  0  0  0  1  0  0  0  0  0  0
  192.4920  175.0490  146.0900 C   0  0  2  0  0  3  0  0  0  0  0  0
  190.1350  177.2490  145.3300 C   0  0  1  0  0  0  0  0  0  0  0  0
  191.2770  175.0320  147.0370 C   0  0  0  0  0  2  0  0  0  0  0  0
  191.6570  177.4100  145.5630 C   0  0  0  0  0  2  0  0  0  0  0  0
  189.9280  174.8530  146.3370 C   0  0  2  0  0  3  0  0  0  0  0  0
  189.6950  175.7850  145.1430 C   0  0  0  0  0  2  0  0  0  0  0  0
  188.8970  175.0010  147.2620 O   0  0  0  0  0  1  0  0  0  0  0  0
  192.4920  176.2140  145.0890 C   0  0  0  0  0  2  0  0  0  0  0  0
  189.7210  177.9850  144.0570 C   0  0  0  0  0  2  0  0  0  0  0  0
  189.4980  177.0600  142.8640 C   0  0  0  0  0  2  0  0  0  0  0  0
  188.6080  177.7180  141.8150 C   0  0  0  0  0  2  0  0  0  0  0  0
  187.1310  177.5240  142.1400 C   0  0  1  0  0  3  0  0  0  0  0  0
  186.6910  177.5320  139.7790 O   0  0  0  0  0  0  0  0  0  0  0  0
  186.2910  177.8260  140.9400 C   0  0  0  0  0  0  0  0  0  0  0  0
  185.0680  178.4630  141.1070 O   0  0  0  0  0  1  0  0  0  0  0  0
  187.0860  175.1360  141.9800 O   0  0  0  0  0  0  0  0  0  0  0  0
  186.2760  175.9710  143.9890 N   0  0  0  0  0  2  0  0  0  0  0  0
  186.8410  176.1520  142.6840 C   0  0  0  0  0  0  0  0  0  0  0  0
  186.2810  177.5400  147.3780 C   0  0  0  0  0  2  0  0  0  0  0  0
  185.2510  178.4730  147.5540 O   0  0  0  0  0  0  0  0  0  0  0  0
  185.3890  179.3960  146.5100 C   0  0  0  0  0  2  0  0  0  0  0  0
  186.0070  177.0400  144.9510 C   0  0  1  0  0  3  0  0  0  0  0  0
  184.3900  179.0520  145.4090 C   0  0  0  0  0  2  0  0  0  0  0  0
  184.8140  177.8860  144.4940 C   0  0  0  0  0  2  0  0  0  0  0  0
  185.8690  176.4790  146.3630 C   0  0  0  0  0  2  0  0  0  0  0  0
  192.6100  173.7890  145.3660 N   0  0  0  0  0  2  0  0  0  0  0  0
  193.7550  171.5300  144.6290 S   0  0  0  0  0  0  0  0  0  0  0  0
  193.8320  173.0740  145.1450 C   0  0  0  0  0  0  0  0  0  0  0  0
  195.1150  173.6460  145.4100 N   0  0  0  0  0  2  0  0  0  0  0  0
  196.0860  173.8240  144.4170 N   0  0  0  0  0  2  0  0  0  0  0  0
  195.7790  175.0790  143.7430 C   0  0  0  0  0  2  0  0  0  0  0  0
  195.4490  174.8740  142.2640 C   0  0  1  0  0  0  0  0  0  0  0  0
  196.1350  175.8460  141.5300 O   0  0  0  0  0  1  0  0  0  0  0  0
  195.9190  173.4940  141.8210 C   0  0  0  0  0  1  0  0  0  0  0  0
  194.0000  175.0230  142.0600 N   0  0  0  0  0  2  0  0  0  0  0  0
  193.4260  173.8070  141.4900 C   0  0  0  0  0  2  0  0  0  0  0  0
  190.2900  171.7960  141.4750 C   0  0  1  0  0  3  0  0  0  0  0  0
  189.6760  172.8620  143.5090 F   0  0  0  0  0  0  0  0  0  0  0  0
  192.0480  174.0940  140.9040 C   0  0  2  0  0  3  0  0  0  0  0  0
  190.0690  170.5410  142.0100 F   0  0  0  0  0  0  0  0  0  0  0  0
  190.6980  172.7610  142.5840 C   0  0  2  0  0  3  0  0  0  0  0  0
  190.9860  174.1460  142.0050 C   0  0  0  0  0  2  0  0  0  0  0  0
  191.3880  171.7020  140.4200 C   0  0  0  0  0  2  0  0  0  0  0  0
  191.6640  173.0800  139.8210 C   0  0  0  0  0  2  0  0  0  0  0  0
  2 27  1  6  0  0  0
  2  4  1  0  0  0  0
  3  5  1  0  0  0  0
  3  1  1  1  0  0  0
  6  4  1  0  0  0  0
  6  8  1  1  0  0  0
  7  3  1  0  0  0  0
  7  6  1  0  0  0  0
  9  5  1  0  0  0  0
  9  2  1  0  0  0  0
 10  3  1  0  0  0  0
 11 10  1  0  0  0  0
 12 11  1  0  0  0  0
 13 12  1  6  0  0  0
 13 19  1  0  0  0  0
 14 15  2  0  0  0  0
 15 16  1  0  0  0  0
 15 13  1  0  0  0  0
 17 19  2  0  0  0  0
 19 18  1  0  0  0  0
 20 21  1  0  0  0  0
 22 21  1  0  0  0  0
 23 18  1  6  0  0  0
 23 26  1  0  0  0  0
 24 22  1  0  0  0  0
 25 23  1  0  0  0  0
 25 24  1  0  0  0  0
 26 20  1  0  0  0  0
 28 29  2  0  0  0  0
 29 27  1  0  0  0  0
 29 30  1  0  0  0  0
 31 30  1  0  0  0  0
 32 31  1  0  0  0  0
 33 35  1  6  0  0  0
 33 32  1  0  0  0  0
 34 33  1  0  0  0  0
 36 33  1  0  0  0  0
 37 36  1  0  0  0  0
 38 41  1  1  0  0  0
 38 42  1  0  0  0  0
 40 37  1  1  0  0  0
 40 43  1  0  0  0  0
 42 39  1  1  0  0  0
 43 42  1  0  0  0  0
 44 38  1  0  0  0  0
 45 44  1  0  0  0  0
 45 40  1  0  0  0  0
M  END
>  <MODEL>
7

>  <REMARK>
 VINA RESULT:      -6.5      2.871      8.534
  Name = 
  16 active torsions:
  status: ('A' for Active; 'I' for Inactive)
    1  A    between atoms: N_2  and  C_4
    2  A    between atoms: N_2  and  C_22
    3  A    between atoms: C_5  and  C_16
    4  A    between atoms: C_10  and  C_19
    5  A    between atoms: C_10  and  N_44
    6  A    between atoms: C_13  and  N_36
    7  A    between atoms: C_16  and  C_41
    8  A    between atoms: C_22  and  N_31
    9  A    between atoms: C_26  and  C_27
   10  A    between atoms: C_26  and  C_41
   11  A    between atoms: C_27  and  C_37
   12  A    between atoms: C_27  and  C_38
   13  A    between atoms: C_28  and  C_32
   14  A    between atoms: C_28  and  N_44
   15  A    between atoms: N_30  and  N_31
   16  A    between atoms: N_30  and  C_32
                            x       y       z     vdW  Elec       q    Type
                         _______ _______ _______ _____ _____    ______ ____

>  <TORSDO>
F 16

$$$$
=
 OpenBabel11062420443D

 45 47  0  0  1  0  0  0  0  0999 V2000
  188.4530  172.6680  140.4370 O   0  0  0  0  0  1  0  0  0  0  0  0
  192.3630  171.5910  141.1280 C   0  0  2  0  0  3  0  0  0  0  0  0
  189.3900  173.0230  141.4120 C   0  0  1  0  0  0  0  0  0  0  0  0
  191.6690  171.8880  139.7840 C   0  0  0  0  0  2  0  0  0  0  0  0
  189.9760  171.7340  142.0380 C   0  0  0  0  0  2  0  0  0  0  0  0
  191.2380  173.3450  139.6010 C   0  0  2  0  0  3  0  0  0  0  0  0
  190.4560  173.9360  140.7800 C   0  0  0  0  0  2  0  0  0  0  0  0
  190.4960  173.4700  138.4290 O   0  0  0  0  0  1  0  0  0  0  0  0
  191.4730  171.8190  142.3580 C   0  0  0  0  0  2  0  0  0  0  0  0
  188.6970  173.8570  142.4880 C   0  0  0  0  0  2  0  0  0  0  0  0
  189.6640  174.6550  143.3580 C   0  0  0  0  0  2  0  0  0  0  0  0
  189.3130  174.5250  144.8350 C   0  0  0  0  0  2  0  0  0  0  0  0
  188.6090  175.7760  145.3510 C   0  0  1  0  0  3  0  0  0  0  0  0
  189.0630  174.8810  147.5320 O   0  0  0  0  0  1  0  0  0  0  0  0
  188.3800  175.6730  146.8250 C   0  0  0  0  0  0  0  0  0  0  0  0
  187.3850  176.4420  147.4150 O   0  0  0  0  0  0  0  0  0  0  0  0
  190.4900  177.2500  145.4870 O   0  0  0  0  0  0  0  0  0  0  0  0
  188.7820  178.0120  144.1120 N   0  0  0  0  0  2  0  0  0  0  0  0
  189.3510  177.0360  144.9940 C   0  0  0  0  0  0  0  0  0  0  0  0
  186.6320  177.5500  141.0930 C   0  0  0  0  0  2  0  0  0  0  0  0
  185.3600  178.1190  141.2310 O   0  0  0  0  0  0  0  0  0  0  0  0
  184.8160  177.5640  142.3950 C   0  0  0  0  0  2  0  0  0  0  0  0
  187.5090  177.8740  143.4040 C   0  0  1  0  0  3  0  0  0  0  0  0
  184.9810  178.5560  143.5420 C   0  0  0  0  0  2  0  0  0  0  0  0
  186.3910  178.5950  144.1660 C   0  0  0  0  0  2  0  0  0  0  0  0
  187.6480  178.3030  141.9460 C   0  0  0  0  0  2  0  0  0  0  0  0
  193.5910  172.3650  141.2670 N   0  0  0  0  0  2  0  0  0  0  0  0
  196.1450  172.8360  141.7230 S   0  0  0  0  0  0  0  0  0  0  0  0
  194.8560  171.8410  141.6900 C   0  0  0  0  0  0  0  0  0  0  0  0
  195.0400  170.4650  142.0330 N   0  0  0  0  0  2  0  0  0  0  0  0
  195.8160  170.0540  143.1240 N   0  0  0  0  0  2  0  0  0  0  0  0
  194.8900  169.6680  144.1820 C   0  0  0  0  0  2  0  0  0  0  0  0
  194.8710  170.6780  145.3300 C   0  0  1  0  0  0  0  0  0  0  0  0
  194.7020  169.9710  146.5230 O   0  0  0  0  0  1  0  0  0  0  0  0
  196.2000  171.4220  145.3790 C   0  0  0  0  0  1  0  0  0  0  0  0
  193.7550  171.6150  145.1400 N   0  0  0  0  0  2  0  0  0  0  0  0
  194.1430  172.9720  145.5170 C   0  0  0  0  0  2  0  0  0  0  0  0
  194.1320  176.6850  145.2120 C   0  0  1  0  0  3  0  0  0  0  0  0
  194.6020  176.4280  142.8960 F   0  0  0  0  0  0  0  0  0  0  0  0
  193.0200  173.9540  145.1980 C   0  0  2  0  0  3  0  0  0  0  0  0
  195.1840  177.5660  145.3760 F   0  0  0  0  0  0  0  0  0  0  0  0
  194.4450  175.7200  144.0720 C   0  0  2  0  0  3  0  0  0  0  0  0
  193.3090  174.7120  143.9010 C   0  0  0  0  0  2  0  0  0  0  0  0
  193.9130  175.9190  146.5130 C   0  0  0  0  0  2  0  0  0  0  0  0
  192.7640  174.9250  146.3550 C   0  0  0  0  0  2  0  0  0  0  0  0
  2 27  1  1  0  0  0
  2  9  1  0  0  0  0
  3  1  1  6  0  0  0
  3  5  1  0  0  0  0
  3 10  1  0  0  0  0
  4  2  1  0  0  0  0
  5  9  1  0  0  0  0
  6  8  1  6  0  0  0
  6  4  1  0  0  0  0
  6  7  1  0  0  0  0
  7  3  1  0  0  0  0
 10 11  1  0  0  0  0
 11 12  1  0  0  0  0
 13 12  1  1  0  0  0
 13 15  1  0  0  0  0
 15 16  2  0  0  0  0
 15 14  1  0  0  0  0
 18 19  1  0  0  0  0
 19 13  1  0  0  0  0
 19 17  2  0  0  0  0
 20 21  1  0  0  0  0
 20 26  1  0  0  0  0
 21 22  1  0  0  0  0
 22 24  1  0  0  0  0
 23 18  1  1  0  0  0
 23 25  1  0  0  0  0
 24 25  1  0  0  0  0
 26 23  1  0  0  0  0
 27 29  1  0  0  0  0
 29 28  2  0  0  0  0
 29 30  1  0  0  0  0
 30 31  1  0  0  0  0
 31 32  1  0  0  0  0
 32 33  1  0  0  0  0
 33 35  1  1  0  0  0
 33 34  1  0  0  0  0
 36 33  1  0  0  0  0
 36 37  1  0  0  0  0
 38 41  1  1  0  0  0
 38 44  1  0  0  0  0
 40 37  1  1  0  0  0
 40 45  1  0  0  0  0
 42 39  1  6  0  0  0
 42 38  1  0  0  0  0
 43 42  1  0  0  0  0
 43 40  1  0  0  0  0
 45 44  1  0  0  0  0
M  END
>  <MODEL>
8

>  <REMARK>
 VINA RESULT:      -6.5      3.466      8.424
  Name = 
  16 active torsions:
  status: ('A' for Active; 'I' for Inactive)
    1  A    between atoms: N_2  and  C_4
    2  A    between atoms: N_2  and  C_22
    3  A    between atoms: C_5  and  C_16
    4  A    between atoms: C_10  and  C_19
    5  A    between atoms: C_10  and  N_44
    6  A    between atoms: C_13  and  N_36
    7  A    between atoms: C_16  and  C_41
    8  A    between atoms: C_22  and  N_31
    9  A    between atoms: C_26  and  C_27
   10  A    between atoms: C_26  and  C_41
   11  A    between atoms: C_27  and  C_37
   12  A    between atoms: C_27  and  C_38
   13  A    between atoms: C_28  and  C_32
   14  A    between atoms: C_28  and  N_44
   15  A    between atoms: N_30  and  N_31
   16  A    between atoms: N_30  and  C_32
                            x       y       z     vdW  Elec       q    Type
                         _______ _______ _______ _____ _____    ______ ____

>  <TORSDO>
F 16

$$$$
=
 OpenBabel11062420443D

 45 47  0  0  1  0  0  0  0  0999 V2000
  190.7500  171.0860  140.7020 O   0  0  0  0  0  1  0  0  0  0  0  0
  187.9590  173.9990  141.5160 C   0  0  2  0  0  3  0  0  0  0  0  0
  190.7560  172.4800  140.5970 C   0  0  1  0  0  0  0  0  0  0  0  0
  188.2880  172.7270  142.3230 C   0  0  0  0  0  2  0  0  0  0  0  0
  189.5150  172.9290  139.7880 C   0  0  0  0  0  2  0  0  0  0  0  0
  189.6800  172.7210  142.9600 C   0  0  2  0  0  3  0  0  0  0  0  0
  190.8230  173.0930  142.0080 C   0  0  0  0  0  2  0  0  0  0  0  0
  189.9260  171.4770  143.5340 O   0  0  0  0  0  1  0  0  0  0  0  0
  188.8690  174.2230  140.3000 C   0  0  0  0  0  2  0  0  0  0  0  0
  192.0320  172.9190  139.8810 C   0  0  0  0  0  2  0  0  0  0  0  0
  192.9120  173.8460  140.7150 C   0  0  0  0  0  2  0  0  0  0  0  0
  194.2100  174.1770  139.9890 C   0  0  0  0  0  2  0  0  0  0  0  0
  195.3170  174.5470  140.9720 C   0  0  1  0  0  3  0  0  0  0  0  0
  196.6300  174.7950  138.9770 O   0  0  0  0  0  0  0  0  0  0  0  0
  196.5850  174.8450  140.2370 C   0  0  0  0  0  0  0  0  0  0  0  0
  197.7320  175.1540  140.9560 O   0  0  0  0  0  1  0  0  0  0  0  0
  194.5810  176.7880  141.3740 O   0  0  0  0  0  0  0  0  0  0  0  0
  194.9390  175.5440  143.3000 N   0  0  0  0  0  2  0  0  0  0  0  0
  194.9220  175.6840  141.8740 C   0  0  0  0  0  0  0  0  0  0  0  0
  194.2160  172.0910  144.5260 C   0  0  0  0  0  2  0  0  0  0  0  0
  194.8640  171.7880  145.7300 O   0  0  0  0  0  0  0  0  0  0  0  0
  196.2240  172.0280  145.5040 C   0  0  0  0  0  2  0  0  0  0  0  0
  195.2360  174.3110  144.0280 C   0  0  1  0  0  3  0  0  0  0  0  0
  196.5900  173.3940  146.0770 C   0  0  0  0  0  2  0  0  0  0  0  0
  196.1860  174.5940  145.1970 C   0  0  0  0  0  2  0  0  0  0  0  0
  193.9520  173.5900  144.4270 C   0  0  0  0  0  2  0  0  0  0  0  0
  187.9870  175.1820  142.3670 N   0  0  0  0  0  2  0  0  0  0  0  0
  187.4840  177.5330  141.2850 S   0  0  0  0  0  0  0  0  0  0  0  0
  187.0890  176.2940  142.2660 C   0  0  0  0  0  0  0  0  0  0  0  0
  185.8860  176.3820  143.0340 N   0  0  0  0  0  2  0  0  0  0  0  0
  185.6430  177.4150  143.9470 N   0  0  0  0  0  2  0  0  0  0  0  0
  185.5710  176.8060  145.2690 C   0  0  0  0  0  2  0  0  0  0  0  0
  186.6350  177.3580  146.2180 C   0  0  1  0  0  0  0  0  0  0  0  0
  187.1320  178.5420  145.6690 O   0  0  0  0  0  1  0  0  0  0  0  0
  186.0040  177.6650  147.5710 C   0  0  0  0  0  1  0  0  0  0  0  0
  187.7210  176.3770  146.3590 N   0  0  0  0  0  2  0  0  0  0  0  0
  188.8860  176.7720  145.5700 C   0  0  0  0  0  2  0  0  0  0  0  0
  192.4030  176.0210  146.5430 C   0  0  1  0  0  3  0  0  0  0  0  0
  191.5660  174.9850  148.5120 F   0  0  0  0  0  0  0  0  0  0  0  0
  189.7730  175.5630  145.2910 C   0  0  2  0  0  3  0  0  0  0  0  0
  193.2810  176.8020  147.2700 F   0  0  0  0  0  0  0  0  0  0  0  0
  191.1780  175.6990  147.3940 C   0  0  2  0  0  3  0  0  0  0  0  0
  190.1770  174.8680  146.5930 C   0  0  0  0  0  2  0  0  0  0  0  0
  191.9920  176.7740  145.2820 C   0  0  0  0  0  2  0  0  0  0  0  0
  191.0070  175.9390  144.4650 C   0  0  0  0  0  2  0  0  0  0  0  0
  2  4  1  0  0  0  0
  2 27  1  1  0  0  0
  3  1  1  1  0  0  0
  3  7  1  0  0  0  0
  4  6  1  0  0  0  0
  5  9  1  0  0  0  0
  5  3  1  0  0  0  0
  6  8  1  6  0  0  0
  7  6  1  0  0  0  0
  9  2  1  0  0  0  0
 10  3  1  0  0  0  0
 10 11  1  0  0  0  0
 12 11  1  0  0  0  0
 13 12  1  6  0  0  0
 13 19  1  0  0  0  0
 14 15  2  0  0  0  0
 15 16  1  0  0  0  0
 15 13  1  0  0  0  0
 17 19  2  0  0  0  0
 19 18  1  0  0  0  0
 20 21  1  0  0  0  0
 22 21  1  0  0  0  0
 22 24  1  0  0  0  0
 23 18  1  1  0  0  0
 23 26  1  0  0  0  0
 23 25  1  0  0  0  0
 25 24  1  0  0  0  0
 26 20  1  0  0  0  0
 28 29  2  0  0  0  0
 29 27  1  0  0  0  0
 29 30  1  0  0  0  0
 30 31  1  0  0  0  0
 31 32  1  0  0  0  0
 32 33  1  0  0  0  0
 33 36  1  0  0  0  0
 33 35  1  1  0  0  0
 34 33  1  0  0  0  0
 37 36  1  0  0  0  0
 38 41  1  1  0  0  0
 38 42  1  0  0  0  0
 40 37  1  1  0  0  0
 40 43  1  0  0  0  0
 42 39  1  1  0  0  0
 43 42  1  0  0  0  0
 44 38  1  0  0  0  0
 45 44  1  0  0  0  0
 45 40  1  0  0  0  0
M  END
>  <MODEL>
9

>  <REMARK>
 VINA RESULT:      -6.3      2.659      5.658
  Name = 
  16 active torsions:
  status: ('A' for Active; 'I' for Inactive)
    1  A    between atoms: N_2  and  C_4
    2  A    between atoms: N_2  and  C_22
    3  A    between atoms: C_5  and  C_16
    4  A    between atoms: C_10  and  C_19
    5  A    between atoms: C_10  and  N_44
    6  A    between atoms: C_13  and  N_36
    7  A    between atoms: C_16  and  C_41
    8  A    between atoms: C_22  and  N_31
    9  A    between atoms: C_26  and  C_27
   10  A    between atoms: C_26  and  C_41
   11  A    between atoms: C_27  and  C_37
   12  A    between atoms: C_27  and  C_38
   13  A    between atoms: C_28  and  C_32
   14  A    between atoms: C_28  and  N_44
   15  A    between atoms: N_30  and  N_31
   16  A    between atoms: N_30  and  C_32
                            x       y       z     vdW  Elec       q    Type
                         _______ _______ _______ _____ _____    ______ ____

>  <TORSDO>
F 16

$$$$
