=
 OpenBabel11072409343D

 63 69  0  0  1  0  0  0  0  0999 V2000
  186.3120  175.6090  142.7620 O   0  0  0  0  0  0  0  0  0  0  0  0
  189.3280  173.9700  142.5270 C   0  0  2  0  0  3  0  0  0  0  0  0
  189.3010  176.6050  144.5460 C   0  0  0  0  0  2  0  0  0  0  0  0
  188.6600  175.3620  142.5510 C   0  0  1  0  0  3  0  0  0  0  0  0
  186.9630  176.2850  143.8030 C   0  0  1  0  0  3  0  0  0  0  0  0
  187.3220  175.3380  141.8260 C   0  0  0  0  0  2  0  0  0  0  0  0
  190.7410  173.9900  143.1450 C   0  0  1  0  0  3  0  0  0  0  0  0
  190.7240  176.0340  144.5560 C   0  0  2  0  0  3  0  0  0  0  0  0
  190.7580  174.5090  144.5740 C   0  0  0  0  0  2  0  0  0  0  0  0
  188.3170  175.7190  143.9160 N   0  0  2  0  0  0  0  0  0  0  0  0
  188.5830  172.4480  140.6590 N   0  0  0  0  0  0  0  0  0  0  0  0
  188.9180  172.2590  139.3960 N   0  0  0  0  0  0  0  0  0  0  0  0
  190.2490  173.8760  140.1950 N   0  0  0  0  0  2  0  0  0  0  0  0
  189.9190  173.1220  139.1280 C   0  0  0  0  0  0  0  0  0  0  0  0
  189.3870  173.4220  141.1260 C   0  0  0  0  0  0  0  0  0  0  0  0
  190.2090  172.3910  136.8030 N   0  0  0  0  0  0  0  0  0  0  0  0
  191.7950  173.4010  135.3260 C   0  0  0  0  0  3  0  0  0  0  0  0
  190.5750  173.2260  137.8170 C   0  0  0  0  0  0  0  0  0  0  0  0
  192.1870  174.2680  136.3500 C   0  0  0  0  0  3  0  0  0  0  0  0
  191.5760  174.1840  137.6030 C   0  0  0  0  0  3  0  0  0  0  0  0
  190.7900  172.4590  135.5740 C   0  0  0  0  0  3  0  0  0  0  0  0
  186.8240  177.8120  143.5390 C   0  0  2  0  0  3  0  0  0  0  0  0
  186.9990  178.6420  144.6480 O   0  0  0  0  0  1  0  0  0  0  0  0
  185.5430  178.3120  141.3670 C   0  0  0  0  0  0  0  0  0  0  0  0
  186.5790  178.2990  140.6570 O   0  0  0  0  0  0  0  0  0  0  0  0
  184.3080  178.5330  140.7740 O   0  0  0  0  0  1  0  0  0  0  0  0
  185.6230  178.1670  142.7880 N   0  0  0  0  0  2  0  0  0  0  0  0
  191.5640  176.6590  145.6760 C   0  0  1  0  0  3  0  0  0  0  0  0
  191.7310  175.7250  146.8730 C   0  0  0  0  0  3  0  0  0  0  0  0
  190.4270  175.6480  147.6400 C   0  0  0  0  0  2  0  0  0  0  0  0
  191.5580  176.5000  148.1660 C   0  0  0  0  0  2  0  0  0  0  0  0
  192.9230  177.0900  145.1410 C   0  0  0  0  0  2  0  0  0  0  0  0
  192.9140  177.0610  143.7450 O   0  0  0  0  0  1  0  0  0  0  0  0
  191.3880  172.6160  143.1250 C   0  0  0  0  0  2  0  0  0  0  0  0
  192.6490  172.6920  142.2830 C   0  0  0  0  0  2  0  0  0  0  0  0
  193.4700  173.9300  142.6210 C   0  0  2  0  0  3  0  0  0  0  0  0
  193.8640  174.6330  141.3270 C   0  0  0  0  0  1  0  0  0  0  0  0
  194.5570  173.6900  144.8930 C   0  0  0  0  0  0  0  0  0  0  0  0
  193.8200  173.2150  145.7420 O   0  0  0  0  0  0  0  0  0  0  0  0
  194.7320  173.5210  143.3870 C   0  0  2  0  0  3  0  0  0  0  0  0
  195.8450  174.4970  143.1710 C   0  0  1  0  0  3  0  0  0  0  0  0
  195.9400  174.8830  144.8990 S   0  0  0  0  0  0  0  0  0  0  0  0
  197.0900  173.7980  142.6910 C   0  0  0  0  0  0  0  0  0  0  0  0
  197.8100  173.2050  143.4790 O   0  0  0  0  0  0  0  0  0  0  0  0
  197.4850  173.8380  141.2450 C   0  0  2  0  0  3  0  0  0  0  0  0
  197.4230  175.1420  140.7500 O   0  0  0  0  0  1  0  0  0  0  0  0
  196.7090  172.8370  140.3700 C   0  0  2  0  0  3  0  0  0  0  0  0
  197.1910  170.5800  139.6290 O   0  0  0  0  0  1  0  0  0  0  0  0
  196.9970  171.3740  140.7650 C   0  0  2  0  0  3  0  0  0  0  0  0
  196.4330  169.8790  142.7500 C   0  0  0  0  0  2  0  0  0  0  0  0
  194.3830  168.6930  141.2450 C   0  0  0  0  0  2  0  0  0  0  0  0
  195.8820  170.7580  141.6150 C   0  0  2  0  0  3  0  0  0  0  0  0
  194.8080  170.0770  140.7440 C   0  0  0  0  0  2  0  0  0  0  0  0
  193.5420  168.7360  142.5250 C   0  0  0  0  0  2  0  0  0  0  0  0
  193.9760  169.8010  143.5370 C   0  0  1  0  0  3  0  0  0  0  0  0
  193.1880  169.7040  144.6820 O   0  0  0  0  0  1  0  0  0  0  0  0
  195.4570  169.7300  143.9250 C   0  0  0  0  0  2  0  0  0  0  0  0
  196.8240  173.1240  138.8640 C   0  0  0  0  0  2  0  0  0  0  0  0
  195.4840  173.4640  138.2190 C   0  0  0  0  0  2  0  0  0  0  0  0
  195.4640  174.9220  137.7980 C   0  0  0  0  0  2  0  0  0  0  0  0
  196.3960  175.1400  136.6550 C   0  0  0  0  0  0  0  0  0  0  0  0
  196.2160  174.4410  135.4690 O   0  0  0  0  0  0  0  0  0  0  0  0
  197.3240  175.9860  136.7520 O   0  0  0  0  0  1  0  0  0  0  0  0
  1  5  1  0  0  0  0
  2 15  1  6  0  0  0
  2  4  1  0  0  0  0
  2  7  1  0  0  0  0
  3  8  1  0  0  0  0
  4  6  1  6  0  0  0
  4 10  1  0  0  0  0
  5 22  1  6  0  0  0
  5 10  1  0  0  0  0
  6  1  1  0  0  0  0
  7 34  1  1  0  0  0
  7  9  1  0  0  0  0
  8  9  1  0  0  0  0
  8 28  1  1  0  0  0
 10  3  1  6  0  0  0
 11 15  2  0  0  0  0
 12 11  1  0  0  0  0
 13 15  1  0  0  0  0
 14 12  2  0  0  0  0
 14 13  1  0  0  0  0
 16 18  1  0  0  0  0
 17 21  1  0  0  0  0
 17 19  2  0  0  0  0
 18 14  1  0  0  0  0
 19 20  1  0  0  0  0
 20 18  2  0  0  0  0
 21 16  2  0  0  0  0
 22 23  1  1  0  0  0
 24 27  1  0  0  0  0
 25 24  2  0  0  0  0
 26 24  1  0  0  0  0
 27 22  1  0  0  0  0
 28 32  1  6  0  0  0
 28 29  1  0  0  0  0
 29 30  1  0  0  0  0
 29 31  1  0  0  0  0
 30 31  1  0  0  0  0
 33 32  1  0  0  0  0
 35 36  1  0  0  0  0
 35 34  1  0  0  0  0
 36 37  1  6  0  0  0
 38 42  1  0  0  0  0
 38 39  2  0  0  0  0
 40 36  1  6  0  0  0
 40 38  1  0  0  0  0
 41 43  1  1  0  0  0
 41 40  1  0  0  0  0
 41 42  1  0  0  0  0
 43 44  2  0  0  0  0
 45 46  1  6  0  0  0
 45 43  1  0  0  0  0
 47 58  1  6  0  0  0
 47 49  1  0  0  0  0
 47 45  1  0  0  0  0
 49 48  1  6  0  0  0
 50 57  1  0  0  0  0
 51 54  1  0  0  0  0
 52 49  1  6  0  0  0
 52 50  1  0  0  0  0
 53 51  1  0  0  0  0
 53 52  1  0  0  0  0
 54 55  1  0  0  0  0
 55 57  1  0  0  0  0
 55 56  1  1  0  0  0
 59 58  1  0  0  0  0
 60 59  1  0  0  0  0
 61 63  1  0  0  0  0
 61 60  1  0  0  0  0
 62 61  2  0  0  0  0
M  END
>  <MODEL>
1

>  <REMARK>
 VINA RESULT:      -5.5      0.000      0.000
  Name = 
  20 active torsions:
  status: ('A' for Active; 'I' for Inactive)
    1  A    between atoms: C_4  and  C_12
    2  A    between atoms: C_4  and  C_36
    3  A    between atoms: C_7  and  C_60
    4  A    between atoms: C_8  and  C_22
    5  A    between atoms: C_8  and  C_31
    6  A    between atoms: C_12  and  C_23
    7  A    between atoms: C_13  and  C_22
    8  A    between atoms: C_13  and  C_30
    9  A    between atoms: C_14  and  C_15
   10  A    between atoms: C_14  and  C_38
   11  A    between atoms: C_14  and  C_49
   12  A    between atoms: C_16  and  C_29
   13  A    between atoms: C_16  and  N_58
   14  A    between atoms: C_21  and  C_54
   15  A    between atoms: C_22  and  C_25
   16  A    between atoms: C_23  and  C_46
   17  A    between atoms: C_25  and  C_62
   18  A    between atoms: C_31  and  C_41
   19  A    between atoms: C_39  and  C_59
   20  A    between atoms: C_54  and  C_62
                            x       y       z     vdW  Elec       q    Type
                         _______ _______ _______ _____ _____    ______ ____

>  <TORSDO>
F 20

$$$$
=
 OpenBabel11072409343D

 63 69  0  0  1  0  0  0  0  0999 V2000
  190.3640  176.6230  146.9290 O   0  0  0  0  0  0  0  0  0  0  0  0
  190.7900  174.9450  143.9560 C   0  0  2  0  0  3  0  0  0  0  0  0
  188.0060  176.7400  144.1820 C   0  0  0  0  0  2  0  0  0  0  0  0
  189.7660  175.2980  145.0560 C   0  0  1  0  0  3  0  0  0  0  0  0
  189.3040  177.2220  146.2330 C   0  0  1  0  0  3  0  0  0  0  0  0
  190.4240  175.3130  146.4290 C   0  0  0  0  0  2  0  0  0  0  0  0
  190.1310  174.8000  142.5700 C   0  0  1  0  0  3  0  0  0  0  0  0
  188.0010  176.0550  142.8110 C   0  0  2  0  0  3  0  0  0  0  0  0
  189.3700  176.0460  142.1400 C   0  0  0  0  0  2  0  0  0  0  0  0
  189.2980  176.6600  144.8720 N   0  0  2  0  0  0  0  0  0  0  0  0
  191.0210  172.4480  144.2300 N   0  0  0  0  0  0  0  0  0  0  0  0
  191.9840  171.6170  144.5850 N   0  0  0  0  0  0  0  0  0  0  0  0
  192.8300  173.6890  144.7000 N   0  0  0  0  0  2  0  0  0  0  0  0
  193.0640  172.3720  144.8640 C   0  0  0  0  0  0  0  0  0  0  0  0
  191.5440  173.6880  144.3010 C   0  0  0  0  0  0  0  0  0  0  0  0
  194.4710  170.4850  145.5610 N   0  0  0  0  0  0  0  0  0  0  0  0
  196.7810  170.7410  146.1210 C   0  0  0  0  0  3  0  0  0  0  0  0
  194.3550  171.8190  145.2990 C   0  0  0  0  0  0  0  0  0  0  0  0
  196.6870  172.1100  145.8590 C   0  0  0  0  0  3  0  0  0  0  0  0
  195.4700  172.6560  145.4450 C   0  0  0  0  0  3  0  0  0  0  0  0
  195.6490  169.9340  145.9630 C   0  0  0  0  0  3  0  0  0  0  0  0
  188.0200  177.0670  147.0980 C   0  0  2  0  0  3  0  0  0  0  0  0
  187.4430  175.7970  147.1140 O   0  0  0  0  0  1  0  0  0  0  0  0
  185.6250  177.8800  146.6350 C   0  0  0  0  0  0  0  0  0  0  0  0
  185.1730  176.7180  146.4810 O   0  0  0  0  0  0  0  0  0  0  0  0
  184.7690  178.9670  146.5330 O   0  0  0  0  0  1  0  0  0  0  0  0
  187.0220  178.1050  146.8490 N   0  0  0  0  0  2  0  0  0  0  0  0
  186.9030  176.6310  141.9100 C   0  0  1  0  0  3  0  0  0  0  0  0
  186.2610  177.8850  142.4980 C   0  0  0  0  0  3  0  0  0  0  0  0
  184.8620  177.5580  142.9810 C   0  0  0  0  0  2  0  0  0  0  0  0
  185.0520  178.2880  141.6720 C   0  0  0  0  0  2  0  0  0  0  0  0
  187.4540  176.9160  140.5190 C   0  0  0  0  0  2  0  0  0  0  0  0
  187.3130  175.7850  139.7120 O   0  0  0  0  0  1  0  0  0  0  0  0
  191.1460  174.4610  141.4910 C   0  0  0  0  0  2  0  0  0  0  0  0
  190.4470  173.6510  140.4140 C   0  0  0  0  0  2  0  0  0  0  0  0
  191.0800  172.2740  140.2540 C   0  0  2  0  0  3  0  0  0  0  0  0
  192.4340  172.2670  140.9550 C   0  0  0  0  0  1  0  0  0  0  0  0
  190.4700  170.7350  138.3410 C   0  0  0  0  0  0  0  0  0  0  0  0
  189.2870  170.4360  138.3100 O   0  0  0  0  0  0  0  0  0  0  0  0
  191.2710  171.9610  138.7660 C   0  0  2  0  0  3  0  0  0  0  0  0
  192.6480  171.4490  138.4860 C   0  0  1  0  0  3  0  0  0  0  0  0
  192.0280  169.9080  137.8670 S   0  0  0  0  0  0  0  0  0  0  0  0
  193.3140  172.2540  137.4010 C   0  0  0  0  0  0  0  0  0  0  0  0
  193.4060  171.8080  136.2680 O   0  0  0  0  0  0  0  0  0  0  0  0
  193.8980  173.6030  137.6930 C   0  0  2  0  0  3  0  0  0  0  0  0
  193.9710  174.3740  136.5310 O   0  0  0  0  0  1  0  0  0  0  0  0
  195.2400  173.5400  138.4440 C   0  0  2  0  0  3  0  0  0  0  0  0
  197.2040  174.8820  137.9740 O   0  0  0  0  0  1  0  0  0  0  0  0
  195.9220  174.9210  138.5330 C   0  0  2  0  0  3  0  0  0  0  0  0
  197.2670  174.9020  140.6980 C   0  0  0  0  0  2  0  0  0  0  0  0
  194.8780  174.6860  142.1540 C   0  0  0  0  0  2  0  0  0  0  0  0
  196.0240  175.4410  139.9710 C   0  0  2  0  0  3  0  0  0  0  0  0
  194.7030  175.2540  140.7420 C   0  0  0  0  0  2  0  0  0  0  0  0
  195.4960  175.6800  143.1420 C   0  0  0  0  0  2  0  0  0  0  0  0
  196.5930  176.5700  142.5480 C   0  0  1  0  0  3  0  0  0  0  0  0
  197.1260  177.3810  143.5480 O   0  0  0  0  0  1  0  0  0  0  0  0
  197.7220  175.7960  141.8590 C   0  0  0  0  0  2  0  0  0  0  0  0
  196.1600  172.4070  137.9610 C   0  0  0  0  0  2  0  0  0  0  0  0
  196.7900  171.6220  139.1060 C   0  0  0  0  0  2  0  0  0  0  0  0
  195.8140  171.5190  140.2650 C   0  0  0  0  0  2  0  0  0  0  0  0
  196.2990  170.5180  141.2580 C   0  0  0  0  0  0  0  0  0  0  0  0
  196.8470  170.9420  142.4610 O   0  0  0  0  0  1  0  0  0  0  0  0
  196.1780  169.2870  141.0210 O   0  0  0  0  0  0  0  0  0  0  0  0
  2 15  1  1  0  0  0
  2  4  1  0  0  0  0
  4  6  1  1  0  0  0
  5  1  1  0  0  0  0
  5 22  1  1  0  0  0
  6  1  1  0  0  0  0
  7 34  1  6  0  0  0
  7  2  1  0  0  0  0
  8 28  1  6  0  0  0
  8  3  1  0  0  0  0
  9  7  1  0  0  0  0
  9  8  1  0  0  0  0
 10  3  1  1  0  0  0
 10  4  1  0  0  0  0
 10  5  1  0  0  0  0
 11 15  2  0  0  0  0
 11 12  1  0  0  0  0
 12 14  2  0  0  0  0
 13 14  1  0  0  0  0
 14 18  1  0  0  0  0
 15 13  1  0  0  0  0
 16 21  1  0  0  0  0
 18 20  1  0  0  0  0
 18 16  2  0  0  0  0
 19 17  1  0  0  0  0
 20 19  2  0  0  0  0
 21 17  2  0  0  0  0
 22 23  1  6  0  0  0
 24 27  1  0  0  0  0
 25 24  2  0  0  0  0
 26 24  1  0  0  0  0
 27 22  1  0  0  0  0
 28 32  1  6  0  0  0
 28 29  1  0  0  0  0
 29 30  1  0  0  0  0
 31 29  1  0  0  0  0
 31 30  1  0  0  0  0
 33 32  1  0  0  0  0
 35 34  1  0  0  0  0
 36 35  1  0  0  0  0
 36 37  1  1  0  0  0
 38 40  1  0  0  0  0
 39 38  2  0  0  0  0
 40 36  1  1  0  0  0
 41 43  1  6  0  0  0
 41 40  1  0  0  0  0
 42 38  1  0  0  0  0
 42 41  1  0  0  0  0
 43 45  1  0  0  0  0
 44 43  2  0  0  0  0
 45 46  1  6  0  0  0
 45 47  1  0  0  0  0
 47 58  1  6  0  0  0
 47 49  1  0  0  0  0
 49 48  1  1  0  0  0
 50 57  1  0  0  0  0
 51 54  1  0  0  0  0
 52 49  1  6  0  0  0
 52 50  1  0  0  0  0
 52 53  1  0  0  0  0
 53 51  1  0  0  0  0
 55 54  1  0  0  0  0
 55 56  1  1  0  0  0
 57 55  1  0  0  0  0
 58 59  1  0  0  0  0
 59 60  1  0  0  0  0
 60 61  1  0  0  0  0
 61 62  1  0  0  0  0
 63 61  2  0  0  0  0
M  END
>  <MODEL>
2

>  <REMARK>
 VINA RESULT:      -5.5      2.921      6.309
  Name = 
  20 active torsions:
  status: ('A' for Active; 'I' for Inactive)
    1  A    between atoms: C_4  and  C_12
    2  A    between atoms: C_4  and  C_36
    3  A    between atoms: C_7  and  C_60
    4  A    between atoms: C_8  and  C_22
    5  A    between atoms: C_8  and  C_31
    6  A    between atoms: C_12  and  C_23
    7  A    between atoms: C_13  and  C_22
    8  A    between atoms: C_13  and  C_30
    9  A    between atoms: C_14  and  C_15
   10  A    between atoms: C_14  and  C_38
   11  A    between atoms: C_14  and  C_49
   12  A    between atoms: C_16  and  C_29
   13  A    between atoms: C_16  and  N_58
   14  A    between atoms: C_21  and  C_54
   15  A    between atoms: C_22  and  C_25
   16  A    between atoms: C_23  and  C_46
   17  A    between atoms: C_25  and  C_62
   18  A    between atoms: C_31  and  C_41
   19  A    between atoms: C_39  and  C_59
   20  A    between atoms: C_54  and  C_62
                            x       y       z     vdW  Elec       q    Type
                         _______ _______ _______ _____ _____    ______ ____

>  <TORSDO>
F 20

$$$$
=
 OpenBabel11072409343D

 63 69  0  0  1  0  0  0  0  0999 V2000
  186.5840  175.8990  142.7130 O   0  0  0  0  0  0  0  0  0  0  0  0
  189.2630  173.7650  142.3910 C   0  0  2  0  0  3  0  0  0  0  0  0
  189.4810  175.9460  144.8850 C   0  0  0  0  0  2  0  0  0  0  0  0
  188.8580  175.2340  142.6390 C   0  0  1  0  0  3  0  0  0  0  0  0
  187.2230  176.2340  143.9150 C   0  0  1  0  0  3  0  0  0  0  0  0
  187.6280  175.6060  141.8220 C   0  0  0  0  0  2  0  0  0  0  0  0
  190.5760  173.3930  143.1070 C   0  0  1  0  0  3  0  0  0  0  0  0
  190.7670  175.1110  144.8900 C   0  0  2  0  0  3  0  0  0  0  0  0
  190.5240  173.6320  144.6090 C   0  0  0  0  0  2  0  0  0  0  0  0
  188.4320  175.4000  144.0170 N   0  0  2  0  0  0  0  0  0  0  0  0
  188.5360  172.6840  140.2310 N   0  0  0  0  0  0  0  0  0  0  0  0
  188.9480  172.6970  138.9760 N   0  0  0  0  0  0  0  0  0  0  0  0
  190.3450  174.0080  140.1410 N   0  0  0  0  0  2  0  0  0  0  0  0
  190.0330  173.4950  138.9340 C   0  0  0  0  0  0  0  0  0  0  0  0
  189.3810  173.4770  140.9180 C   0  0  0  0  0  0  0  0  0  0  0  0
  192.0450  174.3090  137.7870 N   0  0  0  0  0  0  0  0  0  0  0  0
  192.2560  174.3090  135.4050 C   0  0  0  0  0  3  0  0  0  0  0  0
  190.7930  173.7730  137.7060 C   0  0  0  0  0  0  0  0  0  0  0  0
  190.9750  173.7600  135.2970 C   0  0  0  0  0  3  0  0  0  0  0  0
  190.2360  173.4890  136.4510 C   0  0  0  0  0  3  0  0  0  0  0  0
  192.7810  174.5770  136.6730 C   0  0  0  0  0  3  0  0  0  0  0  0
  187.3920  177.7800  143.9490 C   0  0  2  0  0  3  0  0  0  0  0  0
  188.6660  178.2490  144.2730 O   0  0  0  0  0  1  0  0  0  0  0  0
  186.1530  178.3340  146.1320 C   0  0  0  0  0  0  0  0  0  0  0  0
  186.7720  177.4670  146.7990 O   0  0  0  0  0  1  0  0  0  0  0  0
  185.2110  179.1360  146.7590 O   0  0  0  0  0  0  0  0  0  0  0  0
  186.3580  178.4630  144.7220 N   0  0  0  0  0  2  0  0  0  0  0  0
  191.5730  175.3450  146.1730 C   0  0  1  0  0  3  0  0  0  0  0  0
  192.5750  176.4890  146.0340 C   0  0  0  0  0  3  0  0  0  0  0  0
  193.4470  176.2530  144.8180 C   0  0  0  0  0  2  0  0  0  0  0  0
  193.9900  175.9650  146.1980 C   0  0  0  0  0  2  0  0  0  0  0  0
  190.6370  175.5960  147.3480 C   0  0  0  0  0  2  0  0  0  0  0  0
  191.1890  176.5570  148.1980 O   0  0  0  0  0  1  0  0  0  0  0  0
  190.9630  171.9440  142.8650 C   0  0  0  0  0  2  0  0  0  0  0  0
  192.3400  171.9160  142.2260 C   0  0  0  0  0  2  0  0  0  0  0  0
  193.2630  172.9590  142.8450 C   0  0  2  0  0  3  0  0  0  0  0  0
  193.5870  174.0180  141.7970 C   0  0  0  0  0  1  0  0  0  0  0  0
  194.4430  171.7920  144.7530 C   0  0  0  0  0  0  0  0  0  0  0  0
  193.7450  170.9810  145.3400 O   0  0  0  0  0  0  0  0  0  0  0  0
  194.5580  172.2910  143.3170 C   0  0  2  0  0  3  0  0  0  0  0  0
  195.6540  173.2910  143.5040 C   0  0  1  0  0  3  0  0  0  0  0  0
  195.8160  172.9000  145.2260 S   0  0  0  0  0  0  0  0  0  0  0  0
  196.8830  172.8970  142.7280 C   0  0  0  0  0  0  0  0  0  0  0  0
  197.4800  171.8660  142.9970 O   0  0  0  0  0  0  0  0  0  0  0  0
  197.4140  173.7710  141.6320 C   0  0  2  0  0  3  0  0  0  0  0  0
  197.0880  175.1090  141.8630 O   0  0  0  0  0  1  0  0  0  0  0  0
  197.0090  173.3010  140.2230 C   0  0  2  0  0  3  0  0  0  0  0  0
  197.6990  171.1300  139.3940 O   0  0  0  0  0  1  0  0  0  0  0  0
  196.7380  171.7830  140.1720 C   0  0  2  0  0  3  0  0  0  0  0  0
  195.0730  169.9330  139.6200 C   0  0  0  0  0  2  0  0  0  0  0  0
  194.4520  171.2420  137.2170 C   0  0  0  0  0  2  0  0  0  0  0  0
  195.3470  171.4470  139.6270 C   0  0  2  0  0  3  0  0  0  0  0  0
  195.0740  172.1500  138.2820 C   0  0  0  0  0  2  0  0  0  0  0  0
  192.9910  170.8770  137.5000 C   0  0  0  0  0  2  0  0  0  0  0  0
  192.6720  170.6290  138.9780 C   0  0  1  0  0  3  0  0  0  0  0  0
  191.3400  170.2400  139.1080 O   0  0  0  0  0  1  0  0  0  0  0  0
  193.5780  169.5900  139.6490 C   0  0  0  0  0  2  0  0  0  0  0  0
  197.9400  173.8180  139.1140 C   0  0  0  0  0  2  0  0  0  0  0  0
  197.5470  175.2000  138.6030 C   0  0  0  0  0  2  0  0  0  0  0  0
  196.5150  175.0720  137.4970 C   0  0  0  0  0  2  0  0  0  0  0  0
  197.1240  175.4300  136.1830 C   0  0  0  0  0  0  0  0  0  0  0  0
  196.9270  176.6970  135.6480 O   0  0  0  0  0  1  0  0  0  0  0  0
  197.8470  174.5970  135.5760 O   0  0  0  0  0  0  0  0  0  0  0  0
  1  5  1  0  0  0  0
  2 15  1  6  0  0  0
  2  4  1  0  0  0  0
  2  7  1  0  0  0  0
  3  8  1  0  0  0  0
  4  6  1  6  0  0  0
  4 10  1  0  0  0  0
  5 22  1  6  0  0  0
  5 10  1  0  0  0  0
  6  1  1  0  0  0  0
  7 34  1  1  0  0  0
  7  9  1  0  0  0  0
  8 28  1  1  0  0  0
  9  8  1  0  0  0  0
 10  3  1  1  0  0  0
 11 15  2  0  0  0  0
 12 11  1  0  0  0  0
 13 15  1  0  0  0  0
 14 12  2  0  0  0  0
 14 13  1  0  0  0  0
 17 21  1  0  0  0  0
 18 16  1  0  0  0  0
 18 14  1  0  0  0  0
 19 17  2  0  0  0  0
 19 20  1  0  0  0  0
 20 18  2  0  0  0  0
 21 16  2  0  0  0  0
 22 23  1  1  0  0  0
 22 27  1  0  0  0  0
 24 26  2  0  0  0  0
 24 25  1  0  0  0  0
 27 24  1  0  0  0  0
 28 32  1  1  0  0  0
 29 28  1  0  0  0  0
 29 31  1  0  0  0  0
 30 29  1  0  0  0  0
 30 31  1  0  0  0  0
 32 33  1  0  0  0  0
 35 36  1  0  0  0  0
 35 34  1  0  0  0  0
 36 37  1  6  0  0  0
 38 42  1  0  0  0  0
 38 39  2  0  0  0  0
 40 36  1  1  0  0  0
 40 41  1  0  0  0  0
 40 38  1  0  0  0  0
 41 43  1  6  0  0  0
 41 42  1  0  0  0  0
 43 44  2  0  0  0  0
 45 46  1  1  0  0  0
 45 43  1  0  0  0  0
 47 58  1  6  0  0  0
 47 45  1  0  0  0  0
 49 48  1  6  0  0  0
 49 47  1  0  0  0  0
 50 52  1  0  0  0  0
 50 57  1  0  0  0  0
 51 54  1  0  0  0  0
 51 53  1  0  0  0  0
 52 49  1  6  0  0  0
 53 52  1  0  0  0  0
 54 55  1  0  0  0  0
 55 56  1  6  0  0  0
 55 57  1  0  0  0  0
 59 58  1  0  0  0  0
 60 59  1  0  0  0  0
 61 60  1  0  0  0  0
 62 61  1  0  0  0  0
 63 61  2  0  0  0  0
M  END
>  <MODEL>
3

>  <REMARK>
 VINA RESULT:      -5.4      1.690      2.546
  Name = 
  20 active torsions:
  status: ('A' for Active; 'I' for Inactive)
    1  A    between atoms: C_4  and  C_12
    2  A    between atoms: C_4  and  C_36
    3  A    between atoms: C_7  and  C_60
    4  A    between atoms: C_8  and  C_22
    5  A    between atoms: C_8  and  C_31
    6  A    between atoms: C_12  and  C_23
    7  A    between atoms: C_13  and  C_22
    8  A    between atoms: C_13  and  C_30
    9  A    between atoms: C_14  and  C_15
   10  A    between atoms: C_14  and  C_38
   11  A    between atoms: C_14  and  C_49
   12  A    between atoms: C_16  and  C_29
   13  A    between atoms: C_16  and  N_58
   14  A    between atoms: C_21  and  C_54
   15  A    between atoms: C_22  and  C_25
   16  A    between atoms: C_23  and  C_46
   17  A    between atoms: C_25  and  C_62
   18  A    between atoms: C_31  and  C_41
   19  A    between atoms: C_39  and  C_59
   20  A    between atoms: C_54  and  C_62
                            x       y       z     vdW  Elec       q    Type
                         _______ _______ _______ _____ _____    ______ ____

>  <TORSDO>
F 20

$$$$
=
 OpenBabel11072409343D

 63 69  0  0  1  0  0  0  0  0999 V2000
  186.3510  175.8010  142.8540 O   0  0  0  0  0  0  0  0  0  0  0  0
  189.1540  173.9310  142.1560 C   0  0  2  0  0  3  0  0  0  0  0  0
  189.5740  176.3200  144.4230 C   0  0  0  0  0  2  0  0  0  0  0  0
  188.6340  175.3670  142.3860 C   0  0  1  0  0  3  0  0  0  0  0  0
  187.1580  176.2970  143.8880 C   0  0  1  0  0  3  0  0  0  0  0  0
  187.2410  175.5440  141.7990 C   0  0  0  0  0  2  0  0  0  0  0  0
  190.6110  173.7550  142.6280 C   0  0  1  0  0  3  0  0  0  0  0  0
  190.9270  175.6240  144.2330 C   0  0  2  0  0  3  0  0  0  0  0  0
  190.8080  174.1100  144.0940 C   0  0  0  0  0  2  0  0  0  0  0  0
  188.4530  175.6010  143.8080 N   0  0  2  0  0  0  0  0  0  0  0  0
  188.2060  172.5760  140.2520 N   0  0  0  0  0  0  0  0  0  0  0  0
  188.3630  172.5390  138.9410 N   0  0  0  0  0  0  0  0  0  0  0  0
  189.7330  174.1320  139.7230 N   0  0  0  0  0  2  0  0  0  0  0  0
  189.2810  173.4770  138.6350 C   0  0  0  0  0  0  0  0  0  0  0  0
  189.0310  173.5370  140.7080 C   0  0  0  0  0  0  0  0  0  0  0  0
  188.9670  174.5090  136.4300 N   0  0  0  0  0  0  0  0  0  0  0  0
  190.5730  174.2990  134.6710 C   0  0  0  0  0  3  0  0  0  0  0  0
  189.7370  173.7540  137.2650 C   0  0  0  0  0  0  0  0  0  0  0  0
  191.3800  173.5230  135.5080 C   0  0  0  0  0  3  0  0  0  0  0  0
  190.9630  173.2480  136.8130 C   0  0  0  0  0  3  0  0  0  0  0  0
  189.3560  174.7910  135.1560 C   0  0  0  0  0  3  0  0  0  0  0  0
  187.1510  177.8500  143.7940 C   0  0  2  0  0  3  0  0  0  0  0  0
  188.2760  178.4320  143.2080 O   0  0  0  0  0  1  0  0  0  0  0  0
  185.4760  178.6640  145.5660 C   0  0  0  0  0  0  0  0  0  0  0  0
  184.4710  178.3750  144.8680 O   0  0  0  0  0  0  0  0  0  0  0  0
  185.2970  179.2020  146.8320 O   0  0  0  0  0  1  0  0  0  0  0  0
  186.8010  178.5080  145.0500 N   0  0  0  0  0  2  0  0  0  0  0  0
  191.9220  176.0440  145.3200 C   0  0  1  0  0  3  0  0  0  0  0  0
  191.5370  175.5160  146.7010 C   0  0  0  0  0  3  0  0  0  0  0  0
  190.5230  176.4460  147.3330 C   0  0  0  0  0  2  0  0  0  0  0  0
  191.9670  176.5000  147.7730 C   0  0  0  0  0  2  0  0  0  0  0  0
  193.3300  175.5960  144.9510 C   0  0  0  0  0  2  0  0  0  0  0  0
  193.8650  176.4580  143.9920 O   0  0  0  0  0  1  0  0  0  0  0  0
  191.1110  172.3380  142.4060 C   0  0  0  0  0  2  0  0  0  0  0  0
  192.1760  172.3700  141.3230 C   0  0  0  0  0  2  0  0  0  0  0  0
  193.1880  173.4810  141.5720 C   0  0  2  0  0  3  0  0  0  0  0  0
  193.2650  174.3680  140.3350 C   0  0  0  0  0  1  0  0  0  0  0  0
  194.7400  172.5280  143.3280 C   0  0  0  0  0  0  0  0  0  0  0  0
  194.1860  171.7810  144.1180 O   0  0  0  0  0  0  0  0  0  0  0  0
  194.5660  172.8730  141.8530 C   0  0  2  0  0  3  0  0  0  0  0  0
  195.6530  173.8930  141.7220 C   0  0  1  0  0  3  0  0  0  0  0  0
  196.1500  173.6870  143.4110 S   0  0  0  0  0  0  0  0  0  0  0  0
  196.7210  173.4250  140.7690 C   0  0  0  0  0  0  0  0  0  0  0  0
  197.4860  172.5290  141.0900 O   0  0  0  0  0  0  0  0  0  0  0  0
  196.8850  174.0650  139.4230 C   0  0  2  0  0  3  0  0  0  0  0  0
  196.5250  175.4130  139.4670 O   0  0  0  0  0  1  0  0  0  0  0  0
  196.1740  173.3010  138.2910 C   0  0  2  0  0  3  0  0  0  0  0  0
  196.9390  171.0600  137.7730 O   0  0  0  0  0  1  0  0  0  0  0  0
  196.0670  171.7910  138.5870 C   0  0  2  0  0  3  0  0  0  0  0  0
  194.4430  169.8940  139.0990 C   0  0  0  0  0  2  0  0  0  0  0  0
  193.5310  169.9900  136.4470 C   0  0  0  0  0  2  0  0  0  0  0  0
  194.6460  171.2500  138.4010 C   0  0  2  0  0  3  0  0  0  0  0  0
  194.2110  171.2770  136.9220 C   0  0  0  0  0  2  0  0  0  0  0  0
  192.1230  169.7940  137.0190 C   0  0  0  0  0  2  0  0  0  0  0  0
  191.9610  170.2360  138.4770 C   0  0  1  0  0  3  0  0  0  0  0  0
  190.6670  169.9490  138.9090 O   0  0  0  0  0  1  0  0  0  0  0  0
  192.9750  169.6050  139.4380 C   0  0  0  0  0  2  0  0  0  0  0  0
  196.7140  173.6390  136.8920 C   0  0  0  0  0  2  0  0  0  0  0  0
  196.1600  174.9470  136.3400 C   0  0  0  0  0  2  0  0  0  0  0  0
  194.6480  174.9700  136.4730 C   0  0  0  0  0  2  0  0  0  0  0  0
  194.0950  176.2080  135.8500 C   0  0  0  0  0  0  0  0  0  0  0  0
  192.8150  176.6360  136.1750 O   0  0  0  0  0  1  0  0  0  0  0  0
  194.8030  176.8840  135.0590 O   0  0  0  0  0  0  0  0  0  0  0  0
  1  5  1  0  0  0  0
  2 15  1  6  0  0  0
  2  4  1  0  0  0  0
  2  7  1  0  0  0  0
  4  6  1  6  0  0  0
  4 10  1  0  0  0  0
  5 22  1  6  0  0  0
  6  1  1  0  0  0  0
  7 34  1  1  0  0  0
  7  9  1  0  0  0  0
  8  3  1  0  0  0  0
  8 28  1  1  0  0  0
  9  8  1  0  0  0  0
 10  5  1  0  0  0  0
 10  3  1  6  0  0  0
 11 15  2  0  0  0  0
 12 11  1  0  0  0  0
 13 15  1  0  0  0  0
 14 12  2  0  0  0  0
 14 13  1  0  0  0  0
 16 18  1  0  0  0  0
 17 21  1  0  0  0  0
 17 19  2  0  0  0  0
 18 14  1  0  0  0  0
 19 20  1  0  0  0  0
 20 18  2  0  0  0  0
 21 16  2  0  0  0  0
 22 23  1  1  0  0  0
 22 27  1  0  0  0  0
 24 26  1  0  0  0  0
 25 24  2  0  0  0  0
 27 24  1  0  0  0  0
 28 32  1  6  0  0  0
 28 29  1  0  0  0  0
 29 30  1  0  0  0  0
 29 31  1  0  0  0  0
 30 31  1  0  0  0  0
 33 32  1  0  0  0  0
 35 36  1  0  0  0  0
 35 34  1  0  0  0  0
 36 37  1  6  0  0  0
 38 42  1  0  0  0  0
 38 39  2  0  0  0  0
 40 36  1  1  0  0  0
 40 38  1  0  0  0  0
 41 43  1  6  0  0  0
 41 40  1  0  0  0  0
 41 42  1  0  0  0  0
 43 44  2  0  0  0  0
 45 46  1  1  0  0  0
 45 43  1  0  0  0  0
 47 58  1  6  0  0  0
 47 49  1  0  0  0  0
 47 45  1  0  0  0  0
 49 48  1  6  0  0  0
 50 57  1  0  0  0  0
 51 53  1  0  0  0  0
 51 54  1  0  0  0  0
 52 49  1  6  0  0  0
 52 50  1  0  0  0  0
 53 52  1  0  0  0  0
 54 55  1  0  0  0  0
 55 56  1  1  0  0  0
 55 57  1  0  0  0  0
 59 60  1  0  0  0  0
 59 58  1  0  0  0  0
 61 62  1  0  0  0  0
 61 60  1  0  0  0  0
 63 61  2  0  0  0  0
M  END
>  <MODEL>
4

>  <REMARK>
 VINA RESULT:      -5.1      1.921      2.584
  Name = 
  20 active torsions:
  status: ('A' for Active; 'I' for Inactive)
    1  A    between atoms: C_4  and  C_12
    2  A    between atoms: C_4  and  C_36
    3  A    between atoms: C_7  and  C_60
    4  A    between atoms: C_8  and  C_22
    5  A    between atoms: C_8  and  C_31
    6  A    between atoms: C_12  and  C_23
    7  A    between atoms: C_13  and  C_22
    8  A    between atoms: C_13  and  C_30
    9  A    between atoms: C_14  and  C_15
   10  A    between atoms: C_14  and  C_38
   11  A    between atoms: C_14  and  C_49
   12  A    between atoms: C_16  and  C_29
   13  A    between atoms: C_16  and  N_58
   14  A    between atoms: C_21  and  C_54
   15  A    between atoms: C_22  and  C_25
   16  A    between atoms: C_23  and  C_46
   17  A    between atoms: C_25  and  C_62
   18  A    between atoms: C_31  and  C_41
   19  A    between atoms: C_39  and  C_59
   20  A    between atoms: C_54  and  C_62
                            x       y       z     vdW  Elec       q    Type
                         _______ _______ _______ _____ _____    ______ ____

>  <TORSDO>
F 20

$$$$
=
 OpenBabel11072409343D

 63 69  0  0  1  0  0  0  0  0999 V2000
  190.8120  176.2730  146.8360 O   0  0  0  0  0  0  0  0  0  0  0  0
  190.9120  174.6580  143.8000 C   0  0  2  0  0  3  0  0  0  0  0  0
  188.2690  176.6100  144.2800 C   0  0  0  0  0  2  0  0  0  0  0  0
  189.9960  175.0400  144.9830 C   0  0  1  0  0  3  0  0  0  0  0  0
  189.7430  176.9540  146.2380 C   0  0  1  0  0  3  0  0  0  0  0  0
  190.7530  174.9760  146.3020 C   0  0  0  0  0  2  0  0  0  0  0  0
  190.1430  174.5930  142.4650 C   0  0  1  0  0  3  0  0  0  0  0  0
  188.1200  175.9660  142.8970 C   0  0  2  0  0  3  0  0  0  0  0  0
  189.4320  175.8940  142.1240 C   0  0  0  0  0  2  0  0  0  0  0  0
  189.6010  176.4330  144.8680 N   0  0  2  0  0  0  0  0  0  0  0  0
  190.9860  172.1560  144.1060 N   0  0  0  0  0  0  0  0  0  0  0  0
  191.9240  171.2530  144.3270 N   0  0  0  0  0  0  0  0  0  0  0  0
  192.9390  173.2490  144.2460 N   0  0  0  0  0  2  0  0  0  0  0  0
  193.0920  171.9200  144.4080 C   0  0  0  0  0  0  0  0  0  0  0  0
  191.6090  173.3490  144.0570 C   0  0  0  0  0  0  0  0  0  0  0  0
  195.3690  171.3360  143.7030 N   0  0  0  0  0  0  0  0  0  0  0  0
  196.8500  170.0510  145.0720 C   0  0  0  0  0  3  0  0  0  0  0  0
  194.3880  171.2690  144.6480 C   0  0  0  0  0  0  0  0  0  0  0  0
  195.8600  169.9690  146.0550 C   0  0  0  0  0  3  0  0  0  0  0  0
  194.6220  170.5800  145.8460 C   0  0  0  0  0  3  0  0  0  0  0  0
  196.5840  170.7500  143.8890 C   0  0  0  0  0  3  0  0  0  0  0  0
  188.5200  176.8530  147.1930 C   0  0  2  0  0  3  0  0  0  0  0  0
  187.7960  175.6610  147.1340 O   0  0  0  0  0  1  0  0  0  0  0  0
  186.2090  177.9770  147.1170 C   0  0  0  0  0  0  0  0  0  0  0  0
  185.5940  176.8900  146.9770 O   0  0  0  0  0  0  0  0  0  0  0  0
  185.4950  179.1640  147.1880 O   0  0  0  0  0  1  0  0  0  0  0  0
  187.6390  178.0170  147.1380 N   0  0  0  0  0  2  0  0  0  0  0  0
  186.9960  176.6330  142.0960 C   0  0  1  0  0  3  0  0  0  0  0  0
  186.3450  177.7890  142.8510 C   0  0  0  0  0  3  0  0  0  0  0  0
  185.0680  177.3090  143.5090 C   0  0  0  0  0  2  0  0  0  0  0  0
  184.9960  178.1190  142.2370 C   0  0  0  0  0  2  0  0  0  0  0  0
  187.5160  177.1040  140.7440 C   0  0  0  0  0  2  0  0  0  0  0  0
  186.5080  176.9950  139.7840 O   0  0  0  0  0  1  0  0  0  0  0  0
  191.0530  174.2240  141.3050 C   0  0  0  0  0  2  0  0  0  0  0  0
  190.1930  173.6880  140.1740 C   0  0  0  0  0  2  0  0  0  0  0  0
  190.8570  172.5040  139.4830 C   0  0  2  0  0  3  0  0  0  0  0  0
  191.0590  171.3860  140.4980 C   0  0  0  0  0  1  0  0  0  0  0  0
  192.0760  173.5430  137.5240 C   0  0  0  0  0  0  0  0  0  0  0  0
  191.5090  174.5170  137.0540 O   0  0  0  0  0  0  0  0  0  0  0  0
  192.2140  172.9310  138.9140 C   0  0  2  0  0  3  0  0  0  0  0  0
  193.0600  171.7480  138.5640 C   0  0  1  0  0  3  0  0  0  0  0  0
  193.1430  172.2190  136.8570 S   0  0  0  0  0  0  0  0  0  0  0  0
  194.4080  171.8320  139.2280 C   0  0  0  0  0  0  0  0  0  0  0  0
  194.5730  171.3860  140.3540 O   0  0  0  0  0  0  0  0  0  0  0  0
  195.5670  172.4850  138.5370 C   0  0  2  0  0  3  0  0  0  0  0  0
  196.6180  171.5820  138.3710 O   0  0  0  0  0  1  0  0  0  0  0  0
  196.0180  173.7980  139.2030 C   0  0  2  0  0  3  0  0  0  0  0  0
  194.5030  175.6120  139.7410 O   0  0  0  0  0  1  0  0  0  0  0  0
  194.9510  174.3570  140.1670 C   0  0  2  0  0  3  0  0  0  0  0  0
  195.2870  175.8940  142.1720 C   0  0  0  0  0  2  0  0  0  0  0  0
  197.8270  174.7720  142.5770 C   0  0  0  0  0  2  0  0  0  0  0  0
  195.4560  174.4730  141.6080 C   0  0  2  0  0  3  0  0  0  0  0  0
  196.8740  173.8880  141.7670 C   0  0  0  0  0  2  0  0  0  0  0  0
  197.5060  174.8090  144.0740 C   0  0  0  0  0  2  0  0  0  0  0  0
  196.0100  174.8180  144.4040 C   0  0  1  0  0  3  0  0  0  0  0  0
  195.8380  174.9210  145.7830 O   0  0  0  0  0  1  0  0  0  0  0  0
  195.2210  175.9310  143.7040 C   0  0  0  0  0  2  0  0  0  0  0  0
  196.5790  174.8280  138.2090 C   0  0  0  0  0  2  0  0  0  0  0  0
  196.2170  174.5160  136.7610 C   0  0  0  0  0  2  0  0  0  0  0  0
  195.5530  175.7210  136.1190 C   0  0  0  0  0  2  0  0  0  0  0  0
  196.5610  176.5240  135.3680 C   0  0  0  0  0  0  0  0  0  0  0  0
  197.7370  175.9290  134.9320 O   0  0  0  0  0  0  0  0  0  0  0  0
  196.3280  177.7310  135.0970 O   0  0  0  0  0  1  0  0  0  0  0  0
  2 15  1  1  0  0  0
  2  4  1  0  0  0  0
  4  6  1  1  0  0  0
  5  1  1  0  0  0  0
  5 22  1  1  0  0  0
  6  1  1  0  0  0  0
  7 34  1  6  0  0  0
  7  2  1  0  0  0  0
  8 28  1  6  0  0  0
  8  3  1  0  0  0  0
  9  7  1  0  0  0  0
  9  8  1  0  0  0  0
 10  3  1  1  0  0  0
 10  4  1  0  0  0  0
 10  5  1  0  0  0  0
 11 12  1  0  0  0  0
 12 14  2  0  0  0  0
 13 14  1  0  0  0  0
 14 18  1  0  0  0  0
 15 11  2  0  0  0  0
 15 13  1  0  0  0  0
 16 21  2  0  0  0  0
 16 18  1  0  0  0  0
 17 19  2  0  0  0  0
 18 20  2  0  0  0  0
 20 19  1  0  0  0  0
 21 17  1  0  0  0  0
 22 23  1  6  0  0  0
 24 27  1  0  0  0  0
 24 26  1  0  0  0  0
 25 24  2  0  0  0  0
 27 22  1  0  0  0  0
 28 32  1  6  0  0  0
 28 29  1  0  0  0  0
 29 30  1  0  0  0  0
 31 29  1  0  0  0  0
 31 30  1  0  0  0  0
 33 32  1  0  0  0  0
 35 34  1  0  0  0  0
 36 35  1  0  0  0  0
 36 37  1  1  0  0  0
 38 40  1  0  0  0  0
 39 38  2  0  0  0  0
 40 36  1  6  0  0  0
 41 40  1  0  0  0  0
 41 43  1  1  0  0  0
 42 38  1  0  0  0  0
 42 41  1  0  0  0  0
 43 44  2  0  0  0  0
 45 46  1  1  0  0  0
 45 47  1  0  0  0  0
 45 43  1  0  0  0  0
 47 58  1  6  0  0  0
 47 49  1  0  0  0  0
 49 48  1  6  0  0  0
 50 57  1  0  0  0  0
 51 54  1  0  0  0  0
 52 49  1  6  0  0  0
 52 53  1  0  0  0  0
 52 50  1  0  0  0  0
 53 51  1  0  0  0  0
 54 55  1  0  0  0  0
 55 56  1  1  0  0  0
 57 55  1  0  0  0  0
 59 58  1  0  0  0  0
 60 59  1  0  0  0  0
 61 60  1  0  0  0  0
 62 61  2  0  0  0  0
 63 61  1  0  0  0  0
M  END
>  <MODEL>
5

>  <REMARK>
 VINA RESULT:      -5.1      2.731      5.790
  Name = 
  20 active torsions:
  status: ('A' for Active; 'I' for Inactive)
    1  A    between atoms: C_4  and  C_12
    2  A    between atoms: C_4  and  C_36
    3  A    between atoms: C_7  and  C_60
    4  A    between atoms: C_8  and  C_22
    5  A    between atoms: C_8  and  C_31
    6  A    between atoms: C_12  and  C_23
    7  A    between atoms: C_13  and  C_22
    8  A    between atoms: C_13  and  C_30
    9  A    between atoms: C_14  and  C_15
   10  A    between atoms: C_14  and  C_38
   11  A    between atoms: C_14  and  C_49
   12  A    between atoms: C_16  and  C_29
   13  A    between atoms: C_16  and  N_58
   14  A    between atoms: C_21  and  C_54
   15  A    between atoms: C_22  and  C_25
   16  A    between atoms: C_23  and  C_46
   17  A    between atoms: C_25  and  C_62
   18  A    between atoms: C_31  and  C_41
   19  A    between atoms: C_39  and  C_59
   20  A    between atoms: C_54  and  C_62
                            x       y       z     vdW  Elec       q    Type
                         _______ _______ _______ _____ _____    ______ ____

>  <TORSDO>
F 20

$$$$
=
 OpenBabel11072409343D

 63 69  0  0  1  0  0  0  0  0999 V2000
  192.6840  175.8800  146.5800 O   0  0  0  0  0  0  0  0  0  0  0  0
  191.8660  173.8010  143.9630 C   0  0  2  0  0  3  0  0  0  0  0  0
  189.6060  176.1230  144.6870 C   0  0  0  0  0  2  0  0  0  0  0  0
  191.3200  174.4810  145.2380 C   0  0  1  0  0  3  0  0  0  0  0  0
  191.5570  176.5870  146.1370 C   0  0  1  0  0  3  0  0  0  0  0  0
  192.3830  174.5330  146.3260 C   0  0  0  0  0  2  0  0  0  0  0  0
  190.7780  173.6220  142.8860 C   0  0  1  0  0  3  0  0  0  0  0  0
  189.0540  175.2910  143.5240 C   0  0  2  0  0  3  0  0  0  0  0  0
  190.1130  174.9300  142.4880 C   0  0  0  0  0  2  0  0  0  0  0  0
  191.0260  175.8760  144.9630 N   0  0  2  0  0  0  0  0  0  0  0  0
  191.8370  171.2970  144.2650 N   0  0  0  0  0  0  0  0  0  0  0  0
  192.7220  170.3680  144.5790 N   0  0  0  0  0  0  0  0  0  0  0  0
  193.7960  172.3350  144.6120 N   0  0  0  0  0  2  0  0  0  0  0  0
  193.8930  171.0020  144.7840 C   0  0  0  0  0  0  0  0  0  0  0  0
  192.4960  172.4720  144.2860 C   0  0  0  0  0  0  0  0  0  0  0  0
  195.0920  169.0470  145.6590 N   0  0  0  0  0  0  0  0  0  0  0  0
  197.4730  168.9840  145.8630 C   0  0  0  0  0  3  0  0  0  0  0  0
  195.1380  170.3140  145.1550 C   0  0  0  0  0  0  0  0  0  0  0  0
  197.5460  170.2810  145.3490 C   0  0  0  0  0  3  0  0  0  0  0  0
  196.3750  170.9530  144.9910 C   0  0  0  0  0  3  0  0  0  0  0  0
  196.2220  168.3740  146.0110 C   0  0  0  0  0  3  0  0  0  0  0  0
  190.6160  176.7950  147.3580 C   0  0  2  0  0  3  0  0  0  0  0  0
  189.6780  177.8210  147.2390 O   0  0  0  0  0  1  0  0  0  0  0  0
  191.2900  177.9630  149.5470 C   0  0  0  0  0  0  0  0  0  0  0  0
  190.7570  179.0540  149.2240 O   0  0  0  0  0  0  0  0  0  0  0  0
  191.9100  177.8430  150.7810 O   0  0  0  0  0  1  0  0  0  0  0  0
  191.3230  176.8610  148.6350 N   0  0  0  0  0  2  0  0  0  0  0  0
  187.8200  175.9570  142.9040 C   0  0  1  0  0  3  0  0  0  0  0  0
  187.2420  177.0570  143.7910 C   0  0  0  0  0  3  0  0  0  0  0  0
  186.2060  176.4630  144.7230 C   0  0  0  0  0  2  0  0  0  0  0  0
  185.7620  177.2350  143.5020 C   0  0  0  0  0  2  0  0  0  0  0  0
  188.1530  176.5050  141.5220 C   0  0  0  0  0  2  0  0  0  0  0  0
  188.6230  177.8150  141.6330 O   0  0  0  0  0  1  0  0  0  0  0  0
  191.3250  172.9600  141.6320 C   0  0  0  0  0  2  0  0  0  0  0  0
  190.7950  173.7120  140.4240 C   0  0  0  0  0  2  0  0  0  0  0  0
  190.9070  172.8750  139.1550 C   0  0  2  0  0  3  0  0  0  0  0  0
  192.1340  171.9770  139.2600 C   0  0  0  0  0  1  0  0  0  0  0  0
  189.8450  173.6840  137.0060 C   0  0  0  0  0  0  0  0  0  0  0  0
  188.6470  173.8980  137.1010 O   0  0  0  0  0  0  0  0  0  0  0  0
  191.0460  173.7950  137.9380 C   0  0  2  0  0  3  0  0  0  0  0  0
  192.1110  173.3130  137.0050 C   0  0  1  0  0  3  0  0  0  0  0  0
  190.9580  173.1210  135.6720 S   0  0  0  0  0  0  0  0  0  0  0  0
  193.1130  174.4000  136.7190 C   0  0  0  0  0  0  0  0  0  0  0  0
  192.7740  175.5740  136.7400 O   0  0  0  0  0  0  0  0  0  0  0  0
  194.5340  174.0670  136.3800 C   0  0  2  0  0  3  0  0  0  0  0  0
  194.5910  173.0570  135.4170 O   0  0  0  0  0  1  0  0  0  0  0  0
  195.4020  173.7550  137.6120 C   0  0  2  0  0  3  0  0  0  0  0  0
  197.5930  174.7780  137.7930 O   0  0  0  0  0  1  0  0  0  0  0  0
  196.2340  174.9750  138.0610 C   0  0  2  0  0  3  0  0  0  0  0  0
  197.2780  174.8500  140.3830 C   0  0  0  0  0  2  0  0  0  0  0  0
  194.7950  174.0710  141.4320 C   0  0  0  0  0  2  0  0  0  0  0  0
  196.0640  175.2930  139.5500 C   0  0  2  0  0  3  0  0  0  0  0  0
  194.7060  174.8010  140.0890 C   0  0  0  0  0  2  0  0  0  0  0  0
  195.1060  174.9960  142.6130 C   0  0  0  0  0  2  0  0  0  0  0  0
  196.1020  176.1160  142.3000 C   0  0  1  0  0  3  0  0  0  0  0  0
  196.3600  176.8480  143.4580 O   0  0  0  0  0  1  0  0  0  0  0  0
  197.4250  175.6280  141.6970 C   0  0  0  0  0  2  0  0  0  0  0  0
  196.2050  172.4510  137.4820 C   0  0  0  0  0  2  0  0  0  0  0  0
  196.2120  171.6260  138.7640 C   0  0  0  0  0  2  0  0  0  0  0  0
  196.9830  170.3360  138.5500 C   0  0  0  0  0  2  0  0  0  0  0  0
  196.2950  169.4890  137.5320 C   0  0  0  0  0  0  0  0  0  0  0  0
  194.9680  169.1260  137.7130 O   0  0  0  0  0  1  0  0  0  0  0  0
  196.9080  169.1340  136.4920 O   0  0  0  0  0  0  0  0  0  0  0  0
  2 15  1  1  0  0  0
  2  4  1  0  0  0  0
  4  6  1  1  0  0  0
  5  1  1  0  0  0  0
  5 22  1  1  0  0  0
  6  1  1  0  0  0  0
  7 34  1  6  0  0  0
  7  2  1  0  0  0  0
  8 28  1  6  0  0  0
  8  3  1  0  0  0  0
  9  7  1  0  0  0  0
  9  8  1  0  0  0  0
 10  3  1  1  0  0  0
 10  4  1  0  0  0  0
 10  5  1  0  0  0  0
 11 15  2  0  0  0  0
 11 12  1  0  0  0  0
 12 14  2  0  0  0  0
 13 14  1  0  0  0  0
 14 18  1  0  0  0  0
 15 13  1  0  0  0  0
 16 21  1  0  0  0  0
 17 21  2  0  0  0  0
 18 16  2  0  0  0  0
 19 17  1  0  0  0  0
 20 18  1  0  0  0  0
 20 19  2  0  0  0  0
 22 23  1  6  0  0  0
 22 27  1  0  0  0  0
 24 26  1  0  0  0  0
 25 24  2  0  0  0  0
 27 24  1  0  0  0  0
 28 32  1  6  0  0  0
 28 29  1  0  0  0  0
 29 30  1  0  0  0  0
 31 29  1  0  0  0  0
 31 30  1  0  0  0  0
 32 33  1  0  0  0  0
 35 34  1  0  0  0  0
 36 37  1  1  0  0  0
 36 35  1  0  0  0  0
 38 39  2  0  0  0  0
 38 40  1  0  0  0  0
 40 36  1  1  0  0  0
 41 43  1  6  0  0  0
 41 40  1  0  0  0  0
 42 41  1  0  0  0  0
 42 38  1  0  0  0  0
 43 44  2  0  0  0  0
 45 46  1  6  0  0  0
 45 43  1  0  0  0  0
 45 47  1  0  0  0  0
 47 58  1  6  0  0  0
 47 49  1  0  0  0  0
 49 48  1  1  0  0  0
 50 57  1  0  0  0  0
 51 54  1  0  0  0  0
 52 49  1  6  0  0  0
 52 53  1  0  0  0  0
 52 50  1  0  0  0  0
 53 51  1  0  0  0  0
 55 54  1  0  0  0  0
 55 56  1  1  0  0  0
 57 55  1  0  0  0  0
 58 59  1  0  0  0  0
 60 59  1  0  0  0  0
 61 62  1  0  0  0  0
 61 60  1  0  0  0  0
 63 61  2  0  0  0  0
M  END
>  <MODEL>
6

>  <REMARK>
 VINA RESULT:      -4.9      3.209      6.756
  Name = 
  20 active torsions:
  status: ('A' for Active; 'I' for Inactive)
    1  A    between atoms: C_4  and  C_12
    2  A    between atoms: C_4  and  C_36
    3  A    between atoms: C_7  and  C_60
    4  A    between atoms: C_8  and  C_22
    5  A    between atoms: C_8  and  C_31
    6  A    between atoms: C_12  and  C_23
    7  A    between atoms: C_13  and  C_22
    8  A    between atoms: C_13  and  C_30
    9  A    between atoms: C_14  and  C_15
   10  A    between atoms: C_14  and  C_38
   11  A    between atoms: C_14  and  C_49
   12  A    between atoms: C_16  and  C_29
   13  A    between atoms: C_16  and  N_58
   14  A    between atoms: C_21  and  C_54
   15  A    between atoms: C_22  and  C_25
   16  A    between atoms: C_23  and  C_46
   17  A    between atoms: C_25  and  C_62
   18  A    between atoms: C_31  and  C_41
   19  A    between atoms: C_39  and  C_59
   20  A    between atoms: C_54  and  C_62
                            x       y       z     vdW  Elec       q    Type
                         _______ _______ _______ _____ _____    ______ ____

>  <TORSDO>
F 20

$$$$
=
 OpenBabel11072409343D

 63 69  0  0  1  0  0  0  0  0999 V2000
  189.0020  173.0760  136.4960 O   0  0  0  0  0  0  0  0  0  0  0  0
  191.8590  172.5500  138.3400 C   0  0  2  0  0  3  0  0  0  0  0  0
  189.2540  173.6840  140.0570 C   0  0  0  0  0  2  0  0  0  0  0  0
  190.6910  173.5310  138.0960 C   0  0  1  0  0  3  0  0  0  0  0  0
  188.4300  173.2530  137.7640 C   0  0  1  0  0  3  0  0  0  0  0  0
  190.3100  173.5690  136.6230 C   0  0  0  0  0  2  0  0  0  0  0  0
  192.3510  172.5800  139.8000 C   0  0  1  0  0  3  0  0  0  0  0  0
  190.4230  173.5400  141.0380 C   0  0  2  0  0  3  0  0  0  0  0  0
  191.2490  172.2790  140.8060 C   0  0  0  0  0  2  0  0  0  0  0  0
  189.4950  173.0450  138.7590 N   0  0  2  0  0  0  0  0  0  0  0  0
  193.5640  171.9100  136.5950 N   0  0  0  0  0  0  0  0  0  0  0  0
  194.5130  172.5330  135.9210 N   0  0  0  0  0  0  0  0  0  0  0  0
  193.5700  174.0470  137.2790 N   0  0  0  0  0  2  0  0  0  0  0  0
  194.5070  173.8150  136.3380 C   0  0  0  0  0  0  0  0  0  0  0  0
  193.0050  172.8300  137.4040 C   0  0  0  0  0  0  0  0  0  0  0  0
  196.7360  174.5430  135.6120 N   0  0  0  0  0  0  0  0  0  0  0  0
  197.1770  176.7660  134.8490 C   0  0  0  0  0  3  0  0  0  0  0  0
  195.4220  174.8440  135.8240 C   0  0  0  0  0  0  0  0  0  0  0  0
  195.8350  177.0980  135.0580 C   0  0  0  0  0  3  0  0  0  0  0  0
  194.9500  176.1340  135.5470 C   0  0  0  0  0  3  0  0  0  0  0  0
  197.6130  175.4680  135.1330 C   0  0  0  0  0  3  0  0  0  0  0  0
  187.6820  174.6170  137.7630 C   0  0  2  0  0  3  0  0  0  0  0  0
  187.9050  175.4350  136.6550 O   0  0  0  0  0  1  0  0  0  0  0  0
  186.9810  176.4370  139.4380 C   0  0  0  0  0  0  0  0  0  0  0  0
  186.1330  176.9420  138.6600 O   0  0  0  0  0  0  0  0  0  0  0  0
  187.1510  176.9720  140.7060 O   0  0  0  0  0  1  0  0  0  0  0  0
  187.8210  175.3590  139.0130 N   0  0  0  0  0  2  0  0  0  0  0  0
  189.9480  173.6780  142.4890 C   0  0  1  0  0  3  0  0  0  0  0  0
  189.2950  175.0300  142.7650 C   0  0  0  0  0  3  0  0  0  0  0  0
  190.3540  176.1140  142.7610 C   0  0  0  0  0  2  0  0  0  0  0  0
  189.8100  175.6000  144.0740 C   0  0  0  0  0  2  0  0  0  0  0  0
  188.9970  172.5430  142.8460 C   0  0  0  0  0  2  0  0  0  0  0  0
  189.2850  172.0690  144.1270 O   0  0  0  0  0  1  0  0  0  0  0  0
  193.4930  171.6070  140.0340 C   0  0  0  0  0  2  0  0  0  0  0  0
  192.9730  170.1970  139.8190 C   0  0  0  0  0  2  0  0  0  0  0  0
  193.7050  169.1930  140.7020 C   0  0  2  0  0  3  0  0  0  0  0  0
  192.6860  168.2480  141.3280 C   0  0  0  0  0  1  0  0  0  0  0  0
  195.9470  169.5700  141.8100 C   0  0  0  0  0  0  0  0  0  0  0  0
  196.8720  169.6800  141.0210 O   0  0  0  0  0  0  0  0  0  0  0  0
  194.4660  169.9330  141.8060 C   0  0  2  0  0  3  0  0  0  0  0  0
  194.0980  169.4220  143.1630 C   0  0  1  0  0  3  0  0  0  0  0  0
  195.7640  168.9260  143.5100 S   0  0  0  0  0  0  0  0  0  0  0  0
  193.6560  170.5460  144.0620 C   0  0  0  0  0  0  0  0  0  0  0  0
  192.4820  170.8820  144.1010 O   0  0  0  0  0  0  0  0  0  0  0  0
  194.6460  171.2920  144.9050 C   0  0  2  0  0  3  0  0  0  0  0  0
  194.6080  170.8440  146.2270 O   0  0  0  0  0  1  0  0  0  0  0  0
  194.5130  172.8220  144.7980 C   0  0  2  0  0  3  0  0  0  0  0  0
  196.2030  174.5030  145.2380 O   0  0  0  0  0  1  0  0  0  0  0  0
  195.8300  173.4890  144.3490 C   0  0  2  0  0  3  0  0  0  0  0  0
  196.5100  175.4040  142.8100 C   0  0  0  0  0  2  0  0  0  0  0  0
  193.9120  175.4440  141.7500 C   0  0  0  0  0  2  0  0  0  0  0  0
  195.7470  174.0740  142.9360 C   0  0  2  0  0  3  0  0  0  0  0  0
  194.2950  174.1200  142.4200 C   0  0  0  0  0  2  0  0  0  0  0  0
  194.5700  175.6520  140.3830 C   0  0  0  0  0  2  0  0  0  0  0  0
  196.0150  175.1540  140.2890 C   0  0  1  0  0  3  0  0  0  0  0  0
  196.5310  175.4550  139.0300 O   0  0  0  0  0  1  0  0  0  0  0  0
  196.9430  175.7170  141.3720 C   0  0  0  0  0  2  0  0  0  0  0  0
  193.8600  173.4690  146.0300 C   0  0  0  0  0  2  0  0  0  0  0  0
  192.6730  174.3580  145.6770 C   0  0  0  0  0  2  0  0  0  0  0  0
  192.6930  175.6150  146.5280 C   0  0  0  0  0  2  0  0  0  0  0  0
  193.4870  176.6810  145.8530 C   0  0  0  0  0  0  0  0  0  0  0  0
  194.5600  177.2690  146.5100 O   0  0  0  0  0  1  0  0  0  0  0  0
  193.2080  177.0230  144.6740 O   0  0  0  0  0  0  0  0  0  0  0  0
  1  6  1  0  0  0  0
  1  5  1  0  0  0  0
  2 15  1  6  0  0  0
  2  7  1  0  0  0  0
  3  8  1  0  0  0  0
  4  6  1  6  0  0  0
  4  2  1  0  0  0  0
  4 10  1  0  0  0  0
  5 22  1  6  0  0  0
  5 10  1  0  0  0  0
  7 34  1  6  0  0  0
  7  9  1  0  0  0  0
  8 28  1  1  0  0  0
  9  8  1  0  0  0  0
 10  3  1  1  0  0  0
 11 15  2  0  0  0  0
 12 14  2  0  0  0  0
 12 11  1  0  0  0  0
 13 15  1  0  0  0  0
 14 13  1  0  0  0  0
 16 18  1  0  0  0  0
 17 19  2  0  0  0  0
 17 21  1  0  0  0  0
 18 14  1  0  0  0  0
 19 20  1  0  0  0  0
 20 18  2  0  0  0  0
 21 16  2  0  0  0  0
 22 23  1  6  0  0  0
 22 27  1  0  0  0  0
 24 26  1  0  0  0  0
 25 24  2  0  0  0  0
 27 24  1  0  0  0  0
 28 29  1  0  0  0  0
 28 32  1  6  0  0  0
 29 31  1  0  0  0  0
 30 29  1  0  0  0  0
 30 31  1  0  0  0  0
 32 33  1  0  0  0  0
 35 34  1  0  0  0  0
 35 36  1  0  0  0  0
 36 37  1  1  0  0  0
 38 42  1  0  0  0  0
 39 38  2  0  0  0  0
 40 36  1  6  0  0  0
 40 38  1  0  0  0  0
 40 41  1  0  0  0  0
 41 42  1  0  0  0  0
 41 43  1  1  0  0  0
 43 44  2  0  0  0  0
 43 45  1  0  0  0  0
 45 46  1  1  0  0  0
 47 45  1  0  0  0  0
 47 58  1  1  0  0  0
 49 47  1  0  0  0  0
 49 48  1  1  0  0  0
 50 52  1  0  0  0  0
 51 53  1  0  0  0  0
 52 49  1  1  0  0  0
 53 52  1  0  0  0  0
 54 51  1  0  0  0  0
 55 56  1  6  0  0  0
 55 54  1  0  0  0  0
 55 57  1  0  0  0  0
 57 50  1  0  0  0  0
 59 58  1  0  0  0  0
 59 60  1  0  0  0  0
 61 62  1  0  0  0  0
 61 60  1  0  0  0  0
 63 61  2  0  0  0  0
M  END
>  <MODEL>
7

>  <REMARK>
 VINA RESULT:      -4.9      2.528      6.119
  Name = 
  20 active torsions:
  status: ('A' for Active; 'I' for Inactive)
    1  A    between atoms: C_4  and  C_12
    2  A    between atoms: C_4  and  C_36
    3  A    between atoms: C_7  and  C_60
    4  A    between atoms: C_8  and  C_22
    5  A    between atoms: C_8  and  C_31
    6  A    between atoms: C_12  and  C_23
    7  A    between atoms: C_13  and  C_22
    8  A    between atoms: C_13  and  C_30
    9  A    between atoms: C_14  and  C_15
   10  A    between atoms: C_14  and  C_38
   11  A    between atoms: C_14  and  C_49
   12  A    between atoms: C_16  and  C_29
   13  A    between atoms: C_16  and  N_58
   14  A    between atoms: C_21  and  C_54
   15  A    between atoms: C_22  and  C_25
   16  A    between atoms: C_23  and  C_46
   17  A    between atoms: C_25  and  C_62
   18  A    between atoms: C_31  and  C_41
   19  A    between atoms: C_39  and  C_59
   20  A    between atoms: C_54  and  C_62
                            x       y       z     vdW  Elec       q    Type
                         _______ _______ _______ _____ _____    ______ ____

>  <TORSDO>
F 20

$$$$
=
 OpenBabel11072409343D

 63 69  0  0  1  0  0  0  0  0999 V2000
  193.2430  175.5070  146.5610 O   0  0  0  0  0  0  0  0  0  0  0  0
  192.7220  173.3880  143.9010 C   0  0  2  0  0  3  0  0  0  0  0  0
  190.6020  175.9340  144.1210 C   0  0  0  0  0  2  0  0  0  0  0  0
  192.0200  174.1730  145.0310 C   0  0  1  0  0  3  0  0  0  0  0  0
  192.2900  176.2890  145.8950 C   0  0  1  0  0  3  0  0  0  0  0  0
  192.8650  174.1810  146.2960 C   0  0  0  0  0  2  0  0  0  0  0  0
  191.8370  173.2560  142.6450 C   0  0  1  0  0  3  0  0  0  0  0  0
  190.1940  175.1000  142.9000 C   0  0  2  0  0  3  0  0  0  0  0  0
  191.3860  174.5990  142.0910 C   0  0  0  0  0  2  0  0  0  0  0  0
  191.9160  175.5740  144.6640 N   0  0  2  0  0  0  0  0  0  0  0  0
  192.4530  170.8940  144.1570 N   0  0  0  0  0  0  0  0  0  0  0  0
  193.1530  169.9130  144.6990 N   0  0  0  0  0  0  0  0  0  0  0  0
  194.2950  171.8090  145.0530 N   0  0  0  0  0  2  0  0  0  0  0  0
  194.2560  170.4740  145.2320 C   0  0  0  0  0  0  0  0  0  0  0  0
  193.1510  172.0250  144.3750 C   0  0  0  0  0  0  0  0  0  0  0  0
  194.9710  168.9240  146.9960 N   0  0  0  0  0  0  0  0  0  0  0  0
  197.2500  168.2570  147.2760 C   0  0  0  0  0  3  0  0  0  0  0  0
  195.3000  169.7120  145.9320 C   0  0  0  0  0  0  0  0  0  0  0  0
  197.6120  169.0570  146.1880 C   0  0  0  0  0  3  0  0  0  0  0  0
  196.6340  169.7900  145.5100 C   0  0  0  0  0  3  0  0  0  0  0  0
  195.9080  168.2000  147.6680 C   0  0  0  0  0  3  0  0  0  0  0  0
  191.1650  176.6380  146.9120 C   0  0  2  0  0  3  0  0  0  0  0  0
  190.1950  177.5360  146.4660 O   0  0  0  0  0  1  0  0  0  0  0  0
  191.0600  177.9480  149.1220 C   0  0  0  0  0  0  0  0  0  0  0  0
  190.1020  178.6690  148.7430 O   0  0  0  0  0  0  0  0  0  0  0  0
  191.5770  178.1110  150.3990 O   0  0  0  0  0  1  0  0  0  0  0  0
  191.6680  177.0060  148.2340 N   0  0  0  0  0  2  0  0  0  0  0  0
  189.1660  175.8450  142.0410 C   0  0  1  0  0  3  0  0  0  0  0  0
  188.0160  174.9450  141.5940 C   0  0  0  0  0  3  0  0  0  0  0  0
  188.5540  173.5720  141.2460 C   0  0  0  0  0  2  0  0  0  0  0  0
  188.2040  174.5430  140.1420 C   0  0  0  0  0  2  0  0  0  0  0  0
  188.6320  177.0600  142.7880 C   0  0  0  0  0  2  0  0  0  0  0  0
  187.3520  176.7920  143.2770 O   0  0  0  0  0  1  0  0  0  0  0  0
  192.5380  172.4900  141.5360 C   0  0  0  0  0  2  0  0  0  0  0  0
  192.2350  173.1750  140.2150 C   0  0  0  0  0  2  0  0  0  0  0  0
  191.5470  172.2260  139.2420 C   0  0  2  0  0  3  0  0  0  0  0  0
  191.2360  170.9180  139.9600 C   0  0  0  0  0  1  0  0  0  0  0  0
  191.6770  171.5840  136.7980 C   0  0  0  0  0  0  0  0  0  0  0  0
  190.8460  172.1420  136.0990 O   0  0  0  0  0  0  0  0  0  0  0  0
  192.4680  171.9500  138.0490 C   0  0  2  0  0  3  0  0  0  0  0  0
  193.2270  170.6730  138.2260 C   0  0  1  0  0  3  0  0  0  0  0  0
  192.5180  169.9630  136.7650 S   0  0  0  0  0  0  0  0  0  0  0  0
  194.7080  170.8990  138.0700 C   0  0  0  0  0  0  0  0  0  0  0  0
  195.2640  170.6470  137.0110 O   0  0  0  0  0  0  0  0  0  0  0  0
  195.5330  171.4100  139.2120 C   0  0  2  0  0  3  0  0  0  0  0  0
  195.0180  170.9710  140.4320 O   0  0  0  0  0  1  0  0  0  0  0  0
  195.7500  172.9340  139.1780 C   0  0  2  0  0  3  0  0  0  0  0  0
  197.7290  173.8290  138.1010 O   0  0  0  0  0  1  0  0  0  0  0  0
  196.4180  173.3970  137.8670 C   0  0  2  0  0  3  0  0  0  0  0  0
  194.7400  173.9930  136.0440 C   0  0  0  0  0  2  0  0  0  0  0  0
  196.3290  176.1940  135.3320 C   0  0  0  0  0  2  0  0  0  0  0  0
  195.6440  174.5200  137.1710 C   0  0  2  0  0  3  0  0  0  0  0  0
  196.5690  175.6820  136.7560 C   0  0  0  0  0  2  0  0  0  0  0  0
  195.0200  176.9730  135.1730 C   0  0  0  0  0  2  0  0  0  0  0  0
  193.8430  176.4120  135.9790 C   0  0  1  0  0  3  0  0  0  0  0  0
  192.6960  177.1550  135.7060 O   0  0  0  0  0  1  0  0  0  0  0  0
  193.5640  174.9260  135.7270 C   0  0  0  0  0  2  0  0  0  0  0  0
  196.4010  173.4890  140.4550 C   0  0  0  0  0  2  0  0  0  0  0  0
  195.4660  174.3840  141.2600 C   0  0  0  0  0  2  0  0  0  0  0  0
  196.1750  174.8980  142.5000 C   0  0  0  0  0  2  0  0  0  0  0  0
  196.3870  176.3710  142.3970 C   0  0  0  0  0  0  0  0  0  0  0  0
  196.7690  177.0970  143.5170 O   0  0  0  0  0  1  0  0  0  0  0  0
  196.2550  176.9500  141.2880 O   0  0  0  0  0  0  0  0  0  0  0  0
  2 15  1  1  0  0  0
  2  4  1  0  0  0  0
  4  6  1  1  0  0  0
  5  1  1  0  0  0  0
  5 22  1  1  0  0  0
  6  1  1  0  0  0  0
  7 34  1  6  0  0  0
  7  2  1  0  0  0  0
  8 28  1  6  0  0  0
  8  3  1  0  0  0  0
  9  7  1  0  0  0  0
  9  8  1  0  0  0  0
 10  3  1  1  0  0  0
 10  4  1  0  0  0  0
 10  5  1  0  0  0  0
 11 15  2  0  0  0  0
 11 12  1  0  0  0  0
 12 14  2  0  0  0  0
 13 14  1  0  0  0  0
 14 18  1  0  0  0  0
 15 13  1  0  0  0  0
 16 21  1  0  0  0  0
 17 21  2  0  0  0  0
 18 16  2  0  0  0  0
 19 17  1  0  0  0  0
 20 18  1  0  0  0  0
 20 19  2  0  0  0  0
 22 23  1  6  0  0  0
 22 27  1  0  0  0  0
 24 26  1  0  0  0  0
 25 24  2  0  0  0  0
 27 24  1  0  0  0  0
 28 32  1  1  0  0  0
 29 28  1  0  0  0  0
 30 29  1  0  0  0  0
 31 30  1  0  0  0  0
 31 29  1  0  0  0  0
 32 33  1  0  0  0  0
 35 34  1  0  0  0  0
 36 37  1  1  0  0  0
 36 35  1  0  0  0  0
 38 40  1  0  0  0  0
 39 38  2  0  0  0  0
 40 41  1  0  0  0  0
 40 36  1  1  0  0  0
 41 43  1  6  0  0  0
 42 38  1  0  0  0  0
 42 41  1  0  0  0  0
 43 45  1  0  0  0  0
 44 43  2  0  0  0  0
 45 46  1  1  0  0  0
 47 45  1  0  0  0  0
 47 58  1  1  0  0  0
 49 48  1  1  0  0  0
 49 47  1  0  0  0  0
 50 52  1  0  0  0  0
 51 53  1  0  0  0  0
 52 49  1  6  0  0  0
 53 52  1  0  0  0  0
 54 51  1  0  0  0  0
 54 55  1  0  0  0  0
 55 56  1  6  0  0  0
 57 55  1  0  0  0  0
 57 50  1  0  0  0  0
 58 59  1  0  0  0  0
 59 60  1  0  0  0  0
 61 60  1  0  0  0  0
 61 62  1  0  0  0  0
 63 61  2  0  0  0  0
M  END
>  <MODEL>
8

>  <REMARK>
 VINA RESULT:      -4.7      3.374      7.373
  Name = 
  20 active torsions:
  status: ('A' for Active; 'I' for Inactive)
    1  A    between atoms: C_4  and  C_12
    2  A    between atoms: C_4  and  C_36
    3  A    between atoms: C_7  and  C_60
    4  A    between atoms: C_8  and  C_22
    5  A    between atoms: C_8  and  C_31
    6  A    between atoms: C_12  and  C_23
    7  A    between atoms: C_13  and  C_22
    8  A    between atoms: C_13  and  C_30
    9  A    between atoms: C_14  and  C_15
   10  A    between atoms: C_14  and  C_38
   11  A    between atoms: C_14  and  C_49
   12  A    between atoms: C_16  and  C_29
   13  A    between atoms: C_16  and  N_58
   14  A    between atoms: C_21  and  C_54
   15  A    between atoms: C_22  and  C_25
   16  A    between atoms: C_23  and  C_46
   17  A    between atoms: C_25  and  C_62
   18  A    between atoms: C_31  and  C_41
   19  A    between atoms: C_39  and  C_59
   20  A    between atoms: C_54  and  C_62
                            x       y       z     vdW  Elec       q    Type
                         _______ _______ _______ _____ _____    ______ ____

>  <TORSDO>
F 20

$$$$
=
 OpenBabel11072409343D

 63 69  0  0  1  0  0  0  0  0999 V2000
  192.0940  176.5460  145.9340 O   0  0  0  0  0  0  0  0  0  0  0  0
  191.2780  174.1800  143.5740 C   0  0  2  0  0  3  0  0  0  0  0  0
  188.9880  176.5320  144.0720 C   0  0  0  0  0  2  0  0  0  0  0  0
  190.7370  174.9860  144.7750 C   0  0  1  0  0  3  0  0  0  0  0  0
  190.9500  177.1820  145.4330 C   0  0  1  0  0  3  0  0  0  0  0  0
  191.8130  175.1750  145.8340 C   0  0  0  0  0  2  0  0  0  0  0  0
  190.1790  173.8660  142.5390 C   0  0  1  0  0  3  0  0  0  0  0  0
  188.4350  175.5680  143.0160 C   0  0  2  0  0  3  0  0  0  0  0  0
  189.4860  175.1120  142.0100 C   0  0  0  0  0  2  0  0  0  0  0  0
  190.4150  176.3380  144.3520 N   0  0  2  0  0  0  0  0  0  0  0  0
  191.2860  171.7350  144.1940 N   0  0  0  0  0  0  0  0  0  0  0  0
  192.1930  170.8550  144.5780 N   0  0  0  0  0  0  0  0  0  0  0  0
  193.2500  172.8120  144.3050 N   0  0  0  0  0  2  0  0  0  0  0  0
  193.3680  171.5120  144.6410 C   0  0  0  0  0  0  0  0  0  0  0  0
  191.9350  172.9040  144.0310 C   0  0  0  0  0  0  0  0  0  0  0  0
  195.7950  171.2330  144.4050 N   0  0  0  0  0  0  0  0  0  0  0  0
  197.0500  169.7050  145.7510 C   0  0  0  0  0  3  0  0  0  0  0  0
  194.6350  170.8800  145.0320 C   0  0  0  0  0  0  0  0  0  0  0  0
  195.8760  169.3280  146.4070 C   0  0  0  0  0  3  0  0  0  0  0  0
  194.6600  169.9160  146.0500 C   0  0  0  0  0  3  0  0  0  0  0  0
  196.9900  170.6730  144.7420 C   0  0  0  0  0  3  0  0  0  0  0  0
  190.0210  177.5080  146.6380 C   0  0  2  0  0  3  0  0  0  0  0  0
  190.6260  177.5020  147.8960 O   0  0  0  0  0  1  0  0  0  0  0  0
  187.5030  177.2290  147.0720 C   0  0  0  0  0  0  0  0  0  0  0  0
  187.3960  178.3380  147.6520 O   0  0  0  0  0  1  0  0  0  0  0  0
  186.3790  176.4330  146.9040 O   0  0  0  0  0  0  0  0  0  0  0  0
  188.7770  176.7430  146.6390 N   0  0  0  0  0  2  0  0  0  0  0  0
  187.1820  176.1430  142.3450 C   0  0  1  0  0  3  0  0  0  0  0  0
  186.5840  177.3110  143.1260 C   0  0  0  0  0  3  0  0  0  0  0  0
  185.4540  176.8080  144.0020 C   0  0  0  0  0  2  0  0  0  0  0  0
  185.1400  177.5290  142.7120 C   0  0  0  0  0  2  0  0  0  0  0  0
  187.4930  176.5610  140.9140 C   0  0  0  0  0  2  0  0  0  0  0  0
  187.8030  177.9220  140.8750 O   0  0  0  0  0  1  0  0  0  0  0  0
  190.7210  173.0790  141.3580 C   0  0  0  0  0  2  0  0  0  0  0  0
  190.6350  173.9540  140.1200 C   0  0  0  0  0  2  0  0  0  0  0  0
  189.7900  173.3000  139.0340 C   0  0  2  0  0  3  0  0  0  0  0  0
  189.2920  171.9510  139.5380 C   0  0  0  0  0  1  0  0  0  0  0  0
  189.8360  173.3850  136.5050 C   0  0  0  0  0  0  0  0  0  0  0  0
  189.2690  174.3590  136.0370 O   0  0  0  0  0  0  0  0  0  0  0  0
  190.6350  173.0960  137.7720 C   0  0  2  0  0  3  0  0  0  0  0  0
  190.9290  171.6490  137.5370 C   0  0  1  0  0  3  0  0  0  0  0  0
  190.1070  171.6610  135.9660 S   0  0  0  0  0  0  0  0  0  0  0  0
  192.4090  171.4160  137.3860 C   0  0  0  0  0  0  0  0  0  0  0  0
  192.9260  171.4180  136.2790 O   0  0  0  0  0  0  0  0  0  0  0  0
  193.2730  171.1520  138.5830 C   0  0  2  0  0  3  0  0  0  0  0  0
  192.5130  170.6530  139.6420 O   0  0  0  0  0  1  0  0  0  0  0  0
  194.1360  172.3580  138.9940 C   0  0  2  0  0  3  0  0  0  0  0  0
  196.5560  172.2670  139.1170 O   0  0  0  0  0  1  0  0  0  0  0  0
  195.4780  172.3980  138.2340 C   0  0  2  0  0  3  0  0  0  0  0  0
  195.7560  173.4030  135.9080 C   0  0  0  0  0  2  0  0  0  0  0  0
  197.7440  175.1110  136.9090 C   0  0  0  0  0  2  0  0  0  0  0  0
  195.6600  173.6810  137.4180 C   0  0  2  0  0  3  0  0  0  0  0  0
  196.7960  174.5610  137.9780 C   0  0  0  0  0  2  0  0  0  0  0  0
  197.1180  176.2040  136.0380 C   0  0  0  0  0  2  0  0  0  0  0  0
  195.6440  175.9720  135.6870 C   0  0  1  0  0  3  0  0  0  0  0  0
  195.2020  176.9870  134.8400 O   0  0  0  0  0  1  0  0  0  0  0  0
  195.3610  174.6080  135.0460 C   0  0  0  0  0  2  0  0  0  0  0  0
  194.2620  172.5310  140.5160 C   0  0  0  0  0  2  0  0  0  0  0  0
  194.2800  173.9930  140.9490 C   0  0  0  0  0  2  0  0  0  0  0  0
  195.3930  174.2240  141.9560 C   0  0  0  0  0  2  0  0  0  0  0  0
  196.1210  175.4860  141.6360 C   0  0  0  0  0  0  0  0  0  0  0  0
  195.5200  176.4530  140.8420 O   0  0  0  0  0  0  0  0  0  0  0  0
  197.2670  175.6910  142.1170 O   0  0  0  0  0  1  0  0  0  0  0  0
  2 15  1  1  0  0  0
  2  4  1  0  0  0  0
  4  6  1  1  0  0  0
  5  1  1  0  0  0  0
  5 22  1  1  0  0  0
  6  1  1  0  0  0  0
  7 34  1  6  0  0  0
  7  2  1  0  0  0  0
  8 28  1  6  0  0  0
  8  3  1  0  0  0  0
  9  7  1  0  0  0  0
  9  8  1  0  0  0  0
 10  3  1  1  0  0  0
 10  4  1  0  0  0  0
 10  5  1  0  0  0  0
 11 12  1  0  0  0  0
 12 14  2  0  0  0  0
 13 14  1  0  0  0  0
 14 18  1  0  0  0  0
 15 11  2  0  0  0  0
 15 13  1  0  0  0  0
 16 21  2  0  0  0  0
 16 18  1  0  0  0  0
 17 19  2  0  0  0  0
 18 20  2  0  0  0  0
 20 19  1  0  0  0  0
 21 17  1  0  0  0  0
 22 27  1  0  0  0  0
 22 23  1  1  0  0  0
 24 25  1  0  0  0  0
 26 24  2  0  0  0  0
 27 24  1  0  0  0  0
 28 32  1  6  0  0  0
 28 29  1  0  0  0  0
 29 30  1  0  0  0  0
 31 29  1  0  0  0  0
 31 30  1  0  0  0  0
 33 32  1  0  0  0  0
 35 34  1  0  0  0  0
 36 37  1  1  0  0  0
 36 35  1  0  0  0  0
 38 40  1  0  0  0  0
 39 38  2  0  0  0  0
 40 36  1  1  0  0  0
 41 43  1  6  0  0  0
 41 40  1  0  0  0  0
 42 38  1  0  0  0  0
 42 41  1  0  0  0  0
 43 45  1  0  0  0  0
 44 43  2  0  0  0  0
 45 47  1  0  0  0  0
 45 46  1  1  0  0  0
 47 58  1  1  0  0  0
 49 47  1  0  0  0  0
 49 48  1  1  0  0  0
 50 52  1  0  0  0  0
 51 53  1  0  0  0  0
 52 53  1  0  0  0  0
 52 49  1  1  0  0  0
 54 51  1  0  0  0  0
 55 56  1  6  0  0  0
 55 54  1  0  0  0  0
 57 55  1  0  0  0  0
 57 50  1  0  0  0  0
 58 59  1  0  0  0  0
 59 60  1  0  0  0  0
 61 60  1  0  0  0  0
 61 63  1  0  0  0  0
 62 61  2  0  0  0  0
M  END
>  <MODEL>
9

>  <REMARK>
 VINA RESULT:      -4.7      2.939      6.865
  Name = 
  20 active torsions:
  status: ('A' for Active; 'I' for Inactive)
    1  A    between atoms: C_4  and  C_12
    2  A    between atoms: C_4  and  C_36
    3  A    between atoms: C_7  and  C_60
    4  A    between atoms: C_8  and  C_22
    5  A    between atoms: C_8  and  C_31
    6  A    between atoms: C_12  and  C_23
    7  A    between atoms: C_13  and  C_22
    8  A    between atoms: C_13  and  C_30
    9  A    between atoms: C_14  and  C_15
   10  A    between atoms: C_14  and  C_38
   11  A    between atoms: C_14  and  C_49
   12  A    between atoms: C_16  and  C_29
   13  A    between atoms: C_16  and  N_58
   14  A    between atoms: C_21  and  C_54
   15  A    between atoms: C_22  and  C_25
   16  A    between atoms: C_23  and  C_46
   17  A    between atoms: C_25  and  C_62
   18  A    between atoms: C_31  and  C_41
   19  A    between atoms: C_39  and  C_59
   20  A    between atoms: C_54  and  C_62
                            x       y       z     vdW  Elec       q    Type
                         _______ _______ _______ _____ _____    ______ ____

>  <TORSDO>
F 20

$$$$
