=
 OpenBabel11062420083D

 35 37  0  0  1  0  0  0  0  0999 V2000
  188.9850  176.1740  143.3020 C   0  0  0  0  0  0  0  0  0  0  0  0
  189.3670  174.7350  143.3410 C   0  0  0  0  0  2  0  0  0  0  0  0
  189.0870  174.2630  141.9050 C   0  0  2  0  0  3  0  0  0  0  0  0
  188.6260  176.5080  142.0750 C   0  0  0  0  0  0  0  0  0  0  0  0
  188.6490  175.4260  141.2220 O   0  0  0  0  0  0  0  0  0  0  0  0
  188.0030  173.1900  141.8660 C   0  0  0  0  0  0  0  0  0  0  0  0
  188.3220  172.1430  142.7150 F   0  0  0  0  0  0  0  0  0  0  0  0
  187.8650  172.7060  140.5800 F   0  0  0  0  0  0  0  0  0  0  0  0
  186.8010  173.7490  142.2670 F   0  0  0  0  0  0  0  0  0  0  0  0
  190.2530  177.7770  144.7400 C   0  0  0  0  0  3  0  0  0  0  0  0
  189.1540  177.0760  144.4530 C   0  0  0  0  0  3  0  0  0  0  0  0
  191.4660  177.8130  143.8790 C   0  0  0  0  0  2  0  0  0  0  0  0
  192.5810  177.4220  144.6260 O   0  0  0  0  0  0  0  0  0  0  0  0
  192.7950  176.0630  144.3320 C   0  0  2  0  0  0  0  0  0  0  0  0
  194.0700  175.4540  144.8780 C   0  0  0  0  0  2  0  0  0  0  0  0
  192.3190  175.5480  143.1360 F   0  0  0  0  0  0  0  0  0  0  0  0
  192.7240  175.1050  145.5110 C   0  0  1  0  0  3  0  0  0  0  0  0
  192.6070  175.8260  146.8510 C   0  0  0  0  0  2  0  0  0  0  0  0
  191.4290  174.8620  148.6850 F   0  0  0  0  0  0  0  0  0  0  0  0
  191.2570  175.5590  147.5030 C   0  0  0  0  0  0  0  0  0  0  0  0
  190.6180  176.7580  147.7610 F   0  0  0  0  0  0  0  0  0  0  0  0
  190.4780  174.8080  146.6440 F   0  0  0  0  0  0  0  0  0  0  0  0
  188.2920  177.8300  141.6460 N   0  0  0  0  0  2  0  0  0  0  0  0
  187.0800  178.4940  142.0930 C   0  0  0  0  0  2  0  0  0  0  0  0
  185.8640  177.6010  141.8600 C   0  0  2  0  0  3  0  0  0  0  0  0
  185.8140  177.4100  139.4720 O   0  0  0  0  0  0  0  0  0  0  0  0
  185.2690  177.8600  140.5150 C   0  0  0  0  0  0  0  0  0  0  0  0
  184.0860  178.5790  140.4180 O   0  0  0  0  0  1  0  0  0  0  0  0
  184.8290  177.8160  142.9540 C   0  0  0  0  0  2  0  0  0  0  0  0
  184.7380  179.4040  144.7170 O   0  0  0  0  0  1  0  0  0  0  0  0
  185.4800  178.3260  144.2280 C   0  0  1  0  0  3  0  0  0  0  0  0
  184.5770  177.5370  146.3550 N   0  0  0  0  0  2  0  0  0  0  0  0
  185.5170  177.2250  145.2740 C   0  0  2  0  0  3  0  0  0  0  0  0
  186.5500  176.7140  147.3010 O   0  0  0  0  0  1  0  0  0  0  0  0
  186.0170  177.7530  146.5390 C   0  0  2  0  0  3  0  0  0  0  0  0
  1  2  1  0  0  0  0
  1 11  1  0  0  0  0
  3  6  1  1  0  0  0
  3  2  1  0  0  0  0
  4  1  2  0  0  0  0
  5  3  1  0  0  0  0
  5  4  1  0  0  0  0
  6  9  1  0  0  0  0
  6  7  1  0  0  0  0
  8  6  1  0  0  0  0
 11 10  2  0  0  0  0
 12 13  1  0  0  0  0
 12 10  1  0  0  0  0
 14 16  1  6  0  0  0
 14 13  1  0  0  0  0
 14 15  1  0  0  0  0
 14 17  1  0  0  0  0
 15 17  1  0  0  0  0
 17 18  1  1  0  0  0
 18 20  1  0  0  0  0
 20 21  1  0  0  0  0
 20 19  1  0  0  0  0
 22 20  1  0  0  0  0
 23  4  1  0  0  0  0
 23 24  1  0  0  0  0
 25 24  1  1  0  0  0
 25 29  1  0  0  0  0
 26 27  2  0  0  0  0
 27 25  1  0  0  0  0
 28 27  1  0  0  0  0
 29 31  1  0  0  0  0
 31 30  1  1  0  0  0
 32 35  1  0  0  0  0
 33 31  1  6  0  0  0
 33 32  1  0  0  0  0
 33 35  1  0  0  0  0
 35 34  1  1  0  0  0
M  END
>  <MODEL>
1

>  <REMARK>
 VINA RESULT:      -6.7      0.000      0.000
  Name = 
  14 active torsions:
  status: ('A' for Active; 'I' for Inactive)
    1  A    between atoms: C_1  and  O_3
    2  A    between atoms: O_3  and  C_18
    3  A    between atoms: C_4  and  C_18
    4  A    between atoms: C_5  and  C_11
    5  A    between atoms: C_9  and  C_34
    6  A    between atoms: C_12  and  C_28
    7  A    between atoms: C_12  and  C_34
    8  A    between atoms: C_13  and  C_23
    9  A    between atoms: C_19  and  C_21
   10  A    between atoms: C_19  and  C_31
   11  A    between atoms: C_22  and  N_27
   12  A    between atoms: C_22  and  C_28
   13  A    between atoms: C_25  and  C_28
   14  A    between atoms: C_26  and  N_27
                            x       y       z     vdW  Elec       q    Type
                         _______ _______ _______ _____ _____    ______ ____

>  <TORSDO>
F 14

$$$$
=
 OpenBabel11062420083D

 35 37  0  0  1  0  0  0  0  0999 V2000
  190.7050  175.3150  146.2410 C   0  0  0  0  0  0  0  0  0  0  0  0
  191.5060  176.4780  146.7160 C   0  0  0  0  0  2  0  0  0  0  0  0
  192.5740  176.6320  145.6210 C   0  0  2  0  0  3  0  0  0  0  0  0
  191.1560  174.9110  145.0670 C   0  0  0  0  0  0  0  0  0  0  0  0
  192.2590  175.6330  144.6650 O   0  0  0  0  0  0  0  0  0  0  0  0
  193.9800  176.4100  146.1700 C   0  0  0  0  0  0  0  0  0  0  0  0
  194.2530  177.3080  147.1890 F   0  0  0  0  0  0  0  0  0  0  0  0
  194.9110  176.5710  145.1620 F   0  0  0  0  0  0  0  0  0  0  0  0
  194.0720  175.1200  146.6650 F   0  0  0  0  0  0  0  0  0  0  0  0
  188.3460  175.4890  147.0460 C   0  0  0  0  0  3  0  0  0  0  0  0
  189.5040  174.8340  146.9430 C   0  0  0  0  0  3  0  0  0  0  0  0
  188.0650  176.7920  146.3850 C   0  0  0  0  0  2  0  0  0  0  0  0
  186.9780  176.6500  145.5180 O   0  0  0  0  0  0  0  0  0  0  0  0
  185.8630  177.1780  146.1940 C   0  0  2  0  0  0  0  0  0  0  0  0
  185.9650  178.6290  146.6190 C   0  0  0  0  0  2  0  0  0  0  0  0
  185.1030  176.3430  146.9970 F   0  0  0  0  0  0  0  0  0  0  0  0
  185.0690  178.2380  145.4450 C   0  0  1  0  0  3  0  0  0  0  0  0
  185.7410  178.6710  144.1460 C   0  0  0  0  0  2  0  0  0  0  0  0
  183.6630  178.2870  143.0430 F   0  0  0  0  0  0  0  0  0  0  0  0
  185.0270  178.0850  142.9350 C   0  0  0  0  0  0  0  0  0  0  0  0
  185.4930  178.6870  141.7810 F   0  0  0  0  0  0  0  0  0  0  0  0
  185.2810  176.7280  142.8710 F   0  0  0  0  0  0  0  0  0  0  0  0
  190.5660  173.8830  144.2680 N   0  0  0  0  0  2  0  0  0  0  0  0
  190.4910  173.9890  142.8210 C   0  0  0  0  0  2  0  0  0  0  0  0
  189.1060  173.5770  142.3260 C   0  0  2  0  0  3  0  0  0  0  0  0
  188.1180  172.7920  140.2900 O   0  0  0  0  0  1  0  0  0  0  0  0
  189.1600  173.1630  140.8920 C   0  0  0  0  0  0  0  0  0  0  0  0
  190.3670  173.2190  140.2100 O   0  0  0  0  0  0  0  0  0  0  0  0
  188.1130  174.7120  142.5190 C   0  0  0  0  0  2  0  0  0  0  0  0
  187.5860  176.2150  140.7580 O   0  0  0  0  0  1  0  0  0  0  0  0
  188.5390  175.9470  141.7420 C   0  0  1  0  0  3  0  0  0  0  0  0
  188.9640  178.3460  141.9030 N   0  0  0  0  0  2  0  0  0  0  0  0
  188.6480  177.1400  142.6760 C   0  0  2  0  0  3  0  0  0  0  0  0
  190.2550  178.3530  143.8520 O   0  0  0  0  0  1  0  0  0  0  0  0
  190.0120  177.6590  142.6660 C   0  0  2  0  0  3  0  0  0  0  0  0
  1  2  1  0  0  0  0
  1 11  1  0  0  0  0
  3  6  1  1  0  0  0
  3  2  1  0  0  0  0
  4  1  2  0  0  0  0
  5  4  1  0  0  0  0
  5  3  1  0  0  0  0
  6  9  1  0  0  0  0
  6  7  1  0  0  0  0
  8  6  1  0  0  0  0
 11 10  2  0  0  0  0
 12 10  1  0  0  0  0
 13 14  1  0  0  0  0
 13 12  1  0  0  0  0
 14 15  1  0  0  0  0
 14 16  1  1  0  0  0
 17 18  1  6  0  0  0
 17 14  1  0  0  0  0
 17 15  1  0  0  0  0
 20 19  1  0  0  0  0
 20 18  1  0  0  0  0
 21 20  1  0  0  0  0
 22 20  1  0  0  0  0
 23  4  1  0  0  0  0
 24 23  1  0  0  0  0
 25 29  1  6  0  0  0
 25 24  1  0  0  0  0
 26 27  1  0  0  0  0
 27 25  1  0  0  0  0
 28 27  2  0  0  0  0
 31 30  1  6  0  0  0
 31 29  1  0  0  0  0
 32 35  1  0  0  0  0
 32 33  1  0  0  0  0
 33 31  1  6  0  0  0
 35 33  1  0  0  0  0
 35 34  1  1  0  0  0
M  END
>  <MODEL>
2

>  <REMARK>
 VINA RESULT:      -6.6      2.665      6.571
  Name = 
  14 active torsions:
  status: ('A' for Active; 'I' for Inactive)
    1  A    between atoms: C_1  and  O_3
    2  A    between atoms: O_3  and  C_18
    3  A    between atoms: C_4  and  C_18
    4  A    between atoms: C_5  and  C_11
    5  A    between atoms: C_9  and  C_34
    6  A    between atoms: C_12  and  C_28
    7  A    between atoms: C_12  and  C_34
    8  A    between atoms: C_13  and  C_23
    9  A    between atoms: C_19  and  C_21
   10  A    between atoms: C_19  and  C_31
   11  A    between atoms: C_22  and  N_27
   12  A    between atoms: C_22  and  C_28
   13  A    between atoms: C_25  and  C_28
   14  A    between atoms: C_26  and  N_27
                            x       y       z     vdW  Elec       q    Type
                         _______ _______ _______ _____ _____    ______ ____

>  <TORSDO>
F 14

$$$$
=
 OpenBabel11062420083D

 35 37  0  0  1  0  0  0  0  0999 V2000
  189.6150  176.3170  142.9960 C   0  0  0  0  0  0  0  0  0  0  0  0
  190.8990  175.7150  142.5400 C   0  0  0  0  0  2  0  0  0  0  0  0
  190.4440  174.4430  141.8070 C   0  0  2  0  0  3  0  0  0  0  0  0
  188.6010  175.5930  142.5560 C   0  0  0  0  0  0  0  0  0  0  0  0
  189.0280  174.4750  141.8720 O   0  0  0  0  0  0  0  0  0  0  0  0
  190.9730  173.1830  142.4850 C   0  0  0  0  0  0  0  0  0  0  0  0
  190.0800  172.7320  143.4420 F   0  0  0  0  0  0  0  0  0  0  0  0
  192.1890  173.4460  143.0860 F   0  0  0  0  0  0  0  0  0  0  0  0
  191.1500  172.1970  141.5290 F   0  0  0  0  0  0  0  0  0  0  0  0
  189.4660  177.7820  145.0150 C   0  0  0  0  0  3  0  0  0  0  0  0
  189.5440  177.6110  143.6930 C   0  0  0  0  0  3  0  0  0  0  0  0
  189.5220  176.6700  146.0020 C   0  0  0  0  0  2  0  0  0  0  0  0
  190.6540  176.8200  146.8080 O   0  0  0  0  0  0  0  0  0  0  0  0
  191.0750  175.5190  147.1400 C   0  0  2  0  0  0  0  0  0  0  0  0
  191.1750  174.5350  145.9930 C   0  0  0  0  0  2  0  0  0  0  0  0
  190.7470  175.0000  148.3820 F   0  0  0  0  0  0  0  0  0  0  0  0
  192.4450  175.1090  146.6200 C   0  0  1  0  0  3  0  0  0  0  0  0
  193.0460  176.1360  145.6660 C   0  0  0  0  0  2  0  0  0  0  0  0
  195.1010  177.2070  145.1100 F   0  0  0  0  0  0  0  0  0  0  0  0
  194.4180  176.5930  146.1440 C   0  0  0  0  0  0  0  0  0  0  0  0
  194.2750  177.4800  147.1940 F   0  0  0  0  0  0  0  0  0  0  0  0
  195.1390  175.4950  146.5730 F   0  0  0  0  0  0  0  0  0  0  0  0
  187.2200  175.9260  142.7190 N   0  0  0  0  0  2  0  0  0  0  0  0
  186.5440  176.8390  141.8140 C   0  0  0  0  0  2  0  0  0  0  0  0
  185.5390  177.6990  142.5760 C   0  0  2  0  0  3  0  0  0  0  0  0
  183.2250  178.1700  142.1720 O   0  0  0  0  0  1  0  0  0  0  0  0
  184.3870  178.0670  141.6980 C   0  0  0  0  0  0  0  0  0  0  0  0
  184.6080  178.3250  140.3530 O   0  0  0  0  0  0  0  0  0  0  0  0
  186.2140  178.9470  143.1230 C   0  0  0  0  0  2  0  0  0  0  0  0
  184.6440  179.9030  144.6260 O   0  0  0  0  0  1  0  0  0  0  0  0
  185.8360  179.1780  144.5770 C   0  0  1  0  0  3  0  0  0  0  0  0
  184.4820  177.9230  146.1740 N   0  0  0  0  0  2  0  0  0  0  0  0
  185.6460  177.8480  145.2860 C   0  0  2  0  0  3  0  0  0  0  0  0
  186.1970  176.7920  147.2900 O   0  0  0  0  0  1  0  0  0  0  0  0
  185.8400  178.0150  146.7220 C   0  0  2  0  0  3  0  0  0  0  0  0
  1 11  1  0  0  0  0
  2  1  1  0  0  0  0
  3  5  1  0  0  0  0
  3  6  1  1  0  0  0
  3  2  1  0  0  0  0
  4 23  1  0  0  0  0
  4  1  2  0  0  0  0
  5  4  1  0  0  0  0
  6  8  1  0  0  0  0
  6  7  1  0  0  0  0
  9  6  1  0  0  0  0
 10 12  1  0  0  0  0
 11 10  2  0  0  0  0
 12 13  1  0  0  0  0
 13 14  1  0  0  0  0
 14 16  1  1  0  0  0
 15 17  1  0  0  0  0
 15 14  1  0  0  0  0
 17 18  1  6  0  0  0
 17 14  1  0  0  0  0
 18 20  1  0  0  0  0
 19 20  1  0  0  0  0
 20 22  1  0  0  0  0
 20 21  1  0  0  0  0
 24 23  1  0  0  0  0
 25 24  1  6  0  0  0
 25 29  1  0  0  0  0
 27 26  1  0  0  0  0
 27 25  1  0  0  0  0
 28 27  2  0  0  0  0
 29 31  1  0  0  0  0
 31 30  1  6  0  0  0
 32 35  1  0  0  0  0
 33 31  1  6  0  0  0
 33 32  1  0  0  0  0
 33 35  1  0  0  0  0
 35 34  1  1  0  0  0
M  END
>  <MODEL>
3

>  <REMARK>
 VINA RESULT:      -6.5      1.841      2.714
  Name = 
  14 active torsions:
  status: ('A' for Active; 'I' for Inactive)
    1  A    between atoms: C_1  and  O_3
    2  A    between atoms: O_3  and  C_18
    3  A    between atoms: C_4  and  C_18
    4  A    between atoms: C_5  and  C_11
    5  A    between atoms: C_9  and  C_34
    6  A    between atoms: C_12  and  C_28
    7  A    between atoms: C_12  and  C_34
    8  A    between atoms: C_13  and  C_23
    9  A    between atoms: C_19  and  C_21
   10  A    between atoms: C_19  and  C_31
   11  A    between atoms: C_22  and  N_27
   12  A    between atoms: C_22  and  C_28
   13  A    between atoms: C_25  and  C_28
   14  A    between atoms: C_26  and  N_27
                            x       y       z     vdW  Elec       q    Type
                         _______ _______ _______ _____ _____    ______ ____

>  <TORSDO>
F 14

$$$$
=
 OpenBabel11062420083D

 35 37  0  0  1  0  0  0  0  0999 V2000
  192.6160  175.5990  145.9590 C   0  0  0  0  0  0  0  0  0  0  0  0
  193.9040  176.3390  146.0790 C   0  0  0  0  0  2  0  0  0  0  0  0
  194.2460  176.6770  144.6190 C   0  0  2  0  0  3  0  0  0  0  0  0
  192.2330  175.5710  144.6950 C   0  0  0  0  0  0  0  0  0  0  0  0
  193.1570  176.1700  143.8660 O   0  0  0  0  0  0  0  0  0  0  0  0
  195.5460  176.0120  144.1770 C   0  0  0  0  0  0  0  0  0  0  0  0
  196.4800  176.9650  143.8080 F   0  0  0  0  0  0  0  0  0  0  0  0
  195.3060  175.1730  143.1060 F   0  0  0  0  0  0  0  0  0  0  0  0
  196.0510  175.2660  145.2290 F   0  0  0  0  0  0  0  0  0  0  0  0
  191.0410  175.8750  147.8790 C   0  0  0  0  0  3  0  0  0  0  0  0
  191.8540  175.1300  147.1270 C   0  0  0  0  0  3  0  0  0  0  0  0
  190.7150  177.2990  147.5930 C   0  0  0  0  0  2  0  0  0  0  0  0
  189.3280  177.4700  147.5980 O   0  0  0  0  0  0  0  0  0  0  0  0
  188.9110  177.3420  146.2600 C   0  0  2  0  0  0  0  0  0  0  0  0
  188.0390  176.1440  145.9430 C   0  0  0  0  0  2  0  0  0  0  0  0
  189.7410  177.7960  145.2480 F   0  0  0  0  0  0  0  0  0  0  0  0
  187.4250  177.5420  146.0030 C   0  0  1  0  0  3  0  0  0  0  0  0
  186.6150  177.6710  147.2890 C   0  0  0  0  0  2  0  0  0  0  0  0
  184.4760  178.6390  147.6970 F   0  0  0  0  0  0  0  0  0  0  0  0
  185.7610  178.9320  147.2780 C   0  0  0  0  0  0  0  0  0  0  0  0
  186.3170  179.8800  148.1160 F   0  0  0  0  0  0  0  0  0  0  0  0
  185.7140  179.4370  145.9920 F   0  0  0  0  0  0  0  0  0  0  0  0
  190.9960  175.0320  144.2220 N   0  0  0  0  0  2  0  0  0  0  0  0
  190.5890  175.1600  142.8340 C   0  0  0  0  0  2  0  0  0  0  0  0
  189.0810  174.9680  142.6980 C   0  0  2  0  0  3  0  0  0  0  0  0
  189.0280  172.6000  143.0570 O   0  0  0  0  0  1  0  0  0  0  0  0
  188.7620  173.5660  142.2930 C   0  0  0  0  0  0  0  0  0  0  0  0
  188.1400  173.3310  141.0760 O   0  0  0  0  0  0  0  0  0  0  0  0
  188.5060  175.9580  141.6970 C   0  0  0  0  0  2  0  0  0  0  0  0
  189.2360  178.1830  142.0910 O   0  0  0  0  0  1  0  0  0  0  0  0
  188.1980  177.2890  142.3630 C   0  0  1  0  0  3  0  0  0  0  0  0
  186.4030  178.9040  142.7230 N   0  0  0  0  0  2  0  0  0  0  0  0
  186.8940  177.8540  141.8250 C   0  0  2  0  0  3  0  0  0  0  0  0
  184.5910  177.5810  142.0650 O   0  0  0  0  0  1  0  0  0  0  0  0
  185.8050  177.5640  142.7520 C   0  0  2  0  0  3  0  0  0  0  0  0
  1  2  1  0  0  0  0
  1 11  1  0  0  0  0
  3  6  1  6  0  0  0
  3  2  1  0  0  0  0
  4  1  2  0  0  0  0
  5  3  1  0  0  0  0
  5  4  1  0  0  0  0
  6  9  1  0  0  0  0
  7  6  1  0  0  0  0
  8  6  1  0  0  0  0
 11 10  2  0  0  0  0
 12 13  1  0  0  0  0
 12 10  1  0  0  0  0
 14 16  1  6  0  0  0
 14 13  1  0  0  0  0
 15 17  1  0  0  0  0
 15 14  1  0  0  0  0
 17 14  1  0  0  0  0
 17 18  1  1  0  0  0
 20 18  1  0  0  0  0
 20 19  1  0  0  0  0
 20 21  1  0  0  0  0
 22 20  1  0  0  0  0
 23  4  1  0  0  0  0
 24 23  1  0  0  0  0
 25 29  1  6  0  0  0
 25 24  1  0  0  0  0
 27 25  1  0  0  0  0
 27 26  1  0  0  0  0
 28 27  2  0  0  0  0
 29 31  1  0  0  0  0
 31 30  1  6  0  0  0
 32 35  1  0  0  0  0
 33 31  1  1  0  0  0
 33 32  1  0  0  0  0
 33 35  1  0  0  0  0
 35 34  1  6  0  0  0
M  END
>  <MODEL>
4

>  <REMARK>
 VINA RESULT:      -6.5      2.813      5.818
  Name = 
  14 active torsions:
  status: ('A' for Active; 'I' for Inactive)
    1  A    between atoms: C_1  and  O_3
    2  A    between atoms: O_3  and  C_18
    3  A    between atoms: C_4  and  C_18
    4  A    between atoms: C_5  and  C_11
    5  A    between atoms: C_9  and  C_34
    6  A    between atoms: C_12  and  C_28
    7  A    between atoms: C_12  and  C_34
    8  A    between atoms: C_13  and  C_23
    9  A    between atoms: C_19  and  C_21
   10  A    between atoms: C_19  and  C_31
   11  A    between atoms: C_22  and  N_27
   12  A    between atoms: C_22  and  C_28
   13  A    between atoms: C_25  and  C_28
   14  A    between atoms: C_26  and  N_27
                            x       y       z     vdW  Elec       q    Type
                         _______ _______ _______ _____ _____    ______ ____

>  <TORSDO>
F 14

$$$$
=
 OpenBabel11062420083D

 35 37  0  0  1  0  0  0  0  0999 V2000
  191.8040  176.7150  144.2210 C   0  0  0  0  0  0  0  0  0  0  0  0
  193.1220  177.0120  144.8500 C   0  0  0  0  0  2  0  0  0  0  0  0
  193.8880  175.6890  144.6890 C   0  0  2  0  0  3  0  0  0  0  0  0
  191.8140  175.4920  143.7200 C   0  0  0  0  0  0  0  0  0  0  0  0
  192.9990  174.8400  143.9810 O   0  0  0  0  0  0  0  0  0  0  0  0
  194.2390  175.0730  146.0410 C   0  0  0  0  0  0  0  0  0  0  0  0
  193.1930  174.2950  146.5080 F   0  0  0  0  0  0  0  0  0  0  0  0
  194.5070  176.0710  146.9570 F   0  0  0  0  0  0  0  0  0  0  0  0
  195.3650  174.2810  145.8960 F   0  0  0  0  0  0  0  0  0  0  0  0
  189.7540  177.9510  144.9370 C   0  0  0  0  0  3  0  0  0  0  0  0
  190.7450  177.7260  144.0720 C   0  0  0  0  0  3  0  0  0  0  0  0
  189.6160  177.2540  146.2450 C   0  0  0  0  0  2  0  0  0  0  0  0
  188.4510  177.6880  146.8840 O   0  0  0  0  0  0  0  0  0  0  0  0
  187.5210  176.6400  146.7610 C   0  0  2  0  0  0  0  0  0  0  0  0
  186.2950  176.7270  147.6470 C   0  0  0  0  0  2  0  0  0  0  0  0
  187.9740  175.3700  146.4430 F   0  0  0  0  0  0  0  0  0  0  0  0
  186.1780  177.0080  146.1500 C   0  0  1  0  0  3  0  0  0  0  0  0
  186.0160  178.5110  145.9410 C   0  0  0  0  0  2  0  0  0  0  0  0
  184.3030  179.6640  144.7510 F   0  0  0  0  0  0  0  0  0  0  0  0
  185.3820  178.8140  144.5900 C   0  0  0  0  0  0  0  0  0  0  0  0
  186.3150  179.4040  143.7580 F   0  0  0  0  0  0  0  0  0  0  0  0
  184.9470  177.6340  144.0180 F   0  0  0  0  0  0  0  0  0  0  0  0
  190.7550  174.9070  142.9580 N   0  0  0  0  0  2  0  0  0  0  0  0
  189.4820  174.5580  143.5640 C   0  0  0  0  0  2  0  0  0  0  0  0
  188.3590  174.6360  142.5320 C   0  0  2  0  0  3  0  0  0  0  0  0
  188.1700  172.2500  142.4270 O   0  0  0  0  0  1  0  0  0  0  0  0
  188.2240  173.3410  141.8000 C   0  0  0  0  0  0  0  0  0  0  0  0
  188.1270  173.3460  140.4160 O   0  0  0  0  0  0  0  0  0  0  0  0
  188.6100  175.7780  141.5590 C   0  0  0  0  0  2  0  0  0  0  0  0
  188.4120  178.1430  141.4950 O   0  0  0  0  0  1  0  0  0  0  0  0
  187.7480  176.9820  141.8980 C   0  0  1  0  0  3  0  0  0  0  0  0
  186.5620  177.3620  139.7970 N   0  0  0  0  0  2  0  0  0  0  0  0
  186.4140  176.8900  141.1780 C   0  0  2  0  0  3  0  0  0  0  0  0
  184.5620  178.2100  140.6620 O   0  0  0  0  0  1  0  0  0  0  0  0
  185.9480  178.2240  140.8140 C   0  0  2  0  0  3  0  0  0  0  0  0
  1  2  1  0  0  0  0
  3  2  1  0  0  0  0
  3  6  1  1  0  0  0
  4  5  1  0  0  0  0
  4  1  2  0  0  0  0
  5  3  1  0  0  0  0
  6  7  1  0  0  0  0
  6  8  1  0  0  0  0
  9  6  1  0  0  0  0
 10 12  1  0  0  0  0
 11  1  1  0  0  0  0
 11 10  2  0  0  0  0
 12 13  1  0  0  0  0
 14 16  1  6  0  0  0
 14 13  1  0  0  0  0
 14 15  1  0  0  0  0
 17 18  1  1  0  0  0
 17 14  1  0  0  0  0
 17 15  1  0  0  0  0
 20 19  1  0  0  0  0
 20 18  1  0  0  0  0
 21 20  1  0  0  0  0
 22 20  1  0  0  0  0
 23 24  1  0  0  0  0
 23  4  1  0  0  0  0
 25 29  1  6  0  0  0
 25 24  1  0  0  0  0
 27 26  1  0  0  0  0
 27 25  1  0  0  0  0
 28 27  2  0  0  0  0
 29 31  1  0  0  0  0
 31 30  1  6  0  0  0
 32 35  1  0  0  0  0
 32 33  1  0  0  0  0
 33 31  1  1  0  0  0
 35 34  1  6  0  0  0
 35 33  1  0  0  0  0
M  END
>  <MODEL>
5

>  <REMARK>
 VINA RESULT:      -6.4      2.685      6.008
  Name = 
  14 active torsions:
  status: ('A' for Active; 'I' for Inactive)
    1  A    between atoms: C_1  and  O_3
    2  A    between atoms: O_3  and  C_18
    3  A    between atoms: C_4  and  C_18
    4  A    between atoms: C_5  and  C_11
    5  A    between atoms: C_9  and  C_34
    6  A    between atoms: C_12  and  C_28
    7  A    between atoms: C_12  and  C_34
    8  A    between atoms: C_13  and  C_23
    9  A    between atoms: C_19  and  C_21
   10  A    between atoms: C_19  and  C_31
   11  A    between atoms: C_22  and  N_27
   12  A    between atoms: C_22  and  C_28
   13  A    between atoms: C_25  and  C_28
   14  A    between atoms: C_26  and  N_27
                            x       y       z     vdW  Elec       q    Type
                         _______ _______ _______ _____ _____    ______ ____

>  <TORSDO>
F 14

$$$$
=
 OpenBabel11062420083D

 35 37  0  0  1  0  0  0  0  0999 V2000
  189.4910  174.7730  145.4620 C   0  0  0  0  0  0  0  0  0  0  0  0
  190.1420  173.8090  144.5310 C   0  0  0  0  0  2  0  0  0  0  0  0
  189.7400  174.3390  143.1460 C   0  0  2  0  0  3  0  0  0  0  0  0
  188.8900  175.7250  144.7690 C   0  0  0  0  0  0  0  0  0  0  0  0
  188.9880  175.5120  143.4120 O   0  0  0  0  0  0  0  0  0  0  0  0
  188.8880  173.3290  142.3820 C   0  0  0  0  0  0  0  0  0  0  0  0
  188.5710  172.2490  143.1890 F   0  0  0  0  0  0  0  0  0  0  0  0
  189.5740  172.8800  141.2710 F   0  0  0  0  0  0  0  0  0  0  0  0
  187.7190  173.9460  141.9690 F   0  0  0  0  0  0  0  0  0  0  0  0
  190.5610  175.3910  147.6340 C   0  0  0  0  0  3  0  0  0  0  0  0
  189.6590  174.7110  146.9220 C   0  0  0  0  0  3  0  0  0  0  0  0
  191.4930  176.3950  147.0530 C   0  0  0  0  0  2  0  0  0  0  0  0
  192.6990  175.7730  146.7180 O   0  0  0  0  0  0  0  0  0  0  0  0
  193.0980  176.3240  145.4870 C   0  0  2  0  0  0  0  0  0  0  0  0
  194.3550  177.1690  145.5090 C   0  0  0  0  0  2  0  0  0  0  0  0
  192.1300  176.6680  144.5560 F   0  0  0  0  0  0  0  0  0  0  0  0
  194.3840  175.7710  144.8930 C   0  0  1  0  0  3  0  0  0  0  0  0
  195.1150  174.8280  145.8440 C   0  0  0  0  0  2  0  0  0  0  0  0
  195.9360  172.5960  146.0040 F   0  0  0  0  0  0  0  0  0  0  0  0
  194.9650  173.3770  145.4050 C   0  0  0  0  0  0  0  0  0  0  0  0
  193.7130  172.9100  145.7580 F   0  0  0  0  0  0  0  0  0  0  0  0
  195.1050  173.3020  144.0320 F   0  0  0  0  0  0  0  0  0  0  0  0
  188.2470  176.8710  145.3330 N   0  0  0  0  0  2  0  0  0  0  0  0
  186.8100  176.9170  145.5360 C   0  0  0  0  0  2  0  0  0  0  0  0
  186.3080  178.3580  145.4840 C   0  0  2  0  0  3  0  0  0  0  0  0
  184.0510  179.0150  145.9430 O   0  0  0  0  0  0  0  0  0  0  0  0
  185.1310  178.5400  146.3850 C   0  0  0  0  0  0  0  0  0  0  0  0
  185.2210  178.1520  147.7140 O   0  0  0  0  0  1  0  0  0  0  0  0
  185.9550  178.7460  144.0560 C   0  0  0  0  0  2  0  0  0  0  0  0
  184.0680  177.9290  142.8690 O   0  0  0  0  0  1  0  0  0  0  0  0
  185.3450  177.5730  143.3070 C   0  0  1  0  0  3  0  0  0  0  0  0
  187.1620  178.2930  141.8440 N   0  0  0  0  0  2  0  0  0  0  0  0
  186.2060  177.2130  142.1090 C   0  0  2  0  0  3  0  0  0  0  0  0
  186.2970  177.5490  139.8030 O   0  0  0  0  0  1  0  0  0  0  0  0
  185.9590  178.1480  141.0170 C   0  0  2  0  0  3  0  0  0  0  0  0
  1 11  1  0  0  0  0
  2  1  1  0  0  0  0
  3  6  1  1  0  0  0
  3  5  1  0  0  0  0
  3  2  1  0  0  0  0
  4 23  1  0  0  0  0
  4  1  2  0  0  0  0
  5  4  1  0  0  0  0
  6  7  1  0  0  0  0
  8  6  1  0  0  0  0
  9  6  1  0  0  0  0
 11 10  2  0  0  0  0
 12 10  1  0  0  0  0
 13 12  1  0  0  0  0
 14 16  1  6  0  0  0
 14 15  1  0  0  0  0
 14 13  1  0  0  0  0
 17 14  1  0  0  0  0
 17 15  1  0  0  0  0
 17 18  1  1  0  0  0
 20 21  1  0  0  0  0
 20 18  1  0  0  0  0
 20 19  1  0  0  0  0
 22 20  1  0  0  0  0
 23 24  1  0  0  0  0
 25 29  1  6  0  0  0
 25 24  1  0  0  0  0
 25 27  1  0  0  0  0
 26 27  2  0  0  0  0
 27 28  1  0  0  0  0
 31 30  1  6  0  0  0
 31 29  1  0  0  0  0
 32 33  1  0  0  0  0
 33 31  1  1  0  0  0
 35 34  1  6  0  0  0
 35 32  1  0  0  0  0
 35 33  1  0  0  0  0
M  END
>  <MODEL>
6

>  <REMARK>
 VINA RESULT:      -6.3      2.020      3.880
  Name = 
  14 active torsions:
  status: ('A' for Active; 'I' for Inactive)
    1  A    between atoms: C_1  and  O_3
    2  A    between atoms: O_3  and  C_18
    3  A    between atoms: C_4  and  C_18
    4  A    between atoms: C_5  and  C_11
    5  A    between atoms: C_9  and  C_34
    6  A    between atoms: C_12  and  C_28
    7  A    between atoms: C_12  and  C_34
    8  A    between atoms: C_13  and  C_23
    9  A    between atoms: C_19  and  C_21
   10  A    between atoms: C_19  and  C_31
   11  A    between atoms: C_22  and  N_27
   12  A    between atoms: C_22  and  C_28
   13  A    between atoms: C_25  and  C_28
   14  A    between atoms: C_26  and  N_27
                            x       y       z     vdW  Elec       q    Type
                         _______ _______ _______ _____ _____    ______ ____

>  <TORSDO>
F 14

$$$$
=
 OpenBabel11062420083D

 35 37  0  0  1  0  0  0  0  0999 V2000
  189.2130  175.8950  144.1580 C   0  0  0  0  0  0  0  0  0  0  0  0
  188.2220  175.5410  143.1040 C   0  0  0  0  0  2  0  0  0  0  0  0
  188.5260  176.5550  141.9890 C   0  0  2  0  0  3  0  0  0  0  0  0
  189.9960  176.8680  143.7270 C   0  0  0  0  0  0  0  0  0  0  0  0
  189.6280  177.3050  142.4730 O   0  0  0  0  0  0  0  0  0  0  0  0
  187.3380  177.4750  141.7260 C   0  0  0  0  0  0  0  0  0  0  0  0
  186.1450  176.7930  141.8970 F   0  0  0  0  0  0  0  0  0  0  0  0
  187.3990  177.9660  140.4360 F   0  0  0  0  0  0  0  0  0  0  0  0
  187.3850  178.5370  142.6130 F   0  0  0  0  0  0  0  0  0  0  0  0
  189.0810  175.5890  146.6350 C   0  0  0  0  0  3  0  0  0  0  0  0
  189.3530  175.1330  145.4100 C   0  0  0  0  0  3  0  0  0  0  0  0
  188.5080  176.9340  146.9140 C   0  0  0  0  0  2  0  0  0  0  0  0
  187.2180  177.0110  146.3830 O   0  0  0  0  0  0  0  0  0  0  0  0
  186.3850  177.4370  147.4330 C   0  0  2  0  0  0  0  0  0  0  0  0
  186.6660  178.8160  147.9930 C   0  0  0  0  0  2  0  0  0  0  0  0
  185.8750  176.4970  148.3140 F   0  0  0  0  0  0  0  0  0  0  0  0
  185.4400  178.5850  147.1110 C   0  0  1  0  0  3  0  0  0  0  0  0
  185.6980  179.1950  145.7370 C   0  0  0  0  0  2  0  0  0  0  0  0
  183.3710  178.9030  145.3140 F   0  0  0  0  0  0  0  0  0  0  0  0
  184.6230  178.7820  144.7400 C   0  0  0  0  0  0  0  0  0  0  0  0
  184.6960  179.5820  143.6160 F   0  0  0  0  0  0  0  0  0  0  0  0
  184.8270  177.4660  144.3720 F   0  0  0  0  0  0  0  0  0  0  0  0
  191.1220  177.3930  144.4350 N   0  0  0  0  0  2  0  0  0  0  0  0
  192.4700  176.9100  144.1920 C   0  0  0  0  0  2  0  0  0  0  0  0
  192.9030  175.9540  145.3000 C   0  0  2  0  0  3  0  0  0  0  0  0
  194.9930  175.4750  146.3680 O   0  0  0  0  0  1  0  0  0  0  0  0
  194.2460  176.3350  145.8300 C   0  0  0  0  0  0  0  0  0  0  0  0
  194.6860  177.6450  145.7000 O   0  0  0  0  0  0  0  0  0  0  0  0
  192.9160  174.5200  144.7920 C   0  0  0  0  0  2  0  0  0  0  0  0
  194.5490  174.0020  143.1480 O   0  0  0  0  0  1  0  0  0  0  0  0
  193.2430  174.4710  143.3090 C   0  0  1  0  0  3  0  0  0  0  0  0
  192.7180  173.3500  141.2040 N   0  0  0  0  0  2  0  0  0  0  0  0
  192.2820  173.5390  142.5910 C   0  0  2  0  0  3  0  0  0  0  0  0
  190.3960  173.6190  141.2230 O   0  0  0  0  0  1  0  0  0  0  0  0
  191.6040  174.2530  141.5140 C   0  0  2  0  0  3  0  0  0  0  0  0
  1 11  1  0  0  0  0
  2  1  1  0  0  0  0
  3  6  1  1  0  0  0
  3  5  1  0  0  0  0
  3  2  1  0  0  0  0
  4  1  2  0  0  0  0
  4 23  1  0  0  0  0
  5  4  1  0  0  0  0
  6  7  1  0  0  0  0
  6  9  1  0  0  0  0
  8  6  1  0  0  0  0
 10 12  1  0  0  0  0
 11 10  2  0  0  0  0
 13 12  1  0  0  0  0
 13 14  1  0  0  0  0
 14 15  1  0  0  0  0
 14 16  1  1  0  0  0
 17 18  1  6  0  0  0
 17 14  1  0  0  0  0
 17 15  1  0  0  0  0
 20 19  1  0  0  0  0
 20 18  1  0  0  0  0
 21 20  1  0  0  0  0
 22 20  1  0  0  0  0
 24 23  1  0  0  0  0
 25 24  1  6  0  0  0
 25 27  1  0  0  0  0
 27 26  1  0  0  0  0
 28 27  2  0  0  0  0
 29 25  1  0  0  0  0
 31 30  1  1  0  0  0
 31 29  1  0  0  0  0
 32 35  1  0  0  0  0
 32 33  1  0  0  0  0
 33 31  1  1  0  0  0
 35 34  1  6  0  0  0
 35 33  1  0  0  0  0
M  END
>  <MODEL>
7

>  <REMARK>
 VINA RESULT:      -6.3      3.273      7.291
  Name = 
  14 active torsions:
  status: ('A' for Active; 'I' for Inactive)
    1  A    between atoms: C_1  and  O_3
    2  A    between atoms: O_3  and  C_18
    3  A    between atoms: C_4  and  C_18
    4  A    between atoms: C_5  and  C_11
    5  A    between atoms: C_9  and  C_34
    6  A    between atoms: C_12  and  C_28
    7  A    between atoms: C_12  and  C_34
    8  A    between atoms: C_13  and  C_23
    9  A    between atoms: C_19  and  C_21
   10  A    between atoms: C_19  and  C_31
   11  A    between atoms: C_22  and  N_27
   12  A    between atoms: C_22  and  C_28
   13  A    between atoms: C_25  and  C_28
   14  A    between atoms: C_26  and  N_27
                            x       y       z     vdW  Elec       q    Type
                         _______ _______ _______ _____ _____    ______ ____

>  <TORSDO>
F 14

$$$$
=
 OpenBabel11062420083D

 35 37  0  0  1  0  0  0  0  0999 V2000
  189.5490  175.8940  142.7600 C   0  0  0  0  0  0  0  0  0  0  0  0
  188.3640  175.4300  141.9850 C   0  0  0  0  0  2  0  0  0  0  0  0
  188.5960  173.9140  141.8750 C   0  0  2  0  0  3  0  0  0  0  0  0
  190.2910  174.8580  143.1050 C   0  0  0  0  0  0  0  0  0  0  0  0
  189.7920  173.6770  142.5980 O   0  0  0  0  0  0  0  0  0  0  0  0
  188.7630  173.4750  140.4230 C   0  0  0  0  0  0  0  0  0  0  0  0
  187.7810  172.5640  140.0730 F   0  0  0  0  0  0  0  0  0  0  0  0
  190.0040  172.8960  140.2460 F   0  0  0  0  0  0  0  0  0  0  0  0
  188.6650  174.5860  139.6020 F   0  0  0  0  0  0  0  0  0  0  0  0
  189.2930  177.8250  144.3250 C   0  0  0  0  0  3  0  0  0  0  0  0
  189.7280  177.2930  143.1810 C   0  0  0  0  0  3  0  0  0  0  0  0
  188.6200  177.0480  145.4020 C   0  0  0  0  0  2  0  0  0  0  0  0
  187.8960  177.9180  146.2220 O   0  0  0  0  0  0  0  0  0  0  0  0
  186.8790  177.1470  146.8130 C   0  0  2  0  0  0  0  0  0  0  0  0
  185.8060  177.9140  147.5590 C   0  0  0  0  0  2  0  0  0  0  0  0
  187.1800  175.8780  147.2810 F   0  0  0  0  0  0  0  0  0  0  0  0
  185.4930  177.2880  146.2010 C   0  0  1  0  0  3  0  0  0  0  0  0
  185.4200  178.3940  145.1530 C   0  0  0  0  0  2  0  0  0  0  0  0
  185.7560  176.4850  143.7650 F   0  0  0  0  0  0  0  0  0  0  0  0
  185.3780  177.8160  143.7450 C   0  0  0  0  0  0  0  0  0  0  0  0
  184.1000  177.9260  143.2320 F   0  0  0  0  0  0  0  0  0  0  0  0
  186.2510  178.5220  142.9380 F   0  0  0  0  0  0  0  0  0  0  0  0
  191.4530  174.9180  143.9370 N   0  0  0  0  0  2  0  0  0  0  0  0
  191.4510  174.3860  145.2890 C   0  0  0  0  0  2  0  0  0  0  0  0
  192.1740  175.3380  146.2390 C   0  0  2  0  0  3  0  0  0  0  0  0
  191.5100  176.7660  148.0430 O   0  0  0  0  0  1  0  0  0  0  0  0
  191.2880  175.7200  147.3790 C   0  0  0  0  0  0  0  0  0  0  0  0
  190.1920  174.9270  147.6880 O   0  0  0  0  0  0  0  0  0  0  0  0
  192.6490  176.5750  145.4920 C   0  0  0  0  0  2  0  0  0  0  0  0
  194.6890  175.6710  146.3040 O   0  0  0  0  0  1  0  0  0  0  0  0
  194.1660  176.6230  145.4260 C   0  0  1  0  0  3  0  0  0  0  0  0
  195.5360  175.1600  144.0310 N   0  0  0  0  0  2  0  0  0  0  0  0
  194.6380  176.3190  144.0140 C   0  0  2  0  0  3  0  0  0  0  0  0
  196.4270  176.7690  142.5880 O   0  0  0  0  0  1  0  0  0  0  0  0
  196.0800  176.5180  143.9150 C   0  0  2  0  0  3  0  0  0  0  0  0
  1  4  2  0  0  0  0
  1 11  1  0  0  0  0
  2  1  1  0  0  0  0
  3  6  1  6  0  0  0
  3  2  1  0  0  0  0
  3  5  1  0  0  0  0
  4 23  1  0  0  0  0
  5  4  1  0  0  0  0
  7  6  1  0  0  0  0
  8  6  1  0  0  0  0
  9  6  1  0  0  0  0
 10 12  1  0  0  0  0
 11 10  2  0  0  0  0
 12 13  1  0  0  0  0
 13 14  1  0  0  0  0
 14 16  1  1  0  0  0
 14 15  1  0  0  0  0
 17 18  1  6  0  0  0
 17 14  1  0  0  0  0
 17 15  1  0  0  0  0
 20 19  1  0  0  0  0
 20 18  1  0  0  0  0
 21 20  1  0  0  0  0
 22 20  1  0  0  0  0
 23 24  1  0  0  0  0
 25 24  1  6  0  0  0
 25 27  1  0  0  0  0
 27 28  2  0  0  0  0
 27 26  1  0  0  0  0
 29 25  1  0  0  0  0
 31 29  1  0  0  0  0
 31 30  1  1  0  0  0
 33 32  1  0  0  0  0
 33 31  1  1  0  0  0
 35 34  1  6  0  0  0
 35 33  1  0  0  0  0
 35 32  1  0  0  0  0
M  END
>  <MODEL>
8

>  <REMARK>
 VINA RESULT:      -6.2      3.057      7.037
  Name = 
  14 active torsions:
  status: ('A' for Active; 'I' for Inactive)
    1  A    between atoms: C_1  and  O_3
    2  A    between atoms: O_3  and  C_18
    3  A    between atoms: C_4  and  C_18
    4  A    between atoms: C_5  and  C_11
    5  A    between atoms: C_9  and  C_34
    6  A    between atoms: C_12  and  C_28
    7  A    between atoms: C_12  and  C_34
    8  A    between atoms: C_13  and  C_23
    9  A    between atoms: C_19  and  C_21
   10  A    between atoms: C_19  and  C_31
   11  A    between atoms: C_22  and  N_27
   12  A    between atoms: C_22  and  C_28
   13  A    between atoms: C_25  and  C_28
   14  A    between atoms: C_26  and  N_27
                            x       y       z     vdW  Elec       q    Type
                         _______ _______ _______ _____ _____    ______ ____

>  <TORSDO>
F 14

$$$$
=
 OpenBabel11062420083D

 35 37  0  0  1  0  0  0  0  0999 V2000
  190.7790  177.2640  145.0630 C   0  0  0  0  0  0  0  0  0  0  0  0
  189.5460  177.4370  145.8810 C   0  0  0  0  0  2  0  0  0  0  0  0
  189.7400  176.4190  147.0170 C   0  0  2  0  0  3  0  0  0  0  0  0
  191.5770  176.3810  145.6380 C   0  0  0  0  0  0  0  0  0  0  0  0
  191.0120  175.8410  146.7730 O   0  0  0  0  0  0  0  0  0  0  0  0
  188.6600  175.3410  146.9970 C   0  0  0  0  0  0  0  0  0  0  0  0
  188.9140  174.3780  147.9590 F   0  0  0  0  0  0  0  0  0  0  0  0
  188.6160  174.7410  145.7540 F   0  0  0  0  0  0  0  0  0  0  0  0
  187.4330  175.9280  147.2560 F   0  0  0  0  0  0  0  0  0  0  0  0
  190.4070  178.0840  142.7320 C   0  0  0  0  0  3  0  0  0  0  0  0
  191.0780  178.0960  143.8860 C   0  0  0  0  0  3  0  0  0  0  0  0
  189.1840  177.2730  142.4890 C   0  0  0  0  0  2  0  0  0  0  0  0
  188.0500  178.0630  142.7020 O   0  0  0  0  0  0  0  0  0  0  0  0
  186.9500  177.2940  142.2820 C   0  0  2  0  0  0  0  0  0  0  0  0
  186.7360  175.9800  143.0060 C   0  0  0  0  0  2  0  0  0  0  0  0
  186.5580  177.3460  140.9530 F   0  0  0  0  0  0  0  0  0  0  0  0
  185.8080  177.1630  143.2780 C   0  0  1  0  0  3  0  0  0  0  0  0
  186.1450  177.7520  144.6440 C   0  0  0  0  0  2  0  0  0  0  0  0
  185.7340  179.9830  143.9130 F   0  0  0  0  0  0  0  0  0  0  0  0
  185.3960  179.0560  144.8820 C   0  0  0  0  0  0  0  0  0  0  0  0
  184.0330  178.8250  144.8450 F   0  0  0  0  0  0  0  0  0  0  0  0
  185.7360  179.5550  146.1250 F   0  0  0  0  0  0  0  0  0  0  0  0
  192.8890  176.0400  145.1840 N   0  0  0  0  0  2  0  0  0  0  0  0
  193.9340  175.6330  146.1070 C   0  0  0  0  0  2  0  0  0  0  0  0
  194.6280  174.3690  145.6050 C   0  0  2  0  0  3  0  0  0  0  0  0
  196.9970  174.0690  145.8060 O   0  0  0  0  0  1  0  0  0  0  0  0
  196.0450  174.6600  145.2300 C   0  0  0  0  0  0  0  0  0  0  0  0
  196.3100  175.5670  144.2140 O   0  0  0  0  0  0  0  0  0  0  0  0
  193.8720  173.7800  144.4240 C   0  0  0  0  0  2  0  0  0  0  0  0
  194.1130  171.8810  145.8290 O   0  0  0  0  0  1  0  0  0  0  0  0
  193.8030  172.2650  144.5220 C   0  0  1  0  0  3  0  0  0  0  0  0
  191.8330  172.6360  143.1280 N   0  0  0  0  0  2  0  0  0  0  0  0
  192.4060  171.7810  144.1730 C   0  0  2  0  0  3  0  0  0  0  0  0
  190.1780  172.1970  144.7200 O   0  0  0  0  0  1  0  0  0  0  0  0
  191.4220  172.7990  144.5270 C   0  0  2  0  0  3  0  0  0  0  0  0
  1  4  2  0  0  0  0
  1  2  1  0  0  0  0
  2  3  1  0  0  0  0
  3  6  1  6  0  0  0
  4  5  1  0  0  0  0
  5  3  1  0  0  0  0
  6  9  1  0  0  0  0
  6  7  1  0  0  0  0
  8  6  1  0  0  0  0
 10 11  2  0  0  0  0
 11  1  1  0  0  0  0
 12 13  1  0  0  0  0
 12 10  1  0  0  0  0
 14 16  1  6  0  0  0
 14 13  1  0  0  0  0
 14 15  1  0  0  0  0
 14 17  1  0  0  0  0
 15 17  1  0  0  0  0
 17 18  1  1  0  0  0
 18 20  1  0  0  0  0
 19 20  1  0  0  0  0
 20 22  1  0  0  0  0
 21 20  1  0  0  0  0
 23  4  1  0  0  0  0
 23 24  1  0  0  0  0
 25 29  1  6  0  0  0
 25 24  1  0  0  0  0
 27 25  1  0  0  0  0
 27 26  1  0  0  0  0
 28 27  2  0  0  0  0
 29 31  1  0  0  0  0
 31 30  1  1  0  0  0
 32 33  1  0  0  0  0
 32 35  1  0  0  0  0
 33 31  1  1  0  0  0
 33 35  1  0  0  0  0
 35 34  1  6  0  0  0
M  END
>  <MODEL>
9

>  <REMARK>
 VINA RESULT:      -6.2      3.504      7.714
  Name = 
  14 active torsions:
  status: ('A' for Active; 'I' for Inactive)
    1  A    between atoms: C_1  and  O_3
    2  A    between atoms: O_3  and  C_18
    3  A    between atoms: C_4  and  C_18
    4  A    between atoms: C_5  and  C_11
    5  A    between atoms: C_9  and  C_34
    6  A    between atoms: C_12  and  C_28
    7  A    between atoms: C_12  and  C_34
    8  A    between atoms: C_13  and  C_23
    9  A    between atoms: C_19  and  C_21
   10  A    between atoms: C_19  and  C_31
   11  A    between atoms: C_22  and  N_27
   12  A    between atoms: C_22  and  C_28
   13  A    between atoms: C_25  and  C_28
   14  A    between atoms: C_26  and  N_27
                            x       y       z     vdW  Elec       q    Type
                         _______ _______ _______ _____ _____    ______ ____

>  <TORSDO>
F 14

$$$$
