=
 OpenBabel11062418163D

 49 56  0  0  1  0  0  0  0  0999 V2000
  192.2070  172.7970  142.7380 N   0  0  2  0  0  0  0  0  0  0  0  0
  195.4250  172.4000  142.9030 O   0  0  0  0  0  0  0  0  0  0  0  0
  189.7710  173.2820  143.3450 C   0  0  1  0  0  0  0  0  0  0  0  0
  194.8990  173.3350  144.9590 C   0  0  2  0  0  3  0  0  0  0  0  0
  189.4530  177.2180  143.3940 N   0  0  0  0  0  0  0  0  0  0  0  0
  190.0740  177.6780  144.4420 C   0  0  0  0  0  3  0  0  0  0  0  0
  192.9730  174.6330  145.5880 C   0  0  0  0  0  2  0  0  0  0  0  0
  193.5810  169.5260  144.6930 C   0  0  0  0  0  2  0  0  0  0  0  0
  193.5430  173.8100  144.5330 N   0  0  2  0  0  0  0  0  0  0  0  0
  190.8860  175.4100  142.3780 C   0  0  0  0  0  2  0  0  0  0  0  0
  190.7910  172.4530  142.5410 C   0  0  0  0  0  2  0  0  0  0  0  0
  190.7320  176.7600  146.5940 C   0  0  0  0  0  1  0  0  0  0  0  0
  189.5130  175.8780  142.7870 C   0  0  1  0  0  0  0  0  0  0  0  0
  195.4380  168.1850  144.0730 C   0  0  0  0  0  2  0  0  0  0  0  0
  195.2160  171.3290  143.7900 C   0  0  2  0  0  3  0  0  0  0  0  0
  192.4340  177.0590  144.7540 C   0  0  0  0  0  2  0  0  0  0  0  0
  189.6130  172.6260  144.7060 C   0  0  0  0  0  1  0  0  0  0  0  0
  195.8060  173.4510  143.7490 C   0  0  2  0  0  3  0  0  0  0  0  0
  194.8520  168.8750  145.0810 C   0  0  1  0  0  3  0  0  0  0  0  0
  195.9030  171.0750  146.1280 C   0  0  0  0  0  2  0  0  0  0  0  0
  194.0280  170.4020  143.5060 C   0  0  2  0  0  0  0  0  0  0  0  0
  192.9880  171.8640  141.8920 C   0  0  0  0  0  2  0  0  0  0  0  0
  193.4340  176.0740  145.3880 C   0  0  1  0  0  3  0  0  0  0  0  0
  194.7000  168.1680  142.7100 C   0  0  0  0  0  2  0  0  0  0  0  0
  190.1840  174.7580  143.5910 C   0  0  1  0  0  3  0  0  0  0  0  0
  193.0490  170.3970  142.3910 C   0  0  1  0  0  3  0  0  0  0  0  0
  194.9490  171.8320  145.1710 C   0  0  1  0  0  3  0  0  0  0  0  0
  191.0380  176.9220  145.1840 N   0  0  0  0  0  0  0  0  0  0  0  0
  188.5320  173.1780  142.7090 O   0  0  0  0  0  1  0  0  0  0  0  0
  192.5570  172.7640  144.1760 C   0  0  0  0  0  2  0  0  0  0  0  0
  194.4190  169.6420  142.2460 C   0  0  1  0  0  3  0  0  0  0  0  0
  195.6200  169.5180  146.2390 C   0  0  0  0  0  2  0  0  0  0  0  0
  195.6400  174.7460  143.0990 N   0  0  0  0  0  2  0  0  0  0  0  0
  197.8360  175.1760  142.4410 O   0  0  0  0  0  0  0  0  0  0  0  0
  196.5620  177.0300  143.0150 N   0  0  0  0  0  1  0  0  0  0  0  0
  196.7240  175.6220  142.8080 C   0  0  0  0  0  0  0  0  0  0  0  0
  194.2630  176.6640  146.5310 C   0  0  0  0  0  2  0  0  0  0  0  0
  194.9510  177.8720  146.1060 N   0  0  0  0  0  1  0  0  0  0  0  0
  188.4750  175.5610  141.8900 O   0  0  0  0  0  0  0  0  0  0  0  0
  187.4460  176.5130  142.0460 C   0  0  0  0  0  2  0  0  0  0  0  0
  186.3750  176.0220  143.0220 C   0  0  0  0  0  2  0  0  0  0  0  0
  186.1540  176.7690  147.6390 O   0  0  0  0  0  0  0  0  0  0  0  0
  184.4450  177.9200  146.5210 C   0  0  0  0  0  3  0  0  0  0  0  0
  185.4150  178.1750  143.6400 C   0  0  0  0  0  3  0  0  0  0  0  0
  184.1300  178.8540  145.6280 C   0  0  0  0  0  3  0  0  0  0  0  0
  186.4190  176.8210  145.3650 O   0  0  0  0  0  0  0  0  0  0  0  0
  186.0370  177.0620  144.0360 C   0  0  0  0  0  0  0  0  0  0  0  0
  185.7110  177.1690  146.5280 C   0  0  0  0  0  0  0  0  0  0  0  0
  185.0910  179.2920  144.5730 C   0  0  0  0  0  2  0  0  0  0  0  0
  1 22  1  6  0  0  0
  1 30  1  0  0  0  0
  2 18  1  0  0  0  0
  2 15  1  0  0  0  0
  3 25  1  0  0  0  0
  3 17  1  1  0  0  0
  4 27  1  0  0  0  0
  5  6  2  0  0  0  0
  6 28  1  0  0  0  0
  8 19  1  0  0  0  0
  9  4  1  0  0  0  0
  9  7  1  0  0  0  0
 10 13  1  0  0  0  0
 10 25  1  0  0  0  0
 11  1  1  0  0  0  0
 11  3  1  0  0  0  0
 13  5  1  0  0  0  0
 13 25  1  0  0  0  0
 14 19  1  0  0  0  0
 15 27  1  0  0  0  0
 16 28  1  0  0  0  0
 16 23  1  0  0  0  0
 18  4  1  0  0  0  0
 19 32  1  0  0  0  0
 20 32  1  0  0  0  0
 21 15  1  0  0  0  0
 21  8  1  0  0  0  0
 22 26  1  0  0  0  0
 23  7  1  0  0  0  0
 23 37  1  0  0  0  0
 24 14  1  0  0  0  0
 26 21  1  0  0  0  0
 27 20  1  0  0  0  0
 28 12  1  0  0  0  0
 29  3  1  0  0  0  0
 30  9  1  0  0  0  0
 31 26  1  0  0  0  0
 31 24  1  0  0  0  0
 31 21  1  0  0  0  0
 33 18  1  0  0  0  0
 34 36  2  0  0  0  0
 36 35  1  0  0  0  0
 36 33  1  0  0  0  0
 38 37  1  0  0  0  0
 39 40  1  0  0  0  0
 39 13  1  0  0  0  0
 40 41  1  0  0  0  0
 41 47  1  0  0  0  0
 43 48  1  0  0  0  0
 44 47  2  0  0  0  0
 44 49  1  0  0  0  0
 45 43  2  0  0  0  0
 46 48  1  0  0  0  0
 47 46  1  0  0  0  0
 48 42  2  0  0  0  0
 49 45  1  0  0  0  0
M  END
>  <MODEL>
1

>  <REMARK>
 VINA RESULT:      -9.7      0.000      0.000
  Name = 
  6 active torsions:
  status: ('A' for Active; 'I' for Inactive)
    1  A    between atoms: N_1  and  C_30
    2  A    between atoms: C_3  and  C_35
    3  A    between atoms: O_6  and  C_23
    4  A    between atoms: O_6  and  C_41
    5  A    between atoms: C_11  and  C_37
    6  A    between atoms: C_11  and  C_41
                            x       y       z     vdW  Elec       q    Type
                         _______ _______ _______ _____ _____    ______ ____

>  <TORSDO>
F 6

$$$$
=
 OpenBabel11062418163D

 49 56  0  0  1  0  0  0  0  0999 V2000
  192.2670  172.9170  142.5330 N   0  0  2  0  0  0  0  0  0  0  0  0
  195.4680  172.4200  142.7540 O   0  0  0  0  0  0  0  0  0  0  0  0
  189.8320  173.4490  143.1030 C   0  0  1  0  0  0  0  0  0  0  0  0
  194.9210  173.2920  144.8320 C   0  0  2  0  0  3  0  0  0  0  0  0
  189.6240  177.3880  143.2960 N   0  0  0  0  0  0  0  0  0  0  0  0
  190.2340  177.7900  144.3740 C   0  0  0  0  0  3  0  0  0  0  0  0
  193.0180  174.6200  145.4670 C   0  0  0  0  0  2  0  0  0  0  0  0
  193.5020  169.5360  144.3910 C   0  0  0  0  0  2  0  0  0  0  0  0
  193.5890  173.8220  144.3940 N   0  0  2  0  0  0  0  0  0  0  0  0
  191.0290  175.5790  142.2430 C   0  0  0  0  0  2  0  0  0  0  0  0
  190.8470  172.6220  142.2910 C   0  0  0  0  0  2  0  0  0  0  0  0
  190.8150  176.7720  146.5030 C   0  0  0  0  0  1  0  0  0  0  0  0
  189.6610  176.0710  142.6390 C   0  0  1  0  0  0  0  0  0  0  0  0
  195.3350  168.1660  143.7610 C   0  0  0  0  0  2  0  0  0  0  0  0
  195.2080  171.3230  143.5940 C   0  0  2  0  0  3  0  0  0  0  0  0
  192.5670  177.0910  144.7150 C   0  0  0  0  0  2  0  0  0  0  0  0
  189.6240  172.7470  144.4340 C   0  0  0  0  0  1  0  0  0  0  0  0
  195.8590  173.4270  143.6480 C   0  0  2  0  0  3  0  0  0  0  0  0
  194.7450  168.8340  144.7810 C   0  0  1  0  0  3  0  0  0  0  0  0
  195.8330  170.9620  145.9360 C   0  0  0  0  0  2  0  0  0  0  0  0
  194.0020  170.4420  143.2480 C   0  0  2  0  0  0  0  0  0  0  0  0
  193.0420  171.9940  141.6690 C   0  0  0  0  0  2  0  0  0  0  0  0
  193.5240  176.0550  145.3330 C   0  0  1  0  0  3  0  0  0  0  0  0
  194.6290  168.2210  142.3820 C   0  0  0  0  0  2  0  0  0  0  0  0
  190.2810  174.9020  143.4150 C   0  0  1  0  0  3  0  0  0  0  0  0
  193.0490  170.5080  142.1120 C   0  0  1  0  0  3  0  0  0  0  0  0
  194.9230  171.7810  144.9870 C   0  0  1  0  0  3  0  0  0  0  0  0
  191.1580  176.9780  145.1080 N   0  0  0  0  0  0  0  0  0  0  0  0
  188.6060  173.4050  142.4360 O   0  0  0  0  0  1  0  0  0  0  0  0
  192.5820  172.8190  143.9760 C   0  0  0  0  0  2  0  0  0  0  0  0
  194.4000  169.7200  141.9690 C   0  0  1  0  0  3  0  0  0  0  0  0
  195.5040  169.4110  145.9810 C   0  0  0  0  0  2  0  0  0  0  0  0
  195.7450  174.7500  143.0450 N   0  0  0  0  0  2  0  0  0  0  0  0
  197.2760  174.5540  141.2960 O   0  0  0  0  0  0  0  0  0  0  0  0
  197.0780  176.6630  142.2460 N   0  0  0  0  0  1  0  0  0  0  0  0
  196.7040  175.2840  142.1390 C   0  0  0  0  0  0  0  0  0  0  0  0
  194.3420  176.5770  146.5160 C   0  0  0  0  0  2  0  0  0  0  0  0
  194.9300  177.8720  146.2120 N   0  0  0  0  0  1  0  0  0  0  0  0
  188.6360  175.8180  141.7080 O   0  0  0  0  0  0  0  0  0  0  0  0
  187.5600  176.6880  141.9830 C   0  0  0  0  0  2  0  0  0  0  0  0
  186.4040  175.9490  142.6600 C   0  0  0  0  0  2  0  0  0  0  0  0
  183.3400  179.2580  143.9200 O   0  0  0  0  0  0  0  0  0  0  0  0
  185.2820  179.3710  145.2290 C   0  0  0  0  0  3  0  0  0  0  0  0
  186.5520  176.6070  145.0010 C   0  0  0  0  0  3  0  0  0  0  0  0
  186.0730  178.7570  146.1030 C   0  0  0  0  0  3  0  0  0  0  0  0
  184.7130  177.4410  143.6830 O   0  0  0  0  0  0  0  0  0  0  0  0
  185.8920  176.6960  143.8450 C   0  0  0  0  0  0  0  0  0  0  0  0
  184.4040  178.6790  144.2720 C   0  0  0  0  0  0  0  0  0  0  0  0
  186.0820  177.2720  146.2500 C   0  0  0  0  0  2  0  0  0  0  0  0
  1 22  1  6  0  0  0
  1 30  1  0  0  0  0
  2 15  1  0  0  0  0
  2 18  1  0  0  0  0
  3 25  1  0  0  0  0
  3 17  1  1  0  0  0
  4 27  1  0  0  0  0
  5  6  2  0  0  0  0
  6 28  1  0  0  0  0
  8 19  1  0  0  0  0
  9  4  1  0  0  0  0
  9  7  1  0  0  0  0
 10 13  1  0  0  0  0
 10 25  1  0  0  0  0
 11  1  1  0  0  0  0
 11  3  1  0  0  0  0
 13  5  1  0  0  0  0
 13 25  1  0  0  0  0
 14 19  1  0  0  0  0
 15 27  1  0  0  0  0
 16 28  1  0  0  0  0
 16 23  1  0  0  0  0
 18  4  1  0  0  0  0
 19 32  1  0  0  0  0
 20 32  1  0  0  0  0
 21 15  1  0  0  0  0
 21  8  1  0  0  0  0
 22 26  1  0  0  0  0
 23  7  1  0  0  0  0
 23 37  1  0  0  0  0
 24 14  1  0  0  0  0
 26 21  1  0  0  0  0
 27 20  1  0  0  0  0
 28 12  1  0  0  0  0
 29  3  1  0  0  0  0
 30  9  1  0  0  0  0
 31 26  1  0  0  0  0
 31 24  1  0  0  0  0
 31 21  1  0  0  0  0
 33 18  1  0  0  0  0
 34 36  2  0  0  0  0
 36 35  1  0  0  0  0
 36 33  1  0  0  0  0
 38 37  1  0  0  0  0
 39 40  1  0  0  0  0
 39 13  1  0  0  0  0
 40 41  1  0  0  0  0
 41 47  1  0  0  0  0
 42 48  2  0  0  0  0
 43 45  2  0  0  0  0
 44 49  1  0  0  0  0
 45 49  1  0  0  0  0
 46 47  1  0  0  0  0
 46 48  1  0  0  0  0
 47 44  2  0  0  0  0
 48 43  1  0  0  0  0
M  END
>  <MODEL>
2

>  <REMARK>
 VINA RESULT:      -8.8      0.877      1.205
  Name = 
  6 active torsions:
  status: ('A' for Active; 'I' for Inactive)
    1  A    between atoms: N_1  and  C_30
    2  A    between atoms: C_3  and  C_35
    3  A    between atoms: O_6  and  C_23
    4  A    between atoms: O_6  and  C_41
    5  A    between atoms: C_11  and  C_37
    6  A    between atoms: C_11  and  C_41
                            x       y       z     vdW  Elec       q    Type
                         _______ _______ _______ _____ _____    ______ ____

>  <TORSDO>
F 6

$$$$
=
 OpenBabel11062418163D

 49 56  0  0  1  0  0  0  0  0999 V2000
  190.9250  173.7220  141.1060 N   0  0  2  0  0  0  0  0  0  0  0  0
  192.8520  172.6090  138.7410 O   0  0  0  0  0  0  0  0  0  0  0  0
  189.9200  174.2320  143.4010 C   0  0  1  0  0  0  0  0  0  0  0  0
  194.0320  172.1000  140.6700 C   0  0  2  0  0  3  0  0  0  0  0  0
  192.1030  177.1690  144.8870 N   0  0  0  0  0  0  0  0  0  0  0  0
  193.2710  176.7000  145.2170 C   0  0  0  0  0  3  0  0  0  0  0  0
  193.8560  173.0810  142.8610 C   0  0  0  0  0  2  0  0  0  0  0  0
  190.7640  169.7580  140.2840 C   0  0  0  0  0  2  0  0  0  0  0  0
  193.2390  173.0240  141.5450 N   0  0  2  0  0  0  0  0  0  0  0  0
  191.4710  176.1690  142.6610 C   0  0  0  0  0  2  0  0  0  0  0  0
  189.7080  173.9090  141.9100 C   0  0  0  0  0  2  0  0  0  0  0  0
  194.1510  174.5020  145.7680 C   0  0  0  0  0  1  0  0  0  0  0  0
  191.0530  176.5570  144.0550 C   0  0  1  0  0  0  0  0  0  0  0  0
  190.8730  168.7560  138.1350 C   0  0  0  0  0  2  0  0  0  0  0  0
  192.4860  171.3000  139.1020 C   0  0  2  0  0  3  0  0  0  0  0  0
  194.5760  175.5200  143.4990 C   0  0  0  0  0  2  0  0  0  0  0  0
  190.0590  172.9140  144.1440 C   0  0  0  0  0  1  0  0  0  0  0  0
  194.1250  172.7580  139.3070 C   0  0  2  0  0  3  0  0  0  0  0  0
  191.3780  168.7490  139.3920 C   0  0  1  0  0  3  0  0  0  0  0  0
  193.8710  169.4670  139.9520 C   0  0  0  0  0  2  0  0  0  0  0  0
  191.0260  171.0630  139.5050 C   0  0  2  0  0  0  0  0  0  0  0  0
  190.4770  173.4020  139.7300 C   0  0  0  0  0  2  0  0  0  0  0  0
  194.9290  174.1680  142.8520 C   0  0  1  0  0  3  0  0  0  0  0  0
  189.7480  169.7780  137.8340 C   0  0  0  0  0  2  0  0  0  0  0  0
  191.1910  175.0690  143.7100 C   0  0  1  0  0  3  0  0  0  0  0  0
  189.8670  171.9900  139.5350 C   0  0  1  0  0  3  0  0  0  0  0  0
  193.2600  170.8470  140.2960 C   0  0  1  0  0  3  0  0  0  0  0  0
  193.7880  175.4540  144.7350 N   0  0  0  0  0  0  0  0  0  0  0  0
  188.7570  174.8360  143.8820 O   0  0  0  0  0  1  0  0  0  0  0  0
  191.8040  172.7000  141.7200 C   0  0  0  0  0  2  0  0  0  0  0  0
  190.2350  171.2220  138.2140 C   0  0  1  0  0  3  0  0  0  0  0  0
  192.8040  168.3120  139.7410 C   0  0  0  0  0  2  0  0  0  0  0  0
  194.4920  174.1630  139.4330 N   0  0  0  0  0  2  0  0  0  0  0  0
  196.4320  174.2140  138.1400 O   0  0  0  0  0  0  0  0  0  0  0  0
  196.3810  175.6570  139.9580 N   0  0  0  0  0  1  0  0  0  0  0  0
  195.7840  174.6690  139.1110 C   0  0  0  0  0  0  0  0  0  0  0  0
  196.3540  173.6880  143.1300 C   0  0  0  0  0  2  0  0  0  0  0  0
  197.1490  174.7410  143.7410 N   0  0  0  0  0  1  0  0  0  0  0  0
  189.7700  177.1270  144.1640 O   0  0  0  0  0  0  0  0  0  0  0  0
  189.7320  177.9160  145.3330 C   0  0  0  0  0  2  0  0  0  0  0  0
  188.8360  177.2860  146.4020 C   0  0  0  0  0  2  0  0  0  0  0  0
  185.8670  179.7110  143.7150 O   0  0  0  0  0  0  0  0  0  0  0  0
  184.8790  179.1590  145.7680 C   0  0  0  0  0  3  0  0  0  0  0  0
  186.4870  176.7830  146.8060 C   0  0  0  0  0  3  0  0  0  0  0  0
  184.4780  178.1910  146.5870 C   0  0  0  0  0  3  0  0  0  0  0  0
  187.0610  178.1760  144.9240 O   0  0  0  0  0  0  0  0  0  0  0  0
  187.3920  177.4120  146.0540 C   0  0  0  0  0  0  0  0  0  0  0  0
  185.9410  179.0090  144.7600 C   0  0  0  0  0  0  0  0  0  0  0  0
  185.0280  176.8060  146.4990 C   0  0  0  0  0  2  0  0  0  0  0  0
  1 22  1  6  0  0  0
  1 30  1  0  0  0  0
  1 11  1  0  0  0  0
  2 15  1  0  0  0  0
  2 18  1  0  0  0  0
  3 25  1  0  0  0  0
  3 29  1  0  0  0  0
  3 17  1  1  0  0  0
  4  9  1  0  0  0  0
  5  6  2  0  0  0  0
  9 30  1  0  0  0  0
  9  7  1  0  0  0  0
 10 25  1  0  0  0  0
 10 13  1  0  0  0  0
 11  3  1  0  0  0  0
 13 39  1  0  0  0  0
 13  5  1  0  0  0  0
 14 19  1  0  0  0  0
 15 21  1  0  0  0  0
 15 27  1  0  0  0  0
 16 28  1  0  0  0  0
 18 33  1  0  0  0  0
 18  4  1  0  0  0  0
 19 32  1  0  0  0  0
 19  8  1  0  0  0  0
 20 27  1  0  0  0  0
 21 26  1  0  0  0  0
 21  8  1  0  0  0  0
 23  7  1  0  0  0  0
 23 37  1  0  0  0  0
 23 16  1  0  0  0  0
 24 14  1  0  0  0  0
 24 31  1  0  0  0  0
 25 13  1  0  0  0  0
 26 22  1  0  0  0  0
 27  4  1  0  0  0  0
 28  6  1  0  0  0  0
 28 12  1  0  0  0  0
 31 21  1  0  0  0  0
 31 26  1  0  0  0  0
 32 20  1  0  0  0  0
 34 36  2  0  0  0  0
 36 33  1  0  0  0  0
 36 35  1  0  0  0  0
 37 38  1  0  0  0  0
 39 40  1  0  0  0  0
 40 41  1  0  0  0  0
 42 48  2  0  0  0  0
 43 45  2  0  0  0  0
 46 47  1  0  0  0  0
 47 41  1  0  0  0  0
 47 44  2  0  0  0  0
 48 46  1  0  0  0  0
 48 43  1  0  0  0  0
 49 45  1  0  0  0  0
 49 44  1  0  0  0  0
M  END
>  <MODEL>
3

>  <REMARK>
 VINA RESULT:      -8.6      2.605      4.126
  Name = 
  6 active torsions:
  status: ('A' for Active; 'I' for Inactive)
    1  A    between atoms: N_1  and  C_30
    2  A    between atoms: C_3  and  C_35
    3  A    between atoms: O_6  and  C_23
    4  A    between atoms: O_6  and  C_41
    5  A    between atoms: C_11  and  C_37
    6  A    between atoms: C_11  and  C_41
                            x       y       z     vdW  Elec       q    Type
                         _______ _______ _______ _____ _____    ______ ____

>  <TORSDO>
F 6

$$$$
=
 OpenBabel11062418163D

 49 56  0  0  1  0  0  0  0  0999 V2000
  190.0680  173.7920  140.2110 N   0  0  2  0  0  0  0  0  0  0  0  0
  192.6720  173.1930  138.3660 O   0  0  0  0  0  0  0  0  0  0  0  0
  188.4360  173.8840  142.1760 C   0  0  1  0  0  0  0  0  0  0  0  0
  193.3500  172.5150  140.4770 C   0  0  2  0  0  3  0  0  0  0  0  0
  189.7780  176.7520  144.5370 N   0  0  0  0  0  0  0  0  0  0  0  0
  190.8640  176.3400  145.1250 C   0  0  0  0  0  3  0  0  0  0  0  0
  192.4830  173.1560  142.6280 C   0  0  0  0  0  2  0  0  0  0  0  0
  190.6060  169.9870  138.9300 C   0  0  0  0  0  2  0  0  0  0  0  0
  192.2490  173.2350  141.1950 N   0  0  2  0  0  0  0  0  0  0  0  0
  189.8840  176.0300  142.1240 C   0  0  0  0  0  2  0  0  0  0  0  0
  188.6680  173.7600  140.6590 C   0  0  0  0  0  2  0  0  0  0  0  0
  191.8220  174.1680  145.6450 C   0  0  0  0  0  1  0  0  0  0  0  0
  189.0680  176.1790  143.3810 C   0  0  1  0  0  0  0  0  0  0  0  0
  191.4010  169.3120  136.7970 C   0  0  0  0  0  2  0  0  0  0  0  0
  192.3830  171.8190  138.4590 C   0  0  2  0  0  3  0  0  0  0  0  0
  192.7100  175.5310  143.7150 C   0  0  0  0  0  2  0  0  0  0  0  0
  188.5290  172.4900  142.7730 C   0  0  0  0  0  1  0  0  0  0  0  0
  193.7230  173.3650  139.2780 C   0  0  2  0  0  3  0  0  0  0  0  0
  191.5510  169.1700  138.1360 C   0  0  1  0  0  3  0  0  0  0  0  0
  193.7020  170.0060  139.4470 C   0  0  0  0  0  2  0  0  0  0  0  0
  190.9080  171.4060  138.4090 C   0  0  2  0  0  0  0  0  0  0  0  0
  190.0430  173.6350  138.7370 C   0  0  0  0  0  2  0  0  0  0  0  0
  193.3810  174.3190  143.0430 C   0  0  1  0  0  3  0  0  0  0  0  0
  190.2830  170.2690  136.3130 C   0  0  0  0  0  2  0  0  0  0  0  0
  189.4690  174.7720  142.9210 C   0  0  1  0  0  3  0  0  0  0  0  0
  189.6800  172.2190  138.2200 C   0  0  1  0  0  3  0  0  0  0  0  0
  192.8600  171.2680  139.7630 C   0  0  1  0  0  3  0  0  0  0  0  0
  191.6360  175.2240  144.6670 N   0  0  0  0  0  0  0  0  0  0  0  0
  187.1230  174.3140  142.3800 O   0  0  0  0  0  1  0  0  0  0  0  0
  190.8680  172.7700  140.9250 C   0  0  0  0  0  2  0  0  0  0  0  0
  190.4750  171.6800  136.9760 C   0  0  1  0  0  3  0  0  0  0  0  0
  192.8750  168.8080  138.8170 C   0  0  0  0  0  2  0  0  0  0  0  0
  193.8720  174.7640  139.6610 N   0  0  0  0  0  2  0  0  0  0  0  0
  196.0800  175.1480  139.0170 O   0  0  0  0  0  0  0  0  0  0  0  0
  195.3460  176.3160  140.8840 N   0  0  0  0  0  1  0  0  0  0  0  0
  195.1340  175.4110  139.7950 C   0  0  0  0  0  0  0  0  0  0  0  0
  194.7280  173.9250  143.6510 C   0  0  0  0  0  2  0  0  0  0  0  0
  194.7040  172.5510  144.1270 N   0  0  0  0  0  1  0  0  0  0  0  0
  187.7430  176.6180  143.1920 O   0  0  0  0  0  0  0  0  0  0  0  0
  187.7800  177.9150  142.6370 C   0  0  0  0  0  2  0  0  0  0  0  0
  186.4340  178.6260  142.7910 C   0  0  0  0  0  2  0  0  0  0  0  0
  187.8930  177.9160  147.1830 O   0  0  0  0  0  0  0  0  0  0  0  0
  185.7030  177.1330  146.8910 C   0  0  0  0  0  3  0  0  0  0  0  0
  184.6480  178.6260  144.4480 C   0  0  0  0  0  3  0  0  0  0  0  0
  184.4420  177.4340  146.5940 C   0  0  0  0  0  3  0  0  0  0  0  0
  186.9340  178.5890  145.2160 O   0  0  0  0  0  0  0  0  0  0  0  0
  185.9600  178.6050  144.2050 C   0  0  0  0  0  0  0  0  0  0  0  0
  186.8710  177.9090  146.4440 C   0  0  0  0  0  0  0  0  0  0  0  0
  184.0860  178.6650  145.8290 C   0  0  0  0  0  2  0  0  0  0  0  0
  1 22  1  6  0  0  0
  1 11  1  0  0  0  0
  1 30  1  0  0  0  0
  2 15  1  0  0  0  0
  2 18  1  0  0  0  0
  3 29  1  0  0  0  0
  3 17  1  1  0  0  0
  3 25  1  0  0  0  0
  4  9  1  0  0  0  0
  5  6  2  0  0  0  0
  7 23  1  0  0  0  0
  9  7  1  0  0  0  0
 10 25  1  0  0  0  0
 10 13  1  0  0  0  0
 11  3  1  0  0  0  0
 13  5  1  0  0  0  0
 14 19  1  0  0  0  0
 15 27  1  0  0  0  0
 16 28  1  0  0  0  0
 18 33  1  0  0  0  0
 18  4  1  0  0  0  0
 19 32  1  0  0  0  0
 19  8  1  0  0  0  0
 20 27  1  0  0  0  0
 21 15  1  0  0  0  0
 21  8  1  0  0  0  0
 23 37  1  0  0  0  0
 23 16  1  0  0  0  0
 24 14  1  0  0  0  0
 24 31  1  0  0  0  0
 25 13  1  0  0  0  0
 26 21  1  0  0  0  0
 26 22  1  0  0  0  0
 27  4  1  0  0  0  0
 28  6  1  0  0  0  0
 28 12  1  0  0  0  0
 30  9  1  0  0  0  0
 31 26  1  0  0  0  0
 31 21  1  0  0  0  0
 32 20  1  0  0  0  0
 33 36  1  0  0  0  0
 34 36  2  0  0  0  0
 36 35  1  0  0  0  0
 37 38  1  0  0  0  0
 39 13  1  0  0  0  0
 40 41  1  0  0  0  0
 40 39  1  0  0  0  0
 41 47  1  0  0  0  0
 44 49  1  0  0  0  0
 45 43  2  0  0  0  0
 46 48  1  0  0  0  0
 47 44  2  0  0  0  0
 47 46  1  0  0  0  0
 48 43  1  0  0  0  0
 48 42  2  0  0  0  0
 49 45  1  0  0  0  0
M  END
>  <MODEL>
4

>  <REMARK>
 VINA RESULT:      -8.3      2.891      4.213
  Name = 
  6 active torsions:
  status: ('A' for Active; 'I' for Inactive)
    1  A    between atoms: N_1  and  C_30
    2  A    between atoms: C_3  and  C_35
    3  A    between atoms: O_6  and  C_23
    4  A    between atoms: O_6  and  C_41
    5  A    between atoms: C_11  and  C_37
    6  A    between atoms: C_11  and  C_41
                            x       y       z     vdW  Elec       q    Type
                         _______ _______ _______ _____ _____    ______ ____

>  <TORSDO>
F 6

$$$$
=
 OpenBabel11062418163D

 49 56  0  0  1  0  0  0  0  0999 V2000
  191.4200  173.5640  140.9980 N   0  0  2  0  0  0  0  0  0  0  0  0
  194.4100  173.0130  139.8570 O   0  0  0  0  0  0  0  0  0  0  0  0
  189.3900  173.7520  142.5410 C   0  0  1  0  0  0  0  0  0  0  0  0
  194.6570  172.7440  142.1470 C   0  0  2  0  0  3  0  0  0  0  0  0
  189.9260  177.0800  144.5990 N   0  0  0  0  0  0  0  0  0  0  0  0
  190.8860  176.8930  145.4590 C   0  0  0  0  0  3  0  0  0  0  0  0
  193.2820  173.5900  143.9320 C   0  0  0  0  0  2  0  0  0  0  0  0
  192.5500  169.7030  140.5260 C   0  0  0  0  0  2  0  0  0  0  0  0
  193.3670  173.4250  142.4890 N   0  0  2  0  0  0  0  0  0  0  0  0
  190.6270  176.0240  142.4200 C   0  0  0  0  0  2  0  0  0  0  0  0
  189.9630  173.4320  141.1470 C   0  0  0  0  0  2  0  0  0  0  0  0
  191.8850  174.9530  146.5290 C   0  0  0  0  0  1  0  0  0  0  0  0
  189.5420  176.2600  143.4380 C   0  0  1  0  0  0  0  0  0  0  0  0
  193.8530  168.8190  138.7500 C   0  0  0  0  0  2  0  0  0  0  0  0
  194.2250  171.6450  140.1230 C   0  0  2  0  0  3  0  0  0  0  0  0
  193.0600  176.1100  144.6190 C   0  0  0  0  0  2  0  0  0  0  0  0
  189.4660  172.4840  143.3740 C   0  0  0  0  0  1  0  0  0  0  0  0
  195.2130  173.4440  140.9230 C   0  0  2  0  0  3  0  0  0  0  0  0
  193.7130  168.8960  140.0950 C   0  0  1  0  0  3  0  0  0  0  0  0
  195.4400  170.1700  141.6560 C   0  0  0  0  0  2  0  0  0  0  0  0
  192.8380  171.0550  139.8420 C   0  0  2  0  0  0  0  0  0  0  0  0
  191.7360  173.1880  139.5990 C   0  0  0  0  0  2  0  0  0  0  0  0
  193.9640  174.9000  144.3160 C   0  0  1  0  0  3  0  0  0  0  0  0
  192.7920  169.5520  137.8890 C   0  0  0  0  0  2  0  0  0  0  0  0
  190.1530  174.8590  143.3180 C   0  0  1  0  0  3  0  0  0  0  0  0
  191.6190  171.6770  139.2690 C   0  0  1  0  0  3  0  0  0  0  0  0
  194.4460  171.3540  141.5710 C   0  0  1  0  0  3  0  0  0  0  0  0
  191.8320  175.8220  145.3680 N   0  0  0  0  0  0  0  0  0  0  0  0
  188.0330  174.0470  142.3930 O   0  0  0  0  0  1  0  0  0  0  0  0
  192.1250  172.7640  142.0250 C   0  0  0  0  0  2  0  0  0  0  0  0
  192.7120  171.0590  138.3260 C   0  0  1  0  0  3  0  0  0  0  0  0
  194.8790  168.8010  141.0850 C   0  0  0  0  0  2  0  0  0  0  0  0
  195.1540  174.8920  141.0820 N   0  0  0  0  0  2  0  0  0  0  0  0
  197.3670  175.4620  140.6150 O   0  0  0  0  0  0  0  0  0  0  0  0
  196.2810  176.7920  142.1780 N   0  0  0  0  0  1  0  0  0  0  0  0
  196.3090  175.7120  141.2370 C   0  0  0  0  0  0  0  0  0  0  0  0
  195.1710  174.7660  145.2460 C   0  0  0  0  0  2  0  0  0  0  0  0
  195.5540  173.3720  145.4050 N   0  0  0  0  0  1  0  0  0  0  0  0
  188.2600  176.5040  142.9080 O   0  0  0  0  0  0  0  0  0  0  0  0
  188.1190  177.8940  142.7090 C   0  0  0  0  0  2  0  0  0  0  0  0
  186.6480  178.3130  142.7220 C   0  0  0  0  0  2  0  0  0  0  0  0
  187.8830  177.8060  147.2100 O   0  0  0  0  0  0  0  0  0  0  0  0
  185.6520  177.1680  146.8780 C   0  0  0  0  0  3  0  0  0  0  0  0
  184.8060  178.5600  144.2980 C   0  0  0  0  0  3  0  0  0  0  0  0
  184.4300  177.5400  146.5090 C   0  0  0  0  0  3  0  0  0  0  0  0
  187.0520  178.4090  145.1630 O   0  0  0  0  0  0  0  0  0  0  0  0
  186.1210  178.4260  144.1130 C   0  0  0  0  0  0  0  0  0  0  0  0
  186.8920  177.8220  146.4300 C   0  0  0  0  0  0  0  0  0  0  0  0
  184.1980  178.7370  145.6480 C   0  0  0  0  0  2  0  0  0  0  0  0
  1 22  1  6  0  0  0
  1 11  1  0  0  0  0
  1 30  1  0  0  0  0
  2 15  1  0  0  0  0
  2 18  1  0  0  0  0
  3 25  1  0  0  0  0
  3 17  1  1  0  0  0
  4  9  1  0  0  0  0
  5  6  2  0  0  0  0
  7 23  1  0  0  0  0
  9  7  1  0  0  0  0
 10 25  1  0  0  0  0
 10 13  1  0  0  0  0
 11  3  1  0  0  0  0
 13  5  1  0  0  0  0
 14 19  1  0  0  0  0
 15 27  1  0  0  0  0
 16 28  1  0  0  0  0
 18 33  1  0  0  0  0
 18  4  1  0  0  0  0
 19  8  1  0  0  0  0
 19 32  1  0  0  0  0
 21 15  1  0  0  0  0
 21  8  1  0  0  0  0
 23 16  1  0  0  0  0
 23 37  1  0  0  0  0
 24 31  1  0  0  0  0
 24 14  1  0  0  0  0
 25 13  1  0  0  0  0
 26 22  1  0  0  0  0
 26 21  1  0  0  0  0
 27 20  1  0  0  0  0
 27  4  1  0  0  0  0
 28  6  1  0  0  0  0
 28 12  1  0  0  0  0
 29  3  1  0  0  0  0
 30  9  1  0  0  0  0
 31 26  1  0  0  0  0
 31 21  1  0  0  0  0
 32 20  1  0  0  0  0
 33 36  1  0  0  0  0
 34 36  2  0  0  0  0
 36 35  1  0  0  0  0
 37 38  1  0  0  0  0
 39 13  1  0  0  0  0
 40 41  1  0  0  0  0
 40 39  1  0  0  0  0
 41 47  1  0  0  0  0
 44 49  1  0  0  0  0
 45 43  2  0  0  0  0
 46 48  1  0  0  0  0
 47 44  2  0  0  0  0
 47 46  1  0  0  0  0
 48 43  1  0  0  0  0
 48 42  2  0  0  0  0
 49 45  1  0  0  0  0
M  END
>  <MODEL>
5

>  <REMARK>
 VINA RESULT:      -8.1      1.995      2.764
  Name = 
  6 active torsions:
  status: ('A' for Active; 'I' for Inactive)
    1  A    between atoms: N_1  and  C_30
    2  A    between atoms: C_3  and  C_35
    3  A    between atoms: O_6  and  C_23
    4  A    between atoms: O_6  and  C_41
    5  A    between atoms: C_11  and  C_37
    6  A    between atoms: C_11  and  C_41
                            x       y       z     vdW  Elec       q    Type
                         _______ _______ _______ _____ _____    ______ ____

>  <TORSDO>
F 6

$$$$
=
 OpenBabel11062418163D

 49 56  0  0  1  0  0  0  0  0999 V2000
  192.3980  172.2910  142.6180 N   0  0  2  0  0  0  0  0  0  0  0  0
  195.6420  172.4060  142.5730 O   0  0  0  0  0  0  0  0  0  0  0  0
  189.9540  172.5400  143.3270 C   0  0  1  0  0  0  0  0  0  0  0  0
  195.0920  173.6770  144.4320 C   0  0  2  0  0  3  0  0  0  0  0  0
  189.0160  176.3070  142.5980 N   0  0  0  0  0  0  0  0  0  0  0  0
  189.6140  177.0660  143.4700 C   0  0  0  0  0  3  0  0  0  0  0  0
  193.0220  174.7900  144.9520 C   0  0  0  0  0  2  0  0  0  0  0  0
  194.3840  169.7520  145.0710 C   0  0  0  0  0  2  0  0  0  0  0  0
  193.6550  173.8500  144.0410 N   0  0  2  0  0  0  0  0  0  0  0  0
  190.6580  174.5470  141.8500 C   0  0  0  0  0  2  0  0  0  0  0  0
  191.0460  171.7130  142.6220 C   0  0  0  0  0  2  0  0  0  0  0  0
  190.5310  176.7390  145.6970 C   0  0  0  0  0  1  0  0  0  0  0  0
  189.2540  174.8900  142.2750 C   0  0  1  0  0  0  0  0  0  0  0  0
  196.3930  168.5900  144.5740 C   0  0  0  0  0  2  0  0  0  0  0  0
  195.6570  171.5330  143.6750 C   0  0  2  0  0  3  0  0  0  0  0  0
  192.0560  176.8750  143.6910 C   0  0  0  0  0  2  0  0  0  0  0  0
  189.9800  172.1780  144.8020 C   0  0  0  0  0  1  0  0  0  0  0  0
  195.8980  173.6590  143.1490 C   0  0  2  0  0  3  0  0  0  0  0  0
  195.7630  169.3900  145.4680 C   0  0  1  0  0  3  0  0  0  0  0  0
  196.5070  171.8920  145.9450 C   0  0  0  0  0  2  0  0  0  0  0  0
  194.6180  170.4060  143.6940 C   0  0  2  0  0  0  0  0  0  0  0  0
  193.2690  171.3200  141.9140 C   0  0  0  0  0  2  0  0  0  0  0  0
  193.2350  176.2050  144.4210 C   0  0  1  0  0  3  0  0  0  0  0  0
  195.5920  168.1730  143.3150 C   0  0  0  0  0  2  0  0  0  0  0  0
  190.1400  174.0790  143.2280 C   0  0  1  0  0  3  0  0  0  0  0  0
  193.5900  170.0200  142.6950 C   0  0  1  0  0  3  0  0  0  0  0  0
  195.3920  172.2790  144.9420 C   0  0  1  0  0  3  0  0  0  0  0  0
  190.7260  176.6350  144.2630 N   0  0  0  0  0  0  0  0  0  0  0  0
  188.7130  172.1240  142.8390 O   0  0  0  0  0  1  0  0  0  0  0  0
  192.8290  172.6200  143.9950 C   0  0  0  0  0  2  0  0  0  0  0  0
  195.0530  169.4570  142.5860 C   0  0  1  0  0  3  0  0  0  0  0  0
  196.4830  170.3720  146.3970 C   0  0  0  0  0  2  0  0  0  0  0  0
  195.4910  174.7450  142.2650 N   0  0  0  0  0  2  0  0  0  0  0  0
  197.3110  174.8130  140.8080 O   0  0  0  0  0  0  0  0  0  0  0  0
  196.2820  176.8470  141.2480 N   0  0  0  0  0  1  0  0  0  0  0  0
  196.3890  175.4260  141.3940 C   0  0  0  0  0  0  0  0  0  0  0  0
  194.0220  177.1400  145.3400 C   0  0  0  0  0  2  0  0  0  0  0  0
  194.1300  176.5860  146.6810 N   0  0  0  0  0  1  0  0  0  0  0  0
  188.2310  174.2410  141.5580 O   0  0  0  0  0  0  0  0  0  0  0  0
  188.4900  174.3920  140.1790 C   0  0  0  0  0  2  0  0  0  0  0  0
  188.3010  173.0720  139.4280 C   0  0  0  0  0  2  0  0  0  0  0  0
  191.7790  169.9700  138.9850 O   0  0  0  0  0  0  0  0  0  0  0  0
  192.4920  172.1200  138.3800 C   0  0  0  0  0  3  0  0  0  0  0  0
  189.9340  173.6420  137.7120 C   0  0  0  0  0  3  0  0  0  0  0  0
  192.3430  173.1520  137.5550 C   0  0  0  0  0  3  0  0  0  0  0  0
  190.0670  171.4730  138.7560 O   0  0  0  0  0  0  0  0  0  0  0  0
  189.4890  172.7410  138.5900 C   0  0  0  0  0  0  0  0  0  0  0  0
  191.4330  171.1480  138.6970 C   0  0  0  0  0  0  0  0  0  0  0  0
  191.0780  173.3760  136.7940 C   0  0  0  0  0  2  0  0  0  0  0  0
  1 22  1  1  0  0  0
  1 11  1  0  0  0  0
  1 30  1  0  0  0  0
  2 18  1  0  0  0  0
  2 15  1  0  0  0  0
  3 17  1  1  0  0  0
  4 27  1  0  0  0  0
  5  6  2  0  0  0  0
  6 28  1  0  0  0  0
  8 19  1  0  0  0  0
  9  4  1  0  0  0  0
  9  7  1  0  0  0  0
 10 13  1  0  0  0  0
 10 25  1  0  0  0  0
 11  3  1  0  0  0  0
 13  5  1  0  0  0  0
 13 25  1  0  0  0  0
 14 19  1  0  0  0  0
 15 21  1  0  0  0  0
 15 27  1  0  0  0  0
 16 28  1  0  0  0  0
 16 23  1  0  0  0  0
 18  4  1  0  0  0  0
 19 32  1  0  0  0  0
 20 32  1  0  0  0  0
 21  8  1  0  0  0  0
 22 26  1  0  0  0  0
 23  7  1  0  0  0  0
 23 37  1  0  0  0  0
 24 14  1  0  0  0  0
 25  3  1  0  0  0  0
 26 21  1  0  0  0  0
 27 20  1  0  0  0  0
 28 12  1  0  0  0  0
 29  3  1  0  0  0  0
 30  9  1  0  0  0  0
 31 26  1  0  0  0  0
 31 24  1  0  0  0  0
 31 21  1  0  0  0  0
 33 18  1  0  0  0  0
 34 36  2  0  0  0  0
 35 36  1  0  0  0  0
 36 33  1  0  0  0  0
 37 38  1  0  0  0  0
 39 13  1  0  0  0  0
 40 39  1  0  0  0  0
 41 40  1  0  0  0  0
 43 48  1  0  0  0  0
 44 47  2  0  0  0  0
 45 43  2  0  0  0  0
 47 46  1  0  0  0  0
 47 41  1  0  0  0  0
 48 46  1  0  0  0  0
 48 42  2  0  0  0  0
 49 45  1  0  0  0  0
 49 44  1  0  0  0  0
M  END
>  <MODEL>
6

>  <REMARK>
 VINA RESULT:      -8.1      2.407      4.609
  Name = 
  6 active torsions:
  status: ('A' for Active; 'I' for Inactive)
    1  A    between atoms: N_1  and  C_30
    2  A    between atoms: C_3  and  C_35
    3  A    between atoms: O_6  and  C_23
    4  A    between atoms: O_6  and  C_41
    5  A    between atoms: C_11  and  C_37
    6  A    between atoms: C_11  and  C_41
                            x       y       z     vdW  Elec       q    Type
                         _______ _______ _______ _____ _____    ______ ____

>  <TORSDO>
F 6

$$$$
=
 OpenBabel11062418163D

 49 56  0  0  1  0  0  0  0  0999 V2000
  191.6930  172.7840  142.9710 N   0  0  2  0  0  0  0  0  0  0  0  0
  192.8150  174.8270  145.2310 O   0  0  0  0  0  0  0  0  0  0  0  0
  190.9580  171.7720  140.7410 C   0  0  1  0  0  0  0  0  0  0  0  0
  193.2660  175.9340  143.2440 C   0  0  2  0  0  3  0  0  0  0  0  0
  194.2920  170.7000  138.9130 N   0  0  0  0  0  0  0  0  0  0  0  0
  194.9170  171.7710  138.5160 C   0  0  0  0  0  3  0  0  0  0  0  0
  193.4850  175.0350  141.0220 C   0  0  0  0  0  2  0  0  0  0  0  0
  189.3050  175.8800  144.0320 C   0  0  0  0  0  2  0  0  0  0  0  0
  193.0890  174.7180  142.3850 N   0  0  2  0  0  0  0  0  0  0  0  0
  193.4190  171.1340  141.2380 C   0  0  0  0  0  2  0  0  0  0  0  0
  190.7480  171.9090  142.2600 C   0  0  0  0  0  2  0  0  0  0  0  0
  194.2680  174.0600  138.0230 C   0  0  0  0  0  1  0  0  0  0  0  0
  193.1730  170.5710  139.8620 C   0  0  1  0  0  0  0  0  0  0  0  0
  189.0160  176.7560  146.2190 C   0  0  0  0  0  2  0  0  0  0  0  0
  191.7130  175.6630  144.9780 C   0  0  2  0  0  3  0  0  0  0  0  0
  195.4380  173.4980  140.1870 C   0  0  0  0  0  2  0  0  0  0  0  0
  190.2170  172.9140  140.0670 C   0  0  0  0  0  1  0  0  0  0  0  0
  193.8660  175.4620  144.5540 C   0  0  2  0  0  3  0  0  0  0  0  0
  189.2910  177.0580  144.9270 C   0  0  1  0  0  3  0  0  0  0  0  0
  191.6540  177.9590  144.1250 C   0  0  0  0  0  2  0  0  0  0  0  0
  190.3640  174.9870  144.7100 C   0  0  2  0  0  0  0  0  0  0  0  0
  191.2830  172.7780  144.3950 C   0  0  0  0  0  2  0  0  0  0  0  0
  194.9870  174.7970  140.8800 C   0  0  1  0  0  3  0  0  0  0  0  0
  188.7490  175.2660  146.5510 C   0  0  0  0  0  2  0  0  0  0  0  0
  192.4390  171.8520  140.2810 C   0  0  1  0  0  3  0  0  0  0  0  0
  189.9800  173.5530  144.7220 C   0  0  1  0  0  3  0  0  0  0  0  0
  191.9450  176.4850  143.7520 C   0  0  1  0  0  3  0  0  0  0  0  0
  194.6440  173.0810  139.0260 N   0  0  0  0  0  0  0  0  0  0  0  0
  190.3360  170.5940  140.3220 O   0  0  0  0  0  1  0  0  0  0  0  0
  191.7310  174.1270  142.3470 C   0  0  0  0  0  2  0  0  0  0  0  0
  189.9540  174.3920  146.0500 C   0  0  1  0  0  3  0  0  0  0  0  0
  190.1390  178.2560  144.4890 C   0  0  0  0  0  2  0  0  0  0  0  0
  194.9770  174.5490  144.3170 N   0  0  0  0  0  2  0  0  0  0  0  0
  195.9800  174.5420  146.4230 O   0  0  0  0  0  0  0  0  0  0  0  0
  197.4130  174.3040  144.6120 N   0  0  0  0  0  1  0  0  0  0  0  0
  196.1050  174.4440  145.1800 C   0  0  0  0  0  0  0  0  0  0  0  0
  195.8160  176.0290  140.5150 C   0  0  0  0  0  2  0  0  0  0  0  0
  196.3770  176.6510  141.7030 N   0  0  0  0  0  1  0  0  0  0  0  0
  192.4720  169.3510  139.8260 O   0  0  0  0  0  0  0  0  0  0  0  0
  192.7530  168.7130  138.6000 C   0  0  0  0  0  2  0  0  0  0  0  0
  191.4760  168.4580  137.7980 C   0  0  0  0  0  2  0  0  0  0  0  0
  193.3650  171.9350  135.2950 O   0  0  0  0  0  0  0  0  0  0  0  0
  191.3740  172.6270  136.3200 C   0  0  0  0  0  3  0  0  0  0  0  0
  189.8540  170.0490  136.9180 C   0  0  0  0  0  3  0  0  0  0  0  0
  190.0600  172.4550  136.4310 C   0  0  0  0  0  3  0  0  0  0  0  0
  192.1450  170.2130  136.1850 O   0  0  0  0  0  0  0  0  0  0  0  0
  191.1200  169.6280  136.9440 C   0  0  0  0  0  0  0  0  0  0  0  0
  192.3170  171.5780  135.8990 C   0  0  0  0  0  0  0  0  0  0  0  0
  189.3970  171.1730  136.0500 C   0  0  0  0  0  2  0  0  0  0  0  0
  1 11  1  6  0  0  0
  1 22  1  0  0  0  0
  3 17  1  6  0  0  0
  3 11  1  0  0  0  0
  4 27  1  0  0  0  0
  4 18  1  0  0  0  0
  5 13  1  0  0  0  0
  6  5  2  0  0  0  0
  6 28  1  0  0  0  0
  7  9  1  0  0  0  0
  8 21  1  0  0  0  0
  8 19  1  0  0  0  0
  9  4  1  0  0  0  0
 12 28  1  0  0  0  0
 13 25  1  0  0  0  0
 13 10  1  0  0  0  0
 14 24  1  0  0  0  0
 15  2  1  0  0  0  0
 16 23  1  0  0  0  0
 18  2  1  0  0  0  0
 19 14  1  0  0  0  0
 20 32  1  0  0  0  0
 21 26  1  0  0  0  0
 21 15  1  0  0  0  0
 21 31  1  0  0  0  0
 22 26  1  0  0  0  0
 23  7  1  0  0  0  0
 25  3  1  0  0  0  0
 25 10  1  0  0  0  0
 26 31  1  0  0  0  0
 27 20  1  0  0  0  0
 27 15  1  0  0  0  0
 28 16  1  0  0  0  0
 29  3  1  0  0  0  0
 30  9  1  0  0  0  0
 30  1  1  0  0  0  0
 31 24  1  0  0  0  0
 32 19  1  0  0  0  0
 33 18  1  0  0  0  0
 33 36  1  0  0  0  0
 35 36  1  0  0  0  0
 36 34  2  0  0  0  0
 37 23  1  0  0  0  0
 37 38  1  0  0  0  0
 39 13  1  0  0  0  0
 40 39  1  0  0  0  0
 41 40  1  0  0  0  0
 42 48  2  0  0  0  0
 43 45  2  0  0  0  0
 44 47  2  0  0  0  0
 46 47  1  0  0  0  0
 47 41  1  0  0  0  0
 48 46  1  0  0  0  0
 48 43  1  0  0  0  0
 49 45  1  0  0  0  0
 49 44  1  0  0  0  0
M  END
>  <MODEL>
7

>  <REMARK>
 VINA RESULT:      -7.9      3.663      7.933
  Name = 
  6 active torsions:
  status: ('A' for Active; 'I' for Inactive)
    1  A    between atoms: N_1  and  C_30
    2  A    between atoms: C_3  and  C_35
    3  A    between atoms: O_6  and  C_23
    4  A    between atoms: O_6  and  C_41
    5  A    between atoms: C_11  and  C_37
    6  A    between atoms: C_11  and  C_41
                            x       y       z     vdW  Elec       q    Type
                         _______ _______ _______ _____ _____    ______ ____

>  <TORSDO>
F 6

$$$$
=
 OpenBabel11062418163D

 49 56  0  0  1  0  0  0  0  0999 V2000
  192.9220  175.3170  142.8950 N   0  0  2  0  0  0  0  0  0  0  0  0
  189.9450  174.0280  143.0380 O   0  0  0  0  0  0  0  0  0  0  0  0
  195.3570  175.9050  143.4070 C   0  0  1  0  0  0  0  0  0  0  0  0
  191.1110  172.8530  144.6610 C   0  0  2  0  0  3  0  0  0  0  0  0
  197.4850  172.8460  142.0970 N   0  0  0  0  0  0  0  0  0  0  0  0
  197.2940  171.8300  142.8890 C   0  0  0  0  0  3  0  0  0  0  0  0
  193.4850  172.5260  144.8880 C   0  0  0  0  0  2  0  0  0  0  0  0
  190.4460  176.6700  145.8010 C   0  0  0  0  0  2  0  0  0  0  0  0
  192.4640  173.2620  144.1600 N   0  0  2  0  0  0  0  0  0  0  0  0
  195.2530  173.9520  141.7090 C   0  0  0  0  0  2  0  0  0  0  0  0
  193.9730  176.3460  142.8960 C   0  0  0  0  0  2  0  0  0  0  0  0
  196.5710  171.5560  145.1930 C   0  0  0  0  0  1  0  0  0  0  0  0
  196.7250  174.1030  141.9920 C   0  0  1  0  0  0  0  0  0  0  0  0
  188.1130  177.0630  145.6000 C   0  0  0  0  0  2  0  0  0  0  0  0
  189.7430  174.7100  144.2510 C   0  0  2  0  0  3  0  0  0  0  0  0
  194.9840  171.0890  143.2880 C   0  0  0  0  0  2  0  0  0  0  0  0
  195.3660  176.0700  144.9170 C   0  0  0  0  0  1  0  0  0  0  0  0
  190.2150  172.7140  143.4460 C   0  0  2  0  0  3  0  0  0  0  0  0
  189.0800  176.4580  146.3310 C   0  0  1  0  0  3  0  0  0  0  0  0
  189.3300  173.8210  146.4960 C   0  0  0  0  0  2  0  0  0  0  0  0
  190.3090  176.1300  144.3630 C   0  0  2  0  0  0  0  0  0  0  0  0
  191.6920  175.9720  142.3910 C   0  0  0  0  0  2  0  0  0  0  0  0
  193.7310  171.1980  144.1780 C   0  0  1  0  0  3  0  0  0  0  0  0
  188.5720  177.8780  144.3640 C   0  0  0  0  0  2  0  0  0  0  0  0
  195.7190  174.4250  143.1040 C   0  0  1  0  0  3  0  0  0  0  0  0
  191.0170  176.9720  143.3660 C   0  0  1  0  0  3  0  0  0  0  0  0
  190.3920  173.9810  145.3810 C   0  0  1  0  0  3  0  0  0  0  0  0
  196.1950  171.7360  143.8030 N   0  0  0  0  0  0  0  0  0  0  0  0
  196.3080  176.7960  142.9060 O   0  0  0  0  0  1  0  0  0  0  0  0
  192.7890  174.7060  144.2370 C   0  0  0  0  0  2  0  0  0  0  0  0
  189.4470  176.9690  143.4300 C   0  0  1  0  0  3  0  0  0  0  0  0
  188.8620  175.1860  147.1560 C   0  0  0  0  0  2  0  0  0  0  0  0
  190.8820  171.9550  142.3950 N   0  0  0  0  0  2  0  0  0  0  0  0
  190.0860  173.0610  140.5020 O   0  0  0  0  0  0  0  0  0  0  0  0
  190.4760  170.7850  140.2630 N   0  0  0  0  0  1  0  0  0  0  0  0
  190.4880  171.9970  141.0270 C   0  0  0  0  0  0  0  0  0  0  0  0
  193.4330  169.9450  145.0030 C   0  0  0  0  0  2  0  0  0  0  0  0
  193.7520  168.7390  144.2560 N   0  0  0  0  0  1  0  0  0  0  0  0
  197.3660  175.1560  141.3110 O   0  0  0  0  0  0  0  0  0  0  0  0
  197.9410  174.6370  140.1320 C   0  0  0  0  0  2  0  0  0  0  0  0
  197.3640  175.3110  138.8860 C   0  0  0  0  0  2  0  0  0  0  0  0
  193.0680  175.6570  137.0560 O   0  0  0  0  0  0  0  0  0  0  0  0
  193.3170  173.6460  138.2350 C   0  0  0  0  0  3  0  0  0  0  0  0
  196.3280  173.1700  138.3600 C   0  0  0  0  0  3  0  0  0  0  0  0
  193.9610  172.4880  138.3380 C   0  0  0  0  0  3  0  0  0  0  0  0
  195.2360  175.1910  137.6250 O   0  0  0  0  0  0  0  0  0  0  0  0
  196.2690  174.5000  138.2790 C   0  0  0  0  0  0  0  0  0  0  0  0
  193.8720  174.8530  137.6020 C   0  0  0  0  0  0  0  0  0  0  0  0
  195.3100  172.2790  137.7320 C   0  0  0  0  0  2  0  0  0  0  0  0
  1 22  1  1  0  0  0
  1 11  1  0  0  0  0
  1 30  1  0  0  0  0
  2 18  1  0  0  0  0
  2 15  1  0  0  0  0
  3 17  1  1  0  0  0
  4 27  1  0  0  0  0
  5  6  2  0  0  0  0
  6 28  1  0  0  0  0
  8 19  1  0  0  0  0
  9 30  1  0  0  0  0
  9  4  1  0  0  0  0
  9  7  1  0  0  0  0
 10 13  1  0  0  0  0
 10 25  1  0  0  0  0
 11  3  1  0  0  0  0
 13  5  1  0  0  0  0
 13 25  1  0  0  0  0
 14 19  1  0  0  0  0
 15 21  1  0  0  0  0
 15 27  1  0  0  0  0
 16 28  1  0  0  0  0
 16 23  1  0  0  0  0
 18  4  1  0  0  0  0
 19 32  1  0  0  0  0
 20 32  1  0  0  0  0
 21  8  1  0  0  0  0
 22 26  1  0  0  0  0
 23  7  1  0  0  0  0
 23 37  1  0  0  0  0
 24 14  1  0  0  0  0
 25  3  1  0  0  0  0
 26 31  1  0  0  0  0
 26 21  1  0  0  0  0
 27 20  1  0  0  0  0
 28 12  1  0  0  0  0
 29  3  1  0  0  0  0
 31 21  1  0  0  0  0
 31 24  1  0  0  0  0
 33 18  1  0  0  0  0
 34 36  2  0  0  0  0
 35 36  1  0  0  0  0
 36 33  1  0  0  0  0
 38 37  1  0  0  0  0
 39 13  1  0  0  0  0
 40 39  1  0  0  0  0
 41 40  1  0  0  0  0
 42 48  2  0  0  0  0
 43 45  2  0  0  0  0
 46 47  1  0  0  0  0
 47 44  2  0  0  0  0
 47 41  1  0  0  0  0
 48 46  1  0  0  0  0
 48 43  1  0  0  0  0
 49 45  1  0  0  0  0
 49 44  1  0  0  0  0
M  END
>  <MODEL>
8

>  <REMARK>
 VINA RESULT:      -7.7      2.785      8.571
  Name = 
  6 active torsions:
  status: ('A' for Active; 'I' for Inactive)
    1  A    between atoms: N_1  and  C_30
    2  A    between atoms: C_3  and  C_35
    3  A    between atoms: O_6  and  C_23
    4  A    between atoms: O_6  and  C_41
    5  A    between atoms: C_11  and  C_37
    6  A    between atoms: C_11  and  C_41
                            x       y       z     vdW  Elec       q    Type
                         _______ _______ _______ _____ _____    ______ ____

>  <TORSDO>
F 6

$$$$
=
 OpenBabel11062418163D

 49 56  0  0  1  0  0  0  0  0999 V2000
  192.5110  175.1050  144.1300 N   0  0  2  0  0  0  0  0  0  0  0  0
  194.4300  172.7960  142.8920 O   0  0  0  0  0  0  0  0  0  0  0  0
  190.8200  177.0070  144.3690 C   0  0  1  0  0  0  0  0  0  0  0  0
  193.1390  173.4430  141.0780 C   0  0  2  0  0  3  0  0  0  0  0  0
  187.2650  175.3050  144.1160 N   0  0  0  0  0  0  0  0  0  0  0  0
  187.0620  174.9340  142.8840 C   0  0  0  0  0  3  0  0  0  0  0  0
  190.9970  174.5400  141.0540 C   0  0  0  0  0  2  0  0  0  0  0  0
  195.7960  176.3110  142.0900 C   0  0  0  0  0  2  0  0  0  0  0  0
  192.1040  174.1400  141.9080 N   0  0  2  0  0  0  0  0  0  0  0  0
  189.6440  174.7260  144.7140 C   0  0  0  0  0  2  0  0  0  0  0  0
  192.1270  176.3380  144.8330 C   0  0  0  0  0  2  0  0  0  0  0  0
  187.9440  175.5990  140.7190 C   0  0  0  0  0  1  0  0  0  0  0  0
  188.5170  175.7230  144.7700 C   0  0  1  0  0  0  0  0  0  0  0  0
  197.9400  175.2940  142.1340 C   0  0  0  0  0  2  0  0  0  0  0  0
  195.1520  173.8000  142.2220 C   0  0  2  0  0  3  0  0  0  0  0  0
  188.7300  173.4710  141.8240 C   0  0  0  0  0  2  0  0  0  0  0  0
  191.1580  177.9230  143.2050 C   0  0  0  0  0  1  0  0  0  0  0  0
  193.6210  172.2530  141.8850 C   0  0  2  0  0  3  0  0  0  0  0  0
  196.9450  175.7560  141.3400 C   0  0  1  0  0  3  0  0  0  0  0  0
  195.4550  174.1720  139.8190 C   0  0  0  0  0  2  0  0  0  0  0  0
  195.3940  175.1140  142.9740 C   0  0  2  0  0  0  0  0  0  0  0  0
  193.7950  174.6630  144.7250 C   0  0  0  0  0  2  0  0  0  0  0  0
  190.0050  173.3830  140.9640 C   0  0  1  0  0  3  0  0  0  0  0  0
  197.7390  175.4290  143.6650 C   0  0  0  0  0  2  0  0  0  0  0  0
  189.7260  176.0220  143.8760 C   0  0  1  0  0  3  0  0  0  0  0  0
  195.0350  175.5190  144.3560 C   0  0  1  0  0  3  0  0  0  0  0  0
  194.4350  174.2280  140.9840 C   0  0  1  0  0  3  0  0  0  0  0  0
  188.1100  174.7980  141.9170 N   0  0  0  0  0  0  0  0  0  0  0  0
  190.3660  177.8310  145.4010 O   0  0  0  0  0  1  0  0  0  0  0  0
  192.5560  175.3300  142.6670 C   0  0  0  0  0  2  0  0  0  0  0  0
  196.3800  174.7570  144.0770 C   0  0  1  0  0  3  0  0  0  0  0  0
  196.6440  175.2140  139.9390 C   0  0  0  0  0  2  0  0  0  0  0  0
  192.4940  171.5160  142.4450 N   0  0  0  0  0  2  0  0  0  0  0  0
  192.8530  169.4110  141.5080 O   0  0  0  0  0  0  0  0  0  0  0  0
  190.6360  170.0140  141.8390 N   0  0  0  0  0  1  0  0  0  0  0  0
  192.0430  170.2660  141.9360 C   0  0  0  0  0  0  0  0  0  0  0  0
  189.7820  172.8140  139.5620 C   0  0  0  0  0  2  0  0  0  0  0  0
  188.3830  172.4790  139.3510 N   0  0  0  0  0  1  0  0  0  0  0  0
  188.3740  176.4050  145.9940 O   0  0  0  0  0  0  0  0  0  0  0  0
  187.0080  176.7050  146.1790 C   0  0  0  0  0  2  0  0  0  0  0  0
  186.7500  178.2100  146.0850 C   0  0  0  0  0  2  0  0  0  0  0  0
  182.7580  179.0410  143.7840 O   0  0  0  0  0  0  0  0  0  0  0  0
  184.3370  178.0230  142.3810 C   0  0  0  0  0  3  0  0  0  0  0  0
  187.0350  178.5790  143.6940 C   0  0  0  0  0  3  0  0  0  0  0  0
  185.5300  178.1080  141.8000 C   0  0  0  0  0  3  0  0  0  0  0  0
  184.8670  178.9780  144.6720 O   0  0  0  0  0  0  0  0  0  0  0  0
  186.2150  178.5930  144.7460 C   0  0  0  0  0  0  0  0  0  0  0  0
  183.9660  178.7150  143.6260 C   0  0  0  0  0  0  0  0  0  0  0  0
  186.6020  179.0020  142.3310 C   0  0  0  0  0  2  0  0  0  0  0  0
  1 30  1  6  0  0  0
  1 22  1  0  0  0  0
  1 11  1  0  0  0  0
  3 17  1  6  0  0  0
  3 11  1  0  0  0  0
  3 29  1  0  0  0  0
  4 18  1  0  0  0  0
  4  9  1  0  0  0  0
  5 13  1  0  0  0  0
  6  5  2  0  0  0  0
  7  9  1  0  0  0  0
  8 21  1  0  0  0  0
  9 30  1  0  0  0  0
 10 13  1  0  0  0  0
 12 28  1  0  0  0  0
 13 39  1  0  0  0  0
 14 24  1  0  0  0  0
 15  2  1  0  0  0  0
 15 21  1  0  0  0  0
 16 28  1  0  0  0  0
 18 33  1  0  0  0  0
 18  2  1  0  0  0  0
 19  8  1  0  0  0  0
 19 14  1  0  0  0  0
 20 32  1  0  0  0  0
 20 27  1  0  0  0  0
 21 31  1  0  0  0  0
 21 26  1  0  0  0  0
 23  7  1  0  0  0  0
 23 16  1  0  0  0  0
 24 31  1  0  0  0  0
 25  3  1  0  0  0  0
 25 10  1  0  0  0  0
 25 13  1  0  0  0  0
 26 22  1  0  0  0  0
 27  4  1  0  0  0  0
 27 15  1  0  0  0  0
 28  6  1  0  0  0  0
 31 26  1  0  0  0  0
 32 19  1  0  0  0  0
 34 36  2  0  0  0  0
 35 36  1  0  0  0  0
 36 33  1  0  0  0  0
 37 23  1  0  0  0  0
 38 37  1  0  0  0  0
 39 40  1  0  0  0  0
 41 40  1  0  0  0  0
 43 48  1  0  0  0  0
 44 47  2  0  0  0  0
 45 49  1  0  0  0  0
 45 43  2  0  0  0  0
 46 47  1  0  0  0  0
 47 41  1  0  0  0  0
 48 42  2  0  0  0  0
 48 46  1  0  0  0  0
 49 44  1  0  0  0  0
M  END
>  <MODEL>
9

>  <REMARK>
 VINA RESULT:      -7.7      2.676      5.427
  Name = 
  6 active torsions:
  status: ('A' for Active; 'I' for Inactive)
    1  A    between atoms: N_1  and  C_30
    2  A    between atoms: C_3  and  C_35
    3  A    between atoms: O_6  and  C_23
    4  A    between atoms: O_6  and  C_41
    5  A    between atoms: C_11  and  C_37
    6  A    between atoms: C_11  and  C_41
                            x       y       z     vdW  Elec       q    Type
                         _______ _______ _______ _____ _____    ______ ____

>  <TORSDO>
F 6

$$$$
