=
 OpenBabel11062420513D

 50 55  0  0  1  0  0  0  0  0999 V2000
  190.3520  177.4230  143.6070 C   0  0  1  0  0  0  0  0  0  0  0  0
  189.2040  177.9250  142.9680 O   0  0  0  0  0  0  0  0  0  0  0  0
  189.9150  176.9190  142.2720 C   0  0  2  0  0  3  0  0  0  0  0  0
  191.5080  178.4030  143.6510 C   0  0  0  0  0  1  0  0  0  0  0  0
  190.1170  176.5810  144.7180 O   0  0  0  0  0  0  0  0  0  0  0  0
  190.7900  177.1100  145.8300 C   0  0  0  0  0  2  0  0  0  0  0  0
  190.8110  174.7960  146.7630 C   0  0  0  0  0  1  0  0  0  0  0  0
  191.6510  176.0180  146.4390 C   0  0  1  0  0  3  0  0  0  0  0  0
  192.7350  175.6690  145.5340 N   0  0  0  0  0  2  0  0  0  0  0  0
  194.0830  176.0570  145.8000 C   0  0  0  0  0  0  0  0  0  0  0  0
  194.3730  176.6710  146.8560 O   0  0  0  0  0  0  0  0  0  0  0  0
  195.1580  175.7050  144.8400 C   0  0  0  0  0  2  0  0  0  0  0  0
  195.3870  174.2600  144.8520 N   0  0  0  0  0  0  0  0  0  0  0  0
  197.0760  173.8400  146.5630 C   0  0  0  0  0  2  0  0  0  0  0  0
  197.0240  172.6390  145.6460 C   0  0  0  0  0  2  0  0  0  0  0  0
  196.8130  174.0320  145.0780 C   0  0  0  0  0  3  0  0  0  0  0  0
  194.9960  173.6420  143.5670 C   0  0  2  0  0  3  0  0  0  0  0  0
  194.7570  171.3520  142.5650 C   0  0  0  0  0  3  0  0  0  0  0  0
  194.5680  172.1940  143.6650 C   0  0  0  0  0  0  0  0  0  0  0  0
  193.9840  171.6790  144.8340 C   0  0  0  0  0  3  0  0  0  0  0  0
  194.3660  170.0100  142.6260 C   0  0  0  0  0  3  0  0  0  0  0  0
  193.5960  170.3390  144.8960 C   0  0  0  0  0  3  0  0  0  0  0  0
  193.7870  169.5030  143.7910 C   0  0  0  0  0  3  0  0  0  0  0  0
  196.0540  173.8650  142.4920 C   0  0  0  0  0  2  0  0  0  0  0  0
  195.6570  174.9270  141.6280 O   0  0  0  0  0  0  0  0  0  0  0  0
  193.4170  175.7730  141.6290 C   0  0  0  0  0  2  0  0  0  0  0  0
  194.3730  175.0190  141.0870 C   0  0  0  0  0  3  0  0  0  0  0  0
  189.1930  175.6390  142.3630 N   0  0  0  0  0  0  0  0  0  0  0  0
  191.5070  172.5320  140.7980 S   0  0  0  0  0  0  0  0  0  0  0  0
  190.9290  172.3950  143.4610 C   0  0  0  0  0  2  0  0  0  0  0  0
  189.6120  174.1480  139.9160 O   0  0  0  0  0  0  0  0  0  0  0  0
  189.5040  171.1880  141.9420 O   0  0  0  0  0  1  0  0  0  0  0  0
  189.9100  174.3870  142.2670 C   0  0  0  0  0  0  0  0  0  0  0  0
  190.2530  173.8080  140.9460 C   0  0  0  0  0  0  0  0  0  0  0  0
  190.1860  173.7030  143.3910 C   0  0  0  0  0  3  0  0  0  0  0  0
  190.8280  171.5670  142.1860 C   0  0  1  0  0  3  0  0  0  0  0  0
  186.1930  177.0790  142.8950 N   0  0  0  0  0  0  0  0  0  0  0  0
  185.1000  177.5970  143.6680 C   0  0  0  0  0  0  0  0  0  0  0  0
  187.2820  176.2570  141.1040 O   0  0  0  0  0  0  0  0  0  0  0  0
  185.6290  177.9090  140.6670 C   0  0  0  0  0  2  0  0  0  0  0  0
  184.1230  178.1640  143.1010 O   0  0  0  0  0  0  0  0  0  0  0  0
  186.3130  177.1250  141.4910 C   0  0  0  0  0  0  0  0  0  0  0  0
  187.1210  176.2340  143.4260 O   0  0  0  0  0  0  0  0  0  0  0  0
  187.7270  175.6050  142.2880 C   0  0  2  0  0  3  0  0  0  0  0  0
  185.9320  178.6160  147.6840 C   0  0  0  0  0  2  0  0  0  0  0  0
  186.5820  177.5740  145.6590 C   0  0  0  0  0  2  0  0  0  0  0  0
  184.2820  178.5780  145.8110 C   0  0  0  0  0  2  0  0  0  0  0  0
  184.4460  178.5540  147.3280 C   0  0  0  0  0  2  0  0  0  0  0  0
  185.1360  177.4880  145.1620 C   0  0  1  0  0  3  0  0  0  0  0  0
  186.6210  177.4600  147.1170 N   0  0  0  0  0  2  0  0  0  0  0  0
  1  4  1  1  0  0  0
  1  5  1  0  0  0  0
  2  1  1  0  0  0  0
  3 28  1  1  0  0  0
  3  2  1  0  0  0  0
  3  1  1  0  0  0  0
  5  6  1  0  0  0  0
  6  8  1  0  0  0  0
  8  7  1  6  0  0  0
  9 10  1  0  0  0  0
  9  8  1  0  0  0  0
 10 11  2  0  0  0  0
 12 13  1  0  0  0  0
 12 10  1  0  0  0  0
 13 16  1  0  0  0  0
 15 14  1  0  0  0  0
 16 15  1  0  0  0  0
 16 14  1  0  0  0  0
 17 24  1  6  0  0  0
 17 19  1  0  0  0  0
 17 13  1  0  0  0  0
 18 21  2  0  0  0  0
 18 19  1  0  0  0  0
 19 20  2  0  0  0  0
 20 22  1  0  0  0  0
 21 23  1  0  0  0  0
 23 22  2  0  0  0  0
 25 24  1  0  0  0  0
 27 25  1  0  0  0  0
 27 26  2  0  0  0  0
 29 34  1  0  0  0  0
 29 36  1  0  0  0  0
 31 34  2  0  0  0  0
 33 28  1  0  0  0  0
 33 35  2  0  0  0  0
 34 33  1  0  0  0  0
 35 30  1  0  0  0  0
 36 32  1  6  0  0  0
 36 30  1  0  0  0  0
 37 43  1  0  0  0  0
 37 38  1  0  0  0  0
 39 42  1  0  0  0  0
 39 44  1  0  0  0  0
 40 42  2  0  0  0  0
 41 38  2  0  0  0  0
 42 37  1  0  0  0  0
 44 28  1  1  0  0  0
 44 43  1  0  0  0  0
 46 50  1  0  0  0  0
 47 48  1  0  0  0  0
 48 45  1  0  0  0  0
 49 38  1  6  0  0  0
 49 46  1  0  0  0  0
 49 47  1  0  0  0  0
 50 45  1  0  0  0  0
M  END
>  <MODEL>
1

>  <REMARK>
 VINA RESULT:      -6.7      0.000      0.000
  Name = 
  16 active torsions:
  status: ('A' for Active; 'I' for Inactive)
    1  A    between atoms: N_2  and  C_37
    2  A    between atoms: C_5  and  C_10
    3  A    between atoms: C_10  and  N_38
    4  A    between atoms: C_10  and  C_43
    5  A    between atoms: C_13  and  C_36
    6  A    between atoms: C_22  and  N_38
    7  A    between atoms: C_25  and  N_29
    8  A    between atoms: O_26  and  C_30
    9  A    between atoms: O_26  and  C_34
   10  A    between atoms: C_27  and  C_35
   11  A    between atoms: N_29  and  C_48
   12  A    between atoms: N_29  and  C_50
   13  A    between atoms: C_33  and  O_47
   14  A    between atoms: C_34  and  C_37
   15  A    between atoms: C_35  and  N_38
   16  A    between atoms: C_43  and  O_47
                            x       y       z     vdW  Elec       q    Type
                         _______ _______ _______ _____ _____    ______ ____

>  <TORSDO>
F 16

$$$$
=
 OpenBabel11062420513D

 50 55  0  0  1  0  0  0  0  0999 V2000
  191.7580  171.0270  141.6120 C   0  0  1  0  0  0  0  0  0  0  0  0
  193.1090  171.4020  141.7370 O   0  0  0  0  0  0  0  0  0  0  0  0
  192.6330  171.2130  140.4170 C   0  0  2  0  0  3  0  0  0  0  0  0
  191.4720  169.6090  142.0660 C   0  0  0  0  0  1  0  0  0  0  0  0
  190.8130  172.0430  141.8790 O   0  0  0  0  0  0  0  0  0  0  0  0
  189.8290  171.5250  142.7350 C   0  0  0  0  0  2  0  0  0  0  0  0
  190.1620  172.7480  144.8840 C   0  0  0  0  0  1  0  0  0  0  0  0
  189.3220  172.6460  143.6240 C   0  0  1  0  0  3  0  0  0  0  0  0
  189.3340  173.9080  142.8990 N   0  0  0  0  0  2  0  0  0  0  0  0
  188.2150  174.3300  142.1200 C   0  0  0  0  0  0  0  0  0  0  0  0
  187.1670  173.6410  142.0840 O   0  0  0  0  0  0  0  0  0  0  0  0
  188.2740  175.6110  141.3720 C   0  0  0  0  0  2  0  0  0  0  0  0
  187.3730  176.5890  141.9820 N   0  0  0  0  0  0  0  0  0  0  0  0
  186.4450  177.3350  139.8520 C   0  0  0  0  0  2  0  0  0  0  0  0
  185.8070  178.1480  140.9560 C   0  0  0  0  0  2  0  0  0  0  0  0
  187.2620  177.7280  141.0720 C   0  0  0  0  0  3  0  0  0  0  0  0
  187.8910  177.0600  143.2850 C   0  0  2  0  0  3  0  0  0  0  0  0
  186.2200  176.5060  145.0760 C   0  0  0  0  0  3  0  0  0  0  0  0
  186.8270  177.4790  144.2760 C   0  0  0  0  0  0  0  0  0  0  0  0
  186.4350  178.8210  144.4070 C   0  0  0  0  0  3  0  0  0  0  0  0
  185.2290  176.8640  145.9970 C   0  0  0  0  0  3  0  0  0  0  0  0
  185.4480  179.1800  145.3290 C   0  0  0  0  0  3  0  0  0  0  0  0
  184.8450  178.2000  146.1240 C   0  0  0  0  0  3  0  0  0  0  0  0
  188.9720  178.1190  143.1090 C   0  0  0  0  0  2  0  0  0  0  0  0
  190.2370  177.6010  143.5150 O   0  0  0  0  0  0  0  0  0  0  0  0
  190.4160  177.0860  145.8470 C   0  0  0  0  0  2  0  0  0  0  0  0
  190.3770  176.6990  144.5720 C   0  0  0  0  0  3  0  0  0  0  0  0
  192.4260  172.5180  139.7660 N   0  0  0  0  0  0  0  0  0  0  0  0
  190.0080  171.8900  136.4180 S   0  0  0  0  0  0  0  0  0  0  0  0
  189.1510  173.7680  138.2010 C   0  0  0  0  0  2  0  0  0  0  0  0
  192.5860  171.7480  136.9790 O   0  0  0  0  0  0  0  0  0  0  0  0
  190.4170  174.5260  136.2990 O   0  0  0  0  0  1  0  0  0  0  0  0
  191.3680  172.6900  138.7960 C   0  0  0  0  0  0  0  0  0  0  0  0
  191.4650  172.0760  137.4500 C   0  0  0  0  0  0  0  0  0  0  0  0
  190.3310  173.4920  139.0950 C   0  0  0  0  0  3  0  0  0  0  0  0
  189.4560  173.6000  136.7170 C   0  0  1  0  0  3  0  0  0  0  0  0
  194.8890  174.0430  141.4890 N   0  0  0  0  0  0  0  0  0  0  0  0
  195.4710  174.8070  142.5550 C   0  0  0  0  0  0  0  0  0  0  0  0
  194.7030  173.1000  139.4530 O   0  0  0  0  0  0  0  0  0  0  0  0
  196.8890  173.1760  140.3840 C   0  0  0  0  0  2  0  0  0  0  0  0
  196.7210  174.9840  142.6120 O   0  0  0  0  0  0  0  0  0  0  0  0
  195.5870  173.4320  140.4280 C   0  0  0  0  0  0  0  0  0  0  0  0
  193.5490  174.0520  141.2370 O   0  0  0  0  0  0  0  0  0  0  0  0
  193.4350  173.5780  139.8880 C   0  0  2  0  0  3  0  0  0  0  0  0
  194.1130  175.8360  146.4230 C   0  0  0  0  0  2  0  0  0  0  0  0
  194.2260  174.2830  144.6380 C   0  0  0  0  0  2  0  0  0  0  0  0
  195.2640  176.5520  144.3260 C   0  0  0  0  0  2  0  0  0  0  0  0
  194.4240  177.0230  145.5100 C   0  0  0  0  0  2  0  0  0  0  0  0
  194.5870  175.3740  143.6250 C   0  0  1  0  0  3  0  0  0  0  0  0
  193.3570  174.8310  145.6800 N   0  0  0  0  0  2  0  0  0  0  0  0
  1  2  1  0  0  0  0
  1  5  1  0  0  0  0
  1  4  1  1  0  0  0
  3 28  1  6  0  0  0
  3  1  1  0  0  0  0
  3  2  1  0  0  0  0
  5  6  1  0  0  0  0
  6  8  1  0  0  0  0
  8  7  1  1  0  0  0
  9  8  1  0  0  0  0
 10  9  1  0  0  0  0
 11 10  2  0  0  0  0
 12 13  1  0  0  0  0
 12 10  1  0  0  0  0
 13 17  1  0  0  0  0
 14 15  1  0  0  0  0
 14 16  1  0  0  0  0
 15 16  1  0  0  0  0
 16 13  1  0  0  0  0
 17 24  1  6  0  0  0
 17 19  1  0  0  0  0
 18 21  1  0  0  0  0
 19 20  1  0  0  0  0
 19 18  2  0  0  0  0
 20 22  2  0  0  0  0
 21 23  2  0  0  0  0
 22 23  1  0  0  0  0
 24 25  1  0  0  0  0
 25 27  1  0  0  0  0
 27 26  2  0  0  0  0
 29 36  1  0  0  0  0
 29 34  1  0  0  0  0
 30 35  1  0  0  0  0
 31 34  2  0  0  0  0
 33 35  2  0  0  0  0
 33 28  1  0  0  0  0
 34 33  1  0  0  0  0
 36 32  1  1  0  0  0
 36 30  1  0  0  0  0
 37 38  1  0  0  0  0
 38 41  2  0  0  0  0
 39 44  1  0  0  0  0
 39 42  1  0  0  0  0
 40 42  2  0  0  0  0
 42 37  1  0  0  0  0
 43 37  1  0  0  0  0
 44 28  1  1  0  0  0
 44 43  1  0  0  0  0
 46 50  1  0  0  0  0
 47 48  1  0  0  0  0
 48 45  1  0  0  0  0
 49 38  1  6  0  0  0
 49 47  1  0  0  0  0
 49 46  1  0  0  0  0
 50 45  1  0  0  0  0
M  END
>  <MODEL>
2

>  <REMARK>
 VINA RESULT:      -6.7      2.430      8.516
  Name = 
  16 active torsions:
  status: ('A' for Active; 'I' for Inactive)
    1  A    between atoms: N_2  and  C_37
    2  A    between atoms: C_5  and  C_10
    3  A    between atoms: C_10  and  N_38
    4  A    between atoms: C_10  and  C_43
    5  A    between atoms: C_13  and  C_36
    6  A    between atoms: C_22  and  N_38
    7  A    between atoms: C_25  and  N_29
    8  A    between atoms: O_26  and  C_30
    9  A    between atoms: O_26  and  C_34
   10  A    between atoms: C_27  and  C_35
   11  A    between atoms: N_29  and  C_48
   12  A    between atoms: N_29  and  C_50
   13  A    between atoms: C_33  and  O_47
   14  A    between atoms: C_34  and  C_37
   15  A    between atoms: C_35  and  N_38
   16  A    between atoms: C_43  and  O_47
                            x       y       z     vdW  Elec       q    Type
                         _______ _______ _______ _____ _____    ______ ____

>  <TORSDO>
F 16

$$$$
=
 OpenBabel11062420513D

 50 55  0  0  1  0  0  0  0  0999 V2000
  189.9400  172.2270  141.9360 C   0  0  1  0  0  0  0  0  0  0  0  0
  188.5880  172.3100  142.3150 O   0  0  0  0  0  0  0  0  0  0  0  0
  189.5350  172.6820  143.2990 C   0  0  2  0  0  3  0  0  0  0  0  0
  190.4490  170.8070  141.7860 C   0  0  0  0  0  1  0  0  0  0  0  0
  190.3860  173.2210  141.0350 O   0  0  0  0  0  0  0  0  0  0  0  0
  190.0380  172.8320  139.7330 C   0  0  0  0  0  2  0  0  0  0  0  0
  191.0430  173.7430  137.6390 C   0  0  0  0  0  1  0  0  0  0  0  0
  191.2820  172.8810  138.8640 C   0  0  1  0  0  3  0  0  0  0  0  0
  192.4110  173.3840  139.6310 N   0  0  0  0  0  2  0  0  0  0  0  0
  193.5280  172.5520  139.9470 C   0  0  0  0  0  0  0  0  0  0  0  0
  193.5830  171.3720  139.5250 O   0  0  0  0  0  0  0  0  0  0  0  0
  194.6490  173.0930  140.7550 C   0  0  0  0  0  2  0  0  0  0  0  0
  195.7950  173.3800  139.8910 N   0  0  0  0  0  0  0  0  0  0  0  0
  197.1050  171.4460  140.5990 C   0  0  0  0  0  2  0  0  0  0  0  0
  197.9410  172.2540  139.6310 C   0  0  0  0  0  2  0  0  0  0  0  0
  197.0060  172.9630  140.5970 C   0  0  0  0  0  3  0  0  0  0  0  0
  195.8880  174.8220  139.5810 C   0  0  2  0  0  3  0  0  0  0  0  0
  194.9810  175.1400  137.2610 C   0  0  0  0  0  3  0  0  0  0  0  0
  196.0880  175.1430  138.1160 C   0  0  0  0  0  0  0  0  0  0  0  0
  197.3580  175.4420  137.5960 C   0  0  0  0  0  3  0  0  0  0  0  0
  195.1370  175.4280  135.9000 C   0  0  0  0  0  3  0  0  0  0  0  0
  197.5130  175.7340  136.2390 C   0  0  0  0  0  3  0  0  0  0  0  0
  196.4010  175.7260  135.3900 C   0  0  0  0  0  3  0  0  0  0  0  0
  196.9050  175.5240  140.4740 C   0  0  0  0  0  2  0  0  0  0  0  0
  196.2650  176.5450  141.2360 O   0  0  0  0  0  0  0  0  0  0  0  0
  196.0770  175.3950  143.3280 C   0  0  0  0  0  2  0  0  0  0  0  0
  195.6240  176.2890  142.4510 C   0  0  0  0  0  3  0  0  0  0  0  0
  189.5670  174.1480  143.4350 N   0  0  0  0  0  0  0  0  0  0  0  0
  192.6160  176.6090  144.8830 S   0  0  0  0  0  0  0  0  0  0  0  0
  191.1530  175.2600  146.7500 C   0  0  0  0  0  2  0  0  0  0  0  0
  192.1760  175.1730  142.7100 O   0  0  0  0  0  0  0  0  0  0  0  0
  193.2250  174.2730  146.0220 O   0  0  0  0  0  1  0  0  0  0  0  0
  190.4950  174.7760  144.3490 C   0  0  0  0  0  0  0  0  0  0  0  0
  191.7120  175.4560  143.8460 C   0  0  0  0  0  0  0  0  0  0  0  0
  190.2890  174.6600  145.6730 C   0  0  0  0  0  3  0  0  0  0  0  0
  192.5970  175.4870  146.3180 C   0  0  1  0  0  3  0  0  0  0  0  0
  187.7170  176.9640  143.4130 N   0  0  0  0  0  0  0  0  0  0  0  0
  186.7510  177.9090  143.8980 C   0  0  0  0  0  0  0  0  0  0  0  0
  189.0510  175.9110  141.9370 O   0  0  0  0  0  0  0  0  0  0  0  0
  188.7800  178.2520  141.6290 C   0  0  0  0  0  2  0  0  0  0  0  0
  186.5620  179.0040  143.2940 O   0  0  0  0  0  0  0  0  0  0  0  0
  188.5260  177.1180  142.2690 C   0  0  0  0  0  0  0  0  0  0  0  0
  187.7640  175.6790  143.8630 O   0  0  0  0  0  0  0  0  0  0  0  0
  188.5000  174.9730  142.8550 C   0  0  2  0  0  3  0  0  0  0  0  0
  185.0420  178.4770  147.7220 C   0  0  0  0  0  2  0  0  0  0  0  0
  186.8770  177.8190  146.3760 C   0  0  0  0  0  2  0  0  0  0  0  0
  184.7270  178.4680  145.2450 C   0  0  0  0  0  2  0  0  0  0  0  0
  184.0360  178.2600  146.5900 C   0  0  0  0  0  2  0  0  0  0  0  0
  185.9850  177.6040  145.1500 C   0  0  1  0  0  3  0  0  0  0  0  0
  186.1330  177.5140  147.5990 N   0  0  0  0  0  2  0  0  0  0  0  0
  1  4  1  6  0  0  0
  1  2  1  0  0  0  0
  1  3  1  0  0  0  0
  2  3  1  0  0  0  0
  3 28  1  6  0  0  0
  5  1  1  0  0  0  0
  6  5  1  0  0  0  0
  8  7  1  6  0  0  0
  8  9  1  0  0  0  0
  8  6  1  0  0  0  0
  9 10  1  0  0  0  0
 10 12  1  0  0  0  0
 11 10  2  0  0  0  0
 13 16  1  0  0  0  0
 13 12  1  0  0  0  0
 15 16  1  0  0  0  0
 15 14  1  0  0  0  0
 16 14  1  0  0  0  0
 17 13  1  0  0  0  0
 17 24  1  1  0  0  0
 18 19  1  0  0  0  0
 19 17  1  0  0  0  0
 20 19  2  0  0  0  0
 21 18  2  0  0  0  0
 22 20  1  0  0  0  0
 23 21  1  0  0  0  0
 23 22  2  0  0  0  0
 24 25  1  0  0  0  0
 25 27  1  0  0  0  0
 27 26  2  0  0  0  0
 28 33  1  0  0  0  0
 29 36  1  0  0  0  0
 31 34  2  0  0  0  0
 33 35  2  0  0  0  0
 34 33  1  0  0  0  0
 34 29  1  0  0  0  0
 35 30  1  0  0  0  0
 36 32  1  6  0  0  0
 36 30  1  0  0  0  0
 37 43  1  0  0  0  0
 37 38  1  0  0  0  0
 39 42  1  0  0  0  0
 39 44  1  0  0  0  0
 40 42  2  0  0  0  0
 41 38  2  0  0  0  0
 42 37  1  0  0  0  0
 44 28  1  1  0  0  0
 44 43  1  0  0  0  0
 46 50  1  0  0  0  0
 47 48  1  0  0  0  0
 48 45  1  0  0  0  0
 49 38  1  6  0  0  0
 49 47  1  0  0  0  0
 49 46  1  0  0  0  0
 50 45  1  0  0  0  0
M  END
>  <MODEL>
3

>  <REMARK>
 VINA RESULT:      -6.6      2.841      5.335
  Name = 
  16 active torsions:
  status: ('A' for Active; 'I' for Inactive)
    1  A    between atoms: N_2  and  C_37
    2  A    between atoms: C_5  and  C_10
    3  A    between atoms: C_10  and  N_38
    4  A    between atoms: C_10  and  C_43
    5  A    between atoms: C_13  and  C_36
    6  A    between atoms: C_22  and  N_38
    7  A    between atoms: C_25  and  N_29
    8  A    between atoms: O_26  and  C_30
    9  A    between atoms: O_26  and  C_34
   10  A    between atoms: C_27  and  C_35
   11  A    between atoms: N_29  and  C_48
   12  A    between atoms: N_29  and  C_50
   13  A    between atoms: C_33  and  O_47
   14  A    between atoms: C_34  and  C_37
   15  A    between atoms: C_35  and  N_38
   16  A    between atoms: C_43  and  O_47
                            x       y       z     vdW  Elec       q    Type
                         _______ _______ _______ _____ _____    ______ ____

>  <TORSDO>
F 16

$$$$
=
 OpenBabel11062420513D

 50 55  0  0  1  0  0  0  0  0999 V2000
  192.1570  171.0470  141.6980 C   0  0  1  0  0  0  0  0  0  0  0  0
  193.5050  171.4510  141.6640 O   0  0  0  0  0  0  0  0  0  0  0  0
  192.8710  171.2840  140.4090 C   0  0  2  0  0  3  0  0  0  0  0  0
  191.9590  169.6110  142.1440 C   0  0  0  0  0  1  0  0  0  0  0  0
  191.2320  172.0320  142.1100 O   0  0  0  0  0  0  0  0  0  0  0  0
  190.0210  171.4020  142.4330 C   0  0  0  0  0  2  0  0  0  0  0  0
  189.7390  172.0480  144.8270 C   0  0  0  0  0  1  0  0  0  0  0  0
  189.2600  172.2840  143.4060 C   0  0  1  0  0  3  0  0  0  0  0  0
  189.4150  173.6850  143.0410 N   0  0  0  0  0  2  0  0  0  0  0  0
  188.4280  174.3660  142.2670 C   0  0  0  0  0  0  0  0  0  0  0  0
  187.3720  173.7820  141.9230 O   0  0  0  0  0  0  0  0  0  0  0  0
  188.6330  175.7870  141.8920 C   0  0  0  0  0  2  0  0  0  0  0  0
  187.3470  176.4840  141.8470 N   0  0  0  0  0  0  0  0  0  0  0  0
  186.7130  176.9270  139.5320 C   0  0  0  0  0  2  0  0  0  0  0  0
  186.0020  177.9270  140.4170 C   0  0  0  0  0  2  0  0  0  0  0  0
  187.4080  177.4720  140.7710 C   0  0  0  0  0  3  0  0  0  0  0  0
  187.0660  177.1760  143.1230 C   0  0  2  0  0  3  0  0  0  0  0  0
  188.0700  176.5000  145.3230 C   0  0  0  0  0  3  0  0  0  0  0  0
  188.2130  177.1790  144.1090 C   0  0  0  0  0  0  0  0  0  0  0  0
  189.4160  177.8500  143.8330 C   0  0  0  0  0  3  0  0  0  0  0  0
  189.1130  176.4910  146.2560 C   0  0  0  0  0  3  0  0  0  0  0  0
  190.4590  177.8380  144.7630 C   0  0  0  0  0  3  0  0  0  0  0  0
  190.3070  177.1580  145.9750 C   0  0  0  0  0  3  0  0  0  0  0  0
  185.7620  176.6930  143.7480 C   0  0  0  0  0  2  0  0  0  0  0  0
  184.7970  177.7420  143.7420 O   0  0  0  0  0  0  0  0  0  0  0  0
  184.2040  178.9400  145.7290 C   0  0  0  0  0  2  0  0  0  0  0  0
  184.8840  178.8520  144.5870 C   0  0  0  0  0  3  0  0  0  0  0  0
  192.5570  172.6000  139.8260 N   0  0  0  0  0  0  0  0  0  0  0  0
  189.9620  171.9270  136.6230 S   0  0  0  0  0  0  0  0  0  0  0  0
  189.1640  173.7730  138.4660 C   0  0  0  0  0  2  0  0  0  0  0  0
  192.5710  171.8480  137.0300 O   0  0  0  0  0  0  0  0  0  0  0  0
  190.2960  174.5720  136.4970 O   0  0  0  0  0  1  0  0  0  0  0  0
  191.4390  172.7500  138.9220 C   0  0  0  0  0  0  0  0  0  0  0  0
  191.4720  172.1450  137.5690 C   0  0  0  0  0  0  0  0  0  0  0  0
  190.4010  173.5230  139.2870 C   0  0  0  0  0  3  0  0  0  0  0  0
  189.3850  173.6200  136.9650 C   0  0  1  0  0  3  0  0  0  0  0  0
  194.9330  174.2640  141.5410 N   0  0  0  0  0  0  0  0  0  0  0  0
  195.4730  175.0680  142.6010 C   0  0  0  0  0  0  0  0  0  0  0  0
  194.8020  173.2930  139.5140 O   0  0  0  0  0  0  0  0  0  0  0  0
  196.9780  173.4880  140.4510 C   0  0  0  0  0  2  0  0  0  0  0  0
  196.7130  175.3070  142.6600 O   0  0  0  0  0  0  0  0  0  0  0  0
  195.6650  173.6780  140.4880 C   0  0  0  0  0  0  0  0  0  0  0  0
  193.5960  174.2030  141.2850 O   0  0  0  0  0  0  0  0  0  0  0  0
  193.5100  173.7110  139.9410 C   0  0  2  0  0  3  0  0  0  0  0  0
  194.0030  175.9750  146.4590 C   0  0  0  0  0  2  0  0  0  0  0  0
  194.1700  174.4780  144.6310 C   0  0  0  0  0  2  0  0  0  0  0  0
  195.2110  176.7570  144.4180 C   0  0  0  0  0  2  0  0  0  0  0  0
  194.3380  177.1900  145.5920 C   0  0  0  0  0  2  0  0  0  0  0  0
  194.5580  175.5990  143.6620 C   0  0  1  0  0  3  0  0  0  0  0  0
  193.2710  174.9920  145.6640 N   0  0  0  0  0  2  0  0  0  0  0  0
  1  5  1  0  0  0  0
  1  4  1  1  0  0  0
  2  1  1  0  0  0  0
  3 28  1  1  0  0  0
  3  2  1  0  0  0  0
  3  1  1  0  0  0  0
  5  6  1  0  0  0  0
  6  8  1  0  0  0  0
  8  7  1  1  0  0  0
  9  8  1  0  0  0  0
 10  9  1  0  0  0  0
 11 10  2  0  0  0  0
 12 10  1  0  0  0  0
 13 12  1  0  0  0  0
 13 17  1  0  0  0  0
 14 15  1  0  0  0  0
 14 16  1  0  0  0  0
 15 16  1  0  0  0  0
 16 13  1  0  0  0  0
 17 24  1  1  0  0  0
 17 19  1  0  0  0  0
 18 21  1  0  0  0  0
 19 18  2  0  0  0  0
 20 19  1  0  0  0  0
 20 22  2  0  0  0  0
 22 23  1  0  0  0  0
 23 21  2  0  0  0  0
 25 24  1  0  0  0  0
 25 27  1  0  0  0  0
 27 26  2  0  0  0  0
 29 36  1  0  0  0  0
 29 34  1  0  0  0  0
 30 35  1  0  0  0  0
 31 34  2  0  0  0  0
 33 35  2  0  0  0  0
 33 28  1  0  0  0  0
 34 33  1  0  0  0  0
 36 32  1  1  0  0  0
 36 30  1  0  0  0  0
 37 38  1  0  0  0  0
 38 41  2  0  0  0  0
 39 44  1  0  0  0  0
 39 42  1  0  0  0  0
 40 42  2  0  0  0  0
 42 37  1  0  0  0  0
 43 37  1  0  0  0  0
 44 28  1  1  0  0  0
 44 43  1  0  0  0  0
 46 50  1  0  0  0  0
 47 48  1  0  0  0  0
 48 45  1  0  0  0  0
 49 38  1  6  0  0  0
 49 47  1  0  0  0  0
 49 46  1  0  0  0  0
 50 45  1  0  0  0  0
M  END
>  <MODEL>
4

>  <REMARK>
 VINA RESULT:      -6.6      2.458      8.470
  Name = 
  16 active torsions:
  status: ('A' for Active; 'I' for Inactive)
    1  A    between atoms: N_2  and  C_37
    2  A    between atoms: C_5  and  C_10
    3  A    between atoms: C_10  and  N_38
    4  A    between atoms: C_10  and  C_43
    5  A    between atoms: C_13  and  C_36
    6  A    between atoms: C_22  and  N_38
    7  A    between atoms: C_25  and  N_29
    8  A    between atoms: O_26  and  C_30
    9  A    between atoms: O_26  and  C_34
   10  A    between atoms: C_27  and  C_35
   11  A    between atoms: N_29  and  C_48
   12  A    between atoms: N_29  and  C_50
   13  A    between atoms: C_33  and  O_47
   14  A    between atoms: C_34  and  C_37
   15  A    between atoms: C_35  and  N_38
   16  A    between atoms: C_43  and  O_47
                            x       y       z     vdW  Elec       q    Type
                         _______ _______ _______ _____ _____    ______ ____

>  <TORSDO>
F 16

$$$$
=
 OpenBabel11062420513D

 50 55  0  0  1  0  0  0  0  0999 V2000
  190.1890  172.3250  141.9560 C   0  0  1  0  0  0  0  0  0  0  0  0
  188.7830  172.3810  141.9590 O   0  0  0  0  0  0  0  0  0  0  0  0
  189.4230  172.7190  143.1760 C   0  0  2  0  0  3  0  0  0  0  0  0
  190.7470  170.9170  141.8940 C   0  0  0  0  0  1  0  0  0  0  0  0
  190.8410  173.3590  141.2470 O   0  0  0  0  0  0  0  0  0  0  0  0
  190.4210  173.3190  139.9090 C   0  0  0  0  0  2  0  0  0  0  0  0
  191.3480  173.5520  137.6050 C   0  0  0  0  0  1  0  0  0  0  0  0
  191.6380  173.1070  139.0260 C   0  0  1  0  0  3  0  0  0  0  0  0
  192.7820  173.8270  139.5650 N   0  0  0  0  0  2  0  0  0  0  0  0
  194.1130  173.3340  139.4110 C   0  0  0  0  0  0  0  0  0  0  0  0
  194.3320  172.2850  138.7580 O   0  0  0  0  0  0  0  0  0  0  0  0
  195.2520  174.0830  139.9970 C   0  0  0  0  0  2  0  0  0  0  0  0
  195.2310  173.9650  141.4550 N   0  0  0  0  0  0  0  0  0  0  0  0
  195.1710  176.3700  141.8730 C   0  0  0  0  0  2  0  0  0  0  0  0
  195.2410  175.6600  143.2070 C   0  0  0  0  0  2  0  0  0  0  0  0
  195.9830  175.0900  142.0090 C   0  0  0  0  0  3  0  0  0  0  0  0
  195.8530  172.7010  141.9030 C   0  0  2  0  0  3  0  0  0  0  0  0
  196.2180  172.0980  144.3140 C   0  0  0  0  0  3  0  0  0  0  0  0
  195.3410  172.1780  143.2270 C   0  0  0  0  0  0  0  0  0  0  0  0
  194.0080  171.7680  143.3880 C   0  0  0  0  0  3  0  0  0  0  0  0
  195.7740  171.6130  145.5480 C   0  0  0  0  0  3  0  0  0  0  0  0
  193.5620  171.2860  144.6220 C   0  0  0  0  0  3  0  0  0  0  0  0
  194.4460  171.2090  145.7030 C   0  0  0  0  0  3  0  0  0  0  0  0
  197.3750  172.7770  141.8560 C   0  0  0  0  0  2  0  0  0  0  0  0
  197.9010  171.6350  141.1860 O   0  0  0  0  0  0  0  0  0  0  0  0
  197.5730  170.5300  139.0870 C   0  0  0  0  0  2  0  0  0  0  0  0
  197.1430  170.8620  140.3040 C   0  0  0  0  0  3  0  0  0  0  0  0
  189.3890  174.1780  143.3720 N   0  0  0  0  0  0  0  0  0  0  0  0
  192.0920  176.8340  145.1300 S   0  0  0  0  0  0  0  0  0  0  0  0
  190.8920  175.0390  146.7980 C   0  0  0  0  0  2  0  0  0  0  0  0
  191.8020  175.6650  142.7790 O   0  0  0  0  0  0  0  0  0  0  0  0
  193.0630  174.4770  145.9220 O   0  0  0  0  0  1  0  0  0  0  0  0
  190.2420  174.8020  144.3580 C   0  0  0  0  0  0  0  0  0  0  0  0
  191.3340  175.7170  143.9470 C   0  0  0  0  0  0  0  0  0  0  0  0
  190.0930  174.4740  145.6540 C   0  0  0  0  0  3  0  0  0  0  0  0
  192.2760  175.5330  146.3910 C   0  0  1  0  0  3  0  0  0  0  0  0
  187.5280  176.9860  143.2780 N   0  0  0  0  0  0  0  0  0  0  0  0
  186.5570  177.9380  143.7380 C   0  0  0  0  0  0  0  0  0  0  0  0
  188.8720  175.9040  141.8320 O   0  0  0  0  0  0  0  0  0  0  0  0
  188.5940  178.2370  141.4700 C   0  0  0  0  0  2  0  0  0  0  0  0
  186.3660  179.0170  143.1090 O   0  0  0  0  0  0  0  0  0  0  0  0
  188.3420  177.1160  142.1350 C   0  0  0  0  0  0  0  0  0  0  0  0
  187.5780  175.7110  143.7580 O   0  0  0  0  0  0  0  0  0  0  0  0
  188.3210  174.9850  142.7690 C   0  0  2  0  0  3  0  0  0  0  0  0
  185.0200  178.4890  147.6370 C   0  0  0  0  0  2  0  0  0  0  0  0
  186.7260  177.6870  146.2020 C   0  0  0  0  0  2  0  0  0  0  0  0
  184.6500  178.6650  145.1740 C   0  0  0  0  0  2  0  0  0  0  0  0
  183.9700  178.4670  146.5250 C   0  0  0  0  0  2  0  0  0  0  0  0
  185.7870  177.6570  144.9930 C   0  0  1  0  0  3  0  0  0  0  0  0
  185.9780  177.4070  147.4280 N   0  0  0  0  0  2  0  0  0  0  0  0
  1  4  1  6  0  0  0
  1  2  1  0  0  0  0
  1  3  1  0  0  0  0
  2  3  1  0  0  0  0
  3 28  1  6  0  0  0
  5  1  1  0  0  0  0
  6  5  1  0  0  0  0
  8  7  1  6  0  0  0
  8  9  1  0  0  0  0
  8  6  1  0  0  0  0
 10  9  1  0  0  0  0
 10 12  1  0  0  0  0
 11 10  2  0  0  0  0
 12 13  1  0  0  0  0
 13 17  1  0  0  0  0
 13 16  1  0  0  0  0
 14 16  1  0  0  0  0
 14 15  1  0  0  0  0
 16 15  1  0  0  0  0
 17 24  1  1  0  0  0
 17 19  1  0  0  0  0
 18 21  1  0  0  0  0
 19 20  1  0  0  0  0
 19 18  2  0  0  0  0
 20 22  2  0  0  0  0
 21 23  2  0  0  0  0
 22 23  1  0  0  0  0
 25 24  1  0  0  0  0
 26 27  2  0  0  0  0
 27 25  1  0  0  0  0
 28 33  1  0  0  0  0
 29 36  1  0  0  0  0
 31 34  2  0  0  0  0
 33 35  2  0  0  0  0
 34 33  1  0  0  0  0
 34 29  1  0  0  0  0
 35 30  1  0  0  0  0
 36 32  1  6  0  0  0
 36 30  1  0  0  0  0
 37 38  1  0  0  0  0
 37 43  1  0  0  0  0
 39 42  1  0  0  0  0
 39 44  1  0  0  0  0
 40 42  2  0  0  0  0
 41 38  2  0  0  0  0
 42 37  1  0  0  0  0
 44 28  1  1  0  0  0
 44 43  1  0  0  0  0
 46 50  1  0  0  0  0
 47 48  1  0  0  0  0
 48 45  1  0  0  0  0
 49 38  1  6  0  0  0
 49 47  1  0  0  0  0
 49 46  1  0  0  0  0
 50 45  1  0  0  0  0
M  END
>  <MODEL>
5

>  <REMARK>
 VINA RESULT:      -6.5      2.224      4.400
  Name = 
  16 active torsions:
  status: ('A' for Active; 'I' for Inactive)
    1  A    between atoms: N_2  and  C_37
    2  A    between atoms: C_5  and  C_10
    3  A    between atoms: C_10  and  N_38
    4  A    between atoms: C_10  and  C_43
    5  A    between atoms: C_13  and  C_36
    6  A    between atoms: C_22  and  N_38
    7  A    between atoms: C_25  and  N_29
    8  A    between atoms: O_26  and  C_30
    9  A    between atoms: O_26  and  C_34
   10  A    between atoms: C_27  and  C_35
   11  A    between atoms: N_29  and  C_48
   12  A    between atoms: N_29  and  C_50
   13  A    between atoms: C_33  and  O_47
   14  A    between atoms: C_34  and  C_37
   15  A    between atoms: C_35  and  N_38
   16  A    between atoms: C_43  and  O_47
                            x       y       z     vdW  Elec       q    Type
                         _______ _______ _______ _____ _____    ______ ____

>  <TORSDO>
F 16

$$$$
=
 OpenBabel11062420513D

 50 55  0  0  1  0  0  0  0  0999 V2000
  190.0390  172.1490  141.9260 C   0  0  1  0  0  0  0  0  0  0  0  0
  188.6390  172.2930  141.9200 O   0  0  0  0  0  0  0  0  0  0  0  0
  189.3040  172.7050  143.1000 C   0  0  2  0  0  3  0  0  0  0  0  0
  190.5060  170.7090  142.0010 C   0  0  0  0  0  1  0  0  0  0  0  0
  190.7530  173.0660  141.1230 O   0  0  0  0  0  0  0  0  0  0  0  0
  190.3500  172.9020  139.7890 C   0  0  0  0  0  2  0  0  0  0  0  0
  191.7120  173.1120  137.7090 C   0  0  0  0  0  1  0  0  0  0  0  0
  191.5150  172.3350  138.9980 C   0  0  1  0  0  3  0  0  0  0  0  0
  192.7280  172.3620  139.8010 N   0  0  0  0  0  2  0  0  0  0  0  0
  193.5510  171.2040  139.9450 C   0  0  0  0  0  0  0  0  0  0  0  0
  193.2710  170.1430  139.3370 O   0  0  0  0  0  0  0  0  0  0  0  0
  194.7670  171.2610  140.7940 C   0  0  0  0  0  2  0  0  0  0  0  0
  195.5000  172.5010  140.5350 N   0  0  0  0  0  0  0  0  0  0  0  0
  197.3440  172.8010  138.9650 C   0  0  0  0  0  2  0  0  0  0  0  0
  197.7490  173.4080  140.2900 C   0  0  0  0  0  2  0  0  0  0  0  0
  196.8940  172.1520  140.2640 C   0  0  0  0  0  3  0  0  0  0  0  0
  195.4480  173.4110  141.6990 C   0  0  2  0  0  3  0  0  0  0  0  0
  195.9340  172.1790  143.8330 C   0  0  0  0  0  3  0  0  0  0  0  0
  194.9870  172.7660  142.9880 C   0  0  0  0  0  0  0  0  0  0  0  0
  193.6310  172.7410  143.3520 C   0  0  0  0  0  3  0  0  0  0  0  0
  195.5360  171.5710  145.0280 C   0  0  0  0  0  3  0  0  0  0  0  0
  193.2320  172.1370  144.5470 C   0  0  0  0  0  3  0  0  0  0  0  0
  194.1860  171.5510  145.3860 C   0  0  0  0  0  3  0  0  0  0  0  0
  194.6790  174.6880  141.3800 C   0  0  0  0  0  2  0  0  0  0  0  0
  195.5370  175.8190  141.4980 O   0  0  0  0  0  0  0  0  0  0  0  0
  196.8300  176.0560  143.5000 C   0  0  0  0  0  2  0  0  0  0  0  0
  195.8140  176.4310  142.7230 C   0  0  0  0  0  3  0  0  0  0  0  0
  189.3630  174.1760  143.1550 N   0  0  0  0  0  0  0  0  0  0  0  0
  191.8370  175.1180  146.3870 S   0  0  0  0  0  0  0  0  0  0  0  0
  192.3620  176.4030  144.0380 C   0  0  0  0  0  2  0  0  0  0  0  0
  189.3260  174.3710  146.0440 O   0  0  0  0  0  0  0  0  0  0  0  0
  190.9740  177.5340  145.6470 O   0  0  0  0  0  1  0  0  0  0  0  0
  190.3700  174.8370  143.9540 C   0  0  0  0  0  0  0  0  0  0  0  0
  190.3750  174.7020  145.4310 C   0  0  0  0  0  0  0  0  0  0  0  0
  191.2530  175.6520  143.3510 C   0  0  0  0  0  3  0  0  0  0  0  0
  192.0840  176.6940  145.5080 C   0  0  1  0  0  3  0  0  0  0  0  0
  187.5060  176.9870  143.1810 N   0  0  0  0  0  0  0  0  0  0  0  0
  186.5680  177.9410  143.7030 C   0  0  0  0  0  0  0  0  0  0  0  0
  188.7510  175.9030  141.6510 O   0  0  0  0  0  0  0  0  0  0  0  0
  188.4550  178.2370  141.3080 C   0  0  0  0  0  2  0  0  0  0  0  0
  186.3390  179.0210  143.0870 O   0  0  0  0  0  0  0  0  0  0  0  0
  188.2440  177.1160  141.9880 C   0  0  0  0  0  0  0  0  0  0  0  0
  187.5840  175.7120  143.6570 O   0  0  0  0  0  0  0  0  0  0  0  0
  188.2600  174.9850  142.6220 C   0  0  2  0  0  3  0  0  0  0  0  0
  185.1530  178.5650  147.6370 C   0  0  0  0  0  2  0  0  0  0  0  0
  186.8620  177.8390  146.1660 C   0  0  0  0  0  2  0  0  0  0  0  0
  184.6660  178.5750  145.1880 C   0  0  0  0  0  2  0  0  0  0  0  0
  184.0640  178.3910  146.5780 C   0  0  0  0  0  2  0  0  0  0  0  0
  185.8790  177.6620  145.0050 C   0  0  1  0  0  3  0  0  0  0  0  0
  186.1950  177.5610  147.4380 N   0  0  0  0  0  2  0  0  0  0  0  0
  1  4  1  1  0  0  0
  1  3  1  0  0  0  0
  2  1  1  0  0  0  0
  2  3  1  0  0  0  0
  3 28  1  6  0  0  0
  5  1  1  0  0  0  0
  6  5  1  0  0  0  0
  8  7  1  6  0  0  0
  8  6  1  0  0  0  0
  8  9  1  0  0  0  0
  9 10  1  0  0  0  0
 10 12  1  0  0  0  0
 11 10  2  0  0  0  0
 13 12  1  0  0  0  0
 13 17  1  0  0  0  0
 14 16  1  0  0  0  0
 14 15  1  0  0  0  0
 16 15  1  0  0  0  0
 16 13  1  0  0  0  0
 17 24  1  6  0  0  0
 17 19  1  0  0  0  0
 18 21  1  0  0  0  0
 19 20  1  0  0  0  0
 19 18  2  0  0  0  0
 20 22  2  0  0  0  0
 21 23  2  0  0  0  0
 22 23  1  0  0  0  0
 24 25  1  0  0  0  0
 25 27  1  0  0  0  0
 27 26  2  0  0  0  0
 28 33  1  0  0  0  0
 30 36  1  0  0  0  0
 33 34  1  0  0  0  0
 34 31  2  0  0  0  0
 34 29  1  0  0  0  0
 35 33  2  0  0  0  0
 35 30  1  0  0  0  0
 36 32  1  6  0  0  0
 36 29  1  0  0  0  0
 37 43  1  0  0  0  0
 37 38  1  0  0  0  0
 39 42  1  0  0  0  0
 39 44  1  0  0  0  0
 40 42  2  0  0  0  0
 41 38  2  0  0  0  0
 42 37  1  0  0  0  0
 44 28  1  1  0  0  0
 44 43  1  0  0  0  0
 46 50  1  0  0  0  0
 47 48  1  0  0  0  0
 48 45  1  0  0  0  0
 49 38  1  6  0  0  0
 49 47  1  0  0  0  0
 49 46  1  0  0  0  0
 50 45  1  0  0  0  0
M  END
>  <MODEL>
6

>  <REMARK>
 VINA RESULT:      -6.4      2.273      4.615
  Name = 
  16 active torsions:
  status: ('A' for Active; 'I' for Inactive)
    1  A    between atoms: N_2  and  C_37
    2  A    between atoms: C_5  and  C_10
    3  A    between atoms: C_10  and  N_38
    4  A    between atoms: C_10  and  C_43
    5  A    between atoms: C_13  and  C_36
    6  A    between atoms: C_22  and  N_38
    7  A    between atoms: C_25  and  N_29
    8  A    between atoms: O_26  and  C_30
    9  A    between atoms: O_26  and  C_34
   10  A    between atoms: C_27  and  C_35
   11  A    between atoms: N_29  and  C_48
   12  A    between atoms: N_29  and  C_50
   13  A    between atoms: C_33  and  O_47
   14  A    between atoms: C_34  and  C_37
   15  A    between atoms: C_35  and  N_38
   16  A    between atoms: C_43  and  O_47
                            x       y       z     vdW  Elec       q    Type
                         _______ _______ _______ _____ _____    ______ ____

>  <TORSDO>
F 16

$$$$
=
 OpenBabel11062420513D

 50 55  0  0  1  0  0  0  0  0999 V2000
  191.0510  174.2090  142.0570 C   0  0  1  0  0  0  0  0  0  0  0  0
  191.8020  174.9920  142.9540 O   0  0  0  0  0  0  0  0  0  0  0  0
  190.7100  175.6370  142.3250 C   0  0  2  0  0  3  0  0  0  0  0  0
  191.7800  173.8860  140.7670 C   0  0  0  0  0  1  0  0  0  0  0  0
  190.2200  173.2300  142.6450 O   0  0  0  0  0  0  0  0  0  0  0  0
  190.3210  172.0480  141.8950 C   0  0  0  0  0  2  0  0  0  0  0  0
  191.9560  170.1720  141.7200 C   0  0  0  0  0  1  0  0  0  0  0  0
  191.1660  171.0530  142.6700 C   0  0  1  0  0  3  0  0  0  0  0  0
  192.0600  171.7540  143.5790 N   0  0  0  0  0  2  0  0  0  0  0  0
  192.9510  171.0460  144.4420 C   0  0  0  0  0  0  0  0  0  0  0  0
  193.0190  169.7940  144.3990 O   0  0  0  0  0  0  0  0  0  0  0  0
  193.8290  171.7950  145.3750 C   0  0  0  0  0  2  0  0  0  0  0  0
  195.1020  172.1060  144.7240 N   0  0  0  0  0  0  0  0  0  0  0  0
  196.4020  170.4450  145.9520 C   0  0  0  0  0  2  0  0  0  0  0  0
  197.3470  171.2220  145.0630 C   0  0  0  0  0  2  0  0  0  0  0  0
  196.1670  171.9280  145.7090 C   0  0  0  0  0  3  0  0  0  0  0  0
  195.1280  173.4990  144.2300 C   0  0  2  0  0  3  0  0  0  0  0  0
  195.7560  172.5200  142.0050 C   0  0  0  0  0  3  0  0  0  0  0  0
  195.3580  173.6400  142.7410 C   0  0  0  0  0  0  0  0  0  0  0  0
  195.1830  174.8690  142.0850 C   0  0  0  0  0  3  0  0  0  0  0  0
  195.9810  172.6220  140.6270 C   0  0  0  0  0  3  0  0  0  0  0  0
  195.4030  174.9700  140.7090 C   0  0  0  0  0  3  0  0  0  0  0  0
  195.8030  173.8450  139.9800 C   0  0  0  0  0  3  0  0  0  0  0  0
  196.0750  174.3670  145.0500 C   0  0  0  0  0  2  0  0  0  0  0  0
  195.3320  175.2820  145.8510 O   0  0  0  0  0  0  0  0  0  0  0  0
  194.5430  177.5170  146.1960 C   0  0  0  0  0  2  0  0  0  0  0  0
  194.9180  176.5310  145.3820 C   0  0  0  0  0  3  0  0  0  0  0  0
  189.5950  175.7790  143.2770 N   0  0  0  0  0  0  0  0  0  0  0  0
  190.4510  177.1560  147.1280 S   0  0  0  0  0  0  0  0  0  0  0  0
  189.7200  174.5370  146.9080 C   0  0  0  0  0  2  0  0  0  0  0  0
  191.2540  177.7010  144.6700 O   0  0  0  0  0  0  0  0  0  0  0  0
  192.0730  175.0440  146.9390 O   0  0  0  0  0  1  0  0  0  0  0  0
  189.8470  175.7800  144.7010 C   0  0  0  0  0  0  0  0  0  0  0  0
  190.5340  176.9220  145.3500 C   0  0  0  0  0  0  0  0  0  0  0  0
  189.5300  174.6900  145.4220 C   0  0  0  0  0  3  0  0  0  0  0  0
  190.8340  175.4090  147.4740 C   0  0  1  0  0  3  0  0  0  0  0  0
  186.6010  177.1650  142.5920 N   0  0  0  0  0  0  0  0  0  0  0  0
  185.3510  177.8090  142.8810 C   0  0  0  0  0  0  0  0  0  0  0  0
  188.1190  175.9720  141.4330 O   0  0  0  0  0  0  0  0  0  0  0  0
  186.6920  177.3840  140.1590 C   0  0  0  0  0  2  0  0  0  0  0  0
  184.5820  178.1700  141.9450 O   0  0  0  0  0  0  0  0  0  0  0  0
  187.1030  176.8640  141.3090 C   0  0  0  0  0  0  0  0  0  0  0  0
  187.3260  176.5250  143.5510 O   0  0  0  0  0  0  0  0  0  0  0  0
  188.2060  175.6600  142.8190 C   0  0  2  0  0  3  0  0  0  0  0  0
  185.7220  178.0880  147.0820 C   0  0  0  0  0  2  0  0  0  0  0  0
  185.1880  176.8220  145.1530 C   0  0  0  0  0  2  0  0  0  0  0  0
  185.7770  179.2500  144.8720 C   0  0  0  0  0  2  0  0  0  0  0  0
  185.4970  179.4190  146.3630 C   0  0  0  0  0  2  0  0  0  0  0  0
  184.9730  178.0790  144.3050 C   0  0  1  0  0  3  0  0  0  0  0  0
  184.8120  177.0810  146.5430 N   0  0  0  0  0  2  0  0  0  0  0  0
  1  4  1  6  0  0  0
  1  3  1  0  0  0  0
  1  5  1  0  0  0  0
  1  2  1  0  0  0  0
  3  2  1  0  0  0  0
  3 28  1  1  0  0  0
  6  5  1  0  0  0  0
  6  8  1  0  0  0  0
  8  7  1  6  0  0  0
  8  9  1  0  0  0  0
  9 10  1  0  0  0  0
 10 12  1  0  0  0  0
 11 10  2  0  0  0  0
 13 12  1  0  0  0  0
 13 16  1  0  0  0  0
 15 16  1  0  0  0  0
 15 14  1  0  0  0  0
 16 14  1  0  0  0  0
 17 13  1  0  0  0  0
 17 24  1  1  0  0  0
 18 19  1  0  0  0  0
 19 17  1  0  0  0  0
 20 19  2  0  0  0  0
 21 18  2  0  0  0  0
 22 20  1  0  0  0  0
 23 21  1  0  0  0  0
 23 22  2  0  0  0  0
 24 25  1  0  0  0  0
 27 25  1  0  0  0  0
 27 26  2  0  0  0  0
 28 33  1  0  0  0  0
 29 36  1  0  0  0  0
 30 36  1  0  0  0  0
 31 34  2  0  0  0  0
 33 34  1  0  0  0  0
 33 35  2  0  0  0  0
 34 29  1  0  0  0  0
 35 30  1  0  0  0  0
 36 32  1  6  0  0  0
 37 38  1  0  0  0  0
 37 43  1  0  0  0  0
 39 44  1  0  0  0  0
 40 42  2  0  0  0  0
 41 38  2  0  0  0  0
 42 39  1  0  0  0  0
 42 37  1  0  0  0  0
 44 28  1  1  0  0  0
 44 43  1  0  0  0  0
 46 50  1  0  0  0  0
 47 48  1  0  0  0  0
 48 45  1  0  0  0  0
 49 38  1  6  0  0  0
 49 47  1  0  0  0  0
 49 46  1  0  0  0  0
 50 45  1  0  0  0  0
M  END
>  <MODEL>
7

>  <REMARK>
 VINA RESULT:      -6.3      2.023      4.028
  Name = 
  16 active torsions:
  status: ('A' for Active; 'I' for Inactive)
    1  A    between atoms: N_2  and  C_37
    2  A    between atoms: C_5  and  C_10
    3  A    between atoms: C_10  and  N_38
    4  A    between atoms: C_10  and  C_43
    5  A    between atoms: C_13  and  C_36
    6  A    between atoms: C_22  and  N_38
    7  A    between atoms: C_25  and  N_29
    8  A    between atoms: O_26  and  C_30
    9  A    between atoms: O_26  and  C_34
   10  A    between atoms: C_27  and  C_35
   11  A    between atoms: N_29  and  C_48
   12  A    between atoms: N_29  and  C_50
   13  A    between atoms: C_33  and  O_47
   14  A    between atoms: C_34  and  C_37
   15  A    between atoms: C_35  and  N_38
   16  A    between atoms: C_43  and  O_47
                            x       y       z     vdW  Elec       q    Type
                         _______ _______ _______ _____ _____    ______ ____

>  <TORSDO>
F 16

$$$$
=
 OpenBabel11062420513D

 50 55  0  0  1  0  0  0  0  0999 V2000
  191.6410  171.6930  141.0960 C   0  0  1  0  0  0  0  0  0  0  0  0
  192.0890  171.3320  142.3800 O   0  0  0  0  0  0  0  0  0  0  0  0
  193.0900  171.4920  141.3930 C   0  0  2  0  0  3  0  0  0  0  0  0
  190.9080  170.5830  140.3690 C   0  0  0  0  0  1  0  0  0  0  0  0
  191.1950  173.0260  140.9540 O   0  0  0  0  0  0  0  0  0  0  0  0
  190.6330  173.1750  139.6760 C   0  0  0  0  0  2  0  0  0  0  0  0
  188.2050  172.9210  139.1610 C   0  0  0  0  0  1  0  0  0  0  0  0
  189.2550  173.7950  139.8230 C   0  0  1  0  0  3  0  0  0  0  0  0
  188.9400  173.9940  141.2300 N   0  0  0  0  0  2  0  0  0  0  0  0
  188.2260  175.1470  141.6770 C   0  0  0  0  0  0  0  0  0  0  0  0
  187.8060  175.9960  140.8540 O   0  0  0  0  0  0  0  0  0  0  0  0
  187.9470  175.3300  143.1230 C   0  0  0  0  0  2  0  0  0  0  0  0
  189.2030  175.4730  143.8610 N   0  0  0  0  0  0  0  0  0  0  0  0
  190.4620  173.5280  144.6300 C   0  0  0  0  0  2  0  0  0  0  0  0
  190.5060  174.5790  145.7160 C   0  0  0  0  0  2  0  0  0  0  0  0
  189.2520  174.4180  144.8720 C   0  0  0  0  0  3  0  0  0  0  0  0
  189.2880  176.7880  144.5300 C   0  0  2  0  0  3  0  0  0  0  0  0
  187.5900  176.8450  146.3800 C   0  0  0  0  0  3  0  0  0  0  0  0
  187.9840  177.2880  145.1130 C   0  0  0  0  0  0  0  0  0  0  0  0
  187.1620  178.1840  144.4110 C   0  0  0  0  0  3  0  0  0  0  0  0
  186.3870  177.2870  146.9410 C   0  0  0  0  0  3  0  0  0  0  0  0
  185.9620  178.6280  144.9720 C   0  0  0  0  0  3  0  0  0  0  0  0
  185.5750  178.1790  146.2390 C   0  0  0  0  0  3  0  0  0  0  0  0
  189.9650  177.8260  143.6430 C   0  0  0  0  0  2  0  0  0  0  0  0
  191.2670  178.1230  144.1420 O   0  0  0  0  0  0  0  0  0  0  0  0
  193.2000  177.0230  145.0310 C   0  0  0  0  0  2  0  0  0  0  0  0
  192.3350  177.2290  144.0380 C   0  0  0  0  0  3  0  0  0  0  0  0
  193.8030  172.7640  141.6020 N   0  0  0  0  0  0  0  0  0  0  0  0
  196.6180  173.3140  138.5650 S   0  0  0  0  0  0  0  0  0  0  0  0
  194.6470  175.1910  138.7500 C   0  0  0  0  0  2  0  0  0  0  0  0
  196.5860  172.2560  140.9860 O   0  0  0  0  0  0  0  0  0  0  0  0
  196.7410  175.6550  139.8430 O   0  0  0  0  0  1  0  0  0  0  0  0
  194.5370  173.3760  140.5170 C   0  0  0  0  0  0  0  0  0  0  0  0
  195.8920  172.8970  140.1530 C   0  0  0  0  0  0  0  0  0  0  0  0
  194.0150  174.4480  139.8970 C   0  0  0  0  0  3  0  0  0  0  0  0
  196.1660  175.0730  138.7090 C   0  0  1  0  0  3  0  0  0  0  0  0
  195.7550  173.2660  144.3020 N   0  0  0  0  0  0  0  0  0  0  0  0
  196.5180  172.9000  145.4620 C   0  0  0  0  0  0  0  0  0  0  0  0
  194.5920  174.5850  142.8970 O   0  0  0  0  0  0  0  0  0  0  0  0
  196.4370  175.5940  144.0060 C   0  0  0  0  0  2  0  0  0  0  0  0
  197.1760  173.7700  146.1000 O   0  0  0  0  0  0  0  0  0  0  0  0
  195.6400  174.5620  143.7590 C   0  0  0  0  0  0  0  0  0  0  0  0
  194.8290  172.4320  143.7500 O   0  0  0  0  0  0  0  0  0  0  0  0
  193.9990  173.2930  142.9570 C   0  0  2  0  0  3  0  0  0  0  0  0
  195.8280  168.7310  145.3930 C   0  0  0  0  0  2  0  0  0  0  0  0
  195.1320  170.9120  146.0000 C   0  0  0  0  0  2  0  0  0  0  0  0
  197.3900  170.6230  144.9320 C   0  0  0  0  0  2  0  0  0  0  0  0
  197.2970  169.1440  145.2970 C   0  0  0  0  0  2  0  0  0  0  0  0
  196.5560  171.4660  145.8970 C   0  0  1  0  0  3  0  0  0  0  0  0
  195.1650  169.5140  146.4320 N   0  0  0  0  0  2  0  0  0  0  0  0
  1  4  1  6  0  0  0
  1  3  1  0  0  0  0
  1  2  1  0  0  0  0
  3 28  1  1  0  0  0
  3  2  1  0  0  0  0
  5  1  1  0  0  0  0
  6  8  1  0  0  0  0
  6  5  1  0  0  0  0
  8  7  1  1  0  0  0
  8  9  1  0  0  0  0
  9 10  1  0  0  0  0
 10 12  1  0  0  0  0
 11 10  2  0  0  0  0
 12 13  1  0  0  0  0
 13 17  1  0  0  0  0
 13 16  1  0  0  0  0
 14 16  1  0  0  0  0
 14 15  1  0  0  0  0
 16 15  1  0  0  0  0
 17 24  1  6  0  0  0
 17 19  1  0  0  0  0
 18 21  1  0  0  0  0
 19 18  2  0  0  0  0
 20 22  2  0  0  0  0
 20 19  1  0  0  0  0
 22 23  1  0  0  0  0
 23 21  2  0  0  0  0
 24 25  1  0  0  0  0
 27 25  1  0  0  0  0
 27 26  2  0  0  0  0
 29 36  1  0  0  0  0
 29 34  1  0  0  0  0
 30 35  1  0  0  0  0
 33 28  1  0  0  0  0
 34 33  1  0  0  0  0
 34 31  2  0  0  0  0
 35 33  2  0  0  0  0
 36 30  1  0  0  0  0
 36 32  1  1  0  0  0
 37 38  1  0  0  0  0
 38 41  2  0  0  0  0
 39 44  1  0  0  0  0
 39 42  1  0  0  0  0
 42 40  2  0  0  0  0
 42 37  1  0  0  0  0
 43 37  1  0  0  0  0
 44 28  1  6  0  0  0
 44 43  1  0  0  0  0
 45 50  1  0  0  0  0
 46 50  1  0  0  0  0
 47 48  1  0  0  0  0
 47 49  1  0  0  0  0
 48 45  1  0  0  0  0
 49 38  1  6  0  0  0
 49 46  1  0  0  0  0
M  END
>  <MODEL>
8

>  <REMARK>
 VINA RESULT:      -6.3      2.309      8.966
  Name = 
  16 active torsions:
  status: ('A' for Active; 'I' for Inactive)
    1  A    between atoms: N_2  and  C_37
    2  A    between atoms: C_5  and  C_10
    3  A    between atoms: C_10  and  N_38
    4  A    between atoms: C_10  and  C_43
    5  A    between atoms: C_13  and  C_36
    6  A    between atoms: C_22  and  N_38
    7  A    between atoms: C_25  and  N_29
    8  A    between atoms: O_26  and  C_30
    9  A    between atoms: O_26  and  C_34
   10  A    between atoms: C_27  and  C_35
   11  A    between atoms: N_29  and  C_48
   12  A    between atoms: N_29  and  C_50
   13  A    between atoms: C_33  and  O_47
   14  A    between atoms: C_34  and  C_37
   15  A    between atoms: C_35  and  N_38
   16  A    between atoms: C_43  and  O_47
                            x       y       z     vdW  Elec       q    Type
                         _______ _______ _______ _____ _____    ______ ____

>  <TORSDO>
F 16

$$$$
=
 OpenBabel11062420513D

 50 55  0  0  1  0  0  0  0  0999 V2000
  189.7490  177.5190  143.1610 C   0  0  1  0  0  0  0  0  0  0  0  0
  188.8690  178.5310  142.7370 O   0  0  0  0  0  0  0  0  0  0  0  0
  188.9110  177.3650  141.9350 C   0  0  2  0  0  3  0  0  0  0  0  0
  191.2140  177.8640  142.9770 C   0  0  0  0  0  1  0  0  0  0  0  0
  189.3480  176.7970  144.3070 O   0  0  0  0  0  0  0  0  0  0  0  0
  189.8520  177.4470  145.4440 C   0  0  0  0  0  2  0  0  0  0  0  0
  190.1110  175.0470  146.0780 C   0  0  0  0  0  1  0  0  0  0  0  0
  190.6650  176.4490  146.2500 C   0  0  1  0  0  3  0  0  0  0  0  0
  192.0630  176.4990  145.8490 N   0  0  0  0  0  2  0  0  0  0  0  0
  193.0340  175.6230  146.4220 C   0  0  0  0  0  0  0  0  0  0  0  0
  192.6920  174.7490  147.2550 O   0  0  0  0  0  0  0  0  0  0  0  0
  194.4560  175.7210  146.0070 C   0  0  0  0  0  2  0  0  0  0  0  0
  194.8850  174.4670  145.3890 N   0  0  0  0  0  0  0  0  0  0  0  0
  196.9430  173.7910  146.5140 C   0  0  0  0  0  2  0  0  0  0  0  0
  196.8660  173.0620  145.1900 C   0  0  0  0  0  2  0  0  0  0  0  0
  196.3440  174.4850  145.3000 C   0  0  0  0  0  3  0  0  0  0  0  0
  194.3200  174.3140  144.0320 C   0  0  2  0  0  3  0  0  0  0  0  0
  194.0110  172.4740  142.3500 C   0  0  0  0  0  3  0  0  0  0  0  0
  193.8990  172.9040  143.6760 C   0  0  0  0  0  0  0  0  0  0  0  0
  193.3980  172.0210  144.6450 C   0  0  0  0  0  3  0  0  0  0  0  0
  193.6250  171.1790  141.9910 C   0  0  0  0  0  3  0  0  0  0  0  0
  193.0160  170.7260  144.2890 C   0  0  0  0  0  3  0  0  0  0  0  0
  193.1290  170.3040  142.9600 C   0  0  0  0  0  3  0  0  0  0  0  0
  195.2230  174.9370  142.9740 C   0  0  0  0  0  2  0  0  0  0  0  0
  194.5380  175.9920  142.3050 O   0  0  0  0  0  0  0  0  0  0  0  0
  194.4390  175.2910  140.0170 C   0  0  0  0  0  2  0  0  0  0  0  0
  194.6730  176.2290  140.9350 C   0  0  0  0  0  3  0  0  0  0  0  0
  187.7090  176.5480  142.1760 N   0  0  0  0  0  0  0  0  0  0  0  0
  183.9630  178.2900  142.7910 S   0  0  0  0  0  0  0  0  0  0  0  0
  185.2970  177.4570  145.0200 C   0  0  0  0  0  2  0  0  0  0  0  0
  185.9290  178.5300  141.0430 O   0  0  0  0  0  0  0  0  0  0  0  0
  185.5120  179.7690  144.3850 O   0  0  0  0  0  1  0  0  0  0  0  0
  186.5630  177.1150  142.8500 C   0  0  0  0  0  0  0  0  0  0  0  0
  185.5930  177.9620  142.1150 C   0  0  0  0  0  0  0  0  0  0  0  0
  186.4320  176.9400  144.1760 C   0  0  0  0  0  3  0  0  0  0  0  0
  184.6200  178.6940  144.4410 C   0  0  1  0  0  3  0  0  0  0  0  0
  189.2940  173.7710  141.1100 N   0  0  0  0  0  0  0  0  0  0  0  0
  189.8650  172.8660  140.1530 C   0  0  0  0  0  0  0  0  0  0  0  0
  188.4190  174.4680  143.0640 O   0  0  0  0  0  0  0  0  0  0  0  0
  190.1500  172.8440  143.2040 C   0  0  0  0  0  2  0  0  0  0  0  0
  190.4790  171.8290  140.5350 O   0  0  0  0  0  0  0  0  0  0  0  0
  189.3340  173.6310  142.5120 C   0  0  0  0  0  0  0  0  0  0  0  0
  188.4050  174.7400  140.7520 O   0  0  0  0  0  0  0  0  0  0  0  0
  187.7470  175.0930  141.9770 C   0  0  2  0  0  3  0  0  0  0  0  0
  190.7930  172.8380  136.0300 C   0  0  0  0  0  2  0  0  0  0  0  0
  191.0640  173.7850  138.1840 C   0  0  0  0  0  2  0  0  0  0  0  0
  189.4080  171.9160  137.8920 C   0  0  0  0  0  2  0  0  0  0  0  0
  189.4480  172.2060  136.3940 C   0  0  0  0  0  2  0  0  0  0  0  0
  189.7550  173.1730  138.6910 C   0  0  1  0  0  3  0  0  0  0  0  0
  190.9580  174.0930  136.7570 N   0  0  0  0  0  2  0  0  0  0  0  0
  1  4  1  6  0  0  0
  1  5  1  0  0  0  0
  2  1  1  0  0  0  0
  3 28  1  1  0  0  0
  3  2  1  0  0  0  0
  3  1  1  0  0  0  0
  5  6  1  0  0  0  0
  6  8  1  0  0  0  0
  8  7  1  6  0  0  0
  9  8  1  0  0  0  0
  9 10  1  0  0  0  0
 10 11  2  0  0  0  0
 12 10  1  0  0  0  0
 13 12  1  0  0  0  0
 15 16  1  0  0  0  0
 15 14  1  0  0  0  0
 16 13  1  0  0  0  0
 16 14  1  0  0  0  0
 17 24  1  6  0  0  0
 17 13  1  0  0  0  0
 18 19  1  0  0  0  0
 19 17  1  0  0  0  0
 19 20  2  0  0  0  0
 21 18  2  0  0  0  0
 21 23  1  0  0  0  0
 22 20  1  0  0  0  0
 23 22  2  0  0  0  0
 25 24  1  0  0  0  0
 26 27  2  0  0  0  0
 27 25  1  0  0  0  0
 28 33  1  0  0  0  0
 29 36  1  0  0  0  0
 31 34  2  0  0  0  0
 33 35  2  0  0  0  0
 34 29  1  0  0  0  0
 34 33  1  0  0  0  0
 35 30  1  0  0  0  0
 36 32  1  6  0  0  0
 36 30  1  0  0  0  0
 37 42  1  0  0  0  0
 38 41  2  0  0  0  0
 38 37  1  0  0  0  0
 42 39  1  0  0  0  0
 42 40  2  0  0  0  0
 43 37  1  0  0  0  0
 43 44  1  0  0  0  0
 44 28  1  1  0  0  0
 44 39  1  0  0  0  0
 45 48  1  0  0  0  0
 45 50  1  0  0  0  0
 46 49  1  0  0  0  0
 47 49  1  0  0  0  0
 48 47  1  0  0  0  0
 49 38  1  1  0  0  0
 50 46  1  0  0  0  0
M  END
>  <MODEL>
9

>  <REMARK>
 VINA RESULT:      -6.3      2.393      5.638
  Name = 
  16 active torsions:
  status: ('A' for Active; 'I' for Inactive)
    1  A    between atoms: N_2  and  C_37
    2  A    between atoms: C_5  and  C_10
    3  A    between atoms: C_10  and  N_38
    4  A    between atoms: C_10  and  C_43
    5  A    between atoms: C_13  and  C_36
    6  A    between atoms: C_22  and  N_38
    7  A    between atoms: C_25  and  N_29
    8  A    between atoms: O_26  and  C_30
    9  A    between atoms: O_26  and  C_34
   10  A    between atoms: C_27  and  C_35
   11  A    between atoms: N_29  and  C_48
   12  A    between atoms: N_29  and  C_50
   13  A    between atoms: C_33  and  O_47
   14  A    between atoms: C_34  and  C_37
   15  A    between atoms: C_35  and  N_38
   16  A    between atoms: C_43  and  O_47
                            x       y       z     vdW  Elec       q    Type
                         _______ _______ _______ _____ _____    ______ ____

>  <TORSDO>
F 16

$$$$
