=
 OpenBabel11072409353D

 63 71  0  0  1  0  0  0  0  0999 V2000
  192.1410  169.6690  140.9180 C   0  0  1  0  0  0  0  0  0  0  0  0
  191.7970  170.5800  143.2240 C   0  0  0  0  0  2  0  0  0  0  0  0
  192.0150  169.3750  142.3500 C   0  0  2  0  0  3  0  0  0  0  0  0
  193.6680  170.9460  144.7690 C   0  0  0  0  0  1  0  0  0  0  0  0
  193.3620  169.4510  141.7310 N   0  0  2  0  0  0  0  0  0  0  0  0
  193.1300  171.2830  143.3750 C   0  0  1  0  0  0  0  0  0  0  0  0
  194.0040  170.6690  142.2490 C   0  0  1  0  0  3  0  0  0  0  0  0
  193.4760  173.4440  142.0670 O   0  0  0  0  0  1  0  0  0  0  0  0
  191.8300  173.4580  143.6960 C   0  0  0  0  0  0  0  0  0  0  0  0
  190.8020  174.7740  145.2430 C   0  0  0  0  0  3  0  0  0  0  0  0
  192.0730  174.9670  145.9490 C   0  0  0  0  0  0  0  0  0  0  0  0
  190.6340  173.9970  144.0550 C   0  0  0  0  0  3  0  0  0  0  0  0
  192.9630  172.8350  143.2130 C   0  0  1  0  0  0  0  0  0  0  0  0
  193.1420  173.6240  144.3590 C   0  0  0  0  0  0  0  0  0  0  0  0
  193.3010  174.4050  145.4860 C   0  0  0  0  0  3  0  0  0  0  0  0
  192.0830  175.7720  147.1900 C   0  0  0  0  0  0  0  0  0  0  0  0
  192.7700  176.8230  147.2670 O   0  0  0  0  0  0  0  0  0  0  0  0
  191.3230  175.3570  148.3300 N   0  0  0  0  0  1  0  0  0  0  0  0
  192.1170  168.4350  138.7590 C   0  0  0  0  0  0  0  0  0  0  0  0
  191.2210  168.3990  137.8690 O   0  0  0  0  0  0  0  0  0  0  0  0
  193.4960  168.5040  138.3990 N   0  0  0  0  0  2  0  0  0  0  0  0
  191.7410  168.5140  140.1310 N   0  0  0  0  0  2  0  0  0  0  0  0
  193.9190  169.2560  137.2240 C   0  0  0  0  0  2  0  0  0  0  0  0
  194.1830  170.6970  137.6150 C   0  0  0  0  0  2  0  0  0  0  0  0
  193.4150  171.5480  136.8130 O   0  0  0  0  0  0  0  0  0  0  0  0
  193.4920  172.7920  137.4440 C   0  0  2  0  0  3  0  0  0  0  0  0
  192.9010  173.7620  136.6330 O   0  0  0  0  0  1  0  0  0  0  0  0
  194.9480  173.1720  137.7060 C   0  0  0  0  0  2  0  0  0  0  0  0
  195.0070  175.0920  139.3140 C   0  0  0  0  0  1  0  0  0  0  0  0
  195.1880  174.6700  137.8660 C   0  0  1  0  0  3  0  0  0  0  0  0
  196.4520  175.0130  137.4070 O   0  0  0  0  0  1  0  0  0  0  0  0
  195.3070  170.3280  142.6820 O   0  0  0  0  0  0  0  0  0  0  0  0
  196.3590  171.6780  140.7740 C   0  0  0  0  0  2  0  0  0  0  0  0
  196.2500  171.2920  142.2680 C   0  0  1  0  0  0  0  0  0  0  0  0
  197.5710  172.5690  140.4810 C   0  0  0  0  0  2  0  0  0  0  0  0
  196.7500  172.2560  143.3430 C   0  0  1  0  0  3  0  0  0  0  0  0
  197.5740  171.0360  142.9540 C   0  0  0  0  0  2  0  0  0  0  0  0
  197.3240  173.5320  142.7630 C   0  0  0  0  0  3  0  0  0  0  0  0
  197.6710  173.6900  141.4730 C   0  0  0  0  0  3  0  0  0  0  0  0
  191.8430  171.0800  140.3330 C   0  0  0  0  0  2  0  0  0  0  0  0
  190.1160  171.9160  138.6740 C   0  0  0  0  0  0  0  0  0  0  0  0
  189.8110  172.4620  140.9600 C   0  0  0  0  0  2  0  0  0  0  0  0
  190.2400  171.2740  137.6020 O   0  0  0  0  0  0  0  0  0  0  0  0
  189.6990  173.2930  138.7450 C   0  0  0  0  0  0  0  0  0  0  0  0
  190.3650  171.3720  140.0380 C   0  0  2  0  0  3  0  0  0  0  0  0
  189.7540  173.7690  140.1470 C   0  0  1  0  0  3  0  0  0  0  0  0
  189.4720  174.0260  137.7400 O   0  0  0  0  0  0  0  0  0  0  0  0
  188.5890  174.5890  140.5820 C   0  0  0  0  0  3  0  0  0  0  0  0
  188.8530  175.7210  141.2360 C   0  0  0  0  0  3  0  0  0  0  0  0
  186.4950  177.0360  144.4010 C   0  0  0  0  0  0  0  0  0  0  0  0
  186.6700  175.7180  142.3740 C   0  0  0  0  0  2  0  0  0  0  0  0
  188.4120  177.3700  146.7690 C   0  0  0  0  0  3  0  0  0  0  0  0
  187.2410  177.7550  147.2760 C   0  0  0  0  0  3  0  0  0  0  0  0
  185.9210  176.3510  143.4580 N   0  0  0  0  0  0  0  0  0  0  0  0
  188.5240  177.4550  142.9200 C   0  0  0  0  0  2  0  0  0  0  0  0
  187.8090  176.6100  141.8390 C   0  0  1  0  0  0  0  0  0  0  0  0
  186.1650  178.3890  146.4540 C   0  0  1  0  0  3  0  0  0  0  0  0
  187.3000  177.4790  140.8780 O   0  0  0  0  0  1  0  0  0  0  0  0
  187.9480  177.3070  144.2970 C   0  0  0  0  0  0  0  0  0  0  0  0
  188.7790  177.4400  145.3400 C   0  0  0  0  0  3  0  0  0  0  0  0
  185.7020  177.4900  145.4600 O   0  0  0  0  0  0  0  0  0  0  0  0
  185.0070  178.8200  147.3500 C   0  0  0  0  0  2  0  0  0  0  0  0
  183.8700  178.0700  147.0700 F   0  0  0  0  0  0  0  0  0  0  0  0
  1 40  1  6  0  0  0
  1  5  1  0  0  0  0
  1  3  1  0  0  0  0
  2  6  1  0  0  0  0
  3  2  1  1  0  0  0
  5  7  1  0  0  0  0
  5  3  1  0  0  0  0
  6  4  1  0  0  0  0
  7 32  1  0  0  0  0
  7  6  1  0  0  0  0
  8 13  1  0  0  0  0
  9 12  2  0  0  0  0
  9 14  1  0  0  0  0
 10 11  2  0  0  0  0
 11 16  1  0  0  0  0
 12 10  1  0  0  0  0
 13  6  1  0  0  0  0
 13  9  1  0  0  0  0
 13 14  1  0  0  0  0
 14 15  2  3  0  0  0
 15 11  1  0  0  0  0
 16 17  2  0  0  0  0
 16 18  1  0  0  0  0
 19 22  1  0  0  0  0
 20 19  2  0  0  0  0
 21 19  1  0  0  0  0
 22  1  1  0  0  0  0
 23 24  1  0  0  0  0
 23 21  1  0  0  0  0
 25 26  1  0  0  0  0
 25 24  1  0  0  0  0
 26 28  1  0  0  0  0
 27 26  1  0  0  0  0
 28 30  1  0  0  0  0
 30 29  1  0  0  0  0
 31 30  1  0  0  0  0
 33 34  1  0  0  0  0
 34 32  1  0  0  0  0
 34 37  1  0  0  0  0
 34 36  1  0  0  0  0
 35 33  1  0  0  0  0
 35 39  1  0  0  0  0
 37 36  1  0  0  0  0
 38 36  1  0  0  0  0
 39 38  2  0  0  0  0
 41 44  1  0  0  0  0
 41 45  1  0  0  0  0
 43 41  2  0  0  0  0
 44 46  1  0  0  0  0
 45 40  1  0  0  0  0
 45 42  1  0  0  0  0
 46 48  1  0  0  0  0
 46 42  1  0  0  0  0
 47 44  2  0  0  0  0
 48 49  2  0  0  0  0
 49 56  1  0  0  0  0
 50 61  1  0  0  0  0
 51 54  1  0  0  0  0
 52 53  2  0  0  0  0
 54 50  2  0  0  0  0
 55 59  1  0  0  0  0
 56 51  1  0  0  0  0
 56 55  1  0  0  0  0
 57 53  1  0  0  0  0
 57 62  1  0  0  0  0
 58 56  1  0  0  0  0
 59 50  1  0  0  0  0
 59 60  2  0  0  0  0
 60 52  1  0  0  0  0
 61 57  1  0  0  0  0
 63 62  1  0  0  0  0
M  END
>  <MODEL>
1

>  <REMARK>
 VINA RESULT:      -6.4      0.000      0.000
  Name = 
  16 active torsions:
  status: ('A' for Active; 'I' for Inactive)
    1  A    between atoms: C_4  and  C_23
    2  A    between atoms: C_4  and  N_53
    3  A    between atoms: C_9  and  C_39
    4  A    between atoms: C_10  and  O_42
    5  A    between atoms: O_12  and  C_22
    6  A    between atoms: O_12  and  C_27
    7  A    between atoms: C_15  and  C_22
    8  A    between atoms: C_15  and  N_40
    9  A    between atoms: C_20  and  C_47
   10  A    between atoms: C_23  and  C_50
   11  A    between atoms: C_25  and  C_52
   12  A    between atoms: C_26  and  C_45
   13  A    between atoms: C_27  and  C_62
   14  A    between atoms: C_38  and  C_62
   15  A    between atoms: O_42  and  C_46
   16  A    between atoms: C_44  and  C_51
                            x       y       z     vdW  Elec       q    Type
                         _______ _______ _______ _____ _____    ______ ____

>  <TORSDO>
F 16

$$$$
=
 OpenBabel11072409353D

 63 71  0  0  1  0  0  0  0  0999 V2000
  195.3280  172.4330  141.0640 C   0  0  1  0  0  0  0  0  0  0  0  0
  196.4000  173.6560  139.1610 C   0  0  0  0  0  2  0  0  0  0  0  0
  196.5520  172.6770  140.2930 C   0  0  2  0  0  3  0  0  0  0  0  0
  196.7610  172.6000  136.9770 C   0  0  0  0  0  1  0  0  0  0  0  0
  195.7370  171.4680  140.0150 N   0  0  2  0  0  0  0  0  0  0  0  0
  195.6990  172.9380  138.0270 C   0  0  1  0  0  0  0  0  0  0  0  0
  195.1160  171.6650  138.6960 C   0  0  1  0  0  3  0  0  0  0  0  0
  194.7620  175.2260  137.4050 O   0  0  0  0  0  1  0  0  0  0  0  0
  193.8650  173.3930  136.3090 C   0  0  0  0  0  0  0  0  0  0  0  0
  191.9480  172.5660  135.4020 C   0  0  0  0  0  3  0  0  0  0  0  0
  191.2850  172.6210  136.7080 C   0  0  0  0  0  0  0  0  0  0  0  0
  193.2960  172.9690  135.1490 C   0  0  0  0  0  3  0  0  0  0  0  0
  194.5790  173.8430  137.4010 C   0  0  1  0  0  0  0  0  0  0  0  0
  193.2470  173.4830  137.6500 C   0  0  0  0  0  0  0  0  0  0  0  0
  191.9330  173.1240  137.8770 C   0  0  0  0  0  3  0  0  0  0  0  0
  189.8930  172.1340  136.8210 C   0  0  0  0  0  0  0  0  0  0  0  0
  189.2590  172.2520  137.9010 O   0  0  0  0  0  0  0  0  0  0  0  0
  189.2510  171.5050  135.7080 N   0  0  0  0  0  1  0  0  0  0  0  0
  196.4520  172.8600  143.2410 C   0  0  0  0  0  0  0  0  0  0  0  0
  197.5770  172.4580  143.6520 O   0  0  0  0  0  0  0  0  0  0  0  0
  196.0150  174.1920  143.5080 N   0  0  0  0  0  2  0  0  0  0  0  0
  195.6610  172.0110  142.4150 N   0  0  0  0  0  2  0  0  0  0  0  0
  196.9690  175.2950  143.5320 C   0  0  0  0  0  2  0  0  0  0  0  0
  196.2930  176.5360  144.0810 C   0  0  0  0  0  2  0  0  0  0  0  0
  194.9040  176.3850  144.0070 O   0  0  0  0  0  0  0  0  0  0  0  0
  194.4130  177.0920  145.1070 C   0  0  2  0  0  3  0  0  0  0  0  0
  195.3510  178.0470  145.5030 O   0  0  0  0  0  1  0  0  0  0  0  0
  194.1340  176.1460  146.2720 C   0  0  0  0  0  2  0  0  0  0  0  0
  191.7720  176.3480  145.4600 C   0  0  0  0  0  1  0  0  0  0  0  0
  192.6600  176.0310  146.6510 C   0  0  1  0  0  3  0  0  0  0  0  0
  192.3810  174.7660  147.1510 O   0  0  0  0  0  1  0  0  0  0  0  0
  195.3240  170.4930  137.9330 O   0  0  0  0  0  0  0  0  0  0  0  0
  192.9610  169.9330  138.7550 C   0  0  0  0  0  2  0  0  0  0  0  0
  194.1160  169.7930  137.7340 C   0  0  1  0  0  0  0  0  0  0  0  0
  191.8200  168.9430  138.4960 C   0  0  0  0  0  2  0  0  0  0  0  0
  193.8170  169.3470  136.3030 C   0  0  1  0  0  3  0  0  0  0  0  0
  194.4140  168.3720  137.3090 C   0  0  0  0  0  2  0  0  0  0  0  0
  192.3450  169.0820  136.0670 C   0  0  0  0  0  3  0  0  0  0  0  0
  191.4360  168.9270  137.0460 C   0  0  0  0  0  3  0  0  0  0  0  0
  194.0420  173.2870  140.8700 C   0  0  0  0  0  2  0  0  0  0  0  0
  192.0570  172.1140  141.9280 C   0  0  0  0  0  0  0  0  0  0  0  0
  192.1440  174.4800  142.0580 C   0  0  0  0  0  2  0  0  0  0  0  0
  192.3300  170.8970  142.0620 O   0  0  0  0  0  0  0  0  0  0  0  0
  190.7340  172.6190  141.6610 C   0  0  0  0  0  0  0  0  0  0  0  0
  193.0350  173.2330  142.0280 C   0  0  2  0  0  3  0  0  0  0  0  0
  190.7800  174.0860  141.4620 C   0  0  1  0  0  3  0  0  0  0  0  0
  189.7150  171.8950  141.4720 O   0  0  0  0  0  0  0  0  0  0  0  0
  189.6920  174.8510  142.1340 C   0  0  0  0  0  3  0  0  0  0  0  0
  188.9620  175.6650  141.3720 C   0  0  0  0  0  3  0  0  0  0  0  0
  186.3810  177.0290  144.3380 C   0  0  0  0  0  0  0  0  0  0  0  0
  186.6870  175.7350  142.3100 C   0  0  0  0  0  2  0  0  0  0  0  0
  188.0890  177.2500  146.8720 C   0  0  0  0  0  3  0  0  0  0  0  0
  186.8930  177.6750  147.2800 C   0  0  0  0  0  3  0  0  0  0  0  0
  185.8680  176.3820  143.3340 N   0  0  0  0  0  0  0  0  0  0  0  0
  188.5500  177.3870  143.0510 C   0  0  0  0  0  2  0  0  0  0  0  0
  187.9030  176.5870  141.8960 C   0  0  1  0  0  0  0  0  0  0  0  0
  185.9220  178.3640  146.3770 C   0  0  1  0  0  3  0  0  0  0  0  0
  187.5180  177.4900  140.9090 O   0  0  0  0  0  1  0  0  0  0  0  0
  187.8480  177.2420  144.3680 C   0  0  0  0  0  0  0  0  0  0  0  0
  188.5860  177.3260  145.4840 C   0  0  0  0  0  3  0  0  0  0  0  0
  185.5150  177.4990  145.3290 O   0  0  0  0  0  0  0  0  0  0  0  0
  184.7050  178.8290  147.1740 C   0  0  0  0  0  2  0  0  0  0  0  0
  183.5660  178.8140  146.3760 F   0  0  0  0  0  0  0  0  0  0  0  0
  1 40  1  6  0  0  0
  1 22  1  0  0  0  0
  3  2  1  6  0  0  0
  3  1  1  0  0  0  0
  4  6  1  0  0  0  0
  5  3  1  0  0  0  0
  5  1  1  0  0  0  0
  6  7  1  0  0  0  0
  6  2  1  0  0  0  0
  7  5  1  0  0  0  0
  9 13  1  0  0  0  0
  9 14  1  0  0  0  0
 10 11  2  0  0  0  0
 11 16  1  0  0  0  0
 11 15  1  0  0  0  0
 12 10  1  0  0  0  0
 12  9  2  0  0  0  0
 13  8  1  0  0  0  0
 13 14  1  0  0  0  0
 13  6  1  0  0  0  0
 14 15  2  3  0  0  0
 16 17  2  0  0  0  0
 18 16  1  0  0  0  0
 19 21  1  0  0  0  0
 19 20  2  0  0  0  0
 21 23  1  0  0  0  0
 22 19  1  0  0  0  0
 23 24  1  0  0  0  0
 25 24  1  0  0  0  0
 25 26  1  0  0  0  0
 26 27  1  0  0  0  0
 26 28  1  0  0  0  0
 28 30  1  0  0  0  0
 29 30  1  0  0  0  0
 30 31  1  0  0  0  0
 32  7  1  0  0  0  0
 34 32  1  0  0  0  0
 34 33  1  0  0  0  0
 35 33  1  0  0  0  0
 36 37  1  0  0  0  0
 36 34  1  0  0  0  0
 37 34  1  0  0  0  0
 38 36  1  0  0  0  0
 38 39  2  0  0  0  0
 39 35  1  0  0  0  0
 40 45  1  0  0  0  0
 41 45  1  0  0  0  0
 41 43  2  0  0  0  0
 44 41  1  0  0  0  0
 45 42  1  0  0  0  0
 46 44  1  0  0  0  0
 46 42  1  0  0  0  0
 46 48  1  0  0  0  0
 47 44  2  0  0  0  0
 49 56  1  0  0  0  0
 49 48  2  0  0  0  0
 50 59  1  0  0  0  0
 50 61  1  0  0  0  0
 51 54  1  0  0  0  0
 52 53  2  0  0  0  0
 54 50  2  0  0  0  0
 55 59  1  0  0  0  0
 56 51  1  0  0  0  0
 56 55  1  0  0  0  0
 57 62  1  0  0  0  0
 57 53  1  0  0  0  0
 58 56  1  0  0  0  0
 59 60  2  0  0  0  0
 60 52  1  0  0  0  0
 61 57  1  0  0  0  0
 63 62  1  0  0  0  0
M  END
>  <MODEL>
2

>  <REMARK>
 VINA RESULT:      -6.2      2.097      6.536
  Name = 
  16 active torsions:
  status: ('A' for Active; 'I' for Inactive)
    1  A    between atoms: C_4  and  C_23
    2  A    between atoms: C_4  and  N_53
    3  A    between atoms: C_9  and  C_39
    4  A    between atoms: C_10  and  O_42
    5  A    between atoms: O_12  and  C_22
    6  A    between atoms: O_12  and  C_27
    7  A    between atoms: C_15  and  C_22
    8  A    between atoms: C_15  and  N_40
    9  A    between atoms: C_20  and  C_47
   10  A    between atoms: C_23  and  C_50
   11  A    between atoms: C_25  and  C_52
   12  A    between atoms: C_26  and  C_45
   13  A    between atoms: C_27  and  C_62
   14  A    between atoms: C_38  and  C_62
   15  A    between atoms: O_42  and  C_46
   16  A    between atoms: C_44  and  C_51
                            x       y       z     vdW  Elec       q    Type
                         _______ _______ _______ _____ _____    ______ ____

>  <TORSDO>
F 16

$$$$
=
 OpenBabel11072409353D

 63 71  0  0  1  0  0  0  0  0999 V2000
  197.0350  172.7530  142.0920 C   0  0  1  0  0  0  0  0  0  0  0  0
  197.2980  174.3940  140.2200 C   0  0  0  0  0  2  0  0  0  0  0  0
  197.9410  173.3720  141.1160 C   0  0  2  0  0  3  0  0  0  0  0  0
  197.3070  173.6940  137.8690 C   0  0  0  0  0  1  0  0  0  0  0  0
  197.3600  172.0340  140.8350 N   0  0  2  0  0  0  0  0  0  0  0  0
  196.5010  173.6470  139.1710 C   0  0  1  0  0  0  0  0  0  0  0  0
  196.3950  172.2080  139.7390 C   0  0  1  0  0  3  0  0  0  0  0  0
  194.9150  175.6350  139.3580 O   0  0  0  0  0  1  0  0  0  0  0  0
  194.3230  173.9590  137.8730 C   0  0  0  0  0  0  0  0  0  0  0  0
  192.5440  172.8580  136.9760 C   0  0  0  0  0  3  0  0  0  0  0  0
  192.1460  172.3820  138.3030 C   0  0  0  0  0  0  0  0  0  0  0  0
  193.6740  173.6920  136.7080 C   0  0  0  0  0  3  0  0  0  0  0  0
  195.0920  174.3070  138.9650 C   0  0  1  0  0  0  0  0  0  0  0  0
  193.9650  173.5180  139.2390 C   0  0  0  0  0  0  0  0  0  0  0  0
  192.8520  172.7420  139.4920 C   0  0  0  0  0  3  0  0  0  0  0  0
  190.9700  171.4920  138.4180 C   0  0  0  0  0  0  0  0  0  0  0  0
  190.2860  171.2000  137.4030 O   0  0  0  0  0  0  0  0  0  0  0  0
  190.5820  170.9620  139.6890 N   0  0  0  0  0  1  0  0  0  0  0  0
  197.1570  171.4240  144.1900 C   0  0  0  0  0  0  0  0  0  0  0  0
  197.0150  171.8040  145.3870 O   0  0  0  0  0  0  0  0  0  0  0  0
  196.6020  170.1840  143.7520 N   0  0  0  0  0  2  0  0  0  0  0  0
  197.7850  172.2880  143.2480 N   0  0  0  0  0  2  0  0  0  0  0  0
  195.3320  169.7100  144.2870 C   0  0  0  0  0  2  0  0  0  0  0  0
  194.1910  170.3830  143.5490 C   0  0  0  0  0  2  0  0  0  0  0  0
  193.3870  171.0760  144.4600 O   0  0  0  0  0  0  0  0  0  0  0  0
  192.2200  171.3670  143.7510 C   0  0  2  0  0  3  0  0  0  0  0  0
  192.5520  171.8970  142.5030 O   0  0  0  0  0  1  0  0  0  0  0  0
  191.3640  172.3740  144.5150 C   0  0  0  0  0  2  0  0  0  0  0  0
  189.3860  173.7680  143.8630 C   0  0  0  0  0  1  0  0  0  0  0  0
  189.8860  172.3600  144.1370 C   0  0  1  0  0  3  0  0  0  0  0  0
  189.6700  171.5380  143.0400 O   0  0  0  0  0  1  0  0  0  0  0  0
  196.6480  171.2090  138.7700 O   0  0  0  0  0  0  0  0  0  0  0  0
  194.8910  169.8980  140.1000 C   0  0  0  0  0  2  0  0  0  0  0  0
  195.6450  170.2170  138.7860 C   0  0  1  0  0  0  0  0  0  0  0  0
  193.9990  168.6570  139.9830 C   0  0  0  0  0  2  0  0  0  0  0  0
  195.0080  169.8740  137.4400 C   0  0  1  0  0  3  0  0  0  0  0  0
  196.1160  169.0030  138.0160 C   0  0  0  0  0  2  0  0  0  0  0  0
  193.6470  169.2240  137.5840 C   0  0  0  0  0  3  0  0  0  0  0  0
  193.1760  168.6990  138.7300 C   0  0  0  0  0  3  0  0  0  0  0  0
  195.5900  173.2790  142.3300 C   0  0  0  0  0  2  0  0  0  0  0  0
  196.0100  175.0350  144.1120 C   0  0  0  0  0  0  0  0  0  0  0  0
  194.0290  175.2170  142.8220 C   0  0  0  0  0  2  0  0  0  0  0  0
  197.2170  174.9870  144.4520 O   0  0  0  0  0  0  0  0  0  0  0  0
  194.9330  175.3840  145.0040 C   0  0  0  0  0  0  0  0  0  0  0  0
  195.4880  174.7530  142.7450 C   0  0  2  0  0  3  0  0  0  0  0  0
  193.6330  175.2480  144.3090 C   0  0  1  0  0  3  0  0  0  0  0  0
  195.0740  175.6200  146.2390 O   0  0  0  0  0  0  0  0  0  0  0  0
  192.6650  176.3530  144.5550 C   0  0  0  0  0  3  0  0  0  0  0  0
  191.6110  176.4310  143.7430 C   0  0  0  0  0  3  0  0  0  0  0  0
  187.7300  177.8850  144.1140 C   0  0  0  0  0  0  0  0  0  0  0  0
  189.5700  177.2780  142.6570 C   0  0  0  0  0  2  0  0  0  0  0  0
  186.5690  176.5010  146.5890 C   0  0  0  0  0  3  0  0  0  0  0  0
  185.5730  177.2940  146.1960 C   0  0  0  0  0  3  0  0  0  0  0  0
  188.2730  177.8920  142.9330 N   0  0  0  0  0  0  0  0  0  0  0  0
  190.0070  177.5470  145.2040 C   0  0  0  0  0  2  0  0  0  0  0  0
  190.6000  177.5360  143.7750 C   0  0  1  0  0  0  0  0  0  0  0  0
  185.7950  178.5950  145.4940 C   0  0  1  0  0  3  0  0  0  0  0  0
  191.2190  178.7640  143.5560 O   0  0  0  0  0  1  0  0  0  0  0  0
  188.5200  177.3610  145.2540 C   0  0  0  0  0  0  0  0  0  0  0  0
  188.0010  176.7470  146.3260 C   0  0  0  0  0  3  0  0  0  0  0  0
  186.4300  178.3850  144.2440 O   0  0  0  0  0  0  0  0  0  0  0  0
  184.4630  179.3130  145.2900 C   0  0  0  0  0  2  0  0  0  0  0  0
  184.0450  179.1950  143.9690 F   0  0  0  0  0  0  0  0  0  0  0  0
  1 40  1  1  0  0  0
  1 22  1  0  0  0  0
  3  2  1  6  0  0  0
  3  1  1  0  0  0  0
  4  6  1  0  0  0  0
  5  3  1  0  0  0  0
  5  1  1  0  0  0  0
  6  7  1  0  0  0  0
  6  2  1  0  0  0  0
  7  5  1  0  0  0  0
  9 13  1  0  0  0  0
  9 14  1  0  0  0  0
 10 11  2  0  0  0  0
 11 16  1  0  0  0  0
 11 15  1  0  0  0  0
 12 10  1  0  0  0  0
 12  9  2  0  0  0  0
 13  6  1  0  0  0  0
 13 14  1  0  0  0  0
 13  8  1  0  0  0  0
 14 15  2  3  0  0  0
 16 18  1  0  0  0  0
 17 16  2  0  0  0  0
 19 20  2  0  0  0  0
 21 19  1  0  0  0  0
 21 23  1  0  0  0  0
 22 19  1  0  0  0  0
 24 23  1  0  0  0  0
 24 25  1  0  0  0  0
 26 25  1  0  0  0  0
 26 28  1  0  0  0  0
 27 26  1  0  0  0  0
 29 30  1  0  0  0  0
 30 28  1  0  0  0  0
 31 30  1  0  0  0  0
 32 34  1  0  0  0  0
 32  7  1  0  0  0  0
 34 33  1  0  0  0  0
 35 33  1  0  0  0  0
 36 38  1  0  0  0  0
 36 37  1  0  0  0  0
 36 34  1  0  0  0  0
 37 34  1  0  0  0  0
 38 39  2  0  0  0  0
 39 35  1  0  0  0  0
 40 45  1  0  0  0  0
 41 43  2  0  0  0  0
 41 44  1  0  0  0  0
 42 46  1  0  0  0  0
 44 47  2  0  0  0  0
 45 42  1  0  0  0  0
 45 41  1  0  0  0  0
 46 48  1  0  0  0  0
 46 44  1  0  0  0  0
 49 56  1  0  0  0  0
 49 48  2  0  0  0  0
 50 61  1  0  0  0  0
 50 59  1  0  0  0  0
 51 54  1  0  0  0  0
 51 56  1  0  0  0  0
 53 52  2  0  0  0  0
 54 50  2  0  0  0  0
 55 59  1  0  0  0  0
 56 55  1  0  0  0  0
 57 53  1  0  0  0  0
 58 56  1  0  0  0  0
 59 60  2  0  0  0  0
 60 52  1  0  0  0  0
 61 57  1  0  0  0  0
 62 57  1  0  0  0  0
 63 62  1  0  0  0  0
M  END
>  <MODEL>
3

>  <REMARK>
 VINA RESULT:      -6.2      2.305      6.446
  Name = 
  16 active torsions:
  status: ('A' for Active; 'I' for Inactive)
    1  A    between atoms: C_4  and  C_23
    2  A    between atoms: C_4  and  N_53
    3  A    between atoms: C_9  and  C_39
    4  A    between atoms: C_10  and  O_42
    5  A    between atoms: O_12  and  C_22
    6  A    between atoms: O_12  and  C_27
    7  A    between atoms: C_15  and  C_22
    8  A    between atoms: C_15  and  N_40
    9  A    between atoms: C_20  and  C_47
   10  A    between atoms: C_23  and  C_50
   11  A    between atoms: C_25  and  C_52
   12  A    between atoms: C_26  and  C_45
   13  A    between atoms: C_27  and  C_62
   14  A    between atoms: C_38  and  C_62
   15  A    between atoms: O_42  and  C_46
   16  A    between atoms: C_44  and  C_51
                            x       y       z     vdW  Elec       q    Type
                         _______ _______ _______ _____ _____    ______ ____

>  <TORSDO>
F 16

$$$$
=
 OpenBabel11072409353D

 63 71  0  0  1  0  0  0  0  0999 V2000
  192.7650  169.8150  140.3460 C   0  0  1  0  0  0  0  0  0  0  0  0
  191.8450  169.3260  142.6220 C   0  0  0  0  0  2  0  0  0  0  0  0
  192.4870  168.7990  141.3690 C   0  0  2  0  0  3  0  0  0  0  0  0
  193.2960  169.0600  144.5820 C   0  0  0  0  0  1  0  0  0  0  0  0
  193.8570  169.3580  141.2420 N   0  0  2  0  0  0  0  0  0  0  0  0
  192.9230  170.0080  143.4370 C   0  0  1  0  0  0  0  0  0  0  0  0
  194.0900  170.1930  142.4310 C   0  0  1  0  0  3  0  0  0  0  0  0
  191.0630  171.4940  144.3470 O   0  0  0  0  0  1  0  0  0  0  0  0
  193.2390  172.1430  144.8040 C   0  0  0  0  0  0  0  0  0  0  0  0
  194.5820  173.9580  145.0950 C   0  0  0  0  0  3  0  0  0  0  0  0
  194.3040  174.4040  143.7260 C   0  0  0  0  0  0  0  0  0  0  0  0
  194.0370  172.7820  145.7000 C   0  0  0  0  0  3  0  0  0  0  0  0
  192.4110  171.3780  144.0070 C   0  0  1  0  0  0  0  0  0  0  0  0
  192.9140  172.5480  143.4180 C   0  0  0  0  0  0  0  0  0  0  0  0
  193.4160  173.7030  142.8550 C   0  0  0  0  0  3  0  0  0  0  0  0
  194.9730  175.6260  143.2270 C   0  0  0  0  0  0  0  0  0  0  0  0
  195.3920  176.5000  144.0280 O   0  0  0  0  0  0  0  0  0  0  0  0
  195.1380  175.8390  141.8210 N   0  0  0  0  0  1  0  0  0  0  0  0
  193.5850  169.7900  137.9990 C   0  0  0  0  0  0  0  0  0  0  0  0
  193.0270  170.2270  136.9520 O   0  0  0  0  0  0  0  0  0  0  0  0
  194.9850  169.9730  138.2050 N   0  0  0  0  0  2  0  0  0  0  0  0
  192.7910  169.2050  139.0260 N   0  0  0  0  0  2  0  0  0  0  0  0
  195.6510  171.1860  137.7440 C   0  0  0  0  0  2  0  0  0  0  0  0
  195.0360  172.3910  138.4290 C   0  0  0  0  0  2  0  0  0  0  0  0
  194.5390  173.2740  137.4650 O   0  0  0  0  0  0  0  0  0  0  0  0
  195.0280  174.5250  137.8480 C   0  0  2  0  0  3  0  0  0  0  0  0
  194.0520  175.2030  138.5810 O   0  0  0  0  0  1  0  0  0  0  0  0
  195.4040  175.3540  136.6220 C   0  0  0  0  0  2  0  0  0  0  0  0
  197.7080  174.4520  136.2250 C   0  0  0  0  0  1  0  0  0  0  0  0
  196.8880  175.6950  136.5230 C   0  0  1  0  0  3  0  0  0  0  0  0
  197.1010  176.6700  135.5580 O   0  0  0  0  0  1  0  0  0  0  0  0
  195.3490  169.8430  142.9710 O   0  0  0  0  0  0  0  0  0  0  0  0
  196.1190  171.8910  141.6340 C   0  0  0  0  0  2  0  0  0  0  0  0
  196.2850  170.8850  142.7980 C   0  0  1  0  0  0  0  0  0  0  0  0
  197.3330  172.8120  141.4720 C   0  0  0  0  0  2  0  0  0  0  0  0
  197.1040  171.2710  144.0280 C   0  0  1  0  0  3  0  0  0  0  0  0
  197.6870  170.3440  142.9710 C   0  0  0  0  0  2  0  0  0  0  0  0
  197.6810  172.6680  143.9330 C   0  0  0  0  0  3  0  0  0  0  0  0
  197.7630  173.3780  142.7930 C   0  0  0  0  0  3  0  0  0  0  0  0
  192.2300  171.2720  140.4590 C   0  0  0  0  0  2  0  0  0  0  0  0
  190.3000  171.9150  138.9450 C   0  0  0  0  0  0  0  0  0  0  0  0
  190.1480  172.4940  141.2390 C   0  0  0  0  0  2  0  0  0  0  0  0
  190.3850  171.2580  137.8790 O   0  0  0  0  0  0  0  0  0  0  0  0
  189.7740  173.2540  139.0270 C   0  0  0  0  0  0  0  0  0  0  0  0
  190.7130  171.4300  140.2910 C   0  0  2  0  0  3  0  0  0  0  0  0
  189.9090  173.7690  140.4090 C   0  0  1  0  0  3  0  0  0  0  0  0
  189.3980  173.9390  138.0320 O   0  0  0  0  0  0  0  0  0  0  0  0
  188.7210  174.5000  140.9310 C   0  0  0  0  0  3  0  0  0  0  0  0
  188.8840  175.7870  141.2370 C   0  0  0  0  0  3  0  0  0  0  0  0
  186.5540  177.0010  144.4640 C   0  0  0  0  0  0  0  0  0  0  0  0
  186.7220  175.7200  142.4130 C   0  0  0  0  0  2  0  0  0  0  0  0
  188.5050  177.3370  146.8040 C   0  0  0  0  0  3  0  0  0  0  0  0
  187.3350  177.6880  147.3370 C   0  0  0  0  0  3  0  0  0  0  0  0
  185.9790  176.3180  143.5190 N   0  0  0  0  0  0  0  0  0  0  0  0
  188.5480  177.4860  142.9550 C   0  0  0  0  0  2  0  0  0  0  0  0
  187.8320  176.6440  141.8730 C   0  0  1  0  0  0  0  0  0  0  0  0
  186.2320  178.3130  146.5440 C   0  0  1  0  0  3  0  0  0  0  0  0
  187.2890  177.5170  140.9360 O   0  0  0  0  0  1  0  0  0  0  0  0
  188.0000  177.3040  144.3390 C   0  0  0  0  0  0  0  0  0  0  0  0
  188.8460  177.4370  145.3700 C   0  0  0  0  0  3  0  0  0  0  0  0
  185.7710  177.4200  145.5440 O   0  0  0  0  0  0  0  0  0  0  0  0
  185.0810  178.7040  147.4670 C   0  0  0  0  0  2  0  0  0  0  0  0
  183.8630  178.5690  146.8100 F   0  0  0  0  0  0  0  0  0  0  0  0
  1 40  1  1  0  0  0
  1  5  1  0  0  0  0
  1  3  1  0  0  0  0
  2  6  1  0  0  0  0
  3  2  1  1  0  0  0
  5  3  1  0  0  0  0
  5  7  1  0  0  0  0
  6 13  1  0  0  0  0
  6  4  1  0  0  0  0
  7 32  1  0  0  0  0
  7  6  1  0  0  0  0
  9 12  1  0  0  0  0
 10 12  2  0  0  0  0
 11 10  1  0  0  0  0
 13  8  1  0  0  0  0
 13  9  1  0  0  0  0
 14 13  1  0  0  0  0
 14  9  2  0  0  0  0
 15 14  1  0  0  0  0
 15 11  2  0  0  0  0
 16 11  1  0  0  0  0
 16 17  2  0  0  0  0
 18 16  1  0  0  0  0
 19 21  1  0  0  0  0
 19 22  1  0  0  0  0
 20 19  2  0  0  0  0
 22  1  1  0  0  0  0
 23 21  1  0  0  0  0
 23 24  1  0  0  0  0
 25 26  1  0  0  0  0
 25 24  1  0  0  0  0
 26 27  1  0  0  0  0
 28 26  1  0  0  0  0
 29 30  1  0  0  0  0
 30 28  1  0  0  0  0
 31 30  1  0  0  0  0
 33 34  1  0  0  0  0
 34 32  1  0  0  0  0
 34 37  1  0  0  0  0
 34 36  1  0  0  0  0
 35 33  1  0  0  0  0
 35 39  1  0  0  0  0
 37 36  1  0  0  0  0
 38 36  1  0  0  0  0
 39 38  2  0  0  0  0
 41 44  1  0  0  0  0
 41 45  1  0  0  0  0
 43 41  2  0  0  0  0
 44 46  1  0  0  0  0
 45 40  1  0  0  0  0
 45 42  1  0  0  0  0
 46 48  1  0  0  0  0
 46 42  1  0  0  0  0
 47 44  2  0  0  0  0
 48 49  2  0  0  0  0
 49 56  1  0  0  0  0
 50 61  1  0  0  0  0
 51 54  1  0  0  0  0
 52 53  2  0  0  0  0
 54 50  2  0  0  0  0
 55 59  1  0  0  0  0
 56 51  1  0  0  0  0
 56 55  1  0  0  0  0
 57 53  1  0  0  0  0
 57 62  1  0  0  0  0
 58 56  1  0  0  0  0
 59 50  1  0  0  0  0
 59 60  2  0  0  0  0
 60 52  1  0  0  0  0
 61 57  1  0  0  0  0
 63 62  1  0  0  0  0
M  END
>  <MODEL>
4

>  <REMARK>
 VINA RESULT:      -6.2      1.703      2.095
  Name = 
  16 active torsions:
  status: ('A' for Active; 'I' for Inactive)
    1  A    between atoms: C_4  and  C_23
    2  A    between atoms: C_4  and  N_53
    3  A    between atoms: C_9  and  C_39
    4  A    between atoms: C_10  and  O_42
    5  A    between atoms: O_12  and  C_22
    6  A    between atoms: O_12  and  C_27
    7  A    between atoms: C_15  and  C_22
    8  A    between atoms: C_15  and  N_40
    9  A    between atoms: C_20  and  C_47
   10  A    between atoms: C_23  and  C_50
   11  A    between atoms: C_25  and  C_52
   12  A    between atoms: C_26  and  C_45
   13  A    between atoms: C_27  and  C_62
   14  A    between atoms: C_38  and  C_62
   15  A    between atoms: O_42  and  C_46
   16  A    between atoms: C_44  and  C_51
                            x       y       z     vdW  Elec       q    Type
                         _______ _______ _______ _____ _____    ______ ____

>  <TORSDO>
F 16

$$$$
=
 OpenBabel11072409353D

 63 71  0  0  1  0  0  0  0  0999 V2000
  187.5150  177.3570  141.2170 C   0  0  1  0  0  0  0  0  0  0  0  0
  189.8280  177.7440  142.0920 C   0  0  0  0  0  2  0  0  0  0  0  0
  188.6300  178.2990  141.3740 C   0  0  2  0  0  3  0  0  0  0  0  0
  190.2380  178.8900  144.2220 C   0  0  0  0  0  1  0  0  0  0  0  0
  187.4780  178.3620  142.3090 N   0  0  2  0  0  0  0  0  0  0  0  0
  189.5030  177.7150  143.5700 C   0  0  1  0  0  0  0  0  0  0  0  0
  187.9630  177.8930  143.6160 C   0  0  1  0  0  3  0  0  0  0  0  0
  188.9930  175.5420  144.8030 O   0  0  0  0  0  1  0  0  0  0  0  0
  191.0020  175.6480  143.6540 C   0  0  0  0  0  0  0  0  0  0  0  0
  193.1670  174.9470  143.6920 C   0  0  0  0  0  3  0  0  0  0  0  0
  193.3890  175.6450  144.9620 C   0  0  0  0  0  0  0  0  0  0  0  0
  191.9280  174.9170  142.9780 C   0  0  0  0  0  3  0  0  0  0  0  0
  189.9600  176.3590  144.2160 C   0  0  1  0  0  0  0  0  0  0  0  0
  191.1620  176.3630  144.9390 C   0  0  0  0  0  0  0  0  0  0  0  0
  192.3520  176.3570  145.6380 C   0  0  0  0  0  3  0  0  0  0  0  0
  194.7400  175.6150  145.5640 C   0  0  0  0  0  0  0  0  0  0  0  0
  194.8980  175.2900  146.7690 O   0  0  0  0  0  0  0  0  0  0  0  0
  195.8880  175.9730  144.7880 N   0  0  0  0  0  1  0  0  0  0  0  0
  185.2960  177.7930  140.1830 C   0  0  0  0  0  0  0  0  0  0  0  0
  184.5670  177.0210  139.4990 O   0  0  0  0  0  0  0  0  0  0  0  0
  184.7190  178.6680  141.1520 N   0  0  0  0  0  2  0  0  0  0  0  0
  186.7130  177.7150  140.0590 N   0  0  0  0  0  2  0  0  0  0  0  0
  183.5560  178.2530  141.9260 C   0  0  0  0  0  2  0  0  0  0  0  0
  182.2910  178.6660  141.2000 C   0  0  0  0  0  2  0  0  0  0  0  0
  181.2190  177.8860  141.6450 O   0  0  0  0  0  0  0  0  0  0  0  0
  180.0830  178.6390  141.3370 C   0  0  2  0  0  3  0  0  0  0  0  0
  180.4530  179.9660  141.1060 O   0  0  0  0  0  1  0  0  0  0  0  0
  179.0780  178.5890  142.4850 C   0  0  0  0  0  2  0  0  0  0  0  0
  177.8410  177.1710  140.8300 C   0  0  0  0  0  1  0  0  0  0  0  0
  177.9480  177.5830  142.2880 C   0  0  1  0  0  3  0  0  0  0  0  0
  178.1350  176.4730  143.1010 O   0  0  0  0  0  1  0  0  0  0  0  0
  187.5410  178.8200  144.5980 O   0  0  0  0  0  0  0  0  0  0  0  0
  187.0430  177.5990  146.7970 C   0  0  0  0  0  2  0  0  0  0  0  0
  186.5890  178.2460  145.4660 C   0  0  1  0  0  0  0  0  0  0  0  0
  185.9120  176.8410  147.5010 C   0  0  0  0  0  2  0  0  0  0  0  0
  185.1480  178.7270  145.3050 C   0  0  1  0  0  3  0  0  0  0  0  0
  185.6030  177.4230  144.6670 C   0  0  0  0  0  2  0  0  0  0  0  0
  184.3080  178.4870  146.5430 C   0  0  0  0  0  3  0  0  0  0  0  0
  184.6570  177.6620  147.5470 C   0  0  0  0  0  3  0  0  0  0  0  0
  187.6540  175.8460  141.5620 C   0  0  0  0  0  2  0  0  0  0  0  0
  188.2210  174.4010  139.5550 C   0  0  0  0  0  0  0  0  0  0  0  0
  189.3340  173.9460  141.5980 C   0  0  0  0  0  2  0  0  0  0  0  0
  187.8130  174.9730  138.5160 O   0  0  0  0  0  0  0  0  0  0  0  0
  188.2640  172.9700  139.7250 C   0  0  0  0  0  0  0  0  0  0  0  0
  188.7320  175.0890  140.7740 C   0  0  2  0  0  3  0  0  0  0  0  0
  188.7010  172.6340  141.0990 C   0  0  1  0  0  3  0  0  0  0  0  0
  187.8400  172.1350  138.8740 O   0  0  0  0  0  0  0  0  0  0  0  0
  189.6890  171.5230  141.1950 C   0  0  0  0  0  3  0  0  0  0  0  0
  190.5530  171.5630  142.2100 C   0  0  0  0  0  3  0  0  0  0  0  0
  194.5200  170.6130  143.0290 C   0  0  0  0  0  0  0  0  0  0  0  0
  192.7790  170.9290  141.3720 C   0  0  0  0  0  2  0  0  0  0  0  0
  195.2520  172.2310  145.5270 C   0  0  0  0  0  3  0  0  0  0  0  0
  196.3690  171.5510  145.2730 C   0  0  0  0  0  3  0  0  0  0  0  0
  194.1050  170.4910  141.8030 N   0  0  0  0  0  0  0  0  0  0  0  0
  192.1200  170.7140  143.8750 C   0  0  0  0  0  2  0  0  0  0  0  0
  191.6790  170.5920  142.3980 C   0  0  1  0  0  0  0  0  0  0  0  0
  196.3750  170.2040  144.6240 C   0  0  1  0  0  3  0  0  0  0  0  0
  191.2350  169.2900  142.1860 O   0  0  0  0  0  1  0  0  0  0  0  0
  193.5620  171.0830  144.0580 C   0  0  0  0  0  0  0  0  0  0  0  0
  193.8930  171.7990  145.1410 C   0  0  0  0  0  3  0  0  0  0  0  0
  195.8500  170.2830  143.3090 O   0  0  0  0  0  0  0  0  0  0  0  0
  197.7960  169.6480  144.5860 C   0  0  0  0  0  2  0  0  0  0  0  0
  197.8660  168.5490  143.7380 F   0  0  0  0  0  0  0  0  0  0  0  0
  1  3  1  0  0  0  0
  1 40  1  1  0  0  0
  1  5  1  0  0  0  0
  2  6  1  0  0  0  0
  3  2  1  1  0  0  0
  3  5  1  0  0  0  0
  5  7  1  0  0  0  0
  6  7  1  0  0  0  0
  6 13  1  0  0  0  0
  6  4  1  0  0  0  0
  7 32  1  0  0  0  0
  9 13  1  0  0  0  0
  9 14  1  0  0  0  0
 10 11  2  0  0  0  0
 11 16  1  0  0  0  0
 11 15  1  0  0  0  0
 12  9  2  0  0  0  0
 12 10  1  0  0  0  0
 13  8  1  0  0  0  0
 13 14  1  0  0  0  0
 14 15  2  3  0  0  0
 16 17  2  0  0  0  0
 18 16  1  0  0  0  0
 19 21  1  0  0  0  0
 20 19  2  0  0  0  0
 21 23  1  0  0  0  0
 22 19  1  0  0  0  0
 22  1  1  0  0  0  0
 24 25  1  0  0  0  0
 24 23  1  0  0  0  0
 26 25  1  0  0  0  0
 26 28  1  0  0  0  0
 27 26  1  0  0  0  0
 29 30  1  0  0  0  0
 30 28  1  0  0  0  0
 30 31  1  0  0  0  0
 32 34  1  0  0  0  0
 33 35  1  0  0  0  0
 34 33  1  0  0  0  0
 35 39  1  0  0  0  0
 36 34  1  0  0  0  0
 36 38  1  0  0  0  0
 37 36  1  0  0  0  0
 37 34  1  0  0  0  0
 38 39  2  0  0  0  0
 41 44  1  0  0  0  0
 41 45  1  0  0  0  0
 43 41  2  0  0  0  0
 44 46  1  0  0  0  0
 45 40  1  0  0  0  0
 45 42  1  0  0  0  0
 46 48  1  0  0  0  0
 46 42  1  0  0  0  0
 47 44  2  0  0  0  0
 48 49  2  0  0  0  0
 49 56  1  0  0  0  0
 50 61  1  0  0  0  0
 50 59  1  0  0  0  0
 51 54  1  0  0  0  0
 51 56  1  0  0  0  0
 53 52  2  0  0  0  0
 54 50  2  0  0  0  0
 55 59  1  0  0  0  0
 56 55  1  0  0  0  0
 57 53  1  0  0  0  0
 58 56  1  0  0  0  0
 59 60  2  0  0  0  0
 60 52  1  0  0  0  0
 61 57  1  0  0  0  0
 62 57  1  0  0  0  0
 63 62  1  0  0  0  0
M  END
>  <MODEL>
5

>  <REMARK>
 VINA RESULT:      -5.7      3.978     10.476
  Name = 
  16 active torsions:
  status: ('A' for Active; 'I' for Inactive)
    1  A    between atoms: C_4  and  C_23
    2  A    between atoms: C_4  and  N_53
    3  A    between atoms: C_9  and  C_39
    4  A    between atoms: C_10  and  O_42
    5  A    between atoms: O_12  and  C_22
    6  A    between atoms: O_12  and  C_27
    7  A    between atoms: C_15  and  C_22
    8  A    between atoms: C_15  and  N_40
    9  A    between atoms: C_20  and  C_47
   10  A    between atoms: C_23  and  C_50
   11  A    between atoms: C_25  and  C_52
   12  A    between atoms: C_26  and  C_45
   13  A    between atoms: C_27  and  C_62
   14  A    between atoms: C_38  and  C_62
   15  A    between atoms: O_42  and  C_46
   16  A    between atoms: C_44  and  C_51
                            x       y       z     vdW  Elec       q    Type
                         _______ _______ _______ _____ _____    ______ ____

>  <TORSDO>
F 16

$$$$
=
 OpenBabel11072409353D

 63 71  0  0  1  0  0  0  0  0999 V2000
  195.2160  173.0660  141.8150 C   0  0  1  0  0  0  0  0  0  0  0  0
  195.4300  174.9690  140.2030 C   0  0  0  0  0  2  0  0  0  0  0  0
  196.0360  174.1850  141.3330 C   0  0  2  0  0  3  0  0  0  0  0  0
  196.7490  174.7860  138.1430 C   0  0  0  0  0  1  0  0  0  0  0  0
  196.3330  172.8040  140.8740 N   0  0  2  0  0  0  0  0  0  0  0  0
  195.6010  174.1560  138.9380 C   0  0  1  0  0  0  0  0  0  0  0  0
  195.9590  172.7370  139.4520 C   0  0  1  0  0  3  0  0  0  0  0  0
  193.6050  175.3690  137.9160 O   0  0  0  0  0  1  0  0  0  0  0  0
  194.1590  173.3120  137.0050 C   0  0  0  0  0  0  0  0  0  0  0  0
  193.2820  171.4450  136.0440 C   0  0  0  0  0  3  0  0  0  0  0  0
  192.5170  171.1560  137.2600 C   0  0  0  0  0  0  0  0  0  0  0  0
  194.1480  172.5680  135.8670 C   0  0  0  0  0  3  0  0  0  0  0  0
  194.2820  174.1600  138.0870 C   0  0  1  0  0  0  0  0  0  0  0  0
  193.4040  173.0800  138.2560 C   0  0  0  0  0  0  0  0  0  0  0  0
  192.5430  172.0110  138.4050 C   0  0  0  0  0  3  0  0  0  0  0  0
  191.6890  169.9310  137.3080 C   0  0  0  0  0  0  0  0  0  0  0  0
  192.0020  168.9750  138.0630 O   0  0  0  0  0  0  0  0  0  0  0  0
  190.5270  169.8080  136.4820 N   0  0  0  0  0  1  0  0  0  0  0  0
  195.8350  173.8400  144.0960 C   0  0  0  0  0  0  0  0  0  0  0  0
  196.9740  173.8960  144.6400 O   0  0  0  0  0  0  0  0  0  0  0  0
  194.8870  174.8910  144.2850 N   0  0  0  0  0  2  0  0  0  0  0  0
  195.5340  172.7720  143.2030 N   0  0  0  0  0  2  0  0  0  0  0  0
  195.3280  176.2760  144.3960 C   0  0  0  0  0  2  0  0  0  0  0  0
  194.7310  176.8980  145.6430 C   0  0  0  0  0  2  0  0  0  0  0  0
  194.1350  175.9030  146.4240 O   0  0  0  0  0  0  0  0  0  0  0  0
  192.7620  176.1310  146.2980 C   0  0  2  0  0  3  0  0  0  0  0  0
  192.2930  176.7880  147.4370 O   0  0  0  0  0  1  0  0  0  0  0  0
  192.0110  174.8120  146.1320 C   0  0  0  0  0  2  0  0  0  0  0  0
  189.7900  173.7910  145.5810 C   0  0  0  0  0  1  0  0  0  0  0  0
  190.5000  174.9220  146.3070 C   0  0  1  0  0  3  0  0  0  0  0  0
  190.1640  174.9310  147.6540 O   0  0  0  0  0  1  0  0  0  0  0  0
  197.0310  172.1440  138.7450 O   0  0  0  0  0  0  0  0  0  0  0  0
  195.6000  170.0320  138.9960 C   0  0  0  0  0  2  0  0  0  0  0  0
  196.6800  170.8650  138.2650 C   0  0  1  0  0  0  0  0  0  0  0  0
  195.5040  168.5960  138.4690 C   0  0  0  0  0  2  0  0  0  0  0  0
  196.9970  170.5810  136.7980 C   0  0  1  0  0  3  0  0  0  0  0  0
  197.9300  170.0970  137.8990 C   0  0  0  0  0  2  0  0  0  0  0  0
  196.1650  169.4510  136.2260 C   0  0  0  0  0  3  0  0  0  0  0  0
  195.4700  168.5710  136.9700 C   0  0  0  0  0  3  0  0  0  0  0  0
  193.7470  172.8560  141.3490 C   0  0  0  0  0  2  0  0  0  0  0  0
  191.6000  171.9330  142.3380 C   0  0  0  0  0  0  0  0  0  0  0  0
  191.9340  174.2790  142.4100 C   0  0  0  0  0  2  0  0  0  0  0  0
  191.7360  170.6990  142.5190 O   0  0  0  0  0  0  0  0  0  0  0  0
  190.3530  172.5660  141.9930 C   0  0  0  0  0  0  0  0  0  0  0  0
  192.6870  172.9460  142.4570 C   0  0  2  0  0  3  0  0  0  0  0  0
  190.5650  174.0130  141.7580 C   0  0  1  0  0  3  0  0  0  0  0  0
  189.2720  171.9480  141.7720 O   0  0  0  0  0  0  0  0  0  0  0  0
  189.5350  174.9090  142.3530 C   0  0  0  0  0  3  0  0  0  0  0  0
  189.0960  175.9170  141.5990 C   0  0  0  0  0  3  0  0  0  0  0  0
  186.0550  177.3210  144.0680 C   0  0  0  0  0  0  0  0  0  0  0  0
  186.7100  176.4390  141.9070 C   0  0  0  0  0  2  0  0  0  0  0  0
  186.8700  176.5170  146.9110 C   0  0  0  0  0  3  0  0  0  0  0  0
  185.7260  177.1720  147.1020 C   0  0  0  0  0  3  0  0  0  0  0  0
  185.7640  177.0680  142.8270 N   0  0  0  0  0  0  0  0  0  0  0  0
  188.5450  177.2990  143.5320 C   0  0  0  0  0  2  0  0  0  0  0  0
  188.1460  176.9740  142.0730 C   0  0  1  0  0  0  0  0  0  0  0  0
  185.2630  178.2820  146.2130 C   0  0  1  0  0  3  0  0  0  0  0  0
  188.2960  178.1330  141.3160 O   0  0  0  0  0  1  0  0  0  0  0  0
  187.4450  177.0940  144.5300 C   0  0  0  0  0  0  0  0  0  0  0  0
  187.7880  176.7310  145.7740 C   0  0  0  0  0  3  0  0  0  0  0  0
  185.0380  177.8040  144.8970 O   0  0  0  0  0  0  0  0  0  0  0  0
  183.9830  178.9000  146.7710 C   0  0  0  0  0  2  0  0  0  0  0  0
  183.8820  178.6590  148.1370 F   0  0  0  0  0  0  0  0  0  0  0  0
  1 40  1  6  0  0  0
  1 22  1  0  0  0  0
  3  2  1  6  0  0  0
  3  1  1  0  0  0  0
  4  6  1  0  0  0  0
  5  3  1  0  0  0  0
  5  1  1  0  0  0  0
  6  7  1  0  0  0  0
  6  2  1  0  0  0  0
  7  5  1  0  0  0  0
  8 13  1  0  0  0  0
  9 13  1  0  0  0  0
  9 14  1  0  0  0  0
 10 11  2  0  0  0  0
 11 16  1  0  0  0  0
 11 15  1  0  0  0  0
 12 10  1  0  0  0  0
 12  9  2  0  0  0  0
 13 14  1  0  0  0  0
 13  6  1  0  0  0  0
 14 15  2  3  0  0  0
 16 17  2  0  0  0  0
 18 16  1  0  0  0  0
 19 21  1  0  0  0  0
 19 20  2  0  0  0  0
 21 23  1  0  0  0  0
 22 19  1  0  0  0  0
 23 24  1  0  0  0  0
 24 25  1  0  0  0  0
 26 25  1  0  0  0  0
 26 27  1  0  0  0  0
 28 26  1  0  0  0  0
 28 30  1  0  0  0  0
 29 30  1  0  0  0  0
 30 31  1  0  0  0  0
 32  7  1  0  0  0  0
 34 32  1  0  0  0  0
 34 33  1  0  0  0  0
 35 33  1  0  0  0  0
 36 37  1  0  0  0  0
 36 34  1  0  0  0  0
 37 34  1  0  0  0  0
 38 36  1  0  0  0  0
 38 39  2  0  0  0  0
 39 35  1  0  0  0  0
 40 45  1  0  0  0  0
 41 45  1  0  0  0  0
 41 43  2  0  0  0  0
 42 45  1  0  0  0  0
 44 41  1  0  0  0  0
 46 44  1  0  0  0  0
 46 48  1  0  0  0  0
 46 42  1  0  0  0  0
 47 44  2  0  0  0  0
 49 56  1  0  0  0  0
 49 48  2  0  0  0  0
 50 59  1  0  0  0  0
 50 61  1  0  0  0  0
 51 56  1  0  0  0  0
 51 54  1  0  0  0  0
 52 53  2  0  0  0  0
 54 50  2  0  0  0  0
 55 59  1  0  0  0  0
 56 55  1  0  0  0  0
 57 62  1  0  0  0  0
 57 53  1  0  0  0  0
 58 56  1  0  0  0  0
 59 60  2  0  0  0  0
 60 52  1  0  0  0  0
 61 57  1  0  0  0  0
 62 63  1  0  0  0  0
M  END
>  <MODEL>
6

>  <REMARK>
 VINA RESULT:      -5.7      2.188      6.628
  Name = 
  16 active torsions:
  status: ('A' for Active; 'I' for Inactive)
    1  A    between atoms: C_4  and  C_23
    2  A    between atoms: C_4  and  N_53
    3  A    between atoms: C_9  and  C_39
    4  A    between atoms: C_10  and  O_42
    5  A    between atoms: O_12  and  C_22
    6  A    between atoms: O_12  and  C_27
    7  A    between atoms: C_15  and  C_22
    8  A    between atoms: C_15  and  N_40
    9  A    between atoms: C_20  and  C_47
   10  A    between atoms: C_23  and  C_50
   11  A    between atoms: C_25  and  C_52
   12  A    between atoms: C_26  and  C_45
   13  A    between atoms: C_27  and  C_62
   14  A    between atoms: C_38  and  C_62
   15  A    between atoms: O_42  and  C_46
   16  A    between atoms: C_44  and  C_51
                            x       y       z     vdW  Elec       q    Type
                         _______ _______ _______ _____ _____    ______ ____

>  <TORSDO>
F 16

$$$$
=
 OpenBabel11072409353D

 63 71  0  0  1  0  0  0  0  0999 V2000
  196.3590  171.6320  140.6620 C   0  0  1  0  0  0  0  0  0  0  0  0
  197.0290  173.9210  139.8990 C   0  0  0  0  0  2  0  0  0  0  0  0
  197.4200  172.4840  140.1110 C   0  0  2  0  0  3  0  0  0  0  0  0
  197.0580  174.5430  137.5260 C   0  0  0  0  0  1  0  0  0  0  0  0
  196.6270  171.6160  139.2030 N   0  0  2  0  0  0  0  0  0  0  0  0
  196.1780  173.9830  138.6480 C   0  0  1  0  0  0  0  0  0  0  0  0
  195.7790  172.5060  138.3940 C   0  0  1  0  0  3  0  0  0  0  0  0
  194.9730  175.8540  139.8910 O   0  0  0  0  0  1  0  0  0  0  0  0
  194.1700  175.3070  137.7880 C   0  0  0  0  0  0  0  0  0  0  0  0
  192.2740  175.1660  136.5370 C   0  0  0  0  0  3  0  0  0  0  0  0
  191.7210  174.1660  137.4550 C   0  0  0  0  0  0  0  0  0  0  0  0
  193.5500  175.7940  136.6810 C   0  0  0  0  0  3  0  0  0  0  0  0
  194.9260  174.9040  138.8700 C   0  0  1  0  0  0  0  0  0  0  0  0
  193.6610  174.3100  138.7550 C   0  0  0  0  0  0  0  0  0  0  0  0
  192.4130  173.7340  138.6280 C   0  0  0  0  0  3  0  0  0  0  0  0
  190.3980  173.5760  137.1540 C   0  0  0  0  0  0  0  0  0  0  0  0
  189.8840  172.7260  137.9260 O   0  0  0  0  0  0  0  0  0  0  0  0
  189.6890  173.9520  135.9690 N   0  0  0  0  0  1  0  0  0  0  0  0
  196.1010  169.4380  141.8020 C   0  0  0  0  0  0  0  0  0  0  0  0
  195.9840  169.1860  143.0350 O   0  0  0  0  0  0  0  0  0  0  0  0
  195.3230  168.7280  140.8390 N   0  0  0  0  0  2  0  0  0  0  0  0
  196.9390  170.5090  141.3800 N   0  0  0  0  0  2  0  0  0  0  0  0
  193.9570  168.3200  141.1440 C   0  0  0  0  0  2  0  0  0  0  0  0
  193.0190  169.4900  140.9260 C   0  0  0  0  0  2  0  0  0  0  0  0
  192.4090  169.8350  142.1370 O   0  0  0  0  0  0  0  0  0  0  0  0
  191.1080  170.2010  141.7850 C   0  0  2  0  0  3  0  0  0  0  0  0
  190.6280  169.3310  140.8040 O   0  0  0  0  0  1  0  0  0  0  0  0
  191.0790  171.6310  141.2490 C   0  0  0  0  0  2  0  0  0  0  0  0
  189.6720  173.7030  141.1850 C   0  0  0  0  0  1  0  0  0  0  0  0
  190.2200  172.5920  142.0650 C   0  0  1  0  0  3  0  0  0  0  0  0
  189.1890  171.9090  142.6950 O   0  0  0  0  0  1  0  0  0  0  0  0
  195.9080  172.1220  137.0390 O   0  0  0  0  0  0  0  0  0  0  0  0
  193.8150  170.7410  137.5730 C   0  0  0  0  0  2  0  0  0  0  0  0
  194.7380  171.4830  136.5770 C   0  0  1  0  0  0  0  0  0  0  0  0
  192.7190  169.9300  136.8720 C   0  0  0  0  0  2  0  0  0  0  0  0
  194.1810  171.9710  135.2410 C   0  0  1  0  0  3  0  0  0  0  0  0
  195.0430  170.7190  135.3080 C   0  0  0  0  0  2  0  0  0  0  0  0
  192.7140  171.6380  135.0610 C   0  0  0  0  0  3  0  0  0  0  0  0
  192.0430  170.7420  135.8070 C   0  0  0  0  0  3  0  0  0  0  0  0
  195.0210  172.2190  141.1960 C   0  0  0  0  0  2  0  0  0  0  0  0
  195.6890  172.7970  143.5740 C   0  0  0  0  0  0  0  0  0  0  0  0
  193.8030  173.9000  142.6540 C   0  0  0  0  0  2  0  0  0  0  0  0
  196.8610  172.3940  143.7750 O   0  0  0  0  0  0  0  0  0  0  0  0
  194.6660  172.8400  144.5880 C   0  0  0  0  0  0  0  0  0  0  0  0
  195.1620  173.3020  142.2750 C   0  0  2  0  0  3  0  0  0  0  0  0
  193.3790  173.2710  143.9940 C   0  0  1  0  0  3  0  0  0  0  0  0
  194.8120  172.4210  145.7720 O   0  0  0  0  0  0  0  0  0  0  0  0
  192.6090  174.2590  144.8000 C   0  0  0  0  0  3  0  0  0  0  0  0
  191.3440  174.4820  144.4430 C   0  0  0  0  0  3  0  0  0  0  0  0
  188.5240  177.5360  144.2670 C   0  0  0  0  0  0  0  0  0  0  0  0
  190.8510  176.8930  144.4950 C   0  0  0  0  0  2  0  0  0  0  0  0
  186.3140  176.5060  142.4110 C   0  0  0  0  0  3  0  0  0  0  0  0
  185.8610  177.7040  142.7790 C   0  0  0  0  0  3  0  0  0  0  0  0
  189.7530  177.8560  144.5460 N   0  0  0  0  0  0  0  0  0  0  0  0
  189.0040  175.0870  144.7740 C   0  0  0  0  0  2  0  0  0  0  0  0
  190.4600  175.5170  145.0700 C   0  0  1  0  0  0  0  0  0  0  0  0
  186.1790  178.3260  144.1010 C   0  0  1  0  0  3  0  0  0  0  0  0
  190.6350  175.5280  146.4510 O   0  0  0  0  0  1  0  0  0  0  0  0
  188.2010  176.1100  144.0270 C   0  0  0  0  0  0  0  0  0  0  0  0
  187.2390  175.6710  143.2040 C   0  0  0  0  0  3  0  0  0  0  0  0
  187.5720  178.5600  144.2190 O   0  0  0  0  0  0  0  0  0  0  0  0
  185.4130  179.6370  144.2600 C   0  0  0  0  0  2  0  0  0  0  0  0
  184.1610  179.4040  144.8170 F   0  0  0  0  0  0  0  0  0  0  0  0
  1 40  1  1  0  0  0
  1 22  1  0  0  0  0
  3  2  1  6  0  0  0
  3  1  1  0  0  0  0
  4  6  1  0  0  0  0
  5  3  1  0  0  0  0
  5  1  1  0  0  0  0
  6 13  1  0  0  0  0
  6  2  1  0  0  0  0
  7  6  1  0  0  0  0
  7  5  1  0  0  0  0
  9 14  1  0  0  0  0
  9 13  1  0  0  0  0
 10 12  1  0  0  0  0
 10 11  2  0  0  0  0
 11 15  1  0  0  0  0
 12  9  2  0  0  0  0
 13  8  1  0  0  0  0
 14 13  1  0  0  0  0
 15 14  2  3  0  0  0
 16 11  1  0  0  0  0
 16 17  2  0  0  0  0
 18 16  1  0  0  0  0
 19 20  2  0  0  0  0
 21 23  1  0  0  0  0
 21 19  1  0  0  0  0
 22 19  1  0  0  0  0
 24 23  1  0  0  0  0
 24 25  1  0  0  0  0
 26 25  1  0  0  0  0
 27 26  1  0  0  0  0
 28 26  1  0  0  0  0
 28 30  1  0  0  0  0
 29 30  1  0  0  0  0
 30 31  1  0  0  0  0
 32  7  1  0  0  0  0
 34 32  1  0  0  0  0
 34 33  1  0  0  0  0
 35 33  1  0  0  0  0
 36 37  1  0  0  0  0
 36 34  1  0  0  0  0
 37 34  1  0  0  0  0
 38 36  1  0  0  0  0
 38 39  2  0  0  0  0
 39 35  1  0  0  0  0
 40 45  1  0  0  0  0
 41 43  2  0  0  0  0
 41 44  1  0  0  0  0
 42 46  1  0  0  0  0
 44 47  2  0  0  0  0
 45 42  1  0  0  0  0
 45 41  1  0  0  0  0
 46 44  1  0  0  0  0
 46 48  1  0  0  0  0
 49 48  2  0  0  0  0
 49 56  1  0  0  0  0
 50 54  2  0  0  0  0
 51 54  1  0  0  0  0
 51 56  1  0  0  0  0
 52 53  2  0  0  0  0
 52 60  1  0  0  0  0
 53 57  1  0  0  0  0
 55 56  1  0  0  0  0
 56 58  1  0  0  0  0
 57 61  1  0  0  0  0
 57 62  1  0  0  0  0
 59 50  1  0  0  0  0
 59 55  1  0  0  0  0
 60 59  2  0  0  0  0
 61 50  1  0  0  0  0
 62 63  1  0  0  0  0
M  END
>  <MODEL>
7

>  <REMARK>
 VINA RESULT:      -5.6      2.311      6.373
  Name = 
  16 active torsions:
  status: ('A' for Active; 'I' for Inactive)
    1  A    between atoms: C_4  and  C_23
    2  A    between atoms: C_4  and  N_53
    3  A    between atoms: C_9  and  C_39
    4  A    between atoms: C_10  and  O_42
    5  A    between atoms: O_12  and  C_22
    6  A    between atoms: O_12  and  C_27
    7  A    between atoms: C_15  and  C_22
    8  A    between atoms: C_15  and  N_40
    9  A    between atoms: C_20  and  C_47
   10  A    between atoms: C_23  and  C_50
   11  A    between atoms: C_25  and  C_52
   12  A    between atoms: C_26  and  C_45
   13  A    between atoms: C_27  and  C_62
   14  A    between atoms: C_38  and  C_62
   15  A    between atoms: O_42  and  C_46
   16  A    between atoms: C_44  and  C_51
                            x       y       z     vdW  Elec       q    Type
                         _______ _______ _______ _____ _____    ______ ____

>  <TORSDO>
F 16

$$$$
=
 OpenBabel11072409353D

 63 71  0  0  1  0  0  0  0  0999 V2000
  191.3580  174.7390  145.6700 C   0  0  1  0  0  0  0  0  0  0  0  0
  191.2020  172.8140  144.0770 C   0  0  0  0  0  2  0  0  0  0  0  0
  190.8720  173.3740  145.4330 C   0  0  2  0  0  3  0  0  0  0  0  0
  189.1890  172.3930  142.7410 C   0  0  0  0  0  1  0  0  0  0  0  0
  189.9420  174.5230  145.2820 N   0  0  2  0  0  0  0  0  0  0  0  0
  190.2520  173.4420  143.0790 C   0  0  1  0  0  0  0  0  0  0  0  0
  189.6540  174.6520  143.8450 C   0  0  1  0  0  3  0  0  0  0  0  0
  191.4730  175.1990  141.6930 O   0  0  0  0  0  1  0  0  0  0  0  0
  191.8310  172.9820  141.1250 C   0  0  0  0  0  0  0  0  0  0  0  0
  192.2270  171.5880  139.3700 C   0  0  0  0  0  3  0  0  0  0  0  0
  190.9470  171.9610  138.7620 C   0  0  0  0  0  0  0  0  0  0  0  0
  192.7310  172.1060  140.6040 C   0  0  0  0  0  3  0  0  0  0  0  0
  191.0170  173.8830  141.7820 C   0  0  1  0  0  0  0  0  0  0  0  0
  190.5330  173.4060  140.5550 C   0  0  0  0  0  0  0  0  0  0  0  0
  190.0710  172.9260  139.3460 C   0  0  0  0  0  3  0  0  0  0  0  0
  190.5440  171.3100  137.4960 C   0  0  0  0  0  0  0  0  0  0  0  0
  190.8440  170.1100  137.2680 O   0  0  0  0  0  0  0  0  0  0  0  0
  189.8180  172.0410  136.5030 N   0  0  0  0  0  1  0  0  0  0  0  0
  191.0000  176.1280  147.7010 C   0  0  0  0  0  0  0  0  0  0  0  0
  191.7690  176.9760  148.2360 O   0  0  0  0  0  0  0  0  0  0  0  0
  189.5970  176.3760  147.6090 N   0  0  0  0  0  2  0  0  0  0  0  0
  191.5510  174.9640  147.0930 N   0  0  0  0  0  2  0  0  0  0  0  0
  189.0970  177.7270  147.3830 C   0  0  0  0  0  2  0  0  0  0  0  0
  187.5920  177.7450  147.5650 C   0  0  0  0  0  2  0  0  0  0  0  0
  186.9690  177.7570  146.3120 O   0  0  0  0  0  0  0  0  0  0  0  0
  185.8990  178.6430  146.4590 C   0  0  2  0  0  3  0  0  0  0  0  0
  185.4260  178.5890  147.7710 O   0  0  0  0  0  1  0  0  0  0  0  0
  184.7670  178.2820  145.4990 C   0  0  0  0  0  2  0  0  0  0  0  0
  185.5300  179.7070  143.5840 C   0  0  0  0  0  1  0  0  0  0  0  0
  184.3830  179.3970  144.5310 C   0  0  1  0  0  3  0  0  0  0  0  0
  183.2380  179.0560  143.8240 O   0  0  0  0  0  1  0  0  0  0  0  0
  188.2530  174.7700  143.6880 O   0  0  0  0  0  0  0  0  0  0  0  0
  188.9200  177.0690  142.7710 C   0  0  0  0  0  2  0  0  0  0  0  0
  187.9210  175.8950  142.9050 C   0  0  1  0  0  0  0  0  0  0  0  0
  188.3100  178.2870  142.0680 C   0  0  0  0  0  2  0  0  0  0  0  0
  186.8420  175.6880  141.8430 C   0  0  1  0  0  3  0  0  0  0  0  0
  186.4930  176.3090  143.1880 C   0  0  0  0  0  2  0  0  0  0  0  0
  186.8990  176.7250  140.7400 C   0  0  0  0  0  3  0  0  0  0  0  0
  187.5780  177.8830  140.8230 C   0  0  0  0  0  3  0  0  0  0  0  0
  192.3290  175.4550  144.6870 C   0  0  0  0  0  2  0  0  0  0  0  0
  194.7900  175.9940  144.9770 C   0  0  0  0  0  0  0  0  0  0  0  0
  194.1930  174.3980  143.3290 C   0  0  0  0  0  2  0  0  0  0  0  0
  194.9510  176.5770  146.0770 O   0  0  0  0  0  0  0  0  0  0  0  0
  195.5830  176.2560  143.8020 C   0  0  0  0  0  0  0  0  0  0  0  0
  193.7750  174.9400  144.7000 C   0  0  2  0  0  3  0  0  0  0  0  0
  195.0690  175.4720  142.6570 C   0  0  1  0  0  3  0  0  0  0  0  0
  196.4840  177.1410  143.7280 O   0  0  0  0  0  0  0  0  0  0  0  0
  196.1120  174.8230  141.8140 C   0  0  0  0  0  3  0  0  0  0  0  0
  195.8520  174.7000  140.5120 C   0  0  0  0  0  3  0  0  0  0  0  0
  196.7130  171.5640  137.9160 C   0  0  0  0  0  0  0  0  0  0  0  0
  197.0180  172.5710  140.1000 C   0  0  0  0  0  2  0  0  0  0  0  0
  194.2140  171.2330  136.1730 C   0  0  0  0  0  3  0  0  0  0  0  0
  195.0430  170.3090  135.6860 C   0  0  0  0  0  3  0  0  0  0  0  0
  197.3400  171.6020  139.0540 N   0  0  0  0  0  0  0  0  0  0  0  0
  195.9970  173.9940  138.1810 C   0  0  0  0  0  2  0  0  0  0  0  0
  196.7360  173.9790  139.5400 C   0  0  1  0  0  0  0  0  0  0  0  0
  196.5300  170.4580  135.7030 C   0  0  1  0  0  3  0  0  0  0  0  0
  197.9390  174.6620  139.3840 O   0  0  0  0  0  1  0  0  0  0  0  0
  195.7320  172.6320  137.6110 C   0  0  0  0  0  0  0  0  0  0  0  0
  194.6360  172.4730  136.8560 C   0  0  0  0  0  3  0  0  0  0  0  0
  197.0090  170.5180  137.0360 O   0  0  0  0  0  0  0  0  0  0  0  0
  197.1810  169.2910  134.9660 C   0  0  0  0  0  2  0  0  0  0  0  0
  196.3660  168.1660  135.0200 F   0  0  0  0  0  0  0  0  0  0  0  0
  1 40  1  6  0  0  0
  1 22  1  0  0  0  0
  3  2  1  6  0  0  0
  3  1  1  0  0  0  0
  4  6  1  0  0  0  0
  5  3  1  0  0  0  0
  5  1  1  0  0  0  0
  6  7  1  0  0  0  0
  6  2  1  0  0  0  0
  7  5  1  0  0  0  0
  8 13  1  0  0  0  0
  9 13  1  0  0  0  0
 10 12  2  0  0  0  0
 11 15  2  0  0  0  0
 11 10  1  0  0  0  0
 12  9  1  0  0  0  0
 13  6  1  0  0  0  0
 14  9  2  0  0  0  0
 14 13  1  0  0  0  0
 15 14  1  0  0  0  0
 16 11  1  0  0  0  0
 17 16  2  0  0  0  0
 18 16  1  0  0  0  0
 19 20  2  0  0  0  0
 21 19  1  0  0  0  0
 22 19  1  0  0  0  0
 23 24  1  0  0  0  0
 23 21  1  0  0  0  0
 25 26  1  0  0  0  0
 25 24  1  0  0  0  0
 26 27  1  0  0  0  0
 28 26  1  0  0  0  0
 29 30  1  0  0  0  0
 30 28  1  0  0  0  0
 31 30  1  0  0  0  0
 32  7  1  0  0  0  0
 33 34  1  0  0  0  0
 34 37  1  0  0  0  0
 34 32  1  0  0  0  0
 35 33  1  0  0  0  0
 36 34  1  0  0  0  0
 36 37  1  0  0  0  0
 38 39  2  0  0  0  0
 38 36  1  0  0  0  0
 39 35  1  0  0  0  0
 40 45  1  0  0  0  0
 41 43  2  0  0  0  0
 42 45  1  0  0  0  0
 44 41  1  0  0  0  0
 45 41  1  0  0  0  0
 46 42  1  0  0  0  0
 46 44  1  0  0  0  0
 47 44  2  0  0  0  0
 48 46  1  0  0  0  0
 49 48  2  0  0  0  0
 50 54  2  0  0  0  0
 52 60  1  0  0  0  0
 53 57  1  0  0  0  0
 53 52  2  0  0  0  0
 54 51  1  0  0  0  0
 55 56  1  0  0  0  0
 56 51  1  0  0  0  0
 56 49  1  0  0  0  0
 57 61  1  0  0  0  0
 58 56  1  0  0  0  0
 59 50  1  0  0  0  0
 59 55  1  0  0  0  0
 60 59  2  0  0  0  0
 61 50  1  0  0  0  0
 62 63  1  0  0  0  0
 62 57  1  0  0  0  0
M  END
>  <MODEL>
8

>  <REMARK>
 VINA RESULT:      -5.5      3.506     10.829
  Name = 
  16 active torsions:
  status: ('A' for Active; 'I' for Inactive)
    1  A    between atoms: C_4  and  C_23
    2  A    between atoms: C_4  and  N_53
    3  A    between atoms: C_9  and  C_39
    4  A    between atoms: C_10  and  O_42
    5  A    between atoms: O_12  and  C_22
    6  A    between atoms: O_12  and  C_27
    7  A    between atoms: C_15  and  C_22
    8  A    between atoms: C_15  and  N_40
    9  A    between atoms: C_20  and  C_47
   10  A    between atoms: C_23  and  C_50
   11  A    between atoms: C_25  and  C_52
   12  A    between atoms: C_26  and  C_45
   13  A    between atoms: C_27  and  C_62
   14  A    between atoms: C_38  and  C_62
   15  A    between atoms: O_42  and  C_46
   16  A    between atoms: C_44  and  C_51
                            x       y       z     vdW  Elec       q    Type
                         _______ _______ _______ _____ _____    ______ ____

>  <TORSDO>
F 16

$$$$
=
 OpenBabel11072409353D

 63 71  0  0  1  0  0  0  0  0999 V2000
  194.1620  173.3840  140.4320 C   0  0  1  0  0  0  0  0  0  0  0  0
  196.2130  171.9520  140.5170 C   0  0  0  0  0  2  0  0  0  0  0  0
  195.6160  173.3060  140.2490 C   0  0  2  0  0  3  0  0  0  0  0  0
  197.7420  171.9820  142.4350 C   0  0  0  0  0  1  0  0  0  0  0  0
  195.0630  173.8610  141.5110 N   0  0  2  0  0  0  0  0  0  0  0  0
  196.2830  171.7710  142.0180 C   0  0  1  0  0  0  0  0  0  0  0  0
  195.3530  172.8830  142.5710 C   0  0  1  0  0  3  0  0  0  0  0  0
  194.9630  169.6390  141.5570 O   0  0  0  0  0  1  0  0  0  0  0  0
  196.6360  169.5100  143.1540 C   0  0  0  0  0  0  0  0  0  0  0  0
  197.2180  168.5080  145.1130 C   0  0  0  0  0  3  0  0  0  0  0  0
  196.0620  169.1090  145.7850 C   0  0  0  0  0  0  0  0  0  0  0  0
  197.5500  168.6870  143.7340 C   0  0  0  0  0  3  0  0  0  0  0  0
  195.7990  170.3360  142.4310 C   0  0  1  0  0  0  0  0  0  0  0  0
  195.4470  170.1360  143.7740 C   0  0  0  0  0  0  0  0  0  0  0  0
  195.1160  169.9290  145.0980 C   0  0  0  0  0  3  0  0  0  0  0  0
  195.8690  168.8600  147.2300 C   0  0  0  0  0  0  0  0  0  0  0  0
  196.8530  168.8390  148.0140 O   0  0  0  0  0  0  0  0  0  0  0  0
  194.5600  168.6240  147.7580 N   0  0  0  0  0  1  0  0  0  0  0  0
  193.9090  174.4920  138.2200 C   0  0  0  0  0  0  0  0  0  0  0  0
  194.5330  175.4830  137.7460 O   0  0  0  0  0  0  0  0  0  0  0  0
  193.5950  173.3690  137.3960 N   0  0  0  0  0  2  0  0  0  0  0  0
  193.6090  174.4500  139.6120 N   0  0  0  0  0  2  0  0  0  0  0  0
  194.5150  172.9360  136.3520 C   0  0  0  0  0  2  0  0  0  0  0  0
  194.3660  171.4430  136.1350 C   0  0  0  0  0  2  0  0  0  0  0  0
  193.1500  171.1800  135.4980 O   0  0  0  0  0  0  0  0  0  0  0  0
  192.7430  169.9460  136.0090 C   0  0  2  0  0  3  0  0  0  0  0  0
  191.8270  169.3570  135.1340 O   0  0  0  0  0  1  0  0  0  0  0  0
  192.0900  170.1200  137.3790 C   0  0  0  0  0  2  0  0  0  0  0  0
  189.7120  169.7230  138.0590 C   0  0  0  0  0  1  0  0  0  0  0  0
  190.6630  170.6580  137.3330 C   0  0  1  0  0  3  0  0  0  0  0  0
  190.6050  171.9360  137.8710 O   0  0  0  0  0  1  0  0  0  0  0  0
  195.9110  173.5790  143.6680 O   0  0  0  0  0  0  0  0  0  0  0  0
  193.6910  173.3830  144.9350 C   0  0  0  0  0  2  0  0  0  0  0  0
  194.9080  174.2010  144.4410 C   0  0  1  0  0  0  0  0  0  0  0  0
  192.6060  174.2620  145.5680 C   0  0  0  0  0  2  0  0  0  0  0  0
  195.3100  175.4840  145.1670 C   0  0  1  0  0  3  0  0  0  0  0  0
  194.5650  175.5460  143.8410 C   0  0  0  0  0  2  0  0  0  0  0  0
  194.4040  175.8020  146.3390 C   0  0  0  0  0  3  0  0  0  0  0  0
  193.2000  175.2380  146.5410 C   0  0  0  0  0  3  0  0  0  0  0  0
  193.2870  172.1180  140.6590 C   0  0  0  0  0  2  0  0  0  0  0  0
  190.9350  171.5760  141.4410 C   0  0  0  0  0  0  0  0  0  0  0  0
  191.8280  173.6990  142.0040 C   0  0  0  0  0  2  0  0  0  0  0  0
  190.7560  170.3360  141.3570 O   0  0  0  0  0  0  0  0  0  0  0  0
  189.8980  172.5560  141.2430 C   0  0  0  0  0  0  0  0  0  0  0  0
  192.2290  172.2390  141.7650 C   0  0  2  0  0  3  0  0  0  0  0  0
  190.4680  173.9210  141.3160 C   0  0  1  0  0  3  0  0  0  0  0  0
  188.7110  172.2850  140.9020 O   0  0  0  0  0  0  0  0  0  0  0  0
  189.6600  174.9040  142.0920 C   0  0  0  0  0  3  0  0  0  0  0  0
  188.9100  175.7580  141.3960 C   0  0  0  0  0  3  0  0  0  0  0  0
  186.3510  177.3490  144.2660 C   0  0  0  0  0  0  0  0  0  0  0  0
  186.6370  176.4640  142.0270 C   0  0  0  0  0  2  0  0  0  0  0  0
  187.4670  176.4220  146.9650 C   0  0  0  0  0  3  0  0  0  0  0  0
  186.4170  177.1630  147.3150 C   0  0  0  0  0  3  0  0  0  0  0  0
  185.8780  177.1470  143.0720 N   0  0  0  0  0  0  0  0  0  0  0  0
  188.7370  177.1390  143.4000 C   0  0  0  0  0  2  0  0  0  0  0  0
  188.1220  176.8780  142.0050 C   0  0  1  0  0  0  0  0  0  0  0  0
  185.9330  178.3250  146.5080 C   0  0  1  0  0  3  0  0  0  0  0  0
  188.2660  178.0370  141.2470 O   0  0  0  0  0  1  0  0  0  0  0  0
  187.7660  177.0010  144.5350 C   0  0  0  0  0  0  0  0  0  0  0  0
  188.2410  176.5860  145.7170 C   0  0  0  0  0  3  0  0  0  0  0  0
  185.4970  177.8950  145.2290 O   0  0  0  0  0  0  0  0  0  0  0  0
  184.7950  179.0320  147.2390 C   0  0  0  0  0  2  0  0  0  0  0  0
  184.0770  178.1270  148.0130 F   0  0  0  0  0  0  0  0  0  0  0  0
  1 40  1  1  0  0  0
  1  5  1  0  0  0  0
  2  6  1  0  0  0  0
  3  1  1  0  0  0  0
  3  2  1  1  0  0  0
  3  5  1  0  0  0  0
  5  7  1  0  0  0  0
  6 13  1  0  0  0  0
  6  4  1  0  0  0  0
  6  7  1  0  0  0  0
  7 32  1  0  0  0  0
  8 13  1  0  0  0  0
  9 12  2  0  0  0  0
  9 14  1  0  0  0  0
 10 11  2  0  0  0  0
 11 16  1  0  0  0  0
 12 10  1  0  0  0  0
 13  9  1  0  0  0  0
 13 14  1  0  0  0  0
 14 15  2  3  0  0  0
 15 11  1  0  0  0  0
 16 18  1  0  0  0  0
 16 17  2  0  0  0  0
 19 22  1  0  0  0  0
 20 19  2  0  0  0  0
 21 19  1  0  0  0  0
 22  1  1  0  0  0  0
 23 21  1  0  0  0  0
 24 23  1  0  0  0  0
 25 26  1  0  0  0  0
 25 24  1  0  0  0  0
 26 28  1  0  0  0  0
 27 26  1  0  0  0  0
 30 28  1  0  0  0  0
 30 31  1  0  0  0  0
 30 29  1  0  0  0  0
 32 34  1  0  0  0  0
 33 35  1  0  0  0  0
 34 33  1  0  0  0  0
 34 36  1  0  0  0  0
 35 39  1  0  0  0  0
 36 38  1  0  0  0  0
 37 34  1  0  0  0  0
 37 36  1  0  0  0  0
 38 39  2  0  0  0  0
 40 45  1  0  0  0  0
 41 45  1  0  0  0  0
 43 41  2  0  0  0  0
 44 46  1  0  0  0  0
 44 41  1  0  0  0  0
 45 42  1  0  0  0  0
 46 42  1  0  0  0  0
 46 48  1  0  0  0  0
 47 44  2  0  0  0  0
 49 56  1  0  0  0  0
 49 48  2  0  0  0  0
 50 59  1  0  0  0  0
 50 61  1  0  0  0  0
 51 54  1  0  0  0  0
 52 53  2  0  0  0  0
 54 50  2  0  0  0  0
 55 59  1  0  0  0  0
 56 51  1  0  0  0  0
 56 55  1  0  0  0  0
 57 62  1  0  0  0  0
 57 53  1  0  0  0  0
 58 56  1  0  0  0  0
 59 60  2  0  0  0  0
 60 52  1  0  0  0  0
 61 57  1  0  0  0  0
 62 63  1  0  0  0  0
M  END
>  <MODEL>
9

>  <REMARK>
 VINA RESULT:      -5.4      2.320      4.614
  Name = 
  16 active torsions:
  status: ('A' for Active; 'I' for Inactive)
    1  A    between atoms: C_4  and  C_23
    2  A    between atoms: C_4  and  N_53
    3  A    between atoms: C_9  and  C_39
    4  A    between atoms: C_10  and  O_42
    5  A    between atoms: O_12  and  C_22
    6  A    between atoms: O_12  and  C_27
    7  A    between atoms: C_15  and  C_22
    8  A    between atoms: C_15  and  N_40
    9  A    between atoms: C_20  and  C_47
   10  A    between atoms: C_23  and  C_50
   11  A    between atoms: C_25  and  C_52
   12  A    between atoms: C_26  and  C_45
   13  A    between atoms: C_27  and  C_62
   14  A    between atoms: C_38  and  C_62
   15  A    between atoms: O_42  and  C_46
   16  A    between atoms: C_44  and  C_51
                            x       y       z     vdW  Elec       q    Type
                         _______ _______ _______ _____ _____    ______ ____

>  <TORSDO>
F 16

$$$$
