=
 OpenBabel11062421593D

 35 40  0  0  1  0  0  0  0  0999 V2000
  188.7440  173.5930  141.1560 N   0  0  0  0  0  1  0  0  0  0  0  0
  186.3840  178.1350  145.6390 C   0  0  1  0  0  3  0  0  0  0  0  0
  189.2160  175.2390  143.0480 C   0  0  0  0  0  0  0  0  0  0  0  0
  187.9990  175.5940  143.3310 N   0  0  0  0  0  0  0  0  0  0  0  0
  190.4520  175.6240  143.7990 C   0  0  2  0  0  3  0  0  0  0  0  0
  189.6030  174.2220  142.1030 C   0  0  0  0  0  0  0  0  0  0  0  0
  186.3160  177.4070  146.9740 C   0  0  0  0  0  2  0  0  0  0  0  0
  187.4580  176.4160  146.9580 C   0  0  0  0  0  2  0  0  0  0  0  0
  187.7450  177.8160  145.0080 C   0  0  2  0  0  3  0  0  0  0  0  0
  187.7800  176.4190  144.4400 N   0  0  0  0  0  0  0  0  0  0  0  0
  189.7630  176.7740  145.8550 N   0  0  0  0  0  2  0  0  0  0  0  0
  191.3770  174.6760  143.2670 O   0  0  0  0  0  0  0  0  0  0  0  0
  190.2450  175.4940  145.3210 C   0  0  2  0  0  3  0  0  0  0  0  0
  188.3000  176.8210  145.7740 C   0  0  2  0  0  0  0  0  0  0  0  0
  190.8410  173.9110  142.2510 N   0  0  0  0  0  0  0  0  0  0  0  0
  191.4800  175.0560  146.0980 C   0  0  1  0  0  3  0  0  0  0  0  0
  192.3220  176.2990  146.3400 C   0  0  1  0  0  3  0  0  0  0  0  0
  191.5120  175.7060  147.4720 C   0  0  0  0  0  2  0  0  0  0  0  0
  193.7820  175.9420  146.5290 C   0  0  0  0  0  2  0  0  0  0  0  0
  194.6110  176.9660  145.7760 C   0  0  0  0  0  2  0  0  0  0  0  0
  194.7320  176.6120  144.4040 O   0  0  0  0  0  0  0  0  0  0  0  0
  195.9550  176.2490  143.8310 C   0  0  0  0  0  0  0  0  0  0  0  0
  196.7650  177.1290  143.4280 O   0  0  0  0  0  0  0  0  0  0  0  0
  196.2530  174.8960  143.6830 O   0  0  0  0  0  0  0  0  0  0  0  0
  197.2300  174.2310  144.4740 C   0  0  0  0  0  2  0  0  0  0  0  0
  197.1540  173.5130  146.7430 O   0  0  0  0  0  1  0  0  0  0  0  0
  195.3250  172.9660  145.4670 O   0  0  0  0  0  0  0  0  0  0  0  0
  196.5720  173.5570  145.6260 C   0  0  0  0  0  0  0  0  0  0  0  0
  185.2080  177.7100  144.7670 C   0  0  2  0  0  3  0  0  0  0  0  0
  184.7600  178.8130  143.8780 C   0  0  2  0  0  3  0  0  0  0  0  0
  184.1040  178.5230  145.0970 O   0  0  0  0  0  0  0  0  0  0  0  0
  183.9850  178.2210  142.7020 C   0  0  0  0  0  2  0  0  0  0  0  0
  184.0980  178.3720  140.3140 O   0  0  0  0  0  0  0  0  0  0  0  0
  184.7240  178.3460  141.4090 C   0  0  0  0  0  0  0  0  0  0  0  0
  186.1100  178.3950  141.4090 O   0  0  0  0  0  1  0  0  0  0  0  0
  1  6  1  0  0  0  0
  2  7  1  1  0  0  0
  3  4  2  0  0  0  0
  4 10  1  0  0  0  0
  5  3  1  6  0  0  0
  5 13  1  0  0  0  0
  6 15  2  0  0  0  0
  6  3  1  0  0  0  0
  8  7  1  0  0  0  0
  9 10  1  6  0  0  0
  9  2  1  0  0  0  0
  9 14  1  0  0  0  0
 10 14  1  0  0  0  0
 12  5  1  0  0  0  0
 13 11  1  1  0  0  0
 13 16  1  0  0  0  0
 14 11  1  0  0  0  0
 14  8  1  1  0  0  0
 15 12  1  0  0  0  0
 16 17  1  0  0  0  0
 16 18  1  1  0  0  0
 17 19  1  1  0  0  0
 17 18  1  0  0  0  0
 20 19  1  0  0  0  0
 21 20  1  0  0  0  0
 22 21  1  0  0  0  0
 23 22  2  0  0  0  0
 24 22  1  0  0  0  0
 24 25  1  0  0  0  0
 25 28  1  0  0  0  0
 27 28  2  0  0  0  0
 28 26  1  0  0  0  0
 29 31  1  1  0  0  0
 29  2  1  0  0  0  0
 30 32  1  6  0  0  0
 30 29  1  0  0  0  0
 30 31  1  0  0  0  0
 33 34  2  0  0  0  0
 34 32  1  0  0  0  0
 35 34  1  0  0  0  0
M  END
>  <MODEL>
1

>  <REMARK>
 VINA RESULT:      -7.4      0.000      0.000
  Name = 
  11 active torsions:
  status: ('A' for Active; 'I' for Inactive)
    1  A    between atoms: C_2  and  C_23
    2  A    between atoms: C_3  and  C_18
    3  A    between atoms: C_3  and  O_24
    4  A    between atoms: C_4  and  C_15
    5  A    between atoms: O_5  and  C_29
    6  A    between atoms: O_5  and  C_30
    7  A    between atoms: C_6  and  C_31
    8  A    between atoms: C_20  and  C_22
    9  A    between atoms: C_20  and  C_33
   10  A    between atoms: O_24  and  C_30
   11  A    between atoms: C_29  and  C_31
                            x       y       z     vdW  Elec       q    Type
                         _______ _______ _______ _____ _____    ______ ____

>  <TORSDO>
F 11

$$$$
=
 OpenBabel11062421593D

 35 40  0  0  1  0  0  0  0  0999 V2000
  188.5990  173.6220  141.1150 N   0  0  0  0  0  1  0  0  0  0  0  0
  186.3130  178.1670  145.6330 C   0  0  1  0  0  3  0  0  0  0  0  0
  189.0990  175.2490  143.0160 C   0  0  0  0  0  0  0  0  0  0  0  0
  187.8870  175.6190  143.3040 N   0  0  0  0  0  0  0  0  0  0  0  0
  190.3410  175.6120  143.7650 C   0  0  2  0  0  3  0  0  0  0  0  0
  189.4690  174.2340  142.0630 C   0  0  0  0  0  0  0  0  0  0  0  0
  186.2380  177.4310  146.9640 C   0  0  0  0  0  2  0  0  0  0  0  0
  187.3670  176.4250  146.9380 C   0  0  0  0  0  2  0  0  0  0  0  0
  187.6680  177.8330  144.9960 C   0  0  2  0  0  3  0  0  0  0  0  0
  187.6820  176.4400  144.4190 N   0  0  0  0  0  0  0  0  0  0  0  0
  189.6740  176.7590  145.8310 N   0  0  0  0  0  2  0  0  0  0  0  0
  191.2520  174.6550  143.2250 O   0  0  0  0  0  0  0  0  0  0  0  0
  190.1370  175.4750  145.2880 C   0  0  2  0  0  3  0  0  0  0  0  0
  188.2120  176.8260  145.7540 C   0  0  2  0  0  0  0  0  0  0  0  0
  190.7030  173.9050  142.2060 N   0  0  0  0  0  0  0  0  0  0  0  0
  191.3680  175.0160  146.0580 C   0  0  1  0  0  3  0  0  0  0  0  0
  192.2370  176.2420  146.2890 C   0  0  1  0  0  3  0  0  0  0  0  0
  191.4230  175.6710  147.4290 C   0  0  0  0  0  2  0  0  0  0  0  0
  193.6900  175.8550  146.4690 C   0  0  0  0  0  2  0  0  0  0  0  0
  194.5290  176.8000  145.6280 C   0  0  0  0  0  2  0  0  0  0  0  0
  195.5760  176.0990  144.9690 O   0  0  0  0  0  0  0  0  0  0  0  0
  195.9000  176.3300  143.6280 C   0  0  0  0  0  0  0  0  0  0  0  0
  196.8730  177.0720  143.3180 O   0  0  0  0  0  0  0  0  0  0  0  0
  195.1110  175.7510  142.6360 O   0  0  0  0  0  0  0  0  0  0  0  0
  194.8650  176.3790  141.3850 C   0  0  0  0  0  2  0  0  0  0  0  0
  195.0070  174.8670  139.5510 O   0  0  0  0  0  0  0  0  0  0  0  0
  196.9750  175.8840  140.1540 O   0  0  0  0  0  1  0  0  0  0  0  0
  195.6120  175.6710  140.3100 C   0  0  0  0  0  0  0  0  0  0  0  0
  185.1290  177.7630  144.7620 C   0  0  2  0  0  3  0  0  0  0  0  0
  184.7770  178.8310  143.7910 C   0  0  2  0  0  3  0  0  0  0  0  0
  184.0780  178.6700  145.0080 O   0  0  0  0  0  0  0  0  0  0  0  0
  183.9880  178.2140  142.6370 C   0  0  0  0  0  2  0  0  0  0  0  0
  184.0870  178.6630  140.2850 O   0  0  0  0  0  0  0  0  0  0  0  0
  184.7060  178.3210  141.3310 C   0  0  0  0  0  0  0  0  0  0  0  0
  186.0540  178.0050  141.2570 O   0  0  0  0  0  1  0  0  0  0  0  0
  1  6  1  0  0  0  0
  2  7  1  1  0  0  0
  3  4  2  0  0  0  0
  4 10  1  0  0  0  0
  5  3  1  6  0  0  0
  5 13  1  0  0  0  0
  6 15  2  0  0  0  0
  6  3  1  0  0  0  0
  8  7  1  0  0  0  0
  9 10  1  6  0  0  0
  9  2  1  0  0  0  0
  9 14  1  0  0  0  0
 10 14  1  0  0  0  0
 12  5  1  0  0  0  0
 13 11  1  1  0  0  0
 13 16  1  0  0  0  0
 14 11  1  0  0  0  0
 14  8  1  1  0  0  0
 15 12  1  0  0  0  0
 16 17  1  0  0  0  0
 16 18  1  1  0  0  0
 17 19  1  1  0  0  0
 17 18  1  0  0  0  0
 20 19  1  0  0  0  0
 21 20  1  0  0  0  0
 22 21  1  0  0  0  0
 23 22  2  0  0  0  0
 24 22  1  0  0  0  0
 25 24  1  0  0  0  0
 26 28  2  0  0  0  0
 27 28  1  0  0  0  0
 28 25  1  0  0  0  0
 29 31  1  1  0  0  0
 29  2  1  0  0  0  0
 30 32  1  6  0  0  0
 30 29  1  0  0  0  0
 30 31  1  0  0  0  0
 33 34  2  0  0  0  0
 34 32  1  0  0  0  0
 35 34  1  0  0  0  0
M  END
>  <MODEL>
2

>  <REMARK>
 VINA RESULT:      -7.1      1.266      2.112
  Name = 
  11 active torsions:
  status: ('A' for Active; 'I' for Inactive)
    1  A    between atoms: C_2  and  C_23
    2  A    between atoms: C_3  and  C_18
    3  A    between atoms: C_3  and  O_24
    4  A    between atoms: C_4  and  C_15
    5  A    between atoms: O_5  and  C_29
    6  A    between atoms: O_5  and  C_30
    7  A    between atoms: C_6  and  C_31
    8  A    between atoms: C_20  and  C_22
    9  A    between atoms: C_20  and  C_33
   10  A    between atoms: O_24  and  C_30
   11  A    between atoms: C_29  and  C_31
                            x       y       z     vdW  Elec       q    Type
                         _______ _______ _______ _____ _____    ______ ____

>  <TORSDO>
F 11

$$$$
=
 OpenBabel11062421593D

 35 40  0  0  1  0  0  0  0  0999 V2000
  191.2650  173.2540  138.5640 N   0  0  0  0  0  1  0  0  0  0  0  0
  192.6860  175.5360  144.8140 C   0  0  1  0  0  3  0  0  0  0  0  0
  190.4550  173.8180  140.9170 C   0  0  0  0  0  0  0  0  0  0  0  0
  191.5510  174.3130  141.4070 N   0  0  0  0  0  0  0  0  0  0  0  0
  189.1150  173.7920  141.5820 C   0  0  2  0  0  3  0  0  0  0  0  0
  190.2500  173.4040  139.5520 C   0  0  0  0  0  0  0  0  0  0  0  0
  192.2010  176.9780  144.8520 C   0  0  0  0  0  2  0  0  0  0  0  0
  190.9910  177.0260  143.9470 C   0  0  0  0  0  2  0  0  0  0  0  0
  191.5760  174.6910  144.1760 C   0  0  2  0  0  3  0  0  0  0  0  0
  191.5170  174.8890  142.6820 N   0  0  0  0  0  0  0  0  0  0  0  0
  189.2580  175.1410  143.6280 N   0  0  0  0  0  2  0  0  0  0  0  0
  188.2820  173.4840  140.4640 O   0  0  0  0  0  0  0  0  0  0  0  0
  188.7890  175.1490  142.2360 C   0  0  2  0  0  3  0  0  0  0  0  0
  190.6550  175.5800  143.6780 C   0  0  2  0  0  0  0  0  0  0  0  0
  188.9990  173.2260  139.3130 N   0  0  0  0  0  0  0  0  0  0  0  0
  187.3160  175.5360  142.2020 C   0  0  1  0  0  3  0  0  0  0  0  0
  187.2110  176.9510  142.7500 C   0  0  1  0  0  3  0  0  0  0  0  0
  187.0890  176.7100  141.2610 C   0  0  0  0  0  2  0  0  0  0  0  0
  185.8360  177.2110  143.3300 C   0  0  0  0  0  2  0  0  0  0  0  0
  186.0130  178.0350  144.5920 C   0  0  0  0  0  2  0  0  0  0  0  0
  185.5000  177.3450  145.7250 O   0  0  0  0  0  0  0  0  0  0  0  0
  186.3240  176.9000  146.7640 C   0  0  0  0  0  0  0  0  0  0  0  0
  186.0190  177.1250  147.9690 O   0  0  0  0  0  0  0  0  0  0  0  0
  187.5040  176.2320  146.4470 O   0  0  0  0  0  0  0  0  0  0  0  0
  188.7800  176.6670  146.8990 C   0  0  0  0  0  2  0  0  0  0  0  0
  190.7320  175.6550  147.8120 O   0  0  0  0  0  1  0  0  0  0  0  0
  189.2000  174.2100  146.8990 O   0  0  0  0  0  0  0  0  0  0  0  0
  189.6250  175.4890  147.2350 C   0  0  0  0  0  0  0  0  0  0  0  0
  194.0040  175.4620  144.0510 C   0  0  2  0  0  3  0  0  0  0  0  0
  195.1510  175.2290  144.9660 C   0  0  2  0  0  3  0  0  0  0  0  0
  194.8240  176.5210  144.4930 O   0  0  0  0  0  0  0  0  0  0  0  0
  196.3170  174.6490  144.1660 C   0  0  0  0  0  2  0  0  0  0  0  0
  197.8130  172.7890  144.3660 O   0  0  0  0  0  0  0  0  0  0  0  0
  197.1160  173.6610  144.9520 C   0  0  0  0  0  0  0  0  0  0  0  0
  197.0600  173.6770  146.3380 O   0  0  0  0  0  1  0  0  0  0  0  0
  1  6  1  0  0  0  0
  2  7  1  6  0  0  0
  3  4  2  0  0  0  0
  3  5  1  0  0  0  0
  4 10  1  0  0  0  0
  5 12  1  6  0  0  0
  5 13  1  0  0  0  0
  6  3  1  0  0  0  0
  8  7  1  0  0  0  0
  9 10  1  6  0  0  0
  9  2  1  0  0  0  0
 10 14  1  0  0  0  0
 11 14  1  0  0  0  0
 13 11  1  1  0  0  0
 14  8  1  1  0  0  0
 14  9  1  0  0  0  0
 15  6  2  0  0  0  0
 15 12  1  0  0  0  0
 16 18  1  6  0  0  0
 16 13  1  0  0  0  0
 16 17  1  0  0  0  0
 17 19  1  1  0  0  0
 18 17  1  0  0  0  0
 19 20  1  0  0  0  0
 20 21  1  0  0  0  0
 21 22  1  0  0  0  0
 22 23  2  0  0  0  0
 24 22  1  0  0  0  0
 24 25  1  0  0  0  0
 25 28  1  0  0  0  0
 27 28  2  0  0  0  0
 28 26  1  0  0  0  0
 29 31  1  1  0  0  0
 29  2  1  0  0  0  0
 29 30  1  0  0  0  0
 30 32  1  6  0  0  0
 31 30  1  0  0  0  0
 32 34  1  0  0  0  0
 33 34  2  0  0  0  0
 34 35  1  0  0  0  0
M  END
>  <MODEL>
3

>  <REMARK>
 VINA RESULT:      -6.9      2.283      8.060
  Name = 
  11 active torsions:
  status: ('A' for Active; 'I' for Inactive)
    1  A    between atoms: C_2  and  C_23
    2  A    between atoms: C_3  and  C_18
    3  A    between atoms: C_3  and  O_24
    4  A    between atoms: C_4  and  C_15
    5  A    between atoms: O_5  and  C_29
    6  A    between atoms: O_5  and  C_30
    7  A    between atoms: C_6  and  C_31
    8  A    between atoms: C_20  and  C_22
    9  A    between atoms: C_20  and  C_33
   10  A    between atoms: O_24  and  C_30
   11  A    between atoms: C_29  and  C_31
                            x       y       z     vdW  Elec       q    Type
                         _______ _______ _______ _____ _____    ______ ____

>  <TORSDO>
F 11

$$$$
=
 OpenBabel11062421593D

 35 40  0  0  1  0  0  0  0  0999 V2000
  191.4920  173.2160  138.8920 N   0  0  0  0  0  1  0  0  0  0  0  0
  192.7170  175.5820  145.1520 C   0  0  1  0  0  3  0  0  0  0  0  0
  190.6070  173.8160  141.2080 C   0  0  0  0  0  0  0  0  0  0  0  0
  191.6890  174.3150  141.7270 N   0  0  0  0  0  0  0  0  0  0  0  0
  189.2470  173.8040  141.8300 C   0  0  2  0  0  3  0  0  0  0  0  0
  190.4460  173.3840  139.8430 C   0  0  0  0  0  0  0  0  0  0  0  0
  192.2370  177.0260  145.1540 C   0  0  0  0  0  2  0  0  0  0  0  0
  191.0560  177.0660  144.2090 C   0  0  0  0  0  2  0  0  0  0  0  0
  191.6250  174.7320  144.4910 C   0  0  2  0  0  3  0  0  0  0  0  0
  191.6160  174.9090  142.9920 N   0  0  0  0  0  0  0  0  0  0  0  0
  189.3280  175.1820  143.8600 N   0  0  0  0  0  2  0  0  0  0  0  0
  188.4500  173.4820  140.6900 O   0  0  0  0  0  0  0  0  0  0  0  0
  188.9040  175.1710  142.4540 C   0  0  2  0  0  3  0  0  0  0  0  0
  190.7240  175.6170  143.9500 C   0  0  2  0  0  0  0  0  0  0  0  0
  189.2030  173.2060  139.5670 N   0  0  0  0  0  0  0  0  0  0  0  0
  187.4350  175.5620  142.3670 C   0  0  1  0  0  3  0  0  0  0  0  0
  187.3320  177.0190  142.7910 C   0  0  1  0  0  3  0  0  0  0  0  0
  187.2280  176.6520  141.3270 C   0  0  0  0  0  2  0  0  0  0  0  0
  185.9510  177.3350  143.3270 C   0  0  0  0  0  2  0  0  0  0  0  0
  185.8560  178.8390  143.5050 C   0  0  0  0  0  2  0  0  0  0  0  0
  185.8310  179.1860  144.8840 O   0  0  0  0  0  0  0  0  0  0  0  0
  184.9240  178.6140  145.7820 C   0  0  0  0  0  0  0  0  0  0  0  0
  183.6970  178.9070  145.7340 O   0  0  0  0  0  0  0  0  0  0  0  0
  185.4030  177.7380  146.7540 O   0  0  0  0  0  0  0  0  0  0  0  0
  186.5870  177.9880  147.5000 C   0  0  0  0  0  2  0  0  0  0  0  0
  187.5170  175.9950  146.5890 O   0  0  0  0  0  0  0  0  0  0  0  0
  188.9750  177.7530  146.8250 O   0  0  0  0  0  1  0  0  0  0  0  0
  187.7110  177.1890  146.9420 C   0  0  0  0  0  0  0  0  0  0  0  0
  194.0590  175.4940  144.4340 C   0  0  2  0  0  3  0  0  0  0  0  0
  195.1820  175.3370  145.3930 C   0  0  2  0  0  3  0  0  0  0  0  0
  194.8440  176.5930  144.8380 O   0  0  0  0  0  0  0  0  0  0  0  0
  196.3820  174.7380  144.6620 C   0  0  0  0  0  2  0  0  0  0  0  0
  196.8830  172.3970  144.5700 O   0  0  0  0  0  0  0  0  0  0  0  0
  196.8350  173.4490  145.2660 C   0  0  0  0  0  0  0  0  0  0  0  0
  197.1670  173.3970  146.6120 O   0  0  0  0  0  1  0  0  0  0  0  0
  1  6  1  0  0  0  0
  2  7  1  6  0  0  0
  3  4  2  0  0  0  0
  3  5  1  0  0  0  0
  4 10  1  0  0  0  0
  5 12  1  6  0  0  0
  5 13  1  0  0  0  0
  6  3  1  0  0  0  0
  8  7  1  0  0  0  0
  9 10  1  6  0  0  0
  9  2  1  0  0  0  0
 10 14  1  0  0  0  0
 11 14  1  0  0  0  0
 13 11  1  1  0  0  0
 14  8  1  1  0  0  0
 14  9  1  0  0  0  0
 15  6  2  0  0  0  0
 15 12  1  0  0  0  0
 16 18  1  6  0  0  0
 16 13  1  0  0  0  0
 16 17  1  0  0  0  0
 17 19  1  1  0  0  0
 18 17  1  0  0  0  0
 19 20  1  0  0  0  0
 20 21  1  0  0  0  0
 21 22  1  0  0  0  0
 22 24  1  0  0  0  0
 23 22  2  0  0  0  0
 24 25  1  0  0  0  0
 26 28  2  0  0  0  0
 27 28  1  0  0  0  0
 28 25  1  0  0  0  0
 29 31  1  1  0  0  0
 29  2  1  0  0  0  0
 29 30  1  0  0  0  0
 30 32  1  6  0  0  0
 31 30  1  0  0  0  0
 32 34  1  0  0  0  0
 33 34  2  0  0  0  0
 34 35  1  0  0  0  0
M  END
>  <MODEL>
4

>  <REMARK>
 VINA RESULT:      -6.8      2.076      8.519
  Name = 
  11 active torsions:
  status: ('A' for Active; 'I' for Inactive)
    1  A    between atoms: C_2  and  C_23
    2  A    between atoms: C_3  and  C_18
    3  A    between atoms: C_3  and  O_24
    4  A    between atoms: C_4  and  C_15
    5  A    between atoms: O_5  and  C_29
    6  A    between atoms: O_5  and  C_30
    7  A    between atoms: C_6  and  C_31
    8  A    between atoms: C_20  and  C_22
    9  A    between atoms: C_20  and  C_33
   10  A    between atoms: O_24  and  C_30
   11  A    between atoms: C_29  and  C_31
                            x       y       z     vdW  Elec       q    Type
                         _______ _______ _______ _____ _____    ______ ____

>  <TORSDO>
F 11

$$$$
=
 OpenBabel11062421593D

 35 40  0  0  1  0  0  0  0  0999 V2000
  191.4080  171.4270  140.5980 N   0  0  0  0  0  1  0  0  0  0  0  0
  194.1730  174.8690  145.7740 C   0  0  1  0  0  3  0  0  0  0  0  0
  191.0860  172.7710  142.7420 C   0  0  0  0  0  0  0  0  0  0  0  0
  192.3210  173.1000  142.9760 N   0  0  0  0  0  0  0  0  0  0  0  0
  189.8830  173.2460  143.4940 C   0  0  2  0  0  3  0  0  0  0  0  0
  190.6020  172.0730  141.5780 C   0  0  0  0  0  0  0  0  0  0  0  0
  194.0090  176.3430  145.4310 C   0  0  0  0  0  2  0  0  0  0  0  0
  192.7160  176.4400  144.6520 C   0  0  0  0  0  2  0  0  0  0  0  0
  192.8290  174.1790  145.5040 C   0  0  2  0  0  3  0  0  0  0  0  0
  192.5950  173.9830  144.0260 N   0  0  0  0  0  0  0  0  0  0  0  0
  190.6010  175.0130  145.0390 N   0  0  0  0  0  2  0  0  0  0  0  0
  188.8490  172.8630  142.5860 O   0  0  0  0  0  0  0  0  0  0  0  0
  189.9450  174.7650  143.7490 C   0  0  2  0  0  3  0  0  0  0  0  0
  192.0510  175.0990  144.8450 C   0  0  2  0  0  0  0  0  0  0  0  0
  189.3210  172.1450  141.5060 N   0  0  0  0  0  0  0  0  0  0  0  0
  188.5960  175.4720  143.7240 C   0  0  1  0  0  3  0  0  0  0  0  0
  188.8450  176.8970  143.2550 C   0  0  1  0  0  3  0  0  0  0  0  0
  188.2320  175.8890  142.3070 C   0  0  0  0  0  2  0  0  0  0  0  0
  187.7660  177.8330  143.7570 C   0  0  0  0  0  2  0  0  0  0  0  0
  187.0520  178.4090  142.5480 C   0  0  0  0  0  2  0  0  0  0  0  0
  186.0360  179.3220  142.9440 O   0  0  0  0  0  0  0  0  0  0  0  0
  184.8610  178.9030  143.5760 C   0  0  0  0  0  0  0  0  0  0  0  0
  184.0970  178.0610  143.0260 O   0  0  0  0  0  0  0  0  0  0  0  0
  184.5290  179.4540  144.8120 O   0  0  0  0  0  0  0  0  0  0  0  0
  183.9720  178.6880  145.8720 C   0  0  0  0  0  2  0  0  0  0  0  0
  185.7790  178.6860  147.4220 O   0  0  0  0  0  1  0  0  0  0  0  0
  185.2920  176.6570  146.4620 O   0  0  0  0  0  0  0  0  0  0  0  0
  185.0600  178.0160  146.6330 C   0  0  0  0  0  0  0  0  0  0  0  0
  195.3200  174.2810  144.9610 C   0  0  2  0  0  3  0  0  0  0  0  0
  196.3690  173.7000  145.8380 C   0  0  2  0  0  3  0  0  0  0  0  0
  196.4930  174.9940  145.2830 O   0  0  0  0  0  0  0  0  0  0  0  0
  197.1900  172.6940  145.0340 C   0  0  0  0  0  2  0  0  0  0  0  0
  197.8600  170.4090  145.2940 O   0  0  0  0  0  0  0  0  0  0  0  0
  196.9740  171.2870  145.4870 C   0  0  0  0  0  0  0  0  0  0  0  0
  195.7750  170.9320  146.0870 O   0  0  0  0  0  1  0  0  0  0  0  0
  1  6  1  0  0  0  0
  2  7  1  6  0  0  0
  3  4  2  0  0  0  0
  3  5  1  0  0  0  0
  4 10  1  0  0  0  0
  5 12  1  6  0  0  0
  5 13  1  0  0  0  0
  6  3  1  0  0  0  0
  8  7  1  0  0  0  0
  9 10  1  6  0  0  0
  9  2  1  0  0  0  0
 10 14  1  0  0  0  0
 13 11  1  1  0  0  0
 14  8  1  6  0  0  0
 14 11  1  0  0  0  0
 14  9  1  0  0  0  0
 15  6  2  0  0  0  0
 15 12  1  0  0  0  0
 16 18  1  6  0  0  0
 16 13  1  0  0  0  0
 17 16  1  0  0  0  0
 17 19  1  1  0  0  0
 18 17  1  0  0  0  0
 20 21  1  0  0  0  0
 20 19  1  0  0  0  0
 21 22  1  0  0  0  0
 22 24  1  0  0  0  0
 23 22  2  0  0  0  0
 24 25  1  0  0  0  0
 25 28  1  0  0  0  0
 27 28  2  0  0  0  0
 28 26  1  0  0  0  0
 29 31  1  1  0  0  0
 29  2  1  0  0  0  0
 29 30  1  0  0  0  0
 30 32  1  6  0  0  0
 31 30  1  0  0  0  0
 32 34  1  0  0  0  0
 33 34  2  0  0  0  0
 34 35  1  0  0  0  0
M  END
>  <MODEL>
5

>  <REMARK>
 VINA RESULT:      -6.8      2.005      9.268
  Name = 
  11 active torsions:
  status: ('A' for Active; 'I' for Inactive)
    1  A    between atoms: C_2  and  C_23
    2  A    between atoms: C_3  and  C_18
    3  A    between atoms: C_3  and  O_24
    4  A    between atoms: C_4  and  C_15
    5  A    between atoms: O_5  and  C_29
    6  A    between atoms: O_5  and  C_30
    7  A    between atoms: C_6  and  C_31
    8  A    between atoms: C_20  and  C_22
    9  A    between atoms: C_20  and  C_33
   10  A    between atoms: O_24  and  C_30
   11  A    between atoms: C_29  and  C_31
                            x       y       z     vdW  Elec       q    Type
                         _______ _______ _______ _____ _____    ______ ____

>  <TORSDO>
F 11

$$$$
=
 OpenBabel11062421593D

 35 40  0  0  1  0  0  0  0  0999 V2000
  191.2700  172.8680  138.5660 N   0  0  0  0  0  1  0  0  0  0  0  0
  192.5110  175.6880  144.6320 C   0  0  1  0  0  3  0  0  0  0  0  0
  190.3710  173.7730  140.7750 C   0  0  0  0  0  0  0  0  0  0  0  0
  191.4790  174.2080  141.2950 N   0  0  0  0  0  0  0  0  0  0  0  0
  188.9950  173.9570  141.3330 C   0  0  2  0  0  3  0  0  0  0  0  0
  190.2130  173.2310  139.4500 C   0  0  0  0  0  0  0  0  0  0  0  0
  192.1840  177.1660  144.4800 C   0  0  0  0  0  2  0  0  0  0  0  0
  191.0480  177.2330  143.4830 C   0  0  0  0  0  2  0  0  0  0  0  0
  191.3600  174.8920  144.0030 C   0  0  2  0  0  3  0  0  0  0  0  0
  191.4230  174.9250  142.4960 N   0  0  0  0  0  0  0  0  0  0  0  0
  189.1470  175.5080  143.2300 N   0  0  0  0  0  2  0  0  0  0  0  0
  188.2100  173.6100  140.1930 O   0  0  0  0  0  0  0  0  0  0  0  0
  188.7750  175.4060  141.8130 C   0  0  2  0  0  3  0  0  0  0  0  0
  190.5770  175.8070  143.3430 C   0  0  2  0  0  0  0  0  0  0  0  0
  188.9700  173.1530  139.1350 N   0  0  0  0  0  0  0  0  0  0  0  0
  187.3580  175.9320  141.6230 C   0  0  1  0  0  3  0  0  0  0  0  0
  187.4160  177.4440  141.7810 C   0  0  1  0  0  3  0  0  0  0  0  0
  187.2780  176.8350  140.4020 C   0  0  0  0  0  2  0  0  0  0  0  0
  186.0770  177.9980  142.2200 C   0  0  0  0  0  2  0  0  0  0  0  0
  186.3050  178.8170  143.4770 C   0  0  0  0  0  2  0  0  0  0  0  0
  187.3960  178.3010  144.2290 O   0  0  0  0  0  0  0  0  0  0  0  0
  187.2110  177.5010  145.3610 C   0  0  0  0  0  0  0  0  0  0  0  0
  188.0830  177.4660  146.2750 O   0  0  0  0  0  0  0  0  0  0  0  0
  186.0630  176.7180  145.4520 O   0  0  0  0  0  0  0  0  0  0  0  0
  185.1010  176.8780  146.4870 C   0  0  0  0  0  2  0  0  0  0  0  0
  183.9580  178.8990  145.9580 O   0  0  0  0  0  0  0  0  0  0  0  0
  185.4910  179.0420  147.6620 O   0  0  0  0  0  1  0  0  0  0  0  0
  184.8120  178.3240  146.6860 C   0  0  0  0  0  0  0  0  0  0  0  0
  193.8610  175.3960  143.9870 C   0  0  2  0  0  3  0  0  0  0  0  0
  194.9290  175.2330  145.0060 C   0  0  2  0  0  3  0  0  0  0  0  0
  194.7370  176.4510  144.3150 O   0  0  0  0  0  0  0  0  0  0  0  0
  196.0870  174.4480  144.3920 C   0  0  0  0  0  2  0  0  0  0  0  0
  196.4740  172.1600  144.9900 O   0  0  0  0  0  0  0  0  0  0  0  0
  196.5980  173.3770  145.3010 C   0  0  0  0  0  0  0  0  0  0  0  0
  197.1770  173.7200  146.5130 O   0  0  0  0  0  1  0  0  0  0  0  0
  1  6  1  0  0  0  0
  2  7  1  6  0  0  0
  3  4  2  0  0  0  0
  3  5  1  0  0  0  0
  4 10  1  0  0  0  0
  5 12  1  6  0  0  0
  5 13  1  0  0  0  0
  6  3  1  0  0  0  0
  8  7  1  0  0  0  0
  9 10  1  6  0  0  0
  9  2  1  0  0  0  0
 10 14  1  0  0  0  0
 11 14  1  0  0  0  0
 13 11  1  1  0  0  0
 14  8  1  1  0  0  0
 14  9  1  0  0  0  0
 15  6  2  0  0  0  0
 15 12  1  0  0  0  0
 16 18  1  6  0  0  0
 16 17  1  0  0  0  0
 16 13  1  0  0  0  0
 17 19  1  1  0  0  0
 18 17  1  0  0  0  0
 19 20  1  0  0  0  0
 20 21  1  0  0  0  0
 21 22  1  0  0  0  0
 22 24  1  0  0  0  0
 22 23  2  0  0  0  0
 24 25  1  0  0  0  0
 25 28  1  0  0  0  0
 26 28  2  0  0  0  0
 28 27  1  0  0  0  0
 29 31  1  6  0  0  0
 29  2  1  0  0  0  0
 29 30  1  0  0  0  0
 30 32  1  6  0  0  0
 31 30  1  0  0  0  0
 32 34  1  0  0  0  0
 33 34  2  0  0  0  0
 34 35  1  0  0  0  0
M  END
>  <MODEL>
6

>  <REMARK>
 VINA RESULT:      -6.7      2.144      8.675
  Name = 
  11 active torsions:
  status: ('A' for Active; 'I' for Inactive)
    1  A    between atoms: C_2  and  C_23
    2  A    between atoms: C_3  and  C_18
    3  A    between atoms: C_3  and  O_24
    4  A    between atoms: C_4  and  C_15
    5  A    between atoms: O_5  and  C_29
    6  A    between atoms: O_5  and  C_30
    7  A    between atoms: C_6  and  C_31
    8  A    between atoms: C_20  and  C_22
    9  A    between atoms: C_20  and  C_33
   10  A    between atoms: O_24  and  C_30
   11  A    between atoms: C_29  and  C_31
                            x       y       z     vdW  Elec       q    Type
                         _______ _______ _______ _____ _____    ______ ____

>  <TORSDO>
F 11

$$$$
=
 OpenBabel11062421593D

 35 40  0  0  1  0  0  0  0  0999 V2000
  190.6210  177.7330  148.6600 N   0  0  0  0  0  1  0  0  0  0  0  0
  186.9780  177.3100  142.9300 C   0  0  1  0  0  3  0  0  0  0  0  0
  190.1810  176.5620  146.4370 C   0  0  0  0  0  0  0  0  0  0  0  0
  189.2490  177.3350  145.9680 N   0  0  0  0  0  0  0  0  0  0  0  0
  190.8460  175.4330  145.7140 C   0  0  2  0  0  3  0  0  0  0  0  0
  190.9260  176.7740  147.6520 C   0  0  0  0  0  0  0  0  0  0  0  0
  187.8340  177.9450  141.8430 C   0  0  0  0  0  2  0  0  0  0  0  0
  189.2670  177.6440  142.2230 C   0  0  0  0  0  2  0  0  0  0  0  0
  187.8790  176.3640  143.7340 C   0  0  2  0  0  3  0  0  0  0  0  0
  188.7930  177.1250  144.6620 N   0  0  0  0  0  0  0  0  0  0  0  0
  190.1120  175.4940  143.3730 N   0  0  0  0  0  2  0  0  0  0  0  0
  191.9770  175.2220  146.5590 O   0  0  0  0  0  0  0  0  0  0  0  0
  191.2210  175.8340  144.2730 C   0  0  2  0  0  3  0  0  0  0  0  0
  189.1640  176.6100  143.3170 C   0  0  2  0  0  0  0  0  0  0  0  0
  191.9520  176.0020  147.6980 N   0  0  0  0  0  0  0  0  0  0  0  0
  192.5070  175.2070  143.7510 C   0  0  1  0  0  3  0  0  0  0  0  0
  193.1040  176.1800  142.7460 C   0  0  1  0  0  3  0  0  0  0  0  0
  193.7120  176.0550  144.1260 C   0  0  0  0  0  2  0  0  0  0  0  0
  193.9840  175.4590  141.7460 C   0  0  0  0  0  2  0  0  0  0  0  0
  195.0750  176.4200  141.3110 C   0  0  0  0  0  2  0  0  0  0  0  0
  196.3630  175.8510  141.5120 O   0  0  0  0  0  0  0  0  0  0  0  0
  197.0750  176.0190  142.7040 C   0  0  0  0  0  0  0  0  0  0  0  0
  197.3440  177.1750  143.1370 O   0  0  0  0  0  0  0  0  0  0  0  0
  197.5130  174.8890  143.3910 O   0  0  0  0  0  0  0  0  0  0  0  0
  197.0070  174.5210  144.6680 C   0  0  0  0  0  2  0  0  0  0  0  0
  196.5540  172.3890  143.7110 O   0  0  0  0  0  0  0  0  0  0  0  0
  195.1110  173.0610  145.3660 O   0  0  0  0  0  1  0  0  0  0  0  0
  196.2200  173.2640  144.5550 C   0  0  0  0  0  0  0  0  0  0  0  0
  186.3480  178.4040  143.7840 C   0  0  2  0  0  3  0  0  0  0  0  0
  184.9080  178.1380  144.0350 C   0  0  2  0  0  3  0  0  0  0  0  0
  185.3370  179.0240  143.0220 O   0  0  0  0  0  0  0  0  0  0  0  0
  184.4660  178.9170  145.2730 C   0  0  0  0  0  2  0  0  0  0  0  0
  184.7270  178.7460  147.6480 O   0  0  0  0  0  1  0  0  0  0  0  0
  184.6760  178.1490  146.5380 C   0  0  0  0  0  0  0  0  0  0  0  0
  184.8560  176.7750  146.4880 O   0  0  0  0  0  0  0  0  0  0  0  0
  2  7  1  6  0  0  0
  2  9  1  0  0  0  0
  2 29  1  0  0  0  0
  3  6  1  0  0  0  0
  4  3  2  0  0  0  0
  5  3  1  1  0  0  0
  5 12  1  0  0  0  0
  6 15  2  0  0  0  0
  6  1  1  0  0  0  0
  7  8  1  0  0  0  0
  9 10  1  1  0  0  0
 10  4  1  0  0  0  0
 12 15  1  0  0  0  0
 13 11  1  6  0  0  0
 13  5  1  0  0  0  0
 14  8  1  6  0  0  0
 14 11  1  0  0  0  0
 14  9  1  0  0  0  0
 14 10  1  0  0  0  0
 16 18  1  1  0  0  0
 16 13  1  0  0  0  0
 17 19  1  6  0  0  0
 17 16  1  0  0  0  0
 17 18  1  0  0  0  0
 20 21  1  0  0  0  0
 20 19  1  0  0  0  0
 21 22  1  0  0  0  0
 22 23  2  0  0  0  0
 22 24  1  0  0  0  0
 24 25  1  0  0  0  0
 26 28  2  0  0  0  0
 28 25  1  0  0  0  0
 28 27  1  0  0  0  0
 29 31  1  6  0  0  0
 29 30  1  0  0  0  0
 30 32  1  1  0  0  0
 31 30  1  0  0  0  0
 32 34  1  0  0  0  0
 34 33  1  0  0  0  0
 35 34  2  0  0  0  0
M  END
>  <MODEL>
7

>  <REMARK>
 VINA RESULT:      -6.6      2.024      3.836
  Name = 
  11 active torsions:
  status: ('A' for Active; 'I' for Inactive)
    1  A    between atoms: C_2  and  C_23
    2  A    between atoms: C_3  and  C_18
    3  A    between atoms: C_3  and  O_24
    4  A    between atoms: C_4  and  C_15
    5  A    between atoms: O_5  and  C_29
    6  A    between atoms: O_5  and  C_30
    7  A    between atoms: C_6  and  C_31
    8  A    between atoms: C_20  and  C_22
    9  A    between atoms: C_20  and  C_33
   10  A    between atoms: O_24  and  C_30
   11  A    between atoms: C_29  and  C_31
                            x       y       z     vdW  Elec       q    Type
                         _______ _______ _______ _____ _____    ______ ____

>  <TORSDO>
F 11

$$$$
=
 OpenBabel11062421593D

 35 40  0  0  1  0  0  0  0  0999 V2000
  190.4600  176.6220  147.6220 N   0  0  0  0  0  1  0  0  0  0  0  0
  186.0590  177.2110  142.4670 C   0  0  1  0  0  3  0  0  0  0  0  0
  189.5090  175.6840  145.4480 C   0  0  0  0  0  0  0  0  0  0  0  0
  188.6850  176.6410  145.1450 N   0  0  0  0  0  0  0  0  0  0  0  0
  189.8430  174.4970  144.6020 C   0  0  2  0  0  3  0  0  0  0  0  0
  190.4380  175.6850  146.5500 C   0  0  0  0  0  0  0  0  0  0  0  0
  186.8640  177.7400  141.2890 C   0  0  0  0  0  2  0  0  0  0  0  0
  188.2520  177.1600  141.4480 C   0  0  0  0  0  2  0  0  0  0  0  0
  186.8650  176.0700  143.1020 C   0  0  2  0  0  3  0  0  0  0  0  0
  188.0240  176.5940  143.9120 N   0  0  0  0  0  0  0  0  0  0  0  0
  188.8230  174.8290  142.3940 N   0  0  0  0  0  2  0  0  0  0  0  0
  191.0180  174.0330  145.2670 O   0  0  0  0  0  0  0  0  0  0  0  0
  190.0880  174.9060  143.1350 C   0  0  2  0  0  3  0  0  0  0  0  0
  188.1040  176.1000  142.5110 C   0  0  2  0  0  0  0  0  0  0  0  0
  191.2960  174.7370  146.4210 N   0  0  0  0  0  0  0  0  0  0  0  0
  191.1480  174.0870  142.4130 C   0  0  1  0  0  3  0  0  0  0  0  0
  192.2630  175.0430  142.0170 C   0  0  1  0  0  3  0  0  0  0  0  0
  192.4590  174.1000  143.1840 C   0  0  0  0  0  2  0  0  0  0  0  0
  193.0290  174.5230  140.8190 C   0  0  0  0  0  2  0  0  0  0  0  0
  194.5100  174.6600  141.1210 C   0  0  0  0  0  2  0  0  0  0  0  0
  194.8230  175.9840  141.5360 O   0  0  0  0  0  0  0  0  0  0  0  0
  195.9760  176.2830  142.2680 C   0  0  0  0  0  0  0  0  0  0  0  0
  197.1220  176.1000  141.7710 O   0  0  0  0  0  0  0  0  0  0  0  0
  195.8410  176.7590  143.5710 O   0  0  0  0  0  0  0  0  0  0  0  0
  195.2680  175.9860  144.6170 C   0  0  0  0  0  2  0  0  0  0  0  0
  194.4610  177.1340  146.5400 O   0  0  0  0  0  1  0  0  0  0  0  0
  193.0740  177.1660  144.7100 O   0  0  0  0  0  0  0  0  0  0  0  0
  194.2530  176.7960  145.3440 C   0  0  0  0  0  0  0  0  0  0  0  0
  185.7690  178.3490  143.4380 C   0  0  2  0  0  3  0  0  0  0  0  0
  184.4410  178.1890  144.0850 C   0  0  2  0  0  3  0  0  0  0  0  0
  184.6320  179.0410  142.9720 O   0  0  0  0  0  0  0  0  0  0  0  0
  184.4170  179.0020  145.3790 C   0  0  0  0  0  2  0  0  0  0  0  0
  184.5850  178.6630  147.7440 O   0  0  0  0  0  1  0  0  0  0  0  0
  184.6190  178.1520  146.5910 C   0  0  0  0  0  0  0  0  0  0  0  0
  184.8840  176.7980  146.4480 O   0  0  0  0  0  0  0  0  0  0  0  0
  2  7  1  6  0  0  0
  2  9  1  0  0  0  0
  2 29  1  0  0  0  0
  3  6  1  0  0  0  0
  4  3  2  0  0  0  0
  5 12  1  1  0  0  0
  5  3  1  0  0  0  0
  6  1  1  0  0  0  0
  7  8  1  0  0  0  0
  9 10  1  1  0  0  0
 10  4  1  0  0  0  0
 11 14  1  0  0  0  0
 12 15  1  0  0  0  0
 13 11  1  6  0  0  0
 13  5  1  0  0  0  0
 14  8  1  6  0  0  0
 14  9  1  0  0  0  0
 14 10  1  0  0  0  0
 15  6  2  0  0  0  0
 16 13  1  0  0  0  0
 16 18  1  1  0  0  0
 17 19  1  6  0  0  0
 17 16  1  0  0  0  0
 17 18  1  0  0  0  0
 19 20  1  0  0  0  0
 20 21  1  0  0  0  0
 21 22  1  0  0  0  0
 22 24  1  0  0  0  0
 23 22  2  0  0  0  0
 24 25  1  0  0  0  0
 25 28  1  0  0  0  0
 27 28  2  0  0  0  0
 28 26  1  0  0  0  0
 29 31  1  6  0  0  0
 29 30  1  0  0  0  0
 30 32  1  1  0  0  0
 31 30  1  0  0  0  0
 32 34  1  0  0  0  0
 34 33  1  0  0  0  0
 35 34  2  0  0  0  0
M  END
>  <MODEL>
8

>  <REMARK>
 VINA RESULT:      -6.6      2.020      4.003
  Name = 
  11 active torsions:
  status: ('A' for Active; 'I' for Inactive)
    1  A    between atoms: C_2  and  C_23
    2  A    between atoms: C_3  and  C_18
    3  A    between atoms: C_3  and  O_24
    4  A    between atoms: C_4  and  C_15
    5  A    between atoms: O_5  and  C_29
    6  A    between atoms: O_5  and  C_30
    7  A    between atoms: C_6  and  C_31
    8  A    between atoms: C_20  and  C_22
    9  A    between atoms: C_20  and  C_33
   10  A    between atoms: O_24  and  C_30
   11  A    between atoms: C_29  and  C_31
                            x       y       z     vdW  Elec       q    Type
                         _______ _______ _______ _____ _____    ______ ____

>  <TORSDO>
F 11

$$$$
=
 OpenBabel11062421593D

 35 40  0  0  1  0  0  0  0  0999 V2000
  190.5660  176.9100  147.3000 N   0  0  0  0  0  1  0  0  0  0  0  0
  185.8320  177.1530  142.4190 C   0  0  1  0  0  3  0  0  0  0  0  0
  189.3580  175.7530  145.3740 C   0  0  0  0  0  0  0  0  0  0  0  0
  188.6040  176.7320  144.9750 N   0  0  0  0  0  0  0  0  0  0  0  0
  189.5110  174.4210  144.7090 C   0  0  2  0  0  3  0  0  0  0  0  0
  190.3700  175.8260  146.3970 C   0  0  0  0  0  0  0  0  0  0  0  0
  186.5840  177.4090  141.1200 C   0  0  0  0  0  2  0  0  0  0  0  0
  187.9210  176.7190  141.2790 C   0  0  0  0  0  2  0  0  0  0  0  0
  186.5790  176.0460  143.1750 C   0  0  2  0  0  3  0  0  0  0  0  0
  187.8430  176.5650  143.8120 N   0  0  0  0  0  0  0  0  0  0  0  0
  188.3490  174.5140  142.5490 N   0  0  0  0  0  2  0  0  0  0  0  0
  190.6880  173.9460  145.3610 O   0  0  0  0  0  0  0  0  0  0  0  0
  189.6720  174.5730  143.1830 C   0  0  2  0  0  3  0  0  0  0  0  0
  187.7630  175.8560  142.5070 C   0  0  2  0  0  0  0  0  0  0  0  0
  191.1230  174.7860  146.3670 N   0  0  0  0  0  0  0  0  0  0  0  0
  190.5900  173.5460  142.5340 C   0  0  1  0  0  3  0  0  0  0  0  0
  190.9140  174.0520  141.1370 C   0  0  1  0  0  3  0  0  0  0  0  0
  191.9520  174.1530  142.2330 C   0  0  0  0  0  2  0  0  0  0  0  0
  191.2730  172.9090  140.2110 C   0  0  0  0  0  2  0  0  0  0  0  0
  192.2690  173.4320  139.1930 C   0  0  0  0  0  2  0  0  0  0  0  0
  191.8240  173.1720  137.8670 O   0  0  0  0  0  0  0  0  0  0  0  0
  191.2600  174.1660  137.0600 C   0  0  0  0  0  0  0  0  0  0  0  0
  191.9760  175.0890  136.5790 O   0  0  0  0  0  0  0  0  0  0  0  0
  189.8880  174.1410  136.8210 O   0  0  0  0  0  0  0  0  0  0  0  0
  189.0490  173.0810  137.2620 C   0  0  0  0  0  2  0  0  0  0  0  0
  187.8170  174.7460  138.4340 O   0  0  0  0  0  0  0  0  0  0  0  0
  187.8450  172.6650  139.4050 O   0  0  0  0  0  1  0  0  0  0  0  0
  188.2010  173.5460  138.3920 C   0  0  0  0  0  0  0  0  0  0  0  0
  185.7290  178.4510  143.2110 C   0  0  2  0  0  3  0  0  0  0  0  0
  184.7550  178.3330  144.3270 C   0  0  2  0  0  3  0  0  0  0  0  0
  184.4080  178.9300  143.0930 O   0  0  0  0  0  0  0  0  0  0  0  0
  185.0610  179.4070  145.3700 C   0  0  0  0  0  2  0  0  0  0  0  0
  185.5500  177.5800  146.8410 O   0  0  0  0  0  0  0  0  0  0  0  0
  185.5410  178.8290  146.6620 C   0  0  0  0  0  0  0  0  0  0  0  0
  185.9410  179.6720  147.6880 O   0  0  0  0  0  1  0  0  0  0  0  0
  2  7  1  6  0  0  0
  2  9  1  0  0  0  0
  2 29  1  0  0  0  0
  3  6  1  0  0  0  0
  4  3  2  0  0  0  0
  5 12  1  1  0  0  0
  5  3  1  0  0  0  0
  6  1  1  0  0  0  0
  7  8  1  0  0  0  0
  9 10  1  1  0  0  0
 10  4  1  0  0  0  0
 12 15  1  0  0  0  0
 13 11  1  6  0  0  0
 13  5  1  0  0  0  0
 14  8  1  6  0  0  0
 14 11  1  0  0  0  0
 14  9  1  0  0  0  0
 14 10  1  0  0  0  0
 15  6  2  0  0  0  0
 16 18  1  1  0  0  0
 16 13  1  0  0  0  0
 17 19  1  6  0  0  0
 17 18  1  0  0  0  0
 17 16  1  0  0  0  0
 20 19  1  0  0  0  0
 21 20  1  0  0  0  0
 22 21  1  0  0  0  0
 23 22  2  0  0  0  0
 24 22  1  0  0  0  0
 24 25  1  0  0  0  0
 25 28  1  0  0  0  0
 28 26  2  0  0  0  0
 28 27  1  0  0  0  0
 29 31  1  6  0  0  0
 29 30  1  0  0  0  0
 30 32  1  1  0  0  0
 31 30  1  0  0  0  0
 32 34  1  0  0  0  0
 34 33  2  0  0  0  0
 34 35  1  0  0  0  0
M  END
>  <MODEL>
9

>  <REMARK>
 VINA RESULT:      -6.5      3.279      6.216
  Name = 
  11 active torsions:
  status: ('A' for Active; 'I' for Inactive)
    1  A    between atoms: C_2  and  C_23
    2  A    between atoms: C_3  and  C_18
    3  A    between atoms: C_3  and  O_24
    4  A    between atoms: C_4  and  C_15
    5  A    between atoms: O_5  and  C_29
    6  A    between atoms: O_5  and  C_30
    7  A    between atoms: C_6  and  C_31
    8  A    between atoms: C_20  and  C_22
    9  A    between atoms: C_20  and  C_33
   10  A    between atoms: O_24  and  C_30
   11  A    between atoms: C_29  and  C_31
                            x       y       z     vdW  Elec       q    Type
                         _______ _______ _______ _____ _____    ______ ____

>  <TORSDO>
F 11

$$$$
