=
 OpenBabel11062422093D

 27 31  0  0  1  0  0  0  0  0999 V2000
  184.5030  178.5910  146.5770 C   0  0  0  0  0  2  0  0  0  0  0  0
  185.8790  177.9230  142.6790 C   0  0  2  0  0  3  0  0  0  0  0  0
  186.2060  177.8030  145.1570 C   0  0  1  0  0  3  0  0  0  0  0  0
  185.6170  179.4090  143.1500 N   0  0  0  0  0  2  0  0  0  0  0  0
  186.7060  177.4670  143.8040 C   0  0  1  0  0  3  0  0  0  0  0  0
  187.6770  176.3920  143.7720 N   0  0  0  0  0  0  0  0  0  0  0  0
  184.8660  178.3990  145.0970 C   0  0  2  0  0  3  0  0  0  0  0  0
  189.2910  174.7670  142.9480 C   0  0  0  0  0  1  0  0  0  0  0  0
  184.7390  179.5020  144.2390 O   0  0  0  0  0  0  0  0  0  0  0  0
  188.2230  175.8000  142.7460 C   0  0  0  0  0  0  0  0  0  0  0  0
  186.1770  177.9700  141.1390 C   0  0  1  0  0  0  0  0  0  0  0  0
  186.1440  176.7690  146.2230 C   0  0  2  0  0  3  0  0  0  0  0  0
  187.5030  177.3500  140.7870 C   0  0  1  0  0  3  0  0  0  0  0  0
  185.4390  177.5870  147.3330 C   0  0  0  0  0  2  0  0  0  0  0  0
  188.0290  176.1700  141.4330 N   0  0  0  0  0  2  0  0  0  0  0  0
  186.2260  176.8560  140.2960 N   0  0  0  0  0  2  0  0  0  0  0  0
  183.6620  178.6850  140.4950 C   0  0  0  0  0  3  0  0  0  0  0  0
  182.9340  177.7520  140.9470 O   0  0  0  0  0  0  0  0  0  0  0  0
  185.1120  178.7310  140.6210 N   0  0  0  0  0  2  0  0  0  0  0  0
  187.6390  176.3270  146.4470 C   0  0  0  0  0  2  0  0  0  0  0  0
  188.5810  177.3650  146.9600 C   0  0  0  0  0  2  0  0  0  0  0  0
  190.5810  176.1300  147.5160 N   0  0  0  0  0  0  0  0  0  0  0  0
  191.8070  175.7210  147.3300 C   0  0  0  0  0  3  0  0  0  0  0  0
  191.7750  176.7340  145.2040 N   0  0  0  0  0  0  0  0  0  0  0  0
  192.4810  176.0370  146.1550 C   0  0  0  0  0  3  0  0  0  0  0  0
  190.5650  177.2270  145.4660 C   0  0  0  0  0  3  0  0  0  0  0  0
  189.9670  177.0280  146.7180 C   0  0  0  0  0  0  0  0  0  0  0  0
  1 14  1  0  0  0  0
  2  4  1  1  0  0  0
  2  5  1  0  0  0  0
  3 12  1  0  0  0  0
  4  9  1  0  0  0  0
  5  3  1  0  0  0  0
  6  5  1  0  0  0  0
  7  3  1  0  0  0  0
  7  1  1  0  0  0  0
  9  7  1  0  0  0  0
 10  8  1  0  0  0  0
 10  6  2  0  0  0  0
 11  2  1  0  0  0  0
 12 20  1  0  0  0  0
 12 14  1  0  0  0  0
 13 11  1  0  0  0  0
 13 15  1  0  0  0  0
 15 10  1  0  0  0  0
 16 13  1  0  0  0  0
 16 11  1  0  0  0  0
 17 19  1  0  0  0  0
 17 18  2  0  0  0  0
 19 11  1  0  0  0  0
 20 21  1  0  0  0  0
 23 22  1  0  0  0  0
 24 26  2  0  0  0  0
 24 25  1  0  0  0  0
 25 23  2  0  0  0  0
 26 27  1  0  0  0  0
 27 21  1  0  0  0  0
 27 22  2  0  0  0  0
M  END
>  <MODEL>
1

>  <REMARK>
 VINA RESULT:      -7.6      0.000      0.000
  Name = 
  4 active torsions:
  status: ('A' for Active; 'I' for Inactive)
    1  A    between atoms: C_7  and  C_18
    2  A    between atoms: C_7  and  C_23
    3  A    between atoms: C_17  and  N_20
    4  A    between atoms: C_23  and  C_27
                            x       y       z     vdW  Elec       q    Type
                         _______ _______ _______ _____ _____    ______ ____

>  <TORSDO>
F 4

$$$$
=
 OpenBabel11062422093D

 27 31  0  0  1  0  0  0  0  0999 V2000
  189.7160  174.7620  141.9280 C   0  0  0  0  0  2  0  0  0  0  0  0
  193.0360  175.7230  144.2930 C   0  0  2  0  0  3  0  0  0  0  0  0
  190.5800  175.8500  143.8280 C   0  0  1  0  0  3  0  0  0  0  0  0
  192.9760  176.2620  142.8080 N   0  0  0  0  0  2  0  0  0  0  0  0
  191.7040  176.1470  144.7450 C   0  0  1  0  0  3  0  0  0  0  0  0
  191.3090  176.4110  146.1140 N   0  0  0  0  0  0  0  0  0  0  0  0
  191.0200  175.0230  142.6970 C   0  0  2  0  0  3  0  0  0  0  0  0
  191.4250  176.9630  148.4810 C   0  0  0  0  0  1  0  0  0  0  0  0
  192.1170  175.5250  141.9810 O   0  0  0  0  0  0  0  0  0  0  0  0
  192.0520  176.6030  147.1680 C   0  0  0  0  0  0  0  0  0  0  0  0
  194.4630  176.0570  144.8510 C   0  0  1  0  0  0  0  0  0  0  0  0
  189.3330  175.2160  144.3340 C   0  0  2  0  0  3  0  0  0  0  0  0
  194.4140  176.8730  146.1150 C   0  0  1  0  0  3  0  0  0  0  0  0
  188.5900  175.0050  142.9910 C   0  0  0  0  0  2  0  0  0  0  0  0
  193.4280  176.6790  147.1530 N   0  0  0  0  0  2  0  0  0  0  0  0
  195.0030  175.5460  146.0340 N   0  0  0  0  0  2  0  0  0  0  0  0
  196.5090  175.9720  143.1020 C   0  0  0  0  0  3  0  0  0  0  0  0
  197.1150  177.0740  143.2590 O   0  0  0  0  0  0  0  0  0  0  0  0
  195.3280  175.5690  143.8540 N   0  0  0  0  0  2  0  0  0  0  0  0
  188.7440  176.2490  145.3670 C   0  0  0  0  0  2  0  0  0  0  0  0
  188.1520  177.4990  144.8090 C   0  0  0  0  0  2  0  0  0  0  0  0
  186.1370  178.8300  144.8790 N   0  0  0  0  0  0  0  0  0  0  0  0
  184.9360  179.1360  145.2910 C   0  0  0  0  0  3  0  0  0  0  0  0
  184.8630  177.0870  146.4510 N   0  0  0  0  0  0  0  0  0  0  0  0
  184.2460  178.2730  146.1360 C   0  0  0  0  0  3  0  0  0  0  0  0
  186.1280  176.8540  146.1020 C   0  0  0  0  0  3  0  0  0  0  0  0
  186.8590  177.8070  145.3800 C   0  0  0  0  0  0  0  0  0  0  0  0
  1  7  1  0  0  0  0
  1 14  1  0  0  0  0
  2  4  1  6  0  0  0
  2  5  1  0  0  0  0
  2 11  1  0  0  0  0
  3 12  1  0  0  0  0
  3  5  1  0  0  0  0
  5  6  1  0  0  0  0
  6 10  2  0  0  0  0
  7  3  1  0  0  0  0
  9  7  1  0  0  0  0
  9  4  1  0  0  0  0
 10  8  1  0  0  0  0
 11 16  1  0  0  0  0
 11 13  1  0  0  0  0
 12 20  1  0  0  0  0
 13 15  1  0  0  0  0
 14 12  1  0  0  0  0
 15 10  1  0  0  0  0
 16 13  1  0  0  0  0
 17 18  2  0  0  0  0
 17 19  1  0  0  0  0
 19 11  1  0  0  0  0
 21 20  1  0  0  0  0
 21 27  1  0  0  0  0
 22 23  2  0  0  0  0
 22 27  1  0  0  0  0
 23 25  1  0  0  0  0
 25 24  2  0  0  0  0
 26 24  1  0  0  0  0
 27 26  2  0  0  0  0
M  END
>  <MODEL>
2

>  <REMARK>
 VINA RESULT:      -7.2      3.659      7.746
  Name = 
  4 active torsions:
  status: ('A' for Active; 'I' for Inactive)
    1  A    between atoms: C_7  and  C_18
    2  A    between atoms: C_7  and  C_23
    3  A    between atoms: C_17  and  N_20
    4  A    between atoms: C_23  and  C_27
                            x       y       z     vdW  Elec       q    Type
                         _______ _______ _______ _____ _____    ______ ____

>  <TORSDO>
F 4

$$$$
=
 OpenBabel11062422093D

 27 31  0  0  1  0  0  0  0  0999 V2000
  191.1850  177.6660  142.8090 C   0  0  0  0  0  2  0  0  0  0  0  0
  187.0390  178.0720  143.2320 C   0  0  2  0  0  3  0  0  0  0  0  0
  189.2550  177.3040  144.1060 C   0  0  1  0  0  3  0  0  0  0  0  0
  187.6000  177.1780  142.0560 N   0  0  0  0  0  2  0  0  0  0  0  0
  187.8060  177.4970  144.3450 C   0  0  1  0  0  3  0  0  0  0  0  0
  187.4240  177.5060  145.7420 N   0  0  0  0  0  0  0  0  0  0  0  0
  189.6670  177.8950  142.8260 C   0  0  2  0  0  3  0  0  0  0  0  0
  186.0680  177.6060  147.7610 C   0  0  0  0  0  1  0  0  0  0  0  0
  188.9250  177.4800  141.7090 O   0  0  0  0  0  0  0  0  0  0  0  0
  186.2620  177.7510  146.2820 C   0  0  0  0  0  0  0  0  0  0  0  0
  185.4910  178.2070  143.0150 C   0  0  1  0  0  0  0  0  0  0  0  0
  190.2580  177.7590  145.1040 C   0  0  2  0  0  3  0  0  0  0  0  0
  184.6970  177.7440  144.2070 C   0  0  1  0  0  3  0  0  0  0  0  0
  191.5570  177.4590  144.3170 C   0  0  0  0  0  2  0  0  0  0  0  0
  185.1010  177.9740  145.5740 N   0  0  0  0  0  2  0  0  0  0  0  0
  184.6600  179.1040  143.6910 N   0  0  0  0  0  2  0  0  0  0  0  0
  184.4460  178.5350  140.5540 C   0  0  0  0  0  3  0  0  0  0  0  0
  183.3000  178.0000  140.6150 O   0  0  0  0  0  0  0  0  0  0  0  0
  185.3820  178.6040  141.6690 N   0  0  0  0  0  2  0  0  0  0  0  0
  189.9500  176.9160  146.3990 C   0  0  0  0  0  2  0  0  0  0  0  0
  190.9270  175.8460  146.7570 C   0  0  0  0  0  2  0  0  0  0  0  0
  192.0170  174.1300  145.4520 N   0  0  0  0  0  0  0  0  0  0  0  0
  192.0570  173.0690  144.6920 C   0  0  0  0  0  3  0  0  0  0  0  0
  189.7460  172.7840  145.0500 N   0  0  0  0  0  0  0  0  0  0  0  0
  190.8930  172.3530  144.4290 C   0  0  0  0  0  3  0  0  0  0  0  0
  189.7190  173.9290  145.7310 C   0  0  0  0  0  3  0  0  0  0  0  0
  190.8710  174.7170  145.8540 C   0  0  0  0  0  0  0  0  0  0  0  0
  1  7  1  0  0  0  0
  1 14  1  0  0  0  0
  2  4  1  6  0  0  0
  2  5  1  0  0  0  0
  3  5  1  0  0  0  0
  3 12  1  0  0  0  0
  5  6  1  0  0  0  0
  6 10  2  0  0  0  0
  7  3  1  0  0  0  0
  9  4  1  0  0  0  0
  9  7  1  0  0  0  0
 10  8  1  0  0  0  0
 11  2  1  0  0  0  0
 11 16  1  0  0  0  0
 11 13  1  0  0  0  0
 12 20  1  0  0  0  0
 13 15  1  0  0  0  0
 14 12  1  0  0  0  0
 15 10  1  0  0  0  0
 16 13  1  0  0  0  0
 17 18  2  0  0  0  0
 17 19  1  0  0  0  0
 19 11  1  0  0  0  0
 20 21  1  0  0  0  0
 22 27  1  0  0  0  0
 23 22  2  0  0  0  0
 24 26  1  0  0  0  0
 25 23  1  0  0  0  0
 25 24  2  0  0  0  0
 26 27  2  0  0  0  0
 27 21  1  0  0  0  0
M  END
>  <MODEL>
3

>  <REMARK>
 VINA RESULT:      -7.0      2.219      4.046
  Name = 
  4 active torsions:
  status: ('A' for Active; 'I' for Inactive)
    1  A    between atoms: C_7  and  C_18
    2  A    between atoms: C_7  and  C_23
    3  A    between atoms: C_17  and  N_20
    4  A    between atoms: C_23  and  C_27
                            x       y       z     vdW  Elec       q    Type
                         _______ _______ _______ _____ _____    ______ ____

>  <TORSDO>
F 4

$$$$
=
 OpenBabel11062422093D

 27 31  0  0  1  0  0  0  0  0999 V2000
  185.5470  177.6230  146.9400 C   0  0  0  0  0  2  0  0  0  0  0  0
  184.0560  178.1620  143.0640 C   0  0  2  0  0  3  0  0  0  0  0  0
  185.9770  177.8590  144.6380 C   0  0  1  0  0  3  0  0  0  0  0  0
  183.8320  179.3060  144.1320 N   0  0  0  0  0  2  0  0  0  0  0  0
  185.5010  177.9620  143.2400 C   0  0  1  0  0  3  0  0  0  0  0  0
  186.4180  177.4330  142.2520 N   0  0  0  0  0  0  0  0  0  0  0  0
  184.8540  177.8140  145.5830 C   0  0  2  0  0  3  0  0  0  0  0  0
  187.3880  176.8020  140.1110 C   0  0  0  0  0  1  0  0  0  0  0  0
  183.9250  178.8580  145.4570 O   0  0  0  0  0  0  0  0  0  0  0  0
  186.2560  177.2840  140.9660 C   0  0  0  0  0  0  0  0  0  0  0  0
  183.2220  178.5450  141.7920 C   0  0  1  0  0  0  0  0  0  0  0  0
  186.8970  176.7650  145.0490 C   0  0  2  0  0  3  0  0  0  0  0  0
  184.0640  178.6190  140.5470 C   0  0  1  0  0  3  0  0  0  0  0  0
  186.9510  177.0340  146.5730 C   0  0  0  0  0  2  0  0  0  0  0  0
  185.1490  177.7090  140.2630 N   0  0  0  0  0  2  0  0  0  0  0  0
  182.9570  177.6910  140.7180 N   0  0  0  0  0  2  0  0  0  0  0  0
  180.6130  179.2100  141.8590 C   0  0  0  0  0  3  0  0  0  0  0  0
  180.2880  179.3690  140.6450 O   0  0  0  0  0  0  0  0  0  0  0  0
  181.9440  178.8300  142.3110 N   0  0  0  0  0  2  0  0  0  0  0  0
  188.2020  176.9920  144.1970 C   0  0  0  0  0  2  0  0  0  0  0  0
  189.0750  175.8040  143.9670 C   0  0  0  0  0  2  0  0  0  0  0  0
  191.1000  176.6270  144.9960 N   0  0  0  0  0  0  0  0  0  0  0  0
  192.0520  176.6370  145.8890 C   0  0  0  0  0  3  0  0  0  0  0  0
  190.8690  174.9990  147.1010 N   0  0  0  0  0  0  0  0  0  0  0  0
  191.9910  175.7850  146.9870 C   0  0  0  0  0  3  0  0  0  0  0  0
  189.9690  174.9360  146.1200 C   0  0  0  0  0  3  0  0  0  0  0  0
  190.1310  175.6890  144.9500 C   0  0  0  0  0  0  0  0  0  0  0  0
  2  5  1  0  0  0  0
  2  4  1  1  0  0  0
  3 12  1  0  0  0  0
  3  7  1  0  0  0  0
  4  9  1  0  0  0  0
  5  3  1  0  0  0  0
  6  5  1  0  0  0  0
  7  1  1  0  0  0  0
  8 10  1  0  0  0  0
  9  7  1  0  0  0  0
 10  6  2  0  0  0  0
 11 19  1  0  0  0  0
 11  2  1  0  0  0  0
 12 14  1  0  0  0  0
 13 16  1  0  0  0  0
 13 11  1  0  0  0  0
 14  1  1  0  0  0  0
 15 13  1  0  0  0  0
 15 10  1  0  0  0  0
 16 11  1  0  0  0  0
 17 19  1  0  0  0  0
 18 17  2  0  0  0  0
 20 12  1  0  0  0  0
 21 20  1  0  0  0  0
 21 27  1  0  0  0  0
 22 23  1  0  0  0  0
 23 25  2  0  0  0  0
 25 24  1  0  0  0  0
 26 24  2  0  0  0  0
 27 22  2  0  0  0  0
 27 26  1  0  0  0  0
M  END
>  <MODEL>
4

>  <REMARK>
 VINA RESULT:      -7.0      1.698      2.566
  Name = 
  4 active torsions:
  status: ('A' for Active; 'I' for Inactive)
    1  A    between atoms: C_7  and  C_18
    2  A    between atoms: C_7  and  C_23
    3  A    between atoms: C_17  and  N_20
    4  A    between atoms: C_23  and  C_27
                            x       y       z     vdW  Elec       q    Type
                         _______ _______ _______ _____ _____    ______ ____

>  <TORSDO>
F 4

$$$$
=
 OpenBabel11062422093D

 27 31  0  0  1  0  0  0  0  0999 V2000
  185.4330  178.9330  146.7340 C   0  0  0  0  0  2  0  0  0  0  0  0
  188.7760  176.9840  145.1350 C   0  0  2  0  0  3  0  0  0  0  0  0
  186.3350  177.5330  145.0720 C   0  0  1  0  0  3  0  0  0  0  0  0
  188.2770  176.5800  146.5790 N   0  0  0  0  0  2  0  0  0  0  0  0
  187.4980  176.8920  144.4160 C   0  0  1  0  0  3  0  0  0  0  0  0
  187.3300  176.6490  142.9980 N   0  0  0  0  0  0  0  0  0  0  0  0
  186.7450  178.2900  146.2610 C   0  0  2  0  0  3  0  0  0  0  0  0
  187.7660  175.9280  140.7150 C   0  0  0  0  0  1  0  0  0  0  0  0
  187.5010  177.5690  147.1990 O   0  0  0  0  0  0  0  0  0  0  0  0
  188.1900  176.1990  142.1260 C   0  0  0  0  0  0  0  0  0  0  0  0
  190.1430  176.2520  144.8940 C   0  0  1  0  0  0  0  0  0  0  0  0
  185.4330  178.4340  144.3070 C   0  0  2  0  0  3  0  0  0  0  0  0
  190.1310  175.3940  143.6570 C   0  0  1  0  0  3  0  0  0  0  0  0
  184.5200  178.9210  145.4600 C   0  0  0  0  0  2  0  0  0  0  0  0
  189.4630  175.7690  142.4330 N   0  0  0  0  0  2  0  0  0  0  0  0
  191.0260  176.5250  143.8460 N   0  0  0  0  0  2  0  0  0  0  0  0
  191.8450  175.9520  146.9600 C   0  0  0  0  0  3  0  0  0  0  0  0
  192.2870  174.7700  146.8450 O   0  0  0  0  0  0  0  0  0  0  0  0
  190.8890  176.5640  146.0460 N   0  0  0  0  0  2  0  0  0  0  0  0
  184.8070  177.5230  143.1850 C   0  0  0  0  0  2  0  0  0  0  0  0
  184.4280  178.1920  141.9060 C   0  0  0  0  0  2  0  0  0  0  0  0
  182.2370  178.9980  142.5240 N   0  0  0  0  0  0  0  0  0  0  0  0
  180.9480  179.1500  142.3760 C   0  0  0  0  0  3  0  0  0  0  0  0
  181.1220  178.1580  140.2470 N   0  0  0  0  0  0  0  0  0  0  0  0
  180.3180  178.7010  141.2200 C   0  0  0  0  0  3  0  0  0  0  0  0
  182.4140  177.9210  140.4720 C   0  0  0  0  0  3  0  0  0  0  0  0
  182.9960  178.2410  141.7060 C   0  0  0  0  0  0  0  0  0  0  0  0
  2  4  1  1  0  0  0
  3  7  1  0  0  0  0
  4  9  1  0  0  0  0
  5  3  1  0  0  0  0
  5  2  1  0  0  0  0
  6  5  1  0  0  0  0
  7  1  1  0  0  0  0
  7  9  1  0  0  0  0
  8 10  1  0  0  0  0
 10 15  1  0  0  0  0
 10  6  2  0  0  0  0
 11  2  1  0  0  0  0
 11 19  1  0  0  0  0
 12  3  1  0  0  0  0
 12 14  1  0  0  0  0
 13 16  1  0  0  0  0
 13 11  1  0  0  0  0
 14  1  1  0  0  0  0
 15 13  1  0  0  0  0
 16 11  1  0  0  0  0
 18 17  2  0  0  0  0
 19 17  1  0  0  0  0
 20 12  1  0  0  0  0
 21 20  1  0  0  0  0
 23 22  1  0  0  0  0
 24 26  2  0  0  0  0
 24 25  1  0  0  0  0
 25 23  2  0  0  0  0
 26 27  1  0  0  0  0
 27 21  1  0  0  0  0
 27 22  2  0  0  0  0
M  END
>  <MODEL>
5

>  <REMARK>
 VINA RESULT:      -6.9      2.690      6.953
  Name = 
  4 active torsions:
  status: ('A' for Active; 'I' for Inactive)
    1  A    between atoms: C_7  and  C_18
    2  A    between atoms: C_7  and  C_23
    3  A    between atoms: C_17  and  N_20
    4  A    between atoms: C_23  and  C_27
                            x       y       z     vdW  Elec       q    Type
                         _______ _______ _______ _____ _____    ______ ____

>  <TORSDO>
F 4

$$$$
=
 OpenBabel11062422093D

 27 31  0  0  1  0  0  0  0  0999 V2000
  185.2900  177.9500  143.0400 C   0  0  0  0  0  2  0  0  0  0  0  0
  187.8630  175.1250  141.3260 C   0  0  2  0  0  3  0  0  0  0  0  0
  187.2220  176.6180  143.2290 C   0  0  1  0  0  3  0  0  0  0  0  0
  187.7240  176.5430  140.6410 N   0  0  0  0  0  2  0  0  0  0  0  0
  188.1160  175.5590  142.7060 C   0  0  1  0  0  3  0  0  0  0  0  0
  188.8130  174.8040  143.7270 N   0  0  0  0  0  0  0  0  0  0  0  0
  186.1330  176.9090  142.2870 C   0  0  2  0  0  3  0  0  0  0  0  0
  190.2890  173.1920  144.7980 C   0  0  0  0  0  1  0  0  0  0  0  0
  186.5390  177.2120  140.9780 O   0  0  0  0  0  0  0  0  0  0  0  0
  189.5820  173.7580  143.6030 C   0  0  0  0  0  0  0  0  0  0  0  0
  188.7130  174.2260  140.3620 C   0  0  1  0  0  0  0  0  0  0  0  0
  186.5800  176.4810  144.5630 C   0  0  2  0  0  3  0  0  0  0  0  0
  189.9370  173.6570  141.0300 C   0  0  1  0  0  3  0  0  0  0  0  0
  185.6780  177.7400  144.5440 C   0  0  0  0  0  2  0  0  0  0  0  0
  189.9590  173.2010  142.4000 N   0  0  0  0  0  2  0  0  0  0  0  0
  188.8650  172.8410  140.4800 N   0  0  0  0  0  2  0  0  0  0  0  0
  188.3480  174.2330  137.6940 C   0  0  0  0  0  3  0  0  0  0  0  0
  189.4460  173.8210  137.2150 O   0  0  0  0  0  0  0  0  0  0  0  0
  188.0760  174.3840  139.1170 N   0  0  0  0  0  2  0  0  0  0  0  0
  187.7770  176.4280  145.5850 C   0  0  0  0  0  2  0  0  0  0  0  0
  188.5370  177.6930  145.8020 C   0  0  0  0  0  2  0  0  0  0  0  0
  190.6760  176.6080  146.0890 N   0  0  0  0  0  0  0  0  0  0  0  0
  191.9310  176.3770  145.8120 C   0  0  0  0  0  3  0  0  0  0  0  0
  191.7150  177.7470  143.9080 N   0  0  0  0  0  0  0  0  0  0  0  0
  192.5240  176.9720  144.7040 C   0  0  0  0  0  3  0  0  0  0  0  0
  190.4700  178.0480  144.2770 C   0  0  0  0  0  3  0  0  0  0  0  0
  189.9420  177.5610  145.4800 C   0  0  0  0  0  0  0  0  0  0  0  0
  1 14  1  0  0  0  0
  2  4  1  6  0  0  0
  2  5  1  0  0  0  0
  3 12  1  0  0  0  0
  4  9  1  0  0  0  0
  5  3  1  0  0  0  0
  5  6  1  0  0  0  0
  7  1  1  0  0  0  0
  7  3  1  0  0  0  0
  9  7  1  0  0  0  0
 10  6  2  0  0  0  0
 10  8  1  0  0  0  0
 11 16  1  0  0  0  0
 11 13  1  0  0  0  0
 11  2  1  0  0  0  0
 12 20  1  0  0  0  0
 13 15  1  0  0  0  0
 14 12  1  0  0  0  0
 15 10  1  0  0  0  0
 16 13  1  0  0  0  0
 17 19  1  0  0  0  0
 18 17  2  0  0  0  0
 19 11  1  0  0  0  0
 20 21  1  0  0  0  0
 23 22  1  0  0  0  0
 24 26  2  0  0  0  0
 24 25  1  0  0  0  0
 25 23  2  0  0  0  0
 26 27  1  0  0  0  0
 27 21  1  0  0  0  0
 27 22  2  0  0  0  0
M  END
>  <MODEL>
6

>  <REMARK>
 VINA RESULT:      -6.8      2.628      3.670
  Name = 
  4 active torsions:
  status: ('A' for Active; 'I' for Inactive)
    1  A    between atoms: C_7  and  C_18
    2  A    between atoms: C_7  and  C_23
    3  A    between atoms: C_17  and  N_20
    4  A    between atoms: C_23  and  C_27
                            x       y       z     vdW  Elec       q    Type
                         _______ _______ _______ _____ _____    ______ ____

>  <TORSDO>
F 4

$$$$
=
 OpenBabel11062422093D

 27 31  0  0  1  0  0  0  0  0999 V2000
  191.7170  175.1680  146.5660 C   0  0  0  0  0  2  0  0  0  0  0  0
  190.1720  174.0380  142.8410 C   0  0  2  0  0  3  0  0  0  0  0  0
  190.0390  175.4060  144.9330 C   0  0  1  0  0  3  0  0  0  0  0  0
  190.2640  172.9550  143.9880 N   0  0  0  0  0  2  0  0  0  0  0  0
  189.4950  175.1070  143.5880 C   0  0  1  0  0  3  0  0  0  0  0  0
  188.6780  176.1610  143.0230 N   0  0  0  0  0  0  0  0  0  0  0  0
  191.2800  174.6620  145.1830 C   0  0  2  0  0  3  0  0  0  0  0  0
  187.2430  177.3970  141.4940 C   0  0  0  0  0  1  0  0  0  0  0  0
  191.1960  173.2750  144.9860 O   0  0  0  0  0  0  0  0  0  0  0  0
  188.1450  176.2500  141.8360 C   0  0  0  0  0  0  0  0  0  0  0  0
  189.7620  173.2890  141.5260 C   0  0  1  0  0  0  0  0  0  0  0  0
  190.3150  176.8070  145.3470 C   0  0  2  0  0  3  0  0  0  0  0  0
  188.5100  173.8490  140.9060 C   0  0  1  0  0  3  0  0  0  0  0  0
  190.9800  176.5420  146.7200 C   0  0  0  0  0  2  0  0  0  0  0  0
  188.1940  175.2580  140.8790 N   0  0  0  0  0  2  0  0  0  0  0  0
  189.8040  173.8380  140.2420 N   0  0  0  0  0  2  0  0  0  0  0  0
  190.9630  171.0440  140.6490 C   0  0  0  0  0  3  0  0  0  0  0  0
  190.3080  170.7070  139.6180 O   0  0  0  0  0  0  0  0  0  0  0  0
  190.6750  172.2200  141.4590 N   0  0  0  0  0  2  0  0  0  0  0  0
  188.9120  177.5230  145.3150 C   0  0  0  0  0  2  0  0  0  0  0  0
  187.9510  177.1750  146.4010 C   0  0  0  0  0  2  0  0  0  0  0  0
  186.0790  177.7950  145.0060 N   0  0  0  0  0  0  0  0  0  0  0  0
  184.8890  178.2790  144.7710 C   0  0  0  0  0  3  0  0  0  0  0  0
  184.5340  178.4100  147.0970 N   0  0  0  0  0  0  0  0  0  0  0  0
  184.0600  178.6430  145.8280 C   0  0  0  0  0  3  0  0  0  0  0  0
  185.7900  178.0150  147.3020 C   0  0  0  0  0  3  0  0  0  0  0  0
  186.6590  177.8030  146.2240 C   0  0  0  0  0  0  0  0  0  0  0  0
  1 14  1  0  0  0  0
  2  5  1  0  0  0  0
  2  4  1  1  0  0  0
  3  7  1  0  0  0  0
  3 12  1  0  0  0  0
  4  9  1  0  0  0  0
  5  3  1  0  0  0  0
  6  5  1  0  0  0  0
  7  1  1  0  0  0  0
  8 10  1  0  0  0  0
  9  7  1  0  0  0  0
 10  6  2  0  0  0  0
 11  2  1  0  0  0  0
 12 14  1  0  0  0  0
 13 11  1  0  0  0  0
 15 13  1  0  0  0  0
 15 10  1  0  0  0  0
 16 13  1  0  0  0  0
 16 11  1  0  0  0  0
 17 19  1  0  0  0  0
 18 17  2  0  0  0  0
 19 11  1  0  0  0  0
 20 12  1  0  0  0  0
 20 21  1  0  0  0  0
 22 27  1  0  0  0  0
 23 22  2  0  0  0  0
 23 25  1  0  0  0  0
 24 26  1  0  0  0  0
 25 24  2  0  0  0  0
 27 21  1  0  0  0  0
 27 26  2  0  0  0  0
M  END
>  <MODEL>
7

>  <REMARK>
 VINA RESULT:      -6.8      3.422      6.179
  Name = 
  4 active torsions:
  status: ('A' for Active; 'I' for Inactive)
    1  A    between atoms: C_7  and  C_18
    2  A    between atoms: C_7  and  C_23
    3  A    between atoms: C_17  and  N_20
    4  A    between atoms: C_23  and  C_27
                            x       y       z     vdW  Elec       q    Type
                         _______ _______ _______ _____ _____    ______ ____

>  <TORSDO>
F 4

$$$$
=
 OpenBabel11062422093D

 27 31  0  0  1  0  0  0  0  0999 V2000
  189.3750  175.1620  142.1230 C   0  0  0  0  0  2  0  0  0  0  0  0
  192.8650  175.7460  144.3630 C   0  0  2  0  0  3  0  0  0  0  0  0
  190.4240  176.1480  143.9850 C   0  0  1  0  0  3  0  0  0  0  0  0
  192.8140  176.2860  142.8780 N   0  0  0  0  0  2  0  0  0  0  0  0
  191.6060  176.3190  144.8600 C   0  0  1  0  0  3  0  0  0  0  0  0
  191.2930  176.6270  146.2400 N   0  0  0  0  0  0  0  0  0  0  0  0
  190.7270  175.2760  142.8430 C   0  0  2  0  0  3  0  0  0  0  0  0
  191.5550  177.1660  148.5990 C   0  0  0  0  0  1  0  0  0  0  0  0
  191.8480  175.6490  142.0860 O   0  0  0  0  0  0  0  0  0  0  0  0
  192.0900  176.7360  147.2660 C   0  0  0  0  0  0  0  0  0  0  0  0
  194.3400  175.9180  144.8690 C   0  0  1  0  0  0  0  0  0  0  0  0
  189.1330  175.6600  144.5370 C   0  0  2  0  0  3  0  0  0  0  0  0
  194.4280  176.7360  146.1290 C   0  0  1  0  0  3  0  0  0  0  0  0
  188.3230  175.5320  143.2230 C   0  0  0  0  0  2  0  0  0  0  0  0
  193.4650  176.6560  147.2020 N   0  0  0  0  0  2  0  0  0  0  0  0
  194.8610  175.3500  146.0350 N   0  0  0  0  0  2  0  0  0  0  0  0
  195.4510  174.0210  143.3130 C   0  0  0  0  0  3  0  0  0  0  0  0
  195.0040  172.9260  143.7680 O   0  0  0  0  0  0  0  0  0  0  0  0
  195.1080  175.3330  143.8450 N   0  0  0  0  0  2  0  0  0  0  0  0
  188.7010  176.7540  145.5850 C   0  0  0  0  0  2  0  0  0  0  0  0
  187.7540  176.3280  146.6560 C   0  0  0  0  0  2  0  0  0  0  0  0
  186.1830  177.9460  147.5220 N   0  0  0  0  0  0  0  0  0  0  0  0
  185.0930  178.6650  147.4990 C   0  0  0  0  0  3  0  0  0  0  0  0
  184.7070  177.9260  145.2960 N   0  0  0  0  0  0  0  0  0  0  0  0
  184.2760  178.6620  146.3730 C   0  0  0  0  0  3  0  0  0  0  0  0
  185.7660  177.1220  145.3890 C   0  0  0  0  0  3  0  0  0  0  0  0
  186.4860  177.0230  146.5860 C   0  0  0  0  0  0  0  0  0  0  0  0
  1  7  1  0  0  0  0
  1 14  1  0  0  0  0
  2  4  1  6  0  0  0
  2  5  1  0  0  0  0
  2 11  1  0  0  0  0
  3 12  1  0  0  0  0
  3  5  1  0  0  0  0
  5  6  1  0  0  0  0
  6 10  2  0  0  0  0
  7  3  1  0  0  0  0
  9  7  1  0  0  0  0
  9  4  1  0  0  0  0
 10  8  1  0  0  0  0
 11 16  1  0  0  0  0
 11 13  1  0  0  0  0
 12 20  1  0  0  0  0
 13 15  1  0  0  0  0
 14 12  1  0  0  0  0
 15 10  1  0  0  0  0
 16 13  1  0  0  0  0
 17 18  2  0  0  0  0
 17 19  1  0  0  0  0
 19 11  1  0  0  0  0
 20 21  1  0  0  0  0
 23 22  1  0  0  0  0
 24 26  2  0  0  0  0
 24 25  1  0  0  0  0
 25 23  2  0  0  0  0
 26 27  1  0  0  0  0
 27 21  1  0  0  0  0
 27 22  2  0  0  0  0
M  END
>  <MODEL>
8

>  <REMARK>
 VINA RESULT:      -6.8      3.563      7.515
  Name = 
  4 active torsions:
  status: ('A' for Active; 'I' for Inactive)
    1  A    between atoms: C_7  and  C_18
    2  A    between atoms: C_7  and  C_23
    3  A    between atoms: C_17  and  N_20
    4  A    between atoms: C_23  and  C_27
                            x       y       z     vdW  Elec       q    Type
                         _______ _______ _______ _____ _____    ______ ____

>  <TORSDO>
F 4

$$$$
=
 OpenBabel11062422093D

 27 31  0  0  1  0  0  0  0  0999 V2000
  189.5120  175.3610  142.4730 C   0  0  0  0  0  2  0  0  0  0  0  0
  186.1510  177.3980  143.9180 C   0  0  2  0  0  3  0  0  0  0  0  0
  188.2960  176.1710  144.3170 C   0  0  1  0  0  3  0  0  0  0  0  0
  185.9410  176.0410  143.1370 N   0  0  0  0  0  2  0  0  0  0  0  0
  187.1720  176.9560  144.8780 C   0  0  1  0  0  3  0  0  0  0  0  0
  187.4380  177.5420  146.1760 N   0  0  0  0  0  0  0  0  0  0  0  0
  188.2400  176.1340  142.8500 C   0  0  2  0  0  3  0  0  0  0  0  0
  187.1360  178.7650  148.2580 C   0  0  0  0  0  1  0  0  0  0  0  0
  187.0200  175.7000  142.3080 O   0  0  0  0  0  0  0  0  0  0  0  0
  186.7050  178.3590  146.8810 C   0  0  0  0  0  0  0  0  0  0  0  0
  184.7330  178.0260  144.1470 C   0  0  1  0  0  0  0  0  0  0  0  0
  189.7030  176.5040  144.6620 C   0  0  2  0  0  3  0  0  0  0  0  0
  184.4440  178.2910  145.6010 C   0  0  1  0  0  3  0  0  0  0  0  0
  190.4380  175.5120  143.7280 C   0  0  0  0  0  2  0  0  0  0  0  0
  185.4340  178.7670  146.5370 N   0  0  0  0  0  2  0  0  0  0  0  0
  184.4930  179.3320  144.5860 N   0  0  0  0  0  2  0  0  0  0  0  0
  184.4850  178.2750  141.4770 C   0  0  0  0  0  3  0  0  0  0  0  0
  185.6230  178.6660  141.0810 O   0  0  0  0  0  0  0  0  0  0  0  0
  184.1490  177.9950  142.8670 N   0  0  0  0  0  2  0  0  0  0  0  0
  189.8010  176.2870  146.2190 C   0  0  0  0  0  2  0  0  0  0  0  0
  190.5410  175.0790  146.6870 C   0  0  0  0  0  2  0  0  0  0  0  0
  192.7230  174.3840  145.9170 N   0  0  0  0  0  0  0  0  0  0  0  0
  194.0140  174.5010  145.7620 C   0  0  0  0  0  3  0  0  0  0  0  0
  193.8770  176.6760  146.6550 N   0  0  0  0  0  0  0  0  0  0  0  0
  194.6640  175.6640  146.1600 C   0  0  0  0  0  3  0  0  0  0  0  0
  192.5810  176.4860  146.8980 C   0  0  0  0  0  3  0  0  0  0  0  0
  191.9770  175.2500  146.6340 C   0  0  0  0  0  0  0  0  0  0  0  0
  1  7  1  0  0  0  0
  1 14  1  0  0  0  0
  2  4  1  1  0  0  0
  2 11  1  0  0  0  0
  2  5  1  0  0  0  0
  3 12  1  0  0  0  0
  3  5  1  0  0  0  0
  5  6  1  0  0  0  0
  6 10  2  0  0  0  0
  7  3  1  0  0  0  0
  9  7  1  0  0  0  0
  9  4  1  0  0  0  0
 10  8  1  0  0  0  0
 11 16  1  0  0  0  0
 11 13  1  0  0  0  0
 12 20  1  0  0  0  0
 13 15  1  0  0  0  0
 14 12  1  0  0  0  0
 15 10  1  0  0  0  0
 16 13  1  0  0  0  0
 17 19  1  0  0  0  0
 18 17  2  0  0  0  0
 19 11  1  0  0  0  0
 20 21  1  0  0  0  0
 22 27  1  0  0  0  0
 23 22  2  0  0  0  0
 23 25  1  0  0  0  0
 24 26  1  0  0  0  0
 25 24  2  0  0  0  0
 27 21  1  0  0  0  0
 27 26  2  0  0  0  0
M  END
>  <MODEL>
9

>  <REMARK>
 VINA RESULT:      -6.7      2.014      4.063
  Name = 
  4 active torsions:
  status: ('A' for Active; 'I' for Inactive)
    1  A    between atoms: C_7  and  C_18
    2  A    between atoms: C_7  and  C_23
    3  A    between atoms: C_17  and  N_20
    4  A    between atoms: C_23  and  C_27
                            x       y       z     vdW  Elec       q    Type
                         _______ _______ _______ _____ _____    ______ ____

>  <TORSDO>
F 4

$$$$
