=
 OpenBabel11062422093D

 27 29  0  0  1  0  0  0  0  0999 V2000
  187.0930  176.5440  145.3080 C   0  0  0  0  0  3  0  0  0  0  0  0
  189.8070  176.9920  144.6960 C   0  0  0  0  0  0  0  0  0  0  0  0
  187.4900  176.6690  143.9770 C   0  0  0  0  0  0  0  0  0  0  0  0
  189.2220  176.9640  142.3250 O   0  0  0  0  0  1  0  0  0  0  0  0
  190.2800  176.9560  147.0950 O   0  0  0  0  0  1  0  0  0  0  0  0
  188.0340  176.6310  146.3310 C   0  0  0  0  0  3  0  0  0  0  0  0
  188.8440  176.8810  143.6630 C   0  0  0  0  0  0  0  0  0  0  0  0
  189.3800  176.8550  146.0380 C   0  0  0  0  0  0  0  0  0  0  0  0
  191.2340  177.2680  144.3800 C   0  0  0  0  0  0  0  0  0  0  0  0
  192.2160  176.2400  144.5230 N   0  0  0  0  0  2  0  0  0  0  0  0
  191.5870  178.4070  143.9730 O   0  0  0  0  0  0  0  0  0  0  0  0
  193.5640  176.4450  144.1880 N   0  0  0  0  0  0  0  0  0  0  0  0
  195.1260  178.0250  145.6730 O   0  0  0  0  0  0  0  0  0  0  0  0
  195.5090  174.9860  144.3090 C   0  0  0  0  0  2  0  0  0  0  0  0
  194.4360  176.6800  145.6730 P   0  0  2  0  0  0  0  0  0  0  0  0
  194.0970  175.1680  143.7370 C   0  0  0  0  0  2  0  0  0  0  0  0
  195.5710  175.4370  145.6400 O   0  0  0  0  0  0  0  0  0  0  0  0
  193.4310  176.5290  147.0260 O   0  0  0  0  0  1  0  0  0  0  0  0
  186.4540  176.6110  142.9010 C   0  0  0  0  0  2  0  0  0  0  0  0
  184.1500  178.2900  141.1140 C   0  0  0  0  0  3  0  0  0  0  0  0
  185.5100  178.1720  141.3240 O   0  0  0  0  0  0  0  0  0  0  0  0
  185.8130  177.9760  142.6960 C   0  0  1  0  0  3  0  0  0  0  0  0
  184.4490  178.0130  143.3840 C   0  0  2  0  0  3  0  0  0  0  0  0
  183.4900  178.2060  142.2540 C   0  0  0  0  0  3  0  0  0  0  0  0
  184.9950  180.2250  144.0750 O   0  0  0  0  0  0  0  0  0  0  0  0
  183.6360  179.0660  145.5100 O   0  0  0  0  0  1  0  0  0  0  0  0
  184.3660  179.1670  144.3300 C   0  0  0  0  0  0  0  0  0  0  0  0
  1  6  1  0  0  0  0
  2  8  1  0  0  0  0
  3  1  2  0  0  0  0
  4  7  1  0  0  0  0
  7  3  1  0  0  0  0
  7  2  2  0  0  0  0
  8  6  2  0  0  0  0
  8  5  1  0  0  0  0
  9 10  1  0  0  0  0
  9  2  1  0  0  0  0
 11  9  2  0  0  0  0
 12 10  1  0  0  0  0
 12 15  1  0  0  0  0
 14 17  1  0  0  0  0
 15 13  2  1  0  0  0
 15 18  1  0  0  0  0
 16 12  1  0  0  0  0
 16 14  1  0  0  0  0
 17 15  1  0  0  0  0
 19  3  1  0  0  0  0
 20 21  1  0  0  0  0
 20 24  2  0  0  0  0
 21 22  1  0  0  0  0
 22 19  1  6  0  0  0
 22 23  1  0  0  0  0
 23 27  1  1  0  0  0
 24 23  1  0  0  0  0
 25 27  2  0  0  0  0
 27 26  1  0  0  0  0
M  END
>  <MODEL>
1

>  <REMARK>
 VINA RESULT:      -7.3      0.000      0.000
  Name = 
  5 active torsions:
  status: ('A' for Active; 'I' for Inactive)
    1  A    between atoms: C_1  and  C_8
    2  A    between atoms: N_2  and  N_6
    3  A    between atoms: C_4  and  C_11
    4  A    between atoms: C_4  and  C_22
    5  A    between atoms: C_23  and  C_25
                            x       y       z     vdW  Elec       q    Type
                         _______ _______ _______ _____ _____    ______ ____

>  <TORSDO>
F 5

$$$$
=
 OpenBabel11062422093D

 27 29  0  0  1  0  0  0  0  0999 V2000
  187.3220  175.6400  143.4130 C   0  0  0  0  0  3  0  0  0  0  0  0
  190.0860  176.1920  143.4240 C   0  0  0  0  0  0  0  0  0  0  0  0
  187.8450  176.5390  144.3430 C   0  0  0  0  0  0  0  0  0  0  0  0
  189.7120  177.7580  145.2600 O   0  0  0  0  0  1  0  0  0  0  0  0
  190.3320  174.6330  141.5560 O   0  0  0  0  0  1  0  0  0  0  0  0
  188.1600  175.0240  142.4870 C   0  0  0  0  0  3  0  0  0  0  0  0
  189.2200  176.8280  144.3470 C   0  0  0  0  0  0  0  0  0  0  0  0
  189.5310  175.2890  142.4860 C   0  0  0  0  0  0  0  0  0  0  0  0
  191.5510  176.4490  143.4520 C   0  0  0  0  0  0  0  0  0  0  0  0
  192.4160  175.6130  144.2220 N   0  0  0  0  0  2  0  0  0  0  0  0
  192.0420  177.4000  142.7860 O   0  0  0  0  0  0  0  0  0  0  0  0
  193.8080  175.7920  144.2340 N   0  0  0  0  0  0  0  0  0  0  0  0
  194.9350  177.7330  145.6850 O   0  0  0  0  0  0  0  0  0  0  0  0
  195.6060  174.4810  145.2220 C   0  0  0  0  0  2  0  0  0  0  0  0
  194.2390  176.3970  145.8050 P   0  0  2  0  0  0  0  0  0  0  0  0
  194.4140  174.4680  144.2560 C   0  0  0  0  0  2  0  0  0  0  0  0
  195.3070  175.2270  146.3760 O   0  0  0  0  0  0  0  0  0  0  0  0
  192.8940  176.5180  146.8250 O   0  0  0  0  0  1  0  0  0  0  0  0
  186.9280  177.1560  145.3500 C   0  0  0  0  0  2  0  0  0  0  0  0
  184.0290  178.8250  145.7200 C   0  0  0  0  0  3  0  0  0  0  0  0
  184.5960  177.5670  145.8060 O   0  0  0  0  0  0  0  0  0  0  0  0
  185.5340  177.3440  144.7670 C   0  0  1  0  0  3  0  0  0  0  0  0
  185.4900  178.6330  143.9470 C   0  0  2  0  0  3  0  0  0  0  0  0
  184.5020  179.4810  144.6780 C   0  0  0  0  0  3  0  0  0  0  0  0
  185.8150  178.4000  141.5990 O   0  0  0  0  0  0  0  0  0  0  0  0
  183.6590  178.1050  142.3160 O   0  0  0  0  0  1  0  0  0  0  0  0
  185.0050  178.3600  142.5600 C   0  0  0  0  0  0  0  0  0  0  0  0
  1  3  1  0  0  0  0
  2  9  1  0  0  0  0
  2  7  1  0  0  0  0
  3  7  2  0  0  0  0
  3 19  1  0  0  0  0
  5  8  1  0  0  0  0
  6  1  2  0  0  0  0
  7  4  1  0  0  0  0
  8  6  1  0  0  0  0
  8  2  2  0  0  0  0
  9 10  1  0  0  0  0
 10 12  1  0  0  0  0
 11  9  2  0  0  0  0
 12 16  1  0  0  0  0
 12 15  1  0  0  0  0
 14 17  1  0  0  0  0
 15 13  2  6  0  0  0
 15 17  1  0  0  0  0
 15 18  1  0  0  0  0
 16 14  1  0  0  0  0
 20 21  1  0  0  0  0
 22 19  1  1  0  0  0
 22 21  1  0  0  0  0
 23 27  1  6  0  0  0
 23 24  1  0  0  0  0
 23 22  1  0  0  0  0
 24 20  2  0  0  0  0
 25 27  2  0  0  0  0
 26 27  1  0  0  0  0
M  END
>  <MODEL>
2

>  <REMARK>
 VINA RESULT:      -7.1      1.369      2.611
  Name = 
  5 active torsions:
  status: ('A' for Active; 'I' for Inactive)
    1  A    between atoms: C_1  and  C_8
    2  A    between atoms: N_2  and  N_6
    3  A    between atoms: C_4  and  C_11
    4  A    between atoms: C_4  and  C_22
    5  A    between atoms: C_23  and  C_25
                            x       y       z     vdW  Elec       q    Type
                         _______ _______ _______ _____ _____    ______ ____

>  <TORSDO>
F 5

$$$$
=
 OpenBabel11062422093D

 27 29  0  0  1  0  0  0  0  0999 V2000
  188.8410  175.2880  146.5610 C   0  0  0  0  0  3  0  0  0  0  0  0
  189.7360  174.8550  143.9240 C   0  0  0  0  0  0  0  0  0  0  0  0
  188.5250  176.2090  145.5630 C   0  0  0  0  0  0  0  0  0  0  0  0
  188.5980  176.9090  143.2570 O   0  0  0  0  0  1  0  0  0  0  0  0
  190.7990  172.7930  144.7000 O   0  0  0  0  0  1  0  0  0  0  0  0
  189.5880  174.1520  146.2550 C   0  0  0  0  0  3  0  0  0  0  0  0
  188.9590  175.9940  144.2430 C   0  0  0  0  0  0  0  0  0  0  0  0
  190.0380  173.9300  144.9520 C   0  0  0  0  0  0  0  0  0  0  0  0
  190.2450  174.6420  142.5430 C   0  0  0  0  0  0  0  0  0  0  0  0
  189.4430  173.9600  141.5760 N   0  0  0  0  0  2  0  0  0  0  0  0
  191.3820  175.0700  142.2100 O   0  0  0  0  0  0  0  0  0  0  0  0
  189.8650  173.7830  140.2490 N   0  0  0  0  0  0  0  0  0  0  0  0
  191.8160  172.0600  139.6430 O   0  0  0  0  0  0  0  0  0  0  0  0
  188.8020  172.7230  138.3330 C   0  0  0  0  0  2  0  0  0  0  0  0
  190.3720  172.1290  140.0830 P   0  0  2  0  0  0  0  0  0  0  0  0
  188.6770  173.8090  139.4090 C   0  0  0  0  0  2  0  0  0  0  0  0
  189.3590  171.5480  138.8700 O   0  0  0  0  0  0  0  0  0  0  0  0
  190.1440  171.2530  141.5130 O   0  0  0  0  0  1  0  0  0  0  0  0
  187.7560  177.4380  145.9270 C   0  0  0  0  0  2  0  0  0  0  0  0
  184.7010  178.3130  147.0360 C   0  0  0  0  0  3  0  0  0  0  0  0
  185.5870  177.2540  146.9630 O   0  0  0  0  0  0  0  0  0  0  0  0
  186.2630  177.2220  145.7180 C   0  0  1  0  0  3  0  0  0  0  0  0
  185.6760  178.4040  144.9480 C   0  0  2  0  0  3  0  0  0  0  0  0
  184.7090  179.0070  145.9140 C   0  0  0  0  0  3  0  0  0  0  0  0
  183.8940  178.5070  143.3710 O   0  0  0  0  0  1  0  0  0  0  0  0
  185.4200  176.8360  143.0060 O   0  0  0  0  0  0  0  0  0  0  0  0
  184.9550  177.9320  143.7270 C   0  0  0  0  0  0  0  0  0  0  0  0
  2  7  2  0  0  0  0
  2  8  1  0  0  0  0
  3 19  1  0  0  0  0
  3  1  2  0  0  0  0
  4  7  1  0  0  0  0
  5  8  1  0  0  0  0
  6  1  1  0  0  0  0
  7  3  1  0  0  0  0
  8  6  2  0  0  0  0
  9  2  1  0  0  0  0
 10  9  1  0  0  0  0
 11  9  2  0  0  0  0
 12 10  1  0  0  0  0
 14 17  1  0  0  0  0
 14 16  1  0  0  0  0
 15 13  2  6  0  0  0
 15 12  1  0  0  0  0
 15 18  1  0  0  0  0
 16 12  1  0  0  0  0
 17 15  1  0  0  0  0
 21 20  1  0  0  0  0
 22 19  1  1  0  0  0
 22 21  1  0  0  0  0
 23 27  1  6  0  0  0
 23 22  1  0  0  0  0
 23 24  1  0  0  0  0
 24 20  2  0  0  0  0
 25 27  1  0  0  0  0
 26 27  2  0  0  0  0
M  END
>  <MODEL>
3

>  <REMARK>
 VINA RESULT:      -7.0      3.858      5.197
  Name = 
  5 active torsions:
  status: ('A' for Active; 'I' for Inactive)
    1  A    between atoms: C_1  and  C_8
    2  A    between atoms: N_2  and  N_6
    3  A    between atoms: C_4  and  C_11
    4  A    between atoms: C_4  and  C_22
    5  A    between atoms: C_23  and  C_25
                            x       y       z     vdW  Elec       q    Type
                         _______ _______ _______ _____ _____    ______ ____

>  <TORSDO>
F 5

$$$$
=
 OpenBabel11062422093D

 27 29  0  0  1  0  0  0  0  0999 V2000
  187.7060  177.2040  145.6840 C   0  0  0  0  0  3  0  0  0  0  0  0
  190.2320  175.9830  145.4180 C   0  0  0  0  0  0  0  0  0  0  0  0
  188.0110  176.4880  144.5260 C   0  0  0  0  0  0  0  0  0  0  0  0
  189.5300  175.1260  143.2430 O   0  0  0  0  0  1  0  0  0  0  0  0
  190.8080  176.8590  147.6280 O   0  0  0  0  0  1  0  0  0  0  0  0
  188.6430  177.3080  146.7090 C   0  0  0  0  0  3  0  0  0  0  0  0
  189.2640  175.8670  144.3910 C   0  0  0  0  0  0  0  0  0  0  0  0
  189.8980  176.7090  146.5860 C   0  0  0  0  0  0  0  0  0  0  0  0
  191.5810  175.3740  145.2660 C   0  0  0  0  0  0  0  0  0  0  0  0
  192.6650  176.1420  144.7400 N   0  0  0  0  0  2  0  0  0  0  0  0
  191.7820  174.1780  145.6110 O   0  0  0  0  0  0  0  0  0  0  0  0
  193.9630  175.6200  144.6280 N   0  0  0  0  0  0  0  0  0  0  0  0
  194.5520  173.7800  142.7820 O   0  0  0  0  0  1  0  0  0  0  0  0
  196.0430  176.5950  143.8240 C   0  0  0  0  0  2  0  0  0  0  0  0
  194.2270  175.2460  142.9520 P   0  0  2  0  0  0  0  0  0  0  0  0
  194.8920  176.7220  144.8300 C   0  0  0  0  0  2  0  0  0  0  0  0
  195.5650  176.1930  142.5640 O   0  0  0  0  0  0  0  0  0  0  0  0
  192.9010  175.6750  141.9930 O   0  0  0  0  0  0  0  0  0  0  0  0
  187.0010  176.4260  143.4250 C   0  0  0  0  0  2  0  0  0  0  0  0
  185.2300  178.2000  141.1800 C   0  0  0  0  0  3  0  0  0  0  0  0
  186.5020  178.0250  141.6900 O   0  0  0  0  0  0  0  0  0  0  0  0
  186.4790  177.8170  143.0930 C   0  0  1  0  0  3  0  0  0  0  0  0
  184.9980  177.9110  143.4560 C   0  0  2  0  0  3  0  0  0  0  0  0
  184.3280  178.1440  142.1420 C   0  0  0  0  0  3  0  0  0  0  0  0
  185.4420  180.1120  144.2510 O   0  0  0  0  0  0  0  0  0  0  0  0
  183.7960  178.9840  145.3790 O   0  0  0  0  0  1  0  0  0  0  0  0
  184.7510  179.0680  144.3700 C   0  0  0  0  0  0  0  0  0  0  0  0
  1  6  1  0  0  0  0
  2  8  1  0  0  0  0
  3  1  2  0  0  0  0
  4  7  1  0  0  0  0
  7  3  1  0  0  0  0
  7  2  2  0  0  0  0
  8  6  2  0  0  0  0
  8  5  1  0  0  0  0
  9  2  1  0  0  0  0
  9 11  2  0  0  0  0
 10  9  1  0  0  0  0
 12 10  1  0  0  0  0
 12 16  1  0  0  0  0
 13 15  1  0  0  0  0
 14 16  1  0  0  0  0
 15 18  2  6  0  0  0
 15 12  1  0  0  0  0
 17 15  1  0  0  0  0
 17 14  1  0  0  0  0
 19  3  1  0  0  0  0
 20 21  1  0  0  0  0
 20 24  2  0  0  0  0
 21 22  1  0  0  0  0
 22 19  1  6  0  0  0
 22 23  1  0  0  0  0
 23 27  1  1  0  0  0
 24 23  1  0  0  0  0
 25 27  2  0  0  0  0
 27 26  1  0  0  0  0
M  END
>  <MODEL>
4

>  <REMARK>
 VINA RESULT:      -7.0      1.761      2.133
  Name = 
  5 active torsions:
  status: ('A' for Active; 'I' for Inactive)
    1  A    between atoms: C_1  and  C_8
    2  A    between atoms: N_2  and  N_6
    3  A    between atoms: C_4  and  C_11
    4  A    between atoms: C_4  and  C_22
    5  A    between atoms: C_23  and  C_25
                            x       y       z     vdW  Elec       q    Type
                         _______ _______ _______ _____ _____    ______ ____

>  <TORSDO>
F 5

$$$$
=
 OpenBabel11062422093D

 27 29  0  0  1  0  0  0  0  0999 V2000
  192.5730  175.7110  146.8880 C   0  0  0  0  0  3  0  0  0  0  0  0
  190.0180  176.0690  145.7530 C   0  0  0  0  0  0  0  0  0  0  0  0
  192.4390  176.4190  145.6930 C   0  0  0  0  0  0  0  0  0  0  0  0
  191.0550  177.3530  143.9550 O   0  0  0  0  0  1  0  0  0  0  0  0
  189.0870  174.8030  147.6280 O   0  0  0  0  0  1  0  0  0  0  0  0
  191.4480  175.1910  147.5240 C   0  0  0  0  0  3  0  0  0  0  0  0
  191.1670  176.6110  145.1270 C   0  0  0  0  0  0  0  0  0  0  0  0
  190.1780  175.3600  146.9680 C   0  0  0  0  0  0  0  0  0  0  0  0
  188.6730  176.2200  145.1380 C   0  0  0  0  0  0  0  0  0  0  0  0
  187.7740  177.2280  145.6070 N   0  0  0  0  0  2  0  0  0  0  0  0
  188.3170  175.4680  144.1900 O   0  0  0  0  0  0  0  0  0  0  0  0
  186.5160  177.4360  145.0190 N   0  0  0  0  0  0  0  0  0  0  0  0
  184.3010  177.5350  146.5110 O   0  0  0  0  0  0  0  0  0  0  0  0
  185.5040  179.4010  143.9990 C   0  0  0  0  0  2  0  0  0  0  0  0
  185.5490  178.3140  146.1660 P   0  0  2  0  0  0  0  0  0  0  0  0
  186.6880  178.4260  143.9660 C   0  0  0  0  0  2  0  0  0  0  0  0
  185.1530  179.7170  145.3230 O   0  0  0  0  0  0  0  0  0  0  0  0
  186.4190  178.6910  147.5680 O   0  0  0  0  0  1  0  0  0  0  0  0
  193.6670  176.9320  145.0130 C   0  0  0  0  0  2  0  0  0  0  0  0
  195.6540  176.2270  142.3900 C   0  0  0  0  0  3  0  0  0  0  0  0
  194.3780  176.0410  142.8890 O   0  0  0  0  0  0  0  0  0  0  0  0
  194.3920  175.8080  144.2870 C   0  0  1  0  0  3  0  0  0  0  0  0
  195.8760  175.8330  144.6510 C   0  0  2  0  0  3  0  0  0  0  0  0
  196.5520  176.1210  143.3510 C   0  0  0  0  0  3  0  0  0  0  0  0
  197.5150  174.1530  145.0520 O   0  0  0  0  0  0  0  0  0  0  0  0
  195.3970  173.6310  145.7530 O   0  0  0  0  0  1  0  0  0  0  0  0
  196.3140  174.5030  145.1740 C   0  0  0  0  0  0  0  0  0  0  0  0
  1  6  1  0  0  0  0
  2  8  1  0  0  0  0
  3  1  2  0  0  0  0
  4  7  1  0  0  0  0
  7  3  1  0  0  0  0
  7  2  2  0  0  0  0
  8  6  2  0  0  0  0
  8  5  1  0  0  0  0
  9 10  1  0  0  0  0
  9  2  1  0  0  0  0
 11  9  2  0  0  0  0
 12 10  1  0  0  0  0
 12 15  1  0  0  0  0
 14 17  1  0  0  0  0
 15 13  2  1  0  0  0
 15 18  1  0  0  0  0
 16 14  1  0  0  0  0
 16 12  1  0  0  0  0
 17 15  1  0  0  0  0
 19  3  1  0  0  0  0
 20 21  1  0  0  0  0
 20 24  2  0  0  0  0
 21 22  1  0  0  0  0
 22 23  1  0  0  0  0
 22 19  1  1  0  0  0
 23 27  1  6  0  0  0
 24 23  1  0  0  0  0
 25 27  2  0  0  0  0
 27 26  1  0  0  0  0
M  END
>  <MODEL>
5

>  <REMARK>
 VINA RESULT:      -6.9      3.069      8.544
  Name = 
  5 active torsions:
  status: ('A' for Active; 'I' for Inactive)
    1  A    between atoms: C_1  and  C_8
    2  A    between atoms: N_2  and  N_6
    3  A    between atoms: C_4  and  C_11
    4  A    between atoms: C_4  and  C_22
    5  A    between atoms: C_23  and  C_25
                            x       y       z     vdW  Elec       q    Type
                         _______ _______ _______ _____ _____    ______ ____

>  <TORSDO>
F 5

$$$$
=
 OpenBabel11062422093D

 27 29  0  0  1  0  0  0  0  0999 V2000
  188.8630  175.0230  146.6240 C   0  0  0  0  0  3  0  0  0  0  0  0
  190.8220  175.4430  144.6420 C   0  0  0  0  0  0  0  0  0  0  0  0
  189.0620  176.3030  146.1070 C   0  0  0  0  0  0  0  0  0  0  0  0
  190.1820  177.7980  144.5840 O   0  0  0  0  0  1  0  0  0  0  0  0
  191.3470  173.0570  144.7560 O   0  0  0  0  0  1  0  0  0  0  0  0
  189.6230  173.9530  146.1560 C   0  0  0  0  0  3  0  0  0  0  0  0
  190.0290  176.5180  145.1110 C   0  0  0  0  0  0  0  0  0  0  0  0
  190.5980  174.1520  145.1760 C   0  0  0  0  0  0  0  0  0  0  0  0
  191.8840  175.6660  143.6250 C   0  0  0  0  0  0  0  0  0  0  0  0
  193.2620  175.5270  143.9780 N   0  0  0  0  0  2  0  0  0  0  0  0
  191.5780  175.9700  142.4400 O   0  0  0  0  0  0  0  0  0  0  0  0
  194.2920  175.6800  143.0350 N   0  0  0  0  0  0  0  0  0  0  0  0
  196.4960  177.0730  143.6190 O   0  0  0  0  0  0  0  0  0  0  0  0
  195.9310  174.1120  142.1510 C   0  0  0  0  0  2  0  0  0  0  0  0
  195.7880  175.7710  143.9150 P   0  0  2  0  0  0  0  0  0  0  0  0
  194.4380  174.4070  142.3440 C   0  0  0  0  0  2  0  0  0  0  0  0
  196.6640  174.4720  143.2960 O   0  0  0  0  0  0  0  0  0  0  0  0
  195.5540  175.5880  145.5800 O   0  0  0  0  0  1  0  0  0  0  0  0
  188.2590  177.4390  146.6560 C   0  0  0  0  0  2  0  0  0  0  0  0
  185.1820  178.5320  147.4710 C   0  0  0  0  0  3  0  0  0  0  0  0
  186.0500  177.4670  147.6220 O   0  0  0  0  0  0  0  0  0  0  0  0
  186.7710  177.2060  146.4300 C   0  0  1  0  0  3  0  0  0  0  0  0
  186.2340  178.2400  145.4400 C   0  0  2  0  0  3  0  0  0  0  0  0
  185.2440  179.0160  146.2450 C   0  0  0  0  0  3  0  0  0  0  0  0
  184.4830  178.0520  143.8370 O   0  0  0  0  0  1  0  0  0  0  0  0
  186.0560  176.3860  143.7580 O   0  0  0  0  0  0  0  0  0  0  0  0
  185.5500  177.5670  144.2940 C   0  0  0  0  0  0  0  0  0  0  0  0
  2  7  2  0  0  0  0
  2  8  1  0  0  0  0
  3  1  2  0  0  0  0
  3 19  1  0  0  0  0
  4  7  1  0  0  0  0
  5  8  1  0  0  0  0
  6  1  1  0  0  0  0
  7  3  1  0  0  0  0
  8  6  2  0  0  0  0
  9 10  1  0  0  0  0
  9  2  1  0  0  0  0
 11  9  2  0  0  0  0
 12 15  1  0  0  0  0
 12 10  1  0  0  0  0
 14 16  1  0  0  0  0
 14 17  1  0  0  0  0
 15 13  2  6  0  0  0
 15 18  1  0  0  0  0
 16 12  1  0  0  0  0
 17 15  1  0  0  0  0
 20 21  1  0  0  0  0
 22 19  1  1  0  0  0
 22 21  1  0  0  0  0
 23 27  1  6  0  0  0
 23 24  1  0  0  0  0
 23 22  1  0  0  0  0
 24 20  2  0  0  0  0
 25 27  1  0  0  0  0
 26 27  2  0  0  0  0
M  END
>  <MODEL>
6

>  <REMARK>
 VINA RESULT:      -6.7      2.295      3.273
  Name = 
  5 active torsions:
  status: ('A' for Active; 'I' for Inactive)
    1  A    between atoms: C_1  and  C_8
    2  A    between atoms: N_2  and  N_6
    3  A    between atoms: C_4  and  C_11
    4  A    between atoms: C_4  and  C_22
    5  A    between atoms: C_23  and  C_25
                            x       y       z     vdW  Elec       q    Type
                         _______ _______ _______ _____ _____    ______ ____

>  <TORSDO>
F 5

$$$$
=
 OpenBabel11062422093D

 27 29  0  0  1  0  0  0  0  0999 V2000
  187.2290  178.1700  142.4490 C   0  0  0  0  0  3  0  0  0  0  0  0
  188.1150  175.5740  141.8000 C   0  0  0  0  0  0  0  0  0  0  0  0
  187.7880  177.3610  143.4390 C   0  0  0  0  0  0  0  0  0  0  0  0
  188.8330  175.2970  144.1160 O   0  0  0  0  0  1  0  0  0  0  0  0
  187.3960  175.9830  139.4980 O   0  0  0  0  0  1  0  0  0  0  0  0
  187.1160  177.7000  141.1420 C   0  0  0  0  0  3  0  0  0  0  0  0
  188.2430  176.0700  143.1200 C   0  0  0  0  0  0  0  0  0  0  0  0
  187.5500  176.4150  140.8110 C   0  0  0  0  0  0  0  0  0  0  0  0
  188.5440  174.1910  141.4600 C   0  0  0  0  0  0  0  0  0  0  0  0
  189.8260  173.9570  140.8720 N   0  0  0  0  0  2  0  0  0  0  0  0
  187.7860  173.2120  141.6980 O   0  0  0  0  0  0  0  0  0  0  0  0
  190.2880  172.6630  140.5840 N   0  0  0  0  0  0  0  0  0  0  0  0
  189.2970  171.2740  138.5270 O   0  0  0  0  0  1  0  0  0  0  0  0
  192.3950  171.8580  139.6680 C   0  0  0  0  0  2  0  0  0  0  0  0
  190.1860  172.4500  138.8620 P   0  0  2  0  0  0  0  0  0  0  0  0
  191.7290  172.6630  140.7910 C   0  0  0  0  0  2  0  0  0  0  0  0
  191.7800  172.1230  138.4310 O   0  0  0  0  0  0  0  0  0  0  0  0
  189.6370  173.8490  138.0840 O   0  0  0  0  0  0  0  0  0  0  0  0
  187.8610  177.8760  144.8400 C   0  0  0  0  0  2  0  0  0  0  0  0
  186.3310  178.1140  147.8280 C   0  0  0  0  0  3  0  0  0  0  0  0
  186.8000  177.2050  146.8990 O   0  0  0  0  0  0  0  0  0  0  0  0
  186.5480  177.6350  145.5720 C   0  0  1  0  0  3  0  0  0  0  0  0
  185.8070  178.9600  145.7480 C   0  0  2  0  0  3  0  0  0  0  0  0
  185.7540  179.1390  147.2300 C   0  0  0  0  0  3  0  0  0  0  0  0
  183.4420  178.7940  145.9770 O   0  0  0  0  0  1  0  0  0  0  0  0
  184.2110  178.8210  143.8170 O   0  0  0  0  0  0  0  0  0  0  0  0
  184.4230  178.8690  145.1920 C   0  0  0  0  0  0  0  0  0  0  0  0
  1  3  1  0  0  0  0
  2  7  1  0  0  0  0
  3 19  1  0  0  0  0
  5  8  1  0  0  0  0
  6  1  2  0  0  0  0
  7  3  2  0  0  0  0
  7  4  1  0  0  0  0
  8  6  1  0  0  0  0
  8  2  2  0  0  0  0
  9 11  2  0  0  0  0
  9  2  1  0  0  0  0
 10  9  1  0  0  0  0
 12 16  1  0  0  0  0
 12 10  1  0  0  0  0
 13 15  1  0  0  0  0
 14 16  1  0  0  0  0
 15 18  2  6  0  0  0
 15 12  1  0  0  0  0
 17 15  1  0  0  0  0
 17 14  1  0  0  0  0
 21 20  1  0  0  0  0
 22 19  1  6  0  0  0
 22 23  1  0  0  0  0
 22 21  1  0  0  0  0
 23 27  1  1  0  0  0
 23 24  1  0  0  0  0
 24 20  2  0  0  0  0
 26 27  2  0  0  0  0
 27 25  1  0  0  0  0
M  END
>  <MODEL>
7

>  <REMARK>
 VINA RESULT:      -6.7      3.959      5.766
  Name = 
  5 active torsions:
  status: ('A' for Active; 'I' for Inactive)
    1  A    between atoms: C_1  and  C_8
    2  A    between atoms: N_2  and  N_6
    3  A    between atoms: C_4  and  C_11
    4  A    between atoms: C_4  and  C_22
    5  A    between atoms: C_23  and  C_25
                            x       y       z     vdW  Elec       q    Type
                         _______ _______ _______ _____ _____    ______ ____

>  <TORSDO>
F 5

$$$$
=
 OpenBabel11062422093D

 27 29  0  0  1  0  0  0  0  0999 V2000
  192.1330  175.1160  147.2320 C   0  0  0  0  0  3  0  0  0  0  0  0
  190.6520  176.6960  145.4280 C   0  0  0  0  0  0  0  0  0  0  0  0
  192.3250  174.9630  145.8590 C   0  0  0  0  0  0  0  0  0  0  0  0
  191.8370  175.6120  143.5890 O   0  0  0  0  0  1  0  0  0  0  0  0
  189.5630  177.7430  147.3510 O   0  0  0  0  0  1  0  0  0  0  0  0
  191.2190  176.0520  147.7120 C   0  0  0  0  0  3  0  0  0  0  0  0
  191.5990  175.7560  144.9540 C   0  0  0  0  0  0  0  0  0  0  0  0
  190.4790  176.8380  146.8260 C   0  0  0  0  0  0  0  0  0  0  0  0
  189.8400  177.5040  144.4800 C   0  0  0  0  0  0  0  0  0  0  0  0
  188.4760  177.1630  144.2250 N   0  0  0  0  0  2  0  0  0  0  0  0
  190.3440  178.5050  143.9020 O   0  0  0  0  0  0  0  0  0  0  0  0
  187.6620  177.9290  143.3760 N   0  0  0  0  0  0  0  0  0  0  0  0
  187.1130  177.1150  140.8910 O   0  0  0  0  0  0  0  0  0  0  0  0
  185.2700  178.3790  143.3900 C   0  0  0  0  0  2  0  0  0  0  0  0
  186.8070  176.8240  142.3420 P   0  0  2  0  0  0  0  0  0  0  0  0
  186.5780  178.4670  144.1860 C   0  0  0  0  0  2  0  0  0  0  0  0
  185.1940  177.1650  142.6830 O   0  0  0  0  0  0  0  0  0  0  0  0
  187.1630  175.2120  142.7110 O   0  0  0  0  0  1  0  0  0  0  0  0
  193.2830  173.9240  145.3720 C   0  0  0  0  0  2  0  0  0  0  0  0
  196.4860  173.1480  144.6920 C   0  0  0  0  0  3  0  0  0  0  0  0
  195.5940  173.3360  145.7300 O   0  0  0  0  0  0  0  0  0  0  0  0
  194.7180  174.4220  145.4780 C   0  0  1  0  0  3  0  0  0  0  0  0
  195.1770  174.9590  144.1230 C   0  0  2  0  0  3  0  0  0  0  0  0
  196.2960  174.0450  143.7430 C   0  0  0  0  0  3  0  0  0  0  0  0
  195.0820  177.1670  145.0090 O   0  0  0  0  0  1  0  0  0  0  0  0
  196.7790  176.7920  143.5160 O   0  0  0  0  0  0  0  0  0  0  0  0
  195.6810  176.3600  144.2540 C   0  0  0  0  0  0  0  0  0  0  0  0
  1  6  1  0  0  0  0
  2  8  1  0  0  0  0
  3  1  2  0  0  0  0
  4  7  1  0  0  0  0
  7  2  2  0  0  0  0
  7  3  1  0  0  0  0
  8  5  1  0  0  0  0
  8  6  2  0  0  0  0
  9  2  1  0  0  0  0
 10  9  1  0  0  0  0
 11  9  2  0  0  0  0
 12 16  1  0  0  0  0
 12 10  1  0  0  0  0
 14 16  1  0  0  0  0
 15 13  2  6  0  0  0
 15 17  1  0  0  0  0
 15 18  1  0  0  0  0
 15 12  1  0  0  0  0
 17 14  1  0  0  0  0
 19  3  1  0  0  0  0
 20 21  1  0  0  0  0
 22 19  1  6  0  0  0
 22 21  1  0  0  0  0
 23 27  1  1  0  0  0
 23 22  1  0  0  0  0
 24 23  1  0  0  0  0
 24 20  2  0  0  0  0
 26 27  2  0  0  0  0
 27 25  1  0  0  0  0
M  END
>  <MODEL>
8

>  <REMARK>
 VINA RESULT:      -6.6      2.740      8.410
  Name = 
  5 active torsions:
  status: ('A' for Active; 'I' for Inactive)
    1  A    between atoms: C_1  and  C_8
    2  A    between atoms: N_2  and  N_6
    3  A    between atoms: C_4  and  C_11
    4  A    between atoms: C_4  and  C_22
    5  A    between atoms: C_23  and  C_25
                            x       y       z     vdW  Elec       q    Type
                         _______ _______ _______ _____ _____    ______ ____

>  <TORSDO>
F 5

$$$$
=
 OpenBabel11062422093D

 27 29  0  0  1  0  0  0  0  0999 V2000
  187.8210  176.0020  143.3700 C   0  0  0  0  0  3  0  0  0  0  0  0
  190.5130  175.2690  143.7720 C   0  0  0  0  0  0  0  0  0  0  0  0
  188.4500  176.3100  144.5760 C   0  0  0  0  0  0  0  0  0  0  0  0
  190.4110  176.3110  145.9780 O   0  0  0  0  0  1  0  0  0  0  0  0
  190.5080  174.2970  141.5280 O   0  0  0  0  0  1  0  0  0  0  0  0
  188.5230  175.3420  142.3630 C   0  0  0  0  0  3  0  0  0  0  0  0
  189.7950  175.9580  144.7800 C   0  0  0  0  0  0  0  0  0  0  0  0
  189.8560  174.9730  142.5530 C   0  0  0  0  0  0  0  0  0  0  0  0
  191.9210  174.8450  143.9940 C   0  0  0  0  0  0  0  0  0  0  0  0
  193.0000  175.6390  143.4980 N   0  0  0  0  0  2  0  0  0  0  0  0
  192.1750  173.7870  144.6320 O   0  0  0  0  0  0  0  0  0  0  0  0
  194.3430  175.3000  143.7300 N   0  0  0  0  0  0  0  0  0  0  0  0
  195.6880  173.7540  142.0150 O   0  0  0  0  0  1  0  0  0  0  0  0
  196.3920  176.6100  143.6230 C   0  0  0  0  0  2  0  0  0  0  0  0
  195.1120  175.1410  142.1790 P   0  0  2  0  0  0  0  0  0  0  0  0
  195.0030  176.4830  144.2610 C   0  0  0  0  0  2  0  0  0  0  0  0
  196.3450  176.2850  142.2550 O   0  0  0  0  0  0  0  0  0  0  0  0
  194.0510  175.4970  140.9100 O   0  0  0  0  0  0  0  0  0  0  0  0
  187.6610  176.9830  145.6530 C   0  0  0  0  0  2  0  0  0  0  0  0
  184.5840  177.7790  146.7580 C   0  0  0  0  0  3  0  0  0  0  0  0
  185.3430  176.7340  146.2670 O   0  0  0  0  0  0  0  0  0  0  0  0
  186.2100  177.1600  145.2290 C   0  0  1  0  0  3  0  0  0  0  0  0
  185.8980  178.6480  145.0740 C   0  0  2  0  0  3  0  0  0  0  0  0
  184.8580  178.8990  146.1170 C   0  0  0  0  0  3  0  0  0  0  0  0
  184.0950  178.9920  143.5560 O   0  0  0  0  0  1  0  0  0  0  0  0
  186.1860  179.0860  142.6210 O   0  0  0  0  0  0  0  0  0  0  0  0
  185.3410  178.9320  143.7160 C   0  0  0  0  0  0  0  0  0  0  0  0
  1  3  1  0  0  0  0
  2  9  1  0  0  0  0
  2  7  1  0  0  0  0
  3  7  2  0  0  0  0
  3 19  1  0  0  0  0
  5  8  1  0  0  0  0
  6  8  1  0  0  0  0
  6  1  2  0  0  0  0
  7  4  1  0  0  0  0
  8  2  2  0  0  0  0
  9 11  2  0  0  0  0
 10 12  1  0  0  0  0
 10  9  1  0  0  0  0
 12 16  1  0  0  0  0
 13 15  1  0  0  0  0
 14 16  1  0  0  0  0
 15 18  2  6  0  0  0
 15 17  1  0  0  0  0
 15 12  1  0  0  0  0
 17 14  1  0  0  0  0
 21 20  1  0  0  0  0
 22 19  1  1  0  0  0
 22 21  1  0  0  0  0
 23 27  1  6  0  0  0
 23 22  1  0  0  0  0
 23 24  1  0  0  0  0
 24 20  2  0  0  0  0
 25 27  1  0  0  0  0
 26 27  2  0  0  0  0
M  END
>  <MODEL>
9

>  <REMARK>
 VINA RESULT:      -6.6      2.422      3.626
  Name = 
  5 active torsions:
  status: ('A' for Active; 'I' for Inactive)
    1  A    between atoms: C_1  and  C_8
    2  A    between atoms: N_2  and  N_6
    3  A    between atoms: C_4  and  C_11
    4  A    between atoms: C_4  and  C_22
    5  A    between atoms: C_23  and  C_25
                            x       y       z     vdW  Elec       q    Type
                         _______ _______ _______ _____ _____    ______ ____

>  <TORSDO>
F 5

$$$$
