=
 OpenBabel11062422103D

 27 29  0  0  1  0  0  0  0  0999 V2000
  186.1230  177.5690  144.3610 C   0  0  1  0  0  3  0  0  0  0  0  0
  188.0370  174.5950  141.4680 N   0  0  0  0  0  1  0  0  0  0  0  0
  185.3560  177.5470  143.0450 C   0  0  2  0  0  3  0  0  0  0  0  0
  185.1930  177.3230  145.5460 C   0  0  0  0  0  2  0  0  0  0  0  0
  186.8710  176.6180  141.4300 N   0  0  0  0  0  0  0  0  0  0  0  0
  185.9330  177.6720  146.8310 C   0  0  0  0  0  2  0  0  0  0  0  0
  187.8240  175.9050  143.5310 N   0  0  0  0  0  0  0  0  0  0  0  0
  187.3320  176.6490  144.4880 C   0  0  0  0  0  0  0  0  0  0  0  0
  187.5230  175.7430  142.1330 C   0  0  0  0  0  0  0  0  0  0  0  0
  186.3270  177.8580  141.9360 C   0  0  0  0  0  2  0  0  0  0  0  0
  187.9270  176.5130  145.8530 C   0  0  0  0  0  0  0  0  0  0  0  0
  187.2420  176.9380  146.9250 C   0  0  0  0  0  3  0  0  0  0  0  0
  189.3230  174.6180  147.1830 S   0  0  0  0  0  0  0  0  0  0  0  0
  189.2270  175.8360  146.0800 C   0  0  0  0  0  0  0  0  0  0  0  0
  193.9130  176.1900  144.5420 C   0  0  0  0  0  0  0  0  0  0  0  0
  191.6900  176.1570  145.3980 C   0  0  0  0  0  0  0  0  0  0  0  0
  192.1690  176.4400  146.6850 C   0  0  0  0  0  3  0  0  0  0  0  0
  194.4210  176.4620  145.8190 C   0  0  0  0  0  3  0  0  0  0  0  0
  190.2870  176.0380  145.1290 N   0  0  0  0  0  2  0  0  0  0  0  0
  192.5700  176.0560  144.3650 N   0  0  0  0  0  0  0  0  0  0  0  0
  193.5410  176.5860  146.8920 C   0  0  0  0  0  3  0  0  0  0  0  0
  194.8230  176.0700  143.3630 C   0  0  2  0  0  3  0  0  0  0  0  0
  194.4470  174.9840  142.5690 O   0  0  0  0  0  1  0  0  0  0  0  0
  196.2660  175.9180  143.8140 C   0  0  0  0  0  2  0  0  0  0  0  0
  197.0930  176.9230  143.1700 N   0  0  0  0  0  1  0  0  0  0  0  0
  184.2650  178.6080  143.0460 C   0  0  0  0  0  2  0  0  0  0  0  0
  183.2070  178.2050  142.2290 O   0  0  0  0  0  1  0  0  0  0  0  0
  1  8  1  0  0  0  0
  1  4  1  1  0  0  0
  2  9  1  0  0  0  0
  3 26  1  1  0  0  0
  3  1  1  0  0  0  0
  4  6  1  0  0  0  0
  5 10  1  0  0  0  0
  5  9  2  0  0  0  0
  6 12  1  0  0  0  0
  7  8  2  0  0  0  0
  8 11  1  0  0  0  0
  9  7  1  0  0  0  0
 10  3  1  0  0  0  0
 11 14  1  0  0  0  0
 11 12  2  0  0  0  0
 14 13  2  0  0  0  0
 15 18  2  0  0  0  0
 16 17  1  0  0  0  0
 17 21  2  0  0  0  0
 18 21  1  0  0  0  0
 19 16  1  0  0  0  0
 19 14  1  0  0  0  0
 20 15  1  0  0  0  0
 20 16  2  0  0  0  0
 22 23  1  1  0  0  0
 22 24  1  0  0  0  0
 22 15  1  0  0  0  0
 25 24  1  0  0  0  0
 27 26  1  0  0  0  0
M  END
>  <MODEL>
1

>  <REMARK>
 VINA RESULT:      -7.6      0.000      0.000
  Name = 
  5 active torsions:
  status: ('A' for Active; 'I' for Inactive)
    1  A    between atoms: C_2  and  C_4
    2  A    between atoms: C_2  and  C_9
    3  A    between atoms: C_5  and  C_11
    4  A    between atoms: C_14  and  N_17
    5  A    between atoms: C_14  and  C_26
                            x       y       z     vdW  Elec       q    Type
                         _______ _______ _______ _____ _____    ______ ____

>  <TORSDO>
F 5

$$$$
=
 OpenBabel11062422103D

 27 29  0  0  1  0  0  0  0  0999 V2000
  186.5780  177.7990  145.6220 C   0  0  1  0  0  3  0  0  0  0  0  0
  185.5530  178.3260  141.2010 N   0  0  0  0  0  1  0  0  0  0  0  0
  185.0990  178.1250  145.4600 C   0  0  2  0  0  3  0  0  0  0  0  0
  186.7770  176.5230  146.4370 C   0  0  0  0  0  2  0  0  0  0  0  0
  184.8940  179.1340  143.2910 N   0  0  0  0  0  0  0  0  0  0  0  0
  188.2420  176.4210  146.8390 C   0  0  0  0  0  2  0  0  0  0  0  0
  187.0070  177.9740  143.1450 N   0  0  0  0  0  0  0  0  0  0  0  0
  187.4230  177.7070  144.3560 C   0  0  0  0  0  0  0  0  0  0  0  0
  185.7760  178.4810  142.5970 C   0  0  0  0  0  0  0  0  0  0  0  0
  184.9900  179.4230  144.7040 C   0  0  0  0  0  2  0  0  0  0  0  0
  188.8060  177.1630  144.5140 C   0  0  0  0  0  0  0  0  0  0  0  0
  189.1470  176.5220  145.6430 C   0  0  0  0  0  3  0  0  0  0  0  0
  191.3150  177.8020  143.7350 S   0  0  0  0  0  0  0  0  0  0  0  0
  189.8060  177.2260  143.4200 C   0  0  0  0  0  0  0  0  0  0  0  0
  188.8770  173.2510  140.6300 C   0  0  0  0  0  0  0  0  0  0  0  0
  189.4800  175.0840  142.0250 C   0  0  0  0  0  0  0  0  0  0  0  0
  190.0170  174.2020  142.9730 C   0  0  0  0  0  3  0  0  0  0  0  0
  189.3960  172.3440  141.5640 C   0  0  0  0  0  3  0  0  0  0  0  0
  189.5450  176.5060  142.2030 N   0  0  0  0  0  2  0  0  0  0  0  0
  188.9420  174.5870  140.8790 N   0  0  0  0  0  0  0  0  0  0  0  0
  189.9670  172.8270  142.7390 C   0  0  0  0  0  3  0  0  0  0  0  0
  188.2750  172.7730  139.3480 C   0  0  2  0  0  3  0  0  0  0  0  0
  189.0030  171.6930  138.8430 O   0  0  0  0  0  1  0  0  0  0  0  0
  188.2280  173.8980  138.3280 C   0  0  0  0  0  2  0  0  0  0  0  0
  189.3770  173.8110  137.4430 N   0  0  0  0  0  1  0  0  0  0  0  0
  184.4400  178.2990  146.8210 C   0  0  0  0  0  2  0  0  0  0  0  0
  185.2160  179.1370  147.6240 O   0  0  0  0  0  1  0  0  0  0  0  0
  1  4  1  6  0  0  0
  2  9  1  0  0  0  0
  3  1  1  0  0  0  0
  3 26  1  1  0  0  0
  4  6  1  0  0  0  0
  5 10  1  0  0  0  0
  7  8  2  0  0  0  0
  8 11  1  0  0  0  0
  8  1  1  0  0  0  0
  9  7  1  0  0  0  0
  9  5  2  0  0  0  0
 10  3  1  0  0  0  0
 11 12  2  0  0  0  0
 12  6  1  0  0  0  0
 14 13  2  0  0  0  0
 14 11  1  0  0  0  0
 15 20  1  0  0  0  0
 15 18  2  0  0  0  0
 16 19  1  0  0  0  0
 16 17  1  0  0  0  0
 18 21  1  0  0  0  0
 19 14  1  0  0  0  0
 20 16  2  0  0  0  0
 21 17  2  0  0  0  0
 22 23  1  6  0  0  0
 22 15  1  0  0  0  0
 24 22  1  0  0  0  0
 25 24  1  0  0  0  0
 26 27  1  0  0  0  0
M  END
>  <MODEL>
2

>  <REMARK>
 VINA RESULT:      -7.5      3.739      5.201
  Name = 
  5 active torsions:
  status: ('A' for Active; 'I' for Inactive)
    1  A    between atoms: C_2  and  C_4
    2  A    between atoms: C_2  and  C_9
    3  A    between atoms: C_5  and  C_11
    4  A    between atoms: C_14  and  N_17
    5  A    between atoms: C_14  and  C_26
                            x       y       z     vdW  Elec       q    Type
                         _______ _______ _______ _____ _____    ______ ____

>  <TORSDO>
F 5

$$$$
=
 OpenBabel11062422103D

 27 29  0  0  1  0  0  0  0  0999 V2000
  186.5670  177.8140  143.7820 C   0  0  1  0  0  3  0  0  0  0  0  0
  189.5130  177.3820  147.2470 N   0  0  0  0  0  1  0  0  0  0  0  0
  186.1130  178.6560  144.9670 C   0  0  2  0  0  3  0  0  0  0  0  0
  186.6650  178.6550  142.5110 C   0  0  0  0  0  2  0  0  0  0  0  0
  187.2350  177.7370  146.8810 N   0  0  0  0  0  0  0  0  0  0  0  0
  186.8030  177.7220  141.3150 C   0  0  0  0  0  2  0  0  0  0  0  0
  188.5590  176.9140  145.0370 N   0  0  0  0  0  0  0  0  0  0  0  0
  187.8550  177.0130  143.9390 C   0  0  0  0  0  0  0  0  0  0  0  0
  188.3810  177.3830  146.3860 C   0  0  0  0  0  0  0  0  0  0  0  0
  185.9810  177.7470  146.1600 C   0  0  0  0  0  2  0  0  0  0  0  0
  188.4050  176.3820  142.6990 C   0  0  0  0  0  0  0  0  0  0  0  0
  187.9470  176.7640  141.4970 C   0  0  0  0  0  3  0  0  0  0  0  0
  189.2070  173.8170  142.4140 S   0  0  0  0  0  0  0  0  0  0  0  0
  189.5150  175.3990  142.7430 C   0  0  0  0  0  0  0  0  0  0  0  0
  194.1470  175.8030  144.4230 C   0  0  0  0  0  0  0  0  0  0  0  0
  191.8580  175.6680  143.7770 C   0  0  0  0  0  0  0  0  0  0  0  0
  191.5100  175.2310  145.0620 C   0  0  0  0  0  3  0  0  0  0  0  0
  193.8300  175.3580  145.7130 C   0  0  0  0  0  3  0  0  0  0  0  0
  190.8680  175.8850  142.7630 N   0  0  0  0  0  2  0  0  0  0  0  0
  193.1590  175.9550  143.4990 N   0  0  0  0  0  0  0  0  0  0  0  0
  192.5030  175.0710  146.0290 C   0  0  0  0  0  3  0  0  0  0  0  0
  195.5550  176.1400  144.0520 C   0  0  2  0  0  3  0  0  0  0  0  0
  195.6400  176.4340  142.6890 O   0  0  0  0  0  1  0  0  0  0  0  0
  196.4890  174.9930  144.4010 C   0  0  0  0  0  2  0  0  0  0  0  0
  197.7140  175.1000  143.6270 N   0  0  0  0  0  1  0  0  0  0  0  0
  184.7560  179.2860  144.6840 C   0  0  0  0  0  2  0  0  0  0  0  0
  183.8240  178.8540  145.6290 O   0  0  0  0  0  1  0  0  0  0  0  0
  1  4  1  6  0  0  0
  1  8  1  0  0  0  0
  1  3  1  0  0  0  0
  3 26  1  6  0  0  0
  3 10  1  0  0  0  0
  6 12  1  0  0  0  0
  6  4  1  0  0  0  0
  7  9  1  0  0  0  0
  8  7  2  0  0  0  0
  9  5  2  0  0  0  0
  9  2  1  0  0  0  0
 10  5  1  0  0  0  0
 11 14  1  0  0  0  0
 11  8  1  0  0  0  0
 12 11  2  0  0  0  0
 13 14  2  0  0  0  0
 14 19  1  0  0  0  0
 15 18  2  0  0  0  0
 16 17  1  0  0  0  0
 17 21  2  0  0  0  0
 18 21  1  0  0  0  0
 19 16  1  0  0  0  0
 20 16  2  0  0  0  0
 20 15  1  0  0  0  0
 22 23  1  6  0  0  0
 22 24  1  0  0  0  0
 22 15  1  0  0  0  0
 25 24  1  0  0  0  0
 26 27  1  0  0  0  0
M  END
>  <MODEL>
3

>  <REMARK>
 VINA RESULT:      -7.4      1.980      3.276
  Name = 
  5 active torsions:
  status: ('A' for Active; 'I' for Inactive)
    1  A    between atoms: C_2  and  C_4
    2  A    between atoms: C_2  and  C_9
    3  A    between atoms: C_5  and  C_11
    4  A    between atoms: C_14  and  N_17
    5  A    between atoms: C_14  and  C_26
                            x       y       z     vdW  Elec       q    Type
                         _______ _______ _______ _____ _____    ______ ____

>  <TORSDO>
F 5

$$$$
=
 OpenBabel11062422103D

 27 29  0  0  1  0  0  0  0  0999 V2000
  186.8730  177.7330  145.6170 C   0  0  1  0  0  3  0  0  0  0  0  0
  186.0220  178.2520  141.1580 N   0  0  0  0  0  1  0  0  0  0  0  0
  185.5050  178.3700  145.4120 C   0  0  2  0  0  3  0  0  0  0  0  0
  186.7770  176.4870  146.4950 C   0  0  0  0  0  2  0  0  0  0  0  0
  185.5440  179.2890  143.1940 N   0  0  0  0  0  0  0  0  0  0  0  0
  188.1800  176.0830  146.9280 C   0  0  0  0  0  2  0  0  0  0  0  0
  187.3480  177.6840  143.1420 N   0  0  0  0  0  0  0  0  0  0  0  0
  187.6850  177.3930  144.3720 C   0  0  0  0  0  0  0  0  0  0  0  0
  186.2640  178.4230  142.5490 C   0  0  0  0  0  0  0  0  0  0  0  0
  185.6920  179.6210  144.5940 C   0  0  0  0  0  2  0  0  0  0  0  0
  188.9120  176.5640  144.5800 C   0  0  0  0  0  0  0  0  0  0  0  0
  189.0940  175.9220  145.7450 C   0  0  0  0  0  3  0  0  0  0  0  0
  190.9660  177.5520  143.1270 S   0  0  0  0  0  0  0  0  0  0  0  0
  189.9080  176.3490  143.5030 C   0  0  0  0  0  0  0  0  0  0  0  0
  189.8270  172.6380  140.2360 C   0  0  0  0  0  0  0  0  0  0  0  0
  189.6830  174.4340  141.7940 C   0  0  0  0  0  0  0  0  0  0  0  0
  188.6540  175.0180  141.0440 C   0  0  0  0  0  3  0  0  0  0  0  0
  188.8070  173.2040  139.4600 C   0  0  0  0  0  3  0  0  0  0  0  0
  190.1340  175.0100  143.0280 N   0  0  0  0  0  2  0  0  0  0  0  0
  190.2280  173.2580  141.3790 N   0  0  0  0  0  0  0  0  0  0  0  0
  188.2220  174.4000  139.8700 C   0  0  0  0  0  3  0  0  0  0  0  0
  190.4660  171.3450  139.8410 C   0  0  2  0  0  3  0  0  0  0  0  0
  191.8030  171.3230  140.2440 O   0  0  0  0  0  1  0  0  0  0  0  0
  190.3650  171.1370  138.3390 C   0  0  0  0  0  2  0  0  0  0  0  0
  189.6320  169.9150  138.0580 N   0  0  0  0  0  1  0  0  0  0  0  0
  184.8910  178.7550  146.7520 C   0  0  0  0  0  2  0  0  0  0  0  0
  185.7930  179.5260  147.4860 O   0  0  0  0  0  1  0  0  0  0  0  0
  1  4  1  6  0  0  0
  2  9  1  0  0  0  0
  3  1  1  0  0  0  0
  3 26  1  1  0  0  0
  4  6  1  0  0  0  0
  5 10  1  0  0  0  0
  7  8  2  0  0  0  0
  8 11  1  0  0  0  0
  8  1  1  0  0  0  0
  9  7  1  0  0  0  0
  9  5  2  0  0  0  0
 10  3  1  0  0  0  0
 11 12  2  0  0  0  0
 12  6  1  0  0  0  0
 13 14  2  0  0  0  0
 14 11  1  0  0  0  0
 15 20  1  0  0  0  0
 16 19  1  0  0  0  0
 17 16  1  0  0  0  0
 18 21  1  0  0  0  0
 18 15  2  0  0  0  0
 19 14  1  0  0  0  0
 20 16  2  0  0  0  0
 21 17  2  0  0  0  0
 22 15  1  0  0  0  0
 22 23  1  6  0  0  0
 24 22  1  0  0  0  0
 25 24  1  0  0  0  0
 26 27  1  0  0  0  0
M  END
>  <MODEL>
4

>  <REMARK>
 VINA RESULT:      -7.3      3.521      5.347
  Name = 
  5 active torsions:
  status: ('A' for Active; 'I' for Inactive)
    1  A    between atoms: C_2  and  C_4
    2  A    between atoms: C_2  and  C_9
    3  A    between atoms: C_5  and  C_11
    4  A    between atoms: C_14  and  N_17
    5  A    between atoms: C_14  and  C_26
                            x       y       z     vdW  Elec       q    Type
                         _______ _______ _______ _____ _____    ______ ____

>  <TORSDO>
F 5

$$$$
=
 OpenBabel11062422103D

 27 29  0  0  1  0  0  0  0  0999 V2000
  186.9240  177.8750  145.2640 C   0  0  1  0  0  3  0  0  0  0  0  0
  186.9970  177.5920  140.7050 N   0  0  0  0  0  1  0  0  0  0  0  0
  185.5170  178.0370  144.7040 C   0  0  2  0  0  3  0  0  0  0  0  0
  186.9760  176.7690  146.3160 C   0  0  0  0  0  2  0  0  0  0  0  0
  185.8050  178.6620  142.4040 N   0  0  0  0  0  0  0  0  0  0  0  0
  188.3000  176.8650  147.0630 C   0  0  0  0  0  2  0  0  0  0  0  0
  187.9420  177.6880  142.9660 N   0  0  0  0  0  0  0  0  0  0  0  0
  188.0590  177.6570  144.2690 C   0  0  0  0  0  0  0  0  0  0  0  0
  186.8610  177.9880  142.0640 C   0  0  0  0  0  0  0  0  0  0  0  0
  185.5350  179.1820  143.7260 C   0  0  0  0  0  2  0  0  0  0  0  0
  189.3850  177.2710  144.8410 C   0  0  0  0  0  0  0  0  0  0  0  0
  189.4660  176.8540  146.1140 C   0  0  0  0  0  3  0  0  0  0  0  0
  191.2690  178.6640  143.4940 S   0  0  0  0  0  0  0  0  0  0  0  0
  190.6190  177.2470  144.0190 C   0  0  0  0  0  0  0  0  0  0  0  0
  194.0760  174.0100  145.4390 C   0  0  0  0  0  0  0  0  0  0  0  0
  192.5450  175.6920  144.7330 C   0  0  0  0  0  0  0  0  0  0  0  0
  193.2860  176.6680  145.4120 C   0  0  0  0  0  3  0  0  0  0  0  0
  194.8310  174.9620  146.1360 C   0  0  0  0  0  3  0  0  0  0  0  0
  191.3860  176.0320  143.9590 N   0  0  0  0  0  2  0  0  0  0  0  0
  192.9670  174.3980  144.7530 N   0  0  0  0  0  0  0  0  0  0  0  0
  194.4290  176.2970  146.1190 C   0  0  0  0  0  3  0  0  0  0  0  0
  194.4850  172.5720  145.4160 C   0  0  2  0  0  3  0  0  0  0  0  0
  195.7950  172.4490  144.9480 O   0  0  0  0  0  1  0  0  0  0  0  0
  193.5380  171.7610  144.5490 C   0  0  0  0  0  2  0  0  0  0  0  0
  193.6590  170.3500  144.8710 N   0  0  0  0  0  1  0  0  0  0  0  0
  184.5350  178.3680  145.8190 C   0  0  0  0  0  2  0  0  0  0  0  0
  183.4300  179.0430  145.2970 O   0  0  0  0  0  1  0  0  0  0  0  0
  1  4  1  1  0  0  0
  2  9  1  0  0  0  0
  3  1  1  0  0  0  0
  3 26  1  1  0  0  0
  4  6  1  0  0  0  0
  5 10  1  0  0  0  0
  7  8  2  0  0  0  0
  8 11  1  0  0  0  0
  8  1  1  0  0  0  0
  9  5  2  0  0  0  0
  9  7  1  0  0  0  0
 10  3  1  0  0  0  0
 11 12  2  0  0  0  0
 12  6  1  0  0  0  0
 13 14  2  0  0  0  0
 14 11  1  0  0  0  0
 15 18  2  0  0  0  0
 16 20  2  0  0  0  0
 16 17  1  0  0  0  0
 17 21  2  0  0  0  0
 19 14  1  0  0  0  0
 19 16  1  0  0  0  0
 20 15  1  0  0  0  0
 21 18  1  0  0  0  0
 22 23  1  6  0  0  0
 22 15  1  0  0  0  0
 24 25  1  0  0  0  0
 24 22  1  0  0  0  0
 27 26  1  0  0  0  0
M  END
>  <MODEL>
5

>  <REMARK>
 VINA RESULT:      -7.1      2.519      3.046
  Name = 
  5 active torsions:
  status: ('A' for Active; 'I' for Inactive)
    1  A    between atoms: C_2  and  C_4
    2  A    between atoms: C_2  and  C_9
    3  A    between atoms: C_5  and  C_11
    4  A    between atoms: C_14  and  N_17
    5  A    between atoms: C_14  and  C_26
                            x       y       z     vdW  Elec       q    Type
                         _______ _______ _______ _____ _____    ______ ____

>  <TORSDO>
F 5

$$$$
=
 OpenBabel11062422103D

 27 29  0  0  1  0  0  0  0  0999 V2000
  193.8960  174.3920  145.8820 C   0  0  1  0  0  3  0  0  0  0  0  0
  191.2510  171.8330  143.1740 N   0  0  0  0  0  1  0  0  0  0  0  0
  194.7390  173.3600  145.1440 C   0  0  2  0  0  3  0  0  0  0  0  0
  194.4390  175.8030  145.6710 C   0  0  0  0  0  2  0  0  0  0  0  0
  193.2040  171.6530  144.4410 N   0  0  0  0  0  0  0  0  0  0  0  0
  193.7720  176.7400  146.6690 C   0  0  0  0  0  2  0  0  0  0  0  0
  191.7540  173.5370  144.8660 N   0  0  0  0  0  0  0  0  0  0  0  0
  192.3950  174.4000  145.6100 C   0  0  0  0  0  0  0  0  0  0  0  0
  192.1360  172.3380  144.1670 C   0  0  0  0  0  0  0  0  0  0  0  0
  194.1800  171.9960  145.4520 C   0  0  0  0  0  2  0  0  0  0  0  0
  191.6230  175.5570  146.1580 C   0  0  0  0  0  0  0  0  0  0  0  0
  192.2730  176.6500  146.5880 C   0  0  0  0  0  3  0  0  0  0  0  0
  189.3210  174.6730  147.2640 S   0  0  0  0  0  0  0  0  0  0  0  0
  190.1400  175.5820  146.1640 C   0  0  0  0  0  0  0  0  0  0  0  0
  187.2370  177.4540  142.6260 C   0  0  0  0  0  0  0  0  0  0  0  0
  188.7420  176.4840  144.1970 C   0  0  0  0  0  0  0  0  0  0  0  0
  188.9060  175.3670  143.3680 C   0  0  0  0  0  3  0  0  0  0  0  0
  187.3740  176.3460  141.7810 C   0  0  0  0  0  3  0  0  0  0  0  0
  189.4630  176.6160  145.4300 N   0  0  0  0  0  2  0  0  0  0  0  0
  187.9270  177.4980  143.7990 N   0  0  0  0  0  0  0  0  0  0  0  0
  188.2140  175.2990  142.1580 C   0  0  0  0  0  3  0  0  0  0  0  0
  186.3620  178.6060  142.2480 C   0  0  2  0  0  3  0  0  0  0  0  0
  186.1540  179.4390  143.3490 O   0  0  0  0  0  1  0  0  0  0  0  0
  185.0330  178.1100  141.7040 C   0  0  0  0  0  2  0  0  0  0  0  0
  184.0990  177.9010  142.7980 N   0  0  0  0  0  1  0  0  0  0  0  0
  196.1830  173.4110  145.6250 C   0  0  0  0  0  2  0  0  0  0  0  0
  196.6060  172.1360  146.0010 O   0  0  0  0  0  1  0  0  0  0  0  0
  1  4  1  6  0  0  0
  2  9  1  0  0  0  0
  3 10  1  0  0  0  0
  3 26  1  1  0  0  0
  3  1  1  0  0  0  0
  4  6  1  0  0  0  0
  5 10  1  0  0  0  0
  7  8  2  0  0  0  0
  8  1  1  0  0  0  0
  8 11  1  0  0  0  0
  9  5  2  0  0  0  0
  9  7  1  0  0  0  0
 11 14  1  0  0  0  0
 11 12  2  0  0  0  0
 12  6  1  0  0  0  0
 14 13  2  0  0  0  0
 15 20  1  0  0  0  0
 16 19  1  0  0  0  0
 17 16  1  0  0  0  0
 18 21  1  0  0  0  0
 18 15  2  0  0  0  0
 19 14  1  0  0  0  0
 20 16  2  0  0  0  0
 21 17  2  0  0  0  0
 22 15  1  0  0  0  0
 22 23  1  1  0  0  0
 24 22  1  0  0  0  0
 24 25  1  0  0  0  0
 26 27  1  0  0  0  0
M  END
>  <MODEL>
6

>  <REMARK>
 VINA RESULT:      -7.0      2.599      8.109
  Name = 
  5 active torsions:
  status: ('A' for Active; 'I' for Inactive)
    1  A    between atoms: C_2  and  C_4
    2  A    between atoms: C_2  and  C_9
    3  A    between atoms: C_5  and  C_11
    4  A    between atoms: C_14  and  N_17
    5  A    between atoms: C_14  and  C_26
                            x       y       z     vdW  Elec       q    Type
                         _______ _______ _______ _____ _____    ______ ____

>  <TORSDO>
F 5

$$$$
=
 OpenBabel11062422103D

 27 29  0  0  1  0  0  0  0  0999 V2000
  192.4820  175.2410  144.8960 C   0  0  1  0  0  3  0  0  0  0  0  0
  188.9410  174.4270  147.6660 N   0  0  0  0  0  1  0  0  0  0  0  0
  192.8970  175.4240  146.3500 C   0  0  2  0  0  3  0  0  0  0  0  0
  193.4070  174.2640  144.1750 C   0  0  0  0  0  2  0  0  0  0  0  0
  190.8560  175.7590  147.5690 N   0  0  0  0  0  0  0  0  0  0  0  0
  193.1530  174.3640  142.6760 C   0  0  0  0  0  2  0  0  0  0  0  0
  190.0950  174.7270  145.5230 N   0  0  0  0  0  0  0  0  0  0  0  0
  191.0360  174.8400  144.6210 C   0  0  0  0  0  0  0  0  0  0  0  0
  190.0260  174.9860  146.9370 C   0  0  0  0  0  0  0  0  0  0  0  0
  191.9800  176.4440  146.9720 C   0  0  0  0  0  2  0  0  0  0  0  0
  190.7090  174.4420  143.2180 C   0  0  0  0  0  0  0  0  0  0  0  0
  191.6980  174.1710  142.3520 C   0  0  0  0  0  3  0  0  0  0  0  0
  188.8940  172.8430  142.0120 S   0  0  0  0  0  0  0  0  0  0  0  0
  189.3110  174.2470  142.7620 C   0  0  0  0  0  0  0  0  0  0  0  0
  185.5270  177.4110  142.4170 C   0  0  0  0  0  0  0  0  0  0  0  0
  187.4480  176.0040  142.4820 C   0  0  0  0  0  0  0  0  0  0  0  0
  187.7560  176.3440  141.1580 C   0  0  0  0  0  3  0  0  0  0  0  0
  185.8040  177.7610  141.0900 C   0  0  0  0  0  3  0  0  0  0  0  0
  188.2940  175.1380  143.2510 N   0  0  0  0  0  2  0  0  0  0  0  0
  186.3550  176.5560  143.0770 N   0  0  0  0  0  0  0  0  0  0  0  0
  186.9250  177.2220  140.4610 C   0  0  0  0  0  3  0  0  0  0  0  0
  184.3460  177.9830  143.1330 C   0  0  2  0  0  3  0  0  0  0  0  0
  183.3300  178.2900  142.2230 O   0  0  0  0  0  1  0  0  0  0  0  0
  184.7440  179.2240  143.9140 C   0  0  0  0  0  2  0  0  0  0  0  0
  184.1970  179.1580  145.2580 N   0  0  0  0  0  1  0  0  0  0  0  0
  194.3270  175.9420  146.4340 C   0  0  0  0  0  2  0  0  0  0  0  0
  194.4010  177.2270  145.8940 O   0  0  0  0  0  1  0  0  0  0  0  0
  1  4  1  1  0  0  0
  1  3  1  0  0  0  0
  3 26  1  6  0  0  0
  3 10  1  0  0  0  0
  6  4  1  0  0  0  0
  7  9  1  0  0  0  0
  8  1  1  0  0  0  0
  8  7  2  0  0  0  0
  9  5  2  0  0  0  0
  9  2  1  0  0  0  0
 10  5  1  0  0  0  0
 11  8  1  0  0  0  0
 12  6  1  0  0  0  0
 12 11  2  0  0  0  0
 13 14  2  0  0  0  0
 14 11  1  0  0  0  0
 14 19  1  0  0  0  0
 15 20  1  0  0  0  0
 15 22  1  0  0  0  0
 16 20  2  0  0  0  0
 16 19  1  0  0  0  0
 17 16  1  0  0  0  0
 18 15  2  0  0  0  0
 21 18  1  0  0  0  0
 21 17  2  0  0  0  0
 22 23  1  6  0  0  0
 22 24  1  0  0  0  0
 24 25  1  0  0  0  0
 27 26  1  0  0  0  0
M  END
>  <MODEL>
7

>  <REMARK>
 VINA RESULT:      -6.9      2.711      8.191
  Name = 
  5 active torsions:
  status: ('A' for Active; 'I' for Inactive)
    1  A    between atoms: C_2  and  C_4
    2  A    between atoms: C_2  and  C_9
    3  A    between atoms: C_5  and  C_11
    4  A    between atoms: C_14  and  N_17
    5  A    between atoms: C_14  and  C_26
                            x       y       z     vdW  Elec       q    Type
                         _______ _______ _______ _____ _____    ______ ____

>  <TORSDO>
F 5

$$$$
=
 OpenBabel11062422103D

 27 29  0  0  1  0  0  0  0  0999 V2000
  187.0810  178.0530  145.3330 C   0  0  1  0  0  3  0  0  0  0  0  0
  186.7620  177.5330  140.8050 N   0  0  0  0  0  1  0  0  0  0  0  0
  185.6940  178.4600  144.8530 C   0  0  2  0  0  3  0  0  0  0  0  0
  186.9980  177.0130  146.4480 C   0  0  0  0  0  2  0  0  0  0  0  0
  185.9270  178.9000  142.5040 N   0  0  0  0  0  0  0  0  0  0  0  0
  188.3670  176.8850  147.1020 C   0  0  0  0  0  2  0  0  0  0  0  0
  187.8720  177.5560  142.9920 N   0  0  0  0  0  0  0  0  0  0  0  0
  188.0770  177.5680  144.2850 C   0  0  0  0  0  0  0  0  0  0  0  0
  186.8060  178.0160  142.1420 C   0  0  0  0  0  0  0  0  0  0  0  0
  185.8600  179.5280  143.8040 C   0  0  0  0  0  2  0  0  0  0  0  0
  189.3420  176.9590  144.7960 C   0  0  0  0  0  0  0  0  0  0  0  0
  189.4360  176.5980  146.0860 C   0  0  0  0  0  3  0  0  0  0  0  0
  191.3420  177.8870  143.2330 S   0  0  0  0  0  0  0  0  0  0  0  0
  190.4850  176.6520  143.9020 C   0  0  0  0  0  0  0  0  0  0  0  0
  190.7400  171.9170  142.5030 C   0  0  0  0  0  0  0  0  0  0  0  0
  190.4470  174.1640  143.2360 C   0  0  0  0  0  0  0  0  0  0  0  0
  189.1090  174.1380  142.8180 C   0  0  0  0  0  3  0  0  0  0  0  0
  189.4100  171.8650  142.0670 C   0  0  0  0  0  3  0  0  0  0  0  0
  191.0090  175.3130  143.8840 N   0  0  0  0  0  2  0  0  0  0  0  0
  191.2170  173.0530  143.0800 N   0  0  0  0  0  0  0  0  0  0  0  0
  188.5950  172.9840  142.2270 C   0  0  0  0  0  3  0  0  0  0  0  0
  191.6390  170.7310  142.3670 C   0  0  2  0  0  3  0  0  0  0  0  0
  190.9030  169.6040  141.9940 O   0  0  0  0  0  1  0  0  0  0  0  0
  192.3790  170.4690  143.6690 C   0  0  0  0  0  2  0  0  0  0  0  0
  193.8130  170.5180  143.4410 N   0  0  0  0  0  1  0  0  0  0  0  0
  184.8780  179.0320  146.0040 C   0  0  0  0  0  2  0  0  0  0  0  0
  183.7090  178.2900  146.1750 O   0  0  0  0  0  1  0  0  0  0  0  0
  1  4  1  1  0  0  0
  2  9  1  0  0  0  0
  3  1  1  0  0  0  0
  3 26  1  1  0  0  0
  4  6  1  0  0  0  0
  5 10  1  0  0  0  0
  7  8  2  0  0  0  0
  8 11  1  0  0  0  0
  8  1  1  0  0  0  0
  9  5  2  0  0  0  0
  9  7  1  0  0  0  0
 10  3  1  0  0  0  0
 11 12  2  0  0  0  0
 12  6  1  0  0  0  0
 13 14  2  0  0  0  0
 14 11  1  0  0  0  0
 15 20  1  0  0  0  0
 16 19  1  0  0  0  0
 17 16  1  0  0  0  0
 18 21  1  0  0  0  0
 18 15  2  0  0  0  0
 19 14  1  0  0  0  0
 20 16  2  0  0  0  0
 21 17  2  0  0  0  0
 22 23  1  1  0  0  0
 22 15  1  0  0  0  0
 22 24  1  0  0  0  0
 25 24  1  0  0  0  0
 26 27  1  0  0  0  0
M  END
>  <MODEL>
8

>  <REMARK>
 VINA RESULT:      -6.9      3.398      4.338
  Name = 
  5 active torsions:
  status: ('A' for Active; 'I' for Inactive)
    1  A    between atoms: C_2  and  C_4
    2  A    between atoms: C_2  and  C_9
    3  A    between atoms: C_5  and  C_11
    4  A    between atoms: C_14  and  N_17
    5  A    between atoms: C_14  and  C_26
                            x       y       z     vdW  Elec       q    Type
                         _______ _______ _______ _____ _____    ______ ____

>  <TORSDO>
F 5

$$$$
=
 OpenBabel11062422103D

 27 29  0  0  1  0  0  0  0  0999 V2000
  188.2730  176.5040  145.9880 C   0  0  1  0  0  3  0  0  0  0  0  0
  186.8660  176.4620  141.6420 N   0  0  0  0  0  1  0  0  0  0  0  0
  186.9420  177.2320  145.8590 C   0  0  2  0  0  3  0  0  0  0  0  0
  188.2030  175.4100  147.0520 C   0  0  0  0  0  2  0  0  0  0  0  0
  186.7490  177.8190  143.5380 N   0  0  0  0  0  0  0  0  0  0  0  0
  189.6180  174.9410  147.3660 C   0  0  0  0  0  2  0  0  0  0  0  0
  188.4020  176.0590  143.5110 N   0  0  0  0  0  0  0  0  0  0  0  0
  188.8810  175.9150  144.7200 C   0  0  0  0  0  0  0  0  0  0  0  0
  187.3070  176.8060  142.9490 C   0  0  0  0  0  0  0  0  0  0  0  0
  187.1100  178.3310  144.8420 C   0  0  0  0  0  2  0  0  0  0  0  0
  190.0580  175.0110  144.9010 C   0  0  0  0  0  0  0  0  0  0  0  0
  190.3470  174.5270  146.1180 C   0  0  0  0  0  3  0  0  0  0  0  0
  190.2990  173.3740  142.7630 S   0  0  0  0  0  0  0  0  0  0  0  0
  190.8800  174.5520  143.7540 C   0  0  0  0  0  0  0  0  0  0  0  0
  195.6220  175.9490  143.6790 C   0  0  0  0  0  0  0  0  0  0  0  0
  193.3380  175.3100  143.8950 C   0  0  0  0  0  0  0  0  0  0  0  0
  193.6060  174.7280  145.1410 C   0  0  0  0  0  3  0  0  0  0  0  0
  195.9230  175.3650  144.9160 C   0  0  0  0  0  3  0  0  0  0  0  0
  192.0100  175.3450  143.3530 N   0  0  0  0  0  2  0  0  0  0  0  0
  194.3450  175.9150  143.2090 N   0  0  0  0  0  0  0  0  0  0  0  0
  194.9060  174.7530  145.6470 C   0  0  0  0  0  3  0  0  0  0  0  0
  196.6800  176.6340  142.8750 C   0  0  2  0  0  3  0  0  0  0  0  0
  196.1690  177.0260  141.6360 O   0  0  0  0  0  1  0  0  0  0  0  0
  197.8800  175.7210  142.6850 C   0  0  0  0  0  2  0  0  0  0  0  0
  197.6260  174.7910  141.5990 N   0  0  0  0  0  1  0  0  0  0  0  0
  186.5460  177.8600  147.1890 C   0  0  0  0  0  2  0  0  0  0  0  0
  185.1970  178.2150  147.1650 O   0  0  0  0  0  1  0  0  0  0  0  0
  1  4  1  1  0  0  0
  2  9  1  0  0  0  0
  3  1  1  0  0  0  0
  3 26  1  1  0  0  0
  4  6  1  0  0  0  0
  5 10  1  0  0  0  0
  7  8  2  0  0  0  0
  8 11  1  0  0  0  0
  8  1  1  0  0  0  0
  9  7  1  0  0  0  0
  9  5  2  0  0  0  0
 10  3  1  0  0  0  0
 11 12  2  0  0  0  0
 12  6  1  0  0  0  0
 13 14  2  0  0  0  0
 14 11  1  0  0  0  0
 15 18  2  0  0  0  0
 16 17  1  0  0  0  0
 17 21  2  0  0  0  0
 18 21  1  0  0  0  0
 19 14  1  0  0  0  0
 19 16  1  0  0  0  0
 20 15  1  0  0  0  0
 20 16  2  0  0  0  0
 22 23  1  6  0  0  0
 22 15  1  0  0  0  0
 24 22  1  0  0  0  0
 25 24  1  0  0  0  0
 27 26  1  0  0  0  0
M  END
>  <MODEL>
9

>  <REMARK>
 VINA RESULT:      -6.9      2.230      3.040
  Name = 
  5 active torsions:
  status: ('A' for Active; 'I' for Inactive)
    1  A    between atoms: C_2  and  C_4
    2  A    between atoms: C_2  and  C_9
    3  A    between atoms: C_5  and  C_11
    4  A    between atoms: C_14  and  N_17
    5  A    between atoms: C_14  and  C_26
                            x       y       z     vdW  Elec       q    Type
                         _______ _______ _______ _____ _____    ______ ____

>  <TORSDO>
F 5

$$$$
