=
 OpenBabel11062422323D

 43 49  0  0  1  0  0  0  0  0999 V2000
  188.7020  174.4240  141.5330 C   0  0  0  0  0  3  0  0  0  0  0  0
  189.5580  172.6530  140.1380 C   0  0  0  0  0  0  0  0  0  0  0  0
  193.7430  171.7930  142.5440 C   0  0  0  0  0  0  0  0  0  0  0  0
  193.1920  173.1080  142.5710 N   0  0  0  0  0  0  0  0  0  0  0  0
  188.4810  173.3620  140.6640 C   0  0  0  0  0  3  0  0  0  0  0  0
  193.7470  171.0000  141.2850 C   0  0  0  0  0  2  0  0  0  0  0  0
  189.9970  174.7650  141.9220 C   0  0  0  0  0  0  0  0  0  0  0  0
  194.2080  171.2880  143.5980 O   0  0  0  0  0  0  0  0  0  0  0  0
  191.0990  173.9730  141.5040 C   0  0  0  0  0  0  0  0  0  0  0  0
  192.3460  170.9270  140.7060 C   0  0  0  0  0  2  0  0  0  0  0  0
  189.3130  171.6790  139.1720 O   0  0  0  0  0  0  0  0  0  0  0  0
  191.7120  173.9840  144.2080 O   0  0  0  0  0  1  0  0  0  0  0  0
  192.5150  174.3100  141.9510 C   0  0  1  0  0  3  0  0  0  0  0  0
  192.0580  171.9090  138.4280 C   0  0  0  0  0  2  0  0  0  0  0  0
  192.7480  174.3060  143.3240 C   0  0  2  0  0  0  0  0  0  0  0  0
  192.0550  172.2030  139.9390 C   0  0  1  0  0  3  0  0  0  0  0  0
  190.8780  172.9580  140.5350 C   0  0  0  0  0  0  0  0  0  0  0  0
  189.6350  171.8990  137.7990 C   0  0  0  0  0  2  0  0  0  0  0  0
  190.9720  172.6160  137.6300 C   0  0  0  0  0  2  0  0  0  0  0  0
  190.1950  176.2620  142.9000 S   0  0  0  0  0  0  0  0  0  0  0  0
  187.4170  177.8930  140.8860 O   0  0  0  0  0  0  0  0  0  0  0  0
  188.2990  177.9970  141.9850 C   0  0  0  0  0  2  0  0  0  0  0  0
  184.4800  177.9820  143.0460 O   0  0  0  0  0  0  0  0  0  0  0  0
  185.5440  178.5670  142.3160 C   0  0  2  0  0  3  0  0  0  0  0  0
  187.8320  176.8410  144.1500 C   0  0  0  0  0  2  0  0  0  0  0  0
  188.4360  176.6880  142.7580 C   0  0  2  0  0  3  0  0  0  0  0  0
  185.8250  176.3630  145.3480 O   0  0  0  0  0  1  0  0  0  0  0  0
  186.1250  177.5450  141.3370 C   0  0  0  0  0  2  0  0  0  0  0  0
  186.3080  176.7740  144.1070 C   0  0  1  0  0  3  0  0  0  0  0  0
  185.6960  178.1310  143.7340 C   0  0  2  0  0  0  0  0  0  0  0  0
  185.6450  179.1350  144.7580 O   0  0  0  0  0  0  0  0  0  0  0  0
  184.9640  179.0450  145.9810 C   0  0  0  0  0  0  0  0  0  0  0  0
  183.7180  178.8730  146.0340 O   0  0  0  0  0  0  0  0  0  0  0  0
  185.7350  179.1520  147.2460 C   0  0  0  0  0  1  0  0  0  0  0  0
  193.8920  175.1720  143.8370 C   0  0  0  0  0  2  0  0  0  0  0  0
  195.3370  174.0160  145.5800 C   0  0  0  0  0  2  0  0  0  0  0  0
  194.2100  174.9300  145.3090 C   0  0  2  0  0  0  0  0  0  0  0  0
  193.9920  173.5970  145.6970 O   0  0  0  0  0  0  0  0  0  0  0  0
  193.8390  175.9600  146.3900 C   0  0  1  0  0  3  0  0  0  0  0  0
  194.4090  177.2120  146.1380 O   0  0  0  0  0  1  0  0  0  0  0  0
  192.3570  176.1070  146.6100 C   0  0  0  0  0  0  0  0  0  0  0  0
  191.6240  175.3070  147.6400 C   0  0  0  0  0  1  0  0  0  0  0  0
  191.7310  176.8940  145.9220 O   0  0  0  0  0  0  0  0  0  0  0  0
  1  7  1  0  0  0  0
  2 17  2  0  0  0  0
  2  5  1  0  0  0  0
  3  4  1  0  0  0  0
  3  8  2  0  0  0  0
  4 15  1  0  0  0  0
  5  1  2  0  0  0  0
  6  3  1  0  0  0  0
  7 20  1  0  0  0  0
  9  7  2  0  0  0  0
 10  6  1  0  0  0  0
 11  2  1  0  0  0  0
 13  9  1  1  0  0  0
 13  4  1  0  0  0  0
 13 15  1  0  0  0  0
 15 35  1  0  0  0  0
 15 12  1  1  0  0  0
 16 14  1  6  0  0  0
 16 17  1  0  0  0  0
 16 10  1  0  0  0  0
 17  9  1  0  0  0  0
 18 11  1  0  0  0  0
 19 18  1  0  0  0  0
 19 14  1  0  0  0  0
 21 28  1  0  0  0  0
 21 22  1  0  0  0  0
 22 26  1  0  0  0  0
 23 30  1  0  0  0  0
 24 28  1  6  0  0  0
 24 23  1  0  0  0  0
 24 30  1  0  0  0  0
 26 20  1  1  0  0  0
 26 25  1  0  0  0  0
 29 25  1  0  0  0  0
 29 27  1  1  0  0  0
 30 29  1  0  0  0  0
 30 31  1  1  0  0  0
 31 32  1  0  0  0  0
 32 33  2  0  0  0  0
 32 34  1  0  0  0  0
 36 38  1  0  0  0  0
 37 35  1  6  0  0  0
 37 36  1  0  0  0  0
 37 38  1  0  0  0  0
 37 39  1  0  0  0  0
 39 40  1  6  0  0  0
 39 41  1  0  0  0  0
 41 42  1  0  0  0  0
 43 41  2  0  0  0  0
M  END
>  <MODEL>
1

>  <REMARK>
 VINA RESULT:      -7.8      0.000      0.000
  Name = 
  8 active torsions:
  status: ('A' for Active; 'I' for Inactive)
    1  A    between atoms: C_3  and  C_12
    2  A    between atoms: C_3  and  C_21
    3  A    between atoms: O_4  and  C_14
    4  A    between atoms: O_4  and  C_43
    5  A    between atoms: C_12  and  C_37
    6  A    between atoms: C_16  and  S_30
    7  A    between atoms: C_29  and  C_37
    8  A    between atoms: S_30  and  C_31
                            x       y       z     vdW  Elec       q    Type
                         _______ _______ _______ _____ _____    ______ ____

>  <TORSDO>
F 8

$$$$
=
 OpenBabel11062422323D

 43 49  0  0  1  0  0  0  0  0999 V2000
  192.6180  174.5220  145.7460 C   0  0  0  0  0  3  0  0  0  0  0  0
  194.9640  174.3650  145.2150 C   0  0  0  0  0  0  0  0  0  0  0  0
  194.5580  173.1410  140.4840 C   0  0  0  0  0  0  0  0  0  0  0  0
  193.5260  172.7490  141.3870 N   0  0  0  0  0  0  0  0  0  0  0  0
  193.9320  174.9060  145.9770 C   0  0  0  0  0  3  0  0  0  0  0  0
  195.9890  173.0410  140.8800 C   0  0  0  0  0  2  0  0  0  0  0  0
  192.3100  173.6260  144.7220 C   0  0  0  0  0  0  0  0  0  0  0  0
  194.2570  173.6000  139.3520 O   0  0  0  0  0  0  0  0  0  0  0  0
  193.3290  173.1650  143.8480 C   0  0  0  0  0  0  0  0  0  0  0  0
  196.2230  173.7650  142.1930 C   0  0  0  0  0  2  0  0  0  0  0  0
  196.2810  174.6690  145.5540 O   0  0  0  0  0  0  0  0  0  0  0  0
  191.5460  173.9610  141.8800 O   0  0  0  0  0  1  0  0  0  0  0  0
  193.0020  172.2170  142.7020 C   0  0  1  0  0  3  0  0  0  0  0  0
  197.0620  172.3560  144.0770 C   0  0  0  0  0  2  0  0  0  0  0  0
  192.0920  172.6790  141.7560 C   0  0  2  0  0  0  0  0  0  0  0  0
  195.8090  172.8640  143.3410 C   0  0  1  0  0  3  0  0  0  0  0  0
  194.6810  173.4770  144.1550 C   0  0  0  0  0  0  0  0  0  0  0  0
  197.1260  173.7070  146.1830 C   0  0  0  0  0  2  0  0  0  0  0  0
  196.9460  172.3110  145.5930 C   0  0  0  0  0  2  0  0  0  0  0  0
  190.6080  173.0500  144.6170 S   0  0  0  0  0  0  0  0  0  0  0  0
  189.7760  175.4890  147.4090 O   0  0  0  0  0  0  0  0  0  0  0  0
  189.2890  174.5400  146.4820 C   0  0  0  0  0  2  0  0  0  0  0  0
  187.8390  178.1820  145.8940 O   0  0  0  0  0  0  0  0  0  0  0  0
  188.0170  177.0580  146.7380 C   0  0  2  0  0  3  0  0  0  0  0  0
  188.9120  175.1290  144.0830 C   0  0  0  0  0  2  0  0  0  0  0  0
  189.9430  174.6650  145.1080 C   0  0  2  0  0  3  0  0  0  0  0  0
  188.1740  177.1130  142.9830 O   0  0  0  0  0  1  0  0  0  0  0  0
  189.5100  176.7960  146.9450 C   0  0  0  0  0  2  0  0  0  0  0  0
  188.6400  176.6250  144.2030 C   0  0  1  0  0  3  0  0  0  0  0  0
  187.6180  176.9240  145.3080 C   0  0  2  0  0  0  0  0  0  0  0  0
  186.2360  176.6740  145.0120 O   0  0  0  0  0  0  0  0  0  0  0  0
  185.2390  177.6390  144.8070 C   0  0  0  0  0  0  0  0  0  0  0  0
  185.0050  178.1190  143.6670 O   0  0  0  0  0  0  0  0  0  0  0  0
  184.4340  178.1010  145.9670 C   0  0  0  0  0  1  0  0  0  0  0  0
  191.3050  171.6310  140.9780 C   0  0  0  0  0  2  0  0  0  0  0  0
  190.7970  171.9150  138.5040 C   0  0  0  0  0  2  0  0  0  0  0  0
  190.4170  172.2330  139.8950 C   0  0  2  0  0  0  0  0  0  0  0  0
  191.0990  173.1640  139.0940 O   0  0  0  0  0  0  0  0  0  0  0  0
  188.9520  172.6110  140.1760 C   0  0  1  0  0  3  0  0  0  0  0  0
  188.6130  172.4310  141.5200 O   0  0  0  0  0  1  0  0  0  0  0  0
  188.5850  174.0030  139.7360 C   0  0  0  0  0  0  0  0  0  0  0  0
  188.1260  174.3010  138.3450 C   0  0  0  0  0  1  0  0  0  0  0  0
  188.6740  174.9190  140.5350 O   0  0  0  0  0  0  0  0  0  0  0  0
  1  5  1  0  0  0  0
  2 11  1  0  0  0  0
  2  5  2  0  0  0  0
  3  6  1  0  0  0  0
  3  4  1  0  0  0  0
  4 15  1  0  0  0  0
  4 13  1  0  0  0  0
  6 10  1  0  0  0  0
  7  1  2  0  0  0  0
  8  3  2  0  0  0  0
  9 17  2  0  0  0  0
  9  7  1  0  0  0  0
 11 18  1  0  0  0  0
 13  9  1  1  0  0  0
 14 19  1  0  0  0  0
 15 12  1  1  0  0  0
 15 13  1  0  0  0  0
 16 10  1  6  0  0  0
 16 14  1  0  0  0  0
 16 17  1  0  0  0  0
 17  2  1  0  0  0  0
 19 18  1  0  0  0  0
 20  7  1  0  0  0  0
 22 21  1  0  0  0  0
 23 24  1  0  0  0  0
 24 28  1  6  0  0  0
 25 29  1  0  0  0  0
 25 26  1  0  0  0  0
 26 20  1  6  0  0  0
 26 22  1  0  0  0  0
 28 21  1  0  0  0  0
 29 27  1  6  0  0  0
 29 30  1  0  0  0  0
 30 31  1  6  0  0  0
 30 23  1  0  0  0  0
 30 24  1  0  0  0  0
 32 31  1  0  0  0  0
 32 34  1  0  0  0  0
 33 32  2  0  0  0  0
 35 15  1  0  0  0  0
 36 38  1  0  0  0  0
 36 37  1  0  0  0  0
 37 39  1  0  0  0  0
 37 35  1  1  0  0  0
 38 37  1  0  0  0  0
 39 40  1  1  0  0  0
 41 39  1  0  0  0  0
 41 43  2  0  0  0  0
 42 41  1  0  0  0  0
M  END
>  <MODEL>
2

>  <REMARK>
 VINA RESULT:      -7.4      2.207      5.939
  Name = 
  8 active torsions:
  status: ('A' for Active; 'I' for Inactive)
    1  A    between atoms: C_3  and  C_12
    2  A    between atoms: C_3  and  C_21
    3  A    between atoms: O_4  and  C_14
    4  A    between atoms: O_4  and  C_43
    5  A    between atoms: C_12  and  C_37
    6  A    between atoms: C_16  and  S_30
    7  A    between atoms: C_29  and  C_37
    8  A    between atoms: S_30  and  C_31
                            x       y       z     vdW  Elec       q    Type
                         _______ _______ _______ _____ _____    ______ ____

>  <TORSDO>
F 8

$$$$
=
 OpenBabel11062422323D

 43 49  0  0  1  0  0  0  0  0999 V2000
  187.9450  175.5110  140.8260 C   0  0  0  0  0  3  0  0  0  0  0  0
  187.6980  177.2640  142.4630 C   0  0  0  0  0  0  0  0  0  0  0  0
  191.3240  175.9470  145.4900 C   0  0  0  0  0  0  0  0  0  0  0  0
  190.6560  174.9370  144.7360 N   0  0  0  0  0  0  0  0  0  0  0  0
  187.5610  176.8040  141.1550 C   0  0  0  0  0  3  0  0  0  0  0  0
  190.5540  177.0530  146.1230 C   0  0  0  0  0  2  0  0  0  0  0  0
  188.5120  174.6720  141.7860 C   0  0  0  0  0  0  0  0  0  0  0  0
  192.5760  175.9190  145.6010 O   0  0  0  0  0  0  0  0  0  0  0  0
  188.7830  175.1640  143.0900 C   0  0  0  0  0  0  0  0  0  0  0  0
  189.6840  177.7450  145.0900 C   0  0  0  0  0  2  0  0  0  0  0  0
  187.1850  178.5170  142.7920 O   0  0  0  0  0  0  0  0  0  0  0  0
  191.3010  174.1060  142.6080 O   0  0  0  0  0  1  0  0  0  0  0  0
  189.4370  174.2720  144.1380 C   0  0  1  0  0  3  0  0  0  0  0  0
  187.2240  177.6770  145.5180 C   0  0  0  0  0  2  0  0  0  0  0  0
  190.6960  173.7690  143.8250 C   0  0  2  0  0  0  0  0  0  0  0  0
  188.4160  176.9380  144.8830 C   0  0  1  0  0  3  0  0  0  0  0  0
  188.2920  176.4480  143.4500 C   0  0  0  0  0  0  0  0  0  0  0  0
  185.9950  178.6520  143.5680 C   0  0  0  0  0  2  0  0  0  0  0  0
  185.9360  177.6400  144.7090 C   0  0  0  0  0  2  0  0  0  0  0  0
  188.8070  172.9620  141.3130 S   0  0  0  0  0  0  0  0  0  0  0  0
  187.8640  173.7190  137.7120 O   0  0  0  0  0  0  0  0  0  0  0  0
  188.4080  172.7850  138.6210 C   0  0  0  0  0  2  0  0  0  0  0  0
  190.9890  173.9430  135.8430 O   0  0  0  0  0  0  0  0  0  0  0  0
  189.7500  173.3490  136.1900 C   0  0  2  0  0  3  0  0  0  0  0  0
  190.7730  172.9530  139.4110 C   0  0  0  0  0  2  0  0  0  0  0  0
  189.3420  173.4280  139.6430 C   0  0  2  0  0  3  0  0  0  0  0  0
  192.7990  173.6550  138.3660 O   0  0  0  0  0  1  0  0  0  0  0  0
  188.9010  174.3440  136.9850 C   0  0  0  0  0  2  0  0  0  0  0  0
  191.4120  173.6670  138.2240 C   0  0  1  0  0  3  0  0  0  0  0  0
  191.0200  173.0110  136.8940 C   0  0  2  0  0  0  0  0  0  0  0  0
  191.6820  171.7870  136.5420 O   0  0  0  0  0  0  0  0  0  0  0  0
  191.5870  170.5620  137.2180 C   0  0  0  0  0  0  0  0  0  0  0  0
  192.5650  170.0710  137.8400 O   0  0  0  0  0  0  0  0  0  0  0  0
  190.2950  169.8290  137.2030 C   0  0  0  0  0  1  0  0  0  0  0  0
  191.1140  172.4700  144.5030 C   0  0  0  0  0  2  0  0  0  0  0  0
  193.5380  172.6690  145.2430 C   0  0  0  0  0  2  0  0  0  0  0  0
  192.5780  172.1170  144.2660 C   0  0  2  0  0  0  0  0  0  0  0  0
  193.3630  173.2420  143.9630 O   0  0  0  0  0  0  0  0  0  0  0  0
  192.9830  170.8500  143.4910 C   0  0  1  0  0  3  0  0  0  0  0  0
  192.5750  169.6840  144.1450 O   0  0  0  0  0  1  0  0  0  0  0  0
  192.5090  170.8310  142.0630 C   0  0  0  0  0  0  0  0  0  0  0  0
  191.2850  170.0810  141.6430 C   0  0  0  0  0  1  0  0  0  0  0  0
  193.1460  171.4360  141.2190 O   0  0  0  0  0  0  0  0  0  0  0  0
  1  5  2  0  0  0  0
  1  7  1  0  0  0  0
  2 11  1  0  0  0  0
  2 17  2  0  0  0  0
  3  8  2  0  0  0  0
  3  6  1  0  0  0  0
  4  3  1  0  0  0  0
  5  2  1  0  0  0  0
  7  9  2  0  0  0  0
  9 17  1  0  0  0  0
 10  6  1  0  0  0  0
 11 18  1  0  0  0  0
 13  9  1  6  0  0  0
 13  4  1  0  0  0  0
 15 12  1  6  0  0  0
 15 13  1  0  0  0  0
 15 35  1  0  0  0  0
 15  4  1  0  0  0  0
 16 10  1  6  0  0  0
 16 14  1  0  0  0  0
 17 16  1  0  0  0  0
 18 19  1  0  0  0  0
 19 14  1  0  0  0  0
 20  7  1  0  0  0  0
 21 22  1  0  0  0  0
 22 26  1  0  0  0  0
 23 24  1  0  0  0  0
 23 30  1  0  0  0  0
 24 30  1  0  0  0  0
 24 28  1  1  0  0  0
 25 26  1  0  0  0  0
 26 20  1  1  0  0  0
 28 21  1  0  0  0  0
 29 27  1  1  0  0  0
 29 25  1  0  0  0  0
 30 31  1  6  0  0  0
 30 29  1  0  0  0  0
 31 32  1  0  0  0  0
 32 33  2  0  0  0  0
 34 32  1  0  0  0  0
 37 35  1  1  0  0  0
 37 36  1  0  0  0  0
 38 37  1  0  0  0  0
 38 36  1  0  0  0  0
 39 40  1  1  0  0  0
 39 37  1  0  0  0  0
 41 39  1  0  0  0  0
 42 41  1  0  0  0  0
 43 41  2  0  0  0  0
M  END
>  <MODEL>
3

>  <REMARK>
 VINA RESULT:      -7.3      2.229      7.603
  Name = 
  8 active torsions:
  status: ('A' for Active; 'I' for Inactive)
    1  A    between atoms: C_3  and  C_12
    2  A    between atoms: C_3  and  C_21
    3  A    between atoms: O_4  and  C_14
    4  A    between atoms: O_4  and  C_43
    5  A    between atoms: C_12  and  C_37
    6  A    between atoms: C_16  and  S_30
    7  A    between atoms: C_29  and  C_37
    8  A    between atoms: S_30  and  C_31
                            x       y       z     vdW  Elec       q    Type
                         _______ _______ _______ _____ _____    ______ ____

>  <TORSDO>
F 8

$$$$
=
 OpenBabel11062422323D

 43 49  0  0  1  0  0  0  0  0999 V2000
  188.8760  174.2600  141.8840 C   0  0  0  0  0  3  0  0  0  0  0  0
  189.7490  172.6500  140.3150 C   0  0  0  0  0  0  0  0  0  0  0  0
  194.3690  172.4740  141.9510 C   0  0  0  0  0  0  0  0  0  0  0  0
  193.6280  173.6830  142.1080 N   0  0  0  0  0  0  0  0  0  0  0  0
  188.6800  173.1770  141.0360 C   0  0  0  0  0  3  0  0  0  0  0  0
  194.2810  171.6920  140.6880 C   0  0  0  0  0  2  0  0  0  0  0  0
  190.1490  174.8050  142.0570 C   0  0  0  0  0  0  0  0  0  0  0  0
  195.0810  172.0500  142.8970 O   0  0  0  0  0  0  0  0  0  0  0  0
  191.2730  174.2010  141.4360 C   0  0  0  0  0  0  0  0  0  0  0  0
  192.8310  171.3940  140.3530 C   0  0  0  0  0  2  0  0  0  0  0  0
  189.4990  171.6500  139.3780 O   0  0  0  0  0  0  0  0  0  0  0  0
  192.3330  174.3090  143.9960 O   0  0  0  0  0  1  0  0  0  0  0  0
  192.6740  174.7610  141.6460 C   0  0  1  0  0  3  0  0  0  0  0  0
  192.0030  172.3190  138.1860 C   0  0  0  0  0  2  0  0  0  0  0  0
  193.1370  174.7940  142.9580 C   0  0  2  0  0  0  0  0  0  0  0  0
  192.2140  172.6070  139.6830 C   0  0  1  0  0  3  0  0  0  0  0  0
  191.0530  173.1630  140.4900 C   0  0  0  0  0  0  0  0  0  0  0  0
  189.5410  171.9190  137.9770 C   0  0  0  0  0  2  0  0  0  0  0  0
  190.6990  172.8420  137.6040 C   0  0  0  0  0  2  0  0  0  0  0  0
  190.2720  176.3140  143.0280 S   0  0  0  0  0  0  0  0  0  0  0  0
  187.5160  177.8110  140.8850 O   0  0  0  0  0  0  0  0  0  0  0  0
  188.3620  177.9700  142.0050 C   0  0  0  0  0  2  0  0  0  0  0  0
  184.5140  177.8920  142.9560 O   0  0  0  0  0  0  0  0  0  0  0  0
  185.5850  178.4810  142.2390 C   0  0  2  0  0  3  0  0  0  0  0  0
  187.8590  176.8710  144.1910 C   0  0  0  0  0  2  0  0  0  0  0  0
  188.5080  176.6900  142.8230 C   0  0  2  0  0  3  0  0  0  0  0  0
  185.8300  176.3800  145.3460 O   0  0  0  0  0  1  0  0  0  0  0  0
  186.2190  177.4440  141.3090 C   0  0  0  0  0  2  0  0  0  0  0  0
  186.3400  176.7650  144.1060 C   0  0  1  0  0  3  0  0  0  0  0  0
  185.7060  178.0930  143.6730 C   0  0  2  0  0  0  0  0  0  0  0  0
  185.6000  179.1270  144.6640 O   0  0  0  0  0  0  0  0  0  0  0  0
  184.9070  179.0490  145.8810 C   0  0  0  0  0  0  0  0  0  0  0  0
  183.6630  178.8610  145.9240 O   0  0  0  0  0  0  0  0  0  0  0  0
  185.6640  179.1860  147.1520 C   0  0  0  0  0  1  0  0  0  0  0  0
  194.2010  175.8320  143.2940 C   0  0  0  0  0  2  0  0  0  0  0  0
  193.5430  176.6490  145.6090 C   0  0  0  0  0  2  0  0  0  0  0  0
  194.5150  175.9050  144.7840 C   0  0  2  0  0  0  0  0  0  0  0  0
  194.7780  177.2150  145.2180 O   0  0  0  0  0  0  0  0  0  0  0  0
  195.3800  174.8360  145.4760 C   0  0  1  0  0  3  0  0  0  0  0  0
  194.6820  173.6400  145.6680 O   0  0  0  0  0  1  0  0  0  0  0  0
  196.6850  174.5620  144.7770 C   0  0  0  0  0  0  0  0  0  0  0  0
  197.4950  173.3380  145.0600 C   0  0  0  0  0  1  0  0  0  0  0  0
  197.1000  175.3660  143.9610 O   0  0  0  0  0  0  0  0  0  0  0  0
  1  7  1  0  0  0  0
  2 17  2  0  0  0  0
  2  5  1  0  0  0  0
  3  4  1  0  0  0  0
  3  8  2  0  0  0  0
  4 15  1  0  0  0  0
  5  1  2  0  0  0  0
  6  3  1  0  0  0  0
  7 20  1  0  0  0  0
  9  7  2  0  0  0  0
 10  6  1  0  0  0  0
 11  2  1  0  0  0  0
 13  9  1  1  0  0  0
 13  4  1  0  0  0  0
 13 15  1  0  0  0  0
 15 35  1  0  0  0  0
 15 12  1  1  0  0  0
 16 14  1  6  0  0  0
 16 10  1  0  0  0  0
 16 17  1  0  0  0  0
 17  9  1  0  0  0  0
 18 11  1  0  0  0  0
 19 18  1  0  0  0  0
 19 14  1  0  0  0  0
 21 28  1  0  0  0  0
 21 22  1  0  0  0  0
 22 26  1  0  0  0  0
 23 30  1  0  0  0  0
 24 28  1  6  0  0  0
 24 23  1  0  0  0  0
 24 30  1  0  0  0  0
 26 20  1  1  0  0  0
 26 25  1  0  0  0  0
 29 25  1  0  0  0  0
 29 27  1  1  0  0  0
 30 29  1  0  0  0  0
 30 31  1  1  0  0  0
 31 32  1  0  0  0  0
 32 33  2  0  0  0  0
 32 34  1  0  0  0  0
 37 35  1  6  0  0  0
 37 38  1  0  0  0  0
 37 39  1  0  0  0  0
 37 36  1  0  0  0  0
 38 36  1  0  0  0  0
 39 40  1  6  0  0  0
 41 42  1  0  0  0  0
 41 39  1  0  0  0  0
 43 41  2  0  0  0  0
M  END
>  <MODEL>
4

>  <REMARK>
 VINA RESULT:      -7.3      0.933      1.909
  Name = 
  8 active torsions:
  status: ('A' for Active; 'I' for Inactive)
    1  A    between atoms: C_3  and  C_12
    2  A    between atoms: C_3  and  C_21
    3  A    between atoms: O_4  and  C_14
    4  A    between atoms: O_4  and  C_43
    5  A    between atoms: C_12  and  C_37
    6  A    between atoms: C_16  and  S_30
    7  A    between atoms: C_29  and  C_37
    8  A    between atoms: S_30  and  C_31
                            x       y       z     vdW  Elec       q    Type
                         _______ _______ _______ _____ _____    ______ ____

>  <TORSDO>
F 8

$$$$
=
 OpenBabel11062422323D

 43 49  0  0  1  0  0  0  0  0999 V2000
  189.0260  173.3850  142.5030 C   0  0  0  0  0  3  0  0  0  0  0  0
  189.6340  172.5760  140.3140 C   0  0  0  0  0  0  0  0  0  0  0  0
  194.4900  173.1780  140.6420 C   0  0  0  0  0  0  0  0  0  0  0  0
  193.6370  174.0510  141.3790 N   0  0  0  0  0  0  0  0  0  0  0  0
  188.7680  172.5740  141.4050 C   0  0  0  0  0  3  0  0  0  0  0  0
  194.1520  172.7900  139.2450 C   0  0  0  0  0  2  0  0  0  0  0  0
  190.1740  174.1760  142.5470 C   0  0  0  0  0  0  0  0  0  0  0  0
  195.5230  172.7090  141.1840 O   0  0  0  0  0  0  0  0  0  0  0  0
  191.1370  174.0930  141.5070 C   0  0  0  0  0  0  0  0  0  0  0  0
  192.7440  172.2260  139.1830 C   0  0  0  0  0  2  0  0  0  0  0  0
  189.2830  171.8520  139.1760 O   0  0  0  0  0  0  0  0  0  0  0  0
  192.9030  173.7510  143.6170 O   0  0  0  0  0  1  0  0  0  0  0  0
  192.4130  174.9220  141.5600 C   0  0  1  0  0  3  0  0  0  0  0  0
  191.1370  173.4700  137.7320 C   0  0  0  0  0  2  0  0  0  0  0  0
  193.2480  174.7050  142.6520 C   0  0  2  0  0  0  0  0  0  0  0  0
  191.7480  173.3690  139.1410 C   0  0  1  0  0  3  0  0  0  0  0  0
  190.8170  173.3450  140.3420 C   0  0  0  0  0  0  0  0  0  0  0  0
  188.8410  172.5070  137.9880 C   0  0  0  0  0  2  0  0  0  0  0  0
  189.6460  173.7700  137.6950 C   0  0  0  0  0  2  0  0  0  0  0  0
  190.3280  175.3260  143.9220 S   0  0  0  0  0  0  0  0  0  0  0  0
  188.7080  177.9050  141.6510 O   0  0  0  0  0  0  0  0  0  0  0  0
  189.2330  177.6190  142.9320 C   0  0  0  0  0  2  0  0  0  0  0  0
  185.3740  178.5260  142.9950 O   0  0  0  0  0  0  0  0  0  0  0  0
  186.7100  178.8820  142.6810 C   0  0  2  0  0  3  0  0  0  0  0  0
  187.9040  176.3710  144.6410 C   0  0  0  0  0  2  0  0  0  0  0  0
  188.8340  176.2350  143.4390 C   0  0  2  0  0  3  0  0  0  0  0  0
  185.5830  176.3180  145.1880 O   0  0  0  0  0  1  0  0  0  0  0  0
  187.2970  177.8730  141.6920 C   0  0  0  0  0  2  0  0  0  0  0  0
  186.4870  176.7340  144.2110 C   0  0  1  0  0  3  0  0  0  0  0  0
  186.3400  178.2430  143.9760 C   0  0  2  0  0  0  0  0  0  0  0  0
  186.2270  179.0830  145.1350 O   0  0  0  0  0  0  0  0  0  0  0  0
  185.2250  179.0230  146.1150 C   0  0  0  0  0  0  0  0  0  0  0  0
  184.0030  179.0380  145.8140 O   0  0  0  0  0  0  0  0  0  0  0  0
  185.6190  178.9350  147.5450 C   0  0  0  0  0  1  0  0  0  0  0  0
  194.1660  175.8490  143.0640 C   0  0  0  0  0  2  0  0  0  0  0  0
  196.5960  176.0210  143.7890 C   0  0  0  0  0  2  0  0  0  0  0  0
  195.2700  175.4140  144.0210 C   0  0  2  0  0  0  0  0  0  0  0  0
  196.2960  174.7030  143.3750 O   0  0  0  0  0  0  0  0  0  0  0  0
  194.9500  174.8950  145.4340 C   0  0  1  0  0  3  0  0  0  0  0  0
  196.1060  174.5310  146.1320 O   0  0  0  0  0  1  0  0  0  0  0  0
  194.1300  175.8480  146.2620 C   0  0  0  0  0  0  0  0  0  0  0  0
  194.5570  177.2600  146.5050 C   0  0  0  0  0  1  0  0  0  0  0  0
  193.0890  175.4540  146.7590 O   0  0  0  0  0  0  0  0  0  0  0  0
  1  7  1  0  0  0  0
  2 17  2  0  0  0  0
  2  5  1  0  0  0  0
  3  8  2  0  0  0  0
  3  4  1  0  0  0  0
  4 13  1  0  0  0  0
  4 15  1  0  0  0  0
  5  1  2  0  0  0  0
  6  3  1  0  0  0  0
  7 20  1  0  0  0  0
  9  7  2  0  0  0  0
 10  6  1  0  0  0  0
 11  2  1  0  0  0  0
 13  9  1  1  0  0  0
 13 15  1  0  0  0  0
 15 35  1  0  0  0  0
 15 12  1  1  0  0  0
 16 14  1  6  0  0  0
 16 10  1  0  0  0  0
 16 17  1  0  0  0  0
 17  9  1  0  0  0  0
 18 11  1  0  0  0  0
 19 14  1  0  0  0  0
 19 18  1  0  0  0  0
 21 28  1  0  0  0  0
 21 22  1  0  0  0  0
 22 26  1  0  0  0  0
 23 30  1  0  0  0  0
 24 28  1  6  0  0  0
 24 23  1  0  0  0  0
 24 30  1  0  0  0  0
 26 20  1  1  0  0  0
 26 25  1  0  0  0  0
 29 25  1  0  0  0  0
 29 27  1  1  0  0  0
 30 29  1  0  0  0  0
 30 31  1  1  0  0  0
 31 32  1  0  0  0  0
 32 34  1  0  0  0  0
 33 32  2  0  0  0  0
 36 37  1  0  0  0  0
 37 35  1  6  0  0  0
 37 39  1  0  0  0  0
 38 36  1  0  0  0  0
 38 37  1  0  0  0  0
 39 40  1  1  0  0  0
 39 41  1  0  0  0  0
 41 42  1  0  0  0  0
 41 43  2  0  0  0  0
M  END
>  <MODEL>
5

>  <REMARK>
 VINA RESULT:      -7.2      1.423      1.674
  Name = 
  8 active torsions:
  status: ('A' for Active; 'I' for Inactive)
    1  A    between atoms: C_3  and  C_12
    2  A    between atoms: C_3  and  C_21
    3  A    between atoms: O_4  and  C_14
    4  A    between atoms: O_4  and  C_43
    5  A    between atoms: C_12  and  C_37
    6  A    between atoms: C_16  and  S_30
    7  A    between atoms: C_29  and  C_37
    8  A    between atoms: S_30  and  C_31
                            x       y       z     vdW  Elec       q    Type
                         _______ _______ _______ _____ _____    ______ ____

>  <TORSDO>
F 8

$$$$
=
 OpenBabel11062422323D

 43 49  0  0  1  0  0  0  0  0999 V2000
  188.5700  174.4400  141.3120 C   0  0  0  0  0  3  0  0  0  0  0  0
  189.2530  172.5670  139.9560 C   0  0  0  0  0  0  0  0  0  0  0  0
  192.3170  170.4440  143.1430 C   0  0  0  0  0  0  0  0  0  0  0  0
  192.1420  171.8580  143.1940 N   0  0  0  0  0  0  0  0  0  0  0  0
  188.3040  173.5260  140.3000 C   0  0  0  0  0  3  0  0  0  0  0  0
  192.4300  169.7420  141.8350 C   0  0  0  0  0  2  0  0  0  0  0  0
  189.7670  174.3810  142.0260 C   0  0  0  0  0  0  0  0  0  0  0  0
  192.3500  169.7780  144.2100 O   0  0  0  0  0  0  0  0  0  0  0  0
  190.6900  173.3300  141.7830 C   0  0  0  0  0  0  0  0  0  0  0  0
  191.2520  170.0960  140.9450 C   0  0  0  0  0  2  0  0  0  0  0  0
  189.0130  171.7490  138.8540 O   0  0  0  0  0  0  0  0  0  0  0  0
  190.5810  173.0390  144.5380 O   0  0  0  0  0  1  0  0  0  0  0  0
  191.9840  173.2300  142.5790 C   0  0  1  0  0  3  0  0  0  0  0  0
  191.8170  171.2270  138.7910 C   0  0  0  0  0  2  0  0  0  0  0  0
  191.8540  173.0960  143.9580 C   0  0  2  0  0  0  0  0  0  0  0  0
  191.5100  171.4380  140.2850 C   0  0  1  0  0  3  0  0  0  0  0  0
  190.4620  172.4660  140.6780 C   0  0  0  0  0  0  0  0  0  0  0  0
  189.7170  171.9340  137.6270 C   0  0  0  0  0  2  0  0  0  0  0  0
  191.1930  172.2490  137.8530 C   0  0  0  0  0  2  0  0  0  0  0  0
  190.0980  175.7130  143.1890 S   0  0  0  0  0  0  0  0  0  0  0  0
  187.7920  177.9160  141.1250 O   0  0  0  0  0  0  0  0  0  0  0  0
  188.5880  177.7970  142.2860 C   0  0  0  0  0  2  0  0  0  0  0  0
  184.7430  178.3500  143.0800 O   0  0  0  0  0  0  0  0  0  0  0  0
  185.9440  178.7960  142.4730 C   0  0  2  0  0  3  0  0  0  0  0  0
  187.7670  176.5940  144.3160 C   0  0  0  0  0  2  0  0  0  0  0  0
  188.4490  176.4350  142.9610 C   0  0  2  0  0  3  0  0  0  0  0  0
  185.6190  176.3790  145.3320 O   0  0  0  0  0  1  0  0  0  0  0  0
  186.4290  177.7600  141.4570 C   0  0  0  0  0  2  0  0  0  0  0  0
  186.2610  176.7860  144.1640 C   0  0  1  0  0  3  0  0  0  0  0  0
  185.9090  178.2480  143.8580 C   0  0  2  0  0  0  0  0  0  0  0  0
  185.9380  179.1750  144.9530 O   0  0  0  0  0  0  0  0  0  0  0  0
  185.1920  179.0910  146.1390 C   0  0  0  0  0  0  0  0  0  0  0  0
  183.9350  179.0290  146.1270 O   0  0  0  0  0  0  0  0  0  0  0  0
  185.9080  179.0700  147.4400 C   0  0  0  0  0  1  0  0  0  0  0  0
  193.0170  173.5760  144.8170 C   0  0  0  0  0  2  0  0  0  0  0  0
  193.0370  175.3860  146.6010 C   0  0  0  0  0  2  0  0  0  0  0  0
  192.9310  175.0580  145.1650 C   0  0  2  0  0  0  0  0  0  0  0  0
  191.7930  175.3670  145.9290 O   0  0  0  0  0  0  0  0  0  0  0  0
  193.3100  176.1460  144.1450 C   0  0  1  0  0  3  0  0  0  0  0  0
  193.0770  177.4320  144.6420 O   0  0  0  0  0  1  0  0  0  0  0  0
  194.7220  176.0400  143.6360 C   0  0  0  0  0  0  0  0  0  0  0  0
  195.0350  175.5480  142.2600 C   0  0  0  0  0  1  0  0  0  0  0  0
  195.6410  176.3570  144.3710 O   0  0  0  0  0  0  0  0  0  0  0  0
  1  7  1  0  0  0  0
  2  5  1  0  0  0  0
  2 17  2  0  0  0  0
  3  4  1  0  0  0  0
  3  8  2  0  0  0  0
  4 15  1  0  0  0  0
  5  1  2  0  0  0  0
  6  3  1  0  0  0  0
  7 20  1  0  0  0  0
  9  7  2  0  0  0  0
 10  6  1  0  0  0  0
 11  2  1  0  0  0  0
 13  9  1  6  0  0  0
 13  4  1  0  0  0  0
 13 15  1  0  0  0  0
 15 12  1  1  0  0  0
 15 35  1  0  0  0  0
 16 14  1  6  0  0  0
 16 17  1  0  0  0  0
 16 10  1  0  0  0  0
 17  9  1  0  0  0  0
 18 19  1  0  0  0  0
 18 11  1  0  0  0  0
 19 14  1  0  0  0  0
 21 28  1  0  0  0  0
 21 22  1  0  0  0  0
 22 26  1  0  0  0  0
 23 30  1  0  0  0  0
 24 28  1  6  0  0  0
 24 23  1  0  0  0  0
 24 30  1  0  0  0  0
 26 20  1  1  0  0  0
 26 25  1  0  0  0  0
 29 25  1  0  0  0  0
 29 27  1  1  0  0  0
 30 29  1  0  0  0  0
 30 31  1  1  0  0  0
 31 32  1  0  0  0  0
 32 34  1  0  0  0  0
 33 32  2  0  0  0  0
 37 35  1  6  0  0  0
 37 38  1  0  0  0  0
 37 36  1  0  0  0  0
 38 36  1  0  0  0  0
 39 40  1  1  0  0  0
 39 37  1  0  0  0  0
 41 39  1  0  0  0  0
 41 43  2  0  0  0  0
 42 41  1  0  0  0  0
M  END
>  <MODEL>
6

>  <REMARK>
 VINA RESULT:      -7.1      1.173      1.780
  Name = 
  8 active torsions:
  status: ('A' for Active; 'I' for Inactive)
    1  A    between atoms: C_3  and  C_12
    2  A    between atoms: C_3  and  C_21
    3  A    between atoms: O_4  and  C_14
    4  A    between atoms: O_4  and  C_43
    5  A    between atoms: C_12  and  C_37
    6  A    between atoms: C_16  and  S_30
    7  A    between atoms: C_29  and  C_37
    8  A    between atoms: S_30  and  C_31
                            x       y       z     vdW  Elec       q    Type
                         _______ _______ _______ _____ _____    ______ ____

>  <TORSDO>
F 8

$$$$
=
 OpenBabel11062422323D

 43 49  0  0  1  0  0  0  0  0999 V2000
  191.6110  172.4230  142.9900 C   0  0  0  0  0  3  0  0  0  0  0  0
  193.0050  172.9620  144.8820 C   0  0  0  0  0  0  0  0  0  0  0  0
  190.4150  176.7370  146.6400 C   0  0  0  0  0  0  0  0  0  0  0  0
  190.3830  176.4730  145.2390 N   0  0  0  0  0  0  0  0  0  0  0  0
  192.5150  172.0310  143.9690 C   0  0  0  0  0  3  0  0  0  0  0  0
  191.6920  176.6420  147.3990 C   0  0  0  0  0  2  0  0  0  0  0  0
  191.1490  173.7380  142.9360 C   0  0  0  0  0  0  0  0  0  0  0  0
  189.3520  177.0270  147.2460 O   0  0  0  0  0  0  0  0  0  0  0  0
  191.5310  174.6700  143.9360 C   0  0  0  0  0  0  0  0  0  0  0  0
  192.3420  175.2900  147.1660 C   0  0  0  0  0  2  0  0  0  0  0  0
  194.0060  172.5700  145.7690 O   0  0  0  0  0  0  0  0  0  0  0  0
  188.8010  175.1250  144.0930 O   0  0  0  0  0  1  0  0  0  0  0  0
  191.0050  176.0990  143.9130 C   0  0  1  0  0  3  0  0  0  0  0  0
  194.6060  175.3380  146.1130 C   0  0  0  0  0  2  0  0  0  0  0  0
  189.6240  176.2510  143.9850 C   0  0  2  0  0  0  0  0  0  0  0  0
  193.0910  175.3150  145.8470 C   0  0  1  0  0  3  0  0  0  0  0  0
  192.5350  174.2930  144.8690 C   0  0  0  0  0  0  0  0  0  0  0  0
  195.3550  173.0050  145.6030 C   0  0  0  0  0  2  0  0  0  0  0  0
  195.4390  174.4690  145.1820 C   0  0  0  0  0  2  0  0  0  0  0  0
  190.1260  174.1930  141.5280 S   0  0  0  0  0  0  0  0  0  0  0  0
  193.4130  173.0870  139.9780 O   0  0  0  0  0  0  0  0  0  0  0  0
  192.1970  173.7850  139.8020 C   0  0  0  0  0  2  0  0  0  0  0  0
  192.5760  170.6740  137.3740 O   0  0  0  0  0  0  0  0  0  0  0  0
  193.0580  171.9170  137.8540 C   0  0  2  0  0  3  0  0  0  0  0  0
  190.0600  172.5870  139.3140 C   0  0  0  0  0  2  0  0  0  0  0  0
  191.0040  173.0590  140.4160 C   0  0  2  0  0  3  0  0  0  0  0  0
  189.5330  170.6310  138.0550 O   0  0  0  0  0  1  0  0  0  0  0  0
  193.3370  171.8220  139.3550 C   0  0  0  0  0  2  0  0  0  0  0  0
  190.5930  171.3370  138.6210 C   0  0  1  0  0  3  0  0  0  0  0  0
  191.6200  171.6910  137.5360 C   0  0  2  0  0  0  0  0  0  0  0  0
  191.1150  172.1940  136.2900 O   0  0  0  0  0  0  0  0  0  0  0  0
  190.5230  173.4470  136.0740 C   0  0  0  0  0  0  0  0  0  0  0  0
  189.3100  173.5610  135.7600 O   0  0  0  0  0  0  0  0  0  0  0  0
  191.3510  174.6710  136.2260 C   0  0  0  0  0  1  0  0  0  0  0  0
  189.0320  177.5230  143.3880 C   0  0  0  0  0  2  0  0  0  0  0  0
  187.3890  176.6560  141.6530 C   0  0  0  0  0  2  0  0  0  0  0  0
  187.5850  177.3550  142.9390 C   0  0  2  0  0  0  0  0  0  0  0  0
  187.3000  178.0630  141.7590 O   0  0  0  0  0  0  0  0  0  0  0  0
  186.4270  177.3420  143.9520 C   0  0  1  0  0  3  0  0  0  0  0  0
  186.8830  177.4290  145.2710 O   0  0  0  0  0  1  0  0  0  0  0  0
  185.3850  178.3990  143.7000 C   0  0  0  0  0  0  0  0  0  0  0  0
  185.5350  179.7990  144.2020 C   0  0  0  0  0  1  0  0  0  0  0  0
  184.3810  178.1030  143.0750 O   0  0  0  0  0  0  0  0  0  0  0  0
  1  5  1  0  0  0  0
  2 11  1  0  0  0  0
  3  8  2  0  0  0  0
  3  6  1  0  0  0  0
  4  3  1  0  0  0  0
  5  2  2  0  0  0  0
  7  1  2  0  0  0  0
  7  9  1  0  0  0  0
  9 17  2  0  0  0  0
 10  6  1  0  0  0  0
 13  9  1  1  0  0  0
 13 15  1  0  0  0  0
 13  4  1  0  0  0  0
 15 12  1  6  0  0  0
 15  4  1  0  0  0  0
 16 14  1  1  0  0  0
 16 10  1  0  0  0  0
 17  2  1  0  0  0  0
 17 16  1  0  0  0  0
 18 11  1  0  0  0  0
 19 18  1  0  0  0  0
 19 14  1  0  0  0  0
 20  7  1  0  0  0  0
 22 21  1  0  0  0  0
 22 26  1  0  0  0  0
 23 30  1  0  0  0  0
 23 24  1  0  0  0  0
 24 28  1  1  0  0  0
 25 26  1  0  0  0  0
 26 20  1  1  0  0  0
 28 21  1  0  0  0  0
 29 27  1  6  0  0  0
 29 25  1  0  0  0  0
 30 31  1  6  0  0  0
 30 24  1  0  0  0  0
 30 29  1  0  0  0  0
 32 34  1  0  0  0  0
 32 31  1  0  0  0  0
 33 32  2  0  0  0  0
 35 15  1  0  0  0  0
 36 38  1  0  0  0  0
 36 37  1  0  0  0  0
 37 35  1  1  0  0  0
 37 39  1  0  0  0  0
 38 37  1  0  0  0  0
 39 40  1  1  0  0  0
 41 39  1  0  0  0  0
 41 42  1  0  0  0  0
 43 41  2  0  0  0  0
M  END
>  <MODEL>
7

>  <REMARK>
 VINA RESULT:      -7.1      2.058      8.119
  Name = 
  8 active torsions:
  status: ('A' for Active; 'I' for Inactive)
    1  A    between atoms: C_3  and  C_12
    2  A    between atoms: C_3  and  C_21
    3  A    between atoms: O_4  and  C_14
    4  A    between atoms: O_4  and  C_43
    5  A    between atoms: C_12  and  C_37
    6  A    between atoms: C_16  and  S_30
    7  A    between atoms: C_29  and  C_37
    8  A    between atoms: S_30  and  C_31
                            x       y       z     vdW  Elec       q    Type
                         _______ _______ _______ _____ _____    ______ ____

>  <TORSDO>
F 8

$$$$
=
 OpenBabel11062422323D

 43 49  0  0  1  0  0  0  0  0999 V2000
  190.7690  171.5180  142.4090 C   0  0  0  0  0  3  0  0  0  0  0  0
  190.8340  171.6770  140.0030 C   0  0  0  0  0  0  0  0  0  0  0  0
  194.7750  174.5620  139.5720 C   0  0  0  0  0  0  0  0  0  0  0  0
  193.9620  174.6770  140.7380 N   0  0  0  0  0  0  0  0  0  0  0  0
  190.4960  170.9760  141.1590 C   0  0  0  0  0  3  0  0  0  0  0  0
  194.1530  174.4020  138.2290 C   0  0  0  0  0  2  0  0  0  0  0  0
  191.4230  172.7450  142.5230 C   0  0  0  0  0  0  0  0  0  0  0  0
  196.0280  174.5700  139.6800 O   0  0  0  0  0  0  0  0  0  0  0  0
  191.8940  173.4120  141.3620 C   0  0  0  0  0  0  0  0  0  0  0  0
  193.1830  173.2350  138.2350 C   0  0  0  0  0  2  0  0  0  0  0  0
  190.4320  171.1700  138.7690 O   0  0  0  0  0  0  0  0  0  0  0  0
  194.2680  173.5240  142.7900 O   0  0  0  0  0  1  0  0  0  0  0  0
  192.6420  174.7340  141.4730 C   0  0  1  0  0  3  0  0  0  0  0  0
  190.8050  173.7940  137.7140 C   0  0  0  0  0  2  0  0  0  0  0  0
  193.8200  174.7190  142.2130 C   0  0  2  0  0  0  0  0  0  0  0  0
  191.8620  173.6860  138.8280 C   0  0  1  0  0  3  0  0  0  0  0  0
  191.5190  172.9080  140.0880 C   0  0  0  0  0  0  0  0  0  0  0  0
  189.3680  171.7700  138.0320 C   0  0  0  0  0  2  0  0  0  0  0  0
  189.4180  173.2950  138.0880 C   0  0  0  0  0  2  0  0  0  0  0  0
  191.5680  173.4480  144.1730 S   0  0  0  0  0  0  0  0  0  0  0  0
  191.2240  177.2310  144.2070 O   0  0  0  0  0  0  0  0  0  0  0  0
  190.8200  176.0010  144.7730 C   0  0  0  0  0  2  0  0  0  0  0  0
  187.8450  177.9790  143.0540 O   0  0  0  0  0  0  0  0  0  0  0  0
  188.8800  177.9230  144.0210 C   0  0  2  0  0  3  0  0  0  0  0  0
  189.1160  174.5480  143.6650 C   0  0  0  0  0  2  0  0  0  0  0  0
  190.5960  174.9130  143.7260 C   0  0  2  0  0  3  0  0  0  0  0  0
  187.1570  175.0120  142.3850 O   0  0  0  0  0  1  0  0  0  0  0  0
  190.2270  177.7070  143.3270 C   0  0  0  0  0  2  0  0  0  0  0  0
  188.3140  175.5950  142.8980 C   0  0  1  0  0  3  0  0  0  0  0  0
  187.9440  176.7860  143.7910 C   0  0  2  0  0  0  0  0  0  0  0  0
  186.8620  176.6040  144.7170 O   0  0  0  0  0  0  0  0  0  0  0  0
  185.5940  177.2000  144.6460 C   0  0  0  0  0  0  0  0  0  0  0  0
  184.9850  177.3340  143.5530 O   0  0  0  0  0  0  0  0  0  0  0  0
  184.9520  177.6790  145.8970 C   0  0  0  0  0  1  0  0  0  0  0  0
  194.2660  176.0340  142.8400 C   0  0  0  0  0  2  0  0  0  0  0  0
  196.7600  176.5050  142.9630 C   0  0  0  0  0  2  0  0  0  0  0  0
  195.5740  175.9150  143.6140 C   0  0  2  0  0  0  0  0  0  0  0  0
  196.5200  175.1120  142.9540 O   0  0  0  0  0  0  0  0  0  0  0  0
  195.5910  175.7630  145.1450 C   0  0  1  0  0  3  0  0  0  0  0  0
  194.4430  176.3000  145.7360 O   0  0  0  0  0  1  0  0  0  0  0  0
  195.7960  174.3490  145.6160 C   0  0  0  0  0  0  0  0  0  0  0  0
  197.1570  173.7960  145.8980 C   0  0  0  0  0  1  0  0  0  0  0  0
  194.8260  173.6270  145.7640 O   0  0  0  0  0  0  0  0  0  0  0  0
  1  7  1  0  0  0  0
  2 17  2  0  0  0  0
  2  5  1  0  0  0  0
  3  8  2  0  0  0  0
  3  4  1  0  0  0  0
  4 13  1  0  0  0  0
  4 15  1  0  0  0  0
  5  1  2  0  0  0  0
  6 10  1  0  0  0  0
  6  3  1  0  0  0  0
  7 20  1  0  0  0  0
  9  7  2  0  0  0  0
 10 16  1  0  0  0  0
 11  2  1  0  0  0  0
 13  9  1  1  0  0  0
 13 15  1  0  0  0  0
 14 19  1  0  0  0  0
 15 12  1  1  0  0  0
 15 35  1  0  0  0  0
 16 14  1  6  0  0  0
 16 17  1  0  0  0  0
 17  9  1  0  0  0  0
 18 19  1  0  0  0  0
 18 11  1  0  0  0  0
 21 22  1  0  0  0  0
 23 30  1  0  0  0  0
 23 24  1  0  0  0  0
 24 28  1  6  0  0  0
 25 26  1  0  0  0  0
 26 20  1  1  0  0  0
 26 22  1  0  0  0  0
 28 21  1  0  0  0  0
 29 27  1  1  0  0  0
 29 25  1  0  0  0  0
 29 30  1  0  0  0  0
 30 24  1  0  0  0  0
 30 31  1  1  0  0  0
 32 31  1  0  0  0  0
 32 34  1  0  0  0  0
 33 32  2  0  0  0  0
 36 37  1  0  0  0  0
 37 35  1  6  0  0  0
 37 39  1  0  0  0  0
 38 36  1  0  0  0  0
 38 37  1  0  0  0  0
 39 41  1  0  0  0  0
 39 40  1  6  0  0  0
 41 43  2  0  0  0  0
 41 42  1  0  0  0  0
M  END
>  <MODEL>
8

>  <REMARK>
 VINA RESULT:      -6.9      2.101      3.182
  Name = 
  8 active torsions:
  status: ('A' for Active; 'I' for Inactive)
    1  A    between atoms: C_3  and  C_12
    2  A    between atoms: C_3  and  C_21
    3  A    between atoms: O_4  and  C_14
    4  A    between atoms: O_4  and  C_43
    5  A    between atoms: C_12  and  C_37
    6  A    between atoms: C_16  and  S_30
    7  A    between atoms: C_29  and  C_37
    8  A    between atoms: S_30  and  C_31
                            x       y       z     vdW  Elec       q    Type
                         _______ _______ _______ _____ _____    ______ ____

>  <TORSDO>
F 8

$$$$
=
 OpenBabel11062422323D

 43 49  0  0  1  0  0  0  0  0999 V2000
  192.5450  175.5950  144.5440 C   0  0  0  0  0  3  0  0  0  0  0  0
  194.6080  175.8560  143.3240 C   0  0  0  0  0  0  0  0  0  0  0  0
  193.0810  174.2200  138.9600 C   0  0  0  0  0  0  0  0  0  0  0  0
  192.4690  173.7050  140.1410 N   0  0  0  0  0  0  0  0  0  0  0  0
  193.7590  176.2430  144.3580 C   0  0  0  0  0  3  0  0  0  0  0  0
  194.5540  174.4300  138.9010 C   0  0  0  0  0  2  0  0  0  0  0  0
  192.1410  174.5810  143.6750 C   0  0  0  0  0  0  0  0  0  0  0  0
  192.3700  174.5250  137.9680 O   0  0  0  0  0  0  0  0  0  0  0  0
  192.9270  174.2620  142.5380 C   0  0  0  0  0  0  0  0  0  0  0  0
  195.0100  175.2830  140.0700 C   0  0  0  0  0  2  0  0  0  0  0  0
  195.8730  176.4340  143.2400 O   0  0  0  0  0  0  0  0  0  0  0  0
  190.5160  174.5450  141.1980 O   0  0  0  0  0  1  0  0  0  0  0  0
  192.4810  173.1830  141.5600 C   0  0  1  0  0  3  0  0  0  0  0  0
  196.6430  174.2110  141.6270 C   0  0  0  0  0  2  0  0  0  0  0  0
  191.2560  173.3870  140.9310 C   0  0  2  0  0  0  0  0  0  0  0  0
  195.1520  174.4090  141.3020 C   0  0  1  0  0  3  0  0  0  0  0  0
  194.2140  174.8520  142.4130 C   0  0  0  0  0  0  0  0  0  0  0  0
  197.0470  175.7050  143.5940 C   0  0  0  0  0  2  0  0  0  0  0  0
  196.9940  174.2600  143.1060 C   0  0  0  0  0  2  0  0  0  0  0  0
  190.6430  173.6800  144.1040 S   0  0  0  0  0  0  0  0  0  0  0  0
  189.8030  175.6250  147.2570 O   0  0  0  0  0  0  0  0  0  0  0  0
  189.3350  174.7700  146.2340 C   0  0  0  0  0  2  0  0  0  0  0  0
  187.5400  178.3040  146.2550 O   0  0  0  0  0  0  0  0  0  0  0  0
  187.8730  177.0970  146.9190 C   0  0  2  0  0  3  0  0  0  0  0  0
  188.7420  175.6420  143.9690 C   0  0  0  0  0  2  0  0  0  0  0  0
  189.8780  175.1430  144.8570 C   0  0  2  0  0  3  0  0  0  0  0  0
  187.7600  177.6780  143.2080 O   0  0  0  0  0  1  0  0  0  0  0  0
  189.3940  176.9520  147.0000 C   0  0  0  0  0  2  0  0  0  0  0  0
  188.3520  177.0750  144.3170 C   0  0  1  0  0  3  0  0  0  0  0  0
  187.3880  177.1220  145.5100 C   0  0  2  0  0  0  0  0  0  0  0  0
  186.0150  176.7850  145.2610 O   0  0  0  0  0  0  0  0  0  0  0  0
  184.9350  177.6790  145.1930 C   0  0  0  0  0  0  0  0  0  0  0  0
  184.5480  178.1660  144.0990 O   0  0  0  0  0  0  0  0  0  0  0  0
  184.2290  178.0530  146.4450 C   0  0  0  0  0  1  0  0  0  0  0  0
  190.5090  172.1500  140.4450 C   0  0  0  0  0  2  0  0  0  0  0  0
  189.1410  173.4450  138.7400 C   0  0  0  0  0  2  0  0  0  0  0  0
  190.0060  172.2810  139.0120 C   0  0  2  0  0  0  0  0  0  0  0  0
  188.6110  172.1460  138.9150 O   0  0  0  0  0  0  0  0  0  0  0  0
  190.7740  171.6590  137.8320 C   0  0  1  0  0  3  0  0  0  0  0  0
  191.9260  170.9880  138.2530 O   0  0  0  0  0  1  0  0  0  0  0  0
  189.9380  170.7530  136.9700 C   0  0  0  0  0  0  0  0  0  0  0  0
  189.3840  171.1970  135.6540 C   0  0  0  0  0  1  0  0  0  0  0  0
  189.6950  169.6230  137.3590 O   0  0  0  0  0  0  0  0  0  0  0  0
  2  5  2  0  0  0  0
  3  4  1  0  0  0  0
  4 15  1  0  0  0  0
  4 13  1  0  0  0  0
  5  1  1  0  0  0  0
  6  3  1  0  0  0  0
  6 10  1  0  0  0  0
  7 20  1  0  0  0  0
  7  1  2  0  0  0  0
  8  3  2  0  0  0  0
  9  7  1  0  0  0  0
 11  2  1  0  0  0  0
 11 18  1  0  0  0  0
 13  9  1  1  0  0  0
 14 19  1  0  0  0  0
 15 12  1  1  0  0  0
 15 13  1  0  0  0  0
 16 10  1  6  0  0  0
 16 14  1  0  0  0  0
 16 17  1  0  0  0  0
 17  9  2  0  0  0  0
 17  2  1  0  0  0  0
 19 18  1  0  0  0  0
 22 21  1  0  0  0  0
 23 24  1  0  0  0  0
 24 28  1  6  0  0  0
 25 29  1  0  0  0  0
 25 26  1  0  0  0  0
 26 20  1  6  0  0  0
 26 22  1  0  0  0  0
 28 21  1  0  0  0  0
 29 27  1  6  0  0  0
 29 30  1  0  0  0  0
 30 31  1  6  0  0  0
 30 23  1  0  0  0  0
 30 24  1  0  0  0  0
 32 31  1  0  0  0  0
 32 34  1  0  0  0  0
 33 32  2  0  0  0  0
 35 15  1  0  0  0  0
 36 38  1  0  0  0  0
 36 37  1  0  0  0  0
 37 35  1  1  0  0  0
 38 37  1  0  0  0  0
 39 40  1  1  0  0  0
 39 37  1  0  0  0  0
 41 43  2  0  0  0  0
 41 39  1  0  0  0  0
 42 41  1  0  0  0  0
M  END
>  <MODEL>
9

>  <REMARK>
 VINA RESULT:      -6.7      2.289      6.319
  Name = 
  8 active torsions:
  status: ('A' for Active; 'I' for Inactive)
    1  A    between atoms: C_3  and  C_12
    2  A    between atoms: C_3  and  C_21
    3  A    between atoms: O_4  and  C_14
    4  A    between atoms: O_4  and  C_43
    5  A    between atoms: C_12  and  C_37
    6  A    between atoms: C_16  and  S_30
    7  A    between atoms: C_29  and  C_37
    8  A    between atoms: S_30  and  C_31
                            x       y       z     vdW  Elec       q    Type
                         _______ _______ _______ _____ _____    ______ ____

>  <TORSDO>
F 8

$$$$
