=
 OpenBabel11062418573D

 33 34  0  0  1  0  0  0  0  0999 V2000
  190.7300  175.0500  143.6320 C   0  0  0  0  0  3  0  0  0  0  0  0
  189.1580  174.8630  146.2290 C   0  0  0  0  0  0  0  0  0  0  0  0
  189.5100  173.9200  145.4060 N   0  0  0  0  0  0  0  0  0  0  0  0
  188.9680  174.5300  147.6000 N   0  0  0  0  0  1  0  0  0  0  0  0
  189.6420  174.0840  143.9650 C   0  0  0  0  0  2  0  0  0  0  0  0
  189.6460  176.8930  144.8700 C   0  0  0  0  0  3  0  0  0  0  0  0
  190.7230  176.3220  144.0410 C   0  0  0  0  0  0  0  0  0  0  0  0
  188.9110  176.2600  145.7940 C   0  0  0  0  0  0  0  0  0  0  0  0
  191.7580  177.2780  143.5250 C   0  0  1  0  0  3  0  0  0  0  0  0
  191.3870  178.5940  143.8140 O   0  0  0  0  0  1  0  0  0  0  0  0
  193.1620  176.9820  144.0760 C   0  0  1  0  0  3  0  0  0  0  0  0
  193.1190  176.5570  145.5440 C   0  0  0  0  0  1  0  0  0  0  0  0
  193.7840  176.2800  141.7260 C   0  0  0  0  0  1  0  0  0  0  0  0
  193.8980  175.9510  143.2050 C   0  0  1  0  0  3  0  0  0  0  0  0
  195.3270  175.7290  143.6050 C   0  0  0  0  0  0  0  0  0  0  0  0
  196.1070  176.7160  143.6690 O   0  0  0  0  0  0  0  0  0  0  0  0
  195.8030  174.4100  143.8920 N   0  0  0  0  0  2  0  0  0  0  0  0
  197.1780  174.1370  144.2850 C   0  0  2  0  0  3  0  0  0  0  0  0
  197.9410  173.5790  143.1000 C   0  0  0  0  0  1  0  0  0  0  0  0
  197.2130  173.1640  145.4170 C   0  0  0  0  0  0  0  0  0  0  0  0
  197.3160  171.9330  145.1790 O   0  0  0  0  0  0  0  0  0  0  0  0
  197.1180  173.6080  146.7320 O   0  0  0  0  0  1  0  0  0  0  0  0
  187.8770  177.0640  146.5160 C   0  0  0  0  0  2  0  0  0  0  0  0
  186.5710  176.6120  146.1690 O   0  0  0  0  0  0  0  0  0  0  0  0
  183.9800  178.6670  143.5890 C   0  0  0  0  0  3  0  0  0  0  0  0
  184.7420  178.2260  145.7940 C   0  0  0  0  0  0  0  0  0  0  0  0
  184.8890  177.7530  143.0650 C   0  0  0  0  0  3  0  0  0  0  0  0
  185.6950  177.2970  145.3090 C   0  0  0  0  0  0  0  0  0  0  0  0
  185.7510  177.0560  143.9130 C   0  0  0  0  0  0  0  0  0  0  0  0
  183.9250  178.8780  144.9270 N   0  0  0  0  0  0  0  0  0  0  0  0
  184.5840  178.4620  147.1900 N   0  0  0  0  0  1  0  0  0  0  0  0
  186.6470  176.1590  143.3090 O   0  0  0  0  0  0  0  0  0  0  0  0
  187.1110  176.2460  141.9690 C   0  0  0  0  0  1  0  0  0  0  0  0
  1  5  1  0  0  0  0
  1  7  2  0  0  0  0
  2  4  1  0  0  0  0
  3  2  2  0  0  0  0
  5  3  1  0  0  0  0
  6  8  2  0  0  0  0
  7  6  1  0  0  0  0
  8  2  1  0  0  0  0
  8 23  1  0  0  0  0
  9 10  1  1  0  0  0
  9  7  1  0  0  0  0
  9 11  1  0  0  0  0
 11 12  1  1  0  0  0
 14 13  1  6  0  0  0
 14 15  1  0  0  0  0
 14 11  1  0  0  0  0
 15 16  2  0  0  0  0
 15 17  1  0  0  0  0
 17 18  1  0  0  0  0
 18 19  1  6  0  0  0
 18 20  1  0  0  0  0
 20 22  1  0  0  0  0
 21 20  2  0  0  0  0
 24 23  1  0  0  0  0
 25 30  1  0  0  0  0
 26 31  1  0  0  0  0
 27 25  2  0  0  0  0
 27 29  1  0  0  0  0
 28 26  1  0  0  0  0
 28 24  1  0  0  0  0
 29 28  2  0  0  0  0
 30 26  2  0  0  0  0
 32 29  1  0  0  0  0
 33 32  1  0  0  0  0
M  END
>  <MODEL>
1

>  <REMARK>
 VINA RESULT:      -6.5      0.000      0.000
  Name = 
  10 active torsions:
  status: ('A' for Active; 'I' for Inactive)
    1  A    between atoms: O_1  and  C_29
    2  A    between atoms: CA_5  and  C_11
    3  A    between atoms: CA_5  and  N_19
    4  A    between atoms: C_7  and  C_33
    5  A    between atoms: C_14  and  C_17
    6  A    between atoms: C_14  and  C_23
    7  A    between atoms: C_17  and  C_33
    8  A    between atoms: O_24  and  C_25
    9  A    between atoms: O_24  and  C_27
   10  A    between atoms: C_25  and  C_26
                            x       y       z     vdW  Elec       q    Type
                         _______ _______ _______ _____ _____    ______ ____

>  <TORSDO>
F 10

$$$$
=
 OpenBabel11062418573D

 33 34  0  0  1  0  0  0  0  0999 V2000
  193.6480  176.0070  146.4910 C   0  0  0  0  0  3  0  0  0  0  0  0
  194.8140  173.3750  145.5100 C   0  0  0  0  0  0  0  0  0  0  0  0
  195.4100  174.5060  145.7460 N   0  0  0  0  0  0  0  0  0  0  0  0
  195.5680  172.1730  145.6320 N   0  0  0  0  0  1  0  0  0  0  0  0
  194.8020  175.8170  145.5640 C   0  0  0  0  0  2  0  0  0  0  0  0
  192.4220  174.0710  145.5670 C   0  0  0  0  0  3  0  0  0  0  0  0
  192.5720  175.2150  146.4850 C   0  0  0  0  0  0  0  0  0  0  0  0
  193.3950  173.2860  145.0850 C   0  0  0  0  0  0  0  0  0  0  0  0
  191.3790  175.5690  147.3230 C   0  0  1  0  0  3  0  0  0  0  0  0
  191.6150  176.7570  148.0210 O   0  0  0  0  0  1  0  0  0  0  0  0
  190.0880  175.6780  146.4960 C   0  0  1  0  0  3  0  0  0  0  0  0
  188.9000  175.0320  147.2100 C   0  0  0  0  0  1  0  0  0  0  0  0
  190.0920  177.3970  144.6390 C   0  0  0  0  0  1  0  0  0  0  0  0
  189.7960  177.1350  146.1060 C   0  0  1  0  0  3  0  0  0  0  0  0
  188.4170  177.5970  146.4750 C   0  0  0  0  0  0  0  0  0  0  0  0
  188.1890  177.9680  147.6570 O   0  0  0  0  0  0  0  0  0  0  0  0
  187.3680  177.5980  145.5000 N   0  0  0  0  0  2  0  0  0  0  0  0
  186.0120  178.0340  145.8030 C   0  0  2  0  0  3  0  0  0  0  0  0
  185.1790  176.8420  146.2300 C   0  0  0  0  0  1  0  0  0  0  0  0
  185.3960  178.6840  144.6070 C   0  0  0  0  0  0  0  0  0  0  0  0
  185.6360  179.8940  144.3620 O   0  0  0  0  0  1  0  0  0  0  0  0
  184.5470  177.9640  143.7730 O   0  0  0  0  0  0  0  0  0  0  0  0
  192.9890  172.1730  144.1710 C   0  0  0  0  0  2  0  0  0  0  0  0
  192.7200  172.6800  142.8670 O   0  0  0  0  0  0  0  0  0  0  0  0
  188.9300  173.8380  141.4920 C   0  0  0  0  0  3  0  0  0  0  0  0
  191.1490  174.4230  142.1030 C   0  0  0  0  0  0  0  0  0  0  0  0
  189.1720  172.5020  141.7970 C   0  0  0  0  0  3  0  0  0  0  0  0
  191.4490  173.0730  142.4140 C   0  0  0  0  0  0  0  0  0  0  0  0
  190.4260  172.1050  142.2640 C   0  0  0  0  0  0  0  0  0  0  0  0
  189.9120  174.7590  141.6520 N   0  0  0  0  0  0  0  0  0  0  0  0
  192.1090  175.4580  142.2970 N   0  0  0  0  0  1  0  0  0  0  0  0
  190.5950  170.7380  142.5420 O   0  0  0  0  0  0  0  0  0  0  0  0
  190.9190  169.7430  141.5800 C   0  0  0  0  0  1  0  0  0  0  0  0
  2  4  1  0  0  0  0
  2  3  2  0  0  0  0
  5  3  1  0  0  0  0
  5  1  1  0  0  0  0
  6  7  1  0  0  0  0
  7  1  2  0  0  0  0
  7  9  1  0  0  0  0
  8  2  1  0  0  0  0
  8  6  2  0  0  0  0
  9 10  1  6  0  0  0
 11 12  1  1  0  0  0
 11  9  1  0  0  0  0
 14 13  1  6  0  0  0
 14 15  1  0  0  0  0
 14 11  1  0  0  0  0
 15 16  2  0  0  0  0
 17 18  1  0  0  0  0
 17 15  1  0  0  0  0
 18 19  1  6  0  0  0
 20 18  1  0  0  0  0
 21 20  1  0  0  0  0
 22 20  2  0  0  0  0
 23  8  1  0  0  0  0
 24 23  1  0  0  0  0
 25 30  2  0  0  0  0
 25 27  1  0  0  0  0
 26 31  1  0  0  0  0
 26 28  2  0  0  0  0
 27 29  2  0  0  0  0
 28 24  1  0  0  0  0
 29 28  1  0  0  0  0
 29 32  1  0  0  0  0
 30 26  1  0  0  0  0
 33 32  1  0  0  0  0
M  END
>  <MODEL>
2

>  <REMARK>
 VINA RESULT:      -6.5      2.995      8.008
  Name = 
  10 active torsions:
  status: ('A' for Active; 'I' for Inactive)
    1  A    between atoms: O_1  and  C_29
    2  A    between atoms: CA_5  and  C_11
    3  A    between atoms: CA_5  and  N_19
    4  A    between atoms: C_7  and  C_33
    5  A    between atoms: C_14  and  C_17
    6  A    between atoms: C_14  and  C_23
    7  A    between atoms: C_17  and  C_33
    8  A    between atoms: O_24  and  C_25
    9  A    between atoms: O_24  and  C_27
   10  A    between atoms: C_25  and  C_26
                            x       y       z     vdW  Elec       q    Type
                         _______ _______ _______ _____ _____    ______ ____

>  <TORSDO>
F 10

$$$$
=
 OpenBabel11062418573D

 33 34  0  0  1  0  0  0  0  0999 V2000
  193.6300  176.4090  146.6940 C   0  0  0  0  0  3  0  0  0  0  0  0
  194.9230  174.3090  144.9130 C   0  0  0  0  0  0  0  0  0  0  0  0
  195.4670  175.3110  145.5400 N   0  0  0  0  0  0  0  0  0  0  0  0
  195.7250  173.1640  144.6430 N   0  0  0  0  0  1  0  0  0  0  0  0
  194.8070  176.5850  145.7950 C   0  0  0  0  0  2  0  0  0  0  0  0
  192.5040  174.8650  145.1270 C   0  0  0  0  0  3  0  0  0  0  0  0
  192.5880  175.6310  146.3840 C   0  0  0  0  0  0  0  0  0  0  0  0
  193.5170  174.3240  144.4380 C   0  0  0  0  0  0  0  0  0  0  0  0
  191.3650  175.6380  147.2530 C   0  0  1  0  0  3  0  0  0  0  0  0
  191.4220  176.7030  148.1570 O   0  0  0  0  0  1  0  0  0  0  0  0
  190.0620  175.6920  146.4400 C   0  0  1  0  0  3  0  0  0  0  0  0
  188.9060  175.0110  147.1730 C   0  0  0  0  0  1  0  0  0  0  0  0
  189.8170  177.3420  144.5380 C   0  0  0  0  0  1  0  0  0  0  0  0
  189.7130  177.1330  146.0390 C   0  0  1  0  0  3  0  0  0  0  0  0
  188.3890  177.6050  146.5640 C   0  0  0  0  0  0  0  0  0  0  0  0
  188.3170  178.0410  147.7440 O   0  0  0  0  0  0  0  0  0  0  0  0
  187.2190  177.5440  145.7420 N   0  0  0  0  0  2  0  0  0  0  0  0
  185.9100  177.9880  146.2000 C   0  0  2  0  0  3  0  0  0  0  0  0
  185.0380  176.7810  146.4880 C   0  0  0  0  0  1  0  0  0  0  0  0
  185.2620  178.8510  145.1680 C   0  0  0  0  0  0  0  0  0  0  0  0
  185.9750  179.5200  144.3770 O   0  0  0  0  0  0  0  0  0  0  0  0
  183.8760  178.9300  145.0850 O   0  0  0  0  0  1  0  0  0  0  0  0
  193.1760  173.5770  143.1880 C   0  0  0  0  0  2  0  0  0  0  0  0
  192.2100  174.3000  142.4300 O   0  0  0  0  0  0  0  0  0  0  0  0
  189.2550  172.5000  140.0590 C   0  0  0  0  0  3  0  0  0  0  0  0
  191.3940  173.5140  140.2370 C   0  0  0  0  0  0  0  0  0  0  0  0
  189.0290  172.6770  141.4210 C   0  0  0  0  0  3  0  0  0  0  0  0
  191.2190  173.7040  141.6310 C   0  0  0  0  0  0  0  0  0  0  0  0
  190.0010  173.2830  142.2200 C   0  0  0  0  0  0  0  0  0  0  0  0
  190.4180  172.9200  139.5030 N   0  0  0  0  0  0  0  0  0  0  0  0
  192.5640  173.9770  139.5690 N   0  0  0  0  0  1  0  0  0  0  0  0
  189.7040  173.4180  143.5860 O   0  0  0  0  0  0  0  0  0  0  0  0
  189.7640  172.3700  144.5430 C   0  0  0  0  0  1  0  0  0  0  0  0
  2  3  2  0  0  0  0
  3  5  1  0  0  0  0
  4  2  1  0  0  0  0
  5  1  1  0  0  0  0
  6  7  1  0  0  0  0
  7  1  2  0  0  0  0
  7  9  1  0  0  0  0
  8  2  1  0  0  0  0
  8  6  2  0  0  0  0
  9 10  1  1  0  0  0
 11 12  1  1  0  0  0
 11  9  1  0  0  0  0
 14 13  1  6  0  0  0
 14 11  1  0  0  0  0
 14 15  1  0  0  0  0
 15 16  2  0  0  0  0
 17 18  1  0  0  0  0
 17 15  1  0  0  0  0
 18 19  1  6  0  0  0
 20 18  1  0  0  0  0
 21 20  2  0  0  0  0
 22 20  1  0  0  0  0
 23  8  1  0  0  0  0
 24 23  1  0  0  0  0
 25 27  1  0  0  0  0
 26 28  2  0  0  0  0
 27 29  2  0  0  0  0
 28 29  1  0  0  0  0
 28 24  1  0  0  0  0
 29 32  1  0  0  0  0
 30 25  2  0  0  0  0
 30 26  1  0  0  0  0
 31 26  1  0  0  0  0
 32 33  1  0  0  0  0
M  END
>  <MODEL>
3

>  <REMARK>
 VINA RESULT:      -6.5      3.054      8.170
  Name = 
  10 active torsions:
  status: ('A' for Active; 'I' for Inactive)
    1  A    between atoms: O_1  and  C_29
    2  A    between atoms: CA_5  and  C_11
    3  A    between atoms: CA_5  and  N_19
    4  A    between atoms: C_7  and  C_33
    5  A    between atoms: C_14  and  C_17
    6  A    between atoms: C_14  and  C_23
    7  A    between atoms: C_17  and  C_33
    8  A    between atoms: O_24  and  C_25
    9  A    between atoms: O_24  and  C_27
   10  A    between atoms: C_25  and  C_26
                            x       y       z     vdW  Elec       q    Type
                         _______ _______ _______ _____ _____    ______ ____

>  <TORSDO>
F 10

$$$$
=
 OpenBabel11062418573D

 33 34  0  0  1  0  0  0  0  0999 V2000
  193.5370  176.3370  146.4040 C   0  0  0  0  0  3  0  0  0  0  0  0
  195.1650  173.8970  145.5990 C   0  0  0  0  0  0  0  0  0  0  0  0
  195.5380  175.1360  145.7220 N   0  0  0  0  0  0  0  0  0  0  0  0
  196.1360  172.8740  145.7910 N   0  0  0  0  0  1  0  0  0  0  0  0
  194.6880  176.2890  145.4560 C   0  0  0  0  0  2  0  0  0  0  0  0
  192.6850  174.1320  145.6830 C   0  0  0  0  0  3  0  0  0  0  0  0
  192.6320  175.3590  146.4990 C   0  0  0  0  0  0  0  0  0  0  0  0
  193.7800  173.5060  145.2320 C   0  0  0  0  0  0  0  0  0  0  0  0
  191.4090  175.5530  147.3470 C   0  0  1  0  0  3  0  0  0  0  0  0
  191.5390  176.7070  148.1250 O   0  0  0  0  0  1  0  0  0  0  0  0
  190.1170  175.6050  146.5170 C   0  0  1  0  0  3  0  0  0  0  0  0
  188.9360  174.9840  147.2630 C   0  0  0  0  0  1  0  0  0  0  0  0
  190.0260  177.2050  144.5590 C   0  0  0  0  0  1  0  0  0  0  0  0
  189.8090  177.0370  146.0530 C   0  0  1  0  0  3  0  0  0  0  0  0
  188.4530  177.5300  146.4650 C   0  0  0  0  0  0  0  0  0  0  0  0
  188.2870  177.9630  147.6360 O   0  0  0  0  0  0  0  0  0  0  0  0
  187.3570  177.4910  145.5460 N   0  0  0  0  0  2  0  0  0  0  0  0
  186.0210  177.9550  145.8920 C   0  0  2  0  0  3  0  0  0  0  0  0
  185.1950  176.7880  146.3980 C   0  0  0  0  0  1  0  0  0  0  0  0
  185.3590  178.5700  144.7030 C   0  0  0  0  0  0  0  0  0  0  0  0
  184.4990  177.9160  144.0600 O   0  0  0  0  0  0  0  0  0  0  0  0
  185.6970  179.8560  144.2950 O   0  0  0  0  0  1  0  0  0  0  0  0
  193.5770  172.2630  144.4270 C   0  0  0  0  0  2  0  0  0  0  0  0
  193.4280  172.5880  143.0480 O   0  0  0  0  0  0  0  0  0  0  0  0
  189.7350  173.2310  141.1650 C   0  0  0  0  0  3  0  0  0  0  0  0
  191.3740  171.7220  141.9880 C   0  0  0  0  0  0  0  0  0  0  0  0
  190.5110  174.3210  141.5460 C   0  0  0  0  0  3  0  0  0  0  0  0
  192.1940  172.7990  142.4090 C   0  0  0  0  0  0  0  0  0  0  0  0
  191.7460  174.1210  142.1660 C   0  0  0  0  0  0  0  0  0  0  0  0
  190.1800  171.9700  141.3890 N   0  0  0  0  0  0  0  0  0  0  0  0
  191.7940  170.3700  142.1380 N   0  0  0  0  0  1  0  0  0  0  0  0
  192.4670  175.2710  142.5290 O   0  0  0  0  0  0  0  0  0  0  0  0
  193.6240  175.7550  141.8630 C   0  0  0  0  0  1  0  0  0  0  0  0
  1  7  2  0  0  0  0
  2  3  2  0  0  0  0
  2  4  1  0  0  0  0
  5  3  1  0  0  0  0
  5  1  1  0  0  0  0
  6  7  1  0  0  0  0
  7  9  1  0  0  0  0
  8  2  1  0  0  0  0
  8  6  2  0  0  0  0
  9 10  1  6  0  0  0
 11 12  1  1  0  0  0
 11  9  1  0  0  0  0
 14 13  1  6  0  0  0
 14 15  1  0  0  0  0
 14 11  1  0  0  0  0
 15 16  2  0  0  0  0
 17 18  1  0  0  0  0
 17 15  1  0  0  0  0
 18 19  1  6  0  0  0
 20 18  1  0  0  0  0
 21 20  2  0  0  0  0
 22 20  1  0  0  0  0
 23  8  1  0  0  0  0
 24 23  1  0  0  0  0
 25 30  2  0  0  0  0
 25 27  1  0  0  0  0
 26 31  1  0  0  0  0
 26 28  2  0  0  0  0
 27 29  2  0  0  0  0
 28 24  1  0  0  0  0
 29 28  1  0  0  0  0
 29 32  1  0  0  0  0
 30 26  1  0  0  0  0
 33 32  1  0  0  0  0
M  END
>  <MODEL>
4

>  <REMARK>
 VINA RESULT:      -6.5      2.770      8.259
  Name = 
  10 active torsions:
  status: ('A' for Active; 'I' for Inactive)
    1  A    between atoms: O_1  and  C_29
    2  A    between atoms: CA_5  and  C_11
    3  A    between atoms: CA_5  and  N_19
    4  A    between atoms: C_7  and  C_33
    5  A    between atoms: C_14  and  C_17
    6  A    between atoms: C_14  and  C_23
    7  A    between atoms: C_17  and  C_33
    8  A    between atoms: O_24  and  C_25
    9  A    between atoms: O_24  and  C_27
   10  A    between atoms: C_25  and  C_26
                            x       y       z     vdW  Elec       q    Type
                         _______ _______ _______ _____ _____    ______ ____

>  <TORSDO>
F 10

$$$$
=
 OpenBabel11062418573D

 33 34  0  0  1  0  0  0  0  0999 V2000
  186.8470  177.3310  147.3390 C   0  0  0  0  0  3  0  0  0  0  0  0
  185.7310  178.5600  144.7910 C   0  0  0  0  0  0  0  0  0  0  0  0
  185.4180  178.7990  146.0300 N   0  0  0  0  0  0  0  0  0  0  0  0
  185.5460  179.5980  143.8330 N   0  0  0  0  0  1  0  0  0  0  0  0
  185.4550  177.8100  147.0990 C   0  0  0  0  0  2  0  0  0  0  0  0
  187.0910  176.4860  145.0300 C   0  0  0  0  0  3  0  0  0  0  0  0
  187.5820  176.7290  146.3990 C   0  0  0  0  0  0  0  0  0  0  0  0
  186.2400  177.2450  144.3280 C   0  0  0  0  0  0  0  0  0  0  0  0
  188.9050  176.1210  146.7610 C   0  0  1  0  0  3  0  0  0  0  0  0
  188.7120  174.9210  147.4510 O   0  0  0  0  0  1  0  0  0  0  0  0
  189.8060  175.8980  145.5360 C   0  0  1  0  0  3  0  0  0  0  0  0
  190.5640  177.1690  145.1500 C   0  0  0  0  0  1  0  0  0  0  0  0
  190.9700  173.9200  144.4710 C   0  0  0  0  0  1  0  0  0  0  0  0
  190.7570  174.7100  145.7510 C   0  0  1  0  0  3  0  0  0  0  0  0
  192.0640  175.0870  146.3840 C   0  0  0  0  0  0  0  0  0  0  0  0
  192.1280  175.2050  147.6360 O   0  0  0  0  0  0  0  0  0  0  0  0
  193.2200  175.3270  145.5740 N   0  0  0  0  0  2  0  0  0  0  0  0
  194.5120  175.6940  146.1340 C   0  0  2  0  0  3  0  0  0  0  0  0
  194.5860  177.2010  146.2910 C   0  0  0  0  0  1  0  0  0  0  0  0
  195.6180  175.2200  145.2490 C   0  0  0  0  0  0  0  0  0  0  0  0
  195.7460  175.7070  144.0960 O   0  0  0  0  0  0  0  0  0  0  0  0
  196.4960  174.2340  145.6850 O   0  0  0  0  0  1  0  0  0  0  0  0
  185.8990  176.7920  142.9430 C   0  0  0  0  0  2  0  0  0  0  0  0
  187.0330  176.9210  142.0900 O   0  0  0  0  0  0  0  0  0  0  0  0
  187.1800  175.6500  138.0950 C   0  0  0  0  0  3  0  0  0  0  0  0
  186.3790  177.1810  139.7240 C   0  0  0  0  0  0  0  0  0  0  0  0
  187.8670  174.9320  139.0700 C   0  0  0  0  0  3  0  0  0  0  0  0
  187.0730  176.4940  140.7520 C   0  0  0  0  0  0  0  0  0  0  0  0
  187.8190  175.3400  140.4050 C   0  0  0  0  0  0  0  0  0  0  0  0
  186.4580  176.7440  138.4400 N   0  0  0  0  0  0  0  0  0  0  0  0
  185.5550  178.3060  140.0130 N   0  0  0  0  0  1  0  0  0  0  0  0
  188.5450  174.5700  141.3290 O   0  0  0  0  0  0  0  0  0  0  0  0
  188.6880  173.1570  141.2810 C   0  0  0  0  0  1  0  0  0  0  0  0
  2  3  2  0  0  0  0
  3  5  1  0  0  0  0
  4  2  1  0  0  0  0
  5  1  1  0  0  0  0
  6  7  1  0  0  0  0
  7  9  1  0  0  0  0
  7  1  2  0  0  0  0
  8  2  1  0  0  0  0
  8  6  2  0  0  0  0
  9 10  1  6  0  0  0
 11 12  1  1  0  0  0
 11 14  1  0  0  0  0
 11  9  1  0  0  0  0
 14 13  1  6  0  0  0
 14 15  1  0  0  0  0
 15 16  2  0  0  0  0
 17 18  1  0  0  0  0
 17 15  1  0  0  0  0
 18 19  1  6  0  0  0
 20 22  1  0  0  0  0
 20 18  1  0  0  0  0
 21 20  2  0  0  0  0
 23  8  1  0  0  0  0
 24 23  1  0  0  0  0
 25 30  2  0  0  0  0
 25 27  1  0  0  0  0
 26 31  1  0  0  0  0
 26 28  2  0  0  0  0
 27 29  2  0  0  0  0
 28 24  1  0  0  0  0
 29 28  1  0  0  0  0
 29 32  1  0  0  0  0
 30 26  1  0  0  0  0
 33 32  1  0  0  0  0
M  END
>  <MODEL>
5

>  <REMARK>
 VINA RESULT:      -6.4      2.619      4.945
  Name = 
  10 active torsions:
  status: ('A' for Active; 'I' for Inactive)
    1  A    between atoms: O_1  and  C_29
    2  A    between atoms: CA_5  and  C_11
    3  A    between atoms: CA_5  and  N_19
    4  A    between atoms: C_7  and  C_33
    5  A    between atoms: C_14  and  C_17
    6  A    between atoms: C_14  and  C_23
    7  A    between atoms: C_17  and  C_33
    8  A    between atoms: O_24  and  C_25
    9  A    between atoms: O_24  and  C_27
   10  A    between atoms: C_25  and  C_26
                            x       y       z     vdW  Elec       q    Type
                         _______ _______ _______ _____ _____    ______ ____

>  <TORSDO>
F 10

$$$$
=
 OpenBabel11062418573D

 33 34  0  0  1  0  0  0  0  0999 V2000
  193.3430  176.2240  146.4680 C   0  0  0  0  0  3  0  0  0  0  0  0
  194.9630  174.2740  144.7870 C   0  0  0  0  0  0  0  0  0  0  0  0
  195.3340  174.9960  145.8030 N   0  0  0  0  0  0  0  0  0  0  0  0
  195.6550  173.0550  144.5340 N   0  0  0  0  0  1  0  0  0  0  0  0
  194.7930  176.3100  146.1270 C   0  0  0  0  0  2  0  0  0  0  0  0
  192.7490  175.2870  144.2600 C   0  0  0  0  0  3  0  0  0  0  0  0
  192.4220  175.7630  145.6160 C   0  0  0  0  0  0  0  0  0  0  0  0
  193.8760  174.6820  143.8630 C   0  0  0  0  0  0  0  0  0  0  0  0
  190.9660  175.8680  145.9630 C   0  0  1  0  0  3  0  0  0  0  0  0
  190.7590  176.9090  146.8720 O   0  0  0  0  0  1  0  0  0  0  0  0
  190.0760  176.0520  144.7230 C   0  0  1  0  0  3  0  0  0  0  0  0
  188.8890  175.0890  144.7270 C   0  0  0  0  0  1  0  0  0  0  0  0
  190.5740  178.3090  143.6930 C   0  0  0  0  0  1  0  0  0  0  0  0
  189.6240  177.5130  144.5720 C   0  0  1  0  0  3  0  0  0  0  0  0
  188.2030  177.6650  144.1160 C   0  0  0  0  0  0  0  0  0  0  0  0
  187.9190  177.4420  142.9090 O   0  0  0  0  0  0  0  0  0  0  0  0
  187.1860  178.0750  145.0350 N   0  0  0  0  0  2  0  0  0  0  0  0
  185.7920  178.2380  144.6460 C   0  0  2  0  0  3  0  0  0  0  0  0
  185.5480  179.6740  144.2250 C   0  0  0  0  0  1  0  0  0  0  0  0
  184.8890  177.8800  145.7810 C   0  0  0  0  0  0  0  0  0  0  0  0
  184.1190  178.7500  146.2640 O   0  0  0  0  0  0  0  0  0  0  0  0
  184.9050  176.5970  146.3170 O   0  0  0  0  0  1  0  0  0  0  0  0
  193.9690  174.2790  142.4260 C   0  0  0  0  0  2  0  0  0  0  0  0
  194.4130  175.3770  141.6340 O   0  0  0  0  0  0  0  0  0  0  0  0
  197.5010  175.1880  138.8010 C   0  0  0  0  0  3  0  0  0  0  0  0
  195.1800  175.1320  139.3010 C   0  0  0  0  0  0  0  0  0  0  0  0
  197.8130  175.3440  140.1480 C   0  0  0  0  0  3  0  0  0  0  0  0
  195.4450  175.3050  140.6820 C   0  0  0  0  0  0  0  0  0  0  0  0
  196.7950  175.4000  141.1020 C   0  0  0  0  0  0  0  0  0  0  0  0
  196.2070  175.0840  138.4120 N   0  0  0  0  0  0  0  0  0  0  0  0
  193.8510  174.9590  138.8180 N   0  0  0  0  0  1  0  0  0  0  0  0
  197.1890  175.5680  142.4400 O   0  0  0  0  0  0  0  0  0  0  0  0
  197.2030  176.8060  143.1370 C   0  0  0  0  0  1  0  0  0  0  0  0
  2  3  2  0  0  0  0
  3  5  1  0  0  0  0
  4  2  1  0  0  0  0
  5  1  1  0  0  0  0
  6  7  1  0  0  0  0
  7  9  1  0  0  0  0
  7  1  2  0  0  0  0
  8  6  2  0  0  0  0
  8  2  1  0  0  0  0
  9 10  1  1  0  0  0
 11 12  1  1  0  0  0
 11  9  1  0  0  0  0
 14 13  1  6  0  0  0
 14 11  1  0  0  0  0
 15 14  1  0  0  0  0
 15 17  1  0  0  0  0
 16 15  2  0  0  0  0
 18 19  1  1  0  0  0
 18 17  1  0  0  0  0
 18 20  1  0  0  0  0
 20 21  2  0  0  0  0
 20 22  1  0  0  0  0
 23  8  1  0  0  0  0
 24 23  1  0  0  0  0
 25 27  1  0  0  0  0
 26 28  2  0  0  0  0
 27 29  2  0  0  0  0
 28 29  1  0  0  0  0
 28 24  1  0  0  0  0
 29 32  1  0  0  0  0
 30 25  2  0  0  0  0
 30 26  1  0  0  0  0
 31 26  1  0  0  0  0
 32 33  1  0  0  0  0
M  END
>  <MODEL>
6

>  <REMARK>
 VINA RESULT:      -6.3      2.564      9.499
  Name = 
  10 active torsions:
  status: ('A' for Active; 'I' for Inactive)
    1  A    between atoms: O_1  and  C_29
    2  A    between atoms: CA_5  and  C_11
    3  A    between atoms: CA_5  and  N_19
    4  A    between atoms: C_7  and  C_33
    5  A    between atoms: C_14  and  C_17
    6  A    between atoms: C_14  and  C_23
    7  A    between atoms: C_17  and  C_33
    8  A    between atoms: O_24  and  C_25
    9  A    between atoms: O_24  and  C_27
   10  A    between atoms: C_25  and  C_26
                            x       y       z     vdW  Elec       q    Type
                         _______ _______ _______ _____ _____    ______ ____

>  <TORSDO>
F 10

$$$$
=
 OpenBabel11062418573D

 33 34  0  0  1  0  0  0  0  0999 V2000
  193.5380  176.3260  146.4220 C   0  0  0  0  0  3  0  0  0  0  0  0
  195.4020  174.0580  145.6240 C   0  0  0  0  0  0  0  0  0  0  0  0
  195.6550  175.3260  145.7650 N   0  0  0  0  0  0  0  0  0  0  0  0
  196.4620  173.1290  145.8250 N   0  0  0  0  0  1  0  0  0  0  0  0
  194.7040  176.3960  145.4940 C   0  0  0  0  0  2  0  0  0  0  0  0
  192.9100  174.0590  145.6670 C   0  0  0  0  0  3  0  0  0  0  0  0
  192.7270  175.2660  146.4930 C   0  0  0  0  0  0  0  0  0  0  0  0
  194.0670  173.5430  145.2300 C   0  0  0  0  0  0  0  0  0  0  0  0
  191.4780  175.3350  147.3210 C   0  0  1  0  0  3  0  0  0  0  0  0
  191.5060  176.4640  148.1440 O   0  0  0  0  0  1  0  0  0  0  0  0
  190.2010  175.3250  146.4660 C   0  0  1  0  0  3  0  0  0  0  0  0
  188.9850  174.8610  147.2660 C   0  0  0  0  0  1  0  0  0  0  0  0
  190.1340  176.6240  144.2950 C   0  0  0  0  0  1  0  0  0  0  0  0
  189.9620  176.6910  145.8040 C   0  0  1  0  0  3  0  0  0  0  0  0
  188.6540  177.3240  146.1760 C   0  0  0  0  0  0  0  0  0  0  0  0
  188.5420  177.8880  147.2960 O   0  0  0  0  0  0  0  0  0  0  0  0
  187.5410  177.2710  145.2770 N   0  0  0  0  0  2  0  0  0  0  0  0
  186.2490  177.8670  145.5870 C   0  0  2  0  0  3  0  0  0  0  0  0
  185.3260  176.8090  146.1570 C   0  0  0  0  0  1  0  0  0  0  0  0
  185.6430  178.4640  144.3590 C   0  0  0  0  0  0  0  0  0  0  0  0
  185.2970  177.7170  143.4080 O   0  0  0  0  0  0  0  0  0  0  0  0
  185.4720  179.8400  144.2550 O   0  0  0  0  0  1  0  0  0  0  0  0
  193.9950  172.2940  144.4100 C   0  0  0  0  0  2  0  0  0  0  0  0
  192.7070  171.6970  144.5330 O   0  0  0  0  0  0  0  0  0  0  0  0
  190.7950  169.4860  141.5240 C   0  0  0  0  0  3  0  0  0  0  0  0
  192.3400  169.5760  143.3260 C   0  0  0  0  0  0  0  0  0  0  0  0
  190.5120  170.8410  141.6670 C   0  0  0  0  0  3  0  0  0  0  0  0
  192.0750  170.9550  143.5210 C   0  0  0  0  0  0  0  0  0  0  0  0
  191.1480  171.5900  142.6580 C   0  0  0  0  0  0  0  0  0  0  0  0
  191.6950  168.8910  142.3460 N   0  0  0  0  0  0  0  0  0  0  0  0
  193.3120  168.8910  144.1110 N   0  0  0  0  0  1  0  0  0  0  0  0
  190.8020  172.9490  142.7450 O   0  0  0  0  0  0  0  0  0  0  0  0
  191.4690  174.0060  142.0700 C   0  0  0  0  0  1  0  0  0  0  0  0
  1  7  2  0  0  0  0
  2  3  2  0  0  0  0
  2  4  1  0  0  0  0
  5  3  1  0  0  0  0
  5  1  1  0  0  0  0
  6  7  1  0  0  0  0
  7  9  1  0  0  0  0
  8  2  1  0  0  0  0
  8  6  2  0  0  0  0
  9 10  1  6  0  0  0
 11 12  1  1  0  0  0
 11  9  1  0  0  0  0
 14 13  1  6  0  0  0
 14 15  1  0  0  0  0
 14 11  1  0  0  0  0
 15 16  2  0  0  0  0
 17 18  1  0  0  0  0
 17 15  1  0  0  0  0
 18 19  1  6  0  0  0
 20 18  1  0  0  0  0
 21 20  2  0  0  0  0
 22 20  1  0  0  0  0
 23 24  1  0  0  0  0
 23  8  1  0  0  0  0
 25 27  2  0  0  0  0
 25 30  1  0  0  0  0
 26 28  1  0  0  0  0
 26 31  1  0  0  0  0
 27 29  1  0  0  0  0
 28 24  1  0  0  0  0
 29 32  1  0  0  0  0
 29 28  2  0  0  0  0
 30 26  2  0  0  0  0
 33 32  1  0  0  0  0
M  END
>  <MODEL>
7

>  <REMARK>
 VINA RESULT:      -6.3      3.284      8.613
  Name = 
  10 active torsions:
  status: ('A' for Active; 'I' for Inactive)
    1  A    between atoms: O_1  and  C_29
    2  A    between atoms: CA_5  and  C_11
    3  A    between atoms: CA_5  and  N_19
    4  A    between atoms: C_7  and  C_33
    5  A    between atoms: C_14  and  C_17
    6  A    between atoms: C_14  and  C_23
    7  A    between atoms: C_17  and  C_33
    8  A    between atoms: O_24  and  C_25
    9  A    between atoms: O_24  and  C_27
   10  A    between atoms: C_25  and  C_26
                            x       y       z     vdW  Elec       q    Type
                         _______ _______ _______ _____ _____    ______ ____

>  <TORSDO>
F 10

$$$$
=
 OpenBabel11062418573D

 33 34  0  0  1  0  0  0  0  0999 V2000
  191.1800  175.9280  146.6230 C   0  0  0  0  0  3  0  0  0  0  0  0
  192.8130  173.8240  145.1550 C   0  0  0  0  0  0  0  0  0  0  0  0
  193.1810  174.6580  146.0820 N   0  0  0  0  0  0  0  0  0  0  0  0
  193.5180  172.5930  145.0310 N   0  0  0  0  0  1  0  0  0  0  0  0
  192.6260  175.9920  146.2640 C   0  0  0  0  0  2  0  0  0  0  0  0
  190.5830  174.7470  144.5360 C   0  0  0  0  0  3  0  0  0  0  0  0
  190.2580  175.3660  145.8340 C   0  0  0  0  0  0  0  0  0  0  0  0
  191.7150  174.1150  144.1990 C   0  0  0  0  0  0  0  0  0  0  0  0
  188.8040  175.4910  146.1790 C   0  0  1  0  0  3  0  0  0  0  0  0
  188.5700  175.0140  147.4710 O   0  0  0  0  0  1  0  0  0  0  0  0
  188.2840  176.9310  146.0340 C   0  0  1  0  0  3  0  0  0  0  0  0
  188.8780  177.6290  144.8100 C   0  0  0  0  0  1  0  0  0  0  0  0
  186.1820  177.1620  147.4220 C   0  0  0  0  0  1  0  0  0  0  0  0
  186.7490  176.9720  146.0250 C   0  0  1  0  0  3  0  0  0  0  0  0
  186.1740  177.9690  145.0630 C   0  0  0  0  0  0  0  0  0  0  0  0
  185.9520  179.1450  145.4580 O   0  0  0  0  0  0  0  0  0  0  0  0
  185.8650  177.5860  143.7190 N   0  0  0  0  0  2  0  0  0  0  0  0
  185.3070  178.5120  142.7440 C   0  0  2  0  0  3  0  0  0  0  0  0
  183.8090  178.3020  142.6460 C   0  0  0  0  0  1  0  0  0  0  0  0
  185.9390  178.3050  141.4070 C   0  0  0  0  0  0  0  0  0  0  0  0
  185.2220  178.2910  140.3730 O   0  0  0  0  0  0  0  0  0  0  0  0
  187.3120  178.1140  141.2980 O   0  0  0  0  0  1  0  0  0  0  0  0
  191.8030  173.5570  142.8140 C   0  0  0  0  0  2  0  0  0  0  0  0
  190.6230  172.8240  142.5020 O   0  0  0  0  0  0  0  0  0  0  0  0
  188.9520  172.5020  138.6670 C   0  0  0  0  0  3  0  0  0  0  0  0
  190.3780  171.6320  140.3550 C   0  0  0  0  0  0  0  0  0  0  0  0
  188.6310  173.5950  139.4670 C   0  0  0  0  0  3  0  0  0  0  0  0
  190.0710  172.7170  141.2130 C   0  0  0  0  0  0  0  0  0  0  0  0
  189.1870  173.7190  140.7420 C   0  0  0  0  0  0  0  0  0  0  0  0
  189.8110  171.5570  139.1230 N   0  0  0  0  0  0  0  0  0  0  0  0
  191.3130  170.6270  140.7380 N   0  0  0  0  0  1  0  0  0  0  0  0
  188.8070  174.8440  141.4920 O   0  0  0  0  0  0  0  0  0  0  0  0
  187.6740  174.9110  142.3470 C   0  0  0  0  0  1  0  0  0  0  0  0
  2  3  2  0  0  0  0
  3  5  1  0  0  0  0
  4  2  1  0  0  0  0
  5  1  1  0  0  0  0
  6  7  1  0  0  0  0
  7  9  1  0  0  0  0
  7  1  2  0  0  0  0
  8  6  2  0  0  0  0
  8  2  1  0  0  0  0
  9 10  1  1  0  0  0
 11 12  1  6  0  0  0
 11  9  1  0  0  0  0
 14 11  1  0  0  0  0
 14 13  1  1  0  0  0
 15 16  2  0  0  0  0
 15 14  1  0  0  0  0
 17 15  1  0  0  0  0
 18 19  1  6  0  0  0
 18 17  1  0  0  0  0
 20 18  1  0  0  0  0
 21 20  2  0  0  0  0
 22 20  1  0  0  0  0
 23  8  1  0  0  0  0
 24 23  1  0  0  0  0
 25 30  2  0  0  0  0
 25 27  1  0  0  0  0
 26 31  1  0  0  0  0
 26 28  2  0  0  0  0
 27 29  2  0  0  0  0
 28 24  1  0  0  0  0
 29 28  1  0  0  0  0
 29 32  1  0  0  0  0
 30 26  1  0  0  0  0
 32 33  1  0  0  0  0
M  END
>  <MODEL>
8

>  <REMARK>
 VINA RESULT:      -6.3      3.494      8.314
  Name = 
  10 active torsions:
  status: ('A' for Active; 'I' for Inactive)
    1  A    between atoms: O_1  and  C_29
    2  A    between atoms: CA_5  and  C_11
    3  A    between atoms: CA_5  and  N_19
    4  A    between atoms: C_7  and  C_33
    5  A    between atoms: C_14  and  C_17
    6  A    between atoms: C_14  and  C_23
    7  A    between atoms: C_17  and  C_33
    8  A    between atoms: O_24  and  C_25
    9  A    between atoms: O_24  and  C_27
   10  A    between atoms: C_25  and  C_26
                            x       y       z     vdW  Elec       q    Type
                         _______ _______ _______ _____ _____    ______ ____

>  <TORSDO>
F 10

$$$$
=
 OpenBabel11062418573D

 33 34  0  0  1  0  0  0  0  0999 V2000
  185.7080  178.1780  145.6140 C   0  0  0  0  0  3  0  0  0  0  0  0
  185.8640  177.9730  142.5840 C   0  0  0  0  0  0  0  0  0  0  0  0
  185.0670  178.6850  143.3240 N   0  0  0  0  0  0  0  0  0  0  0  0
  186.1700  178.4390  141.2730 N   0  0  0  0  0  1  0  0  0  0  0  0
  184.5840  178.2890  144.6400 C   0  0  0  0  0  2  0  0  0  0  0  0
  186.8600  176.4450  144.2820 C   0  0  0  0  0  3  0  0  0  0  0  0
  186.7340  177.3390  145.4490 C   0  0  0  0  0  0  0  0  0  0  0  0
  186.4390  176.6800  143.0330 C   0  0  0  0  0  0  0  0  0  0  0  0
  187.7360  177.1570  146.5500 C   0  0  1  0  0  3  0  0  0  0  0  0
  187.2460  176.2610  147.5050 O   0  0  0  0  0  1  0  0  0  0  0  0
  189.1070  176.6940  146.0320 C   0  0  1  0  0  3  0  0  0  0  0  0
  190.1340  177.8260  146.0530 C   0  0  0  0  0  1  0  0  0  0  0  0
  189.3070  174.1720  146.0420 C   0  0  0  0  0  1  0  0  0  0  0  0
  189.6040  175.4570  146.7960 C   0  0  1  0  0  3  0  0  0  0  0  0
  191.0480  175.5330  147.1970 C   0  0  0  0  0  0  0  0  0  0  0  0
  191.3390  175.8050  148.3920 O   0  0  0  0  0  0  0  0  0  0  0  0
  192.0820  175.3160  146.2300 N   0  0  0  0  0  2  0  0  0  0  0  0
  193.4970  175.3770  146.5640 C   0  0  2  0  0  3  0  0  0  0  0  0
  194.0040  176.7930  146.3660 C   0  0  0  0  0  1  0  0  0  0  0  0
  194.2760  174.4330  145.7080 C   0  0  0  0  0  0  0  0  0  0  0  0
  195.3500  174.8150  145.1770 O   0  0  0  0  0  0  0  0  0  0  0  0
  193.8130  173.1420  145.4820 O   0  0  0  0  0  1  0  0  0  0  0  0
  186.6940  175.6170  142.0120 C   0  0  0  0  0  2  0  0  0  0  0  0
  187.9330  175.8560  141.3500 O   0  0  0  0  0  0  0  0  0  0  0  0
  191.6640  174.6490  142.8380 C   0  0  0  0  0  3  0  0  0  0  0  0
  190.0870  176.3780  142.4360 C   0  0  0  0  0  0  0  0  0  0  0  0
  190.8230  173.7100  142.2510 C   0  0  0  0  0  3  0  0  0  0  0  0
  189.1870  175.4580  141.8420 C   0  0  0  0  0  0  0  0  0  0  0  0
  189.5820  174.1000  141.7440 C   0  0  0  0  0  0  0  0  0  0  0  0
  191.2840  175.9480  142.9140 N   0  0  0  0  0  0  0  0  0  0  0  0
  189.7840  177.7680  142.5040 N   0  0  0  0  0  1  0  0  0  0  0  0
  188.7850  173.0930  141.1750 O   0  0  0  0  0  0  0  0  0  0  0  0
  188.5430  172.9300  139.7840 C   0  0  0  0  0  1  0  0  0  0  0  0
  2  8  1  0  0  0  0
  2  3  2  0  0  0  0
  3  5  1  0  0  0  0
  4  2  1  0  0  0  0
  5  1  1  0  0  0  0
  6  7  1  0  0  0  0
  7  1  2  0  0  0  0
  7  9  1  0  0  0  0
  8  6  2  0  0  0  0
  9 10  1  1  0  0  0
 11 12  1  1  0  0  0
 11  9  1  0  0  0  0
 11 14  1  0  0  0  0
 14 13  1  6  0  0  0
 14 15  1  0  0  0  0
 15 16  2  0  0  0  0
 17 18  1  0  0  0  0
 17 15  1  0  0  0  0
 18 19  1  6  0  0  0
 20 18  1  0  0  0  0
 21 20  2  0  0  0  0
 22 20  1  0  0  0  0
 23  8  1  0  0  0  0
 24 28  1  0  0  0  0
 24 23  1  0  0  0  0
 25 30  1  0  0  0  0
 26 31  1  0  0  0  0
 26 30  2  0  0  0  0
 27 25  2  0  0  0  0
 28 26  1  0  0  0  0
 29 28  2  0  0  0  0
 29 27  1  0  0  0  0
 32 29  1  0  0  0  0
 33 32  1  0  0  0  0
M  END
>  <MODEL>
9

>  <REMARK>
 VINA RESULT:      -6.3      2.550      5.649
  Name = 
  10 active torsions:
  status: ('A' for Active; 'I' for Inactive)
    1  A    between atoms: O_1  and  C_29
    2  A    between atoms: CA_5  and  C_11
    3  A    between atoms: CA_5  and  N_19
    4  A    between atoms: C_7  and  C_33
    5  A    between atoms: C_14  and  C_17
    6  A    between atoms: C_14  and  C_23
    7  A    between atoms: C_17  and  C_33
    8  A    between atoms: O_24  and  C_25
    9  A    between atoms: O_24  and  C_27
   10  A    between atoms: C_25  and  C_26
                            x       y       z     vdW  Elec       q    Type
                         _______ _______ _______ _____ _____    ______ ____

>  <TORSDO>
F 10

$$$$
