=
 OpenBabel11062422193D

 41 46  0  0  1  0  0  0  0  0999 V2000
  189.6770  171.6480  142.0940 O   0  0  0  0  0  0  0  0  0  0  0  0
  189.8290  172.3890  141.0860 C   0  0  0  0  0  0  0  0  0  0  0  0
  188.7110  172.6430  140.2330 N   0  0  0  0  0  2  0  0  0  0  0  0
  191.3160  174.3090  141.5690 C   0  0  0  0  0  2  0  0  0  0  0  0
  191.1620  173.0190  140.8090 C   0  0  1  0  0  3  0  0  0  0  0  0
  192.2820  172.1650  141.3210 C   0  0  0  0  0  2  0  0  0  0  0  0
  192.5130  174.2020  142.4050 N   0  0  2  0  0  0  0  0  0  0  0  0
  193.2270  173.0660  141.9630 N   0  0  0  0  0  2  0  0  0  0  0  0
  192.8690  175.9900  146.8630 O   0  0  0  0  0  0  0  0  0  0  0  0
  190.6920  174.3360  143.9760 N   0  0  0  0  0  2  0  0  0  0  0  0
  192.2910  175.2250  146.0420 C   0  0  0  0  0  0  0  0  0  0  0  0
  193.0000  174.8250  144.7720 C   0  0  2  0  0  3  0  0  0  0  0  0
  192.1090  173.9940  143.8080 C   0  0  2  0  0  3  0  0  0  0  0  0
  190.2950  173.9260  145.3160 C   0  0  0  0  0  2  0  0  0  0  0  0
  190.9520  174.7780  146.2920 N   0  0  0  0  0  0  0  0  0  0  0  0
  190.1970  175.2560  147.4400 C   0  0  0  0  0  1  0  0  0  0  0  0
  195.6800  172.3700  145.7530 C   0  0  0  0  0  3  0  0  0  0  0  0
  194.3600  172.7540  145.4740 C   0  0  0  0  0  3  0  0  0  0  0  0
  196.6200  173.3890  145.6160 C   0  0  0  0  0  3  0  0  0  0  0  0
  194.2600  174.0890  145.1070 C   0  0  0  0  0  0  0  0  0  0  0  0
  195.7870  174.7740  145.1450 S   0  0  0  0  0  0  0  0  0  0  0  0
  188.8050  173.4490  139.0220 C   0  0  0  0  0  2  0  0  0  0  0  0
  187.4430  175.1750  138.0940 O   0  0  0  0  0  0  0  0  0  0  0  0
  187.9390  174.6580  139.1310 C   0  0  0  0  0  0  0  0  0  0  0  0
  187.7010  175.2110  140.3900 O   0  0  0  0  0  0  0  0  0  0  0  0
  187.5560  176.8880  144.6350 C   0  0  2  0  0  3  0  0  0  0  0  0
  186.1320  177.3290  142.6220 C   0  0  0  0  0  3  0  0  0  0  0  0
  188.1870  176.4960  140.7670 C   0  0  2  0  0  3  0  0  0  0  0  0
  188.6620  177.9190  144.8880 C   0  0  0  0  0  2  0  0  0  0  0  0
  189.9120  177.5730  144.0720 C   0  0  0  0  0  2  0  0  0  0  0  0
  187.2780  176.8520  143.1460 C   0  0  0  0  0  0  0  0  0  0  0  0
  188.4820  176.5400  142.2760 C   0  0  2  0  0  3  0  0  0  0  0  0
  185.8770  177.3720  141.1410 C   0  0  0  0  0  2  0  0  0  0  0  0
  189.5920  177.5480  142.5740 C   0  0  0  0  0  2  0  0  0  0  0  0
  187.1780  177.5750  140.3710 C   0  0  0  0  0  2  0  0  0  0  0  0
  186.6520  176.8900  146.9780 C   0  0  0  0  0  3  0  0  0  0  0  0
  186.3200  177.1280  145.5230 C   0  0  1  0  0  3  0  0  0  0  0  0
  185.7570  178.5490  145.3400 C   0  0  0  0  0  2  0  0  0  0  0  0
  184.6850  178.8330  146.3610 C   0  0  0  0  0  3  0  0  0  0  0  0
  184.7840  178.3340  147.5970 C   0  0  0  0  0  3  0  0  0  0  0  0
  185.8980  177.4280  147.9430 C   0  0  0  0  0  3  0  0  0  0  0  0
  2  1  2  0  0  0  0
  3  2  1  0  0  0  0
  5  2  1  1  0  0  0
  5  6  1  0  0  0  0
  5  4  1  0  0  0  0
  6  8  1  0  0  0  0
  7  4  1  6  0  0  0
  7 13  1  0  0  0  0
  8  7  1  0  0  0  0
 10 14  1  0  0  0  0
 11 15  1  0  0  0  0
 11  9  2  0  0  0  0
 12 20  1  1  0  0  0
 12 11  1  0  0  0  0
 13 10  1  6  0  0  0
 13 12  1  0  0  0  0
 14 15  1  0  0  0  0
 15 16  1  0  0  0  0
 18 17  1  0  0  0  0
 19 17  2  0  0  0  0
 20 21  1  0  0  0  0
 20 18  2  0  0  0  0
 21 19  1  0  0  0  0
 22 24  1  0  0  0  0
 22  3  1  0  0  0  0
 23 24  2  0  0  0  0
 24 25  1  0  0  0  0
 26 29  1  6  0  0  0
 26 37  1  0  0  0  0
 27 31  2  0  0  0  0
 28 25  1  1  0  0  0
 28 32  1  0  0  0  0
 30 29  1  0  0  0  0
 31 26  1  0  0  0  0
 32 34  1  6  0  0  0
 32 31  1  0  0  0  0
 33 27  1  0  0  0  0
 34 30  1  0  0  0  0
 35 28  1  0  0  0  0
 35 33  1  0  0  0  0
 36 41  2  0  0  0  0
 37 38  1  1  0  0  0
 37 36  1  0  0  0  0
 38 39  1  0  0  0  0
 39 40  2  0  0  0  0
 40 41  1  0  0  0  0
M  END
>  <MODEL>
1

>  <REMARK>
 VINA RESULT:      -7.9      0.000      0.000
  Name = 
  8 active torsions:
  status: ('A' for Active; 'I' for Inactive)
    1  A    between atoms: C_8  and  C_26
    2  A    between atoms: C_9  and  C_12
    3  A    between atoms: C_11  and  C_31
    4  A    between atoms: C_16  and  N_20
    5  A    between atoms: C_18  and  O_35
    6  A    between atoms: C_18  and  C_36
    7  A    between atoms: C_22  and  O_35
    8  A    between atoms: N_29  and  C_36
                            x       y       z     vdW  Elec       q    Type
                         _______ _______ _______ _____ _____    ______ ____

>  <TORSDO>
F 8

$$$$
=
 OpenBabel11062422193D

 41 46  0  0  1  0  0  0  0  0999 V2000
  194.9820  172.4230  141.3380 O   0  0  0  0  0  0  0  0  0  0  0  0
  193.8840  172.9890  141.0900 C   0  0  0  0  0  0  0  0  0  0  0  0
  192.7120  172.1910  140.9140 N   0  0  0  0  0  2  0  0  0  0  0  0
  193.2520  175.0620  142.2870 C   0  0  0  0  0  2  0  0  0  0  0  0
  193.8100  174.4860  141.0140 C   0  0  1  0  0  3  0  0  0  0  0  0
  195.1760  175.0930  140.9140 C   0  0  0  0  0  2  0  0  0  0  0  0
  194.2340  176.0050  142.8260 N   0  0  2  0  0  0  0  0  0  0  0  0
  195.1840  176.2400  141.8080 N   0  0  0  0  0  2  0  0  0  0  0  0
  194.1560  172.2540  145.8460 O   0  0  0  0  0  0  0  0  0  0  0  0
  196.1840  174.7910  143.5510 N   0  0  0  0  0  2  0  0  0  0  0  0
  194.7780  173.2290  145.3410 C   0  0  0  0  0  0  0  0  0  0  0  0
  194.0040  174.3350  144.6660 C   0  0  2  0  0  3  0  0  0  0  0  0
  194.9150  175.3910  143.9810 C   0  0  2  0  0  3  0  0  0  0  0  0
  196.9040  174.3810  144.7490 C   0  0  0  0  0  2  0  0  0  0  0  0
  196.2100  173.2640  145.3670 N   0  0  0  0  0  0  0  0  0  0  0  0
  196.9840  172.1480  145.8900 C   0  0  0  0  0  1  0  0  0  0  0  0
  191.1600  175.4350  146.8750 C   0  0  0  0  0  3  0  0  0  0  0  0
  191.7690  174.6110  145.9160 C   0  0  0  0  0  3  0  0  0  0  0  0
  191.9770  176.4520  147.3660 C   0  0  0  0  0  3  0  0  0  0  0  0
  193.0810  174.9810  145.6520 C   0  0  0  0  0  0  0  0  0  0  0  0
  193.4640  176.3160  146.5880 S   0  0  0  0  0  0  0  0  0  0  0  0
  191.4110  172.7570  140.5790 C   0  0  0  0  0  2  0  0  0  0  0  0
  190.2150  171.1220  141.8410 O   0  0  0  0  0  0  0  0  0  0  0  0
  190.3880  172.3440  141.5830 C   0  0  0  0  0  0  0  0  0  0  0  0
  189.6220  173.3240  142.2150 O   0  0  0  0  0  0  0  0  0  0  0  0
  188.3060  176.7530  144.9300 C   0  0  2  0  0  3  0  0  0  0  0  0
  187.2090  175.6830  142.9480 C   0  0  0  0  0  3  0  0  0  0  0  0
  189.7070  174.7040  141.8710 C   0  0  2  0  0  3  0  0  0  0  0  0
  189.0650  178.0520  144.6310 C   0  0  0  0  0  2  0  0  0  0  0  0
  190.4890  177.7410  144.1550 C   0  0  0  0  0  2  0  0  0  0  0  0
  188.3220  175.9010  143.6770 C   0  0  0  0  0  0  0  0  0  0  0  0
  189.7020  175.5770  143.1370 C   0  0  2  0  0  3  0  0  0  0  0  0
  187.2250  174.9060  141.6620 C   0  0  0  0  0  2  0  0  0  0  0  0
  190.4620  176.8800  142.8880 C   0  0  0  0  0  2  0  0  0  0  0  0
  188.5550  175.0810  140.9370 C   0  0  0  0  0  2  0  0  0  0  0  0
  186.9270  176.8650  147.0250 C   0  0  0  0  0  3  0  0  0  0  0  0
  186.9090  177.0170  145.5220 C   0  0  1  0  0  3  0  0  0  0  0  0
  186.3870  178.4150  145.1440 C   0  0  0  0  0  2  0  0  0  0  0  0
  185.1210  178.7330  145.8980 C   0  0  0  0  0  3  0  0  0  0  0  0
  184.9610  178.3030  147.1540 C   0  0  0  0  0  3  0  0  0  0  0  0
  185.9830  177.4390  147.7770 C   0  0  0  0  0  3  0  0  0  0  0  0
  2  1  2  0  0  0  0
  3  2  1  0  0  0  0
  5  2  1  1  0  0  0
  5  4  1  0  0  0  0
  6  5  1  0  0  0  0
  6  8  1  0  0  0  0
  7  4  1  6  0  0  0
  7 13  1  0  0  0  0
  8  7  1  0  0  0  0
 10 14  1  0  0  0  0
 11 15  1  0  0  0  0
 11  9  2  0  0  0  0
 12 11  1  0  0  0  0
 12 20  1  1  0  0  0
 13 10  1  6  0  0  0
 13 12  1  0  0  0  0
 14 15  1  0  0  0  0
 15 16  1  0  0  0  0
 17 19  2  0  0  0  0
 18 17  1  0  0  0  0
 20 18  2  0  0  0  0
 20 21  1  0  0  0  0
 21 19  1  0  0  0  0
 22  3  1  0  0  0  0
 22 24  1  0  0  0  0
 24 23  2  0  0  0  0
 24 25  1  0  0  0  0
 26 29  1  6  0  0  0
 26 37  1  0  0  0  0
 27 31  2  0  0  0  0
 28 25  1  1  0  0  0
 28 32  1  0  0  0  0
 30 29  1  0  0  0  0
 31 26  1  0  0  0  0
 32 34  1  6  0  0  0
 32 31  1  0  0  0  0
 33 27  1  0  0  0  0
 34 30  1  0  0  0  0
 35 33  1  0  0  0  0
 35 28  1  0  0  0  0
 36 41  2  0  0  0  0
 37 38  1  1  0  0  0
 37 36  1  0  0  0  0
 38 39  1  0  0  0  0
 39 40  2  0  0  0  0
 40 41  1  0  0  0  0
M  END
>  <MODEL>
2

>  <REMARK>
 VINA RESULT:      -7.8      2.148      3.550
  Name = 
  8 active torsions:
  status: ('A' for Active; 'I' for Inactive)
    1  A    between atoms: C_8  and  C_26
    2  A    between atoms: C_9  and  C_12
    3  A    between atoms: C_11  and  C_31
    4  A    between atoms: C_16  and  N_20
    5  A    between atoms: C_18  and  O_35
    6  A    between atoms: C_18  and  C_36
    7  A    between atoms: C_22  and  O_35
    8  A    between atoms: N_29  and  C_36
                            x       y       z     vdW  Elec       q    Type
                         _______ _______ _______ _____ _____    ______ ____

>  <TORSDO>
F 8

$$$$
=
 OpenBabel11062422193D

 41 46  0  0  1  0  0  0  0  0999 V2000
  194.5130  172.4970  143.8500 O   0  0  0  0  0  0  0  0  0  0  0  0
  194.5280  173.7280  143.5830 C   0  0  0  0  0  0  0  0  0  0  0  0
  194.6240  174.6730  144.6510 N   0  0  0  0  0  2  0  0  0  0  0  0
  194.4360  173.0170  141.2130 C   0  0  0  0  0  2  0  0  0  0  0  0
  194.4780  174.1890  142.1560 C   0  0  1  0  0  3  0  0  0  0  0  0
  193.2050  174.9250  141.8680 C   0  0  0  0  0  2  0  0  0  0  0  0
  193.2340  173.1420  140.3870 N   0  0  2  0  0  0  0  0  0  0  0  0
  192.7360  174.4500  140.5760 N   0  0  0  0  0  2  0  0  0  0  0  0
  190.3460  169.5510  138.9840 O   0  0  0  0  0  0  0  0  0  0  0  0
  192.8670  171.1130  141.6330 N   0  0  0  0  0  2  0  0  0  0  0  0
  190.9180  170.1860  139.9130 C   0  0  0  0  0  0  0  0  0  0  0  0
  191.4280  171.5830  139.6560 C   0  0  2  0  0  3  0  0  0  0  0  0
  192.2220  172.1750  140.8520 C   0  0  2  0  0  3  0  0  0  0  0  0
  191.8140  170.3060  142.2330 C   0  0  0  0  0  2  0  0  0  0  0  0
  191.1230  169.5670  141.1890 N   0  0  0  0  0  0  0  0  0  0  0  0
  190.7630  168.1770  141.4220 C   0  0  0  0  0  1  0  0  0  0  0  0
  188.3840  173.7890  139.4630 C   0  0  0  0  0  3  0  0  0  0  0  0
  189.3440  173.0180  140.1340 C   0  0  0  0  0  3  0  0  0  0  0  0
  188.5580  173.8550  138.0810 C   0  0  0  0  0  3  0  0  0  0  0  0
  190.2880  172.4750  139.2730 C   0  0  0  0  0  0  0  0  0  0  0  0
  189.9190  172.9380  137.7070 S   0  0  0  0  0  0  0  0  0  0  0  0
  194.6020  176.1150  144.4380 C   0  0  0  0  0  2  0  0  0  0  0  0
  194.2170  177.1700  146.5440 O   0  0  0  0  0  0  0  0  0  0  0  0
  193.7300  176.7780  145.4500 C   0  0  0  0  0  0  0  0  0  0  0  0
  192.3720  176.9410  145.1720 O   0  0  0  0  0  0  0  0  0  0  0  0
  187.8860  177.3160  144.4000 C   0  0  2  0  0  3  0  0  0  0  0  0
  189.1750  176.6720  146.4500 C   0  0  0  0  0  3  0  0  0  0  0  0
  191.4970  175.8400  144.9430 C   0  0  2  0  0  3  0  0  0  0  0  0
  187.3400  176.1410  143.5790 C   0  0  0  0  0  2  0  0  0  0  0  0
  188.4080  175.6280  142.6060 C   0  0  0  0  0  2  0  0  0  0  0  0
  189.1380  176.8490  145.1140 C   0  0  0  0  0  0  0  0  0  0  0  0
  190.2280  176.3030  144.2100 C   0  0  2  0  0  3  0  0  0  0  0  0
  190.3840  176.1340  147.1610 C   0  0  0  0  0  2  0  0  0  0  0  0
  189.6550  175.1640  143.3650 C   0  0  0  0  0  2  0  0  0  0  0  0
  191.1510  175.1620  146.2700 C   0  0  0  0  0  2  0  0  0  0  0  0
  186.0890  179.0590  144.5950 C   0  0  0  0  0  3  0  0  0  0  0  0
  186.8110  177.9410  145.3100 C   0  0  1  0  0  3  0  0  0  0  0  0
  185.7970  176.8890  145.7960 C   0  0  0  0  0  2  0  0  0  0  0  0
  184.6450  177.5500  146.5090 C   0  0  0  0  0  3  0  0  0  0  0  0
  184.1930  178.7390  146.0970 C   0  0  0  0  0  3  0  0  0  0  0  0
  184.8770  179.4520  145.0000 C   0  0  0  0  0  3  0  0  0  0  0  0
  2  1  2  0  0  0  0
  2  3  1  0  0  0  0
  4  5  1  0  0  0  0
  5  2  1  1  0  0  0
  6  5  1  0  0  0  0
  7  8  1  0  0  0  0
  7 13  1  0  0  0  0
  7  4  1  1  0  0  0
  8  6  1  0  0  0  0
  9 11  2  0  0  0  0
 10 14  1  0  0  0  0
 11 15  1  0  0  0  0
 12 20  1  1  0  0  0
 12 11  1  0  0  0  0
 12 13  1  0  0  0  0
 13 10  1  6  0  0  0
 15 16  1  0  0  0  0
 15 14  1  0  0  0  0
 17 18  1  0  0  0  0
 19 17  2  0  0  0  0
 20 18  2  0  0  0  0
 21 19  1  0  0  0  0
 21 20  1  0  0  0  0
 22  3  1  0  0  0  0
 22 24  1  0  0  0  0
 24 23  2  0  0  0  0
 25 24  1  0  0  0  0
 26 29  1  1  0  0  0
 26 31  1  0  0  0  0
 26 37  1  0  0  0  0
 27 33  1  0  0  0  0
 28 25  1  1  0  0  0
 28 35  1  0  0  0  0
 30 34  1  0  0  0  0
 30 29  1  0  0  0  0
 31 27  2  0  0  0  0
 32 34  1  1  0  0  0
 32 28  1  0  0  0  0
 32 31  1  0  0  0  0
 35 33  1  0  0  0  0
 36 41  2  0  0  0  0
 37 36  1  6  0  0  0
 37 38  1  0  0  0  0
 38 39  1  0  0  0  0
 40 39  2  0  0  0  0
 41 40  1  0  0  0  0
M  END
>  <MODEL>
3

>  <REMARK>
 VINA RESULT:      -7.6      2.880      6.130
  Name = 
  8 active torsions:
  status: ('A' for Active; 'I' for Inactive)
    1  A    between atoms: C_8  and  C_26
    2  A    between atoms: C_9  and  C_12
    3  A    between atoms: C_11  and  C_31
    4  A    between atoms: C_16  and  N_20
    5  A    between atoms: C_18  and  O_35
    6  A    between atoms: C_18  and  C_36
    7  A    between atoms: C_22  and  O_35
    8  A    between atoms: N_29  and  C_36
                            x       y       z     vdW  Elec       q    Type
                         _______ _______ _______ _____ _____    ______ ____

>  <TORSDO>
F 8

$$$$
=
 OpenBabel11062422193D

 41 46  0  0  1  0  0  0  0  0999 V2000
  192.2070  175.9380  143.5560 O   0  0  0  0  0  0  0  0  0  0  0  0
  191.8090  175.2910  144.5620 C   0  0  0  0  0  0  0  0  0  0  0  0
  190.6620  174.4480  144.4400 N   0  0  0  0  0  2  0  0  0  0  0  0
  193.6770  174.3830  145.9100 C   0  0  0  0  0  2  0  0  0  0  0  0
  192.5560  175.3860  145.8600 C   0  0  1  0  0  3  0  0  0  0  0  0
  193.2510  176.7070  145.9910 C   0  0  0  0  0  2  0  0  0  0  0  0
  194.9270  175.1110  146.1370 N   0  0  2  0  0  0  0  0  0  0  0  0
  194.5760  176.4260  146.5190 N   0  0  0  0  0  2  0  0  0  0  0  0
  195.0480  173.5510  141.5820 O   0  0  0  0  0  0  0  0  0  0  0  0
  195.5010  176.4760  144.2370 N   0  0  0  0  0  2  0  0  0  0  0  0
  195.4450  174.3630  142.4630 C   0  0  0  0  0  0  0  0  0  0  0  0
  195.2780  174.0160  143.9220 C   0  0  2  0  0  3  0  0  0  0  0  0
  195.6910  175.1700  144.8780 C   0  0  2  0  0  3  0  0  0  0  0  0
  196.4260  176.5570  143.1150 C   0  0  0  0  0  2  0  0  0  0  0  0
  196.0070  175.6240  142.0810 N   0  0  0  0  0  0  0  0  0  0  0  0
  196.0560  176.0400  140.6890 C   0  0  0  0  0  1  0  0  0  0  0  0
  197.8180  171.3330  144.6480 C   0  0  0  0  0  3  0  0  0  0  0  0
  197.4110  172.6510  144.3900 C   0  0  0  0  0  3  0  0  0  0  0  0
  196.7780  170.4060  144.6930 C   0  0  0  0  0  3  0  0  0  0  0  0
  196.0360  172.7630  144.2340 C   0  0  0  0  0  0  0  0  0  0  0  0
  195.3490  171.2460  144.4040 S   0  0  0  0  0  0  0  0  0  0  0  0
  190.1060  173.7010  145.5620 C   0  0  0  0  0  2  0  0  0  0  0  0
  189.9380  174.7950  147.6760 O   0  0  0  0  0  0  0  0  0  0  0  0
  189.4460  174.6250  146.5280 C   0  0  0  0  0  0  0  0  0  0  0  0
  188.2750  175.2820  146.1480 O   0  0  0  0  0  0  0  0  0  0  0  0
  184.9740  177.9030  144.3900 C   0  0  2  0  0  3  0  0  0  0  0  0
  187.4650  177.9700  144.1360 C   0  0  0  0  0  3  0  0  0  0  0  0
  187.9330  176.5800  146.6270 C   0  0  2  0  0  3  0  0  0  0  0  0
  184.3990  178.8800  145.4230 C   0  0  0  0  0  2  0  0  0  0  0  0
  184.4430  178.2630  146.8250 C   0  0  0  0  0  2  0  0  0  0  0  0
  186.3820  177.5430  144.8160 C   0  0  0  0  0  0  0  0  0  0  0  0
  186.5010  176.9500  146.2080 C   0  0  2  0  0  3  0  0  0  0  0  0
  188.8690  177.6870  144.5910 C   0  0  0  0  0  2  0  0  0  0  0  0
  185.8820  177.9150  147.2200 C   0  0  0  0  0  2  0  0  0  0  0  0
  188.9410  177.6090  146.1130 C   0  0  0  0  0  2  0  0  0  0  0  0
  185.8210  177.7360  142.0320 C   0  0  0  0  0  3  0  0  0  0  0  0
  184.8440  178.4330  142.9490 C   0  0  1  0  0  3  0  0  0  0  0  0
  183.4110  178.2680  142.4110 C   0  0  0  0  0  2  0  0  0  0  0  0
  183.3530  178.5980  140.9410 C   0  0  0  0  0  3  0  0  0  0  0  0
  184.3810  178.2920  140.1430 C   0  0  0  0  0  3  0  0  0  0  0  0
  185.6140  177.7130  140.7110 C   0  0  0  0  0  3  0  0  0  0  0  0
  1  2  2  0  0  0  0
  3  2  1  0  0  0  0
  3 22  1  0  0  0  0
  5  2  1  6  0  0  0
  5  4  1  0  0  0  0
  5  6  1  0  0  0  0
  6  8  1  0  0  0  0
  7  4  1  6  0  0  0
  7  8  1  0  0  0  0
  9 11  2  0  0  0  0
 11 12  1  0  0  0  0
 12 20  1  1  0  0  0
 12 13  1  0  0  0  0
 13 10  1  6  0  0  0
 13  7  1  0  0  0  0
 14 10  1  0  0  0  0
 15 11  1  0  0  0  0
 15 14  1  0  0  0  0
 16 15  1  0  0  0  0
 17 19  2  0  0  0  0
 18 17  1  0  0  0  0
 20 18  2  0  0  0  0
 20 21  1  0  0  0  0
 21 19  1  0  0  0  0
 22 24  1  0  0  0  0
 24 23  2  0  0  0  0
 25 24  1  0  0  0  0
 26 31  1  0  0  0  0
 26 29  1  1  0  0  0
 27 33  1  0  0  0  0
 27 31  2  0  0  0  0
 28 25  1  6  0  0  0
 29 30  1  0  0  0  0
 30 34  1  0  0  0  0
 31 32  1  0  0  0  0
 32 28  1  0  0  0  0
 32 34  1  1  0  0  0
 33 35  1  0  0  0  0
 35 28  1  0  0  0  0
 37 36  1  6  0  0  0
 37 26  1  0  0  0  0
 38 37  1  0  0  0  0
 39 38  1  0  0  0  0
 40 41  1  0  0  0  0
 40 39  2  0  0  0  0
 41 36  2  0  0  0  0
M  END
>  <MODEL>
4

>  <REMARK>
 VINA RESULT:      -7.6      2.923      5.424
  Name = 
  8 active torsions:
  status: ('A' for Active; 'I' for Inactive)
    1  A    between atoms: C_8  and  C_26
    2  A    between atoms: C_9  and  C_12
    3  A    between atoms: C_11  and  C_31
    4  A    between atoms: C_16  and  N_20
    5  A    between atoms: C_18  and  O_35
    6  A    between atoms: C_18  and  C_36
    7  A    between atoms: C_22  and  O_35
    8  A    between atoms: N_29  and  C_36
                            x       y       z     vdW  Elec       q    Type
                         _______ _______ _______ _____ _____    ______ ____

>  <TORSDO>
F 8

$$$$
=
 OpenBabel11062422193D

 41 46  0  0  1  0  0  0  0  0999 V2000
  191.3430  171.5450  142.8890 O   0  0  0  0  0  0  0  0  0  0  0  0
  190.4800  172.4590  142.8070 C   0  0  0  0  0  0  0  0  0  0  0  0
  189.2350  172.1870  142.1590 N   0  0  0  0  0  2  0  0  0  0  0  0
  191.4400  173.6680  144.7430 C   0  0  0  0  0  2  0  0  0  0  0  0
  190.7490  173.8050  143.4130 C   0  0  1  0  0  3  0  0  0  0  0  0
  191.7210  174.5880  142.5830 C   0  0  0  0  0  2  0  0  0  0  0  0
  192.7020  174.4080  144.6770 N   0  0  2  0  0  0  0  0  0  0  0  0
  192.6520  175.2080  143.5130 N   0  0  0  0  0  2  0  0  0  0  0  0
  197.1620  173.4160  146.2010 O   0  0  0  0  0  0  0  0  0  0  0  0
  193.4930  172.2080  145.2540 N   0  0  0  0  0  2  0  0  0  0  0  0
  196.0970  173.0390  145.6370 C   0  0  0  0  0  0  0  0  0  0  0  0
  195.1390  174.0700  145.0930 C   0  0  2  0  0  3  0  0  0  0  0  0
  193.8190  173.4540  144.5510 C   0  0  2  0  0  3  0  0  0  0  0  0
  194.5300  171.2370  144.9320 C   0  0  0  0  0  2  0  0  0  0  0  0
  195.7780  171.6440  145.5560 N   0  0  0  0  0  0  0  0  0  0  0  0
  196.6160  170.6390  146.1910 C   0  0  0  0  0  1  0  0  0  0  0  0
  196.6570  176.7360  142.9100 C   0  0  0  0  0  3  0  0  0  0  0  0
  196.0070  176.2640  144.0600 C   0  0  0  0  0  3  0  0  0  0  0  0
  196.9810  175.7470  141.9830 C   0  0  0  0  0  3  0  0  0  0  0  0
  195.8210  174.8880  144.0400 C   0  0  0  0  0  0  0  0  0  0  0  0
  196.4450  174.2800  142.6110 S   0  0  0  0  0  0  0  0  0  0  0  0
  188.1990  173.1970  141.9790 C   0  0  0  0  0  2  0  0  0  0  0  0
  189.3080  173.5900  139.9020 O   0  0  0  0  0  0  0  0  0  0  0  0
  188.4480  173.9830  140.7360 C   0  0  0  0  0  0  0  0  0  0  0  0
  187.7300  175.1600  140.5220 O   0  0  0  0  0  0  0  0  0  0  0  0
  187.5300  176.8470  144.7610 C   0  0  2  0  0  3  0  0  0  0  0  0
  186.1460  177.2990  142.7220 C   0  0  0  0  0  3  0  0  0  0  0  0
  188.2240  176.4410  140.9050 C   0  0  2  0  0  3  0  0  0  0  0  0
  188.6430  177.8670  145.0310 C   0  0  0  0  0  2  0  0  0  0  0  0
  189.9030  177.5060  144.2370 C   0  0  0  0  0  2  0  0  0  0  0  0
  187.2780  176.8110  143.2680 C   0  0  0  0  0  0  0  0  0  0  0  0
  188.4930  176.4840  142.4190 C   0  0  2  0  0  3  0  0  0  0  0  0
  185.9170  177.3420  141.2380 C   0  0  0  0  0  2  0  0  0  0  0  0
  189.6090  177.4810  142.7330 C   0  0  0  0  0  2  0  0  0  0  0  0
  187.2330  177.5290  140.4900 C   0  0  0  0  0  2  0  0  0  0  0  0
  186.6180  176.9930  147.0960 C   0  0  0  0  0  3  0  0  0  0  0  0
  186.2820  177.1030  145.6270 C   0  0  1  0  0  3  0  0  0  0  0  0
  185.6600  178.4800  145.3340 C   0  0  0  0  0  2  0  0  0  0  0  0
  184.5730  178.7970  146.3290 C   0  0  0  0  0  3  0  0  0  0  0  0
  184.6890  178.3990  147.6010 C   0  0  0  0  0  3  0  0  0  0  0  0
  185.8390  177.5710  148.0160 C   0  0  0  0  0  3  0  0  0  0  0  0
  2  1  2  0  0  0  0
  3  2  1  0  0  0  0
  5  2  1  6  0  0  0
  5  4  1  0  0  0  0
  6  5  1  0  0  0  0
  6  8  1  0  0  0  0
  7  4  1  6  0  0  0
  8  7  1  0  0  0  0
 11  9  2  0  0  0  0
 12 20  1  6  0  0  0
 12 11  1  0  0  0  0
 13  7  1  0  0  0  0
 13 12  1  0  0  0  0
 13 10  1  1  0  0  0
 14 10  1  0  0  0  0
 14 15  1  0  0  0  0
 15 11  1  0  0  0  0
 15 16  1  0  0  0  0
 17 18  1  0  0  0  0
 19 21  1  0  0  0  0
 19 17  2  0  0  0  0
 20 18  2  0  0  0  0
 21 20  1  0  0  0  0
 22  3  1  0  0  0  0
 23 24  2  0  0  0  0
 24 22  1  0  0  0  0
 25 24  1  0  0  0  0
 26 29  1  6  0  0  0
 26 37  1  0  0  0  0
 27 31  2  0  0  0  0
 28 25  1  1  0  0  0
 28 32  1  0  0  0  0
 30 29  1  0  0  0  0
 31 26  1  0  0  0  0
 32 34  1  6  0  0  0
 32 31  1  0  0  0  0
 33 27  1  0  0  0  0
 34 30  1  0  0  0  0
 35 28  1  0  0  0  0
 35 33  1  0  0  0  0
 36 41  2  0  0  0  0
 37 38  1  1  0  0  0
 37 36  1  0  0  0  0
 38 39  1  0  0  0  0
 39 40  2  0  0  0  0
 40 41  1  0  0  0  0
M  END
>  <MODEL>
5

>  <REMARK>
 VINA RESULT:      -7.5      1.974      2.870
  Name = 
  8 active torsions:
  status: ('A' for Active; 'I' for Inactive)
    1  A    between atoms: C_8  and  C_26
    2  A    between atoms: C_9  and  C_12
    3  A    between atoms: C_11  and  C_31
    4  A    between atoms: C_16  and  N_20
    5  A    between atoms: C_18  and  O_35
    6  A    between atoms: C_18  and  C_36
    7  A    between atoms: C_22  and  O_35
    8  A    between atoms: N_29  and  C_36
                            x       y       z     vdW  Elec       q    Type
                         _______ _______ _______ _____ _____    ______ ____

>  <TORSDO>
F 8

$$$$
=
 OpenBabel11062422193D

 41 46  0  0  1  0  0  0  0  0999 V2000
  189.4250  172.7230  141.9020 O   0  0  0  0  0  0  0  0  0  0  0  0
  190.3430  172.4120  142.7070 C   0  0  0  0  0  0  0  0  0  0  0  0
  191.0360  171.1740  142.5310 N   0  0  0  0  0  2  0  0  0  0  0  0
  190.7260  174.7750  143.3370 C   0  0  0  0  0  2  0  0  0  0  0  0
  190.7210  173.3490  143.8170 C   0  0  1  0  0  3  0  0  0  0  0  0
  189.6930  173.3410  144.9070 C   0  0  0  0  0  2  0  0  0  0  0  0
  189.8000  175.5390  144.1760 N   0  0  2  0  0  0  0  0  0  0  0  0
  189.4870  174.7290  145.2910 N   0  0  0  0  0  2  0  0  0  0  0  0
  186.7610  179.0050  142.7810 O   0  0  0  0  0  0  0  0  0  0  0  0
  188.8290  175.7040  141.9790 N   0  0  0  0  0  2  0  0  0  0  0  0
  187.2000  177.8290  142.6520 C   0  0  0  0  0  0  0  0  0  0  0  0
  187.9790  177.1980  143.7810 C   0  0  2  0  0  3  0  0  0  0  0  0
  188.5640  175.8050  143.4180 C   0  0  2  0  0  3  0  0  0  0  0  0
  187.5480  175.7740  141.2890 C   0  0  0  0  0  2  0  0  0  0  0  0
  187.0030  177.1150  141.4260 N   0  0  0  0  0  0  0  0  0  0  0  0
  186.3760  177.7470  140.2760 C   0  0  0  0  0  1  0  0  0  0  0  0
  185.2530  176.7910  146.3460 C   0  0  0  0  0  3  0  0  0  0  0  0
  185.7870  176.7330  145.0490 C   0  0  0  0  0  3  0  0  0  0  0  0
  186.1510  177.2210  147.3210 C   0  0  0  0  0  3  0  0  0  0  0  0
  187.1200  177.1180  145.0050 C   0  0  0  0  0  0  0  0  0  0  0  0
  187.6140  177.5320  146.5490 S   0  0  0  0  0  0  0  0  0  0  0  0
  192.0780  170.7120  143.4400 C   0  0  0  0  0  2  0  0  0  0  0  0
  193.3460  168.7610  142.9120 O   0  0  0  0  0  0  0  0  0  0  0  0
  193.1400  169.9840  142.6880 C   0  0  0  0  0  0  0  0  0  0  0  0
  193.9060  170.6790  141.7510 O   0  0  0  0  0  0  0  0  0  0  0  0
  194.6150  173.4960  145.2750 C   0  0  2  0  0  3  0  0  0  0  0  0
  194.3320  173.9330  142.8240 C   0  0  0  0  0  3  0  0  0  0  0  0
  195.1630  171.2680  142.0730 C   0  0  2  0  0  3  0  0  0  0  0  0
  196.0670  173.4550  145.7650 C   0  0  0  0  0  2  0  0  0  0  0  0
  196.6600  172.0560  145.5640 C   0  0  0  0  0  2  0  0  0  0  0  0
  194.5970  173.0660  143.8220 C   0  0  0  0  0  0  0  0  0  0  0  0
  195.1940  171.6980  143.5490 C   0  0  2  0  0  3  0  0  0  0  0  0
  194.3890  173.5400  141.3750 C   0  0  0  0  0  2  0  0  0  0  0  0
  196.6250  171.6590  144.0850 C   0  0  0  0  0  2  0  0  0  0  0  0
  195.4360  172.4550  141.1470 C   0  0  0  0  0  2  0  0  0  0  0  0
  192.7790  174.6770  146.5150 C   0  0  0  0  0  3  0  0  0  0  0  0
  193.9390  174.8500  145.5630 C   0  0  1  0  0  3  0  0  0  0  0  0
  194.9380  175.8720  146.1360 C   0  0  0  0  0  2  0  0  0  0  0  0
  194.2220  177.1130  146.6030 C   0  0  0  0  0  3  0  0  0  0  0  0
  193.0070  177.0210  147.1530 C   0  0  0  0  0  3  0  0  0  0  0  0
  192.3230  175.7150  147.2250 C   0  0  0  0  0  3  0  0  0  0  0  0
  1  2  2  0  0  0  0
  3  2  1  0  0  0  0
  3 22  1  0  0  0  0
  4  5  1  0  0  0  0
  5  2  1  6  0  0  0
  5  6  1  0  0  0  0
  6  8  1  0  0  0  0
  7  4  1  6  0  0  0
  7  8  1  0  0  0  0
 11  9  2  0  0  0  0
 11 12  1  0  0  0  0
 12 20  1  1  0  0  0
 13 10  1  6  0  0  0
 13 12  1  0  0  0  0
 13  7  1  0  0  0  0
 14 15  1  0  0  0  0
 14 10  1  0  0  0  0
 15 11  1  0  0  0  0
 16 15  1  0  0  0  0
 17 19  2  0  0  0  0
 18 17  1  0  0  0  0
 20 18  2  0  0  0  0
 20 21  1  0  0  0  0
 21 19  1  0  0  0  0
 24 23  2  0  0  0  0
 24 22  1  0  0  0  0
 25 24  1  0  0  0  0
 26 37  1  0  0  0  0
 26 29  1  6  0  0  0
 27 31  2  0  0  0  0
 28 25  1  6  0  0  0
 28 32  1  0  0  0  0
 30 29  1  0  0  0  0
 31 26  1  0  0  0  0
 32 31  1  0  0  0  0
 32 34  1  6  0  0  0
 33 27  1  0  0  0  0
 34 30  1  0  0  0  0
 35 33  1  0  0  0  0
 35 28  1  0  0  0  0
 36 41  2  0  0  0  0
 37 38  1  1  0  0  0
 37 36  1  0  0  0  0
 38 39  1  0  0  0  0
 39 40  2  0  0  0  0
 40 41  1  0  0  0  0
M  END
>  <MODEL>
6

>  <REMARK>
 VINA RESULT:      -7.5      2.643      7.532
  Name = 
  8 active torsions:
  status: ('A' for Active; 'I' for Inactive)
    1  A    between atoms: C_8  and  C_26
    2  A    between atoms: C_9  and  C_12
    3  A    between atoms: C_11  and  C_31
    4  A    between atoms: C_16  and  N_20
    5  A    between atoms: C_18  and  O_35
    6  A    between atoms: C_18  and  C_36
    7  A    between atoms: C_22  and  O_35
    8  A    between atoms: N_29  and  C_36
                            x       y       z     vdW  Elec       q    Type
                         _______ _______ _______ _____ _____    ______ ____

>  <TORSDO>
F 8

$$$$
=
 OpenBabel11062422193D

 41 46  0  0  1  0  0  0  0  0999 V2000
  194.0150  171.7330  140.8300 O   0  0  0  0  0  0  0  0  0  0  0  0
  193.2040  172.6510  140.5350 C   0  0  0  0  0  0  0  0  0  0  0  0
  191.8010  172.3830  140.5800 N   0  0  0  0  0  2  0  0  0  0  0  0
  193.8450  174.8810  141.3990 C   0  0  0  0  0  2  0  0  0  0  0  0
  193.7120  174.0160  140.1750 C   0  0  1  0  0  3  0  0  0  0  0  0
  195.1060  173.9500  139.6300 C   0  0  0  0  0  2  0  0  0  0  0  0
  195.2340  175.3370  141.4830 N   0  0  2  0  0  0  0  0  0  0  0  0
  195.8410  175.0460  140.2410 N   0  0  0  0  0  2  0  0  0  0  0  0
  194.6100  172.1580  145.0480 O   0  0  0  0  0  0  0  0  0  0  0  0
  196.7120  173.4930  141.9470 N   0  0  0  0  0  2  0  0  0  0  0  0
  195.3830  172.7610  144.2530 C   0  0  0  0  0  0  0  0  0  0  0  0
  194.9200  174.0350  143.5890 C   0  0  2  0  0  3  0  0  0  0  0  0
  195.9300  174.5820  142.5420 C   0  0  2  0  0  3  0  0  0  0  0  0
  197.5310  172.9110  143.0020 C   0  0  0  0  0  2  0  0  0  0  0  0
  196.6720  172.2160  143.9470 N   0  0  0  0  0  0  0  0  0  0  0  0
  197.0890  170.9230  144.4670 C   0  0  0  0  0  1  0  0  0  0  0  0
  193.6270  176.0980  146.4610 C   0  0  0  0  0  3  0  0  0  0  0  0
  193.7030  174.9420  145.6700 C   0  0  0  0  0  3  0  0  0  0  0  0
  194.4670  177.1330  146.0540 C   0  0  0  0  0  3  0  0  0  0  0  0
  194.6160  175.0670  144.6320 C   0  0  0  0  0  0  0  0  0  0  0  0
  195.3020  176.5920  144.6960 S   0  0  0  0  0  0  0  0  0  0  0  0
  190.7940  173.3710  140.2110 C   0  0  0  0  0  2  0  0  0  0  0  0
  189.1290  172.7810  141.8160 O   0  0  0  0  0  0  0  0  0  0  0  0
  189.9060  173.6680  141.3720 C   0  0  0  0  0  0  0  0  0  0  0  0
  189.9390  174.9410  141.9440 O   0  0  0  0  0  0  0  0  0  0  0  0
  187.7610  176.1830  145.7610 C   0  0  2  0  0  3  0  0  0  0  0  0
  189.0780  177.5060  144.0900 C   0  0  0  0  0  3  0  0  0  0  0  0
  190.5800  175.2060  143.1890 C   0  0  2  0  0  3  0  0  0  0  0  0
  188.5320  175.7790  147.0240 C   0  0  0  0  0  2  0  0  0  0  0  0
  189.3110  174.4820  146.7830 C   0  0  0  0  0  2  0  0  0  0  0  0
  188.7550  176.3110  144.6250 C   0  0  0  0  0  0  0  0  0  0  0  0
  189.5810  175.0680  144.3490 C   0  0  2  0  0  3  0  0  0  0  0  0
  190.1200  177.6560  143.0180 C   0  0  0  0  0  2  0  0  0  0  0  0
  190.3050  174.6520  145.6300 C   0  0  0  0  0  2  0  0  0  0  0  0
  191.2090  176.6000  143.1660 C   0  0  0  0  0  2  0  0  0  0  0  0
  185.4310  177.1120  145.6460 C   0  0  0  0  0  3  0  0  0  0  0  0
  186.8700  177.4180  145.9910 C   0  0  1  0  0  3  0  0  0  0  0  0
  186.9640  177.9240  147.4420 C   0  0  0  0  0  2  0  0  0  0  0  0
  185.9360  178.9960  147.7000 C   0  0  0  0  0  3  0  0  0  0  0  0
  184.7350  178.9290  147.1170 C   0  0  0  0  0  3  0  0  0  0  0  0
  184.4400  177.8550  146.1480 C   0  0  0  0  0  3  0  0  0  0  0  0
  2  3  1  0  0  0  0
  2  1  2  0  0  0  0
  5  2  1  1  0  0  0
  5  4  1  0  0  0  0
  6  5  1  0  0  0  0
  6  8  1  0  0  0  0
  7  4  1  6  0  0  0
  7 13  1  0  0  0  0
  8  7  1  0  0  0  0
 10 14  1  0  0  0  0
 11  9  2  0  0  0  0
 12 11  1  0  0  0  0
 12 20  1  1  0  0  0
 13 10  1  6  0  0  0
 13 12  1  0  0  0  0
 14 15  1  0  0  0  0
 15 11  1  0  0  0  0
 15 16  1  0  0  0  0
 18 17  1  0  0  0  0
 19 17  2  0  0  0  0
 20 21  1  0  0  0  0
 20 18  2  0  0  0  0
 21 19  1  0  0  0  0
 22  3  1  0  0  0  0
 22 24  1  0  0  0  0
 24 23  2  0  0  0  0
 24 25  1  0  0  0  0
 26 37  1  0  0  0  0
 26 29  1  1  0  0  0
 27 31  2  0  0  0  0
 28 25  1  6  0  0  0
 28 32  1  0  0  0  0
 30 29  1  0  0  0  0
 31 26  1  0  0  0  0
 32 31  1  0  0  0  0
 32 34  1  1  0  0  0
 33 35  1  0  0  0  0
 33 27  1  0  0  0  0
 34 30  1  0  0  0  0
 35 28  1  0  0  0  0
 36 41  2  0  0  0  0
 37 36  1  1  0  0  0
 37 38  1  0  0  0  0
 38 39  1  0  0  0  0
 40 39  2  0  0  0  0
 41 40  1  0  0  0  0
M  END
>  <MODEL>
7

>  <REMARK>
 VINA RESULT:      -7.4      2.461      3.882
  Name = 
  8 active torsions:
  status: ('A' for Active; 'I' for Inactive)
    1  A    between atoms: C_8  and  C_26
    2  A    between atoms: C_9  and  C_12
    3  A    between atoms: C_11  and  C_31
    4  A    between atoms: C_16  and  N_20
    5  A    between atoms: C_18  and  O_35
    6  A    between atoms: C_18  and  C_36
    7  A    between atoms: C_22  and  O_35
    8  A    between atoms: N_29  and  C_36
                            x       y       z     vdW  Elec       q    Type
                         _______ _______ _______ _____ _____    ______ ____

>  <TORSDO>
F 8

$$$$
=
 OpenBabel11062422193D

 41 46  0  0  1  0  0  0  0  0999 V2000
  190.8290  174.6100  144.3070 O   0  0  0  0  0  0  0  0  0  0  0  0
  191.6010  175.0970  145.1760 C   0  0  0  0  0  0  0  0  0  0  0  0
  192.8200  174.4170  145.4860 N   0  0  0  0  0  2  0  0  0  0  0  0
  190.8760  177.4400  144.8370 C   0  0  0  0  0  2  0  0  0  0  0  0
  191.2540  176.3920  145.8490 C   0  0  1  0  0  3  0  0  0  0  0  0
  190.0260  176.2510  146.6960 C   0  0  0  0  0  2  0  0  0  0  0  0
  189.5280  177.9130  145.1580 N   0  0  2  0  0  0  0  0  0  0  0  0
  189.2180  177.4350  146.4510 N   0  0  0  0  0  2  0  0  0  0  0  0
  185.7680  178.9410  142.3290 O   0  0  0  0  0  0  0  0  0  0  0  0
  189.2380  177.0890  142.9130 N   0  0  0  0  0  2  0  0  0  0  0  0
  186.7090  178.1620  142.6440 C   0  0  0  0  0  0  0  0  0  0  0  0
  187.3420  178.2750  144.0100 C   0  0  2  0  0  3  0  0  0  0  0  0
  188.5690  177.3400  144.1950 C   0  0  2  0  0  3  0  0  0  0  0  0
  188.3120  176.3440  142.0720 C   0  0  0  0  0  2  0  0  0  0  0  0
  187.2050  177.2080  141.6960 N   0  0  0  0  0  0  0  0  0  0  0  0
  186.7050  177.1700  140.3310 C   0  0  0  0  0  1  0  0  0  0  0  0
  184.8410  176.8890  146.4590 C   0  0  0  0  0  3  0  0  0  0  0  0
  185.8240  176.7860  145.4630 C   0  0  0  0  0  3  0  0  0  0  0  0
  184.5460  178.1940  146.8470 C   0  0  0  0  0  3  0  0  0  0  0  0
  186.3110  178.0240  145.0670 C   0  0  0  0  0  0  0  0  0  0  0  0
  185.5200  179.2180  145.9330 S   0  0  0  0  0  0  0  0  0  0  0  0
  193.7490  174.8830  146.5080 C   0  0  0  0  0  2  0  0  0  0  0  0
  194.8810  176.8360  145.7340 O   0  0  0  0  0  0  0  0  0  0  0  0
  194.9060  175.5840  145.8800 C   0  0  0  0  0  0  0  0  0  0  0  0
  196.0000  174.8350  145.4470 O   0  0  0  0  0  0  0  0  0  0  0  0
  193.5750  174.4870  141.5930 C   0  0  2  0  0  3  0  0  0  0  0  0
  195.1030  172.8740  142.7500 C   0  0  0  0  0  3  0  0  0  0  0  0
  196.5450  174.9600  144.1360 C   0  0  2  0  0  3  0  0  0  0  0  0
  194.2100  175.2700  140.4370 C   0  0  0  0  0  2  0  0  0  0  0  0
  194.9330  176.5130  140.9670 C   0  0  0  0  0  2  0  0  0  0  0  0
  194.6690  174.1390  142.5810 C   0  0  0  0  0  0  0  0  0  0  0  0
  195.4440  175.3240  143.1270 C   0  0  2  0  0  3  0  0  0  0  0  0
  196.2400  172.5240  143.6680 C   0  0  0  0  0  2  0  0  0  0  0  0
  196.0310  176.1200  141.9610 C   0  0  0  0  0  2  0  0  0  0  0  0
  197.2520  173.6640  143.7380 C   0  0  0  0  0  2  0  0  0  0  0  0
  191.2760  173.6630  141.0100 C   0  0  0  0  0  3  0  0  0  0  0  0
  192.7380  173.2930  141.0980 C   0  0  1  0  0  3  0  0  0  0  0  0
  193.2310  172.7810  139.7320 C   0  0  0  0  0  2  0  0  0  0  0  0
  192.2790  171.7550  139.1720 C   0  0  0  0  0  3  0  0  0  0  0  0
  190.9640  171.8760  139.3780 C   0  0  0  0  0  3  0  0  0  0  0  0
  190.4440  172.9640  140.2310 C   0  0  0  0  0  3  0  0  0  0  0  0
  1  2  2  0  0  0  0
  2  3  1  0  0  0  0
  3 22  1  0  0  0  0
  4  5  1  0  0  0  0
  5  2  1  6  0  0  0
  5  6  1  0  0  0  0
  7  4  1  6  0  0  0
  7  8  1  0  0  0  0
  8  6  1  0  0  0  0
  9 11  2  0  0  0  0
 11 12  1  0  0  0  0
 12 13  1  0  0  0  0
 12 20  1  1  0  0  0
 13 10  1  6  0  0  0
 13  7  1  0  0  0  0
 14 10  1  0  0  0  0
 15 14  1  0  0  0  0
 15 11  1  0  0  0  0
 16 15  1  0  0  0  0
 17 19  2  0  0  0  0
 18 17  1  0  0  0  0
 20 18  2  0  0  0  0
 20 21  1  0  0  0  0
 21 19  1  0  0  0  0
 23 24  2  0  0  0  0
 24 22  1  0  0  0  0
 25 24  1  0  0  0  0
 26 29  1  6  0  0  0
 26 31  1  0  0  0  0
 27 33  1  0  0  0  0
 28 25  1  1  0  0  0
 29 30  1  0  0  0  0
 30 34  1  0  0  0  0
 31 27  2  0  0  0  0
 31 32  1  0  0  0  0
 32 34  1  6  0  0  0
 32 28  1  0  0  0  0
 33 35  1  0  0  0  0
 35 28  1  0  0  0  0
 36 37  1  0  0  0  0
 37 38  1  6  0  0  0
 37 26  1  0  0  0  0
 39 40  2  0  0  0  0
 39 38  1  0  0  0  0
 40 41  1  0  0  0  0
 41 36  2  0  0  0  0
M  END
>  <MODEL>
8

>  <REMARK>
 VINA RESULT:      -7.4      2.984      8.602
  Name = 
  8 active torsions:
  status: ('A' for Active; 'I' for Inactive)
    1  A    between atoms: C_8  and  C_26
    2  A    between atoms: C_9  and  C_12
    3  A    between atoms: C_11  and  C_31
    4  A    between atoms: C_16  and  N_20
    5  A    between atoms: C_18  and  O_35
    6  A    between atoms: C_18  and  C_36
    7  A    between atoms: C_22  and  O_35
    8  A    between atoms: N_29  and  C_36
                            x       y       z     vdW  Elec       q    Type
                         _______ _______ _______ _____ _____    ______ ____

>  <TORSDO>
F 8

$$$$
=
 OpenBabel11062422193D

 41 46  0  0  1  0  0  0  0  0999 V2000
  187.4470  173.9940  142.3660 O   0  0  0  0  0  0  0  0  0  0  0  0
  188.1850  174.3860  141.4230 C   0  0  0  0  0  0  0  0  0  0  0  0
  188.2650  173.6040  140.2290 N   0  0  0  0  0  2  0  0  0  0  0  0
  188.0040  176.8330  141.7520 C   0  0  0  0  0  2  0  0  0  0  0  0
  188.9420  175.6750  141.5460 C   0  0  1  0  0  3  0  0  0  0  0  0
  189.7990  175.6860  142.7750 C   0  0  0  0  0  2  0  0  0  0  0  0
  188.3750  177.5010  143.0010 N   0  0  2  0  0  0  0  0  0  0  0  0
  189.6410  177.0000  143.3780 N   0  0  0  0  0  2  0  0  0  0  0  0
  186.9200  178.5540  147.4690 O   0  0  0  0  0  0  0  0  0  0  0  0
  186.0720  177.6790  143.6840 N   0  0  0  0  0  2  0  0  0  0  0  0
  186.6940  178.0110  146.3530 C   0  0  0  0  0  0  0  0  0  0  0  0
  187.8470  177.6970  145.4310 C   0  0  2  0  0  3  0  0  0  0  0  0
  187.3950  177.1570  144.0470 C   0  0  2  0  0  3  0  0  0  0  0  0
  185.1100  177.1440  144.6380 C   0  0  0  0  0  2  0  0  0  0  0  0
  185.3480  177.7390  145.9430 N   0  0  0  0  0  0  0  0  0  0  0  0
  184.2120  178.1540  146.7510 C   0  0  0  0  0  1  0  0  0  0  0  0
  189.6330  174.7620  146.9700 C   0  0  0  0  0  3  0  0  0  0  0  0
  188.5820  175.3770  146.2750 C   0  0  0  0  0  3  0  0  0  0  0  0
  190.6580  175.6260  147.3510 C   0  0  0  0  0  3  0  0  0  0  0  0
  188.7830  176.7400  146.1020 C   0  0  0  0  0  0  0  0  0  0  0  0
  190.2370  177.1650  146.8150 S   0  0  0  0  0  0  0  0  0  0  0  0
  189.1270  173.9570  139.1070 C   0  0  0  0  0  2  0  0  0  0  0  0
  189.6740  171.9710  137.9020 O   0  0  0  0  0  0  0  0  0  0  0  0
  190.0280  172.8180  138.7650 C   0  0  0  0  0  0  0  0  0  0  0  0
  191.2530  172.7000  139.4220 O   0  0  0  0  0  0  0  0  0  0  0  0
  192.2050  173.8440  143.7400 C   0  0  2  0  0  3  0  0  0  0  0  0
  193.6640  173.0300  141.8730 C   0  0  0  0  0  3  0  0  0  0  0  0
  191.4720  171.7660  140.4750 C   0  0  2  0  0  3  0  0  0  0  0  0
  191.7600  172.7650  144.7350 C   0  0  0  0  0  2  0  0  0  0  0  0
  190.5060  172.0480  144.2220 C   0  0  0  0  0  2  0  0  0  0  0  0
  192.4310  173.1790  142.3970 C   0  0  0  0  0  0  0  0  0  0  0  0
  191.2350  172.4280  141.8420 C   0  0  2  0  0  3  0  0  0  0  0  0
  193.9100  172.3040  140.5810 C   0  0  0  0  0  2  0  0  0  0  0  0
  190.7750  171.3890  142.8650 C   0  0  0  0  0  2  0  0  0  0  0  0
  192.8860  171.1910  140.3790 C   0  0  0  0  0  2  0  0  0  0  0  0
  193.0360  176.1370  144.3370 C   0  0  0  0  0  3  0  0  0  0  0  0
  193.3930  174.6700  144.2670 C   0  0  1  0  0  3  0  0  0  0  0  0
  193.8570  174.1790  145.6500 C   0  0  0  0  0  2  0  0  0  0  0  0
  194.8750  175.1220  146.2370 C   0  0  0  0  0  3  0  0  0  0  0  0
  194.7750  176.4380  146.0210 C   0  0  0  0  0  3  0  0  0  0  0  0
  193.7200  176.9650  145.1330 C   0  0  0  0  0  3  0  0  0  0  0  0
  2  1  2  0  0  0  0
  3  2  1  0  0  0  0
  5  2  1  1  0  0  0
  5  4  1  0  0  0  0
  5  6  1  0  0  0  0
  6  8  1  0  0  0  0
  7  4  1  6  0  0  0
  7  8  1  0  0  0  0
  7 13  1  0  0  0  0
 10 14  1  0  0  0  0
 11  9  2  0  0  0  0
 12 20  1  1  0  0  0
 12 11  1  0  0  0  0
 13 10  1  6  0  0  0
 13 12  1  0  0  0  0
 14 15  1  0  0  0  0
 15 11  1  0  0  0  0
 15 16  1  0  0  0  0
 17 19  2  0  0  0  0
 18 17  1  0  0  0  0
 20 18  2  0  0  0  0
 20 21  1  0  0  0  0
 21 19  1  0  0  0  0
 22  3  1  0  0  0  0
 23 24  2  0  0  0  0
 24 22  1  0  0  0  0
 24 25  1  0  0  0  0
 26 37  1  0  0  0  0
 26 29  1  1  0  0  0
 27 31  2  0  0  0  0
 28 25  1  6  0  0  0
 28 32  1  0  0  0  0
 30 29  1  0  0  0  0
 31 26  1  0  0  0  0
 32 31  1  0  0  0  0
 32 34  1  1  0  0  0
 33 27  1  0  0  0  0
 34 30  1  0  0  0  0
 35 28  1  0  0  0  0
 35 33  1  0  0  0  0
 36 41  2  0  0  0  0
 37 36  1  1  0  0  0
 37 38  1  0  0  0  0
 38 39  1  0  0  0  0
 40 39  2  0  0  0  0
 41 40  1  0  0  0  0
M  END
>  <MODEL>
9

>  <REMARK>
 VINA RESULT:      -7.4      2.620      6.326
  Name = 
  8 active torsions:
  status: ('A' for Active; 'I' for Inactive)
    1  A    between atoms: C_8  and  C_26
    2  A    between atoms: C_9  and  C_12
    3  A    between atoms: C_11  and  C_31
    4  A    between atoms: C_16  and  N_20
    5  A    between atoms: C_18  and  O_35
    6  A    between atoms: C_18  and  C_36
    7  A    between atoms: C_22  and  O_35
    8  A    between atoms: N_29  and  C_36
                            x       y       z     vdW  Elec       q    Type
                         _______ _______ _______ _____ _____    ______ ____

>  <TORSDO>
F 8

$$$$
