=
 OpenBabel11072408403D

 69 79  0  0  1  0  0  0  0  0999 V2000
  195.1440  177.8260  146.4870 N   0  0  0  0  0  2  0  0  0  0  0  0
  196.2740  176.0550  143.5730 C   0  0  0  0  0  3  0  0  0  0  0  0
  196.1970  168.1660  139.9080 O   0  0  0  0  0  0  0  0  0  0  0  0
  192.9800  174.3950  142.4020 O   0  0  0  0  0  0  0  0  0  0  0  0
  193.7590  172.4370  138.6850 C   0  0  2  0  0  3  0  0  0  0  0  0
  196.5230  171.4400  141.1620 N   0  0  0  0  0  2  0  0  0  0  0  0
  193.2090  176.7120  143.0290 C   0  0  2  0  0  3  0  0  0  0  0  0
  193.7060  173.0970  140.0720 C   0  0  0  0  0  2  0  0  0  0  0  0
  194.3650  175.3420  139.1780 C   0  0  0  0  0  2  0  0  0  0  0  0
  197.1760  173.6870  142.0780 C   0  0  1  0  0  3  0  0  0  0  0  0
  197.5650  172.4620  141.2290 C   0  0  2  0  0  3  0  0  0  0  0  0
  193.2760  174.5490  139.9400 C   0  0  2  0  0  3  0  0  0  0  0  0
  195.6570  169.0180  138.9320 C   0  0  0  0  0  2  0  0  0  0  0  0
  194.7410  172.6830  136.2880 C   0  0  1  0  0  3  0  0  0  0  0  0
  195.6150  173.5410  135.3510 C   0  0  1  0  0  3  0  0  0  0  0  0
  196.9350  171.3800  136.7710 C   0  0  2  0  0  3  0  0  0  0  0  0
  196.6140  169.0020  140.9620 C   0  0  2  0  0  3  0  0  0  0  0  0
  195.1050  170.4490  135.5120 F   0  0  0  0  0  0  0  0  0  0  0  0
  196.3680  170.3470  139.0190 C   0  0  2  0  0  3  0  0  0  0  0  0
  195.6600  174.7030  143.8170 C   0  0  2  0  0  3  0  0  0  0  0  0
  197.3940  170.4500  137.9000 C   0  0  0  0  0  2  0  0  0  0  0  0
  195.0220  174.7800  135.0980 O   0  0  0  0  0  1  0  0  0  0  0  0
  193.4370  176.5670  141.5530 C   0  0  0  0  0  2  0  0  0  0  0  0
  196.0740  177.0690  144.4170 C   0  0  0  0  0  3  0  0  0  0  0  0
  197.4680  172.7920  136.9970 C   0  0  0  0  0  2  0  0  0  0  0  0
  197.0250  170.3240  140.3580 C   0  0  1  0  0  3  0  0  0  0  0  0
  197.1000  173.7490  140.5610 C   0  0  0  0  0  2  0  0  0  0  0  0
  195.0970  174.5330  138.0960 C   0  0  0  0  0  2  0  0  0  0  0  0
  192.8290  175.2130  141.2630 C   0  0  2  0  0  3  0  0  0  0  0  0
  195.1670  176.9220  145.5670 C   0  0  0  0  0  0  0  0  0  0  0  0
  193.1040  175.2700  143.5070 C   0  0  2  0  0  3  0  0  0  0  0  0
  195.4140  171.3160  136.5430 C   0  0  2  0  0  3  0  0  0  0  0  0
  195.7520  173.7320  142.6250 C   0  0  0  0  0  2  0  0  0  0  0  0
  197.9410  173.5420  134.7680 O   0  0  0  0  0  1  0  0  0  0  0  0
  194.3190  175.6770  145.7260 C   0  0  0  0  0  2  0  0  0  0  0  0
  194.2520  174.8230  144.4460 C   0  0  2  0  0  3  0  0  0  0  0  0
  197.0700  173.7200  135.8450 C   0  0  1  0  0  3  0  0  0  0  0  0
  194.2060  173.4000  137.5610 C   0  0  2  0  0  3  0  0  0  0  0  0
  192.5040  171.9150  138.3710 O   0  0  0  0  0  1  0  0  0  0  0  0
  190.6730  176.7680  142.9130 C   0  0  2  0  0  3  0  0  0  0  0  0
  191.4820  177.3430  144.8150 C   0  0  0  0  0  2  0  0  0  0  0  0
  191.9270  177.4980  143.3720 C   0  0  1  0  0  3  0  0  0  0  0  0
  189.4790  177.4730  143.4170 N   0  0  0  0  0  0  0  0  0  0  0  0
  190.2660  176.5940  144.3090 C   0  0  1  0  0  3  0  0  0  0  0  0
  187.5450  177.6890  142.1760 O   0  0  0  0  0  1  0  0  0  0  0  0
  188.1760  176.8310  143.1080 C   0  0  2  0  0  0  0  0  0  0  0  0
  187.6130  177.5330  145.5500 C   0  0  0  0  0  2  0  0  0  0  0  0
  185.4900  176.8020  148.5710 C   0  0  0  0  0  1  0  0  0  0  0  0
  184.7830  177.5050  145.0100 C   0  0  1  0  0  3  0  0  0  0  0  0
  187.1920  176.6740  144.3410 C   0  0  1  0  0  3  0  0  0  0  0  0
  187.1910  176.9680  146.9140 C   0  0  1  0  0  3  0  0  0  0  0  0
  188.1810  177.5690  147.9130 C   0  0  0  0  0  1  0  0  0  0  0  0
  185.8230  177.3950  147.2820 N   0  0  0  0  0  0  0  0  0  0  0  0
  185.6850  176.7890  143.9950 C   0  0  0  0  0  2  0  0  0  0  0  0
  184.8300  176.8190  146.3790 C   0  0  0  0  0  2  0  0  0  0  0  0
  184.9330  179.0180  145.0310 C   0  0  0  0  0  0  0  0  0  0  0  0
  184.8910  179.6110  146.1050 O   0  0  0  0  0  0  0  0  0  0  0  0
  185.1880  179.8010  143.7780 C   0  0  0  0  0  1  0  0  0  0  0  0
  187.6190  173.3260  141.8880 C   0  0  0  0  0  2  0  0  0  0  0  0
  188.3960  175.5170  142.4160 N   0  0  0  0  0  0  0  0  0  0  0  0
  187.4100  176.3320  140.1980 C   0  0  0  0  0  1  0  0  0  0  0  0
  188.4020  175.4240  140.9250 C   0  0  2  0  0  3  0  0  0  0  0  0
  187.4690  174.4850  142.8560 C   0  0  0  0  0  2  0  0  0  0  0  0
  188.0470  173.9720  140.5800 C   0  0  1  0  0  3  0  0  0  0  0  0
  189.4290  171.9960  140.6050 O   0  0  0  0  0  1  0  0  0  0  0  0
  189.0330  172.9880  138.5780 O   0  0  0  0  0  1  0  0  0  0  0  0
  189.2250  173.2140  139.9450 C   0  0  0  0  0  3  0  0  0  0  0  0
  197.8160  168.3810  141.6510 C   0  0  0  0  0  2  0  0  0  0  0  0
  197.8500  168.7290  142.9990 O   0  0  0  0  0  1  0  0  0  0  0  0
  2 20  1  0  0  0  0
  2 24  2  0  0  0  0
  3 17  1  0  0  0  0
  4 31  1  0  0  0  0
  5 39  1  6  0  0  0
  5  8  1  0  0  0  0
  6 11  1  0  0  0  0
  7 23  1  6  0  0  0
  7 42  1  0  0  0  0
  7 31  1  0  0  0  0
 10 27  1  6  0  0  0
 10 33  1  0  0  0  0
 11 27  1  6  0  0  0
 11 10  1  0  0  0  0
 12  9  1  1  0  0  0
 12  8  1  0  0  0  0
 12 29  1  0  0  0  0
 13 19  1  0  0  0  0
 13  3  1  0  0  0  0
 14 32  1  0  0  0  0
 14 38  1  0  0  0  0
 15 37  1  0  0  0  0
 15 14  1  0  0  0  0
 16 25  1  0  0  0  0
 16 21  1  0  0  0  0
 17 68  1  0  0  0  0
 18 32  1  0  0  0  0
 19 26  1  0  0  0  0
 20 36  1  0  0  0  0
 21 19  1  0  0  0  0
 22 15  1  0  0  0  0
 24 30  1  0  0  0  0
 26 17  1  0  0  0  0
 26  6  1  0  0  0  0
 28  9  1  0  0  0  0
 29 23  1  0  0  0  0
 29  4  1  0  0  0  0
 30 35  1  0  0  0  0
 30  1  2  0  0  0  0
 31 36  1  0  0  0  0
 32 16  1  0  0  0  0
 33 20  1  0  0  0  0
 34 37  1  0  0  0  0
 36 35  1  0  0  0  0
 37 25  1  0  0  0  0
 38 28  1  0  0  0  0
 38  5  1  0  0  0  0
 40 42  1  0  0  0  0
 40 43  1  0  0  0  0
 40 44  1  0  0  0  0
 42 41  1  0  0  0  0
 43 44  1  0  0  0  0
 44 41  1  0  0  0  0
 45 46  1  0  0  0  0
 46 43  1  0  0  0  0
 46 50  1  0  0  0  0
 47 51  1  0  0  0  0
 49 56  1  0  0  0  0
 49 55  1  0  0  0  0
 50 47  1  0  0  0  0
 51 53  1  0  0  0  0
 51 52  1  0  0  0  0
 53 48  1  0  0  0  0
 54 50  1  0  0  0  0
 54 49  1  0  0  0  0
 55 53  1  0  0  0  0
 56 57  2  0  0  0  0
 58 56  1  0  0  0  0
 59 63  1  0  0  0  0
 60 63  1  0  0  0  0
 60 46  1  0  0  0  0
 61 62  1  0  0  0  0
 62 60  1  0  0  0  0
 64 62  1  0  0  0  0
 64 59  1  0  0  0  0
 66 67  1  0  0  0  0
 67 64  1  0  0  0  0
 67 65  1  0  0  0  0
 68 69  1  0  0  0  0
M  END
>  <MODEL>
1

>  <REMARK>
 VINA RESULT:      -6.2      0.000      0.000
  Name = 
  7 active torsions:
  status: ('A' for Active; 'I' for Inactive)
    1  A    between atoms: C_10  and  C_48
    2  A    between atoms: N_11  and  C_59
    3  A    between atoms: C_13  and  C_34
    4  A    between atoms: C_24  and  C_44
    5  A    between atoms: C_27  and  C_61
    6  A    between atoms: C_36  and  C_59
    7  A    between atoms: N_50  and  C_59
                            x       y       z     vdW  Elec       q    Type
                         _______ _______ _______ _____ _____    ______ ____

>  <TORSDO>
F 7

$$$$
=
 OpenBabel11072408403D

 69 79  0  0  1  0  0  0  0  0999 V2000
  190.0970  178.2160  144.5670 N   0  0  0  0  0  2  0  0  0  0  0  0
  192.6510  176.2580  142.9700 C   0  0  0  0  0  3  0  0  0  0  0  0
  196.8540  168.6690  143.6140 O   0  0  0  0  0  0  0  0  0  0  0  0
  190.8150  172.8800  142.5300 O   0  0  0  0  0  0  0  0  0  0  0  0
  193.3770  170.2860  140.3010 C   0  0  2  0  0  3  0  0  0  0  0  0
  195.4430  171.8590  143.1340 N   0  0  0  0  0  2  0  0  0  0  0  0
  189.8920  175.0340  141.9640 C   0  0  2  0  0  3  0  0  0  0  0  0
  192.6560  171.3170  141.1840 C   0  0  0  0  0  2  0  0  0  0  0  0
  192.5830  173.0300  139.3580 C   0  0  0  0  0  2  0  0  0  0  0  0
  194.8300  174.2830  142.8830 C   0  0  1  0  0  3  0  0  0  0  0  0
  195.9120  173.1930  142.7670 C   0  0  2  0  0  3  0  0  0  0  0  0
  191.7350  172.1760  140.3310 C   0  0  2  0  0  3  0  0  0  0  0  0
  196.3300  168.6770  142.3120 C   0  0  0  0  0  2  0  0  0  0  0  0
  194.8350  170.0210  138.1610 C   0  0  1  0  0  3  0  0  0  0  0  0
  195.5210  170.7490  136.9880 C   0  0  1  0  0  3  0  0  0  0  0  0
  197.1190  170.2890  139.3680 C   0  0  2  0  0  3  0  0  0  0  0  0
  196.5660  169.9380  144.1530 C   0  0  2  0  0  3  0  0  0  0  0  0
  196.2820  168.1660  138.5990 F   0  0  0  0  0  0  0  0  0  0  0  0
  196.3820  170.0930  141.7900 C   0  0  2  0  0  3  0  0  0  0  0  0
  192.5930  175.0030  143.7980 C   0  0  2  0  0  3  0  0  0  0  0  0
  197.5590  170.2400  140.8360 C   0  0  0  0  0  2  0  0  0  0  0  0
  194.5810  171.3150  136.1240 O   0  0  0  0  0  1  0  0  0  0  0  0
  190.5830  174.4530  140.7660 C   0  0  0  0  0  2  0  0  0  0  0  0
  191.8180  177.2760  143.1970 C   0  0  0  0  0  3  0  0  0  0  0  0
  196.9420  171.7360  138.9150 C   0  0  0  0  0  2  0  0  0  0  0  0
  196.5660  170.9270  143.0130 C   0  0  1  0  0  3  0  0  0  0  0  0
  195.1860  173.6970  141.5270 C   0  0  0  0  0  2  0  0  0  0  0  0
  193.8620  172.3410  138.8600 C   0  0  0  0  0  2  0  0  0  0  0  0
  190.6890  172.9890  141.1300 C   0  0  2  0  0  3  0  0  0  0  0  0
  190.7540  177.1650  144.2080 C   0  0  0  0  0  0  0  0  0  0  0  0
  190.2430  174.0530  143.0740 C   0  0  2  0  0  3  0  0  0  0  0  0
  195.8950  169.3960  139.0960 C   0  0  2  0  0  3  0  0  0  0  0  0
  193.4170  173.8270  143.2390 C   0  0  0  0  0  2  0  0  0  0  0  0
  197.7060  171.6740  136.6410 O   0  0  0  0  0  1  0  0  0  0  0  0
  190.4760  175.8430  144.8930 C   0  0  0  0  0  2  0  0  0  0  0  0
  191.1400  174.6450  144.1900 C   0  0  2  0  0  3  0  0  0  0  0  0
  196.5630  171.8030  137.4320 C   0  0  1  0  0  3  0  0  0  0  0  0
  193.7060  170.8110  138.8840 C   0  0  2  0  0  3  0  0  0  0  0  0
  192.5940  169.1370  140.1950 O   0  0  0  0  0  1  0  0  0  0  0  0
  187.7490  176.1380  142.7650 C   0  0  2  0  0  3  0  0  0  0  0  0
  187.9380  176.0210  140.6310 C   0  0  0  0  0  2  0  0  0  0  0  0
  188.3630  175.1420  141.7920 C   0  0  1  0  0  3  0  0  0  0  0  0
  186.3220  176.3290  142.4410 N   0  0  0  0  0  0  0  0  0  0  0  0
  187.3710  176.9980  141.6420 C   0  0  1  0  0  3  0  0  0  0  0  0
  186.3570  178.5290  143.1400 O   0  0  0  0  0  1  0  0  0  0  0  0
  185.6060  177.3350  143.2650 C   0  0  2  0  0  0  0  0  0  0  0  0
  186.8960  176.9730  145.4970 C   0  0  0  0  0  2  0  0  0  0  0  0
  186.6530  175.7650  149.0530 C   0  0  0  0  0  1  0  0  0  0  0  0
  184.8110  178.2470  147.0230 C   0  0  1  0  0  3  0  0  0  0  0  0
  185.5140  176.9990  144.8120 C   0  0  1  0  0  3  0  0  0  0  0  0
  186.9890  176.0410  146.7130 C   0  0  1  0  0  3  0  0  0  0  0  0
  188.4740  175.6930  146.8300 C   0  0  0  0  0  1  0  0  0  0  0  0
  186.5580  176.7180  147.9540 N   0  0  0  0  0  0  0  0  0  0  0  0
  184.4510  177.8100  145.5960 C   0  0  0  0  0  2  0  0  0  0  0  0
  185.1340  177.0420  147.9120 C   0  0  0  0  0  2  0  0  0  0  0  0
  185.8010  179.3990  147.0990 C   0  0  0  0  0  0  0  0  0  0  0  0
  185.9120  180.1590  146.1410 O   0  0  0  0  0  0  0  0  0  0  0  0
  186.6060  179.6650  148.3350 C   0  0  0  0  0  1  0  0  0  0  0  0
  182.3970  179.0880  142.4170 C   0  0  0  0  0  2  0  0  0  0  0  0
  184.2480  177.6090  142.6860 N   0  0  0  0  0  0  0  0  0  0  0  0
  185.1870  178.4860  140.4710 C   0  0  0  0  0  1  0  0  0  0  0  0
  184.0580  177.7710  141.2130 C   0  0  2  0  0  3  0  0  0  0  0  0
  183.6050  178.7720  143.2810 C   0  0  0  0  0  2  0  0  0  0  0  0
  182.7800  178.6000  141.0290 C   0  0  1  0  0  3  0  0  0  0  0  0
  180.5780  178.6310  140.0480 O   0  0  0  0  0  1  0  0  0  0  0  0
  182.0650  177.0730  139.2670 O   0  0  0  0  0  1  0  0  0  0  0  0
  181.6400  177.7870  140.3930 C   0  0  0  0  0  3  0  0  0  0  0  0
  197.6550  170.3240  145.1380 C   0  0  0  0  0  2  0  0  0  0  0  0
  197.6180  169.5040  146.2640 O   0  0  0  0  0  1  0  0  0  0  0  0
  2 24  2  0  0  0  0
  2 20  1  0  0  0  0
  3 17  1  0  0  0  0
  4 31  1  0  0  0  0
  5 39  1  6  0  0  0
  5  8  1  0  0  0  0
  7 23  1  6  0  0  0
  7 31  1  0  0  0  0
 10 27  1  6  0  0  0
 10 33  1  0  0  0  0
 11 27  1  6  0  0  0
 11 10  1  0  0  0  0
 11  6  1  0  0  0  0
 12  9  1  1  0  0  0
 12 29  1  0  0  0  0
 12  8  1  0  0  0  0
 13  3  1  0  0  0  0
 14 38  1  0  0  0  0
 14 32  1  0  0  0  0
 15 37  1  0  0  0  0
 15 14  1  0  0  0  0
 16 21  1  0  0  0  0
 17 68  1  0  0  0  0
 18 32  1  0  0  0  0
 19 13  1  0  0  0  0
 19 26  1  0  0  0  0
 20 36  1  0  0  0  0
 21 19  1  0  0  0  0
 22 15  1  0  0  0  0
 23 29  1  0  0  0  0
 24 30  1  0  0  0  0
 25 16  1  0  0  0  0
 26  6  1  0  0  0  0
 26 17  1  0  0  0  0
 28 38  1  0  0  0  0
 28  9  1  0  0  0  0
 29  4  1  0  0  0  0
 30  1  2  0  0  0  0
 30 35  1  0  0  0  0
 31 36  1  0  0  0  0
 32 16  1  0  0  0  0
 33 20  1  0  0  0  0
 34 37  1  0  0  0  0
 36 35  1  0  0  0  0
 37 25  1  0  0  0  0
 38  5  1  0  0  0  0
 41 44  1  0  0  0  0
 41 42  1  0  0  0  0
 42  7  1  0  0  0  0
 42 40  1  0  0  0  0
 43 40  1  0  0  0  0
 43 46  1  0  0  0  0
 44 43  1  0  0  0  0
 44 40  1  0  0  0  0
 45 46  1  0  0  0  0
 46 50  1  0  0  0  0
 47 51  1  0  0  0  0
 49 56  1  0  0  0  0
 49 55  1  0  0  0  0
 50 47  1  0  0  0  0
 50 54  1  0  0  0  0
 51 52  1  0  0  0  0
 51 53  1  0  0  0  0
 53 48  1  0  0  0  0
 54 49  1  0  0  0  0
 55 53  1  0  0  0  0
 56 58  1  0  0  0  0
 57 56  2  0  0  0  0
 59 63  1  0  0  0  0
 60 46  1  0  0  0  0
 60 63  1  0  0  0  0
 61 62  1  0  0  0  0
 62 60  1  0  0  0  0
 64 62  1  0  0  0  0
 64 59  1  0  0  0  0
 65 67  1  0  0  0  0
 66 67  1  0  0  0  0
 67 64  1  0  0  0  0
 68 69  1  0  0  0  0
M  END
>  <MODEL>
2

>  <REMARK>
 VINA RESULT:      -4.6      2.410      3.910
  Name = 
  7 active torsions:
  status: ('A' for Active; 'I' for Inactive)
    1  A    between atoms: C_10  and  C_48
    2  A    between atoms: N_11  and  C_59
    3  A    between atoms: C_13  and  C_34
    4  A    between atoms: C_24  and  C_44
    5  A    between atoms: C_27  and  C_61
    6  A    between atoms: C_36  and  C_59
    7  A    between atoms: N_50  and  C_59
                            x       y       z     vdW  Elec       q    Type
                         _______ _______ _______ _____ _____    ______ ____

>  <TORSDO>
F 7

$$$$
=
 OpenBabel11072408403D

 69 79  0  0  1  0  0  0  0  0999 V2000
  189.1500  174.5290  146.9480 N   0  0  0  0  0  2  0  0  0  0  0  0
  191.9710  174.1940  144.7500 C   0  0  0  0  0  3  0  0  0  0  0  0
  196.5250  168.2480  140.3260 O   0  0  0  0  0  0  0  0  0  0  0  0
  190.3980  172.1900  141.8380 O   0  0  0  0  0  0  0  0  0  0  0  0
  193.3340  171.8550  138.7520 C   0  0  2  0  0  3  0  0  0  0  0  0
  194.9860  170.8830  142.0820 N   0  0  0  0  0  2  0  0  0  0  0  0
  189.4140  174.1410  142.8590 C   0  0  2  0  0  3  0  0  0  0  0  0
  192.4620  171.9800  140.0110 C   0  0  0  0  0  2  0  0  0  0  0  0
  192.4830  174.4840  139.9410 C   0  0  0  0  0  2  0  0  0  0  0  0
  194.2610  172.7900  143.5490 C   0  0  1  0  0  3  0  0  0  0  0  0
  195.4120  172.0670  142.8250 C   0  0  2  0  0  3  0  0  0  0  0  0
  191.5890  173.2210  139.9160 C   0  0  2  0  0  3  0  0  0  0  0  0
  196.1440  169.1940  139.3630 C   0  0  0  0  0  2  0  0  0  0  0  0
  195.0260  173.1350  137.2440 C   0  0  1  0  0  3  0  0  0  0  0  0
  195.7890  174.4560  137.0220 C   0  0  1  0  0  3  0  0  0  0  0  0
  197.1470  172.3900  138.5440 C   0  0  2  0  0  3  0  0  0  0  0  0
  196.1060  168.7690  141.5660 C   0  0  2  0  0  3  0  0  0  0  0  0
  196.5250  171.4680  136.4070 F   0  0  0  0  0  0  0  0  0  0  0  0
  196.1680  170.5600  140.0060 C   0  0  2  0  0  3  0  0  0  0  0  0
  191.9000  172.7250  144.4330 C   0  0  2  0  0  3  0  0  0  0  0  0
  197.4290  171.2990  139.5840 C   0  0  0  0  0  2  0  0  0  0  0  0
  194.9160  175.5000  136.7100 O   0  0  0  0  0  1  0  0  0  0  0  0
  190.2630  174.5570  141.6940 C   0  0  0  0  0  2  0  0  0  0  0  0
  191.0600  174.7790  145.5310 C   0  0  0  0  0  3  0  0  0  0  0  0
  196.9350  173.7360  139.2300 C   0  0  0  0  0  2  0  0  0  0  0  0
  196.1700  170.2740  141.4710 C   0  0  1  0  0  3  0  0  0  0  0  0
  194.7950  173.3260  142.2320 C   0  0  0  0  0  2  0  0  0  0  0  0
  193.8470  174.3080  139.2580 C   0  0  0  0  0  2  0  0  0  0  0  0
  190.4170  173.2640  140.9250 C   0  0  2  0  0  3  0  0  0  0  0  0
  189.9020  174.0210  146.0310 C   0  0  0  0  0  0  0  0  0  0  0  0
  189.7020  172.6500  142.9800 C   0  0  2  0  0  3  0  0  0  0  0  0
  196.0150  171.9960  137.5780 C   0  0  2  0  0  3  0  0  0  0  0  0
  192.8480  172.2660  143.3090 C   0  0  0  0  0  2  0  0  0  0  0  0
  197.9410  175.2780  137.6920 O   0  0  0  0  0  1  0  0  0  0  0  0
  189.6320  172.6140  145.5420 C   0  0  0  0  0  2  0  0  0  0  0  0
  190.4370  172.2460  144.2820 C   0  0  2  0  0  3  0  0  0  0  0  0
  196.7130  174.8480  138.2000 C   0  0  1  0  0  3  0  0  0  0  0  0
  193.7810  173.2180  138.1740 C   0  0  2  0  0  3  0  0  0  0  0  0
  192.6360  171.1480  137.7720 O   0  0  0  0  0  1  0  0  0  0  0  0
  187.5040  175.8070  143.0180 C   0  0  2  0  0  3  0  0  0  0  0  0
  187.5460  174.6840  141.1910 C   0  0  0  0  0  2  0  0  0  0  0  0
  187.9090  174.3910  142.6350 C   0  0  1  0  0  3  0  0  0  0  0  0
  186.1030  176.0450  142.6220 N   0  0  0  0  0  0  0  0  0  0  0  0
  187.1860  176.0930  141.6170 C   0  0  1  0  0  3  0  0  0  0  0  0
  186.4260  178.2730  142.1120 O   0  0  0  0  0  1  0  0  0  0  0  0
  185.5900  177.4160  142.8680 C   0  0  2  0  0  0  0  0  0  0  0  0
  185.7460  176.7310  145.3740 C   0  0  0  0  0  2  0  0  0  0  0  0
  185.4870  177.9280  148.9330 C   0  0  0  0  0  1  0  0  0  0  0  0
  187.4550  178.9700  145.9820 C   0  0  1  0  0  3  0  0  0  0  0  0
  185.6600  177.9030  144.3760 C   0  0  1  0  0  3  0  0  0  0  0  0
  185.1470  177.0250  146.7570 C   0  0  1  0  0  3  0  0  0  0  0  0
  184.7750  175.6550  147.3250 C   0  0  0  0  0  1  0  0  0  0  0  0
  186.1350  177.6620  147.6550 N   0  0  0  0  0  0  0  0  0  0  0  0
  186.6880  179.0290  144.6520 C   0  0  0  0  0  2  0  0  0  0  0  0
  186.5000  178.9930  147.1790 C   0  0  0  0  0  2  0  0  0  0  0  0
  188.5440  177.9090  146.0340 C   0  0  0  0  0  0  0  0  0  0  0  0
  188.7580  177.3200  147.0900 O   0  0  0  0  0  0  0  0  0  0  0  0
  189.3270  177.5230  144.8150 C   0  0  0  0  0  1  0  0  0  0  0  0
  182.2100  178.8490  142.0860 C   0  0  0  0  0  2  0  0  0  0  0  0
  184.2020  177.5580  142.3140 N   0  0  0  0  0  0  0  0  0  0  0  0
  185.0110  178.5330  140.0890 C   0  0  0  0  0  1  0  0  0  0  0  0
  183.9710  177.7070  140.8450 C   0  0  2  0  0  3  0  0  0  0  0  0
  183.4580  178.6490  142.9270 C   0  0  0  0  0  2  0  0  0  0  0  0
  182.6140  178.4070  140.6890 C   0  0  1  0  0  3  0  0  0  0  0  0
  180.3900  178.2200  139.7770 O   0  0  0  0  0  1  0  0  0  0  0  0
  182.0110  176.8520  138.9090 O   0  0  0  0  0  1  0  0  0  0  0  0
  181.5490  177.4890  140.0660 C   0  0  0  0  0  3  0  0  0  0  0  0
  197.0580  168.3050  142.6530 C   0  0  0  0  0  2  0  0  0  0  0  0
  196.4600  168.3960  143.9080 O   0  0  0  0  0  1  0  0  0  0  0  0
  2 24  2  0  0  0  0
  3 17  1  0  0  0  0
  4 31  1  0  0  0  0
  5 39  1  6  0  0  0
  5  8  1  0  0  0  0
  6 11  1  0  0  0  0
  7 23  1  6  0  0  0
  7 31  1  0  0  0  0
 10 27  1  6  0  0  0
 11 27  1  6  0  0  0
 11 10  1  0  0  0  0
 12  9  1  1  0  0  0
 12  8  1  0  0  0  0
 12 29  1  0  0  0  0
 13 19  1  0  0  0  0
 13  3  1  0  0  0  0
 14 32  1  0  0  0  0
 14 38  1  0  0  0  0
 15 14  1  0  0  0  0
 15 37  1  0  0  0  0
 16 25  1  0  0  0  0
 16 21  1  0  0  0  0
 17 68  1  0  0  0  0
 18 32  1  0  0  0  0
 19 26  1  0  0  0  0
 20  2  1  0  0  0  0
 21 19  1  0  0  0  0
 22 15  1  0  0  0  0
 24 30  1  0  0  0  0
 26 17  1  0  0  0  0
 26  6  1  0  0  0  0
 28  9  1  0  0  0  0
 29 23  1  0  0  0  0
 29  4  1  0  0  0  0
 30  1  2  0  0  0  0
 31 36  1  0  0  0  0
 32 16  1  0  0  0  0
 33 10  1  0  0  0  0
 33 20  1  0  0  0  0
 34 37  1  0  0  0  0
 35 30  1  0  0  0  0
 36 20  1  0  0  0  0
 36 35  1  0  0  0  0
 37 25  1  0  0  0  0
 38  5  1  0  0  0  0
 38 28  1  0  0  0  0
 41 44  1  0  0  0  0
 41 42  1  0  0  0  0
 42  7  1  0  0  0  0
 42 40  1  0  0  0  0
 43 46  1  0  0  0  0
 43 40  1  0  0  0  0
 44 43  1  0  0  0  0
 44 40  1  0  0  0  0
 45 46  1  0  0  0  0
 46 50  1  0  0  0  0
 47 51  1  0  0  0  0
 49 56  1  0  0  0  0
 49 55  1  0  0  0  0
 50 54  1  0  0  0  0
 50 47  1  0  0  0  0
 51 52  1  0  0  0  0
 51 53  1  0  0  0  0
 53 48  1  0  0  0  0
 54 49  1  0  0  0  0
 55 53  1  0  0  0  0
 56 57  2  0  0  0  0
 58 56  1  0  0  0  0
 59 63  1  0  0  0  0
 60 46  1  0  0  0  0
 60 63  1  0  0  0  0
 61 62  1  0  0  0  0
 62 60  1  0  0  0  0
 64 62  1  0  0  0  0
 64 59  1  0  0  0  0
 65 67  1  0  0  0  0
 66 67  1  0  0  0  0
 67 64  1  0  0  0  0
 68 69  1  0  0  0  0
M  END
>  <MODEL>
3

>  <REMARK>
 VINA RESULT:      -4.1      2.521      3.971
  Name = 
  7 active torsions:
  status: ('A' for Active; 'I' for Inactive)
    1  A    between atoms: C_10  and  C_48
    2  A    between atoms: N_11  and  C_59
    3  A    between atoms: C_13  and  C_34
    4  A    between atoms: C_24  and  C_44
    5  A    between atoms: C_27  and  C_61
    6  A    between atoms: C_36  and  C_59
    7  A    between atoms: N_50  and  C_59
                            x       y       z     vdW  Elec       q    Type
                         _______ _______ _______ _____ _____    ______ ____

>  <TORSDO>
F 7

$$$$
