=
 OpenBabel11062419583D

 28 30  0  0  1  0  0  0  0  0999 V2000
  185.3470  179.5100  144.0800 C   0  0  0  0  0  3  0  0  0  0  0  0
  185.6420  179.1640  145.3980 C   0  0  0  0  0  3  0  0  0  0  0  0
  187.0680  178.0000  143.2920 C   0  0  0  0  0  0  0  0  0  0  0  0
  186.6450  178.2330  145.6880 C   0  0  0  0  0  0  0  0  0  0  0  0
  187.3570  177.6200  144.6230 C   0  0  0  0  0  0  0  0  0  0  0  0
  186.0610  178.9320  143.0330 C   0  0  0  0  0  3  0  0  0  0  0  0
  186.6020  179.1510  148.0180 C   0  0  0  0  0  1  0  0  0  0  0  0
  186.1430  176.7870  147.5980 N   0  0  0  0  0  1  0  0  0  0  0  0
  186.8930  177.9460  147.1430 C   0  0  1  0  0  3  0  0  0  0  0  0
  188.4250  176.5880  144.8810 C   0  0  0  0  0  2  0  0  0  0  0  0
  191.1640  175.6430  146.7580 C   0  0  0  0  0  2  0  0  0  0  0  0
  191.5700  177.8310  143.8990 O   0  0  0  0  0  0  0  0  0  0  0  0
  193.1660  176.1090  144.6120 C   0  0  0  0  0  2  0  0  0  0  0  0
  190.8410  176.2090  145.3840 C   0  0  2  0  0  3  0  0  0  0  0  0
  193.4000  175.1090  145.7330 C   0  0  0  0  0  0  0  0  0  0  0  0
  190.2440  178.1730  144.2520 C   0  0  0  0  0  2  0  0  0  0  0  0
  192.0070  177.0360  144.9600 C   0  0  2  0  0  3  0  0  0  0  0  0
  192.4520  174.8500  146.6680 C   0  0  0  0  0  3  0  0  0  0  0  0
  189.7410  177.2160  145.3300 C   0  0  1  0  0  3  0  0  0  0  0  0
  195.7720  175.0240  145.0410 C   0  0  0  0  0  1  0  0  0  0  0  0
  194.6280  174.2610  145.6820 C   0  0  0  0  0  2  0  0  0  0  0  0
  187.8150  177.4300  142.1300 C   0  0  0  0  0  2  0  0  0  0  0  0
  187.1040  176.3560  141.5900 O   0  0  0  0  0  0  0  0  0  0  0  0
  188.3650  174.7000  139.7750 O   0  0  0  0  0  0  0  0  0  0  0  0
  188.2380  175.1070  141.4110 P   0  0  2  0  0  0  0  0  0  0  0  0
  187.7640  173.8940  142.1800 O   0  0  0  0  0  1  0  0  0  0  0  0
  189.7640  175.5890  141.9800 O   0  0  0  0  0  0  0  0  0  0  0  0
  190.5250  174.4220  142.0540 C   0  0  0  0  0  1  0  0  0  0  0  0
  1  2  1  0  0  0  0
  2  4  2  0  0  0  0
  3  5  2  0  0  0  0
  4  9  1  0  0  0  0
  5 10  1  0  0  0  0
  5  4  1  0  0  0  0
  6  3  1  0  0  0  0
  6  1  2  0  0  0  0
  9  8  1  0  0  0  0
  9  7  1  1  0  0  0
 12 16  1  0  0  0  0
 12 17  1  0  0  0  0
 13 15  1  0  0  0  0
 14 11  1  1  0  0  0
 15 18  2  0  0  0  0
 16 19  1  0  0  0  0
 17 13  1  6  0  0  0
 17 14  1  0  0  0  0
 18 11  1  0  0  0  0
 19 10  1  6  0  0  0
 19 14  1  0  0  0  0
 20 21  1  0  0  0  0
 21 15  1  0  0  0  0
 22  3  1  0  0  0  0
 23 22  1  0  0  0  0
 25 24  2  6  0  0  0
 25 23  1  0  0  0  0
 25 27  1  0  0  0  0
 25 26  1  0  0  0  0
 27 28  1  0  0  0  0
M  END
>  <MODEL>
1

>  <REMARK>
 VINA RESULT:      -7.1      0.000      0.000
  Name = 
  8 active torsions:
  status: ('A' for Active; 'I' for Inactive)
    1  A    between atoms: O_3  and  C_17
    2  A    between atoms: O_3  and  P_19
    3  A    between atoms: C_7  and  C_17
    4  A    between atoms: C_13  and  C_14
    5  A    between atoms: C_15  and  C_27
    6  A    between atoms: C_16  and  C_21
    7  A    between atoms: C_16  and  C_25
    8  A    between atoms: P_19  and  O_26
                            x       y       z     vdW  Elec       q    Type
                         _______ _______ _______ _____ _____    ______ ____

>  <TORSDO>
F 8

$$$$
=
 OpenBabel11062419583D

 28 30  0  0  1  0  0  0  0  0999 V2000
  185.4660  179.2540  146.2120 C   0  0  0  0  0  3  0  0  0  0  0  0
  185.0750  179.1550  144.8770 C   0  0  0  0  0  3  0  0  0  0  0  0
  186.6790  177.1680  146.0180 C   0  0  0  0  0  0  0  0  0  0  0  0
  185.4780  178.0710  144.0900 C   0  0  0  0  0  0  0  0  0  0  0  0
  186.3130  177.0700  144.6560 C   0  0  0  0  0  0  0  0  0  0  0  0
  186.2610  178.2620  146.7790 C   0  0  0  0  0  3  0  0  0  0  0  0
  183.5120  178.3960  142.5750 C   0  0  0  0  0  1  0  0  0  0  0  0
  185.7730  178.9280  141.8170 N   0  0  0  0  0  1  0  0  0  0  0  0
  184.9860  178.0540  142.6700 C   0  0  1  0  0  3  0  0  0  0  0  0
  186.8010  175.8990  143.8430 C   0  0  0  0  0  2  0  0  0  0  0  0
  189.7320  177.7230  143.8530 C   0  0  0  0  0  2  0  0  0  0  0  0
  189.3950  174.8080  141.7260 O   0  0  0  0  0  0  0  0  0  0  0  0
  191.4540  175.5150  142.8570 C   0  0  0  0  0  2  0  0  0  0  0  0
  189.2260  176.3460  143.4510 C   0  0  2  0  0  3  0  0  0  0  0  0
  192.0050  176.6510  143.7060 C   0  0  0  0  0  0  0  0  0  0  0  0
  188.0350  175.1900  141.7960 C   0  0  0  0  0  2  0  0  0  0  0  0
  190.0740  175.8750  142.3190 C   0  0  2  0  0  3  0  0  0  0  0  0
  191.1990  177.6160  144.2160 C   0  0  0  0  0  3  0  0  0  0  0  0
  187.8700  176.3000  142.8300 C   0  0  1  0  0  3  0  0  0  0  0  0
  193.5670  175.7480  145.3970 C   0  0  0  0  0  1  0  0  0  0  0  0
  193.4320  176.5850  144.1390 C   0  0  0  0  0  2  0  0  0  0  0  0
  187.5130  176.1230  146.6860 C   0  0  0  0  0  2  0  0  0  0  0  0
  188.8550  176.5120  146.6800 O   0  0  0  0  0  0  0  0  0  0  0  0
  190.2320  174.2950  145.7780 O   0  0  0  0  0  0  0  0  0  0  0  0
  189.7260  175.1360  147.1550 P   0  0  2  0  0  0  0  0  0  0  0  0
  188.8260  174.2370  147.9720 O   0  0  0  0  0  1  0  0  0  0  0  0
  191.0900  175.5690  148.0690 O   0  0  0  0  0  0  0  0  0  0  0  0
  191.1360  176.9640  148.0410 C   0  0  0  0  0  1  0  0  0  0  0  0
  1  6  1  0  0  0  0
  2  1  2  0  0  0  0
  3 22  1  0  0  0  0
  3  6  2  0  0  0  0
  4  5  2  0  0  0  0
  4  2  1  0  0  0  0
  5  3  1  0  0  0  0
  8  9  1  0  0  0  0
  9  7  1  1  0  0  0
  9  4  1  0  0  0  0
 10  5  1  0  0  0  0
 11 18  1  0  0  0  0
 12 16  1  0  0  0  0
 12 17  1  0  0  0  0
 13 15  1  0  0  0  0
 14 11  1  6  0  0  0
 15 21  1  0  0  0  0
 15 18  2  0  0  0  0
 16 19  1  0  0  0  0
 17 13  1  1  0  0  0
 17 14  1  0  0  0  0
 19 14  1  0  0  0  0
 19 10  1  1  0  0  0
 21 20  1  0  0  0  0
 23 22  1  0  0  0  0
 23 25  1  0  0  0  0
 25 24  2  6  0  0  0
 25 26  1  0  0  0  0
 25 27  1  0  0  0  0
 28 27  1  0  0  0  0
M  END
>  <MODEL>
2

>  <REMARK>
 VINA RESULT:      -6.8      2.746      4.263
  Name = 
  8 active torsions:
  status: ('A' for Active; 'I' for Inactive)
    1  A    between atoms: O_3  and  C_17
    2  A    between atoms: O_3  and  P_19
    3  A    between atoms: C_7  and  C_17
    4  A    between atoms: C_13  and  C_14
    5  A    between atoms: C_15  and  C_27
    6  A    between atoms: C_16  and  C_21
    7  A    between atoms: C_16  and  C_25
    8  A    between atoms: P_19  and  O_26
                            x       y       z     vdW  Elec       q    Type
                         _______ _______ _______ _____ _____    ______ ____

>  <TORSDO>
F 8

$$$$
=
 OpenBabel11062419583D

 28 30  0  0  1  0  0  0  0  0999 V2000
  193.6000  174.3430  145.7170 C   0  0  0  0  0  3  0  0  0  0  0  0
  192.6120  174.8150  146.5800 C   0  0  0  0  0  3  0  0  0  0  0  0
  192.8680  175.9030  144.0160 C   0  0  0  0  0  0  0  0  0  0  0  0
  191.7410  175.8360  146.1840 C   0  0  0  0  0  0  0  0  0  0  0  0
  191.8810  176.4100  144.8920 C   0  0  0  0  0  0  0  0  0  0  0  0
  193.7230  174.8830  144.4400 C   0  0  0  0  0  3  0  0  0  0  0  0
  189.8330  175.0960  147.6260 C   0  0  0  0  0  1  0  0  0  0  0  0
  191.2990  176.9180  148.3340 N   0  0  0  0  0  1  0  0  0  0  0  0
  190.7020  176.2570  147.1850 C   0  0  1  0  0  3  0  0  0  0  0  0
  190.9890  177.5320  144.4280 C   0  0  0  0  0  2  0  0  0  0  0  0
  187.7890  176.5600  145.2870 C   0  0  0  0  0  2  0  0  0  0  0  0
  188.4040  178.2790  142.1560 O   0  0  0  0  0  0  0  0  0  0  0  0
  186.4070  178.5420  143.5570 C   0  0  0  0  0  2  0  0  0  0  0  0
  188.4940  177.5250  144.3460 C   0  0  2  0  0  3  0  0  0  0  0  0
  185.7620  177.9740  144.8120 C   0  0  0  0  0  0  0  0  0  0  0  0
  189.6650  177.6590  142.3200 C   0  0  0  0  0  2  0  0  0  0  0  0
  187.6150  177.7040  143.1540 C   0  0  2  0  0  3  0  0  0  0  0  0
  186.4270  177.1250  145.6340 C   0  0  0  0  0  3  0  0  0  0  0  0
  189.7450  177.0240  143.7060 C   0  0  1  0  0  3  0  0  0  0  0  0
  184.2230  178.2870  146.7220 C   0  0  0  0  0  1  0  0  0  0  0  0
  184.4390  178.5190  145.2380 C   0  0  0  0  0  2  0  0  0  0  0  0
  193.0330  176.4280  142.6270 C   0  0  0  0  0  2  0  0  0  0  0  0
  192.9440  175.3790  141.7090 O   0  0  0  0  0  0  0  0  0  0  0  0
  194.1150  175.2030  139.2140 O   0  0  0  0  0  0  0  0  0  0  0  0
  194.4170  175.3860  140.8690 P   0  0  2  0  0  0  0  0  0  0  0  0
  195.2620  174.2240  141.3410 O   0  0  0  0  0  1  0  0  0  0  0  0
  195.2500  176.8440  141.1190 O   0  0  0  0  0  0  0  0  0  0  0  0
  196.5010  176.4820  141.6230 C   0  0  0  0  0  1  0  0  0  0  0  0
  1  2  1  0  0  0  0
  3  6  1  0  0  0  0
  3  5  2  0  0  0  0
  4  2  2  0  0  0  0
  4  9  1  0  0  0  0
  5  4  1  0  0  0  0
  6  1  2  0  0  0  0
  9  7  1  1  0  0  0
  9  8  1  0  0  0  0
 10  5  1  0  0  0  0
 11 18  1  0  0  0  0
 12 16  1  0  0  0  0
 12 17  1  0  0  0  0
 13 15  1  0  0  0  0
 14 11  1  1  0  0  0
 15 21  1  0  0  0  0
 15 18  2  0  0  0  0
 16 19  1  0  0  0  0
 17 13  1  1  0  0  0
 17 14  1  0  0  0  0
 19 14  1  0  0  0  0
 19 10  1  1  0  0  0
 21 20  1  0  0  0  0
 22  3  1  0  0  0  0
 23 22  1  0  0  0  0
 25 24  2  6  0  0  0
 25 27  1  0  0  0  0
 25 26  1  0  0  0  0
 25 23  1  0  0  0  0
 27 28  1  0  0  0  0
M  END
>  <MODEL>
3

>  <REMARK>
 VINA RESULT:      -6.8      2.723      6.487
  Name = 
  8 active torsions:
  status: ('A' for Active; 'I' for Inactive)
    1  A    between atoms: O_3  and  C_17
    2  A    between atoms: O_3  and  P_19
    3  A    between atoms: C_7  and  C_17
    4  A    between atoms: C_13  and  C_14
    5  A    between atoms: C_15  and  C_27
    6  A    between atoms: C_16  and  C_21
    7  A    between atoms: C_16  and  C_25
    8  A    between atoms: P_19  and  O_26
                            x       y       z     vdW  Elec       q    Type
                         _______ _______ _______ _____ _____    ______ ____

>  <TORSDO>
F 8

$$$$
=
 OpenBabel11062419583D

 28 30  0  0  1  0  0  0  0  0999 V2000
  184.8360  177.5880  143.5410 C   0  0  0  0  0  3  0  0  0  0  0  0
  185.0900  177.8090  144.8940 C   0  0  0  0  0  3  0  0  0  0  0  0
  187.2140  177.4490  143.1090 C   0  0  0  0  0  0  0  0  0  0  0  0
  186.4010  177.8500  145.3800 C   0  0  0  0  0  0  0  0  0  0  0  0
  187.4840  177.6440  144.4830 C   0  0  0  0  0  0  0  0  0  0  0  0
  185.8940  177.4130  142.6540 C   0  0  0  0  0  3  0  0  0  0  0  0
  185.8080  179.3500  147.2950 C   0  0  0  0  0  1  0  0  0  0  0  0
  186.1770  176.9600  147.6490 N   0  0  0  0  0  1  0  0  0  0  0  0
  186.5630  178.1130  146.8510 C   0  0  1  0  0  3  0  0  0  0  0  0
  188.9140  177.6480  144.9610 C   0  0  0  0  0  2  0  0  0  0  0  0
  191.9300  176.2470  144.0330 C   0  0  0  0  0  2  0  0  0  0  0  0
  190.0870  174.9240  146.8590 O   0  0  0  0  0  0  0  0  0  0  0  0
  192.5310  175.0600  146.6900 C   0  0  0  0  0  2  0  0  0  0  0  0
  190.9990  176.3020  145.2340 C   0  0  2  0  0  3  0  0  0  0  0  0
  193.6270  175.4360  145.7050 C   0  0  0  0  0  0  0  0  0  0  0  0
  189.0030  175.4370  146.1090 C   0  0  0  0  0  2  0  0  0  0  0  0
  191.1770  175.0300  145.9920 C   0  0  2  0  0  3  0  0  0  0  0  0
  193.3480  176.0430  144.5250 C   0  0  0  0  0  3  0  0  0  0  0  0
  189.5370  176.2560  144.9360 C   0  0  1  0  0  3  0  0  0  0  0  0
  195.6530  174.0230  145.5930 C   0  0  0  0  0  1  0  0  0  0  0  0
  195.0490  175.3030  146.1410 C   0  0  0  0  0  2  0  0  0  0  0  0
  188.3090  177.2770  142.1080 C   0  0  0  0  0  2  0  0  0  0  0  0
  187.8310  176.5780  140.9970 O   0  0  0  0  0  0  0  0  0  0  0  0
  187.4660  174.2190  142.3850 O   0  0  0  0  0  1  0  0  0  0  0  0
  188.3860  174.9870  141.1910 P   0  0  2  0  0  0  0  0  0  0  0  0
  189.8310  175.0160  141.6340 O   0  0  0  0  0  0  0  0  0  0  0  0
  188.2450  174.1160  139.7410 O   0  0  0  0  0  0  0  0  0  0  0  0
  188.5220  172.7880  140.0700 C   0  0  0  0  0  1  0  0  0  0  0  0
  1  2  1  0  0  0  0
  2  4  2  0  0  0  0
  3  5  2  0  0  0  0
  4  9  1  0  0  0  0
  5 10  1  0  0  0  0
  5  4  1  0  0  0  0
  6  3  1  0  0  0  0
  6  1  2  0  0  0  0
  9  7  1  1  0  0  0
  9  8  1  0  0  0  0
 11 18  1  0  0  0  0
 14 11  1  6  0  0  0
 14 17  1  0  0  0  0
 15 21  1  0  0  0  0
 15 13  1  0  0  0  0
 16 12  1  0  0  0  0
 17 13  1  1  0  0  0
 17 12  1  0  0  0  0
 18 15  2  0  0  0  0
 19 10  1  1  0  0  0
 19 14  1  0  0  0  0
 19 16  1  0  0  0  0
 20 21  1  0  0  0  0
 22  3  1  0  0  0  0
 23 25  1  0  0  0  0
 23 22  1  0  0  0  0
 25 26  2  1  0  0  0
 25 24  1  0  0  0  0
 27 28  1  0  0  0  0
 27 25  1  0  0  0  0
M  END
>  <MODEL>
4

>  <REMARK>
 VINA RESULT:      -6.8      1.379      1.987
  Name = 
  8 active torsions:
  status: ('A' for Active; 'I' for Inactive)
    1  A    between atoms: O_3  and  C_17
    2  A    between atoms: O_3  and  P_19
    3  A    between atoms: C_7  and  C_17
    4  A    between atoms: C_13  and  C_14
    5  A    between atoms: C_15  and  C_27
    6  A    between atoms: C_16  and  C_21
    7  A    between atoms: C_16  and  C_25
    8  A    between atoms: P_19  and  O_26
                            x       y       z     vdW  Elec       q    Type
                         _______ _______ _______ _____ _____    ______ ____

>  <TORSDO>
F 8

$$$$
=
 OpenBabel11062419583D

 28 30  0  0  1  0  0  0  0  0999 V2000
  190.4110  173.3870  144.6600 C   0  0  0  0  0  3  0  0  0  0  0  0
  190.7070  174.7300  144.8940 C   0  0  0  0  0  3  0  0  0  0  0  0
  188.9810  174.0190  142.8110 C   0  0  0  0  0  0  0  0  0  0  0  0
  190.1540  175.7360  144.0960 C   0  0  0  0  0  0  0  0  0  0  0  0
  189.2960  175.3810  143.0200 C   0  0  0  0  0  0  0  0  0  0  0  0
  189.5490  173.0360  143.6250 C   0  0  0  0  0  3  0  0  0  0  0  0
  190.1580  177.4960  145.8760 C   0  0  0  0  0  1  0  0  0  0  0  0
  191.9330  177.4140  144.1990 N   0  0  0  0  0  1  0  0  0  0  0  0
  190.5250  177.1500  144.4460 C   0  0  1  0  0  3  0  0  0  0  0  0
  188.6990  176.4250  142.1120 C   0  0  0  0  0  2  0  0  0  0  0  0
  186.6950  176.3750  144.9220 C   0  0  0  0  0  2  0  0  0  0  0  0
  186.1840  178.8780  142.3520 O   0  0  0  0  0  0  0  0  0  0  0  0
  185.8940  179.2330  144.7620 C   0  0  0  0  0  2  0  0  0  0  0  0
  187.1020  177.3250  143.8060 C   0  0  2  0  0  3  0  0  0  0  0  0
  185.9170  178.4710  146.0780 C   0  0  0  0  0  0  0  0  0  0  0  0
  186.7300  177.8470  141.5520 C   0  0  0  0  0  2  0  0  0  0  0  0
  185.9640  178.2640  143.5870 C   0  0  2  0  0  3  0  0  0  0  0  0
  186.3510  177.1890  146.1540 C   0  0  0  0  0  3  0  0  0  0  0  0
  187.2410  176.7220  142.4490 C   0  0  1  0  0  3  0  0  0  0  0  0
  186.7970  179.0980  148.3030 C   0  0  0  0  0  1  0  0  0  0  0  0
  185.6330  179.2220  147.3370 C   0  0  0  0  0  2  0  0  0  0  0  0
  188.0460  173.5840  141.7300 C   0  0  0  0  0  2  0  0  0  0  0  0
  188.5970  172.5080  141.0300 O   0  0  0  0  0  0  0  0  0  0  0  0
  189.1110  171.9630  138.3720 O   0  0  0  0  0  0  0  0  0  0  0  0
  189.1550  173.1590  139.5660 P   0  0  2  0  0  0  0  0  0  0  0  0
  190.5850  173.6190  139.7420 O   0  0  0  0  0  1  0  0  0  0  0  0
  188.1860  174.4640  139.0760 O   0  0  0  0  0  0  0  0  0  0  0  0
  188.1630  174.4140  137.6810 C   0  0  0  0  0  1  0  0  0  0  0  0
  1  2  1  0  0  0  0
  3  5  2  0  0  0  0
  3  6  1  0  0  0  0
  4  9  1  0  0  0  0
  4  2  2  0  0  0  0
  5  4  1  0  0  0  0
  6  1  2  0  0  0  0
  8  9  1  0  0  0  0
  9  7  1  1  0  0  0
 10  5  1  0  0  0  0
 11 18  1  0  0  0  0
 12 17  1  0  0  0  0
 13 15  1  0  0  0  0
 14 11  1  1  0  0  0
 15 18  2  0  0  0  0
 15 21  1  0  0  0  0
 16 12  1  0  0  0  0
 16 19  1  0  0  0  0
 17 14  1  0  0  0  0
 17 13  1  1  0  0  0
 19 10  1  6  0  0  0
 19 14  1  0  0  0  0
 21 20  1  0  0  0  0
 22  3  1  0  0  0  0
 23 22  1  0  0  0  0
 25 24  2  6  0  0  0
 25 26  1  0  0  0  0
 25 23  1  0  0  0  0
 27 25  1  0  0  0  0
 28 27  1  0  0  0  0
M  END
>  <MODEL>
5

>  <REMARK>
 VINA RESULT:      -6.8      2.647      5.799
  Name = 
  8 active torsions:
  status: ('A' for Active; 'I' for Inactive)
    1  A    between atoms: O_3  and  C_17
    2  A    between atoms: O_3  and  P_19
    3  A    between atoms: C_7  and  C_17
    4  A    between atoms: C_13  and  C_14
    5  A    between atoms: C_15  and  C_27
    6  A    between atoms: C_16  and  C_21
    7  A    between atoms: C_16  and  C_25
    8  A    between atoms: P_19  and  O_26
                            x       y       z     vdW  Elec       q    Type
                         _______ _______ _______ _____ _____    ______ ____

>  <TORSDO>
F 8

$$$$
=
 OpenBabel11062419583D

 28 30  0  0  1  0  0  0  0  0999 V2000
  192.1530  174.5210  141.4730 C   0  0  0  0  0  3  0  0  0  0  0  0
  190.8080  174.1590  141.4080 C   0  0  0  0  0  3  0  0  0  0  0  0
  192.0630  174.4500  143.8920 C   0  0  0  0  0  0  0  0  0  0  0  0
  190.0700  173.9310  142.5740 C   0  0  0  0  0  0  0  0  0  0  0  0
  190.7060  174.0530  143.8380 C   0  0  0  0  0  0  0  0  0  0  0  0
  192.7740  174.6690  142.7100 C   0  0  0  0  0  3  0  0  0  0  0  0
  187.7710  174.7640  142.0320 C   0  0  0  0  0  1  0  0  0  0  0  0
  188.4600  172.5040  141.4080 N   0  0  0  0  0  1  0  0  0  0  0  0
  188.6240  173.5620  142.3900 C   0  0  1  0  0  3  0  0  0  0  0  0
  189.9630  173.7890  145.1230 C   0  0  0  0  0  2  0  0  0  0  0  0
  189.0890  177.0710  144.5050 C   0  0  0  0  0  2  0  0  0  0  0  0
  187.9920  175.4230  147.5400 O   0  0  0  0  0  0  0  0  0  0  0  0
  186.6970  177.0740  146.2680 C   0  0  0  0  0  2  0  0  0  0  0  0
  188.6530  175.8990  145.3710 C   0  0  2  0  0  3  0  0  0  0  0  0
  186.8240  178.0080  145.0750 C   0  0  0  0  0  0  0  0  0  0  0  0
  189.1820  174.6940  147.3100 C   0  0  0  0  0  2  0  0  0  0  0  0
  188.0520  176.4650  146.6120 C   0  0  2  0  0  3  0  0  0  0  0  0
  187.8860  177.9520  144.2340 C   0  0  0  0  0  3  0  0  0  0  0  0
  189.7470  175.0590  145.9390 C   0  0  1  0  0  3  0  0  0  0  0  0
  184.5020  178.6130  145.6710 C   0  0  0  0  0  1  0  0  0  0  0  0
  185.6570  178.8710  144.7230 C   0  0  0  0  0  2  0  0  0  0  0  0
  192.7760  174.6450  145.1900 C   0  0  0  0  0  2  0  0  0  0  0  0
  192.8440  176.0070  145.4940 O   0  0  0  0  0  0  0  0  0  0  0  0
  195.2450  174.9860  146.3990 O   0  0  0  0  0  0  0  0  0  0  0  0
  194.4930  176.3380  145.7150 P   0  0  2  0  0  0  0  0  0  0  0  0
  194.6400  177.5080  146.6620 O   0  0  0  0  0  1  0  0  0  0  0  0
  195.2420  176.6960  144.2350 O   0  0  0  0  0  0  0  0  0  0  0  0
  196.2090  175.7060  144.0520 C   0  0  0  0  0  1  0  0  0  0  0  0
  1  6  1  0  0  0  0
  2  1  2  0  0  0  0
  2  4  1  0  0  0  0
  3 22  1  0  0  0  0
  4  5  2  0  0  0  0
  5  3  1  0  0  0  0
  5 10  1  0  0  0  0
  6  3  2  0  0  0  0
  8  9  1  0  0  0  0
  9  7  1  6  0  0  0
  9  4  1  0  0  0  0
 14 11  1  6  0  0  0
 14 19  1  0  0  0  0
 14 17  1  0  0  0  0
 15 13  1  0  0  0  0
 16 12  1  0  0  0  0
 17 13  1  6  0  0  0
 17 12  1  0  0  0  0
 18 11  1  0  0  0  0
 18 15  2  0  0  0  0
 19 10  1  6  0  0  0
 19 16  1  0  0  0  0
 21 15  1  0  0  0  0
 21 20  1  0  0  0  0
 22 23  1  0  0  0  0
 23 25  1  0  0  0  0
 25 24  2  1  0  0  0
 25 26  1  0  0  0  0
 27 25  1  0  0  0  0
 28 27  1  0  0  0  0
M  END
>  <MODEL>
6

>  <REMARK>
 VINA RESULT:      -6.7      3.395      6.948
  Name = 
  8 active torsions:
  status: ('A' for Active; 'I' for Inactive)
    1  A    between atoms: O_3  and  C_17
    2  A    between atoms: O_3  and  P_19
    3  A    between atoms: C_7  and  C_17
    4  A    between atoms: C_13  and  C_14
    5  A    between atoms: C_15  and  C_27
    6  A    between atoms: C_16  and  C_21
    7  A    between atoms: C_16  and  C_25
    8  A    between atoms: P_19  and  O_26
                            x       y       z     vdW  Elec       q    Type
                         _______ _______ _______ _____ _____    ______ ____

>  <TORSDO>
F 8

$$$$
=
 OpenBabel11062419583D

 28 30  0  0  1  0  0  0  0  0999 V2000
  186.1190  177.7660  140.2390 C   0  0  0  0  0  3  0  0  0  0  0  0
  185.3410  178.2880  141.2710 C   0  0  0  0  0  3  0  0  0  0  0  0
  187.2450  176.3130  141.8150 C   0  0  0  0  0  0  0  0  0  0  0  0
  185.4930  177.8340  142.5850 C   0  0  0  0  0  0  0  0  0  0  0  0
  186.4410  176.8130  142.8650 C   0  0  0  0  0  0  0  0  0  0  0  0
  187.0690  176.7860  140.5120 C   0  0  0  0  0  3  0  0  0  0  0  0
  185.1930  179.7860  144.1230 C   0  0  0  0  0  1  0  0  0  0  0  0
  183.2580  178.6640  143.1380 N   0  0  0  0  0  1  0  0  0  0  0  0
  184.6160  178.4760  143.6230 C   0  0  1  0  0  3  0  0  0  0  0  0
  186.6230  176.2670  144.2580 C   0  0  0  0  0  2  0  0  0  0  0  0
  188.8010  175.6910  146.8730 C   0  0  0  0  0  2  0  0  0  0  0  0
  189.6760  178.0220  144.2400 O   0  0  0  0  0  0  0  0  0  0  0  0
  191.2450  176.5450  145.4130 C   0  0  0  0  0  2  0  0  0  0  0  0
  188.8110  176.2510  145.4590 C   0  0  2  0  0  3  0  0  0  0  0  0
  191.2950  175.5510  146.5630 C   0  0  0  0  0  0  0  0  0  0  0  0
  188.2670  178.1390  144.1810 C   0  0  0  0  0  2  0  0  0  0  0  0
  189.9020  177.2660  145.3920 C   0  0  2  0  0  3  0  0  0  0  0  0
  190.1690  175.1130  147.1780 C   0  0  0  0  0  3  0  0  0  0  0  0
  187.6290  177.0750  145.0710 C   0  0  1  0  0  3  0  0  0  0  0  0
  193.0860  174.0700  145.7200 C   0  0  0  0  0  1  0  0  0  0  0  0
  192.6030  174.9080  146.8890 C   0  0  0  0  0  2  0  0  0  0  0  0
  188.2940  175.2760  142.0520 C   0  0  0  0  0  2  0  0  0  0  0  0
  188.8220  174.8470  140.8310 O   0  0  0  0  0  0  0  0  0  0  0  0
  187.4440  172.7240  141.9340 O   0  0  0  0  0  1  0  0  0  0  0  0
  188.6510  173.1600  140.8320 P   0  0  2  0  0  0  0  0  0  0  0  0
  189.9560  172.5300  141.2650 O   0  0  0  0  0  0  0  0  0  0  0  0
  188.2220  172.5940  139.2910 O   0  0  0  0  0  0  0  0  0  0  0  0
  188.1920  173.7220  138.4690 C   0  0  0  0  0  1  0  0  0  0  0  0
  1  6  2  0  0  0  0
  1  2  1  0  0  0  0
  2  4  2  0  0  0  0
  3 22  1  0  0  0  0
  3  5  2  0  0  0  0
  4  5  1  0  0  0  0
  4  9  1  0  0  0  0
  5 10  1  0  0  0  0
  6  3  1  0  0  0  0
  8  9  1  0  0  0  0
  9  7  1  6  0  0  0
 11 18  1  0  0  0  0
 12 17  1  0  0  0  0
 13 15  1  0  0  0  0
 14 11  1  1  0  0  0
 15 21  1  0  0  0  0
 15 18  2  0  0  0  0
 16 12  1  0  0  0  0
 16 19  1  0  0  0  0
 17 13  1  6  0  0  0
 17 14  1  0  0  0  0
 19 10  1  6  0  0  0
 19 14  1  0  0  0  0
 20 21  1  0  0  0  0
 23 25  1  0  0  0  0
 23 22  1  0  0  0  0
 25 26  2  1  0  0  0
 25 24  1  0  0  0  0
 27 25  1  0  0  0  0
 28 27  1  0  0  0  0
M  END
>  <MODEL>
7

>  <REMARK>
 VINA RESULT:      -6.6      2.009      3.081
  Name = 
  8 active torsions:
  status: ('A' for Active; 'I' for Inactive)
    1  A    between atoms: O_3  and  C_17
    2  A    between atoms: O_3  and  P_19
    3  A    between atoms: C_7  and  C_17
    4  A    between atoms: C_13  and  C_14
    5  A    between atoms: C_15  and  C_27
    6  A    between atoms: C_16  and  C_21
    7  A    between atoms: C_16  and  C_25
    8  A    between atoms: P_19  and  O_26
                            x       y       z     vdW  Elec       q    Type
                         _______ _______ _______ _____ _____    ______ ____

>  <TORSDO>
F 8

$$$$
=
 OpenBabel11062419583D

 28 30  0  0  1  0  0  0  0  0999 V2000
  187.1750  175.5900  142.3750 C   0  0  0  0  0  3  0  0  0  0  0  0
  188.2510  174.7050  142.4320 C   0  0  0  0  0  3  0  0  0  0  0  0
  187.8520  176.5610  144.4870 C   0  0  0  0  0  0  0  0  0  0  0  0
  189.1450  174.7330  143.5070 C   0  0  0  0  0  0  0  0  0  0  0  0
  188.9630  175.6890  144.5420 C   0  0  0  0  0  0  0  0  0  0  0  0
  186.9760  176.5100  143.4010 C   0  0  0  0  0  3  0  0  0  0  0  0
  189.7550  172.3130  143.7100 C   0  0  0  0  0  1  0  0  0  0  0  0
  191.0220  173.8000  142.2420 N   0  0  0  0  0  1  0  0  0  0  0  0
  190.2590  173.7240  143.4770 C   0  0  1  0  0  3  0  0  0  0  0  0
  189.9170  175.7800  145.7060 C   0  0  0  0  0  2  0  0  0  0  0  0
  193.2600  175.9780  146.5450 C   0  0  0  0  0  2  0  0  0  0  0  0
  192.1170  177.0920  143.2910 O   0  0  0  0  0  0  0  0  0  0  0  0
  194.2630  175.9930  143.7470 C   0  0  0  0  0  2  0  0  0  0  0  0
  192.3730  175.9820  145.3090 C   0  0  2  0  0  3  0  0  0  0  0  0
  195.1060  175.4860  144.9070 C   0  0  0  0  0  0  0  0  0  0  0  0
  190.9340  177.3200  144.0310 C   0  0  0  0  0  2  0  0  0  0  0  0
  193.0700  176.7880  144.2660 C   0  0  2  0  0  3  0  0  0  0  0  0
  194.6160  175.4170  146.1690 C   0  0  0  0  0  3  0  0  0  0  0  0
  191.0830  176.7230  145.4280 C   0  0  1  0  0  3  0  0  0  0  0  0
  196.8190  173.8790  145.6800 C   0  0  0  0  0  1  0  0  0  0  0  0
  196.4360  174.8780  144.6040 C   0  0  0  0  0  2  0  0  0  0  0  0
  187.5760  177.5540  145.5690 C   0  0  0  0  0  2  0  0  0  0  0  0
  186.6000  178.4590  145.1450 O   0  0  0  0  0  0  0  0  0  0  0  0
  185.9240  179.4290  147.6400 O   0  0  0  0  0  1  0  0  0  0  0  0
  185.4160  178.4480  146.3590 P   0  0  2  0  0  0  0  0  0  0  0  0
  185.2400  177.0350  146.8670 O   0  0  0  0  0  0  0  0  0  0  0  0
  183.9370  179.0360  145.7680 O   0  0  0  0  0  0  0  0  0  0  0  0
  184.0650  179.0490  144.3780 C   0  0  0  0  0  1  0  0  0  0  0  0
  1  2  2  0  0  0  0
  1  6  1  0  0  0  0
  2  4  1  0  0  0  0
  3  5  1  0  0  0  0
  3 22  1  0  0  0  0
  4  5  2  0  0  0  0
  5 10  1  0  0  0  0
  6  3  2  0  0  0  0
  8  9  1  0  0  0  0
  9  4  1  0  0  0  0
  9  7  1  6  0  0  0
 12 16  1  0  0  0  0
 12 17  1  0  0  0  0
 13 15  1  0  0  0  0
 14 19  1  0  0  0  0
 14 11  1  1  0  0  0
 15 18  2  0  0  0  0
 16 19  1  0  0  0  0
 17 13  1  6  0  0  0
 17 14  1  0  0  0  0
 18 11  1  0  0  0  0
 19 10  1  6  0  0  0
 21 15  1  0  0  0  0
 21 20  1  0  0  0  0
 23 22  1  0  0  0  0
 23 25  1  0  0  0  0
 25 26  2  1  0  0  0
 25 24  1  0  0  0  0
 27 25  1  0  0  0  0
 28 27  1  0  0  0  0
M  END
>  <MODEL>
8

>  <REMARK>
 VINA RESULT:      -6.6      3.171      4.789
  Name = 
  8 active torsions:
  status: ('A' for Active; 'I' for Inactive)
    1  A    between atoms: O_3  and  C_17
    2  A    between atoms: O_3  and  P_19
    3  A    between atoms: C_7  and  C_17
    4  A    between atoms: C_13  and  C_14
    5  A    between atoms: C_15  and  C_27
    6  A    between atoms: C_16  and  C_21
    7  A    between atoms: C_16  and  C_25
    8  A    between atoms: P_19  and  O_26
                            x       y       z     vdW  Elec       q    Type
                         _______ _______ _______ _____ _____    ______ ____

>  <TORSDO>
F 8

$$$$
=
 OpenBabel11062419583D

 28 30  0  0  1  0  0  0  0  0999 V2000
  190.9660  175.2470  147.4910 C   0  0  0  0  0  3  0  0  0  0  0  0
  192.1620  175.5490  146.8410 C   0  0  0  0  0  3  0  0  0  0  0  0
  189.7890  176.8070  146.0610 C   0  0  0  0  0  0  0  0  0  0  0  0
  192.1960  176.4740  145.7930 C   0  0  0  0  0  0  0  0  0  0  0  0
  190.9900  177.0990  145.3750 C   0  0  0  0  0  0  0  0  0  0  0  0
  189.7870  175.8780  147.1040 C   0  0  0  0  0  3  0  0  0  0  0  0
  194.4390  177.5460  146.0890 C   0  0  0  0  0  1  0  0  0  0  0  0
  194.1950  175.5050  144.7660 N   0  0  0  0  0  1  0  0  0  0  0  0
  193.5400  176.7370  145.1740 C   0  0  1  0  0  3  0  0  0  0  0  0
  190.9670  178.0800  144.2310 C   0  0  0  0  0  2  0  0  0  0  0  0
  191.5360  175.0200  142.7360 C   0  0  0  0  0  2  0  0  0  0  0  0
  188.4480  176.8140  142.1210 O   0  0  0  0  0  0  0  0  0  0  0  0
  188.6690  174.3760  142.2870 C   0  0  0  0  0  2  0  0  0  0  0  0
  190.3790  175.9510  143.0670 C   0  0  2  0  0  3  0  0  0  0  0  0
  189.7280  173.2940  142.4340 C   0  0  0  0  0  0  0  0  0  0  0  0
  189.2940  177.9150  142.3910 C   0  0  0  0  0  2  0  0  0  0  0  0
  189.3240  175.7300  142.0370 C   0  0  2  0  0  3  0  0  0  0  0  0
  191.0220  173.5950  142.7100 C   0  0  0  0  0  3  0  0  0  0  0  0
  190.6420  177.4100  142.8990 C   0  0  1  0  0  3  0  0  0  0  0  0
  190.4410  170.9490  142.1120 C   0  0  0  0  0  1  0  0  0  0  0  0
  189.2860  171.8680  142.4620 C   0  0  0  0  0  2  0  0  0  0  0  0
  188.4970  177.4670  145.7040 C   0  0  0  0  0  2  0  0  0  0  0  0
  187.5480  176.5000  145.3630 O   0  0  0  0  0  0  0  0  0  0  0  0
  185.5180  176.7890  143.5130 O   0  0  0  0  0  0  0  0  0  0  0  0
  186.1410  177.3650  144.9770 P   0  0  2  0  0  0  0  0  0  0  0  0
  186.4860  178.8280  144.8170 O   0  0  0  0  0  1  0  0  0  0  0  0
  184.9650  177.1790  146.1870 O   0  0  0  0  0  0  0  0  0  0  0  0
  184.1820  178.3340  146.1330 C   0  0  0  0  0  1  0  0  0  0  0  0
  2  1  2  0  0  0  0
  3  6  2  0  0  0  0
  4  2  1  0  0  0  0
  5  4  2  0  0  0  0
  5  3  1  0  0  0  0
  6  1  1  0  0  0  0
  8  9  1  0  0  0  0
  9  4  1  0  0  0  0
  9  7  1  1  0  0  0
 10  5  1  0  0  0  0
 12 16  1  0  0  0  0
 13 15  1  0  0  0  0
 14 11  1  6  0  0  0
 15 21  1  0  0  0  0
 15 18  2  0  0  0  0
 16 19  1  0  0  0  0
 17 12  1  0  0  0  0
 17 13  1  1  0  0  0
 17 14  1  0  0  0  0
 18 11  1  0  0  0  0
 19 14  1  0  0  0  0
 19 10  1  1  0  0  0
 20 21  1  0  0  0  0
 22  3  1  0  0  0  0
 23 22  1  0  0  0  0
 25 24  2  6  0  0  0
 25 23  1  0  0  0  0
 25 27  1  0  0  0  0
 26 25  1  0  0  0  0
 28 27  1  0  0  0  0
M  END
>  <MODEL>
9

>  <REMARK>
 VINA RESULT:      -6.5      2.815      5.630
  Name = 
  8 active torsions:
  status: ('A' for Active; 'I' for Inactive)
    1  A    between atoms: O_3  and  C_17
    2  A    between atoms: O_3  and  P_19
    3  A    between atoms: C_7  and  C_17
    4  A    between atoms: C_13  and  C_14
    5  A    between atoms: C_15  and  C_27
    6  A    between atoms: C_16  and  C_21
    7  A    between atoms: C_16  and  C_25
    8  A    between atoms: P_19  and  O_26
                            x       y       z     vdW  Elec       q    Type
                         _______ _______ _______ _____ _____    ______ ____

>  <TORSDO>
F 8

$$$$
