=
 OpenBabel11062421263D

 31 35  0  0  1  0  0  0  0  0999 V2000
  189.2750  177.1820  146.5300 C   0  0  0  0  0  0  0  0  0  0  0  0
  191.3630  176.2410  145.6040 C   0  0  0  0  0  0  0  0  0  0  0  0
  190.5260  176.7140  146.7520 C   0  0  2  0  0  3  0  0  0  0  0  0
  192.1080  176.8980  142.6370 C   0  0  0  0  0  1  0  0  0  0  0  0
  186.9520  178.2280  142.5540 C   0  0  0  0  0  2  0  0  0  0  0  0
  191.6740  175.5690  143.2370 C   0  0  1  0  0  0  0  0  0  0  0  0
  184.1500  178.4040  143.3680 C   0  0  0  0  0  3  0  0  0  0  0  0
  185.1560  178.3050  145.7720 C   0  0  0  0  0  2  0  0  0  0  0  0
  188.4080  177.6130  147.6600 C   0  0  0  0  0  3  0  0  0  0  0  0
  190.7980  175.8340  144.4460 C   0  0  0  0  0  0  0  0  0  0  0  0
  188.7380  177.2400  145.1070 C   0  0  0  0  0  0  0  0  0  0  0  0
  190.9560  174.8790  142.2550 O   0  0  0  0  0  1  0  0  0  0  0  0
  193.5610  175.2140  144.9900 C   0  0  0  0  0  2  0  0  0  0  0  0
  184.3880  178.3040  142.0450 C   0  0  0  0  0  0  0  0  0  0  0  0
  186.4200  177.6340  143.8440 C   0  0  2  0  0  3  0  0  0  0  0  0
  192.8570  176.4050  145.6460 C   0  0  0  0  0  2  0  0  0  0  0  0
  192.9420  174.7700  143.6490 C   0  0  1  0  0  3  0  0  0  0  0  0
  189.0100  175.6210  144.3340 S   0  0  0  0  0  0  0  0  0  0  0  0
  185.3130  178.5510  144.2830 C   0  0  1  0  0  3  0  0  0  0  0  0
  187.1370  177.9740  147.4670 C   0  0  0  0  0  3  0  0  0  0  0  0
  186.5660  177.9520  146.1170 C   0  0  0  0  0  0  0  0  0  0  0  0
  185.8180  178.2100  141.4960 C   0  0  0  0  0  2  0  0  0  0  0  0
  187.2840  177.6290  145.0460 C   0  0  0  0  0  0  0  0  0  0  0  0
  183.2580  178.2000  141.0990 C   0  0  0  0  0  0  0  0  0  0  0  0
  183.4670  177.8250  139.9140 O   0  0  0  0  0  0  0  0  0  0  0  0
  181.8570  178.5080  141.5190 C   0  0  0  0  0  2  0  0  0  0  0  0
  180.8970  178.1960  140.3860 C   0  0  0  0  0  1  0  0  0  0  0  0
  191.5950  177.6840  148.7100 N   0  0  0  0  0  2  0  0  0  0  0  0
  191.0470  176.6640  148.1390 C   0  0  0  0  0  3  0  0  0  0  0  0
  192.5480  172.7370  144.7980 O   0  0  0  0  0  0  0  0  0  0  0  0
  192.7030  173.2910  143.7210 C   0  0  0  0  0  3  0  0  0  0  0  0
  1  3  1  0  0  0  0
  1  9  1  0  0  0  0
  2 16  1  0  0  0  0
  2  3  1  0  0  0  0
  3 29  1  1  0  0  0
  6  4  1  6  0  0  0
  6 17  1  0  0  0  0
  6 10  1  0  0  0  0
  8 21  1  0  0  0  0
 10  2  2  0  0  0  0
 11  1  2  0  0  0  0
 12  6  1  0  0  0  0
 13 16  1  0  0  0  0
 14  7  2  0  0  0  0
 15  5  1  6  0  0  0
 15 19  1  0  0  0  0
 15 23  1  0  0  0  0
 17 31  1  1  0  0  0
 17 13  1  0  0  0  0
 18 10  1  0  0  0  0
 18 11  1  0  0  0  0
 19  7  1  6  0  0  0
 19  8  1  0  0  0  0
 20  9  2  0  0  0  0
 21 20  1  0  0  0  0
 22 14  1  0  0  0  0
 22  5  1  0  0  0  0
 23 11  1  0  0  0  0
 23 21  2  0  0  0  0
 24 26  1  0  0  0  0
 24 14  1  0  0  0  0
 25 24  2  0  0  0  0
 27 26  1  0  0  0  0
 29 28  2  0  0  0  0
 31 30  2  0  0  0  0
M  END
>  <MODEL>
1

>  <REMARK>
 VINA RESULT:      -8.1      0.000      0.000
  Name = 
  4 active torsions:
  status: ('A' for Active; 'I' for Inactive)
    1  A    between atoms: C_1  and  C_2
    2  A    between atoms: C_1  and  C_20
    3  A    between atoms: C_6  and  C_27
    4  A    between atoms: C_23  and  C_24
                            x       y       z     vdW  Elec       q    Type
                         _______ _______ _______ _____ _____    ______ ____

>  <TORSDO>
F 4

$$$$
=
 OpenBabel11062421263D

 31 35  0  0  1  0  0  0  0  0999 V2000
  189.3060  176.1870  146.2640 C   0  0  0  0  0  0  0  0  0  0  0  0
  187.3560  176.7270  144.8440 C   0  0  0  0  0  0  0  0  0  0  0  0
  187.9700  176.3900  146.1690 C   0  0  2  0  0  3  0  0  0  0  0  0
  187.4960  176.0380  141.7960 C   0  0  0  0  0  1  0  0  0  0  0  0
  192.6780  175.7610  142.9860 C   0  0  0  0  0  2  0  0  0  0  0  0
  187.4960  177.4050  142.4640 C   0  0  1  0  0  0  0  0  0  0  0  0
  195.1780  176.1160  144.4590 C   0  0  0  0  0  3  0  0  0  0  0  0
  193.6250  175.9300  146.5450 C   0  0  0  0  0  2  0  0  0  0  0  0
  189.9430  175.8980  147.5760 C   0  0  0  0  0  3  0  0  0  0  0  0
  188.0900  177.2780  143.8530 C   0  0  0  0  0  0  0  0  0  0  0  0
  190.1690  176.2860  145.0150 C   0  0  0  0  0  0  0  0  0  0  0  0
  188.2750  178.2570  141.6750 O   0  0  0  0  0  1  0  0  0  0  0  0
  185.2110  177.3180  143.7000 C   0  0  0  0  0  2  0  0  0  0  0  0
  195.2510  176.2130  143.1160 C   0  0  0  0  0  0  0  0  0  0  0  0
  192.7540  176.4030  144.3580 C   0  0  2  0  0  3  0  0  0  0  0  0
  185.9600  176.2680  144.5250 C   0  0  0  0  0  2  0  0  0  0  0  0
  186.0330  177.9230  142.5440 C   0  0  1  0  0  3  0  0  0  0  0  0
  189.7720  177.8450  144.1750 S   0  0  0  0  0  0  0  0  0  0  0  0
  193.8830  175.7090  145.0670 C   0  0  1  0  0  3  0  0  0  0  0  0
  191.2690  175.8030  147.7030 C   0  0  0  0  0  3  0  0  0  0  0  0
  192.1320  175.9850  146.5320 C   0  0  0  0  0  0  0  0  0  0  0  0
  194.0060  176.0400  142.2360 C   0  0  0  0  0  2  0  0  0  0  0  0
  191.6430  176.1950  145.3150 C   0  0  0  0  0  0  0  0  0  0  0  0
  196.5310  176.5720  142.4720 C   0  0  0  0  0  0  0  0  0  0  0  0
  197.4220  177.1650  143.1370 O   0  0  0  0  0  0  0  0  0  0  0  0
  196.8100  176.2270  141.0440 C   0  0  0  0  0  2  0  0  0  0  0  0
  197.9080  175.1830  140.9690 C   0  0  0  0  0  1  0  0  0  0  0  0
  186.3070  177.2160  147.7400 N   0  0  0  0  0  2  0  0  0  0  0  0
  187.1310  176.2870  147.3860 C   0  0  0  0  0  3  0  0  0  0  0  0
  185.6530  179.9480  143.7080 O   0  0  0  0  0  0  0  0  0  0  0  0
  185.9450  179.4160  142.6500 C   0  0  0  0  0  3  0  0  0  0  0  0
  1  9  1  0  0  0  0
  2  3  1  0  0  0  0
  3  1  1  0  0  0  0
  3 29  1  1  0  0  0
  6  4  1  6  0  0  0
  6 17  1  0  0  0  0
  6 10  1  0  0  0  0
  9 20  2  0  0  0  0
 10 18  1  0  0  0  0
 10  2  2  0  0  0  0
 11 23  1  0  0  0  0
 11  1  2  0  0  0  0
 12  6  1  0  0  0  0
 13 16  1  0  0  0  0
 14  7  2  0  0  0  0
 15  5  1  6  0  0  0
 15 19  1  0  0  0  0
 15 23  1  0  0  0  0
 16  2  1  0  0  0  0
 17 31  1  1  0  0  0
 17 13  1  0  0  0  0
 18 11  1  0  0  0  0
 19  7  1  6  0  0  0
 19  8  1  0  0  0  0
 21  8  1  0  0  0  0
 21 20  1  0  0  0  0
 22  5  1  0  0  0  0
 22 14  1  0  0  0  0
 23 21  2  0  0  0  0
 24 14  1  0  0  0  0
 24 25  2  0  0  0  0
 26 24  1  0  0  0  0
 27 26  1  0  0  0  0
 29 28  2  0  0  0  0
 31 30  2  0  0  0  0
M  END
>  <MODEL>
2

>  <REMARK>
 VINA RESULT:      -8.1      2.813      8.196
  Name = 
  4 active torsions:
  status: ('A' for Active; 'I' for Inactive)
    1  A    between atoms: C_1  and  C_2
    2  A    between atoms: C_1  and  C_20
    3  A    between atoms: C_6  and  C_27
    4  A    between atoms: C_23  and  C_24
                            x       y       z     vdW  Elec       q    Type
                         _______ _______ _______ _____ _____    ______ ____

>  <TORSDO>
F 4

$$$$
=
 OpenBabel11062421263D

 31 35  0  0  1  0  0  0  0  0999 V2000
  191.4910  174.1320  141.7790 C   0  0  0  0  0  0  0  0  0  0  0  0
  193.7310  174.2720  142.8130 C   0  0  0  0  0  0  0  0  0  0  0  0
  192.7910  173.7550  141.7680 C   0  0  2  0  0  3  0  0  0  0  0  0
  193.9260  174.9450  145.8620 C   0  0  0  0  0  1  0  0  0  0  0  0
  188.9200  176.5100  144.9470 C   0  0  0  0  0  2  0  0  0  0  0  0
  194.3290  175.8010  144.6710 C   0  0  1  0  0  0  0  0  0  0  0  0
  186.5210  177.3170  143.4840 C   0  0  0  0  0  3  0  0  0  0  0  0
  187.4450  175.6890  141.6700 C   0  0  0  0  0  2  0  0  0  0  0  0
  190.5510  173.6680  140.7240 C   0  0  0  0  0  3  0  0  0  0  0  0
  193.4760  175.4210  143.4770 C   0  0  0  0  0  0  0  0  0  0  0  0
  190.9920  175.0680  142.8700 C   0  0  0  0  0  0  0  0  0  0  0  0
  194.1100  177.1380  145.0220 O   0  0  0  0  0  1  0  0  0  0  0  0
  196.1150  174.2630  143.5740 C   0  0  0  0  0  2  0  0  0  0  0  0
  186.7530  177.9450  144.6550 C   0  0  0  0  0  0  0  0  0  0  0  0
  188.8360  176.5380  143.4330 C   0  0  2  0  0  3  0  0  0  0  0  0
  194.8720  173.4160  143.2880 C   0  0  0  0  0  2  0  0  0  0  0  0
  195.8330  175.5570  144.3640 C   0  0  1  0  0  3  0  0  0  0  0  0
  192.1190  176.4890  142.9550 S   0  0  0  0  0  0  0  0  0  0  0  0
  187.4130  176.1900  143.1010 C   0  0  1  0  0  3  0  0  0  0  0  0
  189.2950  174.1180  140.6610 C   0  0  0  0  0  3  0  0  0  0  0  0
  188.8150  175.0910  141.6460 C   0  0  0  0  0  0  0  0  0  0  0  0
  187.9770  177.6020  145.5150 C   0  0  0  0  0  2  0  0  0  0  0  0
  189.5720  175.5180  142.6500 C   0  0  0  0  0  0  0  0  0  0  0  0
  185.8640  179.0400  145.0930 C   0  0  0  0  0  0  0  0  0  0  0  0
  185.6340  180.0070  144.3180 O   0  0  0  0  0  0  0  0  0  0  0  0
  185.2040  179.0230  146.4340 C   0  0  0  0  0  2  0  0  0  0  0  0
  184.3860  177.7540  146.5920 C   0  0  0  0  0  1  0  0  0  0  0  0
  194.0440  173.2320  139.7480 N   0  0  0  0  0  2  0  0  0  0  0  0
  193.2720  172.8390  140.7060 C   0  0  0  0  0  3  0  0  0  0  0  0
  196.4850  176.7150  142.4060 O   0  0  0  0  0  0  0  0  0  0  0  0
  196.4710  176.6950  143.6260 C   0  0  0  0  0  3  0  0  0  0  0  0
  1 11  1  0  0  0  0
  2 16  1  0  0  0  0
  2 10  2  0  0  0  0
  3 29  1  6  0  0  0
  3  1  1  0  0  0  0
  3  2  1  0  0  0  0
  5 22  1  0  0  0  0
  6 12  1  0  0  0  0
  6  4  1  1  0  0  0
  7 14  2  0  0  0  0
  9  1  2  0  0  0  0
 10  6  1  0  0  0  0
 11 18  1  0  0  0  0
 13 17  1  0  0  0  0
 14 24  1  0  0  0  0
 14 22  1  0  0  0  0
 15  5  1  1  0  0  0
 16 13  1  0  0  0  0
 17 31  1  6  0  0  0
 17  6  1  0  0  0  0
 18 10  1  0  0  0  0
 19  8  1  6  0  0  0
 19 15  1  0  0  0  0
 19  7  1  0  0  0  0
 20  9  1  0  0  0  0
 20 21  2  0  0  0  0
 21  8  1  0  0  0  0
 21 23  1  0  0  0  0
 23 11  2  0  0  0  0
 23 15  1  0  0  0  0
 24 26  1  0  0  0  0
 25 24  2  0  0  0  0
 26 27  1  0  0  0  0
 28 29  2  0  0  0  0
 30 31  2  0  0  0  0
M  END
>  <MODEL>
3

>  <REMARK>
 VINA RESULT:      -7.7      3.411      5.331
  Name = 
  4 active torsions:
  status: ('A' for Active; 'I' for Inactive)
    1  A    between atoms: C_1  and  C_2
    2  A    between atoms: C_1  and  C_20
    3  A    between atoms: C_6  and  C_27
    4  A    between atoms: C_23  and  C_24
                            x       y       z     vdW  Elec       q    Type
                         _______ _______ _______ _____ _____    ______ ____

>  <TORSDO>
F 4

$$$$
=
 OpenBabel11062421263D

 31 35  0  0  1  0  0  0  0  0999 V2000
  192.3690  174.1870  145.2070 C   0  0  0  0  0  0  0  0  0  0  0  0
  192.6260  172.5280  143.3930 C   0  0  0  0  0  0  0  0  0  0  0  0
  193.1310  173.2400  144.6100 C   0  0  2  0  0  3  0  0  0  0  0  0
  191.0570  172.9800  140.7250 C   0  0  0  0  0  1  0  0  0  0  0  0
  188.3510  176.2940  143.8950 C   0  0  0  0  0  2  0  0  0  0  0  0
  190.8400  171.9130  141.7870 C   0  0  1  0  0  0  0  0  0  0  0  0
  187.3540  177.5520  146.3380 C   0  0  0  0  0  3  0  0  0  0  0  0
  189.7100  176.9270  147.2630 C   0  0  0  0  0  2  0  0  0  0  0  0
  192.8300  174.8740  146.4430 C   0  0  0  0  0  3  0  0  0  0  0  0
  191.3030  172.4470  143.1280 C   0  0  0  0  0  0  0  0  0  0  0  0
  191.0090  174.5330  144.6190 C   0  0  0  0  0  0  0  0  0  0  0  0
  189.4710  171.6270  141.8220 O   0  0  0  0  0  1  0  0  0  0  0  0
  193.1540  170.7300  141.7360 C   0  0  0  0  0  2  0  0  0  0  0  0
  186.4770  177.4330  145.3210 C   0  0  0  0  0  0  0  0  0  0  0  0
  188.8160  175.9020  145.2850 C   0  0  2  0  0  3  0  0  0  0  0  0
  193.5920  172.0680  142.3370 C   0  0  0  0  0  2  0  0  0  0  0  0
  191.6520  170.6470  141.3970 C   0  0  1  0  0  3  0  0  0  0  0  0
  190.0970  172.9860  144.3560 S   0  0  0  0  0  0  0  0  0  0  0  0
  188.7700  177.1650  146.0970 C   0  0  1  0  0  3  0  0  0  0  0  0
  192.0450  175.7300  147.1010 C   0  0  0  0  0  3  0  0  0  0  0  0
  190.6940  176.0130  146.6070 C   0  0  0  0  0  0  0  0  0  0  0  0
  186.8870  176.7950  143.9860 C   0  0  0  0  0  2  0  0  0  0  0  0
  190.2220  175.4830  145.4840 C   0  0  0  0  0  0  0  0  0  0  0  0
  185.0720  177.8470  145.5070 C   0  0  0  0  0  0  0  0  0  0  0  0
  184.4300  177.4470  146.5140 O   0  0  0  0  0  0  0  0  0  0  0  0
  184.3900  178.7560  144.5350 C   0  0  0  0  0  2  0  0  0  0  0  0
  185.2610  179.9680  144.2620 C   0  0  0  0  0  1  0  0  0  0  0  0
  194.7020  171.7810  145.7610 N   0  0  0  0  0  2  0  0  0  0  0  0
  194.4580  172.9100  145.1830 C   0  0  0  0  0  3  0  0  0  0  0  0
  190.6540  168.5020  141.3140 O   0  0  0  0  0  0  0  0  0  0  0  0
  191.1110  169.3920  142.0130 C   0  0  0  0  0  3  0  0  0  0  0  0
  1  9  1  0  0  0  0
  2  3  1  0  0  0  0
  3 29  1  1  0  0  0
  3  1  1  0  0  0  0
  5 22  1  0  0  0  0
  6  4  1  6  0  0  0
  6 12  1  0  0  0  0
  6 10  1  0  0  0  0
  9 20  2  0  0  0  0
 10  2  2  0  0  0  0
 10 18  1  0  0  0  0
 11  1  2  0  0  0  0
 11 23  1  0  0  0  0
 13 16  1  0  0  0  0
 14 24  1  0  0  0  0
 14  7  2  0  0  0  0
 15  5  1  6  0  0  0
 15 23  1  0  0  0  0
 15 19  1  0  0  0  0
 16  2  1  0  0  0  0
 17 13  1  0  0  0  0
 17  6  1  0  0  0  0
 17 31  1  1  0  0  0
 18 11  1  0  0  0  0
 19  7  1  1  0  0  0
 19  8  1  0  0  0  0
 21 20  1  0  0  0  0
 21  8  1  0  0  0  0
 22 14  1  0  0  0  0
 23 21  2  0  0  0  0
 24 25  2  0  0  0  0
 26 24  1  0  0  0  0
 27 26  1  0  0  0  0
 29 28  2  0  0  0  0
 30 31  2  0  0  0  0
M  END
>  <MODEL>
4

>  <REMARK>
 VINA RESULT:      -7.6      2.881      4.726
  Name = 
  4 active torsions:
  status: ('A' for Active; 'I' for Inactive)
    1  A    between atoms: C_1  and  C_2
    2  A    between atoms: C_1  and  C_20
    3  A    between atoms: C_6  and  C_27
    4  A    between atoms: C_23  and  C_24
                            x       y       z     vdW  Elec       q    Type
                         _______ _______ _______ _____ _____    ______ ____

>  <TORSDO>
F 4

$$$$
=
 OpenBabel11062421263D

 31 35  0  0  1  0  0  0  0  0999 V2000
  189.4930  176.7490  146.3590 C   0  0  0  0  0  0  0  0  0  0  0  0
  187.5240  176.8270  144.8680 C   0  0  0  0  0  0  0  0  0  0  0  0
  188.1760  177.0230  146.2020 C   0  0  2  0  0  3  0  0  0  0  0  0
  187.4430  174.9020  142.4030 C   0  0  0  0  0  1  0  0  0  0  0  0
  192.6400  174.6440  143.5370 C   0  0  0  0  0  2  0  0  0  0  0  0
  187.5940  176.4160  142.4240 C   0  0  1  0  0  0  0  0  0  0  0  0
  195.2350  175.3390  144.6880 C   0  0  0  0  0  3  0  0  0  0  0  0
  193.7840  176.2090  146.6720 C   0  0  0  0  0  2  0  0  0  0  0  0
  190.1720  176.9810  147.6620 C   0  0  0  0  0  3  0  0  0  0  0  0
  188.2480  176.8310  143.7270 C   0  0  0  0  0  0  0  0  0  0  0  0
  190.2950  176.2230  145.1770 C   0  0  0  0  0  0  0  0  0  0  0  0
  188.4010  176.7720  141.3380 O   0  0  0  0  0  1  0  0  0  0  0  0
  185.3790  177.0870  143.6060 C   0  0  0  0  0  2  0  0  0  0  0  0
  195.2450  174.8510  143.4310 C   0  0  0  0  0  0  0  0  0  0  0  0
  192.8420  175.7950  144.5030 C   0  0  2  0  0  3  0  0  0  0  0  0
  186.0790  176.4170  144.7910 C   0  0  0  0  0  2  0  0  0  0  0  0
  186.1860  177.0610  142.2930 C   0  0  1  0  0  3  0  0  0  0  0  0
  189.9860  177.3110  143.7570 S   0  0  0  0  0  0  0  0  0  0  0  0
  193.9440  175.3580  145.4260 C   0  0  1  0  0  3  0  0  0  0  0  0
  191.4900  176.8180  147.8010 C   0  0  0  0  0  3  0  0  0  0  0  0
  192.3020  176.4000  146.6550 C   0  0  0  0  0  0  0  0  0  0  0  0
  193.9440  174.4450  142.7240 C   0  0  0  0  0  2  0  0  0  0  0  0
  191.7690  176.1230  145.4700 C   0  0  0  0  0  0  0  0  0  0  0  0
  196.5140  174.7740  142.6800 C   0  0  0  0  0  0  0  0  0  0  0  0
  197.0890  173.6620  142.5360 O   0  0  0  0  0  0  0  0  0  0  0  0
  197.1300  175.9870  142.0610 C   0  0  0  0  0  2  0  0  0  0  0  0
  196.0710  176.7890  141.3280 C   0  0  0  0  0  1  0  0  0  0  0  0
  186.6960  178.6130  147.2980 N   0  0  0  0  0  2  0  0  0  0  0  0
  187.3970  177.5290  147.3570 C   0  0  0  0  0  3  0  0  0  0  0  0
  186.1680  179.4180  142.5040 O   0  0  0  0  0  0  0  0  0  0  0  0
  186.2310  178.4590  141.7520 C   0  0  0  0  0  3  0  0  0  0  0  0
  1  9  1  0  0  0  0
  2  3  1  0  0  0  0
  3  1  1  0  0  0  0
  3 29  1  6  0  0  0
  6  4  1  1  0  0  0
  6 10  1  0  0  0  0
  9 20  2  0  0  0  0
 10 18  1  0  0  0  0
 10  2  2  0  0  0  0
 11 23  1  0  0  0  0
 11  1  2  0  0  0  0
 12  6  1  0  0  0  0
 13 16  1  0  0  0  0
 14  7  2  0  0  0  0
 15  5  1  6  0  0  0
 15 19  1  0  0  0  0
 15 23  1  0  0  0  0
 16  2  1  0  0  0  0
 17 31  1  1  0  0  0
 17  6  1  0  0  0  0
 17 13  1  0  0  0  0
 18 11  1  0  0  0  0
 19  7  1  6  0  0  0
 19  8  1  0  0  0  0
 21  8  1  0  0  0  0
 21 20  1  0  0  0  0
 22 14  1  0  0  0  0
 22  5  1  0  0  0  0
 23 21  2  0  0  0  0
 24 14  1  0  0  0  0
 25 24  2  0  0  0  0
 26 24  1  0  0  0  0
 27 26  1  0  0  0  0
 28 29  2  0  0  0  0
 31 30  2  0  0  0  0
M  END
>  <MODEL>
5

>  <REMARK>
 VINA RESULT:      -7.5      2.416      8.088
  Name = 
  4 active torsions:
  status: ('A' for Active; 'I' for Inactive)
    1  A    between atoms: C_1  and  C_2
    2  A    between atoms: C_1  and  C_20
    3  A    between atoms: C_6  and  C_27
    4  A    between atoms: C_23  and  C_24
                            x       y       z     vdW  Elec       q    Type
                         _______ _______ _______ _____ _____    ______ ____

>  <TORSDO>
F 4

$$$$
=
 OpenBabel11062421263D

 31 35  0  0  1  0  0  0  0  0999 V2000
  193.8870  175.5130  145.1630 C   0  0  0  0  0  0  0  0  0  0  0  0
  195.3220  174.7800  143.2890 C   0  0  0  0  0  0  0  0  0  0  0  0
  195.0550  174.9660  144.7520 C   0  0  2  0  0  3  0  0  0  0  0  0
  194.9600  176.1590  140.5050 C   0  0  0  0  0  1  0  0  0  0  0  0
  190.3840  177.6230  142.8000 C   0  0  0  0  0  2  0  0  0  0  0  0
  194.6180  174.7340  140.9130 C   0  0  1  0  0  0  0  0  0  0  0  0
  188.1530  177.6700  144.6890 C   0  0  0  0  0  3  0  0  0  0  0  0
  189.9760  176.9210  146.3960 C   0  0  0  0  0  2  0  0  0  0  0  0
  193.5810  175.6650  146.6100 C   0  0  0  0  0  3  0  0  0  0  0  0
  194.3110  174.7040  142.3970 C   0  0  0  0  0  0  0  0  0  0  0  0
  192.8620  175.9540  144.1280 C   0  0  0  0  0  0  0  0  0  0  0  0
  193.4960  174.3440  140.1740 O   0  0  0  0  0  1  0  0  0  0  0  0
  196.9660  173.8800  141.6310 C   0  0  0  0  0  2  0  0  0  0  0  0
  187.8530  177.9080  143.3960 C   0  0  0  0  0  0  0  0  0  0  0  0
  190.3110  176.7330  144.0260 C   0  0  2  0  0  3  0  0  0  0  0  0
  196.7280  174.8820  142.7640 C   0  0  0  0  0  2  0  0  0  0  0  0
  195.8300  173.8160  140.5900 C   0  0  1  0  0  3  0  0  0  0  0  0
  192.6040  174.5820  142.9680 S   0  0  0  0  0  0  0  0  0  0  0  0
  189.5860  177.5390  145.0670 C   0  0  1  0  0  3  0  0  0  0  0  0
  192.3920  176.1020  147.0300 C   0  0  0  0  0  3  0  0  0  0  0  0
  191.3520  176.4470  146.0560 C   0  0  0  0  0  0  0  0  0  0  0  0
  188.9420  177.9150  142.3130 C   0  0  0  0  0  2  0  0  0  0  0  0
  191.5590  176.3910  144.7460 C   0  0  0  0  0  0  0  0  0  0  0  0
  186.4460  178.0870  142.9860 C   0  0  0  0  0  0  0  0  0  0  0  0
  186.1370  178.0330  141.7660 O   0  0  0  0  0  0  0  0  0  0  0  0
  185.3620  178.3090  143.9920 C   0  0  0  0  0  2  0  0  0  0  0  0
  185.2070  179.7930  144.2660 C   0  0  0  0  0  1  0  0  0  0  0  0
  196.3710  173.3050  145.9460 N   0  0  0  0  0  2  0  0  0  0  0  0
  196.0540  174.5430  145.7620 C   0  0  0  0  0  3  0  0  0  0  0  0
  195.3080  171.6490  141.3860 O   0  0  0  0  0  0  0  0  0  0  0  0
  195.4440  172.3780  140.4170 C   0  0  0  0  0  3  0  0  0  0  0  0
  1  9  1  0  0  0  0
  2  3  1  0  0  0  0
  3  1  1  0  0  0  0
  3 29  1  1  0  0  0
  6  4  1  6  0  0  0
  6 10  1  0  0  0  0
  9 20  2  0  0  0  0
 10 18  1  0  0  0  0
 10  2  2  0  0  0  0
 11 23  1  0  0  0  0
 11  1  2  0  0  0  0
 12  6  1  0  0  0  0
 13 16  1  0  0  0  0
 14  7  2  0  0  0  0
 15  5  1  6  0  0  0
 15 23  1  0  0  0  0
 15 19  1  0  0  0  0
 16  2  1  0  0  0  0
 17 31  1  1  0  0  0
 17  6  1  0  0  0  0
 17 13  1  0  0  0  0
 18 11  1  0  0  0  0
 19  7  1  6  0  0  0
 19  8  1  0  0  0  0
 21  8  1  0  0  0  0
 21 20  1  0  0  0  0
 22  5  1  0  0  0  0
 22 14  1  0  0  0  0
 23 21  2  0  0  0  0
 24 14  1  0  0  0  0
 24 26  1  0  0  0  0
 25 24  2  0  0  0  0
 26 27  1  0  0  0  0
 29 28  2  0  0  0  0
 31 30  2  0  0  0  0
M  END
>  <MODEL>
6

>  <REMARK>
 VINA RESULT:      -7.4      2.816      4.635
  Name = 
  4 active torsions:
  status: ('A' for Active; 'I' for Inactive)
    1  A    between atoms: C_1  and  C_2
    2  A    between atoms: C_1  and  C_20
    3  A    between atoms: C_6  and  C_27
    4  A    between atoms: C_23  and  C_24
                            x       y       z     vdW  Elec       q    Type
                         _______ _______ _______ _____ _____    ______ ____

>  <TORSDO>
F 4

$$$$
=
 OpenBabel11062421263D

 31 35  0  0  1  0  0  0  0  0999 V2000
  190.7560  175.8920  145.3320 C   0  0  0  0  0  0  0  0  0  0  0  0
  192.1950  174.2570  144.1640 C   0  0  0  0  0  0  0  0  0  0  0  0
  191.8470  175.0910  145.3590 C   0  0  2  0  0  3  0  0  0  0  0  0
  192.2860  174.3150  141.0380 C   0  0  0  0  0  1  0  0  0  0  0  0
  187.8450  177.1450  141.8300 C   0  0  0  0  0  2  0  0  0  0  0  0
  191.6830  173.2600  141.9530 C   0  0  1  0  0  0  0  0  0  0  0  0
  185.5100  178.2640  143.1860 C   0  0  0  0  0  3  0  0  0  0  0  0
  187.0440  178.1330  145.2900 C   0  0  0  0  0  2  0  0  0  0  0  0
  190.3650  176.6930  146.5220 C   0  0  0  0  0  3  0  0  0  0  0  0
  191.2580  173.9150  143.2520 C   0  0  0  0  0  0  0  0  0  0  0  0
  189.9020  175.9510  144.0730 C   0  0  0  0  0  0  0  0  0  0  0  0
  190.5740  172.7170  141.2950 O   0  0  0  0  0  1  0  0  0  0  0  0
  193.7940  172.5430  143.2890 C   0  0  0  0  0  2  0  0  0  0  0  0
  185.3560  177.9470  141.8840 C   0  0  0  0  0  0  0  0  0  0  0  0
  187.5300  176.8930  143.2920 C   0  0  2  0  0  3  0  0  0  0  0  0
  193.6350  173.9580  143.8510 C   0  0  0  0  0  2  0  0  0  0  0  0
  192.7490  172.1610  142.2210 C   0  0  1  0  0  3  0  0  0  0  0  0
  189.5150  174.2500  143.5720 S   0  0  0  0  0  0  0  0  0  0  0  0
  186.8670  178.1490  143.7830 C   0  0  1  0  0  3  0  0  0  0  0  0
  189.2340  177.4020  146.5460 C   0  0  0  0  0  3  0  0  0  0  0  0
  188.3460  177.4040  145.3800 C   0  0  0  0  0  0  0  0  0  0  0  0
  186.5130  177.3570  141.0660 C   0  0  0  0  0  2  0  0  0  0  0  0
  188.6440  176.7590  144.2580 C   0  0  0  0  0  0  0  0  0  0  0  0
  184.0340  178.0890  141.2420 C   0  0  0  0  0  0  0  0  0  0  0  0
  183.9250  177.9440  139.9940 O   0  0  0  0  0  0  0  0  0  0  0  0
  182.8050  178.3790  142.0400 C   0  0  0  0  0  2  0  0  0  0  0  0
  181.5840  178.3550  141.1400 C   0  0  0  0  0  1  0  0  0  0  0  0
  193.6860  175.8270  146.7720 N   0  0  0  0  0  2  0  0  0  0  0  0
  192.6790  175.0400  146.5850 C   0  0  0  0  0  3  0  0  0  0  0  0
  192.3880  170.3530  143.7050 O   0  0  0  0  0  0  0  0  0  0  0  0
  192.1480  170.8460  142.6150 C   0  0  0  0  0  3  0  0  0  0  0  0
  1  3  1  0  0  0  0
  1  9  1  0  0  0  0
  2  3  1  0  0  0  0
  3 29  1  1  0  0  0
  6  4  1  6  0  0  0
  6 17  1  0  0  0  0
  6 10  1  0  0  0  0
  8 21  1  0  0  0  0
  9 20  2  0  0  0  0
 10 18  1  0  0  0  0
 10  2  2  0  0  0  0
 11 23  1  0  0  0  0
 11  1  2  0  0  0  0
 12  6  1  0  0  0  0
 13 16  1  0  0  0  0
 14  7  2  0  0  0  0
 15  5  1  6  0  0  0
 15 19  1  0  0  0  0
 15 23  1  0  0  0  0
 16  2  1  0  0  0  0
 17 31  1  1  0  0  0
 17 13  1  0  0  0  0
 18 11  1  0  0  0  0
 19  7  1  1  0  0  0
 19  8  1  0  0  0  0
 21 20  1  0  0  0  0
 22  5  1  0  0  0  0
 22 14  1  0  0  0  0
 23 21  2  0  0  0  0
 24 14  1  0  0  0  0
 24 26  1  0  0  0  0
 25 24  2  0  0  0  0
 27 26  1  0  0  0  0
 29 28  2  0  0  0  0
 31 30  2  0  0  0  0
M  END
>  <MODEL>
7

>  <REMARK>
 VINA RESULT:      -7.1      1.544      2.217
  Name = 
  4 active torsions:
  status: ('A' for Active; 'I' for Inactive)
    1  A    between atoms: C_1  and  C_2
    2  A    between atoms: C_1  and  C_20
    3  A    between atoms: C_6  and  C_27
    4  A    between atoms: C_23  and  C_24
                            x       y       z     vdW  Elec       q    Type
                         _______ _______ _______ _____ _____    ______ ____

>  <TORSDO>
F 4

$$$$
=
 OpenBabel11062421263D

 31 35  0  0  1  0  0  0  0  0999 V2000
  192.1100  176.3100  145.7060 C   0  0  0  0  0  0  0  0  0  0  0  0
  189.6760  176.4660  145.3070 C   0  0  0  0  0  0  0  0  0  0  0  0
  190.8700  176.5210  146.2090 C   0  0  2  0  0  3  0  0  0  0  0  0
  188.4560  174.8910  142.8940 C   0  0  0  0  0  1  0  0  0  0  0  0
  193.5900  174.8050  141.4810 C   0  0  0  0  0  2  0  0  0  0  0  0
  188.6110  176.3940  143.0690 C   0  0  1  0  0  0  0  0  0  0  0  0
  196.4290  175.4990  141.4120 C   0  0  0  0  0  3  0  0  0  0  0  0
  196.0590  176.0000  143.9430 C   0  0  0  0  0  2  0  0  0  0  0  0
  193.3140  176.4050  146.5740 C   0  0  0  0  0  3  0  0  0  0  0  0
  189.7940  176.6690  143.9760 C   0  0  0  0  0  0  0  0  0  0  0  0
  192.2740  176.0000  144.2250 C   0  0  0  0  0  0  0  0  0  0  0  0
  188.8300  176.9440  141.8010 O   0  0  0  0  0  1  0  0  0  0  0  0
  187.1930  176.7610  145.2170 C   0  0  0  0  0  2  0  0  0  0  0  0
  195.8550  175.1860  140.2320 C   0  0  0  0  0  0  0  0  0  0  0  0
  194.2220  175.8260  142.4080 C   0  0  2  0  0  3  0  0  0  0  0  0
  188.3550  175.9810  145.8370 C   0  0  0  0  0  2  0  0  0  0  0  0
  187.3050  176.9630  143.6920 C   0  0  1  0  0  3  0  0  0  0  0  0
  191.3550  177.2480  143.2810 S   0  0  0  0  0  0  0  0  0  0  0  0
  195.6220  175.3380  142.6510 C   0  0  1  0  0  3  0  0  0  0  0  0
  194.5470  176.3080  146.0710 C   0  0  0  0  0  3  0  0  0  0  0  0
  194.7370  176.1000  144.6320 C   0  0  0  0  0  0  0  0  0  0  0  0
  194.3730  174.8000  140.1430 C   0  0  0  0  0  2  0  0  0  0  0  0
  193.7170  175.9530  143.7940 C   0  0  0  0  0  0  0  0  0  0  0  0
  196.6360  175.2910  138.9820 C   0  0  0  0  0  0  0  0  0  0  0  0
  197.8230  175.7140  139.0200 O   0  0  0  0  0  0  0  0  0  0  0  0
  196.0610  174.8820  137.6650 C   0  0  0  0  0  2  0  0  0  0  0  0
  196.7100  175.6760  136.5470 C   0  0  0  0  0  1  0  0  0  0  0  0
  190.3480  177.9770  148.0860 N   0  0  0  0  0  2  0  0  0  0  0  0
  190.7140  176.8170  147.6530 C   0  0  0  0  0  3  0  0  0  0  0  0
  186.1730  178.7970  142.7140 O   0  0  0  0  0  0  0  0  0  0  0  0
  187.1060  178.4210  143.4050 C   0  0  0  0  0  3  0  0  0  0  0  0
  1  3  1  0  0  0  0
  1  9  1  0  0  0  0
  2 16  1  0  0  0  0
  2  3  1  0  0  0  0
  3 29  1  6  0  0  0
  6  4  1  6  0  0  0
  6 17  1  0  0  0  0
  6 10  1  0  0  0  0
  8 21  1  0  0  0  0
 10  2  2  0  0  0  0
 11  1  2  0  0  0  0
 12  6  1  0  0  0  0
 13 16  1  0  0  0  0
 14  7  2  0  0  0  0
 15  5  1  6  0  0  0
 15 19  1  0  0  0  0
 15 23  1  0  0  0  0
 17 31  1  1  0  0  0
 17 13  1  0  0  0  0
 18 10  1  0  0  0  0
 18 11  1  0  0  0  0
 19  7  1  6  0  0  0
 19  8  1  0  0  0  0
 20  9  2  0  0  0  0
 21 20  1  0  0  0  0
 22 14  1  0  0  0  0
 22  5  1  0  0  0  0
 23 11  1  0  0  0  0
 23 21  2  0  0  0  0
 24 25  2  0  0  0  0
 24 14  1  0  0  0  0
 26 24  1  0  0  0  0
 27 26  1  0  0  0  0
 29 28  2  0  0  0  0
 30 31  2  0  0  0  0
M  END
>  <MODEL>
8

>  <REMARK>
 VINA RESULT:      -7.1      3.343      8.405
  Name = 
  4 active torsions:
  status: ('A' for Active; 'I' for Inactive)
    1  A    between atoms: C_1  and  C_2
    2  A    between atoms: C_1  and  C_20
    3  A    between atoms: C_6  and  C_27
    4  A    between atoms: C_23  and  C_24
                            x       y       z     vdW  Elec       q    Type
                         _______ _______ _______ _____ _____    ______ ____

>  <TORSDO>
F 4

$$$$
=
 OpenBabel11062421263D

 31 35  0  0  1  0  0  0  0  0999 V2000
  193.1590  174.9510  145.0760 C   0  0  0  0  0  0  0  0  0  0  0  0
  194.1250  173.6520  143.2090 C   0  0  0  0  0  0  0  0  0  0  0  0
  194.1500  174.1480  144.6230 C   0  0  2  0  0  3  0  0  0  0  0  0
  193.4630  174.5310  140.2810 C   0  0  0  0  0  1  0  0  0  0  0  0
  189.6100  177.1460  142.8640 C   0  0  0  0  0  2  0  0  0  0  0  0
  193.0090  173.2850  141.0260 C   0  0  1  0  0  0  0  0  0  0  0  0
  187.7780  177.9170  145.0070 C   0  0  0  0  0  3  0  0  0  0  0  0
  189.7570  177.2030  146.5470 C   0  0  0  0  0  2  0  0  0  0  0  0
  193.1380  175.4180  146.4880 C   0  0  0  0  0  3  0  0  0  0  0  0
  192.9690  173.5830  142.5120 C   0  0  0  0  0  0  0  0  0  0  0  0
  192.0350  175.3590  144.1340 C   0  0  0  0  0  0  0  0  0  0  0  0
  191.7310  172.9590  140.5600 O   0  0  0  0  0  1  0  0  0  0  0  0
  195.3090  172.1950  141.5550 C   0  0  0  0  0  2  0  0  0  0  0  0
  187.2880  177.9580  143.7520 C   0  0  0  0  0  0  0  0  0  0  0  0
  189.6360  176.5240  144.2470 C   0  0  2  0  0  3  0  0  0  0  0  0
  195.4140  173.4160  142.4730 C   0  0  0  0  0  2  0  0  0  0  0  0
  194.0080  172.1320  140.7290 C   0  0  1  0  0  3  0  0  0  0  0  0
  191.3910  173.8590  143.3410 S   0  0  0  0  0  0  0  0  0  0  0  0
  189.2240  177.6200  145.1900 C   0  0  1  0  0  3  0  0  0  0  0  0
  192.1130  176.1200  146.9770 C   0  0  0  0  0  3  0  0  0  0  0  0
  190.9730  176.4490  146.1160 C   0  0  0  0  0  0  0  0  0  0  0  0
  188.1570  177.5810  142.5440 C   0  0  0  0  0  2  0  0  0  0  0  0
  190.9340  176.1160  144.8310 C   0  0  0  0  0  0  0  0  0  0  0  0
  185.8670  178.2930  143.5260 C   0  0  0  0  0  0  0  0  0  0  0  0
  185.1590  177.5520  142.7930 O   0  0  0  0  0  0  0  0  0  0  0  0
  185.2340  179.4860  144.1670 C   0  0  0  0  0  2  0  0  0  0  0  0
  184.2740  179.0410  145.2540 C   0  0  0  0  0  1  0  0  0  0  0  0
  196.3180  174.4650  145.6810 N   0  0  0  0  0  2  0  0  0  0  0  0
  195.2460  173.7580  145.5410 C   0  0  0  0  0  3  0  0  0  0  0  0
  193.5800  170.1570  141.9610 O   0  0  0  0  0  0  0  0  0  0  0  0
  193.4060  170.7720  140.9220 C   0  0  0  0  0  3  0  0  0  0  0  0
  1  9  1  0  0  0  0
  2  3  1  0  0  0  0
  3  1  1  0  0  0  0
  3 29  1  1  0  0  0
  6  4  1  6  0  0  0
  6 10  1  0  0  0  0
  9 20  2  0  0  0  0
 10  2  2  0  0  0  0
 10 18  1  0  0  0  0
 11 23  1  0  0  0  0
 11  1  2  0  0  0  0
 12  6  1  0  0  0  0
 13 16  1  0  0  0  0
 14  7  2  0  0  0  0
 15  5  1  6  0  0  0
 15 23  1  0  0  0  0
 15 19  1  0  0  0  0
 16  2  1  0  0  0  0
 17 31  1  1  0  0  0
 17  6  1  0  0  0  0
 17 13  1  0  0  0  0
 18 11  1  0  0  0  0
 19  7  1  1  0  0  0
 19  8  1  0  0  0  0
 21  8  1  0  0  0  0
 21 20  1  0  0  0  0
 22  5  1  0  0  0  0
 22 14  1  0  0  0  0
 23 21  2  0  0  0  0
 24 14  1  0  0  0  0
 24 26  1  0  0  0  0
 25 24  2  0  0  0  0
 26 27  1  0  0  0  0
 29 28  2  0  0  0  0
 31 30  2  0  0  0  0
M  END
>  <MODEL>
9

>  <REMARK>
 VINA RESULT:      -7.0      2.521      4.312
  Name = 
  4 active torsions:
  status: ('A' for Active; 'I' for Inactive)
    1  A    between atoms: C_1  and  C_2
    2  A    between atoms: C_1  and  C_20
    3  A    between atoms: C_6  and  C_27
    4  A    between atoms: C_23  and  C_24
                            x       y       z     vdW  Elec       q    Type
                         _______ _______ _______ _____ _____    ______ ____

>  <TORSDO>
F 4

$$$$
