=
 OpenBabel11062422163D

 44 46  0  0  1  0  0  0  0  0999 V2000
  192.6370  175.5640  145.0520 C   0  0  0  0  0  2  0  0  0  0  0  0
  194.2990  177.0730  145.6850 C   0  0  0  0  0  1  0  0  0  0  0  0
  194.0280  175.6570  145.4710 N   0  0  0  0  0  0  0  0  0  0  0  0
  194.8310  175.2620  144.3210 C   0  0  0  0  0  2  0  0  0  0  0  0
  197.2580  174.2750  143.8900 O   0  0  0  0  0  0  0  0  0  0  0  0
  196.4310  174.2380  146.1980 O   0  0  0  0  0  0  0  0  0  0  0  0
  196.0510  174.0340  144.7590 S   0  0  0  0  0  0  0  0  0  0  0  0
  195.4580  172.3490  144.5200 C   0  0  1  0  0  3  0  0  0  0  0  0
  192.8130  170.8610  144.6840 F   0  0  0  0  0  0  0  0  0  0  0  0
  191.9020  172.0300  142.8510 C   0  0  0  0  0  0  0  0  0  0  0  0
  194.5970  172.6050  142.2640 C   0  0  0  0  0  3  0  0  0  0  0  0
  192.3130  172.3770  141.5200 N   0  0  0  0  0  0  0  0  0  0  0  0
  194.3130  172.3330  143.5440 C   0  0  0  0  0  0  0  0  0  0  0  0
  193.5490  172.6430  141.2320 C   0  0  0  0  0  3  0  0  0  0  0  0
  192.8880  172.0580  143.9910 C   0  0  2  0  0  3  0  0  0  0  0  0
  190.6920  171.7780  143.0870 O   0  0  0  0  0  0  0  0  0  0  0  0
  196.7980  170.1230  144.8230 C   0  0  1  0  0  3  0  0  0  0  0  0
  196.6080  171.4250  144.0980 C   0  0  2  0  0  3  0  0  0  0  0  0
  197.4830  171.2930  145.1920 O   0  0  0  0  0  0  0  0  0  0  0  0
  196.3860  169.3710  147.0190 C   0  0  0  0  0  1  0  0  0  0  0  0
  195.7430  169.8180  145.7890 N   0  0  0  0  0  0  0  0  0  0  0  0
  195.0980  168.7280  145.3070 O   0  0  0  0  0  1  0  0  0  0  0  0
  192.5360  175.7360  143.5470 C   0  0  0  0  0  2  0  0  0  0  0  0
  189.9280  175.7880  143.1550 C   0  0  0  0  0  2  0  0  0  0  0  0
  189.0040  176.9080  142.9450 N   0  0  0  0  0  0  0  0  0  0  0  0
  189.8570  177.9870  142.6690 N   0  0  0  0  0  2  0  0  0  0  0  0
  191.2690  176.4340  143.1960 C   0  0  0  0  0  0  0  0  0  0  0  0
  191.1960  177.6770  142.8940 N   0  0  0  0  0  0  0  0  0  0  0  0
  188.2580  176.6520  141.7860 N   0  0  0  0  0  2  0  0  0  0  0  0
  186.9860  177.6640  140.1220 O   0  0  0  0  0  0  0  0  0  0  0  0
  187.2700  177.5850  141.3440 C   0  0  0  0  0  0  0  0  0  0  0  0
  186.6410  178.4430  142.2560 O   0  0  0  0  0  0  0  0  0  0  0  0
  185.7000  177.9500  143.2020 C   0  0  2  0  0  3  0  0  0  0  0  0
  184.4250  177.9390  142.6280 O   0  0  0  0  0  1  0  0  0  0  0  0
  185.1360  180.0510  144.2320 O   0  0  0  0  0  1  0  0  0  0  0  0
  185.7080  178.7980  144.4730 C   0  0  1  0  0  3  0  0  0  0  0  0
  183.9000  178.4630  145.9890 O   0  0  0  0  0  0  0  0  0  0  0  0
  184.9970  178.0790  145.5970 C   0  0  0  0  0  0  0  0  0  0  0  0
  185.5930  176.8420  146.1940 C   0  0  0  0  0  2  0  0  0  0  0  0
  187.9200  176.1410  146.5120 C   0  0  0  0  0  3  0  0  0  0  0  0
  187.0120  177.1140  146.5670 C   0  0  0  0  0  3  0  0  0  0  0  0
  189.3350  176.4110  146.7950 C   0  0  0  0  0  0  0  0  0  0  0  0
  190.0720  175.4890  147.5250 O   0  0  0  0  0  1  0  0  0  0  0  0
  189.9030  177.4470  146.3440 O   0  0  0  0  0  0  0  0  0  0  0  0
  1  3  1  0  0  0  0
  3  2  1  0  0  0  0
  4  7  1  0  0  0  0
  4  3  1  0  0  0  0
  5  7  2  0  0  0  0
  7  6  2  0  0  0  0
  8  7  1  6  0  0  0
 10 16  2  0  0  0  0
 10 15  1  0  0  0  0
 11 13  2  0  0  0  0
 12 10  1  0  0  0  0
 13 15  1  0  0  0  0
 13  8  1  0  0  0  0
 14 12  2  0  0  0  0
 14 11  1  0  0  0  0
 15  9  1  6  0  0  0
 17 19  1  0  0  0  0
 17 21  1  1  0  0  0
 18  8  1  1  0  0  0
 18 17  1  0  0  0  0
 18 19  1  0  0  0  0
 21 20  1  0  0  0  0
 22 21  1  0  0  0  0
 23  1  1  0  0  0  0
 24 27  1  0  0  0  0
 25 24  1  0  0  0  0
 26 28  1  0  0  0  0
 26 25  1  0  0  0  0
 27 23  1  0  0  0  0
 28 27  2  0  0  0  0
 29 25  1  0  0  0  0
 30 31  2  0  0  0  0
 31 29  1  0  0  0  0
 31 32  1  0  0  0  0
 32 33  1  0  0  0  0
 33 34  1  6  0  0  0
 33 36  1  0  0  0  0
 36 35  1  6  0  0  0
 36 38  1  0  0  0  0
 38 37  2  0  0  0  0
 38 39  1  0  0  0  0
 39 41  1  0  0  0  0
 40 41  2  0  0  0  0
 40 42  1  0  0  0  0
 42 43  1  0  0  0  0
 44 42  2  0  0  0  0
M  END
>  <MODEL>
1

>  <REMARK>
 VINA RESULT:      -6.3      0.000      0.000
  Name = 
  17 active torsions:
  status: ('A' for Active; 'I' for Inactive)
    1  A    between atoms: C_3  and  N_13
    2  A    between atoms: C_3  and  S_24
    3  A    between atoms: C_8  and  C_20
    4  A    between atoms: C_8  and  C_43
    5  A    between atoms: C_11  and  O_21
    6  A    between atoms: C_11  and  C_40
    7  A    between atoms: N_13  and  C_37
    8  A    between atoms: C_15  and  C_27
    9  A    between atoms: C_16  and  N_23
   10  A    between atoms: N_17  and  N_25
   11  A    between atoms: C_18  and  C_22
   12  A    between atoms: C_20  and  C_40
   13  A    between atoms: O_21  and  C_36
   14  A    between atoms: S_24  and  C_27
   15  A    between atoms: C_27  and  C_29
   16  A    between atoms: C_31  and  C_39
   17  A    between atoms: C_37  and  C_39
                            x       y       z     vdW  Elec       q    Type
                         _______ _______ _______ _____ _____    ______ ____

>  <TORSDO>
F 17

$$$$
=
 OpenBabel11062422163D

 44 46  0  0  1  0  0  0  0  0999 V2000
  190.9760  173.1880  142.5240 C   0  0  0  0  0  2  0  0  0  0  0  0
  191.0270  173.3350  140.1970 C   0  0  0  0  0  1  0  0  0  0  0  0
  191.8510  173.4580  141.3930 N   0  0  0  0  0  0  0  0  0  0  0  0
  192.8060  172.3590  141.3390 C   0  0  0  0  0  2  0  0  0  0  0  0
  195.3800  171.7250  141.4870 O   0  0  0  0  0  0  0  0  0  0  0  0
  194.8260  173.9330  140.5770 O   0  0  0  0  0  0  0  0  0  0  0  0
  194.4750  172.9210  141.6320 S   0  0  0  0  0  0  0  0  0  0  0  0
  194.6880  173.6490  143.2660 C   0  0  1  0  0  3  0  0  0  0  0  0
  193.4070  172.1240  145.5620 F   0  0  0  0  0  0  0  0  0  0  0  0
  195.2720  170.7080  145.8240 C   0  0  0  0  0  0  0  0  0  0  0  0
  196.6260  172.7290  144.4020 C   0  0  0  0  0  3  0  0  0  0  0  0
  196.6970  170.8590  145.9250 N   0  0  0  0  0  0  0  0  0  0  0  0
  195.3040  172.6480  144.2060 C   0  0  0  0  0  0  0  0  0  0  0  0
  197.3350  171.7840  145.2790 C   0  0  0  0  0  3  0  0  0  0  0  0
  194.4750  171.5690  144.8770 C   0  0  2  0  0  3  0  0  0  0  0  0
  194.6920  169.7970  146.4690 O   0  0  0  0  0  0  0  0  0  0  0  0
  195.1520  176.0810  144.1090 C   0  0  1  0  0  3  0  0  0  0  0  0
  195.4930  174.9520  143.1790 C   0  0  2  0  0  3  0  0  0  0  0  0
  194.6090  175.9850  142.8170 O   0  0  0  0  0  0  0  0  0  0  0  0
  193.1750  176.8270  145.1520 C   0  0  0  0  0  1  0  0  0  0  0  0
  194.1490  175.7420  145.1170 N   0  0  0  0  0  0  0  0  0  0  0  0
  194.7850  175.7940  146.3120 O   0  0  0  0  0  1  0  0  0  0  0  0
  190.9860  174.3670  143.4800 C   0  0  0  0  0  2  0  0  0  0  0  0
  188.5270  175.1830  142.9840 C   0  0  0  0  0  2  0  0  0  0  0  0
  187.9950  176.5150  142.6700 N   0  0  0  0  0  0  0  0  0  0  0  0
  189.1430  177.2600  142.3610 N   0  0  0  0  0  2  0  0  0  0  0  0
  190.0010  175.3920  143.0380 C   0  0  0  0  0  0  0  0  0  0  0  0
  190.3180  176.5730  142.6570 N   0  0  0  0  0  0  0  0  0  0  0  0
  187.2280  176.4160  141.5010 N   0  0  0  0  0  2  0  0  0  0  0  0
  186.2000  177.6680  139.8310 O   0  0  0  0  0  0  0  0  0  0  0  0
  186.4480  177.5280  141.0560 C   0  0  0  0  0  0  0  0  0  0  0  0
  185.9880  178.4870  141.9670 O   0  0  0  0  0  0  0  0  0  0  0  0
  185.1330  178.1280  143.0450 C   0  0  2  0  0  3  0  0  0  0  0  0
  183.8040  178.3840  142.6890 O   0  0  0  0  0  1  0  0  0  0  0  0
  185.1870  180.2490  144.1820 O   0  0  0  0  0  1  0  0  0  0  0  0
  185.5030  178.8930  144.3150 C   0  0  1  0  0  3  0  0  0  0  0  0
  183.7690  178.7570  145.9440 O   0  0  0  0  0  0  0  0  0  0  0  0
  184.8190  178.2880  145.5200 C   0  0  0  0  0  0  0  0  0  0  0  0
  185.3810  177.0580  146.1640 C   0  0  0  0  0  2  0  0  0  0  0  0
  187.6180  176.2330  146.7350 C   0  0  0  0  0  3  0  0  0  0  0  0
  186.8660  177.0620  146.0120 C   0  0  0  0  0  3  0  0  0  0  0  0
  189.0710  176.1670  146.5380 C   0  0  0  0  0  0  0  0  0  0  0  0
  189.7490  177.2890  146.0850 O   0  0  0  0  0  0  0  0  0  0  0  0
  189.7190  175.1180  146.8230 O   0  0  0  0  0  1  0  0  0  0  0  0
  1 23  1  0  0  0  0
  2  3  1  0  0  0  0
  3  1  1  0  0  0  0
  4  3  1  0  0  0  0
  4  7  1  0  0  0  0
  5  7  2  0  0  0  0
  6  7  2  0  0  0  0
  8  7  1  6  0  0  0
  8 13  1  0  0  0  0
 10 12  1  0  0  0  0
 10 16  2  0  0  0  0
 11 14  1  0  0  0  0
 13 11  2  0  0  0  0
 13 15  1  0  0  0  0
 14 12  2  0  0  0  0
 15  9  1  1  0  0  0
 15 10  1  0  0  0  0
 17 21  1  1  0  0  0
 18  8  1  1  0  0  0
 18 17  1  0  0  0  0
 19 18  1  0  0  0  0
 19 17  1  0  0  0  0
 21 20  1  0  0  0  0
 21 22  1  0  0  0  0
 24 27  1  0  0  0  0
 25 24  1  0  0  0  0
 26 28  1  0  0  0  0
 26 25  1  0  0  0  0
 27 23  1  0  0  0  0
 28 27  2  0  0  0  0
 29 25  1  0  0  0  0
 30 31  2  0  0  0  0
 31 29  1  0  0  0  0
 31 32  1  0  0  0  0
 32 33  1  0  0  0  0
 33 34  1  6  0  0  0
 33 36  1  0  0  0  0
 36 35  1  6  0  0  0
 36 38  1  0  0  0  0
 38 37  2  0  0  0  0
 38 39  1  0  0  0  0
 41 39  1  0  0  0  0
 41 40  2  0  0  0  0
 42 40  1  0  0  0  0
 42 44  1  0  0  0  0
 43 42  2  0  0  0  0
M  END
>  <MODEL>
2

>  <REMARK>
 VINA RESULT:      -6.2      1.620      3.707
  Name = 
  17 active torsions:
  status: ('A' for Active; 'I' for Inactive)
    1  A    between atoms: C_3  and  N_13
    2  A    between atoms: C_3  and  S_24
    3  A    between atoms: C_8  and  C_20
    4  A    between atoms: C_8  and  C_43
    5  A    between atoms: C_11  and  O_21
    6  A    between atoms: C_11  and  C_40
    7  A    between atoms: N_13  and  C_37
    8  A    between atoms: C_15  and  C_27
    9  A    between atoms: C_16  and  N_23
   10  A    between atoms: N_17  and  N_25
   11  A    between atoms: C_18  and  C_22
   12  A    between atoms: C_20  and  C_40
   13  A    between atoms: O_21  and  C_36
   14  A    between atoms: S_24  and  C_27
   15  A    between atoms: C_27  and  C_29
   16  A    between atoms: C_31  and  C_39
   17  A    between atoms: C_37  and  C_39
                            x       y       z     vdW  Elec       q    Type
                         _______ _______ _______ _____ _____    ______ ____

>  <TORSDO>
F 17

$$$$
=
 OpenBabel11062422163D

 44 46  0  0  1  0  0  0  0  0999 V2000
  192.7890  171.1630  140.9520 C   0  0  0  0  0  2  0  0  0  0  0  0
  194.2550  172.9750  141.0180 C   0  0  0  0  0  1  0  0  0  0  0  0
  193.2200  172.2830  141.7750 N   0  0  0  0  0  0  0  0  0  0  0  0
  193.8870  171.7080  142.9360 C   0  0  0  0  0  2  0  0  0  0  0  0
  191.9230  172.5720  144.5000 O   0  0  0  0  0  0  0  0  0  0  0  0
  193.9510  171.7500  145.6060 O   0  0  0  0  0  0  0  0  0  0  0  0
  193.4280  172.5460  144.4430 S   0  0  0  0  0  0  0  0  0  0  0  0
  194.0670  174.2300  144.5250 C   0  0  1  0  0  3  0  0  0  0  0  0
  192.9230  176.8610  143.5230 F   0  0  0  0  0  0  0  0  0  0  0  0
  191.2700  176.9220  145.2010 C   0  0  0  0  0  0  0  0  0  0  0  0
  192.9570  175.0830  146.5080 C   0  0  0  0  0  3  0  0  0  0  0  0
  191.2150  176.7480  146.6260 N   0  0  0  0  0  0  0  0  0  0  0  0
  193.0590  175.1390  145.1740 C   0  0  0  0  0  0  0  0  0  0  0  0
  191.9850  175.9070  147.2430 C   0  0  0  0  0  3  0  0  0  0  0  0
  192.1660  176.0540  144.3560 C   0  0  2  0  0  3  0  0  0  0  0  0
  190.5050  177.7500  144.6420 O   0  0  0  0  0  0  0  0  0  0  0  0
  196.5740  174.9750  144.5690 C   0  0  1  0  0  3  0  0  0  0  0  0
  195.4300  174.2590  145.2290 C   0  0  2  0  0  3  0  0  0  0  0  0
  196.3580  173.5960  144.4060 O   0  0  0  0  0  0  0  0  0  0  0  0
  197.1470  175.3250  142.3100 C   0  0  0  0  0  1  0  0  0  0  0  0
  196.2030  175.7020  143.3560 N   0  0  0  0  0  0  0  0  0  0  0  0
  196.4560  177.0080  143.6100 O   0  0  0  0  0  1  0  0  0  0  0  0
  191.5390  171.5400  140.1780 C   0  0  0  0  0  2  0  0  0  0  0  0
  189.9300  173.4420  141.0470 C   0  0  0  0  0  2  0  0  0  0  0  0
  188.8440  173.4140  142.0340 N   0  0  0  0  0  0  0  0  0  0  0  0
  189.0320  172.1890  142.6920 N   0  0  0  0  0  2  0  0  0  0  0  0
  190.5030  172.0690  141.1080 C   0  0  0  0  0  0  0  0  0  0  0  0
  189.9870  171.3910  142.0660 N   0  0  0  0  0  0  0  0  0  0  0  0
  189.0710  174.4340  142.9670 N   0  0  0  0  0  2  0  0  0  0  0  0
  188.0280  175.7870  144.5460 O   0  0  0  0  0  0  0  0  0  0  0  0
  187.9930  175.2650  143.4030 C   0  0  0  0  0  0  0  0  0  0  0  0
  186.8770  175.4730  142.5830 O   0  0  0  0  0  0  0  0  0  0  0  0
  186.8140  176.5800  141.6920 C   0  0  2  0  0  3  0  0  0  0  0  0
  187.7230  176.3870  140.6470 O   0  0  0  0  0  1  0  0  0  0  0  0
  188.0920  178.6190  141.7470 O   0  0  0  0  0  1  0  0  0  0  0  0
  187.1090  177.8890  142.4220 C   0  0  1  0  0  3  0  0  0  0  0  0
  184.9570  178.6590  141.7480 O   0  0  0  0  0  0  0  0  0  0  0  0
  185.8450  178.7010  142.5920 C   0  0  0  0  0  0  0  0  0  0  0  0
  185.6320  179.5080  143.8360 C   0  0  0  0  0  2  0  0  0  0  0  0
  185.8190  178.7700  146.1660 C   0  0  0  0  0  3  0  0  0  0  0  0
  186.3790  178.8760  144.9630 C   0  0  0  0  0  3  0  0  0  0  0  0
  186.5080  178.0790  147.2620 C   0  0  0  0  0  0  0  0  0  0  0  0
  185.7870  177.6880  148.3810 O   0  0  0  0  0  1  0  0  0  0  0  0
  187.7370  177.7900  147.1790 O   0  0  0  0  0  0  0  0  0  0  0  0
  1  3  1  0  0  0  0
  2  3  1  0  0  0  0
  3  4  1  0  0  0  0
  4  7  1  0  0  0  0
  7  5  2  0  0  0  0
  7  6  2  0  0  0  0
  8  7  1  1  0  0  0
  8 13  1  0  0  0  0
 10 12  1  0  0  0  0
 11 14  1  0  0  0  0
 12 14  2  0  0  0  0
 13 11  2  0  0  0  0
 15  9  1  1  0  0  0
 15 13  1  0  0  0  0
 15 10  1  0  0  0  0
 16 10  2  0  0  0  0
 17 21  1  6  0  0  0
 17 18  1  0  0  0  0
 18  8  1  6  0  0  0
 19 17  1  0  0  0  0
 19 18  1  0  0  0  0
 20 21  1  0  0  0  0
 21 22  1  0  0  0  0
 23  1  1  0  0  0  0
 23 27  1  0  0  0  0
 24 27  1  0  0  0  0
 24 25  1  0  0  0  0
 25 26  1  0  0  0  0
 25 29  1  0  0  0  0
 27 28  2  0  0  0  0
 28 26  1  0  0  0  0
 29 31  1  0  0  0  0
 31 30  2  0  0  0  0
 32 31  1  0  0  0  0
 33 34  1  6  0  0  0
 33 36  1  0  0  0  0
 33 32  1  0  0  0  0
 36 35  1  6  0  0  0
 36 38  1  0  0  0  0
 37 38  2  0  0  0  0
 38 39  1  0  0  0  0
 39 41  1  0  0  0  0
 40 42  1  0  0  0  0
 41 40  2  0  0  0  0
 42 43  1  0  0  0  0
 44 42  2  0  0  0  0
M  END
>  <MODEL>
3

>  <REMARK>
 VINA RESULT:      -6.1      2.588      4.755
  Name = 
  17 active torsions:
  status: ('A' for Active; 'I' for Inactive)
    1  A    between atoms: C_3  and  N_13
    2  A    between atoms: C_3  and  S_24
    3  A    between atoms: C_8  and  C_20
    4  A    between atoms: C_8  and  C_43
    5  A    between atoms: C_11  and  O_21
    6  A    between atoms: C_11  and  C_40
    7  A    between atoms: N_13  and  C_37
    8  A    between atoms: C_15  and  C_27
    9  A    between atoms: C_16  and  N_23
   10  A    between atoms: N_17  and  N_25
   11  A    between atoms: C_18  and  C_22
   12  A    between atoms: C_20  and  C_40
   13  A    between atoms: O_21  and  C_36
   14  A    between atoms: S_24  and  C_27
   15  A    between atoms: C_27  and  C_29
   16  A    between atoms: C_31  and  C_39
   17  A    between atoms: C_37  and  C_39
                            x       y       z     vdW  Elec       q    Type
                         _______ _______ _______ _____ _____    ______ ____

>  <TORSDO>
F 17

$$$$
=
 OpenBabel11062422163D

 44 46  0  0  1  0  0  0  0  0999 V2000
  190.8230  173.2820  141.8120 C   0  0  0  0  0  2  0  0  0  0  0  0
  190.5720  171.0400  142.4030 C   0  0  0  0  0  1  0  0  0  0  0  0
  191.5630  172.0890  142.1990 N   0  0  0  0  0  0  0  0  0  0  0  0
  192.1330  172.3660  143.5100 C   0  0  0  0  0  2  0  0  0  0  0  0
  194.3270  171.6150  144.8040 O   0  0  0  0  0  0  0  0  0  0  0  0
  194.3130  171.3250  142.3700 O   0  0  0  0  0  0  0  0  0  0  0  0
  193.9140  172.2370  143.4960 S   0  0  0  0  0  0  0  0  0  0  0  0
  194.7250  173.8350  143.3000 C   0  0  1  0  0  3  0  0  0  0  0  0
  193.3280  176.4270  142.5520 F   0  0  0  0  0  0  0  0  0  0  0  0
  192.4840  176.7450  144.7290 C   0  0  0  0  0  0  0  0  0  0  0  0
  194.5170  174.9340  145.4550 C   0  0  0  0  0  3  0  0  0  0  0  0
  193.0000  176.7070  146.0690 N   0  0  0  0  0  0  0  0  0  0  0  0
  194.0780  174.8600  144.1920 C   0  0  0  0  0  0  0  0  0  0  0  0
  193.9360  175.8810  146.4190 C   0  0  0  0  0  3  0  0  0  0  0  0
  192.9510  175.7490  143.6990 C   0  0  2  0  0  3  0  0  0  0  0  0
  191.5760  177.5630  144.4310 O   0  0  0  0  0  0  0  0  0  0  0  0
  197.1710  174.5850  142.7590 C   0  0  1  0  0  3  0  0  0  0  0  0
  196.2350  173.7090  143.5410 C   0  0  2  0  0  3  0  0  0  0  0  0
  196.8330  173.2880  142.3390 O   0  0  0  0  0  0  0  0  0  0  0  0
  197.2130  175.6570  140.6600 C   0  0  0  0  0  1  0  0  0  0  0  0
  196.5000  175.5870  141.9310 N   0  0  0  0  0  0  0  0  0  0  0  0
  196.7230  176.7800  142.5310 O   0  0  0  0  0  1  0  0  0  0  0  0
  189.5490  173.3890  142.6300 C   0  0  0  0  0  2  0  0  0  0  0  0
  187.4920  175.0410  142.5870 C   0  0  0  0  0  2  0  0  0  0  0  0
  187.4300  176.5060  142.5160 N   0  0  0  0  0  0  0  0  0  0  0  0
  188.7320  176.8700  142.1420 N   0  0  0  0  0  2  0  0  0  0  0  0
  188.9450  174.7390  142.4590 C   0  0  0  0  0  0  0  0  0  0  0  0
  189.6170  175.7950  142.1850 N   0  0  0  0  0  0  0  0  0  0  0  0
  186.5740  176.8580  141.4630 N   0  0  0  0  0  2  0  0  0  0  0  0
  185.5660  178.6660  140.4010 O   0  0  0  0  0  0  0  0  0  0  0  0
  185.8860  178.1100  141.4830 C   0  0  0  0  0  0  0  0  0  0  0  0
  185.5960  178.7450  142.6970 O   0  0  0  0  0  0  0  0  0  0  0  0
  184.6050  178.2320  143.5790 C   0  0  2  0  0  3  0  0  0  0  0  0
  183.3540  178.2930  142.9580 O   0  0  0  0  0  1  0  0  0  0  0  0
  183.2970  179.0410  145.4300 O   0  0  0  0  0  1  0  0  0  0  0  0
  184.5880  179.0100  144.8940 C   0  0  1  0  0  3  0  0  0  0  0  0
  185.9450  179.0610  146.8520 O   0  0  0  0  0  0  0  0  0  0  0  0
  185.5740  178.4190  145.8760 C   0  0  0  0  0  0  0  0  0  0  0  0
  186.0490  177.0090  145.7070 C   0  0  0  0  0  2  0  0  0  0  0  0
  188.3130  176.1480  146.0860 C   0  0  0  0  0  3  0  0  0  0  0  0
  187.2510  176.7920  146.5660 C   0  0  0  0  0  3  0  0  0  0  0  0
  189.5320  175.9980  146.8900 C   0  0  0  0  0  0  0  0  0  0  0  0
  190.2050  174.7840  146.8880 O   0  0  0  0  0  0  0  0  0  0  0  0
  190.0050  176.9730  147.5430 O   0  0  0  0  0  1  0  0  0  0  0  0
  1  3  1  0  0  0  0
  1 23  1  0  0  0  0
  3  2  1  0  0  0  0
  3  4  1  0  0  0  0
  6  7  2  0  0  0  0
  7  4  1  0  0  0  0
  7  5  2  0  0  0  0
  8  7  1  1  0  0  0
  8 13  1  0  0  0  0
 10 12  1  0  0  0  0
 11 14  1  0  0  0  0
 12 14  2  0  0  0  0
 13 11  2  0  0  0  0
 15  9  1  6  0  0  0
 15 13  1  0  0  0  0
 15 10  1  0  0  0  0
 16 10  2  0  0  0  0
 17 21  1  6  0  0  0
 17 18  1  0  0  0  0
 18  8  1  6  0  0  0
 19 17  1  0  0  0  0
 19 18  1  0  0  0  0
 20 21  1  0  0  0  0
 21 22  1  0  0  0  0
 25 24  1  0  0  0  0
 26 28  1  0  0  0  0
 26 25  1  0  0  0  0
 27 24  1  0  0  0  0
 27 23  1  0  0  0  0
 28 27  2  0  0  0  0
 29 31  1  0  0  0  0
 29 25  1  0  0  0  0
 30 31  2  0  0  0  0
 31 32  1  0  0  0  0
 32 33  1  0  0  0  0
 33 34  1  6  0  0  0
 33 36  1  0  0  0  0
 36 35  1  1  0  0  0
 36 38  1  0  0  0  0
 38 37  2  0  0  0  0
 39 38  1  0  0  0  0
 39 41  1  0  0  0  0
 40 41  2  0  0  0  0
 40 42  1  0  0  0  0
 42 44  1  0  0  0  0
 43 42  2  0  0  0  0
M  END
>  <MODEL>
4

>  <REMARK>
 VINA RESULT:      -6.0      2.357      4.030
  Name = 
  17 active torsions:
  status: ('A' for Active; 'I' for Inactive)
    1  A    between atoms: C_3  and  N_13
    2  A    between atoms: C_3  and  S_24
    3  A    between atoms: C_8  and  C_20
    4  A    between atoms: C_8  and  C_43
    5  A    between atoms: C_11  and  O_21
    6  A    between atoms: C_11  and  C_40
    7  A    between atoms: N_13  and  C_37
    8  A    between atoms: C_15  and  C_27
    9  A    between atoms: C_16  and  N_23
   10  A    between atoms: N_17  and  N_25
   11  A    between atoms: C_18  and  C_22
   12  A    between atoms: C_20  and  C_40
   13  A    between atoms: O_21  and  C_36
   14  A    between atoms: S_24  and  C_27
   15  A    between atoms: C_27  and  C_29
   16  A    between atoms: C_31  and  C_39
   17  A    between atoms: C_37  and  C_39
                            x       y       z     vdW  Elec       q    Type
                         _______ _______ _______ _____ _____    ______ ____

>  <TORSDO>
F 17

$$$$
=
 OpenBabel11062422163D

 44 46  0  0  1  0  0  0  0  0999 V2000
  192.5570  175.9260  144.9080 C   0  0  0  0  0  2  0  0  0  0  0  0
  194.1960  176.7560  146.3440 C   0  0  0  0  0  1  0  0  0  0  0  0
  193.9750  175.8490  145.2250 N   0  0  0  0  0  0  0  0  0  0  0  0
  194.6820  176.4280  144.0900 C   0  0  0  0  0  2  0  0  0  0  0  0
  197.2510  176.5720  143.4340 O   0  0  0  0  0  0  0  0  0  0  0  0
  196.5890  174.7700  144.9590 O   0  0  0  0  0  0  0  0  0  0  0  0
  196.1920  175.5430  143.7330 S   0  0  0  0  0  0  0  0  0  0  0  0
  196.0250  174.4190  142.3350 C   0  0  1  0  0  3  0  0  0  0  0  0
  197.2070  171.6650  141.8300 F   0  0  0  0  0  0  0  0  0  0  0  0
  195.7910  170.6340  143.4070 C   0  0  0  0  0  0  0  0  0  0  0  0
  194.2340  172.9590  143.0810 C   0  0  0  0  0  3  0  0  0  0  0  0
  194.3890  170.6370  143.7180 N   0  0  0  0  0  0  0  0  0  0  0  0
  195.5390  173.0740  142.8030 C   0  0  0  0  0  0  0  0  0  0  0  0
  193.6580  171.6980  143.5720 C   0  0  0  0  0  3  0  0  0  0  0  0
  196.4870  171.9040  142.9890 C   0  0  2  0  0  3  0  0  0  0  0  0
  196.4640  169.5820  143.5620 O   0  0  0  0  0  0  0  0  0  0  0  0
  195.6480  175.1420  139.8490 C   0  0  1  0  0  3  0  0  0  0  0  0
  195.1250  175.0290  141.2520 C   0  0  2  0  0  3  0  0  0  0  0  0
  195.7500  176.1950  140.7740 O   0  0  0  0  0  0  0  0  0  0  0  0
  197.8180  175.4810  138.9930 C   0  0  0  0  0  1  0  0  0  0  0  0
  196.9500  174.5070  139.6450 N   0  0  0  0  0  0  0  0  0  0  0  0
  196.7520  173.5340  138.7250 O   0  0  0  0  0  1  0  0  0  0  0  0
  192.3680  176.0890  143.4100 C   0  0  0  0  0  2  0  0  0  0  0  0
  189.7590  175.7800  143.1700 C   0  0  0  0  0  2  0  0  0  0  0  0
  188.6820  176.7610  142.9920 N   0  0  0  0  0  0  0  0  0  0  0  0
  189.3640  177.9360  142.6460 N   0  0  0  0  0  2  0  0  0  0  0  0
  191.0000  176.6010  143.1210 C   0  0  0  0  0  0  0  0  0  0  0  0
  190.7430  177.8150  142.7990 N   0  0  0  0  0  0  0  0  0  0  0  0
  187.9150  176.3750  141.8840 N   0  0  0  0  0  2  0  0  0  0  0  0
  186.6250  177.1940  140.1300 O   0  0  0  0  0  0  0  0  0  0  0  0
  186.9290  177.2600  141.3490 C   0  0  0  0  0  0  0  0  0  0  0  0
  186.3220  178.2270  142.1590 O   0  0  0  0  0  0  0  0  0  0  0  0
  185.3480  177.8690  143.1320 C   0  0  2  0  0  3  0  0  0  0  0  0
  184.0700  178.0030  142.5810 O   0  0  0  0  0  1  0  0  0  0  0  0
  184.8480  179.9640  144.2060 O   0  0  0  0  0  1  0  0  0  0  0  0
  185.4840  178.7310  144.3860 C   0  0  1  0  0  3  0  0  0  0  0  0
  183.9030  178.3810  146.1340 O   0  0  0  0  0  0  0  0  0  0  0  0
  184.9380  178.0050  145.5940 C   0  0  0  0  0  0  0  0  0  0  0  0
  185.6160  176.7690  146.0980 C   0  0  0  0  0  2  0  0  0  0  0  0
  187.9360  176.1310  146.5670 C   0  0  0  0  0  3  0  0  0  0  0  0
  187.0280  177.0980  146.4560 C   0  0  0  0  0  3  0  0  0  0  0  0
  189.3440  176.4450  146.8370 C   0  0  0  0  0  0  0  0  0  0  0  0
  190.1400  175.5070  147.4810 O   0  0  0  0  0  1  0  0  0  0  0  0
  189.8540  177.5350  146.4490 O   0  0  0  0  0  0  0  0  0  0  0  0
  1  3  1  0  0  0  0
  3  2  1  0  0  0  0
  4  3  1  0  0  0  0
  5  7  2  0  0  0  0
  7  4  1  0  0  0  0
  7  6  2  0  0  0  0
  8 13  1  0  0  0  0
  8  7  1  1  0  0  0
 10 16  2  0  0  0  0
 10 12  1  0  0  0  0
 11 14  1  0  0  0  0
 13 15  1  0  0  0  0
 13 11  2  0  0  0  0
 14 12  2  0  0  0  0
 15  9  1  6  0  0  0
 15 10  1  0  0  0  0
 17 21  1  1  0  0  0
 17 19  1  0  0  0  0
 17 18  1  0  0  0  0
 18  8  1  1  0  0  0
 19 18  1  0  0  0  0
 20 21  1  0  0  0  0
 22 21  1  0  0  0  0
 23  1  1  0  0  0  0
 25 24  1  0  0  0  0
 26 28  1  0  0  0  0
 26 25  1  0  0  0  0
 27 24  1  0  0  0  0
 27 23  1  0  0  0  0
 28 27  2  0  0  0  0
 29 25  1  0  0  0  0
 30 31  2  0  0  0  0
 31 29  1  0  0  0  0
 31 32  1  0  0  0  0
 32 33  1  0  0  0  0
 33 34  1  6  0  0  0
 33 36  1  0  0  0  0
 36 35  1  6  0  0  0
 36 38  1  0  0  0  0
 38 39  1  0  0  0  0
 38 37  2  0  0  0  0
 39 41  1  0  0  0  0
 40 42  1  0  0  0  0
 41 40  2  0  0  0  0
 42 43  1  0  0  0  0
 44 42  2  0  0  0  0
M  END
>  <MODEL>
5

>  <REMARK>
 VINA RESULT:      -6.0      2.073      3.370
  Name = 
  17 active torsions:
  status: ('A' for Active; 'I' for Inactive)
    1  A    between atoms: C_3  and  N_13
    2  A    between atoms: C_3  and  S_24
    3  A    between atoms: C_8  and  C_20
    4  A    between atoms: C_8  and  C_43
    5  A    between atoms: C_11  and  O_21
    6  A    between atoms: C_11  and  C_40
    7  A    between atoms: N_13  and  C_37
    8  A    between atoms: C_15  and  C_27
    9  A    between atoms: C_16  and  N_23
   10  A    between atoms: N_17  and  N_25
   11  A    between atoms: C_18  and  C_22
   12  A    between atoms: C_20  and  C_40
   13  A    between atoms: O_21  and  C_36
   14  A    between atoms: S_24  and  C_27
   15  A    between atoms: C_27  and  C_29
   16  A    between atoms: C_31  and  C_39
   17  A    between atoms: C_37  and  C_39
                            x       y       z     vdW  Elec       q    Type
                         _______ _______ _______ _____ _____    ______ ____

>  <TORSDO>
F 17

$$$$
=
 OpenBabel11062422163D

 44 46  0  0  1  0  0  0  0  0999 V2000
  192.3790  174.9210  146.4370 C   0  0  0  0  0  2  0  0  0  0  0  0
  193.8720  176.7060  146.5950 C   0  0  0  0  0  1  0  0  0  0  0  0
  193.7870  175.2740  146.3330 N   0  0  0  0  0  0  0  0  0  0  0  0
  194.1530  175.0990  144.9340 C   0  0  0  0  0  2  0  0  0  0  0  0
  196.6430  175.5820  144.1480 O   0  0  0  0  0  0  0  0  0  0  0  0
  196.3530  174.1690  146.1310 O   0  0  0  0  0  0  0  0  0  0  0  0
  195.8180  174.4800  144.7600 S   0  0  0  0  0  0  0  0  0  0  0  0
  195.9090  173.0080  143.7250 C   0  0  1  0  0  3  0  0  0  0  0  0
  194.2000  171.9540  146.0060 F   0  0  0  0  0  0  0  0  0  0  0  0
  195.3610  169.9050  146.0930 C   0  0  0  0  0  0  0  0  0  0  0  0
  197.3600  171.3240  144.7050 C   0  0  0  0  0  3  0  0  0  0  0  0
  196.7310  169.4770  146.1230 N   0  0  0  0  0  0  0  0  0  0  0  0
  196.1080  171.7830  144.5780 C   0  0  0  0  0  0  0  0  0  0  0  0
  197.6640  170.1190  145.4910 C   0  0  0  0  0  3  0  0  0  0  0  0
  194.9400  171.0720  145.2370 C   0  0  2  0  0  3  0  0  0  0  0  0
  194.4870  169.2520  146.7210 O   0  0  0  0  0  0  0  0  0  0  0  0
  194.8670  172.6160  141.3590 C   0  0  1  0  0  3  0  0  0  0  0  0
  194.6750  172.9040  142.8200 C   0  0  2  0  0  3  0  0  0  0  0  0
  194.7570  173.9250  141.8560 O   0  0  0  0  0  0  0  0  0  0  0  0
  196.5060  172.9610  139.6990 C   0  0  0  0  0  1  0  0  0  0  0  0
  196.2500  172.3210  140.9850 N   0  0  0  0  0  0  0  0  0  0  0  0
  196.2960  170.9900  140.7370 O   0  0  0  0  0  1  0  0  0  0  0  0
  191.7280  175.7100  147.5590 C   0  0  0  0  0  2  0  0  0  0  0  0
  189.7520  177.3010  146.8360 C   0  0  0  0  0  2  0  0  0  0  0  0
  188.3660  177.0090  146.4530 N   0  0  0  0  0  0  0  0  0  0  0  0
  188.1880  175.6790  146.8630 N   0  0  0  0  0  2  0  0  0  0  0  0
  190.2990  175.9750  147.2350 C   0  0  0  0  0  0  0  0  0  0  0  0
  189.3810  175.0810  147.2610 N   0  0  0  0  0  0  0  0  0  0  0  0
  187.5170  177.8080  147.2320 N   0  0  0  0  0  2  0  0  0  0  0  0
  185.3380  177.9980  148.0220 O   0  0  0  0  0  0  0  0  0  0  0  0
  186.1010  177.7350  147.0580 C   0  0  0  0  0  0  0  0  0  0  0  0
  185.5520  177.3370  145.8330 O   0  0  0  0  0  0  0  0  0  0  0  0
  185.4340  178.2470  144.7460 C   0  0  2  0  0  3  0  0  0  0  0  0
  184.4220  179.1720  145.0220 O   0  0  0  0  0  1  0  0  0  0  0  0
  184.4210  178.3240  142.5640 O   0  0  0  0  0  1  0  0  0  0  0  0
  185.1430  177.5080  143.4410 C   0  0  1  0  0  3  0  0  0  0  0  0
  186.5230  175.8710  142.3940 O   0  0  0  0  0  0  0  0  0  0  0  0
  186.4260  177.0220  142.8060 C   0  0  0  0  0  0  0  0  0  0  0  0
  187.5690  177.9680  142.6020 C   0  0  0  0  0  2  0  0  0  0  0  0
  190.0130  177.8860  142.7680 C   0  0  0  0  0  3  0  0  0  0  0  0
  188.8430  177.2800  142.9630 C   0  0  0  0  0  3  0  0  0  0  0  0
  191.2690  177.2560  143.1920 C   0  0  0  0  0  0  0  0  0  0  0  0
  191.5870  175.9870  142.7280 O   0  0  0  0  0  0  0  0  0  0  0  0
  192.0880  177.8720  143.9340 O   0  0  0  0  0  1  0  0  0  0  0  0
  1 23  1  0  0  0  0
  3  1  1  0  0  0  0
  3  2  1  0  0  0  0
  4  3  1  0  0  0  0
  5  7  2  0  0  0  0
  7  4  1  0  0  0  0
  7  6  2  0  0  0  0
  8 13  1  0  0  0  0
  8  7  1  1  0  0  0
 10 12  1  0  0  0  0
 10 16  2  0  0  0  0
 11 14  1  0  0  0  0
 13 11  2  0  0  0  0
 13 15  1  0  0  0  0
 14 12  2  0  0  0  0
 15  9  1  1  0  0  0
 15 10  1  0  0  0  0
 17 21  1  1  0  0  0
 17 19  1  0  0  0  0
 17 18  1  0  0  0  0
 18  8  1  1  0  0  0
 19 18  1  0  0  0  0
 20 21  1  0  0  0  0
 22 21  1  0  0  0  0
 24 27  1  0  0  0  0
 25 24  1  0  0  0  0
 25 26  1  0  0  0  0
 25 29  1  0  0  0  0
 26 28  1  0  0  0  0
 27 28  2  0  0  0  0
 27 23  1  0  0  0  0
 31 29  1  0  0  0  0
 31 30  2  0  0  0  0
 32 31  1  0  0  0  0
 33 34  1  1  0  0  0
 33 32  1  0  0  0  0
 36 35  1  6  0  0  0
 36 33  1  0  0  0  0
 37 38  2  0  0  0  0
 38 36  1  0  0  0  0
 39 38  1  0  0  0  0
 39 41  1  0  0  0  0
 40 41  2  0  0  0  0
 40 42  1  0  0  0  0
 42 44  1  0  0  0  0
 43 42  2  0  0  0  0
M  END
>  <MODEL>
6

>  <REMARK>
 VINA RESULT:      -6.0      2.281      4.265
  Name = 
  17 active torsions:
  status: ('A' for Active; 'I' for Inactive)
    1  A    between atoms: C_3  and  N_13
    2  A    between atoms: C_3  and  S_24
    3  A    between atoms: C_8  and  C_20
    4  A    between atoms: C_8  and  C_43
    5  A    between atoms: C_11  and  O_21
    6  A    between atoms: C_11  and  C_40
    7  A    between atoms: N_13  and  C_37
    8  A    between atoms: C_15  and  C_27
    9  A    between atoms: C_16  and  N_23
   10  A    between atoms: N_17  and  N_25
   11  A    between atoms: C_18  and  C_22
   12  A    between atoms: C_20  and  C_40
   13  A    between atoms: O_21  and  C_36
   14  A    between atoms: S_24  and  C_27
   15  A    between atoms: C_27  and  C_29
   16  A    between atoms: C_31  and  C_39
   17  A    between atoms: C_37  and  C_39
                            x       y       z     vdW  Elec       q    Type
                         _______ _______ _______ _____ _____    ______ ____

>  <TORSDO>
F 17

$$$$
=
 OpenBabel11062422163D

 44 46  0  0  1  0  0  0  0  0999 V2000
  192.7840  175.4760  144.7960 C   0  0  0  0  0  2  0  0  0  0  0  0
  194.9480  175.4490  145.6650 C   0  0  0  0  0  1  0  0  0  0  0  0
  194.0440  174.7490  144.7610 N   0  0  0  0  0  0  0  0  0  0  0  0
  194.5890  174.9330  143.4220 C   0  0  0  0  0  2  0  0  0  0  0  0
  194.9550  173.7720  141.0630 O   0  0  0  0  0  0  0  0  0  0  0  0
  195.3750  172.4070  143.0550 O   0  0  0  0  0  0  0  0  0  0  0  0
  194.4690  173.4420  142.4500 S   0  0  0  0  0  0  0  0  0  0  0  0
  192.7870  172.8000  142.3660 C   0  0  1  0  0  3  0  0  0  0  0  0
  190.4330  173.8830  140.7770 F   0  0  0  0  0  0  0  0  0  0  0  0
  191.2740  173.0600  138.7360 C   0  0  0  0  0  0  0  0  0  0  0  0
  192.8170  171.3840  140.3940 C   0  0  0  0  0  3  0  0  0  0  0  0
  191.8100  171.8210  138.2450 N   0  0  0  0  0  0  0  0  0  0  0  0
  192.4010  172.5360  140.9350 C   0  0  0  0  0  0  0  0  0  0  0  0
  192.5200  171.0370  138.9950 C   0  0  0  0  0  3  0  0  0  0  0  0
  191.6060  173.5430  140.1240 C   0  0  2  0  0  3  0  0  0  0  0  0
  190.5900  173.7910  137.9740 O   0  0  0  0  0  0  0  0  0  0  0  0
  191.3670  171.3850  144.0460 C   0  0  1  0  0  3  0  0  0  0  0  0
  192.6330  171.5620  143.2580 C   0  0  2  0  0  3  0  0  0  0  0  0
  192.5080  171.9990  144.5900 O   0  0  0  0  0  0  0  0  0  0  0  0
  189.6870  172.7300  145.0100 C   0  0  0  0  0  1  0  0  0  0  0  0
  190.3370  172.3810  143.7510 N   0  0  0  0  0  0  0  0  0  0  0  0
  189.3900  171.7380  143.0270 O   0  0  0  0  0  1  0  0  0  0  0  0
  192.7750  176.5480  143.7210 C   0  0  0  0  0  2  0  0  0  0  0  0
  190.2080  176.0500  143.3690 C   0  0  0  0  0  2  0  0  0  0  0  0
  189.0560  176.9520  143.2470 N   0  0  0  0  0  0  0  0  0  0  0  0
  189.6450  178.2070  143.0300 N   0  0  0  0  0  2  0  0  0  0  0  0
  191.3760  176.9710  143.4350 C   0  0  0  0  0  0  0  0  0  0  0  0
  191.0260  178.1840  143.2160 N   0  0  0  0  0  0  0  0  0  0  0  0
  188.3520  176.6100  142.0840 N   0  0  0  0  0  2  0  0  0  0  0  0
  187.1350  177.4940  140.3100 O   0  0  0  0  0  0  0  0  0  0  0  0
  187.3770  177.5030  141.5440 C   0  0  0  0  0  0  0  0  0  0  0  0
  186.7130  178.4190  142.3700 O   0  0  0  0  0  0  0  0  0  0  0  0
  185.6630  178.0040  143.2350 C   0  0  2  0  0  3  0  0  0  0  0  0
  184.4450  178.0590  142.5490 O   0  0  0  0  0  1  0  0  0  0  0  0
  184.8340  180.0170  144.2610 O   0  0  0  0  0  1  0  0  0  0  0  0
  185.6100  178.8760  144.4890 C   0  0  1  0  0  3  0  0  0  0  0  0
  184.0910  178.4570  146.2770 O   0  0  0  0  0  0  0  0  0  0  0  0
  185.0880  178.0850  145.6670 C   0  0  0  0  0  0  0  0  0  0  0  0
  185.7400  176.7940  146.0540 C   0  0  0  0  0  2  0  0  0  0  0  0
  187.9770  176.0430  146.7180 C   0  0  0  0  0  3  0  0  0  0  0  0
  187.1690  177.0530  146.4000 C   0  0  0  0  0  3  0  0  0  0  0  0
  189.4030  176.2720  146.9800 C   0  0  0  0  0  0  0  0  0  0  0  0
  190.1600  175.2620  147.5580 O   0  0  0  0  0  1  0  0  0  0  0  0
  189.9620  177.3550  146.6420 O   0  0  0  0  0  0  0  0  0  0  0  0
  3  1  1  0  0  0  0
  3  2  1  0  0  0  0
  4  3  1  0  0  0  0
  5  7  2  0  0  0  0
  7  6  2  0  0  0  0
  7  4  1  0  0  0  0
  8  7  1  6  0  0  0
 10 15  1  0  0  0  0
 11 13  2  0  0  0  0
 12 10  1  0  0  0  0
 12 14  2  0  0  0  0
 13  8  1  0  0  0  0
 14 11  1  0  0  0  0
 15  9  1  1  0  0  0
 15 13  1  0  0  0  0
 16 10  2  0  0  0  0
 17 21  1  6  0  0  0
 17 19  1  0  0  0  0
 18  8  1  6  0  0  0
 18 17  1  0  0  0  0
 18 19  1  0  0  0  0
 21 20  1  0  0  0  0
 22 21  1  0  0  0  0
 23  1  1  0  0  0  0
 24 27  1  0  0  0  0
 25 24  1  0  0  0  0
 26 28  1  0  0  0  0
 26 25  1  0  0  0  0
 27 23  1  0  0  0  0
 28 27  2  0  0  0  0
 29 25  1  0  0  0  0
 30 31  2  0  0  0  0
 31 29  1  0  0  0  0
 31 32  1  0  0  0  0
 32 33  1  0  0  0  0
 33 34  1  6  0  0  0
 33 36  1  0  0  0  0
 36 35  1  6  0  0  0
 36 38  1  0  0  0  0
 38 39  1  0  0  0  0
 38 37  2  0  0  0  0
 39 41  1  0  0  0  0
 40 42  1  0  0  0  0
 41 40  2  0  0  0  0
 42 43  1  0  0  0  0
 44 42  2  0  0  0  0
M  END
>  <MODEL>
7

>  <REMARK>
 VINA RESULT:      -5.9      2.265      3.065
  Name = 
  17 active torsions:
  status: ('A' for Active; 'I' for Inactive)
    1  A    between atoms: C_3  and  N_13
    2  A    between atoms: C_3  and  S_24
    3  A    between atoms: C_8  and  C_20
    4  A    between atoms: C_8  and  C_43
    5  A    between atoms: C_11  and  O_21
    6  A    between atoms: C_11  and  C_40
    7  A    between atoms: N_13  and  C_37
    8  A    between atoms: C_15  and  C_27
    9  A    between atoms: C_16  and  N_23
   10  A    between atoms: N_17  and  N_25
   11  A    between atoms: C_18  and  C_22
   12  A    between atoms: C_20  and  C_40
   13  A    between atoms: O_21  and  C_36
   14  A    between atoms: S_24  and  C_27
   15  A    between atoms: C_27  and  C_29
   16  A    between atoms: C_31  and  C_39
   17  A    between atoms: C_37  and  C_39
                            x       y       z     vdW  Elec       q    Type
                         _______ _______ _______ _____ _____    ______ ____

>  <TORSDO>
F 17

$$$$
=
 OpenBabel11062422163D

 44 46  0  0  1  0  0  0  0  0999 V2000
  192.9860  176.3730  146.8870 C   0  0  0  0  0  2  0  0  0  0  0  0
  194.6470  177.5130  145.7120 C   0  0  0  0  0  1  0  0  0  0  0  0
  194.2800  176.2060  146.2420 N   0  0  0  0  0  0  0  0  0  0  0  0
  194.0560  175.3500  145.0850 C   0  0  0  0  0  2  0  0  0  0  0  0
  196.2380  174.6620  143.7370 O   0  0  0  0  0  0  0  0  0  0  0  0
  196.1970  174.1430  146.1330 O   0  0  0  0  0  0  0  0  0  0  0  0
  195.3790  174.1690  144.8720 S   0  0  0  0  0  0  0  0  0  0  0  0
  194.7780  172.5110  144.5030 C   0  0  1  0  0  3  0  0  0  0  0  0
  192.1500  170.9900  144.6380 F   0  0  0  0  0  0  0  0  0  0  0  0
  191.1510  172.3240  142.9720 C   0  0  0  0  0  0  0  0  0  0  0  0
  193.8140  172.9790  142.3250 C   0  0  0  0  0  3  0  0  0  0  0  0
  191.5000  172.8040  141.6640 N   0  0  0  0  0  0  0  0  0  0  0  0
  193.5890  172.5800  143.5830 C   0  0  0  0  0  0  0  0  0  0  0  0
  192.7210  173.1080  141.3490 C   0  0  0  0  0  3  0  0  0  0  0  0
  192.1880  172.2490  144.0630 C   0  0  2  0  0  3  0  0  0  0  0  0
  189.9540  172.0400  143.2360 O   0  0  0  0  0  0  0  0  0  0  0  0
  196.0960  170.2520  144.4960 C   0  0  1  0  0  3  0  0  0  0  0  0
  195.9080  171.6360  143.9450 C   0  0  2  0  0  3  0  0  0  0  0  0
  196.8020  171.3590  144.9960 O   0  0  0  0  0  0  0  0  0  0  0  0
  195.7180  169.3380  146.6360 C   0  0  0  0  0  1  0  0  0  0  0  0
  195.0550  169.8370  145.4360 N   0  0  0  0  0  0  0  0  0  0  0  0
  194.4590  168.7540  144.8820 O   0  0  0  0  0  1  0  0  0  0  0  0
  192.1010  175.1770  146.5890 C   0  0  0  0  0  2  0  0  0  0  0  0
  190.2140  177.0180  146.4870 C   0  0  0  0  0  2  0  0  0  0  0  0
  188.7720  176.9110  146.2310 N   0  0  0  0  0  0  0  0  0  0  0  0
  188.5180  175.5380  146.3640 N   0  0  0  0  0  2  0  0  0  0  0  0
  190.6760  175.6020  146.5160 C   0  0  0  0  0  0  0  0  0  0  0  0
  189.6870  174.7880  146.4670 N   0  0  0  0  0  0  0  0  0  0  0  0
  188.0930  177.5690  147.2660 N   0  0  0  0  0  2  0  0  0  0  0  0
  185.9860  177.9290  148.1830 O   0  0  0  0  0  0  0  0  0  0  0  0
  186.6960  177.8440  147.1490 C   0  0  0  0  0  0  0  0  0  0  0  0
  186.0990  177.9830  145.8900 O   0  0  0  0  0  0  0  0  0  0  0  0
  185.0250  178.8920  145.6800 C   0  0  2  0  0  3  0  0  0  0  0  0
  183.8230  178.2860  146.0580 O   0  0  0  0  0  1  0  0  0  0  0  0
  185.5600  180.5920  144.0620 O   0  0  0  0  0  1  0  0  0  0  0  0
  184.9630  179.3370  144.2200 C   0  0  1  0  0  3  0  0  0  0  0  0
  185.1170  177.1910  143.1960 O   0  0  0  0  0  0  0  0  0  0  0  0
  185.6080  178.3080  143.3200 C   0  0  0  0  0  0  0  0  0  0  0  0
  186.8140  178.6690  142.5090 C   0  0  0  0  0  2  0  0  0  0  0  0
  188.8300  177.2880  142.7070 C   0  0  0  0  0  3  0  0  0  0  0  0
  187.5980  177.4310  142.2220 C   0  0  0  0  0  3  0  0  0  0  0  0
  189.5820  176.0450  142.5030 C   0  0  0  0  0  0  0  0  0  0  0  0
  190.8770  175.9440  142.9920 O   0  0  0  0  0  1  0  0  0  0  0  0
  189.0510  175.0480  141.9330 O   0  0  0  0  0  0  0  0  0  0  0  0
  2  3  1  0  0  0  0
  3  1  1  0  0  0  0
  4  3  1  0  0  0  0
  5  7  2  0  0  0  0
  7  4  1  0  0  0  0
  7  6  2  0  0  0  0
  8  7  1  6  0  0  0
 10 16  2  0  0  0  0
 10 15  1  0  0  0  0
 11 13  2  0  0  0  0
 12 10  1  0  0  0  0
 13 15  1  0  0  0  0
 13  8  1  0  0  0  0
 14 12  2  0  0  0  0
 14 11  1  0  0  0  0
 15  9  1  6  0  0  0
 17 19  1  0  0  0  0
 17 21  1  1  0  0  0
 18 17  1  0  0  0  0
 18  8  1  1  0  0  0
 18 19  1  0  0  0  0
 21 20  1  0  0  0  0
 22 21  1  0  0  0  0
 23  1  1  0  0  0  0
 24 27  1  0  0  0  0
 25 26  1  0  0  0  0
 25 24  1  0  0  0  0
 25 29  1  0  0  0  0
 26 28  1  0  0  0  0
 27 23  1  0  0  0  0
 28 27  2  0  0  0  0
 31 29  1  0  0  0  0
 31 30  2  0  0  0  0
 32 31  1  0  0  0  0
 33 32  1  0  0  0  0
 33 34  1  6  0  0  0
 36 35  1  1  0  0  0
 36 33  1  0  0  0  0
 37 38  2  0  0  0  0
 38 36  1  0  0  0  0
 39 38  1  0  0  0  0
 41 39  1  0  0  0  0
 41 40  2  0  0  0  0
 42 40  1  0  0  0  0
 42 43  1  0  0  0  0
 44 42  2  0  0  0  0
M  END
>  <MODEL>
8

>  <REMARK>
 VINA RESULT:      -5.9      1.887      3.055
  Name = 
  17 active torsions:
  status: ('A' for Active; 'I' for Inactive)
    1  A    between atoms: C_3  and  N_13
    2  A    between atoms: C_3  and  S_24
    3  A    between atoms: C_8  and  C_20
    4  A    between atoms: C_8  and  C_43
    5  A    between atoms: C_11  and  O_21
    6  A    between atoms: C_11  and  C_40
    7  A    between atoms: N_13  and  C_37
    8  A    between atoms: C_15  and  C_27
    9  A    between atoms: C_16  and  N_23
   10  A    between atoms: N_17  and  N_25
   11  A    between atoms: C_18  and  C_22
   12  A    between atoms: C_20  and  C_40
   13  A    between atoms: O_21  and  C_36
   14  A    between atoms: S_24  and  C_27
   15  A    between atoms: C_27  and  C_29
   16  A    between atoms: C_31  and  C_39
   17  A    between atoms: C_37  and  C_39
                            x       y       z     vdW  Elec       q    Type
                         _______ _______ _______ _____ _____    ______ ____

>  <TORSDO>
F 17

$$$$
=
 OpenBabel11062422163D

 44 46  0  0  1  0  0  0  0  0999 V2000
  189.7650  175.7040  146.1730 C   0  0  0  0  0  2  0  0  0  0  0  0
  191.3340  176.6180  147.6360 C   0  0  0  0  0  1  0  0  0  0  0  0
  191.1380  175.5750  146.6370 N   0  0  0  0  0  0  0  0  0  0  0  0
  191.9880  175.9320  145.5090 C   0  0  0  0  0  2  0  0  0  0  0  0
  194.5730  175.4990  145.9370 O   0  0  0  0  0  0  0  0  0  0  0  0
  193.0700  173.5720  146.1360 O   0  0  0  0  0  0  0  0  0  0  0  0
  193.3700  174.8130  145.3440 S   0  0  0  0  0  0  0  0  0  0  0  0
  193.7060  174.3730  143.6290 C   0  0  1  0  0  3  0  0  0  0  0  0
  190.8160  173.4540  143.8230 F   0  0  0  0  0  0  0  0  0  0  0  0
  191.2500  171.4420  142.6740 C   0  0  0  0  0  0  0  0  0  0  0  0
  193.9260  171.9670  143.3820 C   0  0  0  0  0  3  0  0  0  0  0  0
  192.2210  170.3860  142.7390 N   0  0  0  0  0  0  0  0  0  0  0  0
  193.1110  173.0270  143.3100 C   0  0  0  0  0  0  0  0  0  0  0  0
  193.4560  170.6100  143.0640 C   0  0  0  0  0  3  0  0  0  0  0  0
  191.6610  172.8760  142.8900 C   0  0  2  0  0  3  0  0  0  0  0  0
  190.0620  171.1810  142.3540 O   0  0  0  0  0  0  0  0  0  0  0  0
  194.1480  175.9800  141.6140 C   0  0  1  0  0  3  0  0  0  0  0  0
  193.2190  175.4750  142.6800 C   0  0  2  0  0  3  0  0  0  0  0  0
  194.0380  176.6030  142.8680 O   0  0  0  0  0  0  0  0  0  0  0  0
  196.4930  176.2080  141.5350 C   0  0  0  0  0  1  0  0  0  0  0  0
  195.4040  175.2380  141.5160 N   0  0  0  0  0  0  0  0  0  0  0  0
  195.4270  174.7010  140.2720 O   0  0  0  0  0  1  0  0  0  0  0  0
  189.0830  176.8570  146.8870 C   0  0  0  0  0  2  0  0  0  0  0  0
  187.1480  177.2650  145.1400 C   0  0  0  0  0  2  0  0  0  0  0  0
  185.7050  177.0130  145.2200 N   0  0  0  0  0  0  0  0  0  0  0  0
  185.4880  176.7890  146.5870 N   0  0  0  0  0  2  0  0  0  0  0  0
  187.6460  176.9190  146.5000 C   0  0  0  0  0  0  0  0  0  0  0  0
  186.6780  176.6760  147.3030 N   0  0  0  0  0  0  0  0  0  0  0  0
  185.0330  178.1930  144.8730 N   0  0  0  0  0  2  0  0  0  0  0  0
  183.3840  179.0630  143.4820 O   0  0  0  0  0  0  0  0  0  0  0  0
  184.3780  178.3040  143.6080 C   0  0  0  0  0  0  0  0  0  0  0  0
  184.8080  177.5440  142.5130 O   0  0  0  0  0  0  0  0  0  0  0  0
  185.5950  178.1220  141.4780 C   0  0  2  0  0  3  0  0  0  0  0  0
  184.7530  178.6650  140.5020 O   0  0  0  0  0  1  0  0  0  0  0  0
  186.7250  177.3480  139.5000 O   0  0  0  0  0  1  0  0  0  0  0  0
  186.5320  177.0860  140.8600 C   0  0  1  0  0  3  0  0  0  0  0  0
  188.5260  178.0620  141.7260 O   0  0  0  0  0  0  0  0  0  0  0  0
  187.8480  177.0480  141.6020 C   0  0  0  0  0  0  0  0  0  0  0  0
  188.3030  175.7820  142.2610 C   0  0  0  0  0  2  0  0  0  0  0  0
  188.3770  173.9570  140.6270 C   0  0  0  0  0  3  0  0  0  0  0  0
  189.0180  174.9380  141.2590 C   0  0  0  0  0  3  0  0  0  0  0  0
  189.0430  173.1720  139.5810 C   0  0  0  0  0  0  0  0  0  0  0  0
  190.4290  173.1090  139.5530 O   0  0  0  0  0  1  0  0  0  0  0  0
  188.3720  172.5140  138.7340 O   0  0  0  0  0  0  0  0  0  0  0  0
  1  3  1  0  0  0  0
  1 23  1  0  0  0  0
  3  2  1  0  0  0  0
  4  3  1  0  0  0  0
  7  4  1  0  0  0  0
  7  5  2  0  0  0  0
  7  6  2  0  0  0  0
  8  7  1  1  0  0  0
 10 12  1  0  0  0  0
 10 15  1  0  0  0  0
 12 14  2  0  0  0  0
 13 11  2  0  0  0  0
 13  8  1  0  0  0  0
 14 11  1  0  0  0  0
 15 13  1  0  0  0  0
 15  9  1  1  0  0  0
 16 10  2  0  0  0  0
 17 21  1  1  0  0  0
 17 18  1  0  0  0  0
 17 19  1  0  0  0  0
 18 19  1  0  0  0  0
 18  8  1  1  0  0  0
 21 20  1  0  0  0  0
 22 21  1  0  0  0  0
 24 25  1  0  0  0  0
 24 27  1  0  0  0  0
 25 26  1  0  0  0  0
 26 28  1  0  0  0  0
 27 23  1  0  0  0  0
 27 28  2  0  0  0  0
 29 25  1  0  0  0  0
 30 31  2  0  0  0  0
 31 29  1  0  0  0  0
 32 31  1  0  0  0  0
 33 34  1  6  0  0  0
 33 32  1  0  0  0  0
 36 35  1  6  0  0  0
 36 33  1  0  0  0  0
 36 38  1  0  0  0  0
 38 37  2  0  0  0  0
 38 39  1  0  0  0  0
 40 41  2  0  0  0  0
 41 39  1  0  0  0  0
 42 40  1  0  0  0  0
 43 42  1  0  0  0  0
 44 42  2  0  0  0  0
M  END
>  <MODEL>
9

>  <REMARK>
 VINA RESULT:      -5.8      2.844      4.978
  Name = 
  17 active torsions:
  status: ('A' for Active; 'I' for Inactive)
    1  A    between atoms: C_3  and  N_13
    2  A    between atoms: C_3  and  S_24
    3  A    between atoms: C_8  and  C_20
    4  A    between atoms: C_8  and  C_43
    5  A    between atoms: C_11  and  O_21
    6  A    between atoms: C_11  and  C_40
    7  A    between atoms: N_13  and  C_37
    8  A    between atoms: C_15  and  C_27
    9  A    between atoms: C_16  and  N_23
   10  A    between atoms: N_17  and  N_25
   11  A    between atoms: C_18  and  C_22
   12  A    between atoms: C_20  and  C_40
   13  A    between atoms: O_21  and  C_36
   14  A    between atoms: S_24  and  C_27
   15  A    between atoms: C_27  and  C_29
   16  A    between atoms: C_31  and  C_39
   17  A    between atoms: C_37  and  C_39
                            x       y       z     vdW  Elec       q    Type
                         _______ _______ _______ _____ _____    ______ ____

>  <TORSDO>
F 17

$$$$
