=
 OpenBabel11062418403D

 69 78  0  0  1  0  0  0  0  0999 V2000
  189.3960  172.6650  136.5940 C   0  0  0  0  0  2  0  0  0  0  0  0
  193.8620  170.7090  140.3390 C   0  0  2  0  0  3  0  0  0  0  0  0
  195.4160  172.5880  145.1410 C   0  0  0  0  0  0  0  0  0  0  0  0
  197.4990  169.5640  143.0970 O   0  0  0  0  0  0  0  0  0  0  0  0
  193.0530  169.4510  139.9890 C   0  0  0  0  0  2  0  0  0  0  0  0
  194.5220  170.4450  141.6720 C   0  0  0  0  0  2  0  0  0  0  0  0
  195.3340  174.0310  144.7410 C   0  0  0  0  0  2  0  0  0  0  0  0
  195.6670  168.1720  143.1490 O   0  0  0  0  0  0  0  0  0  0  0  0
  194.5890  172.0690  146.0920 N   0  0  0  0  0  0  0  0  0  0  0  0
  192.9530  172.3990  137.8040 C   0  0  1  0  0  3  0  0  0  0  0  0
  194.7320  170.7940  146.5440 C   0  0  0  0  0  3  0  0  0  0  0  0
  196.6480  170.5100  145.1120 C   0  0  0  0  0  0  0  0  0  0  0  0
  190.3470  170.9730  137.6660 C   0  0  0  0  0  2  0  0  0  0  0  0
  195.7640  169.9890  146.0560 C   0  0  0  0  0  3  0  0  0  0  0  0
  192.7120  173.6970  135.8020 O   0  0  0  0  0  0  0  0  0  0  0  0
  192.9640  171.9660  140.4060 C   0  0  2  0  0  3  0  0  0  0  0  0
  196.3020  169.0910  142.5650 C   0  0  0  0  0  0  0  0  0  0  0  0
  191.6720  175.9070  147.7490 C   0  0  0  0  0  2  0  0  0  0  0  0
  193.4140  174.2800  143.0470 C   0  0  0  0  0  0  0  0  0  0  0  0
  193.0380  174.1780  145.4800 O   0  0  0  0  0  0  0  0  0  0  0  0
  194.0980  176.6430  145.8110 O   0  0  0  0  0  0  0  0  0  0  0  0
  191.8280  174.7980  141.0950 C   0  0  0  0  0  2  0  0  0  0  0  0
  191.8100  176.1180  146.2650 C   0  0  2  0  0  0  0  0  0  0  0  0
  192.2780  175.1400  142.5090 C   0  0  0  0  0  2  0  0  0  0  0  0
  191.2470  170.8340  138.9030 C   0  0  2  0  0  0  0  0  0  0  0  0
  190.4340  170.6620  140.0290 O   0  0  0  0  0  1  0  0  0  0  0  0
  191.7920  174.8410  145.4220 C   0  0  0  0  0  2  0  0  0  0  0  0
  196.4750  171.8170  144.6500 C   0  0  0  0  0  3  0  0  0  0  0  0
  197.6960  169.6300  144.5040 C   0  0  0  0  0  2  0  0  0  0  0  0
  192.1380  172.0820  139.0910 C   0  0  2  0  0  3  0  0  0  0  0  0
  193.0460  174.5330  140.2330 C   0  0  0  0  0  2  0  0  0  0  0  0
  192.1780  169.6200  138.7500 C   0  0  2  0  0  3  0  0  0  0  0  0
  191.4440  168.4510  138.5360 O   0  0  0  0  0  1  0  0  0  0  0  0
  189.4190  172.0080  137.8270 O   0  0  0  0  0  0  0  0  0  0  0  0
  191.1370  174.1450  137.4610 N   0  0  0  0  0  2  0  0  0  0  0  0
  192.8190  177.2010  145.9100 C   0  0  0  0  0  2  0  0  0  0  0  0
  189.8740  174.1060  136.7420 C   0  0  0  0  0  2  0  0  0  0  0  0
  194.1680  176.1410  144.5020 C   0  0  0  0  0  2  0  0  0  0  0  0
  195.7370  169.7390  141.4810 O   0  0  0  0  0  0  0  0  0  0  0  0
  193.7420  173.2700  140.7500 C   0  0  1  0  0  3  0  0  0  0  0  0
  190.5450  176.5920  146.9750 C   0  0  1  0  0  3  0  0  0  0  0  0
  194.0790  173.4330  142.2220 C   0  0  0  0  0  3  0  0  0  0  0  0
  193.9310  174.6150  144.4570 C   0  0  1  0  0  0  0  0  0  0  0  0
  192.2890  173.4630  136.9700 C   0  0  0  0  0  0  0  0  0  0  0  0
  189.3690  175.6570  146.8420 C   0  0  0  0  0  0  0  0  0  0  0  0
  189.4970  174.3890  147.2420 C   0  0  0  0  0  2  0  0  0  0  0  0
  188.2840  175.9780  145.8630 C   0  0  0  0  0  2  0  0  0  0  0  0
  187.0040  176.4090  146.5620 C   0  0  0  0  0  2  0  0  0  0  0  0
  185.1310  178.1780  146.1410 C   0  0  2  0  0  3  0  0  0  0  0  0
  186.0830  177.1200  145.5710 C   0  0  2  0  0  0  0  0  0  0  0  0
  186.8550  177.6660  144.3880 C   0  0  2  0  0  3  0  0  0  0  0  0
  186.4550  178.5910  145.5280 C   0  0  1  0  0  3  0  0  0  0  0  0
  185.1970  178.3720  147.6510 C   0  0  0  0  0  1  0  0  0  0  0  0
  185.9100  177.7800  143.1970 C   0  0  0  0  0  2  0  0  0  0  0  0
  186.6400  178.2630  141.9490 C   0  0  0  0  0  2  0  0  0  0  0  0
  186.5610  177.2140  140.8620 C   0  0  1  0  0  3  0  0  0  0  0  0
  186.5670  177.8220  139.6180 F   0  0  0  0  0  0  0  0  0  0  0  0
  187.7520  176.2820  140.9810 C   0  0  0  0  0  2  0  0  0  0  0  0
  188.7980  176.8940  141.8990 C   0  0  0  0  0  1  0  0  0  0  0  0
  194.2930  172.7280  138.0590 O   0  0  0  0  0  0  0  0  0  0  0  0
  195.0220  172.1100  137.0390 C   0  0  0  0  0  2  0  0  0  0  0  0
  196.4710  172.5500  137.0950 C   0  0  2  0  0  3  0  0  0  0  0  0
  196.8440  172.2200  139.4800 N   0  0  0  0  0  0  0  0  0  0  0  0
  197.0150  174.3830  138.8200 N   0  0  0  0  0  2  0  0  0  0  0  0
  196.7970  173.0190  138.4740 C   0  0  0  0  0  0  0  0  0  0  0  0
  197.2550  174.3710  140.2550 C   0  0  0  0  0  3  0  0  0  0  0  0
  197.1180  172.9690  140.6270 N   0  0  0  0  0  0  0  0  0  0  0  0
  195.5070  174.0880  135.5490 O   0  0  0  0  0  1  0  0  0  0  0  0
  196.7190  173.6530  136.0700 C   0  0  0  0  0  2  0  0  0  0  0  0
  1 37  1  0  0  0  0
  1 34  1  0  0  0  0
  2  5  1  1  0  0  0
  2 16  1  0  0  0  0
  2  6  1  0  0  0  0
  3  9  1  0  0  0  0
  4 29  1  0  0  0  0
  7  3  1  0  0  0  0
  9 11  2  0  0  0  0
 10 60  1  1  0  0  0
 10 30  1  0  0  0  0
 12 14  2  0  0  0  0
 13 34  1  0  0  0  0
 13 25  1  0  0  0  0
 14 11  1  0  0  0  0
 15 44  2  0  0  0  0
 16 40  1  0  0  0  0
 17  4  1  0  0  0  0
 17  8  2  0  0  0  0
 19 43  1  0  0  0  0
 21 36  1  0  0  0  0
 22 24  1  0  0  0  0
 23 41  1  0  0  0  0
 23 18  1  0  0  0  0
 24 19  1  0  0  0  0
 25 30  1  0  0  0  0
 25 26  1  0  0  0  0
 27 20  1  0  0  0  0
 27 23  1  0  0  0  0
 28 12  1  0  0  0  0
 28  3  2  0  0  0  0
 29 12  1  0  0  0  0
 30 16  1  0  0  0  0
 31 40  1  0  0  0  0
 31 22  1  0  0  0  0
 32 25  1  0  0  0  0
 32  5  1  0  0  0  0
 33 32  1  0  0  0  0
 36 23  1  0  0  0  0
 37 35  1  0  0  0  0
 38 21  1  0  0  0  0
 39  6  1  0  0  0  0
 39 17  1  0  0  0  0
 40 42  1  0  0  0  0
 41 18  1  0  0  0  0
 42 19  2  0  0  0  0
 43 38  1  0  0  0  0
 43  7  1  0  0  0  0
 43 20  1  0  0  0  0
 44 35  1  0  0  0  0
 44 10  1  0  0  0  0
 45 41  1  0  0  0  0
 45 46  2  0  0  0  0
 47 48  1  0  0  0  0
 47 45  1  0  0  0  0
 49 53  1  0  0  0  0
 50 49  1  0  0  0  0
 50 48  1  0  0  0  0
 51 52  1  0  0  0  0
 51 50  1  0  0  0  0
 52 50  1  0  0  0  0
 52 49  1  0  0  0  0
 54 51  1  0  0  0  0
 55 54  1  0  0  0  0
 56 58  1  0  0  0  0
 56 55  1  0  0  0  0
 57 56  1  0  0  0  0
 58 59  1  0  0  0  0
 61 62  1  0  0  0  0
 61 60  1  0  0  0  0
 62 65  1  0  0  0  0
 63 67  1  0  0  0  0
 64 66  1  0  0  0  0
 65 64  1  0  0  0  0
 65 63  2  0  0  0  0
 66 67  2  0  0  0  0
 68 69  1  0  0  0  0
 69 62  1  0  0  0  0
M  END
>  <MODEL>
1

>  <REMARK>
 VINA RESULT:      -7.8      0.000      0.000
  Name = 
  13 active torsions:
  status: ('A' for Active; 'I' for Inactive)
    1  A    between atoms: C_7  and  C_56
    2  A    between atoms: C_7  and  C_66
    3  A    between atoms: C_8  and  C_30
    4  A    between atoms: O_11  and  C_18
    5  A    between atoms: O_11  and  C_28
    6  A    between atoms: C_12  and  C_22
    7  A    between atoms: C_12  and  C_57
    8  A    between atoms: C_15  and  C_57
    9  A    between atoms: C_19  and  C_28
   10  A    between atoms: C_19  and  C_40
   11  A    between atoms: C_19  and  C_64
   12  A    between atoms: C_22  and  C_54
   13  A    between atoms: C_30  and  C_56
                            x       y       z     vdW  Elec       q    Type
                         _______ _______ _______ _____ _____    ______ ____

>  <TORSDO>
F 13

$$$$
=
 OpenBabel11062418403D

 69 78  0  0  1  0  0  0  0  0999 V2000
  189.5690  172.4470  136.2460 C   0  0  0  0  0  2  0  0  0  0  0  0
  194.0320  170.6290  140.0630 C   0  0  2  0  0  3  0  0  0  0  0  0
  195.5000  172.6040  144.8550 C   0  0  0  0  0  0  0  0  0  0  0  0
  197.6610  169.5930  142.8740 O   0  0  0  0  0  0  0  0  0  0  0  0
  193.2520  169.3510  139.7230 C   0  0  0  0  0  2  0  0  0  0  0  0
  194.6830  170.3970  141.4060 C   0  0  0  0  0  2  0  0  0  0  0  0
  195.3930  174.0400  144.4340 C   0  0  0  0  0  2  0  0  0  0  0  0
  195.8570  168.1660  142.9270 O   0  0  0  0  0  0  0  0  0  0  0  0
  194.6730  172.0820  145.8040 N   0  0  0  0  0  0  0  0  0  0  0  0
  193.1170  172.2660  137.4960 C   0  0  1  0  0  3  0  0  0  0  0  0
  194.8360  170.8170  146.2750 C   0  0  0  0  0  3  0  0  0  0  0  0
  196.7710  170.5500  144.8670 C   0  0  0  0  0  0  0  0  0  0  0  0
  190.5410  170.7880  137.3510 C   0  0  0  0  0  2  0  0  0  0  0  0
  195.8880  170.0250  145.8090 C   0  0  0  0  0  3  0  0  0  0  0  0
  192.8720  173.5310  135.4730 O   0  0  0  0  0  0  0  0  0  0  0  0
  193.1090  171.8690  140.1030 C   0  0  2  0  0  3  0  0  0  0  0  0
  196.4790  169.0890  142.3370 C   0  0  0  0  0  0  0  0  0  0  0  0
  191.6650  175.8850  147.3770 C   0  0  0  0  0  2  0  0  0  0  0  0
  193.4870  174.2270  142.7170 C   0  0  0  0  0  0  0  0  0  0  0  0
  193.0870  174.1520  145.1470 O   0  0  0  0  0  0  0  0  0  0  0  0
  194.0970  176.6420  145.4540 O   0  0  0  0  0  0  0  0  0  0  0  0
  191.9120  174.6880  140.7410 C   0  0  0  0  0  2  0  0  0  0  0  0
  191.8140  176.0780  145.8920 C   0  0  2  0  0  0  0  0  0  0  0  0
  192.3400  175.0580  142.1550 C   0  0  0  0  0  2  0  0  0  0  0  0
  191.4310  170.6840  138.5990 C   0  0  2  0  0  0  0  0  0  0  0  0
  190.6090  170.5110  139.7190 O   0  0  0  0  0  1  0  0  0  0  0  0
  191.8300  174.7900  145.0670 C   0  0  0  0  0  2  0  0  0  0  0  0
  196.5780  171.8470  144.3850 C   0  0  0  0  0  3  0  0  0  0  0  0
  197.8430  169.6820  144.2820 C   0  0  0  0  0  2  0  0  0  0  0  0
  192.2950  171.9510  138.7790 C   0  0  2  0  0  3  0  0  0  0  0  0
  193.1440  174.4350  139.8960 C   0  0  0  0  0  2  0  0  0  0  0  0
  192.3860  169.4860  138.4720 C   0  0  2  0  0  3  0  0  0  0  0  0
  191.6770  168.3000  138.2680 O   0  0  0  0  0  1  0  0  0  0  0  0
  189.5920  171.8080  137.4890 O   0  0  0  0  0  0  0  0  0  0  0  0
  191.2720  173.9720  137.1100 N   0  0  0  0  0  2  0  0  0  0  0  0
  192.8060  177.1760  145.5320 C   0  0  0  0  0  2  0  0  0  0  0  0
  190.0180  173.8990  136.3790 C   0  0  0  0  0  2  0  0  0  0  0  0
  194.1900  176.1230  144.1530 C   0  0  0  0  0  2  0  0  0  0  0  0
  195.9130  169.7110  141.2380 O   0  0  0  0  0  0  0  0  0  0  0  0
  193.8590  173.1930  140.4370 C   0  0  1  0  0  3  0  0  0  0  0  0
  190.5330  176.5380  146.5830 C   0  0  1  0  0  3  0  0  0  0  0  0
  194.1770  173.3830  141.9100 C   0  0  0  0  0  3  0  0  0  0  0  0
  193.9830  174.5920  144.1270 C   0  0  1  0  0  0  0  0  0  0  0  0
  192.4420  173.3060  136.6400 C   0  0  0  0  0  0  0  0  0  0  0  0
  189.3770  175.5780  146.4510 C   0  0  0  0  0  0  0  0  0  0  0  0
  189.5850  174.2750  146.6590 C   0  0  0  0  0  2  0  0  0  0  0  0
  188.1810  175.9780  145.6460 C   0  0  0  0  0  2  0  0  0  0  0  0
  188.5500  176.2850  144.2020 C   0  0  0  0  0  2  0  0  0  0  0  0
  187.1030  176.8100  142.0950 C   0  0  2  0  0  3  0  0  0  0  0  0
  187.4540  177.1290  143.5520 C   0  0  2  0  0  0  0  0  0  0  0  0
  186.2080  177.1800  144.4120 C   0  0  2  0  0  3  0  0  0  0  0  0
  186.2760  176.2300  143.2240 C   0  0  1  0  0  3  0  0  0  0  0  0
  187.9230  175.6970  141.4520 C   0  0  0  0  0  1  0  0  0  0  0  0
  185.4400  178.4550  144.0840 C   0  0  0  0  0  2  0  0  0  0  0  0
  184.2350  178.6320  145.0010 C   0  0  0  0  0  2  0  0  0  0  0  0
  184.4970  177.9760  146.3380 C   0  0  1  0  0  3  0  0  0  0  0  0
  185.0990  176.7430  146.1490 F   0  0  0  0  0  0  0  0  0  0  0  0
  185.4080  178.8690  147.1610 C   0  0  0  0  0  2  0  0  0  0  0  0
  186.3230  178.0170  148.0260 C   0  0  0  0  0  1  0  0  0  0  0  0
  194.4480  172.6240  137.7600 O   0  0  0  0  0  0  0  0  0  0  0  0
  195.1720  172.1860  136.6480 C   0  0  0  0  0  2  0  0  0  0  0  0
  196.5290  172.8610  136.6110 C   0  0  2  0  0  3  0  0  0  0  0  0
  197.1320  171.9610  138.7940 N   0  0  0  0  0  0  0  0  0  0  0  0
  197.4960  174.1900  138.5940 N   0  0  0  0  0  2  0  0  0  0  0  0
  197.0690  172.9690  137.9990 C   0  0  0  0  0  0  0  0  0  0  0  0
  197.8970  173.8280  139.9450 C   0  0  0  0  0  3  0  0  0  0  0  0
  197.6290  172.3980  140.0240 N   0  0  0  0  0  0  0  0  0  0  0  0
  196.3190  174.0980  134.5840 O   0  0  0  0  0  1  0  0  0  0  0  0
  196.4080  174.2380  135.9640 C   0  0  0  0  0  2  0  0  0  0  0  0
  1 37  1  0  0  0  0
  1 34  1  0  0  0  0
  2  5  1  1  0  0  0
  2 16  1  0  0  0  0
  2  6  1  0  0  0  0
  3  9  1  0  0  0  0
  4 29  1  0  0  0  0
  7  3  1  0  0  0  0
  9 11  2  0  0  0  0
 10 60  1  1  0  0  0
 10 30  1  0  0  0  0
 12 14  2  0  0  0  0
 13 34  1  0  0  0  0
 13 25  1  0  0  0  0
 14 11  1  0  0  0  0
 15 44  2  0  0  0  0
 16 40  1  0  0  0  0
 17  4  1  0  0  0  0
 17  8  2  0  0  0  0
 19 43  1  0  0  0  0
 21 36  1  0  0  0  0
 22 24  1  0  0  0  0
 23 41  1  0  0  0  0
 23 18  1  0  0  0  0
 24 19  1  0  0  0  0
 25 30  1  0  0  0  0
 25 26  1  0  0  0  0
 27 20  1  0  0  0  0
 27 23  1  0  0  0  0
 28  3  2  0  0  0  0
 28 12  1  0  0  0  0
 29 12  1  0  0  0  0
 30 16  1  0  0  0  0
 31 40  1  0  0  0  0
 31 22  1  0  0  0  0
 32 25  1  0  0  0  0
 32  5  1  0  0  0  0
 33 32  1  0  0  0  0
 36 23  1  0  0  0  0
 37 35  1  0  0  0  0
 38 21  1  0  0  0  0
 39  6  1  0  0  0  0
 39 17  1  0  0  0  0
 40 42  1  0  0  0  0
 41 18  1  0  0  0  0
 42 19  2  0  0  0  0
 43 38  1  0  0  0  0
 43  7  1  0  0  0  0
 43 20  1  0  0  0  0
 44 35  1  0  0  0  0
 44 10  1  0  0  0  0
 45 41  1  0  0  0  0
 45 46  2  0  0  0  0
 47 45  1  0  0  0  0
 48 47  1  0  0  0  0
 49 52  1  0  0  0  0
 49 50  1  0  0  0  0
 50 48  1  0  0  0  0
 50 51  1  0  0  0  0
 52 50  1  0  0  0  0
 52 51  1  0  0  0  0
 53 49  1  0  0  0  0
 54 51  1  0  0  0  0
 54 55  1  0  0  0  0
 55 56  1  0  0  0  0
 56 58  1  0  0  0  0
 57 56  1  0  0  0  0
 58 59  1  0  0  0  0
 61 60  1  0  0  0  0
 62 61  1  0  0  0  0
 62 65  1  0  0  0  0
 63 67  1  0  0  0  0
 64 66  1  0  0  0  0
 65 64  1  0  0  0  0
 65 63  2  0  0  0  0
 66 67  2  0  0  0  0
 68 69  1  0  0  0  0
 69 62  1  0  0  0  0
M  END
>  <MODEL>
2

>  <REMARK>
 VINA RESULT:      -7.8      1.043      2.103
  Name = 
  13 active torsions:
  status: ('A' for Active; 'I' for Inactive)
    1  A    between atoms: C_7  and  C_56
    2  A    between atoms: C_7  and  C_66
    3  A    between atoms: C_8  and  C_30
    4  A    between atoms: O_11  and  C_18
    5  A    between atoms: O_11  and  C_28
    6  A    between atoms: C_12  and  C_22
    7  A    between atoms: C_12  and  C_57
    8  A    between atoms: C_15  and  C_57
    9  A    between atoms: C_19  and  C_28
   10  A    between atoms: C_19  and  C_40
   11  A    between atoms: C_19  and  C_64
   12  A    between atoms: C_22  and  C_54
   13  A    between atoms: C_30  and  C_56
                            x       y       z     vdW  Elec       q    Type
                         _______ _______ _______ _____ _____    ______ ____

>  <TORSDO>
F 13

$$$$
=
 OpenBabel11062418403D

 69 78  0  0  1  0  0  0  0  0999 V2000
  188.7230  178.6320  142.2670 C   0  0  0  0  0  2  0  0  0  0  0  0
  192.2040  174.0030  144.3290 C   0  0  2  0  0  3  0  0  0  0  0  0
  193.9280  169.5760  141.7900 C   0  0  0  0  0  0  0  0  0  0  0  0
  194.5160  170.2170  145.9020 O   0  0  0  0  0  0  0  0  0  0  0  0
  192.9690  175.2790  144.7110 C   0  0  0  0  0  2  0  0  0  0  0  0
  193.2290  172.8990  144.2200 C   0  0  0  0  0  2  0  0  0  0  0  0
  192.6160  169.3030  141.1160 C   0  0  0  0  0  2  0  0  0  0  0  0
  195.7600  172.1100  145.4990 O   0  0  0  0  0  0  0  0  0  0  0  0
  195.0390  169.9010  141.0710 N   0  0  0  0  0  0  0  0  0  0  0  0
  189.3540  175.3900  144.0780 C   0  0  1  0  0  3  0  0  0  0  0  0
  196.2560  170.0370  141.6610 C   0  0  0  0  0  3  0  0  0  0  0  0
  195.2860  169.4440  143.7830 C   0  0  0  0  0  0  0  0  0  0  0  0
  190.5780  177.9850  143.2960 C   0  0  0  0  0  2  0  0  0  0  0  0
  196.4000  169.8150  143.0320 C   0  0  0  0  0  3  0  0  0  0  0  0
  187.0790  176.1370  144.2060 O   0  0  0  0  0  0  0  0  0  0  0  0
  191.4330  174.1740  143.0000 C   0  0  2  0  0  3  0  0  0  0  0  0
  194.6280  171.5870  145.6790 C   0  0  0  0  0  0  0  0  0  0  0  0
  193.6870  169.7910  136.1570 C   0  0  0  0  0  2  0  0  0  0  0  0
  191.4940  171.5620  140.6120 C   0  0  0  0  0  0  0  0  0  0  0  0
  193.2580  170.6040  139.1830 O   0  0  0  0  0  0  0  0  0  0  0  0
  191.5750  168.6880  138.2820 O   0  0  0  0  0  0  0  0  0  0  0  0
  189.9630  173.6010  140.2980 C   0  0  0  0  0  2  0  0  0  0  0  0
  192.5120  170.3880  136.8840 C   0  0  2  0  0  0  0  0  0  0  0  0
  190.6260  172.3840  139.6670 C   0  0  0  0  0  2  0  0  0  0  0  0
  191.4210  176.7010  143.3190 C   0  0  2  0  0  0  0  0  0  0  0  0
  192.3980  176.7910  142.3200 O   0  0  0  0  0  1  0  0  0  0  0  0
  192.8710  171.3310  138.0360 C   0  0  0  0  0  2  0  0  0  0  0  0
  194.0410  169.3230  143.1610 C   0  0  0  0  0  3  0  0  0  0  0  0
  195.4010  169.3010  145.2700 C   0  0  0  0  0  2  0  0  0  0  0  0
  190.5460  175.4510  143.0780 C   0  0  2  0  0  3  0  0  0  0  0  0
  189.4400  173.2290  141.6710 C   0  0  0  0  0  2  0  0  0  0  0  0
  192.0990  176.5340  144.6880 C   0  0  2  0  0  3  0  0  0  0  0  0
  192.8840  177.6480  144.9970 O   0  0  0  0  0  1  0  0  0  0  0  0
  190.0350  178.2130  142.0260 O   0  0  0  0  0  0  0  0  0  0  0  0
  188.0480  176.2890  142.0910 N   0  0  0  0  0  2  0  0  0  0  0  0
  191.3750  169.3970  137.0920 C   0  0  0  0  0  2  0  0  0  0  0  0
  187.7250  177.6430  141.6720 C   0  0  0  0  0  2  0  0  0  0  0  0
  191.0460  169.5160  139.2840 C   0  0  0  0  0  2  0  0  0  0  0  0
  193.4820  172.3430  145.5010 O   0  0  0  0  0  0  0  0  0  0  0  0
  190.6340  172.9060  142.5760 C   0  0  1  0  0  3  0  0  0  0  0  0
  192.7850  170.7960  135.4390 C   0  0  1  0  0  3  0  0  0  0  0  0
  191.4780  171.8120  141.9450 C   0  0  0  0  0  3  0  0  0  0  0  0
  192.1500  170.2980  140.0290 C   0  0  1  0  0  0  0  0  0  0  0  0
  188.0870  175.9310  143.4700 C   0  0  0  0  0  0  0  0  0  0  0  0
  193.5020  172.1150  135.2900 C   0  0  0  0  0  0  0  0  0  0  0  0
  192.8840  173.1250  134.6710 C   0  0  0  0  0  2  0  0  0  0  0  0
  194.9950  172.1520  135.3740 C   0  0  0  0  0  2  0  0  0  0  0  0
  195.5380  173.5550  135.1480 C   0  0  0  0  0  2  0  0  0  0  0  0
  197.2250  175.0340  136.4820 C   0  0  2  0  0  3  0  0  0  0  0  0
  195.9570  174.1720  136.4820 C   0  0  2  0  0  0  0  0  0  0  0  0
  194.8060  174.9020  137.1430 C   0  0  2  0  0  3  0  0  0  0  0  0
  195.8600  175.6830  136.3720 C   0  0  1  0  0  3  0  0  0  0  0  0
  197.9410  175.1440  135.1400 C   0  0  0  0  0  1  0  0  0  0  0  0
  195.0500  174.9390  138.6470 C   0  0  0  0  0  2  0  0  0  0  0  0
  193.8320  174.4510  139.4240 C   0  0  0  0  0  2  0  0  0  0  0  0
  194.1830  174.2730  140.8840 C   0  0  1  0  0  3  0  0  0  0  0  0
  194.4840  172.9450  141.1390 F   0  0  0  0  0  0  0  0  0  0  0  0
  195.3810  175.1420  141.2180 C   0  0  0  0  0  2  0  0  0  0  0  0
  196.0420  174.6440  142.4930 C   0  0  0  0  0  1  0  0  0  0  0  0
  189.1440  174.1120  144.6170 O   0  0  0  0  0  0  0  0  0  0  0  0
  189.4790  174.2250  145.9690 C   0  0  0  0  0  2  0  0  0  0  0  0
  189.1250  175.6070  146.4790 C   0  0  2  0  0  3  0  0  0  0  0  0
  191.0690  175.3190  147.9200 N   0  0  0  0  0  0  0  0  0  0  0  0
  190.3820  177.4720  147.7340 N   0  0  0  0  0  2  0  0  0  0  0  0
  190.2180  176.1070  147.3650 C   0  0  0  0  0  0  0  0  0  0  0  0
  191.5310  177.4830  148.6270 C   0  0  0  0  0  3  0  0  0  0  0  0
  191.9200  176.0820  148.7230 N   0  0  0  0  0  0  0  0  0  0  0  0
  187.2180  176.8250  147.2310 O   0  0  0  0  0  1  0  0  0  0  0  0
  187.7940  175.5610  147.2260 C   0  0  0  0  0  2  0  0  0  0  0  0
  2  6  1  6  0  0  0
  2  5  1  0  0  0  0
  3 28  1  0  0  0  0
  6 39  1  0  0  0  0
  7  3  1  0  0  0  0
  8 17  2  0  0  0  0
  9 11  1  0  0  0  0
  9  3  2  0  0  0  0
 10 60  1  6  0  0  0
 11 14  2  0  0  0  0
 12 29  1  0  0  0  0
 13 25  1  0  0  0  0
 14 12  1  0  0  0  0
 16 30  1  0  0  0  0
 16  2  1  0  0  0  0
 17  4  1  0  0  0  0
 18 23  1  0  0  0  0
 19 42  2  0  0  0  0
 20 43  1  0  0  0  0
 21 38  1  0  0  0  0
 22 31  1  0  0  0  0
 23 36  1  0  0  0  0
 23 27  1  0  0  0  0
 24 22  1  0  0  0  0
 24 19  1  0  0  0  0
 25 32  1  0  0  0  0
 26 25  1  0  0  0  0
 27 20  1  0  0  0  0
 28 12  2  0  0  0  0
 29  4  1  0  0  0  0
 30 25  1  0  0  0  0
 30 10  1  0  0  0  0
 31 40  1  0  0  0  0
 32  5  1  0  0  0  0
 32 33  1  0  0  0  0
 34  1  1  0  0  0  0
 34 13  1  0  0  0  0
 35 44  1  0  0  0  0
 36 21  1  0  0  0  0
 37 35  1  0  0  0  0
 37  1  1  0  0  0  0
 38 43  1  0  0  0  0
 39 17  1  0  0  0  0
 40 16  1  0  0  0  0
 41 18  1  0  0  0  0
 41 23  1  0  0  0  0
 42 40  1  0  0  0  0
 43 19  1  0  0  0  0
 43  7  1  0  0  0  0
 44 10  1  0  0  0  0
 44 15  2  0  0  0  0
 45 47  1  0  0  0  0
 45 41  1  0  0  0  0
 46 45  2  0  0  0  0
 48 47  1  0  0  0  0
 48 50  1  0  0  0  0
 50 49  1  0  0  0  0
 50 51  1  0  0  0  0
 51 54  1  0  0  0  0
 52 50  1  0  0  0  0
 52 49  1  0  0  0  0
 52 51  1  0  0  0  0
 53 49  1  0  0  0  0
 54 55  1  0  0  0  0
 55 56  1  0  0  0  0
 56 57  1  0  0  0  0
 56 58  1  0  0  0  0
 58 59  1  0  0  0  0
 60 61  1  0  0  0  0
 61 62  1  0  0  0  0
 62 69  1  0  0  0  0
 62 65  1  0  0  0  0
 63 67  1  0  0  0  0
 64 66  1  0  0  0  0
 65 64  1  0  0  0  0
 65 63  2  0  0  0  0
 66 67  2  0  0  0  0
 69 68  1  0  0  0  0
M  END
>  <MODEL>
3

>  <REMARK>
 VINA RESULT:      -7.8      2.956      9.225
  Name = 
  13 active torsions:
  status: ('A' for Active; 'I' for Inactive)
    1  A    between atoms: C_7  and  C_56
    2  A    between atoms: C_7  and  C_66
    3  A    between atoms: C_8  and  C_30
    4  A    between atoms: O_11  and  C_18
    5  A    between atoms: O_11  and  C_28
    6  A    between atoms: C_12  and  C_22
    7  A    between atoms: C_12  and  C_57
    8  A    between atoms: C_15  and  C_57
    9  A    between atoms: C_19  and  C_28
   10  A    between atoms: C_19  and  C_40
   11  A    between atoms: C_19  and  C_64
   12  A    between atoms: C_22  and  C_54
   13  A    between atoms: C_30  and  C_56
                            x       y       z     vdW  Elec       q    Type
                         _______ _______ _______ _____ _____    ______ ____

>  <TORSDO>
F 13

$$$$
=
 OpenBabel11062418403D

 69 78  0  0  1  0  0  0  0  0999 V2000
  186.3770  178.5890  142.0730 C   0  0  0  0  0  2  0  0  0  0  0  0
  191.3720  175.7310  144.2340 C   0  0  2  0  0  3  0  0  0  0  0  0
  193.8920  171.3290  142.4220 C   0  0  0  0  0  0  0  0  0  0  0  0
  194.9360  173.2300  146.0220 O   0  0  0  0  0  0  0  0  0  0  0  0
  191.7740  177.2090  144.1260 C   0  0  0  0  0  2  0  0  0  0  0  0
  192.6470  174.9260  144.1360 C   0  0  0  0  0  2  0  0  0  0  0  0
  192.6300  170.5640  142.1580 C   0  0  0  0  0  2  0  0  0  0  0  0
  195.4730  175.1760  144.9200 O   0  0  0  0  0  0  0  0  0  0  0  0
  194.7210  171.6990  141.4050 N   0  0  0  0  0  0  0  0  0  0  0  0
  188.2380  176.2490  144.3630 C   0  0  1  0  0  3  0  0  0  0  0  0
  195.9220  172.2900  141.6410 C   0  0  0  0  0  3  0  0  0  0  0  0
  195.5390  172.1020  144.0120 C   0  0  0  0  0  0  0  0  0  0  0  0
  188.4840  178.7340  142.7490 C   0  0  0  0  0  2  0  0  0  0  0  0
  196.3510  172.5060  142.9530 C   0  0  0  0  0  3  0  0  0  0  0  0
  185.8980  176.4210  144.8570 O   0  0  0  0  0  0  0  0  0  0  0  0
  190.3760  175.3250  143.1240 C   0  0  2  0  0  3  0  0  0  0  0  0
  194.5950  174.4640  145.4760 C   0  0  0  0  0  0  0  0  0  0  0  0
  192.6680  169.8770  137.1090 C   0  0  0  0  0  2  0  0  0  0  0  0
  190.8170  172.2420  141.4410 C   0  0  0  0  0  0  0  0  0  0  0  0
  192.5240  171.3810  139.8870 O   0  0  0  0  0  0  0  0  0  0  0  0
  191.3650  168.9380  139.8670 O   0  0  0  0  0  0  0  0  0  0  0  0
  188.7180  173.6700  141.0500 C   0  0  0  0  0  2  0  0  0  0  0  0
  191.5070  170.3490  137.9410 C   0  0  2  0  0  0  0  0  0  0  0  0
  189.5990  172.5250  140.5700 C   0  0  0  0  0  2  0  0  0  0  0  0
  189.6640  177.7550  142.8590 C   0  0  2  0  0  0  0  0  0  0  0  0
  190.3890  177.7960  141.6620 O   0  0  0  0  0  1  0  0  0  0  0  0
  191.7530  171.6360  138.7310 C   0  0  0  0  0  2  0  0  0  0  0  0
  194.3020  171.5090  143.7470 C   0  0  0  0  0  3  0  0  0  0  0  0
  195.9360  172.4170  145.4210 C   0  0  0  0  0  2  0  0  0  0  0  0
  189.1740  176.3150  143.1210 C   0  0  2  0  0  3  0  0  0  0  0  0
  188.5650  173.5850  142.5560 C   0  0  0  0  0  2  0  0  0  0  0  0
  190.5780  178.1540  144.0280 C   0  0  2  0  0  3  0  0  0  0  0  0
  191.0340  179.4670  143.8830 O   0  0  0  0  0  1  0  0  0  0  0  0
  187.6950  178.4530  141.6270 O   0  0  0  0  0  0  0  0  0  0  0  0
  186.4120  176.2010  142.5940 N   0  0  0  0  0  2  0  0  0  0  0  0
  190.7680  169.2100  138.6310 C   0  0  0  0  0  2  0  0  0  0  0  0
  185.6350  177.2600  141.9710 C   0  0  0  0  0  2  0  0  0  0  0  0
  190.7870  169.8600  140.7530 C   0  0  0  0  0  2  0  0  0  0  0  0
  193.2630  174.8350  145.4110 O   0  0  0  0  0  0  0  0  0  0  0  0
  189.9330  173.8330  143.1990 C   0  0  1  0  0  3  0  0  0  0  0  0
  191.4020  170.3850  136.4190 C   0  0  1  0  0  3  0  0  0  0  0  0
  190.9480  172.8470  142.6480 C   0  0  0  0  0  3  0  0  0  0  0  0
  191.7150  171.0660  141.0190 C   0  0  1  0  0  0  0  0  0  0  0  0
  186.7840  176.2690  143.9690 C   0  0  0  0  0  0  0  0  0  0  0  0
  191.6570  171.7420  135.8100 C   0  0  0  0  0  0  0  0  0  0  0  0
  190.6180  172.5080  135.4690 C   0  0  0  0  0  2  0  0  0  0  0  0
  192.9760  172.0170  135.1590 C   0  0  0  0  0  2  0  0  0  0  0  0
  193.1480  173.4940  134.8380 C   0  0  0  0  0  2  0  0  0  0  0  0
  194.2170  175.4010  136.2640 C   0  0  2  0  0  3  0  0  0  0  0  0
  194.3740  174.0450  135.5650 C   0  0  2  0  0  0  0  0  0  0  0  0
  194.9730  173.0180  136.5030 C   0  0  2  0  0  3  0  0  0  0  0  0
  194.0700  174.1140  137.0510 C   0  0  1  0  0  3  0  0  0  0  0  0
  192.8490  176.0580  136.1190 C   0  0  0  0  0  1  0  0  0  0  0  0
  196.4500  173.3380  136.7010 C   0  0  0  0  0  2  0  0  0  0  0  0
  197.2490  172.0920  137.0640 C   0  0  0  0  0  2  0  0  0  0  0  0
  196.3620  170.8690  137.0020 C   0  0  1  0  0  3  0  0  0  0  0  0
  196.9160  169.9260  136.1520 F   0  0  0  0  0  0  0  0  0  0  0  0
  196.2230  170.2830  138.3950 C   0  0  0  0  0  2  0  0  0  0  0  0
  197.5820  169.8300  138.9030 C   0  0  0  0  0  1  0  0  0  0  0  0
  188.5110  175.1640  145.2110 O   0  0  0  0  0  0  0  0  0  0  0  0
  188.2220  175.6240  146.4980 C   0  0  0  0  0  2  0  0  0  0  0  0
  188.7740  177.0230  146.6870 C   0  0  2  0  0  3  0  0  0  0  0  0
  190.4400  177.9790  148.1870 N   0  0  0  0  0  0  0  0  0  0  0  0
  190.8450  175.8180  147.6300 N   0  0  0  0  0  2  0  0  0  0  0  0
  190.0050  176.9630  147.5290 C   0  0  0  0  0  0  0  0  0  0  0  0
  191.9290  176.2260  148.5110 C   0  0  0  0  0  3  0  0  0  0  0  0
  191.6300  177.6170  148.8240 N   0  0  0  0  0  0  0  0  0  0  0  0
  186.6050  177.1540  147.6690 O   0  0  0  0  0  1  0  0  0  0  0  0
  187.7160  177.9160  147.3300 C   0  0  0  0  0  2  0  0  0  0  0  0
  2  5  1  6  0  0  0
  3 28  1  0  0  0  0
  6  2  1  0  0  0  0
  6 39  1  0  0  0  0
  7  3  1  0  0  0  0
  8 17  2  0  0  0  0
  9 11  1  0  0  0  0
  9  3  2  0  0  0  0
 10 60  1  6  0  0  0
 11 14  2  0  0  0  0
 12 29  1  0  0  0  0
 13 25  1  0  0  0  0
 14 12  1  0  0  0  0
 16 40  1  0  0  0  0
 16  2  1  0  0  0  0
 17  4  1  0  0  0  0
 18 23  1  0  0  0  0
 19 42  2  0  0  0  0
 20 43  1  0  0  0  0
 21 38  1  0  0  0  0
 22 31  1  0  0  0  0
 23 36  1  0  0  0  0
 23 27  1  0  0  0  0
 24 22  1  0  0  0  0
 24 19  1  0  0  0  0
 25 30  1  0  0  0  0
 25 32  1  0  0  0  0
 26 25  1  0  0  0  0
 27 20  1  0  0  0  0
 28 12  2  0  0  0  0
 29  4  1  0  0  0  0
 30 16  1  0  0  0  0
 30 10  1  0  0  0  0
 31 40  1  0  0  0  0
 32  5  1  0  0  0  0
 33 32  1  0  0  0  0
 34  1  1  0  0  0  0
 34 13  1  0  0  0  0
 35 44  1  0  0  0  0
 36 21  1  0  0  0  0
 37  1  1  0  0  0  0
 37 35  1  0  0  0  0
 38 43  1  0  0  0  0
 39 17  1  0  0  0  0
 41 18  1  0  0  0  0
 41 23  1  0  0  0  0
 42 40  1  0  0  0  0
 43 19  1  0  0  0  0
 43  7  1  0  0  0  0
 44 10  1  0  0  0  0
 44 15  2  0  0  0  0
 45 41  1  0  0  0  0
 46 45  2  0  0  0  0
 47 45  1  0  0  0  0
 48 47  1  0  0  0  0
 48 50  1  0  0  0  0
 49 52  1  0  0  0  0
 50 49  1  0  0  0  0
 50 51  1  0  0  0  0
 50 52  1  0  0  0  0
 51 54  1  0  0  0  0
 51 52  1  0  0  0  0
 53 49  1  0  0  0  0
 54 55  1  0  0  0  0
 56 55  1  0  0  0  0
 56 58  1  0  0  0  0
 57 56  1  0  0  0  0
 58 59  1  0  0  0  0
 60 61  1  0  0  0  0
 61 62  1  0  0  0  0
 62 69  1  0  0  0  0
 62 65  1  0  0  0  0
 63 67  1  0  0  0  0
 64 66  1  0  0  0  0
 65 64  1  0  0  0  0
 65 63  2  0  0  0  0
 66 67  2  0  0  0  0
 69 68  1  0  0  0  0
M  END
>  <MODEL>
4

>  <REMARK>
 VINA RESULT:      -7.2      3.479      9.598
  Name = 
  13 active torsions:
  status: ('A' for Active; 'I' for Inactive)
    1  A    between atoms: C_7  and  C_56
    2  A    between atoms: C_7  and  C_66
    3  A    between atoms: C_8  and  C_30
    4  A    between atoms: O_11  and  C_18
    5  A    between atoms: O_11  and  C_28
    6  A    between atoms: C_12  and  C_22
    7  A    between atoms: C_12  and  C_57
    8  A    between atoms: C_15  and  C_57
    9  A    between atoms: C_19  and  C_28
   10  A    between atoms: C_19  and  C_40
   11  A    between atoms: C_19  and  C_64
   12  A    between atoms: C_22  and  C_54
   13  A    between atoms: C_30  and  C_56
                            x       y       z     vdW  Elec       q    Type
                         _______ _______ _______ _____ _____    ______ ____

>  <TORSDO>
F 13

$$$$
=
 OpenBabel11062418403D

 69 78  0  0  1  0  0  0  0  0999 V2000
  186.4050  178.4250  142.1370 C   0  0  0  0  0  2  0  0  0  0  0  0
  191.4800  175.7200  144.3110 C   0  0  2  0  0  3  0  0  0  0  0  0
  193.9370  171.1980  142.7230 C   0  0  0  0  0  0  0  0  0  0  0  0
  195.1090  173.3480  146.1390 O   0  0  0  0  0  0  0  0  0  0  0  0
  191.8750  177.1870  144.0830 C   0  0  0  0  0  2  0  0  0  0  0  0
  192.7500  174.9090  144.2230 C   0  0  0  0  0  2  0  0  0  0  0  0
  192.6660  170.4180  142.5610 C   0  0  0  0  0  2  0  0  0  0  0  0
  195.6030  175.2100  144.8820 O   0  0  0  0  0  0  0  0  0  0  0  0
  194.7270  171.4940  141.6520 N   0  0  0  0  0  0  0  0  0  0  0  0
  188.3510  176.2500  144.5170 C   0  0  1  0  0  3  0  0  0  0  0  0
  195.9360  172.0990  141.8030 C   0  0  0  0  0  3  0  0  0  0  0  0
  195.6400  172.0790  144.1920 C   0  0  0  0  0  0  0  0  0  0  0  0
  188.5350  178.6150  142.7230 C   0  0  0  0  0  2  0  0  0  0  0  0
  196.4120  172.4070  143.0790 C   0  0  0  0  0  3  0  0  0  0  0  0
  186.0310  176.4600  145.0840 O   0  0  0  0  0  0  0  0  0  0  0  0
  190.4430  175.2390  143.2690 C   0  0  2  0  0  3  0  0  0  0  0  0
  194.7470  174.5410  145.5200 C   0  0  0  0  0  0  0  0  0  0  0  0
  192.5210  169.3750  137.5750 C   0  0  0  0  0  2  0  0  0  0  0  0
  190.8260  172.0430  141.7940 C   0  0  0  0  0  0  0  0  0  0  0  0
  192.4760  171.0730  140.2430 O   0  0  0  0  0  0  0  0  0  0  0  0
  191.3210  168.6360  140.4380 O   0  0  0  0  0  0  0  0  0  0  0  0
  188.7130  173.4430  141.3800 C   0  0  0  0  0  2  0  0  0  0  0  0
  191.3900  169.9070  138.4130 C   0  0  2  0  0  0  0  0  0  0  0  0
  189.5770  172.2650  140.9500 C   0  0  0  0  0  2  0  0  0  0  0  0
  189.7190  177.6450  142.8590 C   0  0  2  0  0  0  0  0  0  0  0  0
  190.4000  177.6000  141.6360 O   0  0  0  0  0  1  0  0  0  0  0  0
  191.6630  171.2460  139.1010 C   0  0  0  0  0  2  0  0  0  0  0  0
  194.3940  171.4710  144.0160 C   0  0  0  0  0  3  0  0  0  0  0  0
  196.0880  172.4930  145.5610 C   0  0  0  0  0  2  0  0  0  0  0  0
  189.2410  176.2270  143.2410 C   0  0  2  0  0  3  0  0  0  0  0  0
  188.6150  173.4650  142.8920 C   0  0  0  0  0  2  0  0  0  0  0  0
  190.6750  178.1240  143.9630 C   0  0  2  0  0  3  0  0  0  0  0  0
  191.1240  179.4230  143.7080 O   0  0  0  0  0  1  0  0  0  0  0  0
  187.7060  178.2570  141.6540 O   0  0  0  0  0  0  0  0  0  0  0  0
  186.4620  176.0800  142.8240 N   0  0  0  0  0  2  0  0  0  0  0  0
  190.6790  168.8210  139.2090 C   0  0  0  0  0  2  0  0  0  0  0  0
  185.6610  177.0930  142.1570 C   0  0  0  0  0  2  0  0  0  0  0  0
  190.7740  169.6180  141.2780 C   0  0  0  0  0  2  0  0  0  0  0  0
  193.4140  174.9070  145.4770 O   0  0  0  0  0  0  0  0  0  0  0  0
  190.0060  173.7560  143.4660 C   0  0  1  0  0  3  0  0  0  0  0  0
  191.2290  169.8350  136.8970 C   0  0  1  0  0  3  0  0  0  0  0  0
  191.0010  172.7320  142.9490 C   0  0  0  0  0  3  0  0  0  0  0  0
  191.7100  170.8390  141.4230 C   0  0  1  0  0  0  0  0  0  0  0  0
  186.8840  176.2440  144.1770 C   0  0  0  0  0  0  0  0  0  0  0  0
  191.4600  171.1450  136.1850 C   0  0  0  0  0  0  0  0  0  0  0  0
  192.6790  171.4250  135.7160 C   0  0  0  0  0  2  0  0  0  0  0  0
  190.5210  172.2850  136.4250 C   0  0  0  0  0  2  0  0  0  0  0  0
  190.1630  173.0010  135.1310 C   0  0  0  0  0  2  0  0  0  0  0  0
  189.8390  175.5720  134.8190 C   0  0  2  0  0  3  0  0  0  0  0  0
  190.7800  174.4000  135.1220 C   0  0  2  0  0  0  0  0  0  0  0  0
  191.5850  174.6600  136.3780 C   0  0  2  0  0  3  0  0  0  0  0  0
  190.1700  175.2080  136.2520 C   0  0  1  0  0  3  0  0  0  0  0  0
  188.3920  175.1920  134.5270 C   0  0  0  0  0  1  0  0  0  0  0  0
  192.6390  175.7180  136.0720 C   0  0  0  0  0  2  0  0  0  0  0  0
  193.7870  175.6680  137.0740 C   0  0  0  0  0  2  0  0  0  0  0  0
  194.7330  174.5410  136.7260 C   0  0  1  0  0  3  0  0  0  0  0  0
  194.7300  174.3270  135.3570 F   0  0  0  0  0  0  0  0  0  0  0  0
  196.1330  174.9050  137.1840 C   0  0  0  0  0  2  0  0  0  0  0  0
  196.8060  175.7830  136.1400 C   0  0  0  0  0  1  0  0  0  0  0  0
  188.6570  175.2280  145.4290 O   0  0  0  0  0  0  0  0  0  0  0  0
  188.3000  175.7360  146.6810 C   0  0  0  0  0  2  0  0  0  0  0  0
  188.7450  177.1790  146.8040 C   0  0  2  0  0  3  0  0  0  0  0  0
  190.8990  176.3350  147.5700 N   0  0  0  0  0  0  0  0  0  0  0  0
  190.2720  178.2750  148.5640 N   0  0  0  0  0  0  0  0  0  0  0  0
  189.9940  177.2480  147.6180 C   0  0  0  0  0  0  0  0  0  0  0  0
  191.5600  177.9160  149.1390 C   0  0  0  0  0  3  0  0  0  0  0  0
  191.9060  176.6620  148.4810 N   0  0  0  0  0  2  0  0  0  0  0  0
  186.5650  177.1920  147.7700 O   0  0  0  0  0  1  0  0  0  0  0  0
  187.6340  178.0140  147.4360 C   0  0  0  0  0  2  0  0  0  0  0  0
  1 37  1  0  0  0  0
  2  5  1  6  0  0  0
  3 28  1  0  0  0  0
  6  2  1  0  0  0  0
  6 39  1  0  0  0  0
  7  3  1  0  0  0  0
  8 17  2  0  0  0  0
  9 11  1  0  0  0  0
  9  3  2  0  0  0  0
 10 60  1  1  0  0  0
 11 14  2  0  0  0  0
 12 29  1  0  0  0  0
 13 25  1  0  0  0  0
 14 12  1  0  0  0  0
 16 40  1  0  0  0  0
 16  2  1  0  0  0  0
 17  4  1  0  0  0  0
 18 23  1  0  0  0  0
 19 42  2  0  0  0  0
 20 43  1  0  0  0  0
 21 38  1  0  0  0  0
 22 31  1  0  0  0  0
 23 27  1  0  0  0  0
 23 36  1  0  0  0  0
 24 22  1  0  0  0  0
 24 19  1  0  0  0  0
 25 30  1  0  0  0  0
 25 32  1  0  0  0  0
 26 25  1  0  0  0  0
 27 20  1  0  0  0  0
 28 12  2  0  0  0  0
 29  4  1  0  0  0  0
 30 16  1  0  0  0  0
 30 10  1  0  0  0  0
 31 40  1  0  0  0  0
 32  5  1  0  0  0  0
 33 32  1  0  0  0  0
 34  1  1  0  0  0  0
 34 13  1  0  0  0  0
 35 44  1  0  0  0  0
 36 21  1  0  0  0  0
 37 35  1  0  0  0  0
 38 43  1  0  0  0  0
 39 17  1  0  0  0  0
 41 18  1  0  0  0  0
 41 23  1  0  0  0  0
 42 40  1  0  0  0  0
 43 19  1  0  0  0  0
 43  7  1  0  0  0  0
 44 10  1  0  0  0  0
 44 15  2  0  0  0  0
 45 47  1  0  0  0  0
 45 41  1  0  0  0  0
 46 45  2  0  0  0  0
 48 47  1  0  0  0  0
 49 50  1  0  0  0  0
 49 52  1  0  0  0  0
 50 48  1  0  0  0  0
 50 52  1  0  0  0  0
 50 51  1  0  0  0  0
 52 51  1  0  0  0  0
 53 49  1  0  0  0  0
 54 51  1  0  0  0  0
 54 55  1  0  0  0  0
 56 55  1  0  0  0  0
 56 58  1  0  0  0  0
 57 56  1  0  0  0  0
 59 58  1  0  0  0  0
 60 61  1  0  0  0  0
 61 62  1  0  0  0  0
 62 69  1  0  0  0  0
 62 65  1  0  0  0  0
 63 65  2  0  0  0  0
 63 67  1  0  0  0  0
 64 66  2  0  0  0  0
 65 64  1  0  0  0  0
 67 66  1  0  0  0  0
 69 68  1  0  0  0  0
M  END
>  <MODEL>
5

>  <REMARK>
 VINA RESULT:      -6.7      3.305      9.126
  Name = 
  13 active torsions:
  status: ('A' for Active; 'I' for Inactive)
    1  A    between atoms: C_7  and  C_56
    2  A    between atoms: C_7  and  C_66
    3  A    between atoms: C_8  and  C_30
    4  A    between atoms: O_11  and  C_18
    5  A    between atoms: O_11  and  C_28
    6  A    between atoms: C_12  and  C_22
    7  A    between atoms: C_12  and  C_57
    8  A    between atoms: C_15  and  C_57
    9  A    between atoms: C_19  and  C_28
   10  A    between atoms: C_19  and  C_40
   11  A    between atoms: C_19  and  C_64
   12  A    between atoms: C_22  and  C_54
   13  A    between atoms: C_30  and  C_56
                            x       y       z     vdW  Elec       q    Type
                         _______ _______ _______ _____ _____    ______ ____

>  <TORSDO>
F 13

$$$$
=
 OpenBabel11062418403D

 69 78  0  0  1  0  0  0  0  0999 V2000
  189.4090  173.4380  136.1260 C   0  0  0  0  0  2  0  0  0  0  0  0
  193.7870  170.8930  139.6110 C   0  0  2  0  0  3  0  0  0  0  0  0
  195.9600  172.6080  144.2320 C   0  0  0  0  0  0  0  0  0  0  0  0
  197.3990  169.2560  142.1450 O   0  0  0  0  0  0  0  0  0  0  0  0
  192.7720  169.7680  139.3590 C   0  0  0  0  0  2  0  0  0  0  0  0
  194.4950  170.5580  140.9030 C   0  0  0  0  0  2  0  0  0  0  0  0
  196.0690  174.0380  143.7930 C   0  0  0  0  0  2  0  0  0  0  0  0
  195.3850  168.1660  142.3680 O   0  0  0  0  0  0  0  0  0  0  0  0
  195.1350  172.2430  145.2540 N   0  0  0  0  0  0  0  0  0  0  0  0
  192.9620  172.6500  137.0930 C   0  0  1  0  0  3  0  0  0  0  0  0
  195.1150  170.9710  145.7350 C   0  0  0  0  0  3  0  0  0  0  0  0
  196.8530  170.3640  144.1830 C   0  0  0  0  0  0  0  0  0  0  0  0
  190.1660  171.6420  137.1830 C   0  0  0  0  0  2  0  0  0  0  0  0
  195.9730  170.0060  145.2020 C   0  0  0  0  0  3  0  0  0  0  0  0
  192.7760  173.9280  135.0720 O   0  0  0  0  0  0  0  0  0  0  0  0
  193.0990  172.2750  139.7000 C   0  0  2  0  0  3  0  0  0  0  0  0
  196.1080  168.9630  141.7130 C   0  0  0  0  0  0  0  0  0  0  0  0
  192.9690  176.5190  146.9870 C   0  0  0  0  0  2  0  0  0  0  0  0
  194.0910  174.5450  142.2290 C   0  0  0  0  0  0  0  0  0  0  0  0
  193.8830  174.5530  144.6840 O   0  0  0  0  0  0  0  0  0  0  0  0
  195.3300  176.8310  144.8620 O   0  0  0  0  0  0  0  0  0  0  0  0
  192.4620  175.2620  140.3770 C   0  0  0  0  0  2  0  0  0  0  0  0
  193.0270  176.6760  145.4910 C   0  0  2  0  0  0  0  0  0  0  0  0
  193.0620  175.5590  141.7450 C   0  0  0  0  0  2  0  0  0  0  0  0
  191.1240  171.3910  138.3570 C   0  0  2  0  0  0  0  0  0  0  0  0
  190.3780  171.3700  139.5420 O   0  0  0  0  0  1  0  0  0  0  0  0
  192.7520  175.3990  144.6920 C   0  0  0  0  0  2  0  0  0  0  0  0
  196.8480  171.6730  143.6930 C   0  0  0  0  0  3  0  0  0  0  0  0
  197.7070  169.3200  143.5310 C   0  0  0  0  0  2  0  0  0  0  0  0
  192.2060  172.4900  138.4430 C   0  0  2  0  0  3  0  0  0  0  0  0
  193.5590  174.7940  139.4410 C   0  0  0  0  0  2  0  0  0  0  0  0
  191.8440  170.0450  138.1790 C   0  0  2  0  0  3  0  0  0  0  0  0
  190.9260  168.9990  138.0540 O   0  0  0  0  0  1  0  0  0  0  0  0
  189.4220  172.8120  137.3750 O   0  0  0  0  0  0  0  0  0  0  0  0
  191.4150  174.6490  136.8220 N   0  0  0  0  0  2  0  0  0  0  0  0
  194.1610  177.5820  145.0320 C   0  0  0  0  0  2  0  0  0  0  0  0
  190.1110  174.7910  136.1950 C   0  0  0  0  0  2  0  0  0  0  0  0
  195.2250  176.2970  143.5680 C   0  0  0  0  0  2  0  0  0  0  0  0
  195.5710  169.6680  140.6510 O   0  0  0  0  0  0  0  0  0  0  0  0
  194.0910  173.4500  139.9480 C   0  0  1  0  0  3  0  0  0  0  0  0
  191.9060  177.3550  146.2720 C   0  0  1  0  0  3  0  0  0  0  0  0
  194.5560  173.5890  141.3870 C   0  0  0  0  0  3  0  0  0  0  0  0
  194.7550  174.8250  143.5890 C   0  0  1  0  0  0  0  0  0  0  0  0
  192.4090  173.7870  136.2740 C   0  0  0  0  0  0  0  0  0  0  0  0
  190.5940  176.6100  146.2510 C   0  0  0  0  0  0  0  0  0  0  0  0
  190.2630  175.8440  147.2940 C   0  0  0  0  0  2  0  0  0  0  0  0
  189.9280  176.3350  144.9390 C   0  0  0  0  0  2  0  0  0  0  0  0
  188.4160  176.2500  145.0830 C   0  0  0  0  0  2  0  0  0  0  0  0
  186.5690  175.8240  143.2890 C   0  0  2  0  0  3  0  0  0  0  0  0
  187.8400  175.3420  143.9970 C   0  0  2  0  0  0  0  0  0  0  0  0
  188.8990  174.9340  142.9940 C   0  0  2  0  0  3  0  0  0  0  0  0
  187.9290  176.0600  142.6630 C   0  0  1  0  0  3  0  0  0  0  0  0
  186.0080  177.1530  143.7830 C   0  0  0  0  0  1  0  0  0  0  0  0
  188.4850  173.6130  142.3550 C   0  0  0  0  0  2  0  0  0  0  0  0
  189.1950  172.4320  143.0060 C   0  0  0  0  0  2  0  0  0  0  0  0
  189.5650  172.7690  144.4330 C   0  0  1  0  0  3  0  0  0  0  0  0
  189.0130  171.8370  145.2960 F   0  0  0  0  0  0  0  0  0  0  0  0
  191.0760  172.7610  144.5710 C   0  0  0  0  0  2  0  0  0  0  0  0
  191.6970  171.9930  143.4150 C   0  0  0  0  0  1  0  0  0  0  0  0
  194.3520  172.7730  137.2440 O   0  0  0  0  0  0  0  0  0  0  0  0
  194.8930  171.6950  136.5380 C   0  0  0  0  0  2  0  0  0  0  0  0
  196.3260  171.4570  136.9700 C   0  0  2  0  0  3  0  0  0  0  0  0
  197.1910  172.3260  139.0760 N   0  0  0  0  0  0  0  0  0  0  0  0
  196.6740  173.9380  137.5660 N   0  0  0  0  0  2  0  0  0  0  0  0
  196.7590  172.5530  137.8860 C   0  0  0  0  0  0  0  0  0  0  0  0
  197.1610  174.6260  138.7520 C   0  0  0  0  0  3  0  0  0  0  0  0
  197.4610  173.5520  139.6890 N   0  0  0  0  0  0  0  0  0  0  0  0
  196.5840  170.6900  134.7270 O   0  0  0  0  0  1  0  0  0  0  0  0
  197.2330  171.3790  135.7440 C   0  0  0  0  0  2  0  0  0  0  0  0
  1 37  1  0  0  0  0
  1 34  1  0  0  0  0
  2  5  1  1  0  0  0
  2 16  1  0  0  0  0
  2  6  1  0  0  0  0
  3  9  1  0  0  0  0
  4 29  1  0  0  0  0
  7  3  1  0  0  0  0
  9 11  2  0  0  0  0
 10 60  1  1  0  0  0
 10 30  1  0  0  0  0
 12 14  2  0  0  0  0
 13 34  1  0  0  0  0
 13 25  1  0  0  0  0
 14 11  1  0  0  0  0
 15 44  2  0  0  0  0
 16 40  1  0  0  0  0
 17  4  1  0  0  0  0
 17  8  2  0  0  0  0
 19 43  1  0  0  0  0
 20 27  1  0  0  0  0
 21 36  1  0  0  0  0
 22 24  1  0  0  0  0
 23 41  1  0  0  0  0
 23 18  1  0  0  0  0
 24 19  1  0  0  0  0
 25 30  1  0  0  0  0
 25 26  1  0  0  0  0
 27 23  1  0  0  0  0
 28 12  1  0  0  0  0
 28  3  2  0  0  0  0
 29 12  1  0  0  0  0
 30 16  1  0  0  0  0
 31 40  1  0  0  0  0
 31 22  1  0  0  0  0
 32 25  1  0  0  0  0
 32  5  1  0  0  0  0
 33 32  1  0  0  0  0
 36 23  1  0  0  0  0
 37 35  1  0  0  0  0
 38 43  1  0  0  0  0
 38 21  1  0  0  0  0
 39  6  1  0  0  0  0
 39 17  1  0  0  0  0
 40 42  1  0  0  0  0
 41 18  1  0  0  0  0
 42 19  2  0  0  0  0
 43  7  1  0  0  0  0
 43 20  1  0  0  0  0
 44 35  1  0  0  0  0
 44 10  1  0  0  0  0
 45 41  1  0  0  0  0
 45 46  2  0  0  0  0
 47 48  1  0  0  0  0
 47 45  1  0  0  0  0
 49 53  1  0  0  0  0
 49 50  1  0  0  0  0
 50 48  1  0  0  0  0
 51 50  1  0  0  0  0
 52 51  1  0  0  0  0
 52 49  1  0  0  0  0
 52 50  1  0  0  0  0
 54 51  1  0  0  0  0
 54 55  1  0  0  0  0
 55 56  1  0  0  0  0
 56 58  1  0  0  0  0
 56 57  1  0  0  0  0
 59 58  1  0  0  0  0
 61 62  1  0  0  0  0
 61 60  1  0  0  0  0
 62 65  1  0  0  0  0
 63 67  1  0  0  0  0
 64 65  1  0  0  0  0
 64 66  1  0  0  0  0
 65 63  2  0  0  0  0
 66 67  2  0  0  0  0
 68 69  1  0  0  0  0
 69 62  1  0  0  0  0
M  END
>  <MODEL>
6

>  <REMARK>
 VINA RESULT:      -6.3      1.766      2.453
  Name = 
  13 active torsions:
  status: ('A' for Active; 'I' for Inactive)
    1  A    between atoms: C_7  and  C_56
    2  A    between atoms: C_7  and  C_66
    3  A    between atoms: C_8  and  C_30
    4  A    between atoms: O_11  and  C_18
    5  A    between atoms: O_11  and  C_28
    6  A    between atoms: C_12  and  C_22
    7  A    between atoms: C_12  and  C_57
    8  A    between atoms: C_15  and  C_57
    9  A    between atoms: C_19  and  C_28
   10  A    between atoms: C_19  and  C_40
   11  A    between atoms: C_19  and  C_64
   12  A    between atoms: C_22  and  C_54
   13  A    between atoms: C_30  and  C_56
                            x       y       z     vdW  Elec       q    Type
                         _______ _______ _______ _____ _____    ______ ____

>  <TORSDO>
F 13

$$$$
=
 OpenBabel11062418403D

 69 78  0  0  1  0  0  0  0  0999 V2000
  188.6740  172.4420  137.0760 C   0  0  0  0  0  2  0  0  0  0  0  0
  193.5780  170.5770  140.2800 C   0  0  2  0  0  3  0  0  0  0  0  0
  195.8550  172.7100  144.6700 C   0  0  0  0  0  0  0  0  0  0  0  0
  197.5420  169.4850  142.5690 O   0  0  0  0  0  0  0  0  0  0  0  0
  192.6950  169.3280  140.1370 C   0  0  0  0  0  2  0  0  0  0  0  0
  194.4150  170.3770  141.5210 C   0  0  0  0  0  2  0  0  0  0  0  0
  195.7530  174.1260  144.1860 C   0  0  0  0  0  2  0  0  0  0  0  0
  195.7010  168.1660  142.9770 O   0  0  0  0  0  0  0  0  0  0  0  0
  195.1590  172.2840  145.7620 N   0  0  0  0  0  0  0  0  0  0  0  0
  192.3590  172.1280  137.7870 C   0  0  1  0  0  3  0  0  0  0  0  0
  195.3330  171.0380  146.2780 C   0  0  0  0  0  3  0  0  0  0  0  0
  197.0140  170.5910  144.6130 C   0  0  0  0  0  0  0  0  0  0  0  0
  189.7240  170.7910  138.1190 C   0  0  0  0  0  2  0  0  0  0  0  0
  196.2620  170.1650  145.7070 C   0  0  0  0  0  3  0  0  0  0  0  0
  191.8670  173.2990  135.7530 O   0  0  0  0  0  0  0  0  0  0  0  0
  192.7320  171.8670  140.3850 C   0  0  2  0  0  3  0  0  0  0  0  0
  196.2700  169.0210  142.2460 C   0  0  0  0  0  0  0  0  0  0  0  0
  192.6120  176.3240  147.5420 C   0  0  0  0  0  2  0  0  0  0  0  0
  193.6180  174.3310  142.7670 C   0  0  0  0  0  0  0  0  0  0  0  0
  193.5920  174.4030  145.2300 O   0  0  0  0  0  0  0  0  0  0  0  0
  194.7530  176.8450  145.2340 O   0  0  0  0  0  0  0  0  0  0  0  0
  191.7810  174.7770  141.0280 C   0  0  0  0  0  2  0  0  0  0  0  0
  192.5410  176.4330  146.0430 C   0  0  2  0  0  0  0  0  0  0  0  0
  192.4390  175.1940  142.3370 C   0  0  0  0  0  2  0  0  0  0  0  0
  190.7890  170.7010  139.2230 C   0  0  2  0  0  0  0  0  0  0  0  0
  190.1410  170.6320  140.4620 O   0  0  0  0  0  1  0  0  0  0  0  0
  192.3690  175.1040  145.3020 C   0  0  0  0  0  2  0  0  0  0  0  0
  196.8110  171.8710  144.0890 C   0  0  0  0  0  3  0  0  0  0  0  0
  197.9410  169.6360  143.9260 C   0  0  0  0  0  2  0  0  0  0  0  0
  191.7300  171.9250  139.1950 C   0  0  2  0  0  3  0  0  0  0  0  0
  192.8560  174.4130  140.0230 C   0  0  0  0  0  2  0  0  0  0  0  0
  191.6560  169.4470  139.0250 C   0  0  2  0  0  3  0  0  0  0  0  0
  190.8680  168.2930  139.0000 O   0  0  0  0  0  1  0  0  0  0  0  0
  188.8570  171.8670  138.3370 O   0  0  0  0  0  0  0  0  0  0  0  0
  190.5590  173.9120  137.5830 N   0  0  0  0  0  2  0  0  0  0  0  0
  193.5170  177.4530  145.4740 C   0  0  0  0  0  2  0  0  0  0  0  0
  189.2060  173.8720  137.0540 C   0  0  0  0  0  2  0  0  0  0  0  0
  194.6210  176.2550  143.9670 C   0  0  0  0  0  2  0  0  0  0  0  0
  195.5720  169.6160  141.2100 O   0  0  0  0  0  0  0  0  0  0  0  0
  193.5860  173.1620  140.5230 C   0  0  1  0  0  3  0  0  0  0  0  0
  191.4040  176.9980  146.8900 C   0  0  1  0  0  3  0  0  0  0  0  0
  194.1350  173.4090  141.9180 C   0  0  0  0  0  3  0  0  0  0  0  0
  194.3410  174.7390  144.0630 C   0  0  1  0  0  0  0  0  0  0  0  0
  191.6100  173.1580  136.9820 C   0  0  0  0  0  0  0  0  0  0  0  0
  190.1970  176.0990  146.9910 C   0  0  0  0  0  0  0  0  0  0  0  0
  190.2510  174.8740  146.4590 C   0  0  0  0  0  2  0  0  0  0  0  0
  188.8490  176.7040  147.2220 C   0  0  0  0  0  2  0  0  0  0  0  0
  187.7730  176.0180  146.3930 C   0  0  0  0  0  2  0  0  0  0  0  0
  186.2890  177.4230  144.7700 C   0  0  2  0  0  3  0  0  0  0  0  0
  187.6250  176.7250  145.0450 C   0  0  2  0  0  0  0  0  0  0  0  0
  188.7890  177.6550  144.7740 C   0  0  2  0  0  3  0  0  0  0  0  0
  187.4710  178.2150  145.2900 C   0  0  1  0  0  3  0  0  0  0  0  0
  185.2450  177.2990  145.8730 C   0  0  0  0  0  1  0  0  0  0  0  0
  188.9360  177.8280  143.2670 C   0  0  0  0  0  2  0  0  0  0  0  0
  189.3610  176.5280  142.5930 C   0  0  0  0  0  2  0  0  0  0  0  0
  188.2010  175.5590  142.5540 C   0  0  1  0  0  3  0  0  0  0  0  0
  187.0600  176.2060  142.1100 F   0  0  0  0  0  0  0  0  0  0  0  0
  188.5390  174.4160  141.6140 C   0  0  0  0  0  2  0  0  0  0  0  0
  187.7940  173.1610  142.0390 C   0  0  0  0  0  1  0  0  0  0  0  0
  193.7300  172.4250  137.8260 O   0  0  0  0  0  0  0  0  0  0  0  0
  194.3460  171.4040  137.0970 C   0  0  0  0  0  2  0  0  0  0  0  0
  195.5280  171.9550  136.3250 C   0  0  2  0  0  3  0  0  0  0  0  0
  195.7350  169.6630  135.5230 N   0  0  0  0  0  0  0  0  0  0  0  0
  197.5790  170.9300  135.1520 N   0  0  0  0  0  0  0  0  0  0  0  0
  196.2490  170.8350  135.6500 C   0  0  0  0  0  0  0  0  0  0  0  0
  197.8770  169.6070  134.6250 C   0  0  0  0  0  3  0  0  0  0  0  0
  196.6730  168.8340  134.9020 N   0  0  0  0  0  2  0  0  0  0  0  0
  196.2570  174.0800  137.1240 O   0  0  0  0  0  1  0  0  0  0  0  0
  196.4580  172.7130  137.2690 C   0  0  0  0  0  2  0  0  0  0  0  0
  1 34  1  0  0  0  0
  2  5  1  1  0  0  0
  2 16  1  0  0  0  0
  2  6  1  0  0  0  0
  3  9  1  0  0  0  0
  4 29  1  0  0  0  0
  7  3  1  0  0  0  0
  9 11  2  0  0  0  0
 10 60  1  1  0  0  0
 10 30  1  0  0  0  0
 12 14  2  0  0  0  0
 13 34  1  0  0  0  0
 13 25  1  0  0  0  0
 14 11  1  0  0  0  0
 15 44  2  0  0  0  0
 16 40  1  0  0  0  0
 17  4  1  0  0  0  0
 17  8  2  0  0  0  0
 19 43  1  0  0  0  0
 20 27  1  0  0  0  0
 21 36  1  0  0  0  0
 22 24  1  0  0  0  0
 23 41  1  0  0  0  0
 23 18  1  0  0  0  0
 24 19  1  0  0  0  0
 25 26  1  0  0  0  0
 27 23  1  0  0  0  0
 28 12  1  0  0  0  0
 28  3  2  0  0  0  0
 29 12  1  0  0  0  0
 30 25  1  0  0  0  0
 30 16  1  0  0  0  0
 31 40  1  0  0  0  0
 31 22  1  0  0  0  0
 32 25  1  0  0  0  0
 32  5  1  0  0  0  0
 33 32  1  0  0  0  0
 36 23  1  0  0  0  0
 37  1  1  0  0  0  0
 37 35  1  0  0  0  0
 38 43  1  0  0  0  0
 38 21  1  0  0  0  0
 39  6  1  0  0  0  0
 39 17  1  0  0  0  0
 40 42  1  0  0  0  0
 41 45  1  0  0  0  0
 41 18  1  0  0  0  0
 42 19  2  0  0  0  0
 43  7  1  0  0  0  0
 43 20  1  0  0  0  0
 44 35  1  0  0  0  0
 44 10  1  0  0  0  0
 45 47  1  0  0  0  0
 46 45  2  0  0  0  0
 48 47  1  0  0  0  0
 49 50  1  0  0  0  0
 49 52  1  0  0  0  0
 49 53  1  0  0  0  0
 50 52  1  0  0  0  0
 50 48  1  0  0  0  0
 51 50  1  0  0  0  0
 51 52  1  0  0  0  0
 54 51  1  0  0  0  0
 55 54  1  0  0  0  0
 56 55  1  0  0  0  0
 57 56  1  0  0  0  0
 58 59  1  0  0  0  0
 58 56  1  0  0  0  0
 61 60  1  0  0  0  0
 62 61  1  0  0  0  0
 62 69  1  0  0  0  0
 63 65  2  0  0  0  0
 64 65  1  0  0  0  0
 65 62  1  0  0  0  0
 66 67  1  0  0  0  0
 66 64  2  0  0  0  0
 67 63  1  0  0  0  0
 68 69  1  0  0  0  0
M  END
>  <MODEL>
7

>  <REMARK>
 VINA RESULT:      -6.3      1.542      1.985
  Name = 
  13 active torsions:
  status: ('A' for Active; 'I' for Inactive)
    1  A    between atoms: C_7  and  C_56
    2  A    between atoms: C_7  and  C_66
    3  A    between atoms: C_8  and  C_30
    4  A    between atoms: O_11  and  C_18
    5  A    between atoms: O_11  and  C_28
    6  A    between atoms: C_12  and  C_22
    7  A    between atoms: C_12  and  C_57
    8  A    between atoms: C_15  and  C_57
    9  A    between atoms: C_19  and  C_28
   10  A    between atoms: C_19  and  C_40
   11  A    between atoms: C_19  and  C_64
   12  A    between atoms: C_22  and  C_54
   13  A    between atoms: C_30  and  C_56
                            x       y       z     vdW  Elec       q    Type
                         _______ _______ _______ _____ _____    ______ ____

>  <TORSDO>
F 13

$$$$
=
 OpenBabel11062418403D

 69 78  0  0  1  0  0  0  0  0999 V2000
  189.9840  174.6550  147.0550 C   0  0  0  0  0  2  0  0  0  0  0  0
  189.5870  174.3500  140.9280 C   0  0  2  0  0  3  0  0  0  0  0  0
  193.2560  172.8100  137.2970 C   0  0  0  0  0  0  0  0  0  0  0  0
  189.5410  174.4560  136.2230 O   0  0  0  0  0  0  0  0  0  0  0  0
  188.3450  173.6090  141.4460 C   0  0  0  0  0  2  0  0  0  0  0  0
  189.8850  173.7910  139.5570 C   0  0  0  0  0  2  0  0  0  0  0  0
  194.3910  173.5390  137.9530 C   0  0  0  0  0  2  0  0  0  0  0  0
  188.4050  172.7340  137.2410 O   0  0  0  0  0  0  0  0  0  0  0  0
  193.2380  171.4490  137.2230 N   0  0  0  0  0  0  0  0  0  0  0  0
  190.0740  176.0620  143.5620 C   0  0  1  0  0  3  0  0  0  0  0  0
  192.2750  170.7840  136.5310 C   0  0  0  0  0  3  0  0  0  0  0  0
  191.3030  172.8890  135.8780 C   0  0  0  0  0  0  0  0  0  0  0  0
  188.8670  173.9510  145.2740 C   0  0  0  0  0  2  0  0  0  0  0  0
  191.2850  171.4950  135.8490 C   0  0  0  0  0  3  0  0  0  0  0  0
  190.4000  177.7110  145.2720 O   0  0  0  0  0  0  0  0  0  0  0  0
  190.7970  174.1690  141.8730 C   0  0  2  0  0  3  0  0  0  0  0  0
  188.9510  173.8660  137.3370 C   0  0  0  0  0  0  0  0  0  0  0  0
  197.5650  169.8100  139.3620 C   0  0  0  0  0  2  0  0  0  0  0  0
  193.9910  173.5160  140.4940 C   0  0  0  0  0  0  0  0  0  0  0  0
  194.9620  171.6030  139.2810 O   0  0  0  0  0  0  0  0  0  0  0  0
  197.2710  172.9500  138.8760 O   0  0  0  0  0  0  0  0  0  0  0  0
  193.7070  173.9780  143.0050 C   0  0  0  0  0  2  0  0  0  0  0  0
  197.1130  170.9700  140.2070 C   0  0  2  0  0  0  0  0  0  0  0  0
  194.5970  173.4440  141.8900 C   0  0  0  0  0  2  0  0  0  0  0  0
  189.2240  173.6570  143.8090 C   0  0  2  0  0  0  0  0  0  0  0  0
  189.5930  172.3110  143.7020 O   0  0  0  0  0  1  0  0  0  0  0  0
  195.6010  171.0680  140.4210 C   0  0  0  0  0  2  0  0  0  0  0  0
  192.2940  173.5520  136.6060 C   0  0  0  0  0  3  0  0  0  0  0  0
  190.1930  173.6640  135.2380 C   0  0  0  0  0  2  0  0  0  0  0  0
  190.3820  174.5550  143.3230 C   0  0  2  0  0  3  0  0  0  0  0  0
  193.0350  175.2540  142.5390 C   0  0  0  0  0  2  0  0  0  0  0  0
  188.0140  173.9320  142.9020 C   0  0  2  0  0  3  0  0  0  0  0  0
  186.9060  173.1810  143.3030 O   0  0  0  0  0  1  0  0  0  0  0  0
  189.9190  173.6090  146.1310 O   0  0  0  0  0  0  0  0  0  0  0  0
  191.5990  175.7340  145.5700 N   0  0  0  0  0  2  0  0  0  0  0  0
  197.8840  172.2510  139.9210 C   0  0  0  0  0  2  0  0  0  0  0  0
  191.3230  175.3810  146.9520 C   0  0  0  0  0  2  0  0  0  0  0  0
  196.2530  173.6940  139.4940 C   0  0  0  0  0  2  0  0  0  0  0  0
  189.1010  174.4570  138.5790 O   0  0  0  0  0  0  0  0  0  0  0  0
  192.0800  174.9100  141.3910 C   0  0  1  0  0  3  0  0  0  0  0  0
  197.9120  169.8400  140.8510 C   0  0  1  0  0  3  0  0  0  0  0  0
  192.8390  174.2000  140.2840 C   0  0  0  0  0  3  0  0  0  0  0  0
  194.8700  173.0260  139.3290 C   0  0  1  0  0  0  0  0  0  0  0  0
  190.7120  176.5690  144.8290 C   0  0  0  0  0  0  0  0  0  0  0  0
  197.0740  168.8310  141.5960 C   0  0  0  0  0  0  0  0  0  0  0  0
  195.9730  168.3440  141.0160 C   0  0  0  0  0  2  0  0  0  0  0  0
  197.1760  168.7490  143.0860 C   0  0  0  0  0  2  0  0  0  0  0  0
  195.9020  169.2290  143.7650 C   0  0  0  0  0  2  0  0  0  0  0  0
  195.7070  170.3120  146.1320 C   0  0  2  0  0  3  0  0  0  0  0  0
  196.2160  170.4060  144.6890 C   0  0  2  0  0  0  0  0  0  0  0  0
  197.6870  170.7630  144.6540 C   0  0  2  0  0  3  0  0  0  0  0  0
  197.1340  169.9240  145.7980 C   0  0  1  0  0  3  0  0  0  0  0  0
  194.9120  169.0550  146.4660 C   0  0  0  0  0  1  0  0  0  0  0  0
  197.8430  172.2290  145.0410 C   0  0  0  0  0  2  0  0  0  0  0  0
  197.3790  173.1550  143.9220 C   0  0  0  0  0  2  0  0  0  0  0  0
  197.0780  174.5300  144.4760 C   0  0  1  0  0  3  0  0  0  0  0  0
  196.6040  175.3520  143.4680 F   0  0  0  0  0  0  0  0  0  0  0  0
  196.0340  174.4080  145.5710 C   0  0  0  0  0  2  0  0  0  0  0  0
  195.3200  175.7380  145.7540 C   0  0  0  0  0  1  0  0  0  0  0  0
  190.4080  176.8790  142.4720 O   0  0  0  0  0  0  0  0  0  0  0  0
  189.4170  177.8630  142.4350 C   0  0  0  0  0  2  0  0  0  0  0  0
  188.0580  177.2430  142.6880 C   0  0  2  0  0  3  0  0  0  0  0  0
  187.6600  177.1380  140.2860 N   0  0  0  0  0  0  0  0  0  0  0  0
  185.8680  177.8540  141.4780 N   0  0  0  0  0  0  0  0  0  0  0  0
  187.2110  177.3810  141.4660 C   0  0  0  0  0  0  0  0  0  0  0  0
  185.4620  177.8610  140.0800 C   0  0  0  0  0  3  0  0  0  0  0  0
  186.6480  177.4110  139.3630 N   0  0  0  0  0  2  0  0  0  0  0  0
  187.4030  177.0430  144.9720 O   0  0  0  0  0  1  0  0  0  0  0  0
  187.3960  177.9140  143.8900 C   0  0  0  0  0  2  0  0  0  0  0  0
  2  6  1  6  0  0  0
  2  5  1  0  0  0  0
  2 16  1  0  0  0  0
  3  7  1  0  0  0  0
  4 17  1  0  0  0  0
  5 32  1  0  0  0  0
  7 43  1  0  0  0  0
  8 17  2  0  0  0  0
  9  3  1  0  0  0  0
 10 60  1  6  0  0  0
 10 44  1  0  0  0  0
 11  9  2  0  0  0  0
 12 28  1  0  0  0  0
 13 34  1  0  0  0  0
 14 12  2  0  0  0  0
 14 11  1  0  0  0  0
 16 30  1  0  0  0  0
 17 39  1  0  0  0  0
 18 23  1  0  0  0  0
 18 41  1  0  0  0  0
 19 24  1  0  0  0  0
 20 43  1  0  0  0  0
 20 27  1  0  0  0  0
 21 38  1  0  0  0  0
 21 36  1  0  0  0  0
 23 27  1  0  0  0  0
 23 41  1  0  0  0  0
 24 22  1  0  0  0  0
 25 13  1  0  0  0  0
 26 25  1  0  0  0  0
 28  3  2  0  0  0  0
 29 12  1  0  0  0  0
 29  4  1  0  0  0  0
 30 10  1  0  0  0  0
 30 25  1  0  0  0  0
 31 22  1  0  0  0  0
 32 33  1  0  0  0  0
 32 25  1  0  0  0  0
 34  1  1  0  0  0  0
 35 37  1  0  0  0  0
 36 23  1  0  0  0  0
 37  1  1  0  0  0  0
 39  6  1  0  0  0  0
 40 16  1  0  0  0  0
 40 31  1  0  0  0  0
 41 45  1  0  0  0  0
 42 19  2  0  0  0  0
 42 40  1  0  0  0  0
 43 38  1  0  0  0  0
 43 19  1  0  0  0  0
 44 15  2  0  0  0  0
 44 35  1  0  0  0  0
 45 47  1  0  0  0  0
 46 45  2  0  0  0  0
 47 48  1  0  0  0  0
 48 50  1  0  0  0  0
 49 53  1  0  0  0  0
 50 52  1  0  0  0  0
 50 49  1  0  0  0  0
 51 50  1  0  0  0  0
 51 54  1  0  0  0  0
 51 52  1  0  0  0  0
 52 49  1  0  0  0  0
 55 56  1  0  0  0  0
 55 54  1  0  0  0  0
 56 58  1  0  0  0  0
 57 56  1  0  0  0  0
 58 59  1  0  0  0  0
 61 60  1  0  0  0  0
 61 62  1  0  0  0  0
 62 69  1  0  0  0  0
 63 65  2  0  0  0  0
 65 64  1  0  0  0  0
 65 62  1  0  0  0  0
 66 64  2  0  0  0  0
 67 66  1  0  0  0  0
 67 63  1  0  0  0  0
 69 68  1  0  0  0  0
M  END
>  <MODEL>
8

>  <REMARK>
 VINA RESULT:      -6.0      2.933      9.563
  Name = 
  13 active torsions:
  status: ('A' for Active; 'I' for Inactive)
    1  A    between atoms: C_7  and  C_56
    2  A    between atoms: C_7  and  C_66
    3  A    between atoms: C_8  and  C_30
    4  A    between atoms: O_11  and  C_18
    5  A    between atoms: O_11  and  C_28
    6  A    between atoms: C_12  and  C_22
    7  A    between atoms: C_12  and  C_57
    8  A    between atoms: C_15  and  C_57
    9  A    between atoms: C_19  and  C_28
   10  A    between atoms: C_19  and  C_40
   11  A    between atoms: C_19  and  C_64
   12  A    between atoms: C_22  and  C_54
   13  A    between atoms: C_30  and  C_56
                            x       y       z     vdW  Elec       q    Type
                         _______ _______ _______ _____ _____    ______ ____

>  <TORSDO>
F 13

$$$$
=
 OpenBabel11062418403D

 69 78  0  0  1  0  0  0  0  0999 V2000
  190.0750  174.4650  146.8420 C   0  0  0  0  0  2  0  0  0  0  0  0
  189.4950  174.3000  140.7240 C   0  0  2  0  0  3  0  0  0  0  0  0
  193.0920  172.9600  136.9450 C   0  0  0  0  0  0  0  0  0  0  0  0
  189.2990  174.5220  136.0270 O   0  0  0  0  0  0  0  0  0  0  0  0
  188.2920  173.5110  141.2610 C   0  0  0  0  0  2  0  0  0  0  0  0
  189.7660  173.7850  139.3300 C   0  0  0  0  0  2  0  0  0  0  0  0
  194.2250  173.7060  137.5840 C   0  0  0  0  0  2  0  0  0  0  0  0
  188.2450  172.7430  137.0350 O   0  0  0  0  0  0  0  0  0  0  0  0
  193.1110  171.6010  136.8360 N   0  0  0  0  0  0  0  0  0  0  0  0
  190.0150  175.9600  143.3850 C   0  0  1  0  0  3  0  0  0  0  0  0
  192.1450  170.9260  136.1570 C   0  0  0  0  0  3  0  0  0  0  0  0
  191.0930  173.0160  135.5880 C   0  0  0  0  0  0  0  0  0  0  0  0
  188.9230  173.7730  145.0780 C   0  0  0  0  0  2  0  0  0  0  0  0
  191.1140  171.6240  135.5240 C   0  0  0  0  0  3  0  0  0  0  0  0
  190.3470  177.5750  145.1270 O   0  0  0  0  0  0  0  0  0  0  0  0
  190.7390  174.1320  141.6270 C   0  0  2  0  0  3  0  0  0  0  0  0
  188.7610  173.8870  137.1430 C   0  0  0  0  0  0  0  0  0  0  0  0
  197.5470  170.0380  138.7990 C   0  0  0  0  0  2  0  0  0  0  0  0
  193.9060  173.6070  140.1340 C   0  0  0  0  0  0  0  0  0  0  0  0
  194.8920  171.7550  138.8440 O   0  0  0  0  0  0  0  0  0  0  0  0
  197.1480  173.1790  138.4030 O   0  0  0  0  0  0  0  0  0  0  0  0
  193.6870  173.9990  142.6640 C   0  0  0  0  0  2  0  0  0  0  0  0
  197.0890  171.1630  139.6870 C   0  0  2  0  0  0  0  0  0  0  0  0
  194.5570  173.5190  141.5090 C   0  0  0  0  0  2  0  0  0  0  0  0
  189.2420  173.5260  143.5960 C   0  0  2  0  0  0  0  0  0  0  0  0
  189.6470  172.1950  143.4430 O   0  0  0  0  0  1  0  0  0  0  0  0
  195.5820  171.2110  139.9500 C   0  0  0  0  0  2  0  0  0  0  0  0
  192.0870  173.6910  136.3030 C   0  0  0  0  0  3  0  0  0  0  0  0
  189.9420  173.7750  135.0020 C   0  0  0  0  0  2  0  0  0  0  0  0
  190.3590  174.4700  143.0980 C   0  0  2  0  0  3  0  0  0  0  0  0
  192.9640  175.2660  142.2520 C   0  0  0  0  0  2  0  0  0  0  0  0
  187.9970  173.7880  142.7340 C   0  0  2  0  0  3  0  0  0  0  0  0
  186.9240  172.9940  143.1490 O   0  0  0  0  0  1  0  0  0  0  0  0
  190.0110  173.4400  145.8940 O   0  0  0  0  0  0  0  0  0  0  0  0
  191.6110  175.6270  145.3360 N   0  0  0  0  0  2  0  0  0  0  0  0
  197.8140  172.4720  139.4100 C   0  0  0  0  0  2  0  0  0  0  0  0
  191.3890  175.2320  146.7170 C   0  0  0  0  0  2  0  0  0  0  0  0
  196.1290  173.8770  139.0710 C   0  0  0  0  0  2  0  0  0  0  0  0
  188.9330  174.4510  138.3950 O   0  0  0  0  0  0  0  0  0  0  0  0
  191.9840  174.9220  141.1250 C   0  0  1  0  0  3  0  0  0  0  0  0
  197.9400  170.0420  140.2770 C   0  0  1  0  0  3  0  0  0  0  0  0
  192.7280  174.2620  139.9770 C   0  0  0  0  0  3  0  0  0  0  0  0
  194.7620  173.1730  138.9310 C   0  0  1  0  0  0  0  0  0  0  0  0
  190.6770  176.4540  144.6450 C   0  0  0  0  0  0  0  0  0  0  0  0
  197.1540  168.9900  141.0200 C   0  0  0  0  0  0  0  0  0  0  0  0
  195.9930  168.5650  140.5140 C   0  0  0  0  0  2  0  0  0  0  0  0
  197.3970  168.7920  142.4840 C   0  0  0  0  0  2  0  0  0  0  0  0
  196.9890  170.0140  143.2920 C   0  0  0  0  0  2  0  0  0  0  0  0
  195.7450  169.8800  145.5830 C   0  0  2  0  0  3  0  0  0  0  0  0
  195.6980  169.7250  144.0580 C   0  0  2  0  0  0  0  0  0  0  0  0
  194.5230  170.4790  143.4720 C   0  0  2  0  0  3  0  0  0  0  0  0
  195.2240  171.0080  144.7150 C   0  0  1  0  0  3  0  0  0  0  0  0
  197.0990  170.2770  146.1600 C   0  0  0  0  0  1  0  0  0  0  0  0
  193.2410  169.7280  143.8110 C   0  0  0  0  0  2  0  0  0  0  0  0
  192.6650  169.0250  142.5870 C   0  0  0  0  0  2  0  0  0  0  0  0
  191.6150  169.8940  141.9340 C   0  0  1  0  0  3  0  0  0  0  0  0
  192.1410  171.1460  141.6610 F   0  0  0  0  0  0  0  0  0  0  0  0
  191.1570  169.2400  140.6440 C   0  0  0  0  0  2  0  0  0  0  0  0
  191.0990  170.2740  139.5310 C   0  0  0  0  0  1  0  0  0  0  0  0
  190.2920  176.8140  142.3070 O   0  0  0  0  0  0  0  0  0  0  0  0
  189.3320  177.8270  142.3870 C   0  0  0  0  0  2  0  0  0  0  0  0
  187.9570  177.2260  142.5950 C   0  0  2  0  0  3  0  0  0  0  0  0
  186.0950  178.2730  141.4210 N   0  0  0  0  0  0  0  0  0  0  0  0
  187.3020  176.8490  140.1330 N   0  0  0  0  0  2  0  0  0  0  0  0
  187.1120  177.4870  141.3920 C   0  0  0  0  0  0  0  0  0  0  0  0
  186.2400  177.3700  139.2860 C   0  0  0  0  0  3  0  0  0  0  0  0
  185.4900  178.2600  140.1620 N   0  0  0  0  0  0  0  0  0  0  0  0
  186.8530  176.7890  144.6620 O   0  0  0  0  0  1  0  0  0  0  0  0
  187.3170  177.8150  143.8500 C   0  0  0  0  0  2  0  0  0  0  0  0
  2  6  1  6  0  0  0
  2  5  1  0  0  0  0
  2 16  1  0  0  0  0
  3  7  1  0  0  0  0
  4 17  1  0  0  0  0
  5 32  1  0  0  0  0
  7 43  1  0  0  0  0
  8 17  2  0  0  0  0
  9  3  1  0  0  0  0
 10 60  1  6  0  0  0
 10 44  1  0  0  0  0
 11  9  2  0  0  0  0
 12 28  1  0  0  0  0
 13 34  1  0  0  0  0
 14 12  2  0  0  0  0
 14 11  1  0  0  0  0
 16 30  1  0  0  0  0
 17 39  1  0  0  0  0
 18 23  1  0  0  0  0
 18 41  1  0  0  0  0
 19 24  1  0  0  0  0
 20 43  1  0  0  0  0
 20 27  1  0  0  0  0
 21 38  1  0  0  0  0
 21 36  1  0  0  0  0
 23 27  1  0  0  0  0
 23 41  1  0  0  0  0
 24 22  1  0  0  0  0
 25 13  1  0  0  0  0
 26 25  1  0  0  0  0
 28  3  2  0  0  0  0
 29 12  1  0  0  0  0
 29  4  1  0  0  0  0
 30 10  1  0  0  0  0
 30 25  1  0  0  0  0
 31 22  1  0  0  0  0
 32 33  1  0  0  0  0
 32 25  1  0  0  0  0
 34  1  1  0  0  0  0
 35 37  1  0  0  0  0
 36 23  1  0  0  0  0
 37  1  1  0  0  0  0
 39  6  1  0  0  0  0
 40 16  1  0  0  0  0
 40 31  1  0  0  0  0
 41 45  1  0  0  0  0
 42 19  2  0  0  0  0
 42 40  1  0  0  0  0
 43 38  1  0  0  0  0
 43 19  1  0  0  0  0
 44 15  2  0  0  0  0
 44 35  1  0  0  0  0
 45 47  1  0  0  0  0
 46 45  2  0  0  0  0
 47 48  1  0  0  0  0
 48 50  1  0  0  0  0
 49 53  1  0  0  0  0
 50 52  1  0  0  0  0
 50 49  1  0  0  0  0
 51 54  1  0  0  0  0
 51 50  1  0  0  0  0
 51 52  1  0  0  0  0
 52 49  1  0  0  0  0
 55 54  1  0  0  0  0
 56 55  1  0  0  0  0
 57 56  1  0  0  0  0
 58 56  1  0  0  0  0
 59 58  1  0  0  0  0
 60 61  1  0  0  0  0
 61 62  1  0  0  0  0
 62 69  1  0  0  0  0
 64 65  1  0  0  0  0
 65 63  2  0  0  0  0
 65 62  1  0  0  0  0
 66 64  1  0  0  0  0
 66 67  2  0  0  0  0
 67 63  1  0  0  0  0
 69 68  1  0  0  0  0
M  END
>  <MODEL>
9

>  <REMARK>
 VINA RESULT:      -6.0      2.945      9.447
  Name = 
  13 active torsions:
  status: ('A' for Active; 'I' for Inactive)
    1  A    between atoms: C_7  and  C_56
    2  A    between atoms: C_7  and  C_66
    3  A    between atoms: C_8  and  C_30
    4  A    between atoms: O_11  and  C_18
    5  A    between atoms: O_11  and  C_28
    6  A    between atoms: C_12  and  C_22
    7  A    between atoms: C_12  and  C_57
    8  A    between atoms: C_15  and  C_57
    9  A    between atoms: C_19  and  C_28
   10  A    between atoms: C_19  and  C_40
   11  A    between atoms: C_19  and  C_64
   12  A    between atoms: C_22  and  C_54
   13  A    between atoms: C_30  and  C_56
                            x       y       z     vdW  Elec       q    Type
                         _______ _______ _______ _____ _____    ______ ____

>  <TORSDO>
F 13

$$$$
