=
 OpenBabel11072408263D

 34 42  0  0  1  0  0  0  0  0999 V2000
  189.2610  175.0610  142.8660 C   0  0  1  0  0  3  0  0  0  0  0  0
  191.5050  173.8100  142.7740 C   0  0  0  0  0  3  0  0  0  0  0  0
  184.7490  178.6800  146.2240 C   0  0  1  0  0  0  0  0  0  0  0  0
  187.2120  176.3030  143.2120 C   0  0  0  0  0  0  0  0  0  0  0  0
  186.8600  177.4560  145.4290 C   0  0  0  0  0  0  0  0  0  0  0  0
  186.0490  178.4820  147.6720 C   0  0  1  0  0  3  0  0  0  0  0  0
  184.7200  178.9000  147.6340 O   0  0  0  0  0  0  0  0  0  0  0  0
  184.3420  178.7380  143.8590 C   0  0  0  0  0  3  0  0  0  0  0  0
  190.7550  174.5620  144.7920 C   0  0  0  0  0  0  0  0  0  0  0  0
  192.7880  175.3610  146.8860 C   0  0  0  0  0  3  0  0  0  0  0  0
  188.2220  176.9860  145.8600 C   0  0  0  0  0  2  0  0  0  0  0  0
  185.3380  177.9570  143.3980 C   0  0  0  0  0  3  0  0  0  0  0  0
  189.9410  175.1440  145.6850 C   0  0  0  0  0  0  0  0  0  0  0  0
  192.4340  173.4520  143.6610 C   0  0  0  0  0  3  0  0  0  0  0  0
  186.2160  176.9660  144.1400 C   0  0  1  0  0  3  0  0  0  0  0  0
  183.9630  178.9360  145.2330 N   0  0  0  0  0  2  0  0  0  0  0  0
  193.0440  174.7880  145.7000 C   0  0  0  0  0  0  0  0  0  0  0  0
  188.3540  175.6760  143.7400 C   0  0  0  0  0  0  0  0  0  0  0  0
  186.0970  178.0830  146.3020 C   0  0  0  0  0  0  0  0  0  0  0  0
  188.5670  175.6310  145.2430 C   0  0  0  0  0  0  0  0  0  0  0  0
  187.8540  175.6550  141.0080 C   0  0  0  0  0  3  0  0  0  0  0  0
  191.5170  175.2900  147.6380 C   0  0  0  0  0  3  0  0  0  0  0  0
  186.9870  176.2590  141.8670 N   0  0  0  0  0  0  0  0  0  0  0  0
  190.2860  175.1970  147.1220 C   0  0  0  0  0  3  0  0  0  0  0  0
  192.0420  173.8660  145.0620 C   0  0  1  0  0  3  0  0  0  0  0  0
  189.0140  175.0490  141.4920 C   0  0  0  0  0  3  0  0  0  0  0  0
  190.4380  174.4810  143.4220 N   0  0  0  0  0  0  0  0  0  0  0  0
  194.2790  174.9920  145.0660 O   0  0  0  0  0  0  0  0  0  0  0  0
  194.6900  176.2450  144.5250 C   0  0  0  0  0  2  0  0  0  0  0  0
  197.7040  175.8780  143.3710 O   0  0  0  0  0  0  0  0  0  0  0  0
  195.7500  174.6100  142.9900 C   0  0  0  0  0  2  0  0  0  0  0  0
  195.3500  176.0460  143.1700 C   0  0  2  0  0  3  0  0  0  0  0  0
  197.2500  174.6640  142.8360 C   0  0  0  0  0  2  0  0  0  0  0  0
  196.6650  176.7910  143.1390 C   0  0  0  0  0  2  0  0  0  0  0  0
  1 26  1  6  0  0  0
  1 27  1  0  0  0  0
  1 18  1  0  0  0  0
  2 27  1  0  0  0  0
  2 14  2  0  0  0  0
  3 16  1  6  0  0  0
  3 19  1  0  0  0  0
  3  7  1  0  0  0  0
  3  6  1  0  0  0  0
  4 18  1  0  0  0  0
  4 15  1  0  0  0  0
  5 11  1  0  0  0  0
  5 19  2  0  0  0  0
  6 19  1  1  0  0  0
  7  6  1  0  0  0  0
  8 16  1  0  0  0  0
  9 25  1  0  0  0  0
  9 13  2  0  0  0  0
 10 22  1  0  0  0  0
 12  8  2  0  0  0  0
 13 24  1  0  0  0  0
 15 12  1  6  0  0  0
 15  5  1  0  0  0  0
 17 10  2  0  0  0  0
 18 20  2  0  0  0  0
 20 13  1  0  0  0  0
 20 11  1  0  0  0  0
 21 26  2  0  0  0  0
 21 23  1  0  0  0  0
 23  4  2  0  0  0  0
 24 22  2  0  0  0  0
 25 14  1  6  0  0  0
 25 17  1  0  0  0  0
 27  9  1  0  0  0  0
 28 17  1  0  0  0  0
 29 28  1  0  0  0  0
 31 32  1  0  0  0  0
 32 29  1  1  0  0  0
 33 31  1  0  0  0  0
 33 30  1  0  0  0  0
 34 32  1  0  0  0  0
 34 30  1  0  0  0  0
M  END
>  <MODEL>
1

>  <REMARK>
 VINA RESULT:      -9.6      0.000      0.000
  Name = 
  3 active torsions:
  status: ('A' for Active; 'I' for Inactive)
    1  A    between atoms: C_1  and  O_14
    2  A    between atoms: C_1  and  C_18
    3  A    between atoms: O_14  and  C_23
                            x       y       z     vdW  Elec       q    Type
                         _______ _______ _______ _____ _____    ______ ____

>  <TORSDO>
F 3

$$$$
=
 OpenBabel11072408263D

 34 42  0  0  1  0  0  0  0  0999 V2000
  189.1050  177.3570  146.3110 C   0  0  0  0  0  0  0  0  0  0  0  0
  191.3150  176.7060  147.4530 C   0  0  0  0  0  3  0  0  0  0  0  0
  185.3530  177.9430  140.8060 C   0  0  1  0  0  0  0  0  0  0  0  0
  187.1400  177.8850  145.0000 C   0  0  1  0  0  3  0  0  0  0  0  0
  187.1540  177.3480  142.5350 C   0  0  0  0  0  0  0  0  0  0  0  0
  186.9550  177.2200  139.9490 C   0  0  1  0  0  3  0  0  0  0  0  0
  185.8070  177.8370  139.4560 O   0  0  0  0  0  0  0  0  0  0  0  0
  184.0290  178.1280  142.7990 C   0  0  0  0  0  3  0  0  0  0  0  0
  191.2290  176.7290  145.1740 C   0  0  0  0  0  0  0  0  0  0  0  0
  192.9780  174.7960  143.6390 C   0  0  0  0  0  3  0  0  0  0  0  0
  188.5270  176.7550  142.6980 C   0  0  0  0  0  2  0  0  0  0  0  0
  184.9660  177.9920  143.7560 C   0  0  0  0  0  3  0  0  0  0  0  0
  190.7190  176.8930  143.9450 C   0  0  0  0  0  0  0  0  0  0  0  0
  192.5300  176.3430  147.0410 C   0  0  0  0  0  3  0  0  0  0  0  0
  186.4760  178.1170  143.6590 C   0  0  1  0  0  3  0  0  0  0  0  0
  184.2500  178.2790  141.3850 N   0  0  0  0  0  2  0  0  0  0  0  0
  192.9870  175.0040  144.9650 C   0  0  0  0  0  0  0  0  0  0  0  0
  188.5060  177.5600  145.0600 C   0  0  0  0  0  0  0  0  0  0  0  0
  186.6420  177.4440  141.3240 C   0  0  0  0  0  0  0  0  0  0  0  0
  189.3240  177.4810  143.7820 C   0  0  0  0  0  0  0  0  0  0  0  0
  187.0110  177.8580  147.3810 C   0  0  0  0  0  3  0  0  0  0  0  0
  192.5090  175.7420  142.6050 C   0  0  0  0  0  3  0  0  0  0  0  0
  186.4380  178.0420  146.1600 N   0  0  0  0  0  0  0  0  0  0  0  0
  191.5340  176.6500  142.7350 C   0  0  0  0  0  3  0  0  0  0  0  0
  192.6210  176.3480  145.5310 C   0  0  1  0  0  3  0  0  0  0  0  0
  188.3570  177.5040  147.4800 C   0  0  0  0  0  3  0  0  0  0  0  0
  190.4780  176.9750  146.3410 N   0  0  0  0  0  0  0  0  0  0  0  0
  193.4010  173.9880  145.8400 O   0  0  0  0  0  0  0  0  0  0  0  0
  193.8790  172.7180  145.4040 C   0  0  0  0  0  2  0  0  0  0  0  0
  196.4130  173.7610  143.6590 O   0  0  0  0  0  0  0  0  0  0  0  0
  195.9390  173.9830  145.9610 C   0  0  0  0  0  2  0  0  0  0  0  0
  195.3960  172.6640  145.4950 C   0  0  2  0  0  3  0  0  0  0  0  0
  196.8070  174.4460  144.8170 C   0  0  0  0  0  2  0  0  0  0  0  0
  195.9760  172.5070  144.1080 C   0  0  0  0  0  2  0  0  0  0  0  0
  1 27  1  0  0  0  0
  1 26  2  0  0  0  0
  3  7  1  6  0  0  0
  3 19  1  0  0  0  0
  3 16  1  0  0  0  0
  4 18  1  1  0  0  0
  4 23  1  0  0  0  0
  5 11  1  0  0  0  0
  5 15  1  0  0  0  0
  6  7  1  6  0  0  0
  6  3  1  0  0  0  0
  6 19  1  0  0  0  0
  8 12  2  0  0  0  0
  9 25  1  0  0  0  0
  9 27  1  0  0  0  0
 10 17  2  0  0  0  0
 11 20  1  0  0  0  0
 13  9  2  0  0  0  0
 14  2  2  0  0  0  0
 15 12  1  1  0  0  0
 15  4  1  0  0  0  0
 16  8  1  0  0  0  0
 17 25  1  0  0  0  0
 17 28  1  0  0  0  0
 18  1  1  0  0  0  0
 19  5  2  0  0  0  0
 20 13  1  0  0  0  0
 20 18  2  0  0  0  0
 21 26  1  0  0  0  0
 22 24  2  0  0  0  0
 22 10  1  0  0  0  0
 23 21  2  0  0  0  0
 24 13  1  0  0  0  0
 25 14  1  1  0  0  0
 27  2  1  0  0  0  0
 29 28  1  0  0  0  0
 30 34  1  0  0  0  0
 30 33  1  0  0  0  0
 32 29  1  6  0  0  0
 32 31  1  0  0  0  0
 33 31  1  0  0  0  0
 34 32  1  0  0  0  0
M  END
>  <MODEL>
2

>  <REMARK>
 VINA RESULT:      -8.8      2.492      4.151
  Name = 
  3 active torsions:
  status: ('A' for Active; 'I' for Inactive)
    1  A    between atoms: C_1  and  O_14
    2  A    between atoms: C_1  and  C_18
    3  A    between atoms: O_14  and  C_23
                            x       y       z     vdW  Elec       q    Type
                         _______ _______ _______ _____ _____    ______ ____

>  <TORSDO>
F 3

$$$$
=
 OpenBabel11072408263D

 34 42  0  0  1  0  0  0  0  0999 V2000
  189.5970  174.7560  144.8370 C   0  0  1  0  0  3  0  0  0  0  0  0
  191.2730  173.1950  143.6710 C   0  0  0  0  0  3  0  0  0  0  0  0
  184.1670  178.6560  144.6380 C   0  0  1  0  0  0  0  0  0  0  0  0
  187.8880  176.2420  145.6940 C   0  0  0  0  0  0  0  0  0  0  0  0
  186.0210  176.9500  144.1510 C   0  0  0  0  0  0  0  0  0  0  0  0
  184.1600  178.1090  142.7610 C   0  0  1  0  0  3  0  0  0  0  0  0
  183.4940  179.1100  143.4640 O   0  0  0  0  0  0  0  0  0  0  0  0
  184.8040  178.1450  146.8960 C   0  0  0  0  0  3  0  0  0  0  0  0
  189.7520  174.3140  142.3930 C   0  0  0  0  0  0  0  0  0  0  0  0
  188.7800  173.0230  139.8350 C   0  0  0  0  0  3  0  0  0  0  0  0
  186.6130  176.0780  143.0770 C   0  0  0  0  0  2  0  0  0  0  0  0
  185.8930  177.3790  146.6990 C   0  0  0  0  0  3  0  0  0  0  0  0
  188.7430  175.1440  142.0920 C   0  0  0  0  0  0  0  0  0  0  0  0
  191.5160  172.8250  142.4130 C   0  0  0  0  0  3  0  0  0  0  0  0
  186.7530  177.2160  145.4580 C   0  0  1  0  0  3  0  0  0  0  0  0
  184.0840  178.8990  145.9030 N   0  0  0  0  0  2  0  0  0  0  0  0
  189.7540  172.5700  140.6410 C   0  0  0  0  0  0  0  0  0  0  0  0
  188.5430  175.6500  144.6010 C   0  0  0  0  0  0  0  0  0  0  0  0
  184.9890  177.7130  143.8540 C   0  0  0  0  0  0  0  0  0  0  0  0
  188.1360  176.0160  143.1830 C   0  0  0  0  0  0  0  0  0  0  0  0
  189.3520  175.1150  147.2030 C   0  0  0  0  0  3  0  0  0  0  0  0
  188.3140  174.4210  139.7220 C   0  0  0  0  0  3  0  0  0  0  0  0
  188.3220  175.9720  146.9590 N   0  0  0  0  0  0  0  0  0  0  0  0
  188.2970  175.3400  140.6960 C   0  0  0  0  0  3  0  0  0  0  0  0
  190.5870  173.5270  141.4470 C   0  0  1  0  0  3  0  0  0  0  0  0
  190.0060  174.4840  146.1440 C   0  0  0  0  0  3  0  0  0  0  0  0
  190.2080  174.1280  143.7140 N   0  0  0  0  0  0  0  0  0  0  0  0
  190.0500  171.1990  140.6940 O   0  0  0  0  0  0  0  0  0  0  0  0
  190.7260  170.4980  139.6550 C   0  0  0  0  0  2  0  0  0  0  0  0
  193.1150  169.7270  141.7170 O   0  0  0  0  0  0  0  0  0  0  0  0
  190.8850  168.9630  141.5970 C   0  0  0  0  0  2  0  0  0  0  0  0
  191.3650  169.2300  140.2000 C   0  0  2  0  0  3  0  0  0  0  0  0
  192.1400  169.0180  142.4330 C   0  0  0  0  0  2  0  0  0  0  0  0
  192.8510  169.4510  140.3680 C   0  0  0  0  0  2  0  0  0  0  0  0
  1 26  1  1  0  0  0
  2 27  1  0  0  0  0
  3  7  1  6  0  0  0
  3 16  1  0  0  0  0
  4 23  2  0  0  0  0
  5 15  1  0  0  0  0
  6  7  1  6  0  0  0
  6 19  1  0  0  0  0
  6  3  1  0  0  0  0
  9 27  1  0  0  0  0
 10 17  2  0  0  0  0
 11 20  1  0  0  0  0
 11  5  1  0  0  0  0
 12  8  2  0  0  0  0
 13  9  2  0  0  0  0
 13 20  1  0  0  0  0
 14  2  2  0  0  0  0
 15  4  1  0  0  0  0
 15 12  1  1  0  0  0
 16  8  1  0  0  0  0
 17 28  1  0  0  0  0
 17 25  1  0  0  0  0
 18  1  1  0  0  0  0
 18  4  1  0  0  0  0
 19  5  2  0  0  0  0
 19  3  1  0  0  0  0
 20 18  2  0  0  0  0
 22 10  1  0  0  0  0
 22 24  2  0  0  0  0
 23 21  1  0  0  0  0
 24 13  1  0  0  0  0
 25  9  1  0  0  0  0
 25 14  1  1  0  0  0
 26 21  2  0  0  0  0
 27  1  1  0  0  0  0
 29 28  1  0  0  0  0
 30 33  1  0  0  0  0
 31 33  1  0  0  0  0
 32 29  1  1  0  0  0
 32 34  1  0  0  0  0
 32 31  1  0  0  0  0
 34 30  1  0  0  0  0
M  END
>  <MODEL>
3

>  <REMARK>
 VINA RESULT:      -8.6      3.102      5.210
  Name = 
  3 active torsions:
  status: ('A' for Active; 'I' for Inactive)
    1  A    between atoms: C_1  and  O_14
    2  A    between atoms: C_1  and  C_18
    3  A    between atoms: O_14  and  C_23
                            x       y       z     vdW  Elec       q    Type
                         _______ _______ _______ _____ _____    ______ ____

>  <TORSDO>
F 3

$$$$
=
 OpenBabel11072408263D

 34 42  0  0  1  0  0  0  0  0999 V2000
  192.1430  176.1240  145.7820 C   0  0  0  0  0  0  0  0  0  0  0  0
  189.7530  176.1760  146.7280 C   0  0  0  0  0  3  0  0  0  0  0  0
  196.3470  175.3970  140.6320 C   0  0  1  0  0  0  0  0  0  0  0  0
  194.2780  176.0310  144.6440 C   0  0  1  0  0  3  0  0  0  0  0  0
  194.2990  175.7390  142.1380 C   0  0  0  0  0  0  0  0  0  0  0  0
  194.6810  175.1380  139.6420 C   0  0  1  0  0  3  0  0  0  0  0  0
  196.0200  174.9000  139.3340 O   0  0  0  0  0  0  0  0  0  0  0  0
  197.4450  176.3620  142.5360 C   0  0  0  0  0  3  0  0  0  0  0  0
  190.0600  175.4940  144.5740 C   0  0  0  0  0  0  0  0  0  0  0  0
  187.8640  176.0220  142.5600 C   0  0  0  0  0  3  0  0  0  0  0  0
  192.7940  175.7690  142.1490 C   0  0  0  0  0  2  0  0  0  0  0  0
  196.4390  176.4060  143.4300 C   0  0  0  0  0  3  0  0  0  0  0  0
  190.7100  175.1750  143.4450 C   0  0  0  0  0  0  0  0  0  0  0  0
  188.5370  175.8920  146.2620 C   0  0  0  0  0  3  0  0  0  0  0  0
  195.1060  175.6790  143.4260 C   0  0  1  0  0  3  0  0  0  0  0  0
  197.4350  175.7130  141.2520 N   0  0  0  0  0  2  0  0  0  0  0  0
  187.8080  176.2420  143.8830 C   0  0  0  0  0  0  0  0  0  0  0  0
  192.8920  175.7990  144.6420 C   0  0  0  0  0  0  0  0  0  0  0  0
  194.9230  175.4860  141.0050 C   0  0  0  0  0  0  0  0  0  0  0  0
  192.2320  175.1590  143.4320 C   0  0  0  0  0  0  0  0  0  0  0  0
  194.1580  176.8330  146.8880 C   0  0  0  0  0  3  0  0  0  0  0  0
  188.7540  175.0670  141.8670 C   0  0  0  0  0  3  0  0  0  0  0  0
  194.8720  176.5230  145.7700 N   0  0  0  0  0  0  0  0  0  0  0  0
  189.9840  174.6990  142.2470 C   0  0  0  0  0  3  0  0  0  0  0  0
  188.6000  175.3910  144.8360 C   0  0  1  0  0  3  0  0  0  0  0  0
  192.7750  176.6440  146.9120 C   0  0  0  0  0  3  0  0  0  0  0  0
  190.7320  175.9290  145.7330 N   0  0  0  0  0  0  0  0  0  0  0  0
  186.9570  177.2310  144.4010 O   0  0  0  0  0  0  0  0  0  0  0  0
  186.6550  178.4460  143.7220 C   0  0  0  0  0  2  0  0  0  0  0  0
  183.7400  178.5870  145.1500 O   0  0  0  0  0  0  0  0  0  0  0  0
  185.9040  178.8670  146.0490 C   0  0  0  0  0  2  0  0  0  0  0  0
  185.9070  179.3970  144.6440 C   0  0  2  0  0  3  0  0  0  0  0  0
  184.4420  178.6650  146.3610 C   0  0  0  0  0  2  0  0  0  0  0  0
  184.4450  179.4160  144.2650 C   0  0  0  0  0  2  0  0  0  0  0  0
  1 26  2  0  0  0  0
  3  7  1  1  0  0  0
  3 19  1  0  0  0  0
  3 16  1  0  0  0  0
  4 18  1  1  0  0  0
  4 23  1  0  0  0  0
  5 11  1  0  0  0  0
  5 15  1  0  0  0  0
  6  7  1  1  0  0  0
  6  3  1  0  0  0  0
  6 19  1  0  0  0  0
  8 12  2  0  0  0  0
  9 25  1  0  0  0  0
  9 27  1  0  0  0  0
 10 17  2  0  0  0  0
 11 20  1  0  0  0  0
 13  9  2  0  0  0  0
 14  2  2  0  0  0  0
 15 12  1  6  0  0  0
 15  4  1  0  0  0  0
 16  8  1  0  0  0  0
 17 28  1  0  0  0  0
 17 25  1  0  0  0  0
 18  1  1  0  0  0  0
 19  5  2  0  0  0  0
 20 13  1  0  0  0  0
 20 18  2  0  0  0  0
 21 26  1  0  0  0  0
 22 24  2  0  0  0  0
 22 10  1  0  0  0  0
 23 21  2  0  0  0  0
 24 13  1  0  0  0  0
 25 14  1  1  0  0  0
 27  1  1  0  0  0  0
 27  2  1  0  0  0  0
 29 28  1  0  0  0  0
 30 33  1  0  0  0  0
 31 33  1  0  0  0  0
 32 29  1  6  0  0  0
 32 31  1  0  0  0  0
 34 32  1  0  0  0  0
 34 30  1  0  0  0  0
M  END
>  <MODEL>
4

>  <REMARK>
 VINA RESULT:      -8.5      2.431      9.062
  Name = 
  3 active torsions:
  status: ('A' for Active; 'I' for Inactive)
    1  A    between atoms: C_1  and  O_14
    2  A    between atoms: C_1  and  C_18
    3  A    between atoms: O_14  and  C_23
                            x       y       z     vdW  Elec       q    Type
                         _______ _______ _______ _____ _____    ______ ____

>  <TORSDO>
F 3

$$$$
=
 OpenBabel11072408263D

 34 42  0  0  1  0  0  0  0  0999 V2000
  190.0620  173.0200  142.5440 C   0  0  1  0  0  3  0  0  0  0  0  0
  187.8550  174.2060  141.9670 C   0  0  0  0  0  3  0  0  0  0  0  0
  196.0450  172.9930  145.5320 C   0  0  1  0  0  0  0  0  0  0  0  0
  192.2060  172.1280  143.2310 C   0  0  0  0  0  0  0  0  0  0  0  0
  193.6520  173.5140  144.7660 C   0  0  0  0  0  0  0  0  0  0  0  0
  195.4990  174.7930  146.0660 C   0  0  1  0  0  3  0  0  0  0  0  0
  196.7210  174.1230  146.0850 O   0  0  0  0  0  0  0  0  0  0  0  0
  195.3760  170.7830  144.8790 C   0  0  0  0  0  3  0  0  0  0  0  0
  189.5120  175.4090  142.9710 C   0  0  0  0  0  0  0  0  0  0  0  0
  188.7380  177.6980  144.7920 C   0  0  0  0  0  3  0  0  0  0  0  0
  192.5660  174.5540  144.8070 C   0  0  0  0  0  2  0  0  0  0  0  0
  194.1810  171.0230  144.3060 C   0  0  0  0  0  3  0  0  0  0  0  0
  190.7070  175.6750  143.5160 C   0  0  0  0  0  0  0  0  0  0  0  0
  187.3710  175.4390  142.1090 C   0  0  0  0  0  3  0  0  0  0  0  0
  193.5900  172.3310  143.8110 C   0  0  1  0  0  3  0  0  0  0  0  0
  196.3440  171.7580  145.3070 N   0  0  0  0  0  2  0  0  0  0  0  0
  187.9100  176.9660  144.0300 C   0  0  0  0  0  0  0  0  0  0  0  0
  191.3370  173.2240  143.0910 C   0  0  0  0  0  0  0  0  0  0  0  0
  194.8000  173.7670  145.3620 C   0  0  0  0  0  0  0  0  0  0  0  0
  191.8010  174.6160  143.4860 C   0  0  0  0  0  0  0  0  0  0  0  0
  190.5780  170.6890  142.2460 C   0  0  0  0  0  3  0  0  0  0  0  0
  190.1860  177.8970  144.5730 C   0  0  0  0  0  3  0  0  0  0  0  0
  191.8090  170.9000  142.7890 N   0  0  0  0  0  0  0  0  0  0  0  0
  191.0400  177.0250  144.0220 C   0  0  0  0  0  3  0  0  0  0  0  0
  188.3910  176.3600  142.7410 C   0  0  1  0  0  3  0  0  0  0  0  0
  189.6760  171.7470  142.1190 C   0  0  0  0  0  3  0  0  0  0  0  0
  189.1810  174.1370  142.4640 N   0  0  0  0  0  0  0  0  0  0  0  0
  186.5640  176.8100  144.3940 O   0  0  0  0  0  0  0  0  0  0  0  0
  185.6180  177.8750  144.3900 C   0  0  0  0  0  2  0  0  0  0  0  0
  186.2740  177.0130  147.4520 O   0  0  0  0  0  0  0  0  0  0  0  0
  185.5980  179.0880  146.5540 C   0  0  0  0  0  2  0  0  0  0  0  0
  184.9510  177.9960  145.7520 C   0  0  2  0  0  3  0  0  0  0  0  0
  186.1530  178.3750  147.7620 C   0  0  0  0  0  2  0  0  0  0  0  0
  185.2270  176.7480  146.5570 C   0  0  0  0  0  2  0  0  0  0  0  0
  1 26  1  1  0  0  0
  1 18  1  0  0  0  0
  2 14  2  0  0  0  0
  2 27  1  0  0  0  0
  3 16  1  1  0  0  0
  3  6  1  0  0  0  0
  3  7  1  0  0  0  0
  4 15  1  0  0  0  0
  5 11  1  0  0  0  0
  5 19  2  0  0  0  0
  6 19  1  6  0  0  0
  6  7  1  0  0  0  0
  8 16  1  0  0  0  0
  9 13  2  0  0  0  0
 12  8  2  0  0  0  0
 13 24  1  0  0  0  0
 15 12  1  1  0  0  0
 15  5  1  0  0  0  0
 17 28  1  0  0  0  0
 17 10  2  0  0  0  0
 18  4  1  0  0  0  0
 18 20  2  0  0  0  0
 19  3  1  0  0  0  0
 20 13  1  0  0  0  0
 20 11  1  0  0  0  0
 21 23  1  0  0  0  0
 22 10  1  0  0  0  0
 23  4  2  0  0  0  0
 24 22  2  0  0  0  0
 25 14  1  1  0  0  0
 25  9  1  0  0  0  0
 25 17  1  0  0  0  0
 26 21  2  0  0  0  0
 27  1  1  0  0  0  0
 27  9  1  0  0  0  0
 29 28  1  0  0  0  0
 30 33  1  0  0  0  0
 31 33  1  0  0  0  0
 32 29  1  6  0  0  0
 32 31  1  0  0  0  0
 32 34  1  0  0  0  0
 34 30  1  0  0  0  0
M  END
>  <MODEL>
5

>  <REMARK>
 VINA RESULT:      -8.2      2.447      8.435
  Name = 
  3 active torsions:
  status: ('A' for Active; 'I' for Inactive)
    1  A    between atoms: C_1  and  O_14
    2  A    between atoms: C_1  and  C_18
    3  A    between atoms: O_14  and  C_23
                            x       y       z     vdW  Elec       q    Type
                         _______ _______ _______ _____ _____    ______ ____

>  <TORSDO>
F 3

$$$$
=
 OpenBabel11072408263D

 34 42  0  0  1  0  0  0  0  0999 V2000
  189.0880  174.4570  141.0740 C   0  0  1  0  0  3  0  0  0  0  0  0
  187.4960  176.4740  141.0120 C   0  0  0  0  0  3  0  0  0  0  0  0
  193.9120  170.9420  144.0900 C   0  0  1  0  0  0  0  0  0  0  0  0
  190.6740  172.6520  141.3750 C   0  0  0  0  0  0  0  0  0  0  0  0
  192.0140  172.5690  143.5120 C   0  0  0  0  0  0  0  0  0  0  0  0
  193.7570  172.3630  145.4250 C   0  0  1  0  0  3  0  0  0  0  0  0
  194.7090  171.3710  145.1950 O   0  0  0  0  0  0  0  0  0  0  0  0
  192.8560  169.6740  142.3470 C   0  0  0  0  0  3  0  0  0  0  0  0
  189.1130  176.4080  142.6180 C   0  0  0  0  0  0  0  0  0  0  0  0
  188.5600  177.7240  145.2860 C   0  0  0  0  0  3  0  0  0  0  0  0
  191.2730  173.7860  143.9930 C   0  0  0  0  0  2  0  0  0  0  0  0
  191.9500  170.5570  141.8860 C   0  0  0  0  0  3  0  0  0  0  0  0
  190.1630  175.9510  143.3160 C   0  0  0  0  0  0  0  0  0  0  0  0
  187.3410  177.5890  141.7270 C   0  0  0  0  0  3  0  0  0  0  0  0
  191.8730  172.0600  142.0850 C   0  0  1  0  0  3  0  0  0  0  0  0
  193.9140  169.9300  143.2890 N   0  0  0  0  0  2  0  0  0  0  0  0
  187.7800  177.7690  144.1940 C   0  0  0  0  0  0  0  0  0  0  0  0
  190.1940  173.9200  141.7470 C   0  0  0  0  0  0  0  0  0  0  0  0
  193.0040  172.0950  144.2420 C   0  0  0  0  0  0  0  0  0  0  0  0
  190.9030  174.7110  142.8340 C   0  0  0  0  0  0  0  0  0  0  0  0
  189.0150  172.5070  139.6680 C   0  0  0  0  0  3  0  0  0  0  0  0
  190.0150  177.4700  145.3150 C   0  0  0  0  0  3  0  0  0  0  0  0
  190.0830  171.9930  140.3380 N   0  0  0  0  0  0  0  0  0  0  0  0
  190.7110  176.7040  144.4650 C   0  0  0  0  0  3  0  0  0  0  0  0
  188.3830  177.6880  142.8190 C   0  0  1  0  0  3  0  0  0  0  0  0
  188.4910  173.7490  140.0290 C   0  0  0  0  0  3  0  0  0  0  0  0
  188.5880  175.7190  141.5070 N   0  0  0  0  0  0  0  0  0  0  0  0
  186.3950  177.9550  144.3190 O   0  0  0  0  0  0  0  0  0  0  0  0
  185.8020  179.1620  144.7880 C   0  0  0  0  0  2  0  0  0  0  0  0
  185.6550  176.8690  147.0850 O   0  0  0  0  0  0  0  0  0  0  0  0
  185.8390  179.2150  147.2680 C   0  0  0  0  0  2  0  0  0  0  0  0
  185.0070  178.9030  146.0590 C   0  0  2  0  0  3  0  0  0  0  0  0
  185.9380  177.8970  147.9960 C   0  0  0  0  0  2  0  0  0  0  0  0
  184.7330  177.4220  146.1850 C   0  0  0  0  0  2  0  0  0  0  0  0
  1 26  1  1  0  0  0
  1 27  1  0  0  0  0
  1 18  1  0  0  0  0
  2 27  1  0  0  0  0
  2 14  2  0  0  0  0
  3 16  1  1  0  0  0
  3 19  1  0  0  0  0
  3  7  1  0  0  0  0
  3  6  1  0  0  0  0
  4 18  1  0  0  0  0
  4 15  1  0  0  0  0
  5 11  1  0  0  0  0
  5 19  2  0  0  0  0
  6 19  1  6  0  0  0
  7  6  1  0  0  0  0
  8 16  1  0  0  0  0
  9 25  1  0  0  0  0
  9 13  2  0  0  0  0
 10 22  1  0  0  0  0
 12  8  2  0  0  0  0
 13 24  1  0  0  0  0
 15 12  1  1  0  0  0
 15  5  1  0  0  0  0
 17 28  1  0  0  0  0
 17 10  2  0  0  0  0
 18 20  2  0  0  0  0
 20 13  1  0  0  0  0
 20 11  1  0  0  0  0
 21 26  2  0  0  0  0
 21 23  1  0  0  0  0
 23  4  2  0  0  0  0
 24 22  2  0  0  0  0
 25 14  1  6  0  0  0
 25 17  1  0  0  0  0
 27  9  1  0  0  0  0
 28 29  1  0  0  0  0
 30 33  1  0  0  0  0
 31 33  1  0  0  0  0
 32 29  1  6  0  0  0
 32 34  1  0  0  0  0
 32 31  1  0  0  0  0
 34 30  1  0  0  0  0
M  END
>  <MODEL>
6

>  <REMARK>
 VINA RESULT:      -8.2      2.954      8.221
  Name = 
  3 active torsions:
  status: ('A' for Active; 'I' for Inactive)
    1  A    between atoms: C_1  and  O_14
    2  A    between atoms: C_1  and  C_18
    3  A    between atoms: O_14  and  C_23
                            x       y       z     vdW  Elec       q    Type
                         _______ _______ _______ _____ _____    ______ ____

>  <TORSDO>
F 3

$$$$
=
 OpenBabel11072408263D

 34 42  0  0  1  0  0  0  0  0999 V2000
  189.1640  174.5860  142.6620 C   0  0  0  0  0  0  0  0  0  0  0  0
  188.0790  176.8000  143.3890 C   0  0  0  0  0  3  0  0  0  0  0  0
  193.6680  169.7310  143.5950 C   0  0  1  0  0  0  0  0  0  0  0  0
  190.3440  172.5230  142.2010 C   0  0  1  0  0  3  0  0  0  0  0  0
  192.0890  171.7380  143.8470 C   0  0  0  0  0  0  0  0  0  0  0  0
  194.1370  170.8190  145.1510 C   0  0  1  0  0  3  0  0  0  0  0  0
  194.7710  169.7620  144.5010 O   0  0  0  0  0  0  0  0  0  0  0  0
  191.9890  169.0820  142.0070 C   0  0  0  0  0  3  0  0  0  0  0  0
  189.9680  176.1060  144.4610 C   0  0  0  0  0  0  0  0  0  0  0  0
  190.3430  176.8580  147.3670 C   0  0  0  0  0  3  0  0  0  0  0  0
  191.7620  172.9210  144.7170 C   0  0  0  0  0  2  0  0  0  0  0  0
  191.2160  170.1840  141.9710 C   0  0  0  0  0  3  0  0  0  0  0  0
  191.0250  175.3360  144.7570 C   0  0  0  0  0  0  0  0  0  0  0  0
  188.3390  177.7340  144.3040 C   0  0  0  0  0  3  0  0  0  0  0  0
  191.5160  171.5950  142.4440 C   0  0  1  0  0  3  0  0  0  0  0  0
  193.2650  168.9400  142.6580 N   0  0  0  0  0  2  0  0  0  0  0  0
  189.3630  177.2770  146.5520 C   0  0  0  0  0  0  0  0  0  0  0  0
  190.2510  173.7350  142.9060 C   0  0  0  0  0  0  0  0  0  0  0  0
  193.0920  170.9540  144.1870 C   0  0  0  0  0  0  0  0  0  0  0  0
  191.3460  174.1310  143.8820 C   0  0  0  0  0  0  0  0  0  0  0  0
  188.3460  173.0430  141.0070 C   0  0  0  0  0  3  0  0  0  0  0  0
  191.6750  176.3660  146.9570 C   0  0  0  0  0  3  0  0  0  0  0  0
  189.4020  172.2220  141.2620 N   0  0  0  0  0  0  0  0  0  0  0  0
  191.9730  175.7080  145.8290 C   0  0  0  0  0  3  0  0  0  0  0  0
  189.6010  177.4110  145.0740 C   0  0  1  0  0  3  0  0  0  0  0  0
  188.2030  174.2410  141.7100 C   0  0  0  0  0  3  0  0  0  0  0  0
  189.0640  175.7820  143.4300 N   0  0  0  0  0  0  0  0  0  0  0  0
  188.1180  177.6570  147.0780 O   0  0  0  0  0  0  0  0  0  0  0  0
  187.0370  176.7520  147.2780 C   0  0  0  0  0  2  0  0  0  0  0  0
  185.6070  179.3840  146.0190 O   0  0  0  0  0  0  0  0  0  0  0  0
  184.7770  177.2000  146.3570 C   0  0  0  0  0  2  0  0  0  0  0  0
  185.7350  177.5150  147.4690 C   0  0  2  0  0  3  0  0  0  0  0  0
  184.5460  178.5310  145.6850 C   0  0  0  0  0  2  0  0  0  0  0  0
  185.9950  178.9950  147.3100 C   0  0  0  0  0  2  0  0  0  0  0  0
  1 18  1  0  0  0  0
  1 27  1  0  0  0  0
  2 27  1  0  0  0  0
  2 14  2  0  0  0  0
  3 16  1  1  0  0  0
  3 19  1  0  0  0  0
  3  7  1  0  0  0  0
  3  6  1  0  0  0  0
  4 23  1  6  0  0  0
  4 15  1  0  0  0  0
  4 18  1  0  0  0  0
  5 19  2  0  0  0  0
  5 11  1  0  0  0  0
  6 19  1  6  0  0  0
  7  6  1  0  0  0  0
  8 16  1  0  0  0  0
  9 13  2  0  0  0  0
  9 25  1  0  0  0  0
 12  8  2  0  0  0  0
 13 24  1  0  0  0  0
 15 12  1  1  0  0  0
 15  5  1  0  0  0  0
 17 28  1  0  0  0  0
 17 10  2  0  0  0  0
 18 20  2  0  0  0  0
 20 11  1  0  0  0  0
 20 13  1  0  0  0  0
 21 23  2  0  0  0  0
 21 26  1  0  0  0  0
 22 10  1  0  0  0  0
 24 22  2  0  0  0  0
 25 14  1  6  0  0  0
 25 17  1  0  0  0  0
 26  1  2  0  0  0  0
 27  9  1  0  0  0  0
 28 29  1  0  0  0  0
 30 34  1  0  0  0  0
 31 32  1  0  0  0  0
 32 29  1  6  0  0  0
 33 30  1  0  0  0  0
 33 31  1  0  0  0  0
 34 32  1  0  0  0  0
M  END
>  <MODEL>
7

>  <REMARK>
 VINA RESULT:      -8.1      2.889      8.121
  Name = 
  3 active torsions:
  status: ('A' for Active; 'I' for Inactive)
    1  A    between atoms: C_1  and  O_14
    2  A    between atoms: C_1  and  C_18
    3  A    between atoms: O_14  and  C_23
                            x       y       z     vdW  Elec       q    Type
                         _______ _______ _______ _____ _____    ______ ____

>  <TORSDO>
F 3

$$$$
=
 OpenBabel11072408263D

 34 42  0  0  1  0  0  0  0  0999 V2000
  192.4130  176.3020  146.1260 C   0  0  0  0  0  0  0  0  0  0  0  0
  194.7990  175.3470  146.1990 C   0  0  0  0  0  3  0  0  0  0  0  0
  186.8180  177.7300  142.7520 C   0  0  1  0  0  0  0  0  0  0  0  0
  190.1610  177.1280  145.7920 C   0  0  1  0  0  3  0  0  0  0  0  0
  189.0860  176.8160  143.5310 C   0  0  0  0  0  0  0  0  0  0  0  0
  187.8180  176.9410  141.2690 C   0  0  1  0  0  3  0  0  0  0  0  0
  186.6540  177.7040  141.3340 O   0  0  0  0  0  0  0  0  0  0  0  0
  186.4730  177.8570  145.1240 C   0  0  0  0  0  3  0  0  0  0  0  0
  193.7790  175.5840  144.1740 C   0  0  0  0  0  0  0  0  0  0  0  0
  194.4820  173.6420  141.9630 C   0  0  0  0  0  3  0  0  0  0  0  0
  190.3190  176.0850  143.0740 C   0  0  0  0  0  2  0  0  0  0  0  0
  187.6990  177.5490  145.5890 C   0  0  0  0  0  3  0  0  0  0  0  0
  192.8290  175.9050  143.2830 C   0  0  0  0  0  0  0  0  0  0  0  0
  195.6790  174.9110  145.2980 C   0  0  0  0  0  3  0  0  0  0  0  0
  189.0350  177.5410  144.8680 C   0  0  1  0  0  3  0  0  0  0  0  0
  186.1050  178.1140  143.7570 N   0  0  0  0  0  2  0  0  0  0  0  0
  195.0660  173.7280  143.1680 C   0  0  0  0  0  0  0  0  0  0  0  0
  191.3780  176.6730  145.2560 C   0  0  0  0  0  0  0  0  0  0  0  0
  188.1330  177.0680  142.6550 C   0  0  0  0  0  0  0  0  0  0  0  0
  191.5760  176.6320  143.7500 C   0  0  0  0  0  0  0  0  0  0  0  0
  191.0300  176.8980  148.0020 C   0  0  0  0  0  3  0  0  0  0  0  0
  193.7470  174.7170  141.2650 C   0  0  0  0  0  3  0  0  0  0  0  0
  190.0300  177.2440  147.1450 N   0  0  0  0  0  0  0  0  0  0  0  0
  193.0320  175.6970  141.8330 C   0  0  0  0  0  3  0  0  0  0  0  0
  195.1360  175.0440  143.8930 C   0  0  1  0  0  3  0  0  0  0  0  0
  192.2410  176.4130  147.5070 C   0  0  0  0  0  3  0  0  0  0  0  0
  193.6160  175.7930  145.5580 N   0  0  0  0  0  0  0  0  0  0  0  0
  195.6770  172.6030  143.7420 O   0  0  0  0  0  0  0  0  0  0  0  0
  194.9540  171.4820  144.2420 C   0  0  0  0  0  2  0  0  0  0  0  0
  195.8600  168.9300  146.0360 O   0  0  0  0  0  0  0  0  0  0  0  0
  196.8180  171.0770  145.8280 C   0  0  0  0  0  2  0  0  0  0  0  0
  195.3290  171.2120  145.6900 C   0  0  2  0  0  3  0  0  0  0  0  0
  197.0130  169.6690  146.3350 C   0  0  0  0  0  2  0  0  0  0  0  0
  194.8070  169.8530  146.0980 C   0  0  0  0  0  2  0  0  0  0  0  0
  1 26  2  0  0  0  0
  3  7  1  6  0  0  0
  3 16  1  0  0  0  0
  4 18  1  6  0  0  0
  4 23  1  0  0  0  0
  5 15  1  0  0  0  0
  6  7  1  6  0  0  0
  6 19  1  0  0  0  0
  6  3  1  0  0  0  0
  8 12  2  0  0  0  0
  9 27  1  0  0  0  0
 10 17  2  0  0  0  0
 11  5  1  0  0  0  0
 11 20  1  0  0  0  0
 13 20  1  0  0  0  0
 13  9  2  0  0  0  0
 14  2  2  0  0  0  0
 15 12  1  1  0  0  0
 15  4  1  0  0  0  0
 16  8  1  0  0  0  0
 17 28  1  0  0  0  0
 17 25  1  0  0  0  0
 18  1  1  0  0  0  0
 19  3  1  0  0  0  0
 19  5  2  0  0  0  0
 20 18  2  0  0  0  0
 22 24  2  0  0  0  0
 22 10  1  0  0  0  0
 23 21  2  0  0  0  0
 24 13  1  0  0  0  0
 25  9  1  0  0  0  0
 25 14  1  1  0  0  0
 26 21  1  0  0  0  0
 27  1  1  0  0  0  0
 27  2  1  0  0  0  0
 28 29  1  0  0  0  0
 30 34  1  0  0  0  0
 30 33  1  0  0  0  0
 31 33  1  0  0  0  0
 32 29  1  6  0  0  0
 32 31  1  0  0  0  0
 32 34  1  0  0  0  0
M  END
>  <MODEL>
8

>  <REMARK>
 VINA RESULT:      -8.0      3.062      5.001
  Name = 
  3 active torsions:
  status: ('A' for Active; 'I' for Inactive)
    1  A    between atoms: C_1  and  O_14
    2  A    between atoms: C_1  and  C_18
    3  A    between atoms: O_14  and  C_23
                            x       y       z     vdW  Elec       q    Type
                         _______ _______ _______ _____ _____    ______ ____

>  <TORSDO>
F 3

$$$$
=
 OpenBabel11072408263D

 34 42  0  0  1  0  0  0  0  0999 V2000
  188.2700  175.5250  141.4450 C   0  0  1  0  0  3  0  0  0  0  0  0
  190.2540  174.1380  140.5780 C   0  0  0  0  0  3  0  0  0  0  0  0
  184.9560  178.4270  146.4770 C   0  0  1  0  0  0  0  0  0  0  0  0
  186.5150  176.8090  142.5100 C   0  0  0  0  0  0  0  0  0  0  0  0
  186.7010  177.2870  144.9810 C   0  0  0  0  0  0  0  0  0  0  0  0
  186.4250  177.6830  147.5320 C   0  0  1  0  0  3  0  0  0  0  0  0
  185.1870  178.2240  147.8720 O   0  0  0  0  0  0  0  0  0  0  0  0
  184.1900  179.2190  144.3450 C   0  0  0  0  0  3  0  0  0  0  0  0
  189.9590  174.3330  142.8310 C   0  0  0  0  0  0  0  0  0  0  0  0
  192.3970  174.2720  144.6210 C   0  0  0  0  0  3  0  0  0  0  0  0
  188.0280  176.5770  144.9920 C   0  0  0  0  0  2  0  0  0  0  0  0
  184.9690  178.5140  143.5020 C   0  0  0  0  0  3  0  0  0  0  0  0
  189.3950  174.7050  143.9900 C   0  0  0  0  0  0  0  0  0  0  0  0
  191.2460  173.4440  141.1340 C   0  0  0  0  0  3  0  0  0  0  0  0
  185.7930  177.2650  143.7610 C   0  0  1  0  0  3  0  0  0  0  0  0
  184.0700  179.0410  145.7680 N   0  0  0  0  0  2  0  0  0  0  0  0
  192.3700  174.0520  143.2980 C   0  0  0  0  0  0  0  0  0  0  0  0
  187.6180  175.9430  142.6130 C   0  0  0  0  0  0  0  0  0  0  0  0
  186.1920  177.7020  146.1240 C   0  0  0  0  0  0  0  0  0  0  0  0
  188.0600  175.4360  143.9760 C   0  0  0  0  0  0  0  0  0  0  0  0
  186.6910  176.7780  140.1320 C   0  0  0  0  0  3  0  0  0  0  0  0
  191.2670  174.1110  145.5610 C   0  0  0  0  0  3  0  0  0  0  0  0
  186.0740  177.1850  141.2760 N   0  0  0  0  0  0  0  0  0  0  0  0
  189.9690  174.2980  145.2900 C   0  0  0  0  0  3  0  0  0  0  0  0
  191.1510  173.4630  142.6440 C   0  0  1  0  0  3  0  0  0  0  0  0
  187.8080  175.9430  140.1960 C   0  0  0  0  0  3  0  0  0  0  0  0
  189.4180  174.6920  141.5800 N   0  0  0  0  0  0  0  0  0  0  0  0
  193.5050  174.3090  142.5130 O   0  0  0  0  0  0  0  0  0  0  0  0
  194.0950  175.5980  142.3790 C   0  0  0  0  0  2  0  0  0  0  0  0
  196.9710  176.7110  143.4010 O   0  0  0  0  0  0  0  0  0  0  0  0
  196.2740  174.5190  142.8720 C   0  0  0  0  0  2  0  0  0  0  0  0
  195.5530  175.4730  141.9640 C   0  0  2  0  0  3  0  0  0  0  0  0
  197.3450  175.3650  143.5150 C   0  0  0  0  0  2  0  0  0  0  0  0
  196.2550  176.7910  142.1980 C   0  0  0  0  0  2  0  0  0  0  0  0
  1 26  1  1  0  0  0
  1 27  1  0  0  0  0
  1 18  1  0  0  0  0
  2 14  2  0  0  0  0
  2 27  1  0  0  0  0
  3 16  1  6  0  0  0
  3  6  1  0  0  0  0
  3  7  1  0  0  0  0
  4 18  1  0  0  0  0
  4 15  1  0  0  0  0
  5 11  1  0  0  0  0
  5 19  2  0  0  0  0
  6 19  1  6  0  0  0
  6  7  1  0  0  0  0
  8 16  1  0  0  0  0
  9 13  2  0  0  0  0
 10 22  1  0  0  0  0
 12  8  2  0  0  0  0
 13 24  1  0  0  0  0
 15 12  1  6  0  0  0
 15  5  1  0  0  0  0
 17 10  2  0  0  0  0
 18 20  2  0  0  0  0
 19  3  1  0  0  0  0
 20 13  1  0  0  0  0
 20 11  1  0  0  0  0
 21 26  2  0  0  0  0
 21 23  1  0  0  0  0
 23  4  2  0  0  0  0
 24 22  2  0  0  0  0
 25 14  1  6  0  0  0
 25  9  1  0  0  0  0
 25 17  1  0  0  0  0
 27  9  1  0  0  0  0
 28 17  1  0  0  0  0
 29 28  1  0  0  0  0
 30 33  1  0  0  0  0
 31 33  1  0  0  0  0
 32 34  1  0  0  0  0
 32 29  1  1  0  0  0
 32 31  1  0  0  0  0
 34 30  1  0  0  0  0
M  END
>  <MODEL>
9

>  <REMARK>
 VINA RESULT:      -7.9      1.266      1.693
  Name = 
  3 active torsions:
  status: ('A' for Active; 'I' for Inactive)
    1  A    between atoms: C_1  and  O_14
    2  A    between atoms: C_1  and  C_18
    3  A    between atoms: O_14  and  C_23
                            x       y       z     vdW  Elec       q    Type
                         _______ _______ _______ _____ _____    ______ ____

>  <TORSDO>
F 3

$$$$
