=
 OpenBabel11062420423D

 45 48  0  0  1  0  0  0  0  0999 V2000
  189.3730  177.5660  143.8010 C   0  0  0  0  0  1  0  0  0  0  0  0
  193.3610  173.7400  145.5400 C   0  0  0  0  0  1  0  0  0  0  0  0
  187.5800  176.4970  142.4670 C   0  0  2  0  0  3  0  0  0  0  0  0
  191.7780  169.5510  140.7190 C   0  0  0  0  0  2  0  0  0  0  0  0
  192.7450  172.2910  143.7670 O   0  0  0  0  0  0  0  0  0  0  0  0
  192.2270  173.1840  144.7070 C   0  0  2  0  0  3  0  0  0  0  0  0
  190.2530  170.6280  139.2940 C   0  0  0  0  0  2  0  0  0  0  0  0
  188.6530  174.5930  141.8880 C   0  0  2  0  0  3  0  0  0  0  0  0
  189.4620  174.1010  140.7000 C   0  0  0  0  0  2  0  0  0  0  0  0
  187.6640  175.5000  141.4720 O   0  0  0  0  0  0  0  0  0  0  0  0
  189.6710  171.9690  141.7670 O   0  0  0  0  0  1  0  0  0  0  0  0
  189.3540  172.5890  140.5560 C   0  0  2  0  0  3  0  0  0  0  0  0
  190.3270  172.1340  139.4830 C   0  0  0  0  0  2  0  0  0  0  0  0
  189.5560  175.2890  142.8740 C   0  0  1  0  0  3  0  0  0  0  0  0
  188.6380  176.2690  143.5240 C   0  0  1  0  0  3  0  0  0  0  0  0
  190.1430  174.3230  143.8560 C   0  0  0  0  0  0  0  0  0  0  0  0
  191.9880  171.1240  143.9090 C   0  0  0  0  0  2  0  0  0  0  0  0
  192.4340  170.0590  142.9100 C   0  0  1  0  0  3  0  0  0  0  0  0
  191.5610  174.2750  144.0160 N   0  0  0  0  0  2  0  0  0  0  0  0
  191.5900  170.0570  139.3670 N   0  0  0  0  0  2  0  0  0  0  0  0
  189.3980  173.5470  144.5170 O   0  0  0  0  0  0  0  0  0  0  0  0
  192.3910  170.5760  141.5500 N   0  0  0  0  0  2  0  0  0  0  0  0
  196.9920  168.1760  142.4310 C   0  0  0  0  0  1  0  0  0  0  0  0
  195.7470  168.7320  143.0240 C   0  0  0  0  0  0  0  0  0  0  0  0
  194.2610  169.4320  144.4550 O   0  0  0  0  0  0  0  0  0  0  0  0
  194.6830  169.1150  142.2930 N   0  0  0  0  0  0  0  0  0  0  0  0
  195.4660  168.9350  144.3600 C   0  0  0  0  0  0  0  0  0  0  0  0
  193.8010  169.5400  143.2280 C   0  0  0  0  0  0  0  0  0  0  0  0
  196.2990  168.6660  145.4920 N   0  0  0  0  0  2  0  0  0  0  0  0
  197.2740  169.6090  146.0180 C   0  0  0  0  0  2  0  0  0  0  0  0
  197.3720  171.9500  145.1730 C   0  0  0  0  0  1  0  0  0  0  0  0
  196.6590  170.9930  146.1120 C   0  0  0  0  0  2  0  0  0  0  0  0
  186.2600  176.4810  143.0770 N   0  0  0  0  0  2  0  0  0  0  0  0
  185.5980  178.5350  144.6080 O   0  0  0  0  0  0  0  0  0  0  0  0
  185.7000  178.1180  143.1680 S   0  0  0  0  0  0  0  0  0  0  0  0
  186.6770  179.0220  142.4700 O   0  0  0  0  0  0  0  0  0  0  0  0
  183.0320  178.7170  143.1240 C   0  0  0  0  0  3  0  0  0  0  0  0
  184.1320  178.2590  142.3910 C   0  0  0  0  0  0  0  0  0  0  0  0
  181.6340  178.5330  141.1490 C   0  0  0  0  0  0  0  0  0  0  0  0
  182.7370  178.0830  140.4160 C   0  0  0  0  0  3  0  0  0  0  0  0
  181.7860  178.8530  142.5070 C   0  0  0  0  0  3  0  0  0  0  0  0
  183.9830  177.9470  141.0340 C   0  0  0  0  0  3  0  0  0  0  0  0
  179.2890  177.9200  141.1660 N   0  0  0  0  0  1  0  0  0  0  0  0
  180.3130  178.6780  140.4640 C   0  0  1  0  0  3  0  0  0  0  0  0
  179.9060  180.1380  140.3810 C   0  0  0  0  0  1  0  0  0  0  0  0
  3 33  1  1  0  0  0
  3 15  1  0  0  0  0
  4 22  1  0  0  0  0
  5 17  1  0  0  0  0
  5  6  1  0  0  0  0
  6  2  1  6  0  0  0
  7 20  1  0  0  0  0
  7 13  1  0  0  0  0
  8  9  1  6  0  0  0
  8 14  1  0  0  0  0
 10  8  1  0  0  0  0
 10  3  1  0  0  0  0
 12  9  1  0  0  0  0
 12 11  1  1  0  0  0
 13 12  1  0  0  0  0
 14 15  1  0  0  0  0
 14 16  1  1  0  0  0
 15  1  1  6  0  0  0
 16 19  1  0  0  0  0
 16 21  2  0  0  0  0
 18 28  1  1  0  0  0
 18 17  1  0  0  0  0
 19  6  1  0  0  0  0
 20  4  1  0  0  0  0
 22 18  1  0  0  0  0
 23 24  1  0  0  0  0
 24 27  2  0  0  0  0
 26 24  1  0  0  0  0
 26 28  2  0  0  0  0
 27 25  1  0  0  0  0
 27 29  1  0  0  0  0
 28 25  1  0  0  0  0
 29 30  1  0  0  0  0
 30 32  1  0  0  0  0
 31 32  1  0  0  0  0
 33 35  1  0  0  0  0
 35 34  2  0  0  0  0
 36 35  2  0  0  0  0
 38 37  2  0  0  0  0
 38 35  1  0  0  0  0
 39 41  2  0  0  0  0
 40 42  2  0  0  0  0
 40 39  1  0  0  0  0
 41 37  1  0  0  0  0
 42 38  1  0  0  0  0
 44 45  1  1  0  0  0
 44 39  1  0  0  0  0
 44 43  1  0  0  0  0
M  END
>  <MODEL>
1

>  <REMARK>
 VINA RESULT:      -7.2      0.000      0.000
  Name = 
  8 active torsions:
  status: ('A' for Active; 'I' for Inactive)
    1  A    between atoms: C_4  and  N_34
    2  A    between atoms: C_8  and  S_24
    3  A    between atoms: C_12  and  C_13
    4  A    between atoms: N_17  and  C_30
    5  A    between atoms: N_17  and  C_40
    6  A    between atoms: C_21  and  C_30
    7  A    between atoms: S_24  and  N_34
    8  A    between atoms: C_33  and  C_45
                            x       y       z     vdW  Elec       q    Type
                         _______ _______ _______ _____ _____    ______ ____

>  <TORSDO>
F 8

$$$$
=
 OpenBabel11062420423D

 45 48  0  0  1  0  0  0  0  0999 V2000
  189.7010  177.1250  142.7490 C   0  0  0  0  0  1  0  0  0  0  0  0
  193.6550  173.6070  145.1080 C   0  0  0  0  0  1  0  0  0  0  0  0
  188.0900  175.8910  141.3290 C   0  0  2  0  0  3  0  0  0  0  0  0
  192.7140  169.0520  140.4540 C   0  0  0  0  0  2  0  0  0  0  0  0
  193.2710  172.0220  143.3870 O   0  0  0  0  0  0  0  0  0  0  0  0
  192.6290  172.9470  144.2120 C   0  0  2  0  0  3  0  0  0  0  0  0
  191.2920  169.9640  138.8230 C   0  0  0  0  0  2  0  0  0  0  0  0
  189.2900  174.0070  140.9830 C   0  0  2  0  0  3  0  0  0  0  0  0
  190.2290  173.4780  139.9110 C   0  0  0  0  0  2  0  0  0  0  0  0
  188.3090  174.8370  140.4150 O   0  0  0  0  0  0  0  0  0  0  0  0
  190.4200  171.4300  141.1340 O   0  0  0  0  0  1  0  0  0  0  0  0
  190.1970  171.9570  139.8600 C   0  0  2  0  0  3  0  0  0  0  0  0
  191.2860  171.4800  138.9160 C   0  0  0  0  0  2  0  0  0  0  0  0
  190.0650  174.8050  141.9990 C   0  0  1  0  0  3  0  0  0  0  0  0
  189.0500  175.7800  142.4920 C   0  0  1  0  0  3  0  0  0  0  0  0
  190.5930  173.9310  143.0940 C   0  0  0  0  0  0  0  0  0  0  0  0
  192.5520  170.8320  143.5360 C   0  0  0  0  0  2  0  0  0  0  0  0
  193.1360  169.7280  142.6570 C   0  0  1  0  0  3  0  0  0  0  0  0
  191.9900  173.9600  143.3900 N   0  0  0  0  0  2  0  0  0  0  0  0
  192.6370  169.4620  139.0600 N   0  0  0  0  0  2  0  0  0  0  0  0
  189.8200  173.1650  143.7340 O   0  0  0  0  0  0  0  0  0  0  0  0
  193.2030  170.1550  141.2670 N   0  0  0  0  0  2  0  0  0  0  0  0
  197.9380  168.5110  142.7540 C   0  0  0  0  0  1  0  0  0  0  0  0
  196.5360  168.7710  143.1770 C   0  0  0  0  0  0  0  0  0  0  0  0
  194.7270  168.9410  144.3790 O   0  0  0  0  0  0  0  0  0  0  0  0
  195.5760  169.2060  142.3390 N   0  0  0  0  0  0  0  0  0  0  0  0
  195.9910  168.6120  144.4350 C   0  0  0  0  0  0  0  0  0  0  0  0
  194.4850  169.2940  143.1360 C   0  0  0  0  0  0  0  0  0  0  0  0
  196.6370  168.1660  145.6310 N   0  0  0  0  0  2  0  0  0  0  0  0
  197.0730  169.0590  146.6940 C   0  0  0  0  0  2  0  0  0  0  0  0
  195.1350  168.1700  147.9810 C   0  0  0  0  0  1  0  0  0  0  0  0
  196.6090  168.5300  148.0380 C   0  0  0  0  0  2  0  0  0  0  0  0
  186.7190  175.8520  141.8120 N   0  0  0  0  0  2  0  0  0  0  0  0
  187.1250  178.4140  141.2870 O   0  0  0  0  0  0  0  0  0  0  0  0
  186.1770  177.4880  141.9960 S   0  0  0  0  0  0  0  0  0  0  0  0
  184.8110  177.6340  141.3870 O   0  0  0  0  0  0  0  0  0  0  0  0
  185.5310  179.1230  144.0900 C   0  0  0  0  0  3  0  0  0  0  0  0
  186.0940  177.9040  143.6990 C   0  0  0  0  0  0  0  0  0  0  0  0
  185.9130  178.5580  146.4190 C   0  0  0  0  0  0  0  0  0  0  0  0
  186.4690  177.3360  146.0260 C   0  0  0  0  0  3  0  0  0  0  0  0
  185.4410  179.4510  145.4450 C   0  0  0  0  0  3  0  0  0  0  0  0
  186.5590  177.0090  144.6700 C   0  0  0  0  0  3  0  0  0  0  0  0
  185.4500  177.7030  148.6390 N   0  0  0  0  0  1  0  0  0  0  0  0
  185.8210  178.8830  147.8750 C   0  0  1  0  0  3  0  0  0  0  0  0
  187.1380  179.4370  148.3890 C   0  0  0  0  0  1  0  0  0  0  0  0
  3 33  1  1  0  0  0
  3 15  1  0  0  0  0
  4 22  1  0  0  0  0
  5 17  1  0  0  0  0
  5  6  1  0  0  0  0
  6  2  1  1  0  0  0
  7 13  1  0  0  0  0
  7 20  1  0  0  0  0
  8  9  1  6  0  0  0
  8 14  1  0  0  0  0
 10  8  1  0  0  0  0
 10  3  1  0  0  0  0
 12  9  1  0  0  0  0
 12 11  1  1  0  0  0
 13 12  1  0  0  0  0
 14 15  1  0  0  0  0
 14 16  1  1  0  0  0
 15  1  1  6  0  0  0
 16 19  1  0  0  0  0
 16 21  2  0  0  0  0
 18 28  1  1  0  0  0
 18 17  1  0  0  0  0
 19  6  1  0  0  0  0
 20  4  1  0  0  0  0
 22 18  1  0  0  0  0
 23 24  1  0  0  0  0
 24 27  2  0  0  0  0
 25 27  1  0  0  0  0
 26 28  2  0  0  0  0
 26 24  1  0  0  0  0
 27 29  1  0  0  0  0
 28 25  1  0  0  0  0
 29 30  1  0  0  0  0
 30 32  1  0  0  0  0
 31 32  1  0  0  0  0
 33 35  1  0  0  0  0
 34 35  2  0  0  0  0
 35 38  1  0  0  0  0
 36 35  2  0  0  0  0
 37 41  1  0  0  0  0
 38 37  2  0  0  0  0
 38 42  1  0  0  0  0
 39 44  1  0  0  0  0
 40 39  1  0  0  0  0
 41 39  2  0  0  0  0
 42 40  2  0  0  0  0
 44 45  1  1  0  0  0
 44 43  1  0  0  0  0
M  END
>  <MODEL>
2

>  <REMARK>
 VINA RESULT:      -7.0      2.560      3.453
  Name = 
  8 active torsions:
  status: ('A' for Active; 'I' for Inactive)
    1  A    between atoms: C_4  and  N_34
    2  A    between atoms: C_8  and  S_24
    3  A    between atoms: C_12  and  C_13
    4  A    between atoms: N_17  and  C_30
    5  A    between atoms: N_17  and  C_40
    6  A    between atoms: C_21  and  C_30
    7  A    between atoms: S_24  and  N_34
    8  A    between atoms: C_33  and  C_45
                            x       y       z     vdW  Elec       q    Type
                         _______ _______ _______ _____ _____    ______ ____

>  <TORSDO>
F 8

$$$$
=
 OpenBabel11062420423D

 45 48  0  0  1  0  0  0  0  0999 V2000
  189.5770  174.9570  147.2260 C   0  0  0  0  0  1  0  0  0  0  0  0
  184.2810  177.2430  146.6780 C   0  0  0  0  0  1  0  0  0  0  0  0
  191.0780  175.6380  145.3750 C   0  0  2  0  0  3  0  0  0  0  0  0
  185.0700  178.1020  140.2020 C   0  0  0  0  0  2  0  0  0  0  0  0
  184.6340  177.5050  144.3480 O   0  0  0  0  0  0  0  0  0  0  0  0
  185.2710  177.5920  145.5880 C   0  0  2  0  0  3  0  0  0  0  0  0
  187.0840  177.0700  139.5740 C   0  0  0  0  0  2  0  0  0  0  0  0
  189.5190  176.2850  143.8710 C   0  0  2  0  0  3  0  0  0  0  0  0
  188.7940  175.6540  142.6930 C   0  0  0  0  0  2  0  0  0  0  0  0
  190.8150  175.7580  143.9930 O   0  0  0  0  0  0  0  0  0  0  0  0
  187.6860  177.7390  142.3020 O   0  0  0  0  0  1  0  0  0  0  0  0
  188.3910  176.7100  141.6730 C   0  0  2  0  0  3  0  0  0  0  0  0
  187.5090  176.0580  140.6240 C   0  0  0  0  0  2  0  0  0  0  0  0
  188.7670  176.0090  145.1470 C   0  0  1  0  0  3  0  0  0  0  0  0
  189.8500  176.0150  146.1730 C   0  0  1  0  0  3  0  0  0  0  0  0
  187.7290  177.0560  145.4090 C   0  0  0  0  0  0  0  0  0  0  0  0
  184.9040  178.7180  143.7080 C   0  0  0  0  0  2  0  0  0  0  0  0
  184.2840  178.7480  142.3130 C   0  0  1  0  0  3  0  0  0  0  0  0
  186.3770  176.6510  145.6270 N   0  0  0  0  0  2  0  0  0  0  0  0
  185.6390  177.0260  139.4040 N   0  0  0  0  0  2  0  0  0  0  0  0
  188.0400  178.2800  145.4180 O   0  0  0  0  0  0  0  0  0  0  0  0
  184.7250  177.6050  141.5260 N   0  0  0  0  0  2  0  0  0  0  0  0
  179.6480  179.3370  143.9590 C   0  0  0  0  0  1  0  0  0  0  0  0
  180.8090  179.0450  143.0770 C   0  0  0  0  0  0  0  0  0  0  0  0
  182.0190  178.4670  141.3600 O   0  0  0  0  0  0  0  0  0  0  0  0
  182.0900  179.1620  143.4720 N   0  0  0  0  0  0  0  0  0  0  0  0
  180.7850  178.6120  141.7660 C   0  0  0  0  0  0  0  0  0  0  0  0
  182.7900  178.7960  142.3730 C   0  0  0  0  0  0  0  0  0  0  0  0
  179.6470  178.3450  140.9410 N   0  0  0  0  0  2  0  0  0  0  0  0
  178.8210  179.3840  140.3450 C   0  0  0  0  0  2  0  0  0  0  0  0
  178.7290  181.8470  139.9800 C   0  0  0  0  0  1  0  0  0  0  0  0
  179.6420  180.6440  140.1390 C   0  0  0  0  0  2  0  0  0  0  0  0
  192.1920  176.4960  145.7460 N   0  0  0  0  0  2  0  0  0  0  0  0
  194.5260  176.0190  146.8990 O   0  0  0  0  0  0  0  0  0  0  0  0
  193.6170  175.5120  145.8130 S   0  0  0  0  0  0  0  0  0  0  0  0
  193.2330  174.0940  146.1260 O   0  0  0  0  0  0  0  0  0  0  0  0
  195.4760  176.4800  144.0570 C   0  0  0  0  0  3  0  0  0  0  0  0
  194.4490  175.5550  144.2680 C   0  0  0  0  0  0  0  0  0  0  0  0
  195.8160  175.6010  141.8210 C   0  0  0  0  0  0  0  0  0  0  0  0
  194.7930  174.6720  142.0370 C   0  0  0  0  0  3  0  0  0  0  0  0
  196.1580  176.5060  142.8380 C   0  0  0  0  0  3  0  0  0  0  0  0
  194.1120  174.6480  143.2570 C   0  0  0  0  0  3  0  0  0  0  0  0
  197.9090  175.1560  140.6840 N   0  0  0  0  0  1  0  0  0  0  0  0
  196.5360  175.6030  140.5110 C   0  0  1  0  0  3  0  0  0  0  0  0
  195.8270  174.7150  139.5040 C   0  0  0  0  0  1  0  0  0  0  0  0
  3 33  1  1  0  0  0
  3 15  1  0  0  0  0
  4 22  1  0  0  0  0
  5  6  1  0  0  0  0
  6 19  1  0  0  0  0
  6  2  1  1  0  0  0
  7 13  1  0  0  0  0
  8  9  1  6  0  0  0
  8 10  1  0  0  0  0
  8 14  1  0  0  0  0
 10  3  1  0  0  0  0
 12 11  1  1  0  0  0
 12  9  1  0  0  0  0
 13 12  1  0  0  0  0
 14 16  1  1  0  0  0
 14 15  1  0  0  0  0
 15  1  1  1  0  0  0
 16 21  2  0  0  0  0
 16 19  1  0  0  0  0
 17  5  1  0  0  0  0
 18 28  1  1  0  0  0
 18 17  1  0  0  0  0
 20  7  1  0  0  0  0
 20  4  1  0  0  0  0
 22 18  1  0  0  0  0
 24 26  1  0  0  0  0
 24 23  1  0  0  0  0
 25 27  1  0  0  0  0
 25 28  1  0  0  0  0
 27 24  2  0  0  0  0
 28 26  2  0  0  0  0
 29 27  1  0  0  0  0
 30 29  1  0  0  0  0
 31 32  1  0  0  0  0
 32 30  1  0  0  0  0
 33 35  1  0  0  0  0
 35 36  2  0  0  0  0
 35 34  2  0  0  0  0
 37 38  1  0  0  0  0
 38 35  1  0  0  0  0
 39 40  2  0  0  0  0
 39 41  1  0  0  0  0
 40 42  1  0  0  0  0
 41 37  2  0  0  0  0
 42 38  2  0  0  0  0
 44 45  1  6  0  0  0
 44 43  1  0  0  0  0
 44 39  1  0  0  0  0
M  END
>  <MODEL>
3

>  <REMARK>
 VINA RESULT:      -6.9      4.318     12.317
  Name = 
  8 active torsions:
  status: ('A' for Active; 'I' for Inactive)
    1  A    between atoms: C_4  and  N_34
    2  A    between atoms: C_8  and  S_24
    3  A    between atoms: C_12  and  C_13
    4  A    between atoms: N_17  and  C_30
    5  A    between atoms: N_17  and  C_40
    6  A    between atoms: C_21  and  C_30
    7  A    between atoms: S_24  and  N_34
    8  A    between atoms: C_33  and  C_45
                            x       y       z     vdW  Elec       q    Type
                         _______ _______ _______ _____ _____    ______ ____

>  <TORSDO>
F 8

$$$$
=
 OpenBabel11062420423D

 45 48  0  0  1  0  0  0  0  0999 V2000
  188.6240  174.9120  144.2290 C   0  0  0  0  0  1  0  0  0  0  0  0
  192.0250  173.8600  139.6560 C   0  0  0  0  0  1  0  0  0  0  0  0
  189.8530  176.0430  146.0590 C   0  0  2  0  0  3  0  0  0  0  0  0
  197.4650  174.1350  143.3480 C   0  0  0  0  0  2  0  0  0  0  0  0
  193.9370  173.9580  141.0550 O   0  0  0  0  0  0  0  0  0  0  0  0
  192.6880  174.5410  140.8340 C   0  0  2  0  0  3  0  0  0  0  0  0
  196.8070  174.2880  145.5980 C   0  0  0  0  0  2  0  0  0  0  0  0
  191.9660  175.5320  145.4380 C   0  0  2  0  0  3  0  0  0  0  0  0
  192.9870  174.4590  145.7790 C   0  0  0  0  0  2  0  0  0  0  0  0
  191.1560  175.8150  146.5510 O   0  0  0  0  0  0  0  0  0  0  0  0
  194.5540  175.5340  144.3250 O   0  0  0  0  0  1  0  0  0  0  0  0
  194.4060  174.9790  145.5980 C   0  0  2  0  0  3  0  0  0  0  0  0
  195.3720  173.8190  145.7620 C   0  0  0  0  0  2  0  0  0  0  0  0
  191.0840  175.0660  144.3090 C   0  0  1  0  0  3  0  0  0  0  0  0
  189.8090  175.7960  144.5670 C   0  0  1  0  0  3  0  0  0  0  0  0
  191.6750  175.4060  142.9770 C   0  0  0  0  0  0  0  0  0  0  0  0
  194.8390  175.0250  141.1110 C   0  0  0  0  0  2  0  0  0  0  0  0
  196.2570  174.5260  141.3790 C   0  0  1  0  0  3  0  0  0  0  0  0
  191.8600  174.3660  142.0160 N   0  0  0  0  0  2  0  0  0  0  0  0
  197.4930  173.4440  144.6300 N   0  0  0  0  0  2  0  0  0  0  0  0
  192.0220  176.5910  142.7120 O   0  0  0  0  0  0  0  0  0  0  0  0
  196.2990  173.7130  142.5860 N   0  0  0  0  0  2  0  0  0  0  0  0
  197.9140  173.3800  136.8520 C   0  0  0  0  0  1  0  0  0  0  0  0
  197.5110  173.2730  138.2800 C   0  0  0  0  0  0  0  0  0  0  0  0
  197.0850  172.4800  140.2640 O   0  0  0  0  0  0  0  0  0  0  0  0
  197.0480  174.3120  139.0010 N   0  0  0  0  0  0  0  0  0  0  0  0
  197.5250  172.1470  139.0790 C   0  0  0  0  0  0  0  0  0  0  0  0
  196.8060  173.7640  140.2150 C   0  0  0  0  0  0  0  0  0  0  0  0
  197.9330  170.8200  138.7330 N   0  0  0  0  0  2  0  0  0  0  0  0
  197.1110  169.6400  138.9550 C   0  0  0  0  0  2  0  0  0  0  0  0
  196.5340  169.6150  136.5320 C   0  0  0  0  0  1  0  0  0  0  0  0
  197.0660  168.7960  137.6960 C   0  0  0  0  0  2  0  0  0  0  0  0
  189.4440  177.4080  146.3470 N   0  0  0  0  0  2  0  0  0  0  0  0
  187.3590  176.0410  147.2330 O   0  0  0  0  0  0  0  0  0  0  0  0
  187.7470  177.3900  146.6940 S   0  0  0  0  0  0  0  0  0  0  0  0
  187.4360  178.4330  147.7300 O   0  0  0  0  0  0  0  0  0  0  0  0
  185.4370  177.6650  145.2570 C   0  0  0  0  0  3  0  0  0  0  0  0
  186.8330  177.7370  145.2360 C   0  0  0  0  0  0  0  0  0  0  0  0
  185.3620  178.3360  142.9260 C   0  0  0  0  0  0  0  0  0  0  0  0
  186.7580  178.4150  142.9100 C   0  0  0  0  0  3  0  0  0  0  0  0
  184.7020  177.9620  144.1070 C   0  0  0  0  0  3  0  0  0  0  0  0
  187.4930  178.1170  144.0610 C   0  0  0  0  0  3  0  0  0  0  0  0
  185.2820  178.1500  140.5110 N   0  0  0  0  0  1  0  0  0  0  0  0
  184.5970  178.6660  141.6850 C   0  0  1  0  0  3  0  0  0  0  0  0
  183.1900  178.1000  141.7510 C   0  0  0  0  0  1  0  0  0  0  0  0
  3 33  1  6  0  0  0
  3 10  1  0  0  0  0
  4 20  1  0  0  0  0
  5 17  1  0  0  0  0
  6  2  1  6  0  0  0
  6  5  1  0  0  0  0
  6 19  1  0  0  0  0
  7 13  1  0  0  0  0
  8  9  1  1  0  0  0
  8 10  1  0  0  0  0
 12 11  1  6  0  0  0
 12 13  1  0  0  0  0
 12  9  1  0  0  0  0
 14 16  1  6  0  0  0
 14 15  1  0  0  0  0
 14  8  1  0  0  0  0
 15  1  1  1  0  0  0
 15  3  1  0  0  0  0
 17 18  1  0  0  0  0
 18 28  1  6  0  0  0
 18 22  1  0  0  0  0
 19 16  1  0  0  0  0
 20  7  1  0  0  0  0
 21 16  2  0  0  0  0
 22  4  1  0  0  0  0
 23 24  1  0  0  0  0
 24 26  1  0  0  0  0
 24 27  2  0  0  0  0
 26 28  2  0  0  0  0
 27 25  1  0  0  0  0
 28 25  1  0  0  0  0
 29 30  1  0  0  0  0
 29 27  1  0  0  0  0
 31 32  1  0  0  0  0
 32 30  1  0  0  0  0
 33 35  1  0  0  0  0
 35 34  2  0  0  0  0
 35 36  2  0  0  0  0
 38 37  1  0  0  0  0
 38 35  1  0  0  0  0
 39 41  1  0  0  0  0
 40 39  2  0  0  0  0
 40 42  1  0  0  0  0
 41 37  2  0  0  0  0
 42 38  2  0  0  0  0
 43 44  1  0  0  0  0
 44 45  1  1  0  0  0
 44 39  1  0  0  0  0
M  END
>  <MODEL>
4

>  <REMARK>
 VINA RESULT:      -6.8      3.830      5.768
  Name = 
  8 active torsions:
  status: ('A' for Active; 'I' for Inactive)
    1  A    between atoms: C_4  and  N_34
    2  A    between atoms: C_8  and  S_24
    3  A    between atoms: C_12  and  C_13
    4  A    between atoms: N_17  and  C_30
    5  A    between atoms: N_17  and  C_40
    6  A    between atoms: C_21  and  C_30
    7  A    between atoms: S_24  and  N_34
    8  A    between atoms: C_33  and  C_45
                            x       y       z     vdW  Elec       q    Type
                         _______ _______ _______ _____ _____    ______ ____

>  <TORSDO>
F 8

$$$$
=
 OpenBabel11062420423D

 45 48  0  0  1  0  0  0  0  0999 V2000
  192.7070  173.4800  139.1710 C   0  0  0  0  0  1  0  0  0  0  0  0
  187.8700  175.8940  141.2590 C   0  0  0  0  0  1  0  0  0  0  0  0
  194.0490  172.4010  140.9530 C   0  0  2  0  0  3  0  0  0  0  0  0
  190.4160  176.3090  147.3130 C   0  0  0  0  0  2  0  0  0  0  0  0
  188.8630  176.0240  143.4090 O   0  0  0  0  0  0  0  0  0  0  0  0
  188.7660  175.2170  142.2740 C   0  0  2  0  0  3  0  0  0  0  0  0
  192.6800  175.6970  147.1910 C   0  0  0  0  0  2  0  0  0  0  0  0
  193.1650  173.4490  142.7500 C   0  0  2  0  0  3  0  0  0  0  0  0
  193.5080  174.6620  143.5990 C   0  0  0  0  0  2  0  0  0  0  0  0
  194.3340  172.8400  142.2640 O   0  0  0  0  0  0  0  0  0  0  0  0
  191.6250  174.1770  144.9940 O   0  0  0  0  0  1  0  0  0  0  0  0
  192.9840  174.5000  145.0180 C   0  0  2  0  0  3  0  0  0  0  0  0
  193.1810  175.8090  145.7610 C   0  0  0  0  0  2  0  0  0  0  0  0
  192.3160  173.8640  141.5760 C   0  0  1  0  0  3  0  0  0  0  0  0
  192.6600  172.8410  140.5460 C   0  0  1  0  0  3  0  0  0  0  0  0
  190.8600  173.8540  141.9220 C   0  0  0  0  0  0  0  0  0  0  0  0
  188.5600  175.1860  144.4870 C   0  0  0  0  0  2  0  0  0  0  0  0
  188.6570  175.9420  145.8090 C   0  0  1  0  0  3  0  0  0  0  0  0
  190.0880  175.0350  141.7000 N   0  0  0  0  0  2  0  0  0  0  0  0
  191.7760  176.8000  147.4830 N   0  0  0  0  0  2  0  0  0  0  0  0
  190.3250  172.8260  142.4220 O   0  0  0  0  0  0  0  0  0  0  0  0
  189.9640  176.5660  145.9540 N   0  0  0  0  0  2  0  0  0  0  0  0
  184.9520  178.6720  147.6460 C   0  0  0  0  0  1  0  0  0  0  0  0
  185.9870  178.1290  146.7270 C   0  0  0  0  0  0  0  0  0  0  0  0
  187.2340  177.7840  144.9740 O   0  0  0  0  0  0  0  0  0  0  0  0
  186.8270  177.1310  147.0610 N   0  0  0  0  0  0  0  0  0  0  0  0
  186.2530  178.5190  145.4300 C   0  0  0  0  0  0  0  0  0  0  0  0
  187.5720  176.9640  145.9440 C   0  0  0  0  0  0  0  0  0  0  0  0
  185.6070  179.5370  144.6610 N   0  0  0  0  0  2  0  0  0  0  0  0
  184.4930  179.2820  143.7600 C   0  0  0  0  0  2  0  0  0  0  0  0
  183.8310  178.2860  141.5750 C   0  0  0  0  0  1  0  0  0  0  0  0
  184.9650  178.4700  142.5690 C   0  0  0  0  0  2  0  0  0  0  0  0
  194.1510  170.9530  140.8790 N   0  0  0  0  0  2  0  0  0  0  0  0
  196.2940  169.5020  140.3260 O   0  0  0  0  0  0  0  0  0  0  0  0
  195.7720  170.5140  141.3070 S   0  0  0  0  0  0  0  0  0  0  0  0
  196.6500  171.7330  141.2590 O   0  0  0  0  0  0  0  0  0  0  0  0
  197.0250  169.4930  143.5120 C   0  0  0  0  0  3  0  0  0  0  0  0
  195.8040  169.8460  142.9300 C   0  0  0  0  0  0  0  0  0  0  0  0
  195.8710  168.8240  145.5390 C   0  0  0  0  0  0  0  0  0  0  0  0
  194.6510  169.1850  144.9570 C   0  0  0  0  0  3  0  0  0  0  0  0
  197.0610  168.9820  144.8120 C   0  0  0  0  0  3  0  0  0  0  0  0
  194.6170  169.6960  143.6570 C   0  0  0  0  0  3  0  0  0  0  0  0
  196.9920  168.8520  147.6880 N   0  0  0  0  0  1  0  0  0  0  0  0
  195.8840  168.2870  146.9340 C   0  0  1  0  0  3  0  0  0  0  0  0
  194.5740  168.5870  147.6400 C   0  0  0  0  0  1  0  0  0  0  0  0
  3 33  1  1  0  0  0
  3 10  1  0  0  0  0
  4 20  1  0  0  0  0
  5 17  1  0  0  0  0
  6  2  1  6  0  0  0
  6  5  1  0  0  0  0
  7 20  1  0  0  0  0
  8  9  1  6  0  0  0
  9 12  1  0  0  0  0
 10  8  1  0  0  0  0
 12 11  1  6  0  0  0
 12 13  1  0  0  0  0
 13  7  1  0  0  0  0
 14 16  1  1  0  0  0
 14  8  1  0  0  0  0
 15  1  1  6  0  0  0
 15  3  1  0  0  0  0
 15 14  1  0  0  0  0
 16 21  2  0  0  0  0
 17 18  1  0  0  0  0
 18 28  1  6  0  0  0
 18 22  1  0  0  0  0
 19 16  1  0  0  0  0
 19  6  1  0  0  0  0
 22  4  1  0  0  0  0
 24 26  1  0  0  0  0
 24 23  1  0  0  0  0
 25 27  1  0  0  0  0
 25 28  1  0  0  0  0
 27 24  2  0  0  0  0
 28 26  2  0  0  0  0
 29 27  1  0  0  0  0
 30 29  1  0  0  0  0
 31 32  1  0  0  0  0
 32 30  1  0  0  0  0
 33 35  1  0  0  0  0
 34 35  2  0  0  0  0
 35 38  1  0  0  0  0
 36 35  2  0  0  0  0
 37 41  1  0  0  0  0
 38 37  2  0  0  0  0
 38 42  1  0  0  0  0
 39 44  1  0  0  0  0
 40 39  1  0  0  0  0
 41 39  2  0  0  0  0
 42 40  2  0  0  0  0
 44 45  1  1  0  0  0
 44 43  1  0  0  0  0
M  END
>  <MODEL>
5

>  <REMARK>
 VINA RESULT:      -6.8      3.273     11.866
  Name = 
  8 active torsions:
  status: ('A' for Active; 'I' for Inactive)
    1  A    between atoms: C_4  and  N_34
    2  A    between atoms: C_8  and  S_24
    3  A    between atoms: C_12  and  C_13
    4  A    between atoms: N_17  and  C_30
    5  A    between atoms: N_17  and  C_40
    6  A    between atoms: C_21  and  C_30
    7  A    between atoms: S_24  and  N_34
    8  A    between atoms: C_33  and  C_45
                            x       y       z     vdW  Elec       q    Type
                         _______ _______ _______ _____ _____    ______ ____

>  <TORSDO>
F 8

$$$$
=
 OpenBabel11062420423D

 45 48  0  0  1  0  0  0  0  0999 V2000
  193.3500  173.5340  139.3740 C   0  0  0  0  0  1  0  0  0  0  0  0
  188.2430  175.5160  141.2640 C   0  0  0  0  0  1  0  0  0  0  0  0
  194.7660  172.7000  141.2290 C   0  0  2  0  0  3  0  0  0  0  0  0
  190.6140  176.5180  147.3200 C   0  0  0  0  0  2  0  0  0  0  0  0
  189.1750  175.8650  143.4160 O   0  0  0  0  0  0  0  0  0  0  0  0
  189.1870  174.9930  142.3260 C   0  0  2  0  0  3  0  0  0  0  0  0
  192.9320  176.1490  147.2610 C   0  0  0  0  0  2  0  0  0  0  0  0
  193.7400  173.7380  142.9550 C   0  0  2  0  0  3  0  0  0  0  0  0
  193.9340  175.0240  143.7420 C   0  0  0  0  0  2  0  0  0  0  0  0
  194.9770  173.2340  142.5180 O   0  0  0  0  0  0  0  0  0  0  0  0
  192.0880  174.4110  145.1360 O   0  0  0  0  0  1  0  0  0  0  0  0
  193.4040  174.8800  145.1610 C   0  0  2  0  0  3  0  0  0  0  0  0
  193.4460  176.2400  145.8350 C   0  0  0  0  0  2  0  0  0  0  0  0
  192.8750  173.9970  141.7490 C   0  0  1  0  0  3  0  0  0  0  0  0
  193.3460  172.9650  140.7800 C   0  0  1  0  0  3  0  0  0  0  0  0
  191.4210  173.8490  142.0760 C   0  0  0  0  0  0  0  0  0  0  0  0
  188.9430  175.0560  144.5340 C   0  0  0  0  0  2  0  0  0  0  0  0
  188.9330  175.8860  145.8150 C   0  0  1  0  0  3  0  0  0  0  0  0
  190.5320  174.9260  141.7800 N   0  0  0  0  0  2  0  0  0  0  0  0
  191.9090  177.1610  147.4810 N   0  0  0  0  0  2  0  0  0  0  0  0
  190.9900  172.7960  142.6230 O   0  0  0  0  0  0  0  0  0  0  0  0
  190.1630  176.6540  145.9430 N   0  0  0  0  0  2  0  0  0  0  0  0
  184.6950  178.0050  147.2630 C   0  0  0  0  0  1  0  0  0  0  0  0
  185.9300  177.6940  146.4960 C   0  0  0  0  0  0  0  0  0  0  0  0
  187.5040  177.7280  144.9900 O   0  0  0  0  0  0  0  0  0  0  0  0
  186.7940  176.7200  146.8420 N   0  0  0  0  0  0  0  0  0  0  0  0
  186.3860  178.3060  145.3460 C   0  0  0  0  0  0  0  0  0  0  0  0
  187.7430  176.7910  145.8790 C   0  0  0  0  0  0  0  0  0  0  0  0
  185.7890  179.3840  144.6190 N   0  0  0  0  0  2  0  0  0  0  0  0
  185.6800  179.4150  143.1680 C   0  0  0  0  0  2  0  0  0  0  0  0
  185.1370  177.9720  141.2120 C   0  0  0  0  0  1  0  0  0  0  0  0
  184.8670  178.2290  142.6840 C   0  0  0  0  0  2  0  0  0  0  0  0
  195.0240  171.2690  141.2350 N   0  0  0  0  0  2  0  0  0  0  0  0
  197.6520  171.2970  141.5440 O   0  0  0  0  0  0  0  0  0  0  0  0
  196.5840  171.0100  140.5260 S   0  0  0  0  0  0  0  0  0  0  0  0
  196.7040  169.5770  140.0880 O   0  0  0  0  0  0  0  0  0  0  0  0
  197.5590  173.2190  139.2430 C   0  0  0  0  0  3  0  0  0  0  0  0
  196.7890  172.0560  139.1310 C   0  0  0  0  0  0  0  0  0  0  0  0
  197.1640  173.7100  136.8990 C   0  0  0  0  0  0  0  0  0  0  0  0
  196.4020  172.5430  136.7880 C   0  0  0  0  0  3  0  0  0  0  0  0
  197.7450  174.0450  138.1310 C   0  0  0  0  0  3  0  0  0  0  0  0
  196.2150  171.7170  137.9000 C   0  0  0  0  0  3  0  0  0  0  0  0
  196.4140  174.2080  134.6490 N   0  0  0  0  0  1  0  0  0  0  0  0
  197.3570  174.5730  135.6940 C   0  0  1  0  0  3  0  0  0  0  0  0
  197.1910  176.0400  136.0490 C   0  0  0  0  0  1  0  0  0  0  0  0
  3 33  1  1  0  0  0
  3 10  1  0  0  0  0
  4 20  1  0  0  0  0
  5 17  1  0  0  0  0
  6  2  1  6  0  0  0
  6  5  1  0  0  0  0
  7 20  1  0  0  0  0
  8  9  1  6  0  0  0
  9 12  1  0  0  0  0
 10  8  1  0  0  0  0
 12 11  1  6  0  0  0
 12 13  1  0  0  0  0
 13  7  1  0  0  0  0
 14 16  1  1  0  0  0
 14  8  1  0  0  0  0
 15  1  1  6  0  0  0
 15  3  1  0  0  0  0
 15 14  1  0  0  0  0
 16 21  2  0  0  0  0
 17 18  1  0  0  0  0
 18 28  1  6  0  0  0
 18 22  1  0  0  0  0
 19 16  1  0  0  0  0
 19  6  1  0  0  0  0
 22  4  1  0  0  0  0
 24 26  1  0  0  0  0
 24 23  1  0  0  0  0
 25 27  1  0  0  0  0
 25 28  1  0  0  0  0
 27 24  2  0  0  0  0
 28 26  2  0  0  0  0
 29 27  1  0  0  0  0
 30 29  1  0  0  0  0
 31 32  1  0  0  0  0
 32 30  1  0  0  0  0
 35 33  1  0  0  0  0
 35 34  2  0  0  0  0
 36 35  2  0  0  0  0
 38 37  1  0  0  0  0
 38 35  1  0  0  0  0
 39 41  1  0  0  0  0
 40 39  2  0  0  0  0
 40 42  1  0  0  0  0
 41 37  2  0  0  0  0
 42 38  2  0  0  0  0
 43 44  1  0  0  0  0
 44 45  1  1  0  0  0
 44 39  1  0  0  0  0
M  END
>  <MODEL>
6

>  <REMARK>
 VINA RESULT:      -6.7      4.583     11.559
  Name = 
  8 active torsions:
  status: ('A' for Active; 'I' for Inactive)
    1  A    between atoms: C_4  and  N_34
    2  A    between atoms: C_8  and  S_24
    3  A    between atoms: C_12  and  C_13
    4  A    between atoms: N_17  and  C_30
    5  A    between atoms: N_17  and  C_40
    6  A    between atoms: C_21  and  C_30
    7  A    between atoms: S_24  and  N_34
    8  A    between atoms: C_33  and  C_45
                            x       y       z     vdW  Elec       q    Type
                         _______ _______ _______ _____ _____    ______ ____

>  <TORSDO>
F 8

$$$$
=
 OpenBabel11062420423D

 45 48  0  0  1  0  0  0  0  0999 V2000
  193.2310  171.6450  137.6120 C   0  0  0  0  0  1  0  0  0  0  0  0
  188.0740  174.1900  138.3230 C   0  0  0  0  0  1  0  0  0  0  0  0
  194.2770  171.0460  139.7770 C   0  0  2  0  0  3  0  0  0  0  0  0
  189.5710  176.0290  144.4610 C   0  0  0  0  0  2  0  0  0  0  0  0
  188.6930  174.8310  140.5200 O   0  0  0  0  0  0  0  0  0  0  0  0
  188.8000  173.7950  139.5910 C   0  0  2  0  0  3  0  0  0  0  0  0
  191.8340  175.5270  144.8370 C   0  0  0  0  0  2  0  0  0  0  0  0
  193.0880  172.4070  141.1350 C   0  0  2  0  0  3  0  0  0  0  0  0
  193.2640  173.7910  141.7390 C   0  0  0  0  0  2  0  0  0  0  0  0
  194.3320  171.7700  140.9870 O   0  0  0  0  0  0  0  0  0  0  0  0
  191.1850  173.5170  142.8910 O   0  0  0  0  0  1  0  0  0  0  0  0
  192.5150  173.9090  143.0590 C   0  0  2  0  0  3  0  0  0  0  0  0
  192.5640  175.3560  143.5160 C   0  0  0  0  0  2  0  0  0  0  0  0
  192.4400  172.5140  139.7800 C   0  0  1  0  0  3  0  0  0  0  0  0
  192.9680  171.3140  139.0680 C   0  0  1  0  0  3  0  0  0  0  0  0
  190.9460  172.5020  139.8840 C   0  0  0  0  0  0  0  0  0  0  0  0
  188.2300  174.2290  141.6940 C   0  0  0  0  0  2  0  0  0  0  0  0
  188.0920  175.2560  142.8160 C   0  0  1  0  0  3  0  0  0  0  0  0
  190.2020  173.5650  139.2880 N   0  0  0  0  0  2  0  0  0  0  0  0
  190.8750  176.6170  144.7320 N   0  0  0  0  0  2  0  0  0  0  0  0
  190.3540  171.5780  140.5080 O   0  0  0  0  0  0  0  0  0  0  0  0
  189.3470  175.9650  143.0250 N   0  0  0  0  0  2  0  0  0  0  0  0
  185.0140  178.3780  140.5080 C   0  0  0  0  0  1  0  0  0  0  0  0
  185.6700  177.5600  141.5630 C   0  0  0  0  0  0  0  0  0  0  0  0
  186.1750  176.6670  143.4850 O   0  0  0  0  0  0  0  0  0  0  0  0
  186.7190  176.7490  141.3290 N   0  0  0  0  0  0  0  0  0  0  0  0
  185.3480  177.4970  142.9040 C   0  0  0  0  0  0  0  0  0  0  0  0
  186.9830  176.2240  142.5480 C   0  0  0  0  0  0  0  0  0  0  0  0
  184.3100  178.1930  143.6000 N   0  0  0  0  0  2  0  0  0  0  0  0
  184.5580  179.1840  144.6360 C   0  0  0  0  0  2  0  0  0  0  0  0
  185.2070  178.6520  146.9810 C   0  0  0  0  0  1  0  0  0  0  0  0
  184.0690  178.6670  145.9760 C   0  0  0  0  0  2  0  0  0  0  0  0
  194.4150  169.6230  140.0420 N   0  0  0  0  0  2  0  0  0  0  0  0
  196.6180  168.1660  139.8850 O   0  0  0  0  0  0  0  0  0  0  0  0
  196.0280  169.3440  140.6080 S   0  0  0  0  0  0  0  0  0  0  0  0
  196.8730  170.5560  140.3310 O   0  0  0  0  0  0  0  0  0  0  0  0
  197.2160  168.9980  143.0470 C   0  0  0  0  0  3  0  0  0  0  0  0
  196.0120  169.0380  142.3370 C   0  0  0  0  0  0  0  0  0  0  0  0
  195.9940  168.5980  145.1050 C   0  0  0  0  0  0  0  0  0  0  0  0
  194.7910  168.6460  144.3940 C   0  0  0  0  0  3  0  0  0  0  0  0
  197.2090  168.7780  144.4260 C   0  0  0  0  0  3  0  0  0  0  0  0
  194.7990  168.8670  143.0140 C   0  0  0  0  0  3  0  0  0  0  0  0
  196.8570  169.2910  147.2620 N   0  0  0  0  0  1  0  0  0  0  0  0
  195.9610  168.3690  146.5820 C   0  0  1  0  0  3  0  0  0  0  0  0
  194.5510  168.5290  147.1220 C   0  0  0  0  0  1  0  0  0  0  0  0
  3 33  1  1  0  0  0
  3 10  1  0  0  0  0
  4 20  1  0  0  0  0
  5 17  1  0  0  0  0
  6  2  1  6  0  0  0
  6  5  1  0  0  0  0
  8  9  1  6  0  0  0
  9 12  1  0  0  0  0
 10  8  1  0  0  0  0
 12 11  1  6  0  0  0
 12 13  1  0  0  0  0
 13  7  1  0  0  0  0
 14 16  1  1  0  0  0
 14  8  1  0  0  0  0
 15  1  1  6  0  0  0
 15  3  1  0  0  0  0
 15 14  1  0  0  0  0
 16 21  2  0  0  0  0
 17 18  1  0  0  0  0
 18 28  1  6  0  0  0
 18 22  1  0  0  0  0
 19  6  1  0  0  0  0
 19 16  1  0  0  0  0
 20  7  1  0  0  0  0
 22  4  1  0  0  0  0
 23 24  1  0  0  0  0
 24 27  2  0  0  0  0
 26 24  1  0  0  0  0
 26 28  2  0  0  0  0
 27 25  1  0  0  0  0
 27 29  1  0  0  0  0
 28 25  1  0  0  0  0
 29 30  1  0  0  0  0
 30 32  1  0  0  0  0
 32 31  1  0  0  0  0
 33 35  1  0  0  0  0
 34 35  2  0  0  0  0
 35 38  1  0  0  0  0
 36 35  2  0  0  0  0
 37 41  1  0  0  0  0
 38 42  1  0  0  0  0
 38 37  2  0  0  0  0
 39 44  1  0  0  0  0
 40 39  1  0  0  0  0
 41 39  2  0  0  0  0
 42 40  2  0  0  0  0
 44 45  1  1  0  0  0
 44 43  1  0  0  0  0
M  END
>  <MODEL>
7

>  <REMARK>
 VINA RESULT:      -6.7      3.226     11.901
  Name = 
  8 active torsions:
  status: ('A' for Active; 'I' for Inactive)
    1  A    between atoms: C_4  and  N_34
    2  A    between atoms: C_8  and  S_24
    3  A    between atoms: C_12  and  C_13
    4  A    between atoms: N_17  and  C_30
    5  A    between atoms: N_17  and  C_40
    6  A    between atoms: C_21  and  C_30
    7  A    between atoms: S_24  and  N_34
    8  A    between atoms: C_33  and  C_45
                            x       y       z     vdW  Elec       q    Type
                         _______ _______ _______ _____ _____    ______ ____

>  <TORSDO>
F 8

$$$$
=
 OpenBabel11062420423D

 45 48  0  0  1  0  0  0  0  0999 V2000
  193.0190  174.3690  147.1930 C   0  0  0  0  0  1  0  0  0  0  0  0
  188.2720  177.5330  146.1810 C   0  0  0  0  0  1  0  0  0  0  0  0
  194.2410  173.8350  145.1050 C   0  0  2  0  0  3  0  0  0  0  0  0
  187.9580  175.4850  139.9350 C   0  0  0  0  0  2  0  0  0  0  0  0
  188.2170  176.7370  143.9480 O   0  0  0  0  0  0  0  0  0  0  0  0
  189.0830  177.1460  144.9630 C   0  0  2  0  0  3  0  0  0  0  0  0
  189.5710  173.8040  139.6420 C   0  0  0  0  0  2  0  0  0  0  0  0
  192.5820  174.2050  143.6160 C   0  0  2  0  0  3  0  0  0  0  0  0
  191.5340  173.3670  142.9000 C   0  0  0  0  0  2  0  0  0  0  0  0
  193.7480  173.4540  143.8390 O   0  0  0  0  0  0  0  0  0  0  0  0
  190.8050  175.3290  141.7400 O   0  0  0  0  0  1  0  0  0  0  0  0
  191.1590  173.9900  141.5630 C   0  0  2  0  0  3  0  0  0  0  0  0
  189.9810  173.2250  140.9850 C   0  0  0  0  0  2  0  0  0  0  0  0
  192.0490  174.6700  144.9460 C   0  0  1  0  0  3  0  0  0  0  0  0
  193.2880  174.8060  145.7650 C   0  0  1  0  0  3  0  0  0  0  0  0
  191.3080  175.9640  144.8180 C   0  0  0  0  0  0  0  0  0  0  0  0
  188.5920  177.4760  142.8220 C   0  0  0  0  0  2  0  0  0  0  0  0
  187.7340  177.1040  141.6150 C   0  0  1  0  0  3  0  0  0  0  0  0
  189.9700  176.0470  145.3090 N   0  0  0  0  0  2  0  0  0  0  0  0
  188.1410  174.0720  139.6380 N   0  0  0  0  0  2  0  0  0  0  0  0
  191.8490  176.9620  144.2650 O   0  0  0  0  0  0  0  0  0  0  0  0
  187.7830  175.6700  141.3680 N   0  0  0  0  0  2  0  0  0  0  0  0
  183.0020  178.2270  140.6700 C   0  0  0  0  0  1  0  0  0  0  0  0
  184.2970  178.0410  141.3770 C   0  0  0  0  0  0  0  0  0  0  0  0
  185.8450  178.0360  142.9100 O   0  0  0  0  0  0  0  0  0  0  0  0
  185.4000  177.5400  140.7870 N   0  0  0  0  0  0  0  0  0  0  0  0
  184.5930  178.3440  142.6910 C   0  0  0  0  0  0  0  0  0  0  0  0
  186.3190  177.5580  141.7810 C   0  0  0  0  0  0  0  0  0  0  0  0
  183.7320  178.9000  143.6880 N   0  0  0  0  0  2  0  0  0  0  0  0
  184.1990  179.3900  144.9760 C   0  0  0  0  0  2  0  0  0  0  0  0
  184.8900  178.6610  147.2550 C   0  0  0  0  0  1  0  0  0  0  0  0
  184.0900  178.2930  146.0180 C   0  0  0  0  0  2  0  0  0  0  0  0
  195.5530  174.4480  144.9640 N   0  0  0  0  0  2  0  0  0  0  0  0
  197.9330  173.3620  144.5690 O   0  0  0  0  0  0  0  0  0  0  0  0
  196.5360  173.3810  144.0150 S   0  0  0  0  0  0  0  0  0  0  0  0
  195.9700  171.9900  144.0770 O   0  0  0  0  0  0  0  0  0  0  0  0
  196.3290  175.2640  142.0420 C   0  0  0  0  0  3  0  0  0  0  0  0
  196.5610  173.9180  142.3440 C   0  0  0  0  0  0  0  0  0  0  0  0
  196.6470  174.7940  139.6820 C   0  0  0  0  0  0  0  0  0  0  0  0
  196.8850  173.4500  139.9870 C   0  0  0  0  0  3  0  0  0  0  0  0
  196.3700  175.7020  140.7160 C   0  0  0  0  0  3  0  0  0  0  0  0
  196.8440  173.0120  141.3140 C   0  0  0  0  0  3  0  0  0  0  0  0
  197.9080  174.7400  137.6130 N   0  0  0  0  0  1  0  0  0  0  0  0
  196.7040  175.2410  138.2570 C   0  0  1  0  0  3  0  0  0  0  0  0
  195.4780  174.7720  137.4940 C   0  0  0  0  0  1  0  0  0  0  0  0
  3 33  1  6  0  0  0
  3 15  1  0  0  0  0
  4 22  1  0  0  0  0
  5  6  1  0  0  0  0
  6 19  1  0  0  0  0
  6  2  1  1  0  0  0
  7 13  1  0  0  0  0
  8  9  1  1  0  0  0
  8 10  1  0  0  0  0
  8 14  1  0  0  0  0
 10  3  1  0  0  0  0
 12 11  1  1  0  0  0
 12  9  1  0  0  0  0
 13 12  1  0  0  0  0
 14 16  1  6  0  0  0
 14 15  1  0  0  0  0
 15  1  1  1  0  0  0
 16 19  1  0  0  0  0
 17  5  1  0  0  0  0
 18 28  1  1  0  0  0
 18 17  1  0  0  0  0
 20  7  1  0  0  0  0
 20  4  1  0  0  0  0
 21 16  2  0  0  0  0
 22 18  1  0  0  0  0
 23 24  1  0  0  0  0
 24 27  2  0  0  0  0
 26 24  1  0  0  0  0
 26 28  2  0  0  0  0
 27 25  1  0  0  0  0
 27 29  1  0  0  0  0
 28 25  1  0  0  0  0
 29 30  1  0  0  0  0
 30 32  1  0  0  0  0
 32 31  1  0  0  0  0
 35 36  2  0  0  0  0
 35 34  2  0  0  0  0
 35 33  1  0  0  0  0
 37 38  1  0  0  0  0
 38 35  1  0  0  0  0
 39 40  2  0  0  0  0
 39 41  1  0  0  0  0
 40 42  1  0  0  0  0
 41 37  2  0  0  0  0
 42 38  2  0  0  0  0
 43 44  1  0  0  0  0
 44 45  1  6  0  0  0
 44 39  1  0  0  0  0
M  END
>  <MODEL>
8

>  <REMARK>
 VINA RESULT:      -6.5      3.876     11.023
  Name = 
  8 active torsions:
  status: ('A' for Active; 'I' for Inactive)
    1  A    between atoms: C_4  and  N_34
    2  A    between atoms: C_8  and  S_24
    3  A    between atoms: C_12  and  C_13
    4  A    between atoms: N_17  and  C_30
    5  A    between atoms: N_17  and  C_40
    6  A    between atoms: C_21  and  C_30
    7  A    between atoms: S_24  and  N_34
    8  A    between atoms: C_33  and  C_45
                            x       y       z     vdW  Elec       q    Type
                         _______ _______ _______ _____ _____    ______ ____

>  <TORSDO>
F 8

$$$$
=
 OpenBabel11062420423D

 45 48  0  0  1  0  0  0  0  0999 V2000
  188.5520  174.7230  144.6490 C   0  0  0  0  0  1  0  0  0  0  0  0
  191.4950  173.6190  139.7810 C   0  0  0  0  0  1  0  0  0  0  0  0
  189.8760  176.0760  146.2480 C   0  0  2  0  0  3  0  0  0  0  0  0
  197.2710  174.5890  142.7800 C   0  0  0  0  0  2  0  0  0  0  0  0
  193.5360  173.9680  140.9360 O   0  0  0  0  0  0  0  0  0  0  0  0
  192.2250  174.4330  140.8280 C   0  0  2  0  0  3  0  0  0  0  0  0
  196.8600  174.8500  145.0770 C   0  0  0  0  0  2  0  0  0  0  0  0
  191.9420  175.6920  145.4150 C   0  0  2  0  0  3  0  0  0  0  0  0
  193.0840  174.7300  145.6980 C   0  0  0  0  0  2  0  0  0  0  0  0
  191.2410  175.9880  146.5960 O   0  0  0  0  0  0  0  0  0  0  0  0
  194.3780  175.8190  144.0050 O   0  0  0  0  0  1  0  0  0  0  0  0
  194.4230  175.3470  145.3190 C   0  0  2  0  0  3  0  0  0  0  0  0
  195.4990  174.2820  145.4390 C   0  0  0  0  0  2  0  0  0  0  0  0
  190.9820  175.0770  144.4290 C   0  0  1  0  0  3  0  0  0  0  0  0
  189.6860  175.7200  144.7900 C   0  0  1  0  0  3  0  0  0  0  0  0
  191.3870  175.3670  143.0170 C   0  0  0  0  0  0  0  0  0  0  0  0
  194.3420  175.1040  140.8180 C   0  0  0  0  0  2  0  0  0  0  0  0
  195.8200  174.7410  140.9470 C   0  0  1  0  0  3  0  0  0  0  0  0
  191.5530  174.2790  142.1080 N   0  0  0  0  0  2  0  0  0  0  0  0
  197.5030  173.9960  144.0890 N   0  0  0  0  0  2  0  0  0  0  0  0
  191.5980  176.5530  142.6400 O   0  0  0  0  0  0  0  0  0  0  0  0
  196.0680  174.0220  142.1880 N   0  0  0  0  0  2  0  0  0  0  0  0
  197.9230  171.1910  138.2040 C   0  0  0  0  0  1  0  0  0  0  0  0
  197.1990  172.4280  138.6030 C   0  0  0  0  0  0  0  0  0  0  0  0
  196.1310  174.3250  138.5290 O   0  0  0  0  0  0  0  0  0  0  0  0
  196.9610  172.7670  139.8840 N   0  0  0  0  0  0  0  0  0  0  0  0
  196.6790  173.4050  137.7790 C   0  0  0  0  0  0  0  0  0  0  0  0
  196.2980  173.9430  139.7760 C   0  0  0  0  0  0  0  0  0  0  0  0
  196.7050  173.4650  136.3500 N   0  0  0  0  0  2  0  0  0  0  0  0
  197.3270  174.5450  135.5980 C   0  0  0  0  0  2  0  0  0  0  0  0
  196.0130  176.6060  135.1180 C   0  0  0  0  0  1  0  0  0  0  0  0
  196.3100  175.1850  134.6720 C   0  0  0  0  0  2  0  0  0  0  0  0
  189.3850  177.4220  146.4970 N   0  0  0  0  0  2  0  0  0  0  0  0
  187.3240  175.9280  147.2200 O   0  0  0  0  0  0  0  0  0  0  0  0
  187.6770  177.3190  146.7740 S   0  0  0  0  0  0  0  0  0  0  0  0
  187.2850  178.2880  147.8530 O   0  0  0  0  0  0  0  0  0  0  0  0
  187.5160  178.0540  144.1450 C   0  0  0  0  0  3  0  0  0  0  0  0
  186.8070  177.7150  145.3020 C   0  0  0  0  0  0  0  0  0  0  0  0
  185.4280  178.3010  142.9330 C   0  0  0  0  0  0  0  0  0  0  0  0
  184.7220  177.9540  144.0890 C   0  0  0  0  0  3  0  0  0  0  0  0
  186.8300  178.3490  142.9640 C   0  0  0  0  0  3  0  0  0  0  0  0
  185.4080  177.6600  145.2700 C   0  0  0  0  0  3  0  0  0  0  0  0
  185.1960  177.8250  140.5670 N   0  0  0  0  0  1  0  0  0  0  0  0
  184.6720  178.6040  141.6780 C   0  0  1  0  0  3  0  0  0  0  0  0
  183.1920  178.3160  141.8570 C   0  0  0  0  0  1  0  0  0  0  0  0
  3 33  1  6  0  0  0
  3 10  1  0  0  0  0
  4 20  1  0  0  0  0
  6  2  1  6  0  0  0
  6  5  1  0  0  0  0
  6 19  1  0  0  0  0
  7 13  1  0  0  0  0
  8  9  1  1  0  0  0
  8 10  1  0  0  0  0
 12 11  1  6  0  0  0
 12 13  1  0  0  0  0
 12  9  1  0  0  0  0
 14 16  1  6  0  0  0
 14 15  1  0  0  0  0
 14  8  1  0  0  0  0
 15  1  1  1  0  0  0
 15  3  1  0  0  0  0
 17  5  1  0  0  0  0
 17 18  1  0  0  0  0
 18 28  1  6  0  0  0
 18 22  1  0  0  0  0
 19 16  1  0  0  0  0
 20  7  1  0  0  0  0
 21 16  2  0  0  0  0
 22  4  1  0  0  0  0
 23 24  1  0  0  0  0
 24 26  1  0  0  0  0
 25 28  1  0  0  0  0
 27 25  1  0  0  0  0
 27 24  2  0  0  0  0
 28 26  2  0  0  0  0
 29 27  1  0  0  0  0
 30 29  1  0  0  0  0
 32 31  1  0  0  0  0
 32 30  1  0  0  0  0
 33 35  1  0  0  0  0
 35 34  2  0  0  0  0
 35 36  2  0  0  0  0
 37 38  1  0  0  0  0
 38 35  1  0  0  0  0
 39 41  1  0  0  0  0
 39 40  2  0  0  0  0
 40 42  1  0  0  0  0
 41 37  2  0  0  0  0
 42 38  2  0  0  0  0
 43 44  1  0  0  0  0
 44 45  1  1  0  0  0
 44 39  1  0  0  0  0
M  END
>  <MODEL>
9

>  <REMARK>
 VINA RESULT:      -6.4      4.247      6.248
  Name = 
  8 active torsions:
  status: ('A' for Active; 'I' for Inactive)
    1  A    between atoms: C_4  and  N_34
    2  A    between atoms: C_8  and  S_24
    3  A    between atoms: C_12  and  C_13
    4  A    between atoms: N_17  and  C_30
    5  A    between atoms: N_17  and  C_40
    6  A    between atoms: C_21  and  C_30
    7  A    between atoms: S_24  and  N_34
    8  A    between atoms: C_33  and  C_45
                            x       y       z     vdW  Elec       q    Type
                         _______ _______ _______ _____ _____    ______ ____

>  <TORSDO>
F 8

$$$$
