=
 OpenBabel11072408333D

 26 28  0  0  1  0  0  0  0  0999 V2000
  187.9060  177.6640  143.2270 C   0  0  0  0  0  0  0  0  0  0  0  0
  188.1250  177.7560  141.7460 C   0  0  0  0  0  2  0  0  0  0  0  0
  185.6790  178.6960  143.0660 C   0  0  0  0  0  0  0  0  0  0  0  0
  188.1050  177.4700  145.4310 C   0  0  0  0  0  0  0  0  0  0  0  0
  185.7800  178.6160  141.6390 N   0  0  0  0  0  2  0  0  0  0  0  0
  184.6910  179.2580  143.6080 O   0  0  0  0  0  0  0  0  0  0  0  0
  188.7690  177.2620  144.2230 C   0  0  0  0  0  0  0  0  0  0  0  0
  186.8870  178.0120  145.1910 N   0  0  0  0  0  0  0  0  0  0  0  0
  186.7840  178.1440  143.8510 C   0  0  0  0  0  0  0  0  0  0  0  0
  186.7730  177.7350  141.0060 C   0  0  0  0  0  2  0  0  0  0  0  0
  191.3410  178.6010  143.8070 O   0  0  0  0  0  0  0  0  0  0  0  0
  190.0490  176.6580  144.0030 N   0  0  0  0  0  2  0  0  0  0  0  0
  191.2990  177.3520  143.9630 C   0  0  0  0  0  0  0  0  0  0  0  0
  192.5690  176.5830  144.0760 C   0  0  0  0  0  2  0  0  0  0  0  0
  191.3410  174.0540  145.5030 O   0  0  0  0  0  0  0  0  0  0  0  0
  193.5980  173.5900  145.2130 N   0  0  0  0  0  2  0  0  0  0  0  0
  192.5150  174.5040  145.4340 C   0  0  0  0  0  0  0  0  0  0  0  0
  194.7010  177.7620  145.5800 O   0  0  0  0  0  0  0  0  0  0  0  0
  192.7260  175.9940  145.4740 C   0  0  1  0  0  3  0  0  0  0  0  0
  195.4040  175.2630  145.2270 C   0  0  0  0  0  2  0  0  0  0  0  0
  194.9870  173.8490  145.5820 C   0  0  0  0  0  2  0  0  0  0  0  0
  194.3560  176.3920  146.1490 S   0  0  1  0  0  0  0  0  0  0  0  0
  185.8910  178.3840  146.1880 C   0  0  0  0  0  2  0  0  0  0  0  0
  184.9380  177.2280  146.4260 C   0  0  0  0  0  1  0  0  0  0  0  0
  188.5600  177.0200  146.7810 C   0  0  0  0  0  2  0  0  0  0  0  0
  188.3200  175.6540  146.9250 O   0  0  0  0  0  1  0  0  0  0  0  0
  1  9  2  0  0  0  0
  1  7  1  0  0  0  0
  2  1  1  0  0  0  0
  3  6  2  0  0  0  0
  3  9  1  0  0  0  0
  4 25  1  0  0  0  0
  5  3  1  0  0  0  0
  7  4  2  0  0  0  0
  8  4  1  0  0  0  0
  8 23  1  0  0  0  0
  9  8  1  0  0  0  0
 10  5  1  0  0  0  0
 10  2  1  0  0  0  0
 11 13  2  0  0  0  0
 12  7  1  0  0  0  0
 13 12  1  0  0  0  0
 13 14  1  0  0  0  0
 16 17  1  0  0  0  0
 16 21  1  0  0  0  0
 17 19  1  0  0  0  0
 17 15  2  0  0  0  0
 19 14  1  6  0  0  0
 19 22  1  0  0  0  0
 20 21  1  0  0  0  0
 20 22  1  0  0  0  0
 22 18  2  6  0  0  0
 23 24  1  0  0  0  0
 25 26  1  0  0  0  0
M  END
>  <MODEL>
1

>  <REMARK>
 VINA RESULT:      -7.0      0.000      0.000
  Name = 
  5 active torsions:
  status: ('A' for Active; 'I' for Inactive)
    1  A    between atoms: C_6  and  N_18
    2  A    between atoms: C_9  and  C_12
    3  A    between atoms: C_10  and  C_24
    4  A    between atoms: C_16  and  N_23
    5  A    between atoms: C_24  and  C_26
                            x       y       z     vdW  Elec       q    Type
                         _______ _______ _______ _____ _____    ______ ____

>  <TORSDO>
F 5

$$$$
=
 OpenBabel11072408333D

 26 28  0  0  1  0  0  0  0  0999 V2000
  187.1110  177.4370  145.7310 C   0  0  0  0  0  0  0  0  0  0  0  0
  186.9250  176.9930  147.1510 C   0  0  0  0  0  2  0  0  0  0  0  0
  184.8760  178.4600  145.6490 C   0  0  0  0  0  0  0  0  0  0  0  0
  187.7690  177.7320  143.6290 C   0  0  0  0  0  0  0  0  0  0  0  0
  184.7510  178.2230  147.0560 N   0  0  0  0  0  2  0  0  0  0  0  0
  183.9150  178.9390  144.9920 O   0  0  0  0  0  0  0  0  0  0  0  0
  188.1420  177.1790  144.8540 C   0  0  0  0  0  0  0  0  0  0  0  0
  186.5370  178.2830  143.7380 N   0  0  0  0  0  0  0  0  0  0  0  0
  186.1380  178.0820  145.0120 C   0  0  0  0  0  0  0  0  0  0  0  0
  185.9360  177.9280  147.8750 C   0  0  0  0  0  2  0  0  0  0  0  0
  189.0900  174.5150  144.0880 O   0  0  0  0  0  0  0  0  0  0  0  0
  189.3800  176.5510  145.2080 N   0  0  0  0  0  2  0  0  0  0  0  0
  189.8640  175.3140  144.6790 C   0  0  0  0  0  0  0  0  0  0  0  0
  191.2970  174.9500  144.8580 C   0  0  0  0  0  2  0  0  0  0  0  0
  192.3070  176.6420  147.3190 O   0  0  0  0  0  0  0  0  0  0  0  0
  194.1900  175.6000  146.4460 N   0  0  0  0  0  2  0  0  0  0  0  0
  192.8930  176.1950  146.2990 C   0  0  0  0  0  0  0  0  0  0  0  0
  192.6020  175.6810  142.4170 O   0  0  0  0  0  0  0  0  0  0  0  0
  192.1640  176.2000  144.9820 C   0  0  1  0  0  3  0  0  0  0  0  0
  194.5330  175.0510  144.0710 C   0  0  0  0  0  2  0  0  0  0  0  0
  195.1750  175.4890  145.3730 C   0  0  0  0  0  2  0  0  0  0  0  0
  193.3310  176.2990  143.6040 S   0  0  1  0  0  0  0  0  0  0  0  0
  185.7910  178.9550  142.6810 C   0  0  0  0  0  2  0  0  0  0  0  0
  185.0010  177.9390  141.8780 C   0  0  0  0  0  1  0  0  0  0  0  0
  188.6340  177.8680  142.4190 C   0  0  0  0  0  2  0  0  0  0  0  0
  188.4500  176.7670  141.5840 O   0  0  0  0  0  1  0  0  0  0  0  0
  1  2  1  0  0  0  0
  2 10  1  0  0  0  0
  3  5  1  0  0  0  0
  4  8  1  0  0  0  0
  4  7  2  0  0  0  0
  5 10  1  0  0  0  0
  6  3  2  0  0  0  0
  7 12  1  0  0  0  0
  7  1  1  0  0  0  0
  8  9  1  0  0  0  0
  9  3  1  0  0  0  0
  9  1  2  0  0  0  0
 11 13  2  0  0  0  0
 13 14  1  0  0  0  0
 13 12  1  0  0  0  0
 17 16  1  0  0  0  0
 17 15  2  0  0  0  0
 19 14  1  6  0  0  0
 19 17  1  0  0  0  0
 20 21  1  0  0  0  0
 21 16  1  0  0  0  0
 22 18  2  6  0  0  0
 22 20  1  0  0  0  0
 22 19  1  0  0  0  0
 23  8  1  0  0  0  0
 24 23  1  0  0  0  0
 25  4  1  0  0  0  0
 26 25  1  0  0  0  0
M  END
>  <MODEL>
2

>  <REMARK>
 VINA RESULT:      -6.8      1.951      3.431
  Name = 
  5 active torsions:
  status: ('A' for Active; 'I' for Inactive)
    1  A    between atoms: C_6  and  N_18
    2  A    between atoms: C_9  and  C_12
    3  A    between atoms: C_10  and  C_24
    4  A    between atoms: C_16  and  N_23
    5  A    between atoms: C_24  and  C_26
                            x       y       z     vdW  Elec       q    Type
                         _______ _______ _______ _____ _____    ______ ____

>  <TORSDO>
F 5

$$$$
=
 OpenBabel11072408333D

 26 28  0  0  1  0  0  0  0  0999 V2000
  187.9860  177.3680  143.2320 C   0  0  0  0  0  0  0  0  0  0  0  0
  188.2690  177.3150  141.7610 C   0  0  0  0  0  2  0  0  0  0  0  0
  185.9140  178.6500  142.8940 C   0  0  0  0  0  0  0  0  0  0  0  0
  188.0800  177.3270  145.4520 C   0  0  0  0  0  0  0  0  0  0  0  0
  186.0560  178.4450  141.4840 N   0  0  0  0  0  2  0  0  0  0  0  0
  184.9860  179.3690  143.3480 O   0  0  0  0  0  0  0  0  0  0  0  0
  188.7550  176.9430  144.2940 C   0  0  0  0  0  0  0  0  0  0  0  0
  186.9490  177.9930  145.1170 N   0  0  0  0  0  0  0  0  0  0  0  0
  186.9120  178.0290  143.7670 C   0  0  0  0  0  0  0  0  0  0  0  0
  186.9520  177.4010  140.9640 C   0  0  0  0  0  2  0  0  0  0  0  0
  191.5150  177.9180  144.1750 O   0  0  0  0  0  0  0  0  0  0  0  0
  189.9560  176.1710  144.1780 N   0  0  0  0  0  2  0  0  0  0  0  0
  191.2870  176.6840  144.2840 C   0  0  0  0  0  0  0  0  0  0  0  0
  192.4220  175.7430  144.4920 C   0  0  0  0  0  2  0  0  0  0  0  0
  194.0830  177.0190  146.8460 O   0  0  0  0  0  0  0  0  0  0  0  0
  195.3150  175.1920  146.1140 N   0  0  0  0  0  2  0  0  0  0  0  0
  194.4090  176.2800  145.8820 C   0  0  0  0  0  0  0  0  0  0  0  0
  193.9020  175.6260  142.0430 O   0  0  0  0  0  0  0  0  0  0  0  0
  193.7480  176.4930  144.5460 C   0  0  1  0  0  3  0  0  0  0  0  0
  195.3710  174.3540  143.8000 C   0  0  0  0  0  2  0  0  0  0  0  0
  196.1460  174.5730  145.0850 C   0  0  0  0  0  2  0  0  0  0  0  0
  194.8340  175.9590  143.2020 S   0  0  1  0  0  0  0  0  0  0  0  0
  185.9730  178.5620  146.0370 C   0  0  0  0  0  2  0  0  0  0  0  0
  184.8830  177.5490  146.3290 C   0  0  0  0  0  1  0  0  0  0  0  0
  188.4250  176.9320  146.8510 C   0  0  0  0  0  2  0  0  0  0  0  0
  188.1140  175.5870  147.0490 O   0  0  0  0  0  1  0  0  0  0  0  0
  1  9  2  0  0  0  0
  1  7  1  0  0  0  0
  2  1  1  0  0  0  0
  3  6  2  0  0  0  0
  3  9  1  0  0  0  0
  4 25  1  0  0  0  0
  5  3  1  0  0  0  0
  7  4  2  0  0  0  0
  8  4  1  0  0  0  0
  8 23  1  0  0  0  0
  9  8  1  0  0  0  0
 10  5  1  0  0  0  0
 10  2  1  0  0  0  0
 11 13  2  0  0  0  0
 12 13  1  0  0  0  0
 12  7  1  0  0  0  0
 13 14  1  0  0  0  0
 17 16  1  0  0  0  0
 17 15  2  0  0  0  0
 19 14  1  1  0  0  0
 19 17  1  0  0  0  0
 20 21  1  0  0  0  0
 21 16  1  0  0  0  0
 22 18  2  6  0  0  0
 22 20  1  0  0  0  0
 22 19  1  0  0  0  0
 23 24  1  0  0  0  0
 25 26  1  0  0  0  0
M  END
>  <MODEL>
3

>  <REMARK>
 VINA RESULT:      -6.8      1.349      1.629
  Name = 
  5 active torsions:
  status: ('A' for Active; 'I' for Inactive)
    1  A    between atoms: C_6  and  N_18
    2  A    between atoms: C_9  and  C_12
    3  A    between atoms: C_10  and  C_24
    4  A    between atoms: C_16  and  N_23
    5  A    between atoms: C_24  and  C_26
                            x       y       z     vdW  Elec       q    Type
                         _______ _______ _______ _____ _____    ______ ____

>  <TORSDO>
F 5

$$$$
=
 OpenBabel11072408333D

 26 28  0  0  1  0  0  0  0  0999 V2000
  187.5710  177.8950  143.2160 C   0  0  0  0  0  0  0  0  0  0  0  0
  188.0610  178.1750  141.8270 C   0  0  0  0  0  2  0  0  0  0  0  0
  185.2190  177.8810  142.4950 C   0  0  0  0  0  0  0  0  0  0  0  0
  187.3230  177.6540  145.4110 C   0  0  0  0  0  0  0  0  0  0  0  0
  185.6690  177.9520  141.1370 N   0  0  0  0  0  2  0  0  0  0  0  0
  183.9910  177.9260  142.7670 O   0  0  0  0  0  0  0  0  0  0  0  0
  188.2690  177.8340  144.4020 C   0  0  0  0  0  0  0  0  0  0  0  0
  186.0820  177.6360  144.8690 N   0  0  0  0  0  0  0  0  0  0  0  0
  186.2420  177.8030  143.5390 C   0  0  0  0  0  0  0  0  0  0  0  0
  187.0600  177.6270  140.7900 C   0  0  0  0  0  2  0  0  0  0  0  0
  190.1060  175.5520  144.3820 O   0  0  0  0  0  0  0  0  0  0  0  0
  189.6970  177.8540  144.5140 N   0  0  0  0  0  2  0  0  0  0  0  0
  190.5590  176.7260  144.3390 C   0  0  0  0  0  0  0  0  0  0  0  0
  192.0180  176.9430  144.1370 C   0  0  0  0  0  2  0  0  0  0  0  0
  192.8520  175.1730  141.6650 O   0  0  0  0  0  0  0  0  0  0  0  0
  194.8300  176.0120  142.5450 N   0  0  0  0  0  2  0  0  0  0  0  0
  193.4790  175.5510  142.6890 C   0  0  0  0  0  0  0  0  0  0  0  0
  193.2410  176.0670  146.5740 O   0  0  0  0  0  0  0  0  0  0  0  0
  192.7530  175.6130  144.0060 C   0  0  1  0  0  3  0  0  0  0  0  0
  195.2270  176.5080  144.9240 C   0  0  0  0  0  2  0  0  0  0  0  0
  195.8210  176.0150  143.6180 C   0  0  0  0  0  2  0  0  0  0  0  0
  193.9030  175.3860  145.3830 S   0  0  1  0  0  0  0  0  0  0  0  0
  184.8240  177.4750  145.5880 C   0  0  0  0  0  2  0  0  0  0  0  0
  184.3360  178.8220  146.0870 C   0  0  0  0  0  1  0  0  0  0  0  0
  187.6050  177.3490  146.8460 C   0  0  0  0  0  2  0  0  0  0  0  0
  187.8390  175.9830  146.9980 O   0  0  0  0  0  1  0  0  0  0  0  0
  1  9  2  0  0  0  0
  1  7  1  0  0  0  0
  2  1  1  0  0  0  0
  3  6  2  0  0  0  0
  3  9  1  0  0  0  0
  4 25  1  0  0  0  0
  5  3  1  0  0  0  0
  7 12  1  0  0  0  0
  7  4  2  0  0  0  0
  8  4  1  0  0  0  0
  8 23  1  0  0  0  0
  9  8  1  0  0  0  0
 10  5  1  0  0  0  0
 10  2  1  0  0  0  0
 13 11  2  0  0  0  0
 13 12  1  0  0  0  0
 14 13  1  0  0  0  0
 15 17  2  0  0  0  0
 16 17  1  0  0  0  0
 16 21  1  0  0  0  0
 17 19  1  0  0  0  0
 19 14  1  1  0  0  0
 19 22  1  0  0  0  0
 20 22  1  0  0  0  0
 21 20  1  0  0  0  0
 22 18  2  1  0  0  0
 23 24  1  0  0  0  0
 25 26  1  0  0  0  0
M  END
>  <MODEL>
4

>  <REMARK>
 VINA RESULT:      -6.8      1.658      1.887
  Name = 
  5 active torsions:
  status: ('A' for Active; 'I' for Inactive)
    1  A    between atoms: C_6  and  N_18
    2  A    between atoms: C_9  and  C_12
    3  A    between atoms: C_10  and  C_24
    4  A    between atoms: C_16  and  N_23
    5  A    between atoms: C_24  and  C_26
                            x       y       z     vdW  Elec       q    Type
                         _______ _______ _______ _____ _____    ______ ____

>  <TORSDO>
F 5

$$$$
=
 OpenBabel11072408333D

 26 28  0  0  1  0  0  0  0  0999 V2000
  186.9200  177.3220  145.6590 C   0  0  0  0  0  0  0  0  0  0  0  0
  186.8920  176.9050  147.0990 C   0  0  0  0  0  2  0  0  0  0  0  0
  184.7710  178.5030  145.8500 C   0  0  0  0  0  0  0  0  0  0  0  0
  187.3170  177.5500  143.4850 C   0  0  0  0  0  0  0  0  0  0  0  0
  184.8160  178.2880  147.2650 N   0  0  0  0  0  2  0  0  0  0  0  0
  183.7690  179.0440  145.3140 O   0  0  0  0  0  0  0  0  0  0  0  0
  187.8070  176.9830  144.6600 C   0  0  0  0  0  0  0  0  0  0  0  0
  186.1520  178.1900  143.7430 N   0  0  0  0  0  0  0  0  0  0  0  0
  185.9100  178.0290  145.0620 C   0  0  0  0  0  0  0  0  0  0  0  0
  186.0740  177.9150  147.9280 C   0  0  0  0  0  2  0  0  0  0  0  0
  190.5240  178.0750  144.7660 O   0  0  0  0  0  0  0  0  0  0  0  0
  189.0340  176.2700  144.8620 N   0  0  0  0  0  2  0  0  0  0  0  0
  190.3170  176.8690  145.0630 C   0  0  0  0  0  0  0  0  0  0  0  0
  191.4340  176.0440  145.6010 C   0  0  0  0  0  2  0  0  0  0  0  0
  194.2000  177.5420  145.4030 O   0  0  0  0  0  0  0  0  0  0  0  0
  194.7060  175.3350  145.9150 N   0  0  0  0  0  2  0  0  0  0  0  0
  193.8820  176.3300  145.2920 C   0  0  0  0  0  0  0  0  0  0  0  0
  191.2470  173.8440  143.7770 O   0  0  0  0  0  0  0  0  0  0  0  0
  192.5890  175.9770  144.6070 C   0  0  1  0  0  3  0  0  0  0  0  0
  193.3930  173.3770  145.2050 C   0  0  0  0  0  2  0  0  0  0  0  0
  194.7720  173.9360  145.4980 C   0  0  0  0  0  2  0  0  0  0  0  0
  192.6880  174.3330  143.8600 S   0  0  1  0  0  0  0  0  0  0  0  0
  185.3230  178.9050  142.7800 C   0  0  0  0  0  2  0  0  0  0  0  0
  184.3840  177.9370  142.0860 C   0  0  0  0  0  1  0  0  0  0  0  0
  188.0240  177.6130  142.1700 C   0  0  0  0  0  2  0  0  0  0  0  0
  187.8970  176.3910  141.5100 O   0  0  0  0  0  1  0  0  0  0  0  0
  1  2  1  0  0  0  0
  2 10  1  0  0  0  0
  3  5  1  0  0  0  0
  4  8  1  0  0  0  0
  4  7  2  0  0  0  0
  5 10  1  0  0  0  0
  6  3  2  0  0  0  0
  7 12  1  0  0  0  0
  7  1  1  0  0  0  0
  8  9  1  0  0  0  0
  9  1  2  0  0  0  0
  9  3  1  0  0  0  0
 11 13  2  0  0  0  0
 12 13  1  0  0  0  0
 13 14  1  0  0  0  0
 17 15  2  0  0  0  0
 17 16  1  0  0  0  0
 19 17  1  0  0  0  0
 19 14  1  1  0  0  0
 20 21  1  0  0  0  0
 21 16  1  0  0  0  0
 22 18  2  1  0  0  0
 22 19  1  0  0  0  0
 22 20  1  0  0  0  0
 23  8  1  0  0  0  0
 24 23  1  0  0  0  0
 25  4  1  0  0  0  0
 26 25  1  0  0  0  0
M  END
>  <MODEL>
5

>  <REMARK>
 VINA RESULT:      -6.7      1.810      3.494
  Name = 
  5 active torsions:
  status: ('A' for Active; 'I' for Inactive)
    1  A    between atoms: C_6  and  N_18
    2  A    between atoms: C_9  and  C_12
    3  A    between atoms: C_10  and  C_24
    4  A    between atoms: C_16  and  N_23
    5  A    between atoms: C_24  and  C_26
                            x       y       z     vdW  Elec       q    Type
                         _______ _______ _______ _____ _____    ______ ____

>  <TORSDO>
F 5

$$$$
=
 OpenBabel11072408333D

 26 28  0  0  1  0  0  0  0  0999 V2000
  187.3020  177.4100  145.2030 C   0  0  0  0  0  0  0  0  0  0  0  0
  187.6620  176.9440  146.5820 C   0  0  0  0  0  2  0  0  0  0  0  0
  185.2530  178.5150  145.9980 C   0  0  0  0  0  0  0  0  0  0  0  0
  187.1080  177.7240  143.0120 C   0  0  0  0  0  0  0  0  0  0  0  0
  185.6730  178.2530  147.3430 N   0  0  0  0  0  2  0  0  0  0  0  0
  184.1330  179.0410  145.7670 O   0  0  0  0  0  0  0  0  0  0  0  0
  187.9020  177.1330  143.9950 C   0  0  0  0  0  0  0  0  0  0  0  0
  186.0380  178.3170  143.5930 N   0  0  0  0  0  0  0  0  0  0  0  0
  186.1550  178.1040  144.9210 C   0  0  0  0  0  0  0  0  0  0  0  0
  187.0690  177.9000  147.6370 C   0  0  0  0  0  2  0  0  0  0  0  0
  190.5940  178.2890  144.0560 O   0  0  0  0  0  0  0  0  0  0  0  0
  189.1550  176.4540  143.8380 N   0  0  0  0  0  2  0  0  0  0  0  0
  190.4450  177.0380  144.0340 C   0  0  0  0  0  0  0  0  0  0  0  0
  191.6350  176.1550  144.1820 C   0  0  0  0  0  2  0  0  0  0  0  0
  190.2550  173.3250  144.3340 O   0  0  0  0  0  0  0  0  0  0  0  0
  192.5290  172.9400  144.6010 N   0  0  0  0  0  2  0  0  0  0  0  0
  191.3590  173.7540  144.7590 C   0  0  0  0  0  0  0  0  0  0  0  0
  193.1450  176.7650  146.5370 O   0  0  0  0  0  0  0  0  0  0  0  0
  191.4310  175.1520  145.3130 C   0  0  1  0  0  3  0  0  0  0  0  0
  194.1160  174.4950  145.6620 C   0  0  0  0  0  2  0  0  0  0  0  0
  193.7290  173.0470  145.4270 C   0  0  0  0  0  2  0  0  0  0  0  0
  192.7620  175.2910  146.5300 S   0  0  1  0  0  0  0  0  0  0  0  0
  184.9690  179.0370  142.9100 C   0  0  0  0  0  2  0  0  0  0  0  0
  183.9360  178.0570  142.3880 C   0  0  0  0  0  1  0  0  0  0  0  0
  187.4430  177.8540  141.5620 C   0  0  0  0  0  2  0  0  0  0  0  0
  188.5660  178.6660  141.4110 O   0  0  0  0  0  1  0  0  0  0  0  0
  1  2  1  0  0  0  0
  2 10  1  0  0  0  0
  3  5  1  0  0  0  0
  4  8  1  0  0  0  0
  4  7  2  0  0  0  0
  5 10  1  0  0  0  0
  6  3  2  0  0  0  0
  7  1  1  0  0  0  0
  8  9  1  0  0  0  0
  9  1  2  0  0  0  0
  9  3  1  0  0  0  0
 12  7  1  0  0  0  0
 12 13  1  0  0  0  0
 13 11  2  0  0  0  0
 13 14  1  0  0  0  0
 15 17  2  0  0  0  0
 16 17  1  0  0  0  0
 16 21  1  0  0  0  0
 17 19  1  0  0  0  0
 19 14  1  6  0  0  0
 19 22  1  0  0  0  0
 20 22  1  0  0  0  0
 21 20  1  0  0  0  0
 22 18  2  6  0  0  0
 23  8  1  0  0  0  0
 24 23  1  0  0  0  0
 25  4  1  0  0  0  0
 26 25  1  0  0  0  0
M  END
>  <MODEL>
6

>  <REMARK>
 VINA RESULT:      -6.4      1.593      3.142
  Name = 
  5 active torsions:
  status: ('A' for Active; 'I' for Inactive)
    1  A    between atoms: C_6  and  N_18
    2  A    between atoms: C_9  and  C_12
    3  A    between atoms: C_10  and  C_24
    4  A    between atoms: C_16  and  N_23
    5  A    between atoms: C_24  and  C_26
                            x       y       z     vdW  Elec       q    Type
                         _______ _______ _______ _____ _____    ______ ____

>  <TORSDO>
F 5

$$$$
=
 OpenBabel11072408333D

 26 28  0  0  1  0  0  0  0  0999 V2000
  190.8460  174.1610  144.6400 C   0  0  0  0  0  0  0  0  0  0  0  0
  190.2240  172.8020  144.7560 C   0  0  0  0  0  2  0  0  0  0  0  0
  193.1230  173.2320  144.6010 C   0  0  0  0  0  0  0  0  0  0  0  0
  191.2960  176.3370  144.6440 C   0  0  0  0  0  0  0  0  0  0  0  0
  192.5510  171.9210  144.5130 N   0  0  0  0  0  2  0  0  0  0  0  0
  194.3680  173.3820  144.7030 O   0  0  0  0  0  0  0  0  0  0  0  0
  190.2590  175.4070  144.6930 C   0  0  0  0  0  0  0  0  0  0  0  0
  192.4840  175.6880  144.5950 N   0  0  0  0  0  0  0  0  0  0  0  0
  192.2000  174.3680  144.6130 C   0  0  0  0  0  0  0  0  0  0  0  0
  191.1460  171.7400  144.1220 C   0  0  0  0  0  2  0  0  0  0  0  0
  188.5280  175.9530  146.9920 O   0  0  0  0  0  0  0  0  0  0  0  0
  188.8460  175.6470  144.6920 N   0  0  0  0  0  2  0  0  0  0  0  0
  188.0750  176.0650  145.8220 C   0  0  0  0  0  0  0  0  0  0  0  0
  186.7050  176.6100  145.6130 C   0  0  0  0  0  2  0  0  0  0  0  0
  187.2560  178.2300  142.9660 O   0  0  0  0  0  0  0  0  0  0  0  0
  185.0120  178.5620  143.4610 N   0  0  0  0  0  2  0  0  0  0  0  0
  186.3720  178.3340  143.8550 C   0  0  0  0  0  0  0  0  0  0  0  0
  185.7120  178.2690  147.7250 O   0  0  0  0  0  0  0  0  0  0  0  0
  186.7560  178.1010  145.2920 C   0  0  1  0  0  3  0  0  0  0  0  0
  184.0540  178.6250  145.7280 C   0  0  0  0  0  2  0  0  0  0  0  0
  183.9950  179.1710  144.3150 C   0  0  0  0  0  2  0  0  0  0  0  0
  185.6680  179.0250  146.4030 S   0  0  1  0  0  0  0  0  0  0  0  0
  193.8060  176.3010  144.5420 C   0  0  0  0  0  2  0  0  0  0  0  0
  194.2830  176.6260  145.9440 C   0  0  0  0  0  1  0  0  0  0  0  0
  191.1530  177.8160  144.4900 C   0  0  0  0  0  2  0  0  0  0  0  0
  191.1050  178.1450  143.1360 O   0  0  0  0  0  1  0  0  0  0  0  0
  1  7  1  0  0  0  0
  1  2  1  0  0  0  0
  3  9  1  0  0  0  0
  3  6  2  0  0  0  0
  4  7  2  0  0  0  0
  5  3  1  0  0  0  0
  8  9  1  0  0  0  0
  8  4  1  0  0  0  0
  9  1  2  0  0  0  0
 10  5  1  0  0  0  0
 10  2  1  0  0  0  0
 12  7  1  0  0  0  0
 12 13  1  0  0  0  0
 13 11  2  0  0  0  0
 14 13  1  0  0  0  0
 15 17  2  0  0  0  0
 16 17  1  0  0  0  0
 16 21  1  0  0  0  0
 17 19  1  0  0  0  0
 19 14  1  1  0  0  0
 19 22  1  0  0  0  0
 20 22  1  0  0  0  0
 21 20  1  0  0  0  0
 22 18  2  1  0  0  0
 23  8  1  0  0  0  0
 23 24  1  0  0  0  0
 25  4  1  0  0  0  0
 26 25  1  0  0  0  0
M  END
>  <MODEL>
7

>  <REMARK>
 VINA RESULT:      -6.3      2.682      7.636
  Name = 
  5 active torsions:
  status: ('A' for Active; 'I' for Inactive)
    1  A    between atoms: C_6  and  N_18
    2  A    between atoms: C_9  and  C_12
    3  A    between atoms: C_10  and  C_24
    4  A    between atoms: C_16  and  N_23
    5  A    between atoms: C_24  and  C_26
                            x       y       z     vdW  Elec       q    Type
                         _______ _______ _______ _____ _____    ______ ____

>  <TORSDO>
F 5

$$$$
=
 OpenBabel11072408333D

 26 28  0  0  1  0  0  0  0  0999 V2000
  186.3750  177.3710  143.8910 C   0  0  0  0  0  0  0  0  0  0  0  0
  186.0020  177.7250  142.4830 C   0  0  0  0  0  2  0  0  0  0  0  0
  184.4150  178.5370  144.8140 C   0  0  0  0  0  0  0  0  0  0  0  0
  187.4030  176.7600  145.7640 C   0  0  0  0  0  0  0  0  0  0  0  0
  183.9340  178.7180  143.4770 N   0  0  0  0  0  2  0  0  0  0  0  0
  183.8020  179.0420  145.7900 O   0  0  0  0  0  0  0  0  0  0  0  0
  187.5030  176.7440  144.3730 C   0  0  0  0  0  0  0  0  0  0  0  0
  186.2680  177.4030  146.1280 N   0  0  0  0  0  0  0  0  0  0  0  0
  185.6610  177.7880  144.9840 C   0  0  0  0  0  0  0  0  0  0  0  0
  184.4760  177.9170  142.3700 C   0  0  0  0  0  2  0  0  0  0  0  0
  190.1030  177.8330  143.5740 O   0  0  0  0  0  0  0  0  0  0  0  0
  188.5050  176.1210  143.5600 N   0  0  0  0  0  2  0  0  0  0  0  0
  189.8220  176.6290  143.3300 C   0  0  0  0  0  0  0  0  0  0  0  0
  190.8660  175.7320  142.7630 C   0  0  0  0  0  2  0  0  0  0  0  0
  189.3770  174.1080  140.5080 O   0  0  0  0  0  0  0  0  0  0  0  0
  191.5060  173.1900  140.6560 N   0  0  0  0  0  2  0  0  0  0  0  0
  190.3650  173.8350  141.2400 C   0  0  0  0  0  0  0  0  0  0  0  0
  191.7940  174.0540  144.8900 O   0  0  0  0  0  0  0  0  0  0  0  0
  190.3580  174.2960  142.6730 C   0  0  1  0  0  3  0  0  0  0  0  0
  192.8540  173.0580  142.7120 C   0  0  0  0  0  2  0  0  0  0  0  0
  192.4770  172.3940  141.4020 C   0  0  0  0  0  2  0  0  0  0  0  0
  191.3640  173.2020  143.7030 S   0  0  1  0  0  0  0  0  0  0  0  0
  185.8020  177.6380  147.4890 C   0  0  0  0  0  2  0  0  0  0  0  0
  186.4010  178.9240  148.0270 C   0  0  0  0  0  1  0  0  0  0  0  0
  188.2920  176.0420  146.7250 C   0  0  0  0  0  2  0  0  0  0  0  0
  189.4790  176.7550  146.8890 O   0  0  0  0  0  1  0  0  0  0  0  0
  1  7  1  0  0  0  0
  1  9  2  0  0  0  0
  2  1  1  0  0  0  0
  3  9  1  0  0  0  0
  3  6  2  0  0  0  0
  4  8  1  0  0  0  0
  4 25  1  0  0  0  0
  5  3  1  0  0  0  0
  7  4  2  0  0  0  0
  8 23  1  0  0  0  0
  9  8  1  0  0  0  0
 10  2  1  0  0  0  0
 10  5  1  0  0  0  0
 12  7  1  0  0  0  0
 13 12  1  0  0  0  0
 13 11  2  0  0  0  0
 14 13  1  0  0  0  0
 15 17  2  0  0  0  0
 16 17  1  0  0  0  0
 16 21  1  0  0  0  0
 17 19  1  0  0  0  0
 19 14  1  6  0  0  0
 19 22  1  0  0  0  0
 20 22  1  0  0  0  0
 21 20  1  0  0  0  0
 22 18  2  1  0  0  0
 23 24  1  0  0  0  0
 25 26  1  0  0  0  0
M  END
>  <MODEL>
8

>  <REMARK>
 VINA RESULT:      -6.2      2.713      3.106
  Name = 
  5 active torsions:
  status: ('A' for Active; 'I' for Inactive)
    1  A    between atoms: C_6  and  N_18
    2  A    between atoms: C_9  and  C_12
    3  A    between atoms: C_10  and  C_24
    4  A    between atoms: C_16  and  N_23
    5  A    between atoms: C_24  and  C_26
                            x       y       z     vdW  Elec       q    Type
                         _______ _______ _______ _____ _____    ______ ____

>  <TORSDO>
F 5

$$$$
=
 OpenBabel11072408333D

 26 28  0  0  1  0  0  0  0  0999 V2000
  192.4910  175.4230  145.0380 C   0  0  0  0  0  0  0  0  0  0  0  0
  192.9980  176.7960  145.3650 C   0  0  0  0  0  2  0  0  0  0  0  0
  194.6350  174.3760  145.6350 C   0  0  0  0  0  0  0  0  0  0  0  0
  191.3720  173.6570  144.2850 C   0  0  0  0  0  0  0  0  0  0  0  0
  195.0770  175.6420  146.1380 N   0  0  0  0  0  2  0  0  0  0  0  0
  195.4160  173.3890  145.6070 O   0  0  0  0  0  0  0  0  0  0  0  0
  191.2940  175.0360  144.4780 C   0  0  0  0  0  0  0  0  0  0  0  0
  192.5890  173.2140  144.6830 N   0  0  0  0  0  0  0  0  0  0  0  0
  193.2680  174.2970  145.1200 C   0  0  0  0  0  0  0  0  0  0  0  0
  194.1110  176.7120  146.4290 C   0  0  0  0  0  2  0  0  0  0  0  0
  188.9970  175.5020  146.2360 O   0  0  0  0  0  0  0  0  0  0  0  0
  190.1760  175.9040  144.2530 N   0  0  0  0  0  2  0  0  0  0  0  0
  189.1610  176.2160  145.2120 C   0  0  0  0  0  0  0  0  0  0  0  0
  188.2650  177.3820  144.9770 C   0  0  0  0  0  2  0  0  0  0  0  0
  186.2350  177.3990  147.3890 O   0  0  0  0  0  0  0  0  0  0  0  0
  185.4960  179.0400  145.9220 N   0  0  0  0  0  2  0  0  0  0  0  0
  186.1390  177.7870  146.1960 C   0  0  0  0  0  0  0  0  0  0  0  0
  186.9800  176.8910  142.4660 O   0  0  0  0  0  0  0  0  0  0  0  0
  186.8000  176.9780  145.1120 C   0  0  1  0  0  3  0  0  0  0  0  0
  185.7540  178.9750  143.4750 C   0  0  0  0  0  2  0  0  0  0  0  0
  184.8840  179.3930  144.6440 C   0  0  0  0  0  2  0  0  0  0  0  0
  185.9380  177.1910  143.5370 S   0  0  1  0  0  0  0  0  0  0  0  0
  193.0680  171.8380  144.6380 C   0  0  0  0  0  2  0  0  0  0  0  0
  193.6450  171.5340  143.2680 C   0  0  0  0  0  1  0  0  0  0  0  0
  190.2560  172.7540  143.8750 C   0  0  0  0  0  2  0  0  0  0  0  0
  189.5840  172.2930  145.0070 O   0  0  0  0  0  1  0  0  0  0  0  0
  1  9  2  0  0  0  0
  1  2  1  0  0  0  0
  2 10  1  0  0  0  0
  3  5  1  0  0  0  0
  4  7  2  0  0  0  0
  4  8  1  0  0  0  0
  5 10  1  0  0  0  0
  6  3  2  0  0  0  0
  7  1  1  0  0  0  0
  8  9  1  0  0  0  0
  9  3  1  0  0  0  0
 12  7  1  0  0  0  0
 12 13  1  0  0  0  0
 13 11  2  0  0  0  0
 14 13  1  0  0  0  0
 16 17  1  0  0  0  0
 17 15  2  0  0  0  0
 19 14  1  6  0  0  0
 19 17  1  0  0  0  0
 20 22  1  0  0  0  0
 20 21  1  0  0  0  0
 21 16  1  0  0  0  0
 22 18  2  6  0  0  0
 22 19  1  0  0  0  0
 23  8  1  0  0  0  0
 24 23  1  0  0  0  0
 25  4  1  0  0  0  0
 25 26  1  0  0  0  0
M  END
>  <MODEL>
9

>  <REMARK>
 VINA RESULT:      -6.0      2.801      7.857
  Name = 
  5 active torsions:
  status: ('A' for Active; 'I' for Inactive)
    1  A    between atoms: C_6  and  N_18
    2  A    between atoms: C_9  and  C_12
    3  A    between atoms: C_10  and  C_24
    4  A    between atoms: C_16  and  N_23
    5  A    between atoms: C_24  and  C_26
                            x       y       z     vdW  Elec       q    Type
                         _______ _______ _______ _____ _____    ______ ____

>  <TORSDO>
F 5

$$$$
