=
 OpenBabel11062419543D

 30 34  0  0  1  0  0  0  0  0999 V2000
  188.0530  177.2550  142.9830 C   0  0  0  0  0  0  0  0  0  0  0  0
  189.3690  176.7820  145.4840 C   0  0  0  0  0  2  0  0  0  0  0  0
  186.3520  178.8140  143.8900 C   0  0  2  0  0  3  0  0  0  0  0  0
  189.3840  175.1470  142.6960 C   0  0  2  0  0  3  0  0  0  0  0  0
  188.6160  176.3500  142.2450 C   0  0  0  0  0  0  0  0  0  0  0  0
  187.5590  177.9030  143.9970 C   0  0  0  0  0  0  0  0  0  0  0  0
  188.8720  174.4450  141.5530 C   0  0  1  0  0  3  0  0  0  0  0  0
  189.3860  175.2870  145.2240 C   0  0  0  0  0  0  0  0  0  0  0  0
  185.2110  178.4640  147.5600 C   0  0  0  0  0  1  0  0  0  0  0  0
  188.7690  174.6380  144.0060 C   0  0  0  0  0  2  0  0  0  0  0  0
  188.2300  175.6270  141.0190 N   0  0  0  0  0  2  0  0  0  0  0  0
  189.9970  174.5700  146.0050 O   0  0  0  0  0  0  0  0  0  0  0  0
  187.3050  177.6840  146.3800 N   0  0  0  0  0  0  0  0  0  0  0  0
  188.0320  177.4640  145.3310 C   0  0  0  0  0  0  0  0  0  0  0  0
  186.0320  178.3550  146.3260 C   0  0  0  0  0  0  0  0  0  0  0  0
  185.5720  178.8730  145.1810 C   0  0  0  0  0  3  0  0  0  0  0  0
  189.5390  173.7030  139.2170 C   0  0  0  0  0  2  0  0  0  0  0  0
  189.5290  170.2070  138.1810 N   0  0  0  0  0  2  0  0  0  0  0  0
  191.0560  171.1470  139.6470 O   0  0  0  0  0  0  0  0  0  0  0  0
  191.6310  172.2450  140.3500 C   0  0  0  0  0  2  0  0  0  0  0  0
  188.8650  172.3400  139.0630 C   0  0  0  0  0  2  0  0  0  0  0  0
  189.8490  171.2080  138.9330 C   0  0  0  0  0  0  0  0  0  0  0  0
  190.6560  172.8090  141.2700 N   0  0  0  0  0  2  0  0  0  0  0  0
  190.0160  173.9750  140.6580 C   0  0  2  0  0  3  0  0  0  0  0  0
  185.4550  178.5100  142.7180 C   0  0  0  0  0  0  0  0  0  0  0  0
  184.0870  178.3390  142.9400 C   0  0  0  0  0  3  0  0  0  0  0  0
  183.7270  178.0570  140.5640 C   0  0  0  0  0  3  0  0  0  0  0  0
  185.0930  178.2340  140.3350 C   0  0  0  0  0  3  0  0  0  0  0  0
  183.2240  178.1070  141.8670 C   0  0  0  0  0  3  0  0  0  0  0  0
  185.9530  178.4670  141.4060 C   0  0  0  0  0  3  0  0  0  0  0  0
  1  6  2  0  0  0  0
  3 25  1  6  0  0  0
  3  6  1  0  0  0  0
  3 16  1  0  0  0  0
  4 10  1  1  0  0  0
  5  4  1  0  0  0  0
  5  1  2  0  0  0  0
  6 14  1  0  0  0  0
  7 11  1  6  0  0  0
  7  4  1  0  0  0  0
  8  2  1  0  0  0  0
  8 12  2  0  0  0  0
 10  8  1  0  0  0  0
 11  5  1  0  0  0  0
 14  2  1  0  0  0  0
 14 13  2  0  0  0  0
 15 13  1  0  0  0  0
 15  9  1  0  0  0  0
 16 15  2  0  0  0  0
 18 22  2  0  0  0  0
 19 20  1  0  0  0  0
 20 23  1  0  0  0  0
 21 17  1  0  0  0  0
 22 21  1  0  0  0  0
 22 19  1  0  0  0  0
 24 17  1  6  0  0  0
 24 23  1  0  0  0  0
 24  7  1  0  0  0  0
 25 26  1  0  0  0  0
 27 29  1  0  0  0  0
 28 27  2  0  0  0  0
 28 30  1  0  0  0  0
 29 26  2  0  0  0  0
 30 25  2  0  0  0  0
M  END
>  <MODEL>
1

>  <REMARK>
 VINA RESULT:      -8.7      0.000      0.000
  Name = 
  2 active torsions:
  status: ('A' for Active; 'I' for Inactive)
    1  A    between atoms: C_3  and  C_5
    2  A    between atoms: C_13  and  C_30
                            x       y       z     vdW  Elec       q    Type
                         _______ _______ _______ _____ _____    ______ ____

>  <TORSDO>
F 2

$$$$
=
 OpenBabel11062419543D

 30 34  0  0  1  0  0  0  0  0999 V2000
  189.8780  177.5530  144.3970 C   0  0  0  0  0  0  0  0  0  0  0  0
  189.9060  177.5410  147.2630 C   0  0  0  0  0  2  0  0  0  0  0  0
  187.4420  177.9600  144.1760 C   0  0  2  0  0  3  0  0  0  0  0  0
  192.0130  176.4250  145.0800 C   0  0  2  0  0  3  0  0  0  0  0  0
  191.0770  177.1280  144.1480 C   0  0  0  0  0  0  0  0  0  0  0  0
  188.7240  177.7630  144.9600 C   0  0  0  0  0  0  0  0  0  0  0  0
  192.5090  175.6830  143.9550 C   0  0  1  0  0  3  0  0  0  0  0  0
  190.7610  176.2870  147.2760 C   0  0  0  0  0  0  0  0  0  0  0  0
  185.0440  176.7150  146.9310 C   0  0  0  0  0  1  0  0  0  0  0  0
  191.1890  175.5470  146.0290 C   0  0  0  0  0  2  0  0  0  0  0  0
  191.7150  176.4390  143.0100 N   0  0  0  0  0  2  0  0  0  0  0  0
  191.1910  175.8920  148.3510 O   0  0  0  0  0  0  0  0  0  0  0  0
  187.5230  177.2030  146.9690 N   0  0  0  0  0  0  0  0  0  0  0  0
  188.6600  177.4820  146.4140 C   0  0  0  0  0  0  0  0  0  0  0  0
  186.2840  177.1550  146.2390 C   0  0  0  0  0  0  0  0  0  0  0  0
  186.2300  177.4910  144.9440 C   0  0  0  0  0  3  0  0  0  0  0  0
  194.4590  175.6010  142.3300 C   0  0  0  0  0  2  0  0  0  0  0  0
  196.6280  172.6870  142.0000 N   0  0  0  0  0  2  0  0  0  0  0  0
  196.6110  174.1240  143.8160 O   0  0  0  0  0  0  0  0  0  0  0  0
  196.1750  175.2910  144.5090 C   0  0  0  0  0  2  0  0  0  0  0  0
  194.6920  174.1050  142.1190 C   0  0  0  0  0  2  0  0  0  0  0  0
  196.0260  173.6370  142.6370 C   0  0  0  0  0  0  0  0  0  0  0  0
  194.7500  175.1990  144.7830 N   0  0  0  0  0  2  0  0  0  0  0  0
  194.0020  175.9380  143.7630 C   0  0  2  0  0  3  0  0  0  0  0  0
  187.4750  177.3730  142.7880 C   0  0  0  0  0  0  0  0  0  0  0  0
  187.8280  176.0310  142.6300 C   0  0  0  0  0  3  0  0  0  0  0  0
  187.4410  176.2010  140.2470 C   0  0  0  0  0  3  0  0  0  0  0  0
  187.0800  177.5400  140.4010 C   0  0  0  0  0  3  0  0  0  0  0  0
  187.8180  175.4470  141.3620 C   0  0  0  0  0  3  0  0  0  0  0  0
  187.0900  178.1230  141.6660 C   0  0  0  0  0  3  0  0  0  0  0  0
  1  6  2  0  0  0  0
  2  8  1  0  0  0  0
  3 25  1  6  0  0  0
  3 16  1  0  0  0  0
  3  6  1  0  0  0  0
  4 10  1  1  0  0  0
  5  1  2  0  0  0  0
  5  4  1  0  0  0  0
  6 14  1  0  0  0  0
  7 11  1  6  0  0  0
  7  4  1  0  0  0  0
  8 12  2  0  0  0  0
 10  8  1  0  0  0  0
 11  5  1  0  0  0  0
 14 13  2  0  0  0  0
 14  2  1  0  0  0  0
 15  9  1  0  0  0  0
 15 13  1  0  0  0  0
 16 15  2  0  0  0  0
 18 22  2  0  0  0  0
 19 20  1  0  0  0  0
 20 23  1  0  0  0  0
 21 17  1  0  0  0  0
 21 22  1  0  0  0  0
 22 19  1  0  0  0  0
 24 17  1  6  0  0  0
 24  7  1  0  0  0  0
 24 23  1  0  0  0  0
 26 25  1  0  0  0  0
 27 28  2  0  0  0  0
 27 29  1  0  0  0  0
 28 30  1  0  0  0  0
 29 26  2  0  0  0  0
 30 25  2  0  0  0  0
M  END
>  <MODEL>
2

>  <REMARK>
 VINA RESULT:      -8.3      3.383      4.357
  Name = 
  2 active torsions:
  status: ('A' for Active; 'I' for Inactive)
    1  A    between atoms: C_3  and  C_5
    2  A    between atoms: C_13  and  C_30
                            x       y       z     vdW  Elec       q    Type
                         _______ _______ _______ _____ _____    ______ ____

>  <TORSDO>
F 2

$$$$
=
 OpenBabel11062419543D

 30 34  0  0  1  0  0  0  0  0999 V2000
  190.6680  175.4370  143.0490 C   0  0  0  0  0  0  0  0  0  0  0  0
  190.5150  173.4880  140.9530 C   0  0  0  0  0  2  0  0  0  0  0  0
  192.4130  174.2570  144.3570 C   0  0  2  0  0  3  0  0  0  0  0  0
  188.4870  175.8310  141.8720 C   0  0  2  0  0  3  0  0  0  0  0  0
  189.6410  176.1740  142.7610 C   0  0  0  0  0  0  0  0  0  0  0  0
  191.4790  174.4280  143.1750 C   0  0  0  0  0  0  0  0  0  0  0  0
  187.6450  176.6110  142.7350 C   0  0  1  0  0  3  0  0  0  0  0  0
  188.9990  173.5060  141.0090 C   0  0  0  0  0  0  0  0  0  0  0  0
  192.6570  170.4100  144.1740 C   0  0  0  0  0  1  0  0  0  0  0  0
  188.2030  174.3290  141.9970 C   0  0  0  0  0  2  0  0  0  0  0  0
  188.7610  177.0710  143.5340 N   0  0  0  0  0  2  0  0  0  0  0  0
  188.3810  172.8780  140.1600 O   0  0  0  0  0  0  0  0  0  0  0  0
  191.6250  172.0950  142.5990 N   0  0  0  0  0  0  0  0  0  0  0  0
  191.2220  173.2820  142.2700 C   0  0  0  0  0  0  0  0  0  0  0  0
  192.3320  171.8170  143.8210 C   0  0  0  0  0  0  0  0  0  0  0  0
  192.6950  172.8040  144.6510 C   0  0  0  0  0  3  0  0  0  0  0  0
  186.0810  178.6080  142.8570 C   0  0  0  0  0  2  0  0  0  0  0  0
  182.5100  178.3600  142.1560 N   0  0  0  0  0  2  0  0  0  0  0  0
  184.1840  178.2160  140.5620 O   0  0  0  0  0  0  0  0  0  0  0  0
  185.5440  178.2690  140.1390 C   0  0  0  0  0  2  0  0  0  0  0  0
  184.7030  177.9770  143.0590 C   0  0  0  0  0  2  0  0  0  0  0  0
  183.7690  178.2180  141.9020 C   0  0  0  0  0  0  0  0  0  0  0  0
  186.3060  177.2150  140.7900 N   0  0  0  0  0  2  0  0  0  0  0  0
  187.0010  177.7580  141.9590 C   0  0  2  0  0  3  0  0  0  0  0  0
  191.9760  174.9950  145.5960 C   0  0  0  0  0  0  0  0  0  0  0  0
  190.7790  174.6270  146.2160 C   0  0  0  0  0  3  0  0  0  0  0  0
  191.1740  176.2520  147.9640 C   0  0  0  0  0  3  0  0  0  0  0  0
  192.3740  176.6190  147.3530 C   0  0  0  0  0  3  0  0  0  0  0  0
  190.3750  175.2570  147.3940 C   0  0  0  0  0  3  0  0  0  0  0  0
  192.7780  175.9890  146.1780 C   0  0  0  0  0  3  0  0  0  0  0  0
  1  6  2  0  0  0  0
  2  8  1  0  0  0  0
  2 14  1  0  0  0  0
  3 16  1  0  0  0  0
  3 25  1  1  0  0  0
  4 10  1  1  0  0  0
  4  7  1  0  0  0  0
  4  5  1  0  0  0  0
  5  1  2  0  0  0  0
  5 11  1  0  0  0  0
  6  3  1  0  0  0  0
  7 11  1  1  0  0  0
  8 10  1  0  0  0  0
 12  8  2  0  0  0  0
 13 15  1  0  0  0  0
 14 13  2  0  0  0  0
 14  6  1  0  0  0  0
 15  9  1  0  0  0  0
 15 16  2  0  0  0  0
 17 21  1  0  0  0  0
 19 22  1  0  0  0  0
 20 19  1  0  0  0  0
 20 23  1  0  0  0  0
 22 18  2  0  0  0  0
 22 21  1  0  0  0  0
 23 24  1  0  0  0  0
 24  7  1  0  0  0  0
 24 17  1  1  0  0  0
 25 30  2  0  0  0  0
 25 26  1  0  0  0  0
 26 29  2  0  0  0  0
 28 27  2  0  0  0  0
 29 27  1  0  0  0  0
 30 28  1  0  0  0  0
M  END
>  <MODEL>
3

>  <REMARK>
 VINA RESULT:      -8.2      3.040      7.561
  Name = 
  2 active torsions:
  status: ('A' for Active; 'I' for Inactive)
    1  A    between atoms: C_3  and  C_5
    2  A    between atoms: C_13  and  C_30
                            x       y       z     vdW  Elec       q    Type
                         _______ _______ _______ _____ _____    ______ ____

>  <TORSDO>
F 2

$$$$
=
 OpenBabel11062419543D

 30 34  0  0  1  0  0  0  0  0999 V2000
  191.0150  175.3630  142.5240 C   0  0  0  0  0  0  0  0  0  0  0  0
  190.2550  173.5320  140.4550 C   0  0  0  0  0  2  0  0  0  0  0  0
  193.1780  174.2660  143.0420 C   0  0  2  0  0  3  0  0  0  0  0  0
  188.5400  175.6330  142.2130 C   0  0  2  0  0  3  0  0  0  0  0  0
  189.9100  176.0230  142.6730 C   0  0  0  0  0  0  0  0  0  0  0  0
  191.8790  174.4220  142.2760 C   0  0  0  0  0  0  0  0  0  0  0  0
  188.0100  176.2860  143.3770 C   0  0  1  0  0  3  0  0  0  0  0  0
  188.8570  173.4150  141.0340 C   0  0  0  0  0  0  0  0  0  0  0  0
  193.5770  170.4710  142.4620 C   0  0  0  0  0  1  0  0  0  0  0  0
  188.4110  174.1070  142.3020 C   0  0  0  0  0  2  0  0  0  0  0  0
  189.3050  176.7940  143.7750 N   0  0  0  0  0  2  0  0  0  0  0  0
  188.0200  172.7850  140.4020 O   0  0  0  0  0  0  0  0  0  0  0  0
  191.9560  172.1490  141.4910 N   0  0  0  0  0  0  0  0  0  0  0  0
  191.3910  173.3130  141.4230 C   0  0  0  0  0  0  0  0  0  0  0  0
  193.0640  171.8630  142.3640 C   0  0  0  0  0  0  0  0  0  0  0  0
  193.6340  172.8280  143.0970 C   0  0  0  0  0  3  0  0  0  0  0  0
  187.0040  178.5210  144.0440 C   0  0  0  0  0  2  0  0  0  0  0  0
  183.8530  178.8010  145.8590 N   0  0  0  0  0  2  0  0  0  0  0  0
  184.0500  178.1640  143.6400 O   0  0  0  0  0  0  0  0  0  0  0  0
  184.7930  177.9270  142.4480 C   0  0  0  0  0  2  0  0  0  0  0  0
  186.0760  178.1680  145.2070 C   0  0  0  0  0  2  0  0  0  0  0  0
  184.6230  178.4120  144.8970 C   0  0  0  0  0  0  0  0  0  0  0  0
  185.7480  176.8520  142.6660 N   0  0  0  0  0  2  0  0  0  0  0  0
  187.0650  177.4150  142.9720 C   0  0  2  0  0  3  0  0  0  0  0  0
  193.1600  174.8910  144.4140 C   0  0  0  0  0  0  0  0  0  0  0  0
  193.8760  176.0700  144.6290 C   0  0  0  0  0  3  0  0  0  0  0  0
  193.0700  176.1550  146.9080 C   0  0  0  0  0  3  0  0  0  0  0  0
  192.3470  174.9800  146.6970 C   0  0  0  0  0  3  0  0  0  0  0  0
  193.8370  176.6990  145.8740 C   0  0  0  0  0  3  0  0  0  0  0  0
  192.3850  174.3540  145.4530 C   0  0  0  0  0  3  0  0  0  0  0  0
  1  5  2  0  0  0  0
  2  8  1  0  0  0  0
  2 14  1  0  0  0  0
  3 16  1  0  0  0  0
  3 25  1  1  0  0  0
  4 10  1  1  0  0  0
  4  5  1  0  0  0  0
  4  7  1  0  0  0  0
  5 11  1  0  0  0  0
  6  1  2  0  0  0  0
  6  3  1  0  0  0  0
  7 11  1  6  0  0  0
  8 10  1  0  0  0  0
 12  8  2  0  0  0  0
 13 15  1  0  0  0  0
 14 13  2  0  0  0  0
 14  6  1  0  0  0  0
 15  9  1  0  0  0  0
 15 16  2  0  0  0  0
 17 21  1  0  0  0  0
 19 22  1  0  0  0  0
 20 23  1  0  0  0  0
 20 19  1  0  0  0  0
 22 21  1  0  0  0  0
 22 18  2  0  0  0  0
 23 24  1  0  0  0  0
 24  7  1  0  0  0  0
 24 17  1  1  0  0  0
 25 26  2  0  0  0  0
 25 30  1  0  0  0  0
 26 29  1  0  0  0  0
 28 27  1  0  0  0  0
 29 27  2  0  0  0  0
 30 28  2  0  0  0  0
M  END
>  <MODEL>
4

>  <REMARK>
 VINA RESULT:      -8.2      2.944      8.217
  Name = 
  2 active torsions:
  status: ('A' for Active; 'I' for Inactive)
    1  A    between atoms: C_3  and  C_5
    2  A    between atoms: C_13  and  C_30
                            x       y       z     vdW  Elec       q    Type
                         _______ _______ _______ _____ _____    ______ ____

>  <TORSDO>
F 2

$$$$
=
 OpenBabel11062419543D

 30 34  0  0  1  0  0  0  0  0999 V2000
  190.4520  174.4850  144.8090 C   0  0  0  0  0  0  0  0  0  0  0  0
  191.2340  175.3970  147.4110 C   0  0  0  0  0  2  0  0  0  0  0  0
  192.5810  173.3170  144.3070 C   0  0  2  0  0  3  0  0  0  0  0  0
  188.8890  176.3560  145.4040 C   0  0  2  0  0  3  0  0  0  0  0  0
  189.3520  175.1510  144.6460 C   0  0  0  0  0  0  0  0  0  0  0  0
  191.6450  174.1250  145.1840 C   0  0  0  0  0  0  0  0  0  0  0  0
  188.2680  176.8230  144.1960 C   0  0  1  0  0  3  0  0  0  0  0  0
  190.7080  176.7880  147.1110 C   0  0  0  0  0  0  0  0  0  0  0  0
  195.8660  174.5780  145.8920 C   0  0  0  0  0  1  0  0  0  0  0  0
  190.1150  177.1960  145.7810 C   0  0  0  0  0  2  0  0  0  0  0  0
  188.5830  175.6090  143.4740 N   0  0  0  0  0  2  0  0  0  0  0  0
  190.6920  177.6090  148.0190 O   0  0  0  0  0  0  0  0  0  0  0  0
  193.4530  174.8950  146.5720 N   0  0  0  0  0  0  0  0  0  0  0  0
  192.1740  174.8120  146.3860 C   0  0  0  0  0  0  0  0  0  0  0  0
  194.4170  174.3380  145.6600 C   0  0  0  0  0  0  0  0  0  0  0  0
  194.0310  173.6150  144.6010 C   0  0  0  0  0  3  0  0  0  0  0  0
  185.9620  176.2930  143.2740 C   0  0  0  0  0  2  0  0  0  0  0  0
  184.1930  178.5180  140.9890 N   0  0  0  0  0  2  0  0  0  0  0  0
  184.5420  178.9390  143.2400 O   0  0  0  0  0  0  0  0  0  0  0  0
  185.0010  178.5860  144.5420 C   0  0  0  0  0  2  0  0  0  0  0  0
  185.8770  177.1370  142.0020 C   0  0  0  0  0  2  0  0  0  0  0  0
  184.8210  178.2080  142.0750 C   0  0  0  0  0  0  0  0  0  0  0  0
  186.4440  178.4060  144.5250 N   0  0  0  0  0  2  0  0  0  0  0  0
  186.7630  176.9820  144.3960 C   0  0  2  0  0  3  0  0  0  0  0  0
  192.2860  173.4240  142.8320 C   0  0  0  0  0  0  0  0  0  0  0  0
  192.9920  174.3550  142.0670 C   0  0  0  0  0  3  0  0  0  0  0  0
  191.8610  173.5860  140.0710 C   0  0  0  0  0  3  0  0  0  0  0  0
  191.1580  172.6490  140.8300 C   0  0  0  0  0  3  0  0  0  0  0  0
  192.7770  174.4410  140.6900 C   0  0  0  0  0  3  0  0  0  0  0  0
  191.3740  172.5630  142.2030 C   0  0  0  0  0  3  0  0  0  0  0  0
  1  6  2  0  0  0  0
  3 25  1  6  0  0  0
  3 16  1  0  0  0  0
  3  6  1  0  0  0  0
  4 10  1  6  0  0  0
  5  1  2  0  0  0  0
  5  4  1  0  0  0  0
  6 14  1  0  0  0  0
  7 11  1  6  0  0  0
  7 24  1  0  0  0  0
  7  4  1  0  0  0  0
  8  2  1  0  0  0  0
  8 12  2  0  0  0  0
 10  8  1  0  0  0  0
 11  5  1  0  0  0  0
 14 13  2  0  0  0  0
 14  2  1  0  0  0  0
 15  9  1  0  0  0  0
 15 13  1  0  0  0  0
 16 15  2  0  0  0  0
 18 22  2  0  0  0  0
 19 20  1  0  0  0  0
 21 22  1  0  0  0  0
 21 17  1  0  0  0  0
 22 19  1  0  0  0  0
 23 20  1  0  0  0  0
 24 17  1  6  0  0  0
 24 23  1  0  0  0  0
 26 25  2  0  0  0  0
 27 29  2  0  0  0  0
 27 28  1  0  0  0  0
 28 30  2  0  0  0  0
 29 26  1  0  0  0  0
 30 25  1  0  0  0  0
M  END
>  <MODEL>
5

>  <REMARK>
 VINA RESULT:      -8.0      3.313      7.430
  Name = 
  2 active torsions:
  status: ('A' for Active; 'I' for Inactive)
    1  A    between atoms: C_3  and  C_5
    2  A    between atoms: C_13  and  C_30
                            x       y       z     vdW  Elec       q    Type
                         _______ _______ _______ _____ _____    ______ ____

>  <TORSDO>
F 2

$$$$
=
 OpenBabel11062419543D

 30 34  0  0  1  0  0  0  0  0999 V2000
  190.2800  176.2330  143.9440 C   0  0  0  0  0  0  0  0  0  0  0  0
  190.1070  177.5380  146.4890 C   0  0  0  0  0  2  0  0  0  0  0  0
  187.9010  176.5700  143.3320 C   0  0  2  0  0  3  0  0  0  0  0  0
  192.2760  175.4780  145.2640 C   0  0  2  0  0  3  0  0  0  0  0  0
  191.4600  175.7030  144.0300 C   0  0  0  0  0  0  0  0  0  0  0  0
  189.1080  176.7140  144.2380 C   0  0  0  0  0  0  0  0  0  0  0  0
  192.7950  174.2870  144.6520 C   0  0  1  0  0  3  0  0  0  0  0  0
  190.8670  176.4040  147.1530 C   0  0  0  0  0  0  0  0  0  0  0  0
  185.2330  176.8060  146.1110 C   0  0  0  0  0  1  0  0  0  0  0  0
  191.3270  175.1610  146.4260 C   0  0  0  0  0  2  0  0  0  0  0  0
  192.1250  174.5490  143.3970 N   0  0  0  0  0  2  0  0  0  0  0  0
  191.1920  176.5340  148.3250 O   0  0  0  0  0  0  0  0  0  0  0  0
  187.7320  177.1780  146.1580 N   0  0  0  0  0  0  0  0  0  0  0  0
  188.9220  177.1350  145.6470 C   0  0  0  0  0  0  0  0  0  0  0  0
  186.5470  176.8390  145.4150 C   0  0  0  0  0  0  0  0  0  0  0  0
  186.6080  176.5450  144.1100 C   0  0  0  0  0  3  0  0  0  0  0  0
  194.8960  173.1310  143.8160 C   0  0  0  0  0  2  0  0  0  0  0  0
  196.9130  170.9430  145.9240 N   0  0  0  0  0  2  0  0  0  0  0  0
  196.7910  173.2450  146.1420 O   0  0  0  0  0  0  0  0  0  0  0  0
  196.3540  174.5390  145.7340 C   0  0  0  0  0  2  0  0  0  0  0  0
  195.0620  171.9470  144.7700 C   0  0  0  0  0  2  0  0  0  0  0  0
  196.3050  172.0400  145.6130 C   0  0  0  0  0  0  0  0  0  0  0  0
  194.9050  174.6220  145.8250 N   0  0  0  0  0  2  0  0  0  0  0  0
  194.3120  174.3780  144.5080 C   0  0  2  0  0  3  0  0  0  0  0  0
  187.9890  175.4100  142.3730 C   0  0  0  0  0  0  0  0  0  0  0  0
  188.0710  175.6690  141.0030 C   0  0  0  0  0  3  0  0  0  0  0  0
  188.2690  173.2990  140.5570 C   0  0  0  0  0  3  0  0  0  0  0  0
  188.1950  173.0350  141.9260 C   0  0  0  0  0  3  0  0  0  0  0  0
  188.2050  174.6170  140.0960 C   0  0  0  0  0  3  0  0  0  0  0  0
  188.0620  174.0850  142.8310 C   0  0  0  0  0  3  0  0  0  0  0  0
  1  5  2  0  0  0  0
  1  6  2  0  0  0  0
  2  8  1  0  0  0  0
  3 25  1  1  0  0  0
  3 16  1  0  0  0  0
  3  6  1  0  0  0  0
  4 10  1  1  0  0  0
  5  4  1  0  0  0  0
  6 14  1  0  0  0  0
  7 11  1  6  0  0  0
  7  4  1  0  0  0  0
  8 12  2  0  0  0  0
 10  8  1  0  0  0  0
 11  5  1  0  0  0  0
 14 13  2  0  0  0  0
 14  2  1  0  0  0  0
 15  9  1  0  0  0  0
 15 13  1  0  0  0  0
 16 15  2  0  0  0  0
 17 21  1  0  0  0  0
 20 23  1  0  0  0  0
 20 19  1  0  0  0  0
 21 22  1  0  0  0  0
 22 18  2  0  0  0  0
 22 19  1  0  0  0  0
 24 17  1  1  0  0  0
 24  7  1  0  0  0  0
 24 23  1  0  0  0  0
 25 30  1  0  0  0  0
 26 25  2  0  0  0  0
 27 28  1  0  0  0  0
 28 30  2  0  0  0  0
 29 27  2  0  0  0  0
 29 26  1  0  0  0  0
M  END
>  <MODEL>
6

>  <REMARK>
 VINA RESULT:      -7.9      3.752      5.380
  Name = 
  2 active torsions:
  status: ('A' for Active; 'I' for Inactive)
    1  A    between atoms: C_3  and  C_5
    2  A    between atoms: C_13  and  C_30
                            x       y       z     vdW  Elec       q    Type
                         _______ _______ _______ _____ _____    ______ ____

>  <TORSDO>
F 2

$$$$
=
 OpenBabel11062419543D

 30 34  0  0  1  0  0  0  0  0999 V2000
  188.6870  177.1400  144.0400 C   0  0  0  0  0  0  0  0  0  0  0  0
  189.0360  176.7610  146.8590 C   0  0  0  0  0  2  0  0  0  0  0  0
  186.7560  178.6840  144.2350 C   0  0  2  0  0  3  0  0  0  0  0  0
  190.0570  175.0560  144.3100 C   0  0  2  0  0  3  0  0  0  0  0  0
  189.4850  176.2290  143.5780 C   0  0  0  0  0  0  0  0  0  0  0  0
  187.8580  177.8030  144.7910 C   0  0  0  0  0  0  0  0  0  0  0  0
  189.9920  174.3130  143.0830 C   0  0  1  0  0  3  0  0  0  0  0  0
  189.1610  175.2610  146.6690 C   0  0  0  0  0  0  0  0  0  0  0  0
  184.3920  178.4030  147.2730 C   0  0  0  0  0  1  0  0  0  0  0  0
  189.0240  174.5670  145.3330 C   0  0  0  0  0  2  0  0  0  0  0  0
  189.5670  175.4660  142.3190 N   0  0  0  0  0  2  0  0  0  0  0  0
  189.4640  174.5790  147.6390 O   0  0  0  0  0  0  0  0  0  0  0  0
  186.7770  177.6400  146.9360 N   0  0  0  0  0  0  0  0  0  0  0  0
  187.8320  177.4090  146.2200 C   0  0  0  0  0  0  0  0  0  0  0  0
  185.5990  178.2810  146.4130 C   0  0  0  0  0  0  0  0  0  0  0  0
  185.5680  178.7590  145.1630 C   0  0  0  0  0  3  0  0  0  0  0  0
  191.3450  172.4570  141.9990 C   0  0  0  0  0  2  0  0  0  0  0  0
  192.8400  169.7340  143.9100 N   0  0  0  0  0  2  0  0  0  0  0  0
  193.5790  171.9290  143.9360 O   0  0  0  0  0  0  0  0  0  0  0  0
  193.5520  173.2840  143.4950 C   0  0  0  0  0  2  0  0  0  0  0  0
  191.2700  171.3150  143.0120 C   0  0  0  0  0  2  0  0  0  0  0  0
  192.6070  170.9700  143.6120 C   0  0  0  0  0  0  0  0  0  0  0  0
  192.2720  173.8880  143.8310 N   0  0  0  0  0  2  0  0  0  0  0  0
  191.3850  173.8460  142.6670 C   0  0  2  0  0  3  0  0  0  0  0  0
  186.3370  178.3290  142.8320 C   0  0  0  0  0  0  0  0  0  0  0  0
  184.9760  178.2020  142.5440 C   0  0  0  0  0  3  0  0  0  0  0  0
  185.4970  177.7850  140.2180 C   0  0  0  0  0  3  0  0  0  0  0  0
  186.8570  177.9190  140.4980 C   0  0  0  0  0  3  0  0  0  0  0  0
  184.5550  177.9250  141.2420 C   0  0  0  0  0  3  0  0  0  0  0  0
  187.2770  178.1960  141.7970 C   0  0  0  0  0  3  0  0  0  0  0  0
  1  6  2  0  0  0  0
  3 25  1  6  0  0  0
  3  6  1  0  0  0  0
  3 16  1  0  0  0  0
  4 10  1  1  0  0  0
  5  1  2  0  0  0  0
  5  4  1  0  0  0  0
  6 14  1  0  0  0  0
  7 11  1  6  0  0  0
  7  4  1  0  0  0  0
  8  2  1  0  0  0  0
  8 12  2  0  0  0  0
 10  8  1  0  0  0  0
 11  5  1  0  0  0  0
 14  2  1  0  0  0  0
 14 13  2  0  0  0  0
 15 13  1  0  0  0  0
 15  9  1  0  0  0  0
 16 15  2  0  0  0  0
 17 21  1  0  0  0  0
 20 23  1  0  0  0  0
 20 19  1  0  0  0  0
 21 22  1  0  0  0  0
 22 18  2  0  0  0  0
 22 19  1  0  0  0  0
 24 17  1  1  0  0  0
 24  7  1  0  0  0  0
 24 23  1  0  0  0  0
 26 25  1  0  0  0  0
 27 28  2  0  0  0  0
 27 29  1  0  0  0  0
 28 30  1  0  0  0  0
 29 26  2  0  0  0  0
 30 25  2  0  0  0  0
M  END
>  <MODEL>
7

>  <REMARK>
 VINA RESULT:      -7.9      2.294      2.607
  Name = 
  2 active torsions:
  status: ('A' for Active; 'I' for Inactive)
    1  A    between atoms: C_3  and  C_5
    2  A    between atoms: C_13  and  C_30
                            x       y       z     vdW  Elec       q    Type
                         _______ _______ _______ _____ _____    ______ ____

>  <TORSDO>
F 2

$$$$
=
 OpenBabel11062419543D

 30 34  0  0  1  0  0  0  0  0999 V2000
  188.0330  175.6720  144.7140 C   0  0  0  0  0  0  0  0  0  0  0  0
  188.5210  174.8640  142.0090 C   0  0  0  0  0  2  0  0  0  0  0  0
  185.8050  176.6690  144.2760 C   0  0  2  0  0  3  0  0  0  0  0  0
  190.5050  175.2840  144.5260 C   0  0  2  0  0  3  0  0  0  0  0  0
  189.2000  175.4640  145.2370 C   0  0  0  0  0  0  0  0  0  0  0  0
  187.0750  175.9440  143.8770 C   0  0  0  0  0  0  0  0  0  0  0  0
  191.1480  175.9420  145.6290 C   0  0  1  0  0  3  0  0  0  0  0  0
  189.9280  175.4300  142.0650 C   0  0  0  0  0  0  0  0  0  0  0  0
  185.0300  178.1470  140.7960 C   0  0  0  0  0  1  0  0  0  0  0  0
  190.4960  176.1550  143.2640 C   0  0  0  0  0  2  0  0  0  0  0  0
  189.9250  176.0080  146.4010 N   0  0  0  0  0  2  0  0  0  0  0  0
  190.6730  175.2240  141.1160 O   0  0  0  0  0  0  0  0  0  0  0  0
  186.7510  176.4560  141.5480 N   0  0  0  0  0  0  0  0  0  0  0  0
  187.4170  175.7960  142.4420 C   0  0  0  0  0  0  0  0  0  0  0  0
  185.6650  177.3420  141.8740 C   0  0  0  0  0  0  0  0  0  0  0  0
  185.2220  177.4610  143.1310 C   0  0  0  0  0  3  0  0  0  0  0  0
  193.4380  175.7790  146.7160 C   0  0  0  0  0  2  0  0  0  0  0  0
  196.4690  175.0440  144.8260 N   0  0  0  0  0  2  0  0  0  0  0  0
  194.7900  173.5150  145.2810 O   0  0  0  0  0  0  0  0  0  0  0  0
  193.5660  173.1160  145.8930 C   0  0  0  0  0  2  0  0  0  0  0  0
  194.4060  176.0320  145.5600 C   0  0  0  0  0  2  0  0  0  0  0  0
  195.2610  174.8360  145.2360 C   0  0  0  0  0  0  0  0  0  0  0  0
  192.4680  173.9100  145.3650 N   0  0  0  0  0  2  0  0  0  0  0  0
  192.1720  175.0150  146.2790 C   0  0  2  0  0  3  0  0  0  0  0  0
  185.9460  177.5150  145.5160 C   0  0  0  0  0  0  0  0  0  0  0  0
  185.9100  178.9060  145.3930 C   0  0  0  0  0  3  0  0  0  0  0  0
  186.0860  179.1320  147.7950 C   0  0  0  0  0  3  0  0  0  0  0  0
  186.1150  177.7420  147.9250 C   0  0  0  0  0  3  0  0  0  0  0  0
  185.9850  179.7140  146.5280 C   0  0  0  0  0  3  0  0  0  0  0  0
  186.0380  176.9360  146.7910 C   0  0  0  0  0  3  0  0  0  0  0  0
  1  5  2  0  0  0  0
  2  8  1  0  0  0  0
  2 14  1  0  0  0  0
  3 25  1  1  0  0  0
  4 10  1  6  0  0  0
  4  5  1  0  0  0  0
  4  7  1  0  0  0  0
  5 11  1  0  0  0  0
  6  3  1  0  0  0  0
  6  1  2  0  0  0  0
  7 24  1  0  0  0  0
  7 11  1  1  0  0  0
  8 10  1  0  0  0  0
  9 15  1  0  0  0  0
 12  8  2  0  0  0  0
 13 15  1  0  0  0  0
 13 14  2  0  0  0  0
 14  6  1  0  0  0  0
 15 16  2  0  0  0  0
 16  3  1  0  0  0  0
 18 22  2  0  0  0  0
 19 20  1  0  0  0  0
 21 17  1  0  0  0  0
 22 19  1  0  0  0  0
 22 21  1  0  0  0  0
 23 20  1  0  0  0  0
 23 24  1  0  0  0  0
 24 17  1  6  0  0  0
 25 30  1  0  0  0  0
 26 25  2  0  0  0  0
 26 29  1  0  0  0  0
 27 28  1  0  0  0  0
 29 27  2  0  0  0  0
 30 28  2  0  0  0  0
M  END
>  <MODEL>
8

>  <REMARK>
 VINA RESULT:      -7.6      3.017      5.650
  Name = 
  2 active torsions:
  status: ('A' for Active; 'I' for Inactive)
    1  A    between atoms: C_3  and  C_5
    2  A    between atoms: C_13  and  C_30
                            x       y       z     vdW  Elec       q    Type
                         _______ _______ _______ _____ _____    ______ ____

>  <TORSDO>
F 2

$$$$
=
 OpenBabel11062419543D

 30 34  0  0  1  0  0  0  0  0999 V2000
  189.6140  176.3390  143.1550 C   0  0  0  0  0  0  0  0  0  0  0  0
  192.2480  175.3130  143.6270 C   0  0  0  0  0  2  0  0  0  0  0  0
  189.4460  177.5800  145.2950 C   0  0  2  0  0  3  0  0  0  0  0  0
  189.9130  174.4040  141.5860 C   0  0  2  0  0  3  0  0  0  0  0  0
  189.2800  175.6560  142.1050 C   0  0  0  0  0  0  0  0  0  0  0  0
  190.1560  176.7070  144.2790 C   0  0  0  0  0  0  0  0  0  0  0  0
  188.6150  173.9840  141.1380 C   0  0  1  0  0  3  0  0  0  0  0  0
  191.8180  173.9270  143.1850 C   0  0  0  0  0  0  0  0  0  0  0  0
  191.3780  176.3180  148.3880 C   0  0  0  0  0  1  0  0  0  0  0  0
  190.4050  173.5750  142.7790 C   0  0  0  0  0  2  0  0  0  0  0  0
  187.9990  175.2410  141.5050 N   0  0  0  0  0  2  0  0  0  0  0  0
  192.6760  173.0610  143.0780 O   0  0  0  0  0  0  0  0  0  0  0  0
  191.7270  175.9100  145.9190 N   0  0  0  0  0  0  0  0  0  0  0  0
  191.3820  175.9720  144.6720 C   0  0  0  0  0  0  0  0  0  0  0  0
  190.9730  176.5360  146.9740 C   0  0  0  0  0  0  0  0  0  0  0  0
  189.9100  177.3020  146.7040 C   0  0  0  0  0  3  0  0  0  0  0  0
  188.1910  172.3470  139.2430 C   0  0  0  0  0  2  0  0  0  0  0  0
  190.8150  170.2420  137.8330 N   0  0  0  0  0  2  0  0  0  0  0  0
  190.6500  172.5320  137.5280 O   0  0  0  0  0  0  0  0  0  0  0  0
  189.9980  173.7900  137.6810 C   0  0  0  0  0  2  0  0  0  0  0  0
  189.3330  171.3380  139.3730 C   0  0  0  0  0  2  0  0  0  0  0  0
  190.2730  171.3570  138.1970 C   0  0  0  0  0  0  0  0  0  0  0  0
  189.9270  174.1420  139.0900 N   0  0  0  0  0  2  0  0  0  0  0  0
  188.6130  173.7790  139.6250 C   0  0  2  0  0  3  0  0  0  0  0  0
  187.9420  177.5420  145.1930 C   0  0  0  0  0  0  0  0  0  0  0  0
  187.2190  176.8030  146.1320 C   0  0  0  0  0  3  0  0  0  0  0  0
  185.1450  177.5290  145.1200 C   0  0  0  0  0  3  0  0  0  0  0  0
  185.8620  178.2750  144.1830 C   0  0  0  0  0  3  0  0  0  0  0  0
  185.8240  176.7910  146.0930 C   0  0  0  0  0  3  0  0  0  0  0  0
  187.2540  178.2880  144.2230 C   0  0  0  0  0  3  0  0  0  0  0  0
  1  6  2  0  0  0  0
  2 14  1  0  0  0  0
  3 25  1  1  0  0  0
  3 16  1  0  0  0  0
  4  5  1  0  0  0  0
  4 10  1  1  0  0  0
  5  1  2  0  0  0  0
  6 14  1  0  0  0  0
  6  3  1  0  0  0  0
  7 11  1  6  0  0  0
  7  4  1  0  0  0  0
  8  2  1  0  0  0  0
 10  8  1  0  0  0  0
 11  5  1  0  0  0  0
 12  8  2  0  0  0  0
 13 15  1  0  0  0  0
 14 13  2  0  0  0  0
 15  9  1  0  0  0  0
 16 15  2  0  0  0  0
 17 21  1  0  0  0  0
 18 22  2  0  0  0  0
 19 20  1  0  0  0  0
 19 22  1  0  0  0  0
 20 23  1  0  0  0  0
 22 21  1  0  0  0  0
 23 24  1  0  0  0  0
 24 17  1  1  0  0  0
 24  7  1  0  0  0  0
 25 26  1  0  0  0  0
 27 29  1  0  0  0  0
 28 30  1  0  0  0  0
 28 27  2  0  0  0  0
 29 26  2  0  0  0  0
 30 25  2  0  0  0  0
M  END
>  <MODEL>
9

>  <REMARK>
 VINA RESULT:      -7.5      2.245      3.445
  Name = 
  2 active torsions:
  status: ('A' for Active; 'I' for Inactive)
    1  A    between atoms: C_3  and  C_5
    2  A    between atoms: C_13  and  C_30
                            x       y       z     vdW  Elec       q    Type
                         _______ _______ _______ _____ _____    ______ ____

>  <TORSDO>
F 2

$$$$
