=
 OpenBabel11062418583D

 33 36  0  0  1  0  0  0  0  0999 V2000
  189.0730  176.1130  143.9230 C   0  0  1  0  0  3  0  0  0  0  0  0
  187.5030  177.4180  145.3900 C   0  0  1  0  0  3  0  0  0  0  0  0
  186.6020  178.4880  144.9800 C   0  0  0  0  0  0  0  0  0  0  0  0
  186.7050  176.7490  146.5000 C   0  0  0  0  0  2  0  0  0  0  0  0
  186.3510  178.5440  143.7200 N   0  0  0  0  0  0  0  0  0  0  0  0
  185.7620  177.8440  147.0290 C   0  0  1  0  0  3  0  0  0  0  0  0
  187.6300  176.5970  144.1150 C   0  0  1  0  0  3  0  0  0  0  0  0
  186.3630  178.4850  148.1850 N   0  0  0  0  0  1  0  0  0  0  0  0
  187.1590  177.5620  143.0180 C   0  0  1  0  0  3  0  0  0  0  0  0
  185.6320  178.8130  145.9510 N   0  0  0  0  0  2  0  0  0  0  0  0
  186.3100  176.8210  141.9980 C   0  0  0  0  0  2  0  0  0  0  0  0
  186.1320  177.6450  140.7700 C   0  0  0  0  0  0  0  0  0  0  0  0
  187.0130  177.6360  139.8730 O   0  0  0  0  0  0  0  0  0  0  0  0
  184.9780  178.3960  140.5990 O   0  0  0  0  0  1  0  0  0  0  0  0
  189.6900  173.7980  144.6290 C   0  0  0  0  0  3  0  0  0  0  0  0
  189.1540  174.6420  143.6500 C   0  0  0  0  0  0  0  0  0  0  0  0
  189.2770  171.8770  143.2140 C   0  0  0  0  0  3  0  0  0  0  0  0
  188.6710  174.0940  142.4510 C   0  0  0  0  0  3  0  0  0  0  0  0
  189.7540  172.4190  144.4110 C   0  0  0  0  0  3  0  0  0  0  0  0
  188.7340  172.7140  142.2340 C   0  0  0  0  0  3  0  0  0  0  0  0
  189.8720  176.9450  142.9210 C   0  0  0  0  0  2  0  0  0  0  0  0
  190.9240  178.1450  143.7950 S   0  0  0  0  0  0  0  0  0  0  0  0
  193.2530  174.9940  145.0840 C   0  0  0  0  0  0  0  0  0  0  0  0
  191.3130  176.7460  146.1230 C   0  0  0  0  0  3  0  0  0  0  0  0
  192.7000  176.0110  144.2600 C   0  0  0  0  0  0  0  0  0  0  0  0
  191.7130  176.8740  144.7910 C   0  0  0  0  0  0  0  0  0  0  0  0
  191.4730  175.6430  148.2240 F   0  0  0  0  0  0  0  0  0  0  0  0
  191.8700  175.7620  146.9340 C   0  0  0  0  0  0  0  0  0  0  0  0
  193.2250  176.2470  142.5890 Cl  0  0  0  0  0  0  0  0  0  0  0  0
  192.8250  174.8930  146.4150 C   0  0  0  0  0  3  0  0  0  0  0  0
  194.2590  174.0050  144.6230 C   0  0  0  0  0  0  0  0  0  0  0  0
  193.8600  172.7100  144.3140 O   0  0  0  0  0  0  0  0  0  0  0  0
  195.4720  174.3090  144.4880 O   0  0  0  0  0  1  0  0  0  0  0  0
  1 21  1  6  0  0  0
  2  4  1  1  0  0  0
  3  2  1  0  0  0  0
  3 10  1  0  0  0  0
  4  6  1  0  0  0  0
  5  3  2  0  0  0  0
  6  8  1  1  0  0  0
  7  1  1  6  0  0  0
  7  2  1  0  0  0  0
  9 11  1  6  0  0  0
  9  5  1  0  0  0  0
  9  7  1  0  0  0  0
 10  6  1  0  0  0  0
 12 11  1  0  0  0  0
 13 12  2  0  0  0  0
 14 12  1  0  0  0  0
 16  1  1  0  0  0  0
 16 15  2  0  0  0  0
 17 19  2  0  0  0  0
 18 16  1  0  0  0  0
 19 15  1  0  0  0  0
 20 18  2  0  0  0  0
 20 17  1  0  0  0  0
 21 22  1  0  0  0  0
 22 26  1  0  0  0  0
 23 30  1  0  0  0  0
 24 28  1  0  0  0  0
 25 26  1  0  0  0  0
 25 23  2  0  0  0  0
 26 24  2  0  0  0  0
 28 27  1  0  0  0  0
 29 25  1  0  0  0  0
 30 28  2  0  0  0  0
 31 23  1  0  0  0  0
 32 31  2  0  0  0  0
 33 31  1  0  0  0  0
M  END
>  <MODEL>
1

>  <REMARK>
 VINA RESULT:      -7.6      0.000      0.000
  Name = 
  8 active torsions:
  status: ('A' for Active; 'I' for Inactive)
    1  A    between atoms: C_2  and  C_6
    2  A    between atoms: C_2  and  C_13
    3  A    between atoms: C_2  and  C_18
    4  A    between atoms: C_4  and  C_22
    5  A    between atoms: S_5  and  C_13
    6  A    between atoms: S_5  and  C_19
    7  A    between atoms: C_8  and  C_14
    8  A    between atoms: C_22  and  C_25
                            x       y       z     vdW  Elec       q    Type
                         _______ _______ _______ _____ _____    ______ ____

>  <TORSDO>
F 8

$$$$
=
 OpenBabel11062418583D

 33 36  0  0  1  0  0  0  0  0999 V2000
  188.1860  176.9080  144.6770 C   0  0  1  0  0  3  0  0  0  0  0  0
  186.7510  177.2390  142.6400 C   0  0  1  0  0  3  0  0  0  0  0  0
  185.3190  177.5110  142.6090 C   0  0  0  0  0  0  0  0  0  0  0  0
  187.2420  178.0290  141.4360 C   0  0  0  0  0  2  0  0  0  0  0  0
  184.8160  177.9400  143.7110 N   0  0  0  0  0  0  0  0  0  0  0  0
  186.0230  178.1360  140.5030 C   0  0  1  0  0  3  0  0  0  0  0  0
  187.1600  177.8150  143.9880 C   0  0  1  0  0  3  0  0  0  0  0  0
  186.0730  177.0720  139.5150 N   0  0  0  0  0  1  0  0  0  0  0  0
  185.8310  177.9210  144.7500 C   0  0  1  0  0  3  0  0  0  0  0  0
  184.8550  177.9530  141.3520 N   0  0  0  0  0  2  0  0  0  0  0  0
  185.7860  179.2150  145.5470 C   0  0  0  0  0  2  0  0  0  0  0  0
  185.3810  178.9470  146.9550 C   0  0  0  0  0  0  0  0  0  0  0  0
  186.0840  179.3770  147.9050 O   0  0  0  0  0  1  0  0  0  0  0  0
  184.2090  178.2530  147.2210 O   0  0  0  0  0  0  0  0  0  0  0  0
  189.9200  175.9300  143.1680 C   0  0  0  0  0  3  0  0  0  0  0  0
  189.5340  176.9670  144.0240 C   0  0  0  0  0  0  0  0  0  0  0  0
  192.0190  177.0550  142.7340 C   0  0  0  0  0  3  0  0  0  0  0  0
  190.3970  178.0560  144.2270 C   0  0  0  0  0  3  0  0  0  0  0  0
  191.1600  175.9720  142.5260 C   0  0  0  0  0  3  0  0  0  0  0  0
  191.6380  178.0980  143.5840 C   0  0  0  0  0  3  0  0  0  0  0  0
  188.2550  177.0960  146.1920 C   0  0  0  0  0  2  0  0  0  0  0  0
  188.4280  175.4850  147.0200 S   0  0  0  0  0  0  0  0  0  0  0  0
  192.2440  174.4040  145.8890 C   0  0  0  0  0  0  0  0  0  0  0  0
  190.9770  176.4460  147.3500 C   0  0  0  0  0  3  0  0  0  0  0  0
  190.8280  174.4140  146.0150 C   0  0  0  0  0  0  0  0  0  0  0  0
  190.2070  175.4370  146.7660 C   0  0  0  0  0  0  0  0  0  0  0  0
  193.1000  177.4260  147.7820 F   0  0  0  0  0  0  0  0  0  0  0  0
  192.3610  176.4450  147.2100 C   0  0  0  0  0  0  0  0  0  0  0  0
  189.8140  173.1930  145.2390 Cl  0  0  0  0  0  0  0  0  0  0  0  0
  192.9860  175.4300  146.4910 C   0  0  0  0  0  3  0  0  0  0  0  0
  193.0070  173.3560  145.1650 C   0  0  0  0  0  0  0  0  0  0  0  0
  192.8470  173.2120  143.7920 O   0  0  0  0  0  0  0  0  0  0  0  0
  193.8130  172.5960  145.7610 O   0  0  0  0  0  1  0  0  0  0  0  0
  1 21  1  1  0  0  0
  2  4  1  6  0  0  0
  2  7  1  0  0  0  0
  3  2  1  0  0  0  0
  3  5  2  0  0  0  0
  5  9  1  0  0  0  0
  6  8  1  6  0  0  0
  6 10  1  0  0  0  0
  6  4  1  0  0  0  0
  7  1  1  1  0  0  0
  7  9  1  0  0  0  0
  9 11  1  6  0  0  0
 10  3  1  0  0  0  0
 11 12  1  0  0  0  0
 12 14  2  0  0  0  0
 12 13  1  0  0  0  0
 15 16  1  0  0  0  0
 16 18  2  0  0  0  0
 16  1  1  0  0  0  0
 17 20  2  0  0  0  0
 19 17  1  0  0  0  0
 19 15  2  0  0  0  0
 20 18  1  0  0  0  0
 21 22  1  0  0  0  0
 23 25  2  0  0  0  0
 23 30  1  0  0  0  0
 25 26  1  0  0  0  0
 26 22  1  0  0  0  0
 26 24  2  0  0  0  0
 28 24  1  0  0  0  0
 28 27  1  0  0  0  0
 29 25  1  0  0  0  0
 30 28  2  0  0  0  0
 31 33  1  0  0  0  0
 31 23  1  0  0  0  0
 32 31  2  0  0  0  0
M  END
>  <MODEL>
2

>  <REMARK>
 VINA RESULT:      -7.5      2.903      4.265
  Name = 
  8 active torsions:
  status: ('A' for Active; 'I' for Inactive)
    1  A    between atoms: C_2  and  C_6
    2  A    between atoms: C_2  and  C_13
    3  A    between atoms: C_2  and  C_18
    4  A    between atoms: C_4  and  C_22
    5  A    between atoms: S_5  and  C_13
    6  A    between atoms: S_5  and  C_19
    7  A    between atoms: C_8  and  C_14
    8  A    between atoms: C_22  and  C_25
                            x       y       z     vdW  Elec       q    Type
                         _______ _______ _______ _____ _____    ______ ____

>  <TORSDO>
F 8

$$$$
=
 OpenBabel11062418583D

 33 36  0  0  1  0  0  0  0  0999 V2000
  188.7190  177.4880  144.1800 C   0  0  1  0  0  3  0  0  0  0  0  0
  186.5270  178.1060  145.2420 C   0  0  1  0  0  3  0  0  0  0  0  0
  185.3860  178.7450  144.5980 C   0  0  0  0  0  0  0  0  0  0  0  0
  185.8410  177.1920  146.2490 C   0  0  0  0  0  2  0  0  0  0  0  0
  185.3780  178.6900  143.3140 N   0  0  0  0  0  0  0  0  0  0  0  0
  184.4740  177.8470  146.5170 C   0  0  1  0  0  3  0  0  0  0  0  0
  187.1920  177.3840  144.0800 C   0  0  1  0  0  3  0  0  0  0  0  0
  184.5600  178.6800  147.7030 N   0  0  0  0  0  1  0  0  0  0  0  0
  186.6130  178.0860  142.8430 C   0  0  1  0  0  3  0  0  0  0  0  0
  184.1990  178.6830  145.3570 N   0  0  0  0  0  2  0  0  0  0  0  0
  186.3140  177.0670  141.7550 C   0  0  0  0  0  2  0  0  0  0  0  0
  186.0070  177.7520  140.4690 C   0  0  0  0  0  0  0  0  0  0  0  0
  186.8290  177.7030  139.5180 O   0  0  0  0  0  0  0  0  0  0  0  0
  184.8000  178.4160  140.3060 O   0  0  0  0  0  1  0  0  0  0  0  0
  189.9610  177.3050  146.3380 C   0  0  0  0  0  3  0  0  0  0  0  0
  189.2790  176.6640  145.2980 C   0  0  0  0  0  0  0  0  0  0  0  0
  190.2970  175.1770  147.4440 C   0  0  0  0  0  3  0  0  0  0  0  0
  189.1010  175.2710  145.3400 C   0  0  0  0  0  3  0  0  0  0  0  0
  190.4710  176.5630  147.4080 C   0  0  0  0  0  3  0  0  0  0  0  0
  189.6110  174.5300  146.4110 C   0  0  0  0  0  3  0  0  0  0  0  0
  189.4390  177.2500  142.8530 C   0  0  0  0  0  2  0  0  0  0  0  0
  191.1990  177.6890  143.0040 S   0  0  0  0  0  0  0  0  0  0  0  0
  193.0940  174.1740  144.0370 C   0  0  0  0  0  0  0  0  0  0  0  0
  191.1350  175.0580  142.2240 C   0  0  0  0  0  3  0  0  0  0  0  0
  192.6910  175.5370  144.0350 C   0  0  0  0  0  0  0  0  0  0  0  0
  191.7180  175.9710  143.1070 C   0  0  0  0  0  0  0  0  0  0  0  0
  190.9490  172.8440  141.3770 F   0  0  0  0  0  0  0  0  0  0  0  0
  191.5170  173.7210  142.2400 C   0  0  0  0  0  0  0  0  0  0  0  0
  193.3570  176.7080  145.1790 Cl  0  0  0  0  0  0  0  0  0  0  0  0
  192.4910  173.2870  143.1340 C   0  0  0  0  0  3  0  0  0  0  0  0
  194.1380  173.6170  144.9330 C   0  0  0  0  0  0  0  0  0  0  0  0
  195.4450  174.0810  144.8420 O   0  0  0  0  0  0  0  0  0  0  0  0
  193.8710  172.7360  145.7910 O   0  0  0  0  0  1  0  0  0  0  0  0
  1 21  1  6  0  0  0
  1 16  1  0  0  0  0
  2  4  1  1  0  0  0
  3  2  1  0  0  0  0
  3 10  1  0  0  0  0
  4  6  1  0  0  0  0
  5  3  2  0  0  0  0
  6  8  1  1  0  0  0
  7  1  1  1  0  0  0
  7  2  1  0  0  0  0
  9 11  1  6  0  0  0
  9  5  1  0  0  0  0
  9  7  1  0  0  0  0
 10  6  1  0  0  0  0
 12 11  1  0  0  0  0
 13 12  2  0  0  0  0
 14 12  1  0  0  0  0
 15 19  1  0  0  0  0
 16 18  1  0  0  0  0
 16 15  2  0  0  0  0
 18 20  2  0  0  0  0
 19 17  2  0  0  0  0
 20 17  1  0  0  0  0
 21 22  1  0  0  0  0
 22 26  1  0  0  0  0
 23 31  1  0  0  0  0
 24 28  2  0  0  0  0
 24 26  1  0  0  0  0
 25 23  1  0  0  0  0
 25 29  1  0  0  0  0
 26 25  2  0  0  0  0
 27 28  1  0  0  0  0
 28 30  1  0  0  0  0
 30 23  2  0  0  0  0
 31 33  1  0  0  0  0
 32 31  2  0  0  0  0
M  END
>  <MODEL>
3

>  <REMARK>
 VINA RESULT:      -7.4      2.033      2.837
  Name = 
  8 active torsions:
  status: ('A' for Active; 'I' for Inactive)
    1  A    between atoms: C_2  and  C_6
    2  A    between atoms: C_2  and  C_13
    3  A    between atoms: C_2  and  C_18
    4  A    between atoms: C_4  and  C_22
    5  A    between atoms: S_5  and  C_13
    6  A    between atoms: S_5  and  C_19
    7  A    between atoms: C_8  and  C_14
    8  A    between atoms: C_22  and  C_25
                            x       y       z     vdW  Elec       q    Type
                         _______ _______ _______ _____ _____    ______ ____

>  <TORSDO>
F 8

$$$$
=
 OpenBabel11062418583D

 33 36  0  0  1  0  0  0  0  0999 V2000
  191.3600  175.6420  143.6810 C   0  0  1  0  0  3  0  0  0  0  0  0
  193.8460  175.9390  143.4610 C   0  0  1  0  0  3  0  0  0  0  0  0
  194.7470  176.5560  144.4280 C   0  0  0  0  0  0  0  0  0  0  0  0
  194.7300  174.8540  142.8620 C   0  0  0  0  0  2  0  0  0  0  0  0
  194.2850  176.6580  145.6230 N   0  0  0  0  0  0  0  0  0  0  0  0
  196.1710  175.3550  143.0680 C   0  0  1  0  0  3  0  0  0  0  0  0
  192.7220  175.4240  144.3490 C   0  0  1  0  0  3  0  0  0  0  0  0
  196.6220  176.0390  141.8690 N   0  0  0  0  0  1  0  0  0  0  0  0
  192.8990  176.2220  145.6490 C   0  0  1  0  0  3  0  0  0  0  0  0
  196.1100  176.3010  144.1720 N   0  0  0  0  0  2  0  0  0  0  0  0
  192.6570  175.3240  146.8520 C   0  0  0  0  0  2  0  0  0  0  0  0
  191.4970  175.8150  147.6460 C   0  0  0  0  0  0  0  0  0  0  0  0
  190.4480  175.1260  147.7180 O   0  0  0  0  0  0  0  0  0  0  0  0
  191.5850  177.0160  148.3340 O   0  0  0  0  0  1  0  0  0  0  0  0
  190.0530  174.0020  142.3250 C   0  0  0  0  0  3  0  0  0  0  0  0
  190.5640  174.3770  143.5720 C   0  0  0  0  0  0  0  0  0  0  0  0
  189.1190  171.9930  143.2990 C   0  0  0  0  0  3  0  0  0  0  0  0
  190.3550  173.5470  144.6850 C   0  0  0  0  0  3  0  0  0  0  0  0
  189.3300  172.8140  142.1890 C   0  0  0  0  0  3  0  0  0  0  0  0
  189.6320  172.3580  144.5480 C   0  0  0  0  0  3  0  0  0  0  0  0
  190.5560  176.7950  144.2830 C   0  0  0  0  0  2  0  0  0  0  0  0
  189.3810  177.4510  143.0600 S   0  0  0  0  0  0  0  0  0  0  0  0
  185.6990  177.8720  144.8720 C   0  0  0  0  0  0  0  0  0  0  0  0
  188.1750  176.6430  145.3880 C   0  0  0  0  0  3  0  0  0  0  0  0
  186.7460  177.9520  143.9140 C   0  0  0  0  0  0  0  0  0  0  0  0
  187.9910  177.3440  144.1940 C   0  0  0  0  0  0  0  0  0  0  0  0
  187.3330  175.8700  147.4740 F   0  0  0  0  0  0  0  0  0  0  0  0
  187.1440  176.5490  146.3170 C   0  0  0  0  0  0  0  0  0  0  0  0
  186.5320  178.7750  142.3640 Cl  0  0  0  0  0  0  0  0  0  0  0  0
  185.9210  177.1640  146.0610 C   0  0  0  0  0  3  0  0  0  0  0  0
  184.3690  178.5100  144.7060 C   0  0  0  0  0  0  0  0  0  0  0  0
  183.7740  178.5460  143.4510 O   0  0  0  0  0  0  0  0  0  0  0  0
  183.7520  179.0130  145.6800 O   0  0  0  0  0  1  0  0  0  0  0  0
  1 21  1  1  0  0  0
  2  4  1  1  0  0  0
  2  7  1  0  0  0  0
  2  3  1  0  0  0  0
  3  5  2  0  0  0  0
  4  6  1  0  0  0  0
  5  9  1  0  0  0  0
  6  8  1  6  0  0  0
  6 10  1  0  0  0  0
  7  1  1  6  0  0  0
  7  9  1  0  0  0  0
  9 11  1  1  0  0  0
 10  3  1  0  0  0  0
 11 12  1  0  0  0  0
 12 13  2  0  0  0  0
 12 14  1  0  0  0  0
 15 16  1  0  0  0  0
 16  1  1  0  0  0  0
 16 18  2  0  0  0  0
 17 20  2  0  0  0  0
 19 15  2  0  0  0  0
 19 17  1  0  0  0  0
 20 18  1  0  0  0  0
 22 26  1  0  0  0  0
 22 21  1  0  0  0  0
 23 30  1  0  0  0  0
 24 28  1  0  0  0  0
 25 26  1  0  0  0  0
 25 23  2  0  0  0  0
 26 24  2  0  0  0  0
 28 27  1  0  0  0  0
 29 25  1  0  0  0  0
 30 28  2  0  0  0  0
 31 23  1  0  0  0  0
 31 33  1  0  0  0  0
 32 31  2  0  0  0  0
M  END
>  <MODEL>
4

>  <REMARK>
 VINA RESULT:      -7.3      3.903      7.379
  Name = 
  8 active torsions:
  status: ('A' for Active; 'I' for Inactive)
    1  A    between atoms: C_2  and  C_6
    2  A    between atoms: C_2  and  C_13
    3  A    between atoms: C_2  and  C_18
    4  A    between atoms: C_4  and  C_22
    5  A    between atoms: S_5  and  C_13
    6  A    between atoms: S_5  and  C_19
    7  A    between atoms: C_8  and  C_14
    8  A    between atoms: C_22  and  C_25
                            x       y       z     vdW  Elec       q    Type
                         _______ _______ _______ _____ _____    ______ ____

>  <TORSDO>
F 8

$$$$
=
 OpenBabel11062418583D

 33 36  0  0  1  0  0  0  0  0999 V2000
  189.0340  176.4250  144.1660 C   0  0  1  0  0  3  0  0  0  0  0  0
  187.2340  177.6640  145.4080 C   0  0  1  0  0  3  0  0  0  0  0  0
  186.2950  178.6340  144.8580 C   0  0  0  0  0  0  0  0  0  0  0  0
  186.3890  176.9850  146.4760 C   0  0  0  0  0  2  0  0  0  0  0  0
  186.1620  178.6080  143.5800 N   0  0  0  0  0  0  0  0  0  0  0  0
  185.3160  178.0220  146.8550 C   0  0  1  0  0  3  0  0  0  0  0  0
  187.5470  176.7950  144.1980 C   0  0  1  0  0  3  0  0  0  0  0  0
  185.7520  178.7660  148.0230 N   0  0  0  0  0  1  0  0  0  0  0  0
  187.1090  177.6640  143.0100 C   0  0  1  0  0  3  0  0  0  0  0  0
  185.2140  178.9230  145.7170 N   0  0  0  0  0  2  0  0  0  0  0  0
  186.4220  176.8060  141.9590 C   0  0  0  0  0  2  0  0  0  0  0  0
  186.0920  177.6190  140.7560 C   0  0  0  0  0  0  0  0  0  0  0  0
  186.9110  177.6960  139.8050 O   0  0  0  0  0  0  0  0  0  0  0  0
  184.8670  178.2640  140.6680 O   0  0  0  0  0  1  0  0  0  0  0  0
  189.7040  174.2090  145.1020 C   0  0  0  0  0  3  0  0  0  0  0  0
  189.2560  174.9520  144.0050 C   0  0  0  0  0  0  0  0  0  0  0  0
  189.6330  172.1850  143.7750 C   0  0  0  0  0  3  0  0  0  0  0  0
  188.9900  174.3010  142.7890 C   0  0  0  0  0  3  0  0  0  0  0  0
  189.8940  172.8290  144.9880 C   0  0  0  0  0  3  0  0  0  0  0  0
  189.1800  172.9210  142.6750 C   0  0  0  0  0  3  0  0  0  0  0  0
  189.8540  177.2570  143.1800 C   0  0  0  0  0  2  0  0  0  0  0  0
  191.3230  177.9450  144.0050 S   0  0  0  0  0  0  0  0  0  0  0  0
  193.7980  174.6680  144.3900 C   0  0  0  0  0  0  0  0  0  0  0  0
  192.4000  176.0280  142.3630 C   0  0  0  0  0  3  0  0  0  0  0  0
  192.9940  175.7940  144.7140 C   0  0  0  0  0  0  0  0  0  0  0  0
  192.3110  176.4780  143.6830 C   0  0  0  0  0  0  0  0  0  0  0  0
  193.2550  174.4870  140.7670 F   0  0  0  0  0  0  0  0  0  0  0  0
  193.1720  174.9140  142.0500 C   0  0  0  0  0  0  0  0  0  0  0  0
  192.8040  176.3560  146.3780 Cl  0  0  0  0  0  0  0  0  0  0  0  0
  193.8670  174.2460  143.0540 C   0  0  0  0  0  3  0  0  0  0  0  0
  194.5950  173.9020  145.3800 C   0  0  0  0  0  0  0  0  0  0  0  0
  194.1770  172.6350  145.7700 O   0  0  0  0  0  0  0  0  0  0  0  0
  195.6560  174.3630  145.8730 O   0  0  0  0  0  1  0  0  0  0  0  0
  1 21  1  6  0  0  0
  2  4  1  1  0  0  0
  3  2  1  0  0  0  0
  3 10  1  0  0  0  0
  4  6  1  0  0  0  0
  5  3  2  0  0  0  0
  6  8  1  1  0  0  0
  7  1  1  6  0  0  0
  7  2  1  0  0  0  0
  9 11  1  6  0  0  0
  9  5  1  0  0  0  0
  9  7  1  0  0  0  0
 10  6  1  0  0  0  0
 12 11  1  0  0  0  0
 13 12  2  0  0  0  0
 14 12  1  0  0  0  0
 16  1  1  0  0  0  0
 16 15  2  0  0  0  0
 17 19  2  0  0  0  0
 18 16  1  0  0  0  0
 19 15  1  0  0  0  0
 20 18  2  0  0  0  0
 20 17  1  0  0  0  0
 21 22  1  0  0  0  0
 23 25  1  0  0  0  0
 23 31  1  0  0  0  0
 24 26  1  0  0  0  0
 25 29  1  0  0  0  0
 26 22  1  0  0  0  0
 26 25  2  0  0  0  0
 27 28  1  0  0  0  0
 28 24  2  0  0  0  0
 28 30  1  0  0  0  0
 30 23  2  0  0  0  0
 31 32  2  0  0  0  0
 31 33  1  0  0  0  0
M  END
>  <MODEL>
5

>  <REMARK>
 VINA RESULT:      -7.1      1.763      2.074
  Name = 
  8 active torsions:
  status: ('A' for Active; 'I' for Inactive)
    1  A    between atoms: C_2  and  C_6
    2  A    between atoms: C_2  and  C_13
    3  A    between atoms: C_2  and  C_18
    4  A    between atoms: C_4  and  C_22
    5  A    between atoms: S_5  and  C_13
    6  A    between atoms: S_5  and  C_19
    7  A    between atoms: C_8  and  C_14
    8  A    between atoms: C_22  and  C_25
                            x       y       z     vdW  Elec       q    Type
                         _______ _______ _______ _____ _____    ______ ____

>  <TORSDO>
F 8

$$$$
=
 OpenBabel11062418583D

 33 36  0  0  1  0  0  0  0  0999 V2000
  188.2970  177.0940  145.3770 C   0  0  1  0  0  3  0  0  0  0  0  0
  187.0450  177.7010  143.2840 C   0  0  1  0  0  3  0  0  0  0  0  0
  187.5970  178.2820  142.0670 C   0  0  0  0  0  0  0  0  0  0  0  0
  185.9380  176.8150  142.7300 C   0  0  0  0  0  2  0  0  0  0  0  0
  188.8700  178.1710  141.9320 N   0  0  0  0  0  0  0  0  0  0  0  0
  185.5610  177.4450  141.3780 C   0  0  1  0  0  3  0  0  0  0  0  0
  188.2380  176.9470  143.8520 C   0  0  1  0  0  3  0  0  0  0  0  0
  184.4240  178.3310  141.5560 N   0  0  0  0  0  1  0  0  0  0  0  0
  189.4380  177.5790  143.1320 C   0  0  1  0  0  3  0  0  0  0  0  0
  186.7200  178.2230  140.9640 N   0  0  0  0  0  2  0  0  0  0  0  0
  190.4480  176.5060  142.7570 C   0  0  0  0  0  2  0  0  0  0  0  0
  191.8340  176.9720  143.0400 C   0  0  0  0  0  0  0  0  0  0  0  0
  192.8110  176.4120  142.4820 O   0  0  0  0  0  0  0  0  0  0  0  0
  192.0450  178.0450  143.8930 O   0  0  0  0  0  1  0  0  0  0  0  0
  186.0330  176.5440  146.2770 C   0  0  0  0  0  3  0  0  0  0  0  0
  186.9860  177.5200  145.9650 C   0  0  0  0  0  0  0  0  0  0  0  0
  184.5410  178.2560  147.1180 C   0  0  0  0  0  3  0  0  0  0  0  0
  186.7130  178.8700  146.2390 C   0  0  0  0  0  3  0  0  0  0  0  0
  184.8120  176.9110  146.8510 C   0  0  0  0  0  3  0  0  0  0  0  0
  185.4910  179.2360  146.8130 C   0  0  0  0  0  3  0  0  0  0  0  0
  188.8970  175.8820  146.0900 C   0  0  0  0  0  2  0  0  0  0  0  0
  190.4000  176.3640  146.9970 S   0  0  0  0  0  0  0  0  0  0  0  0
  193.5910  174.4140  145.2560 C   0  0  0  0  0  0  0  0  0  0  0  0
  190.8020  174.1180  145.4720 C   0  0  0  0  0  3  0  0  0  0  0  0
  192.8340  175.3460  146.0170 C   0  0  0  0  0  0  0  0  0  0  0  0
  191.4310  175.1940  146.1030 C   0  0  0  0  0  0  0  0  0  0  0  0
  190.9270  172.1580  144.1310 F   0  0  0  0  0  0  0  0  0  0  0  0
  191.5460  173.1960  144.7430 C   0  0  0  0  0  0  0  0  0  0  0  0
  193.5990  176.6830  146.8830 Cl  0  0  0  0  0  0  0  0  0  0  0  0
  192.9260  173.3480  144.6330 C   0  0  0  0  0  3  0  0  0  0  0  0
  195.0590  174.4990  145.0580 C   0  0  0  0  0  0  0  0  0  0  0  0
  195.5790  174.5530  143.7700 O   0  0  0  0  0  0  0  0  0  0  0  0
  195.8560  174.5380  146.0310 O   0  0  0  0  0  1  0  0  0  0  0  0
  1 16  1  0  0  0  0
  1 21  1  1  0  0  0
  2  4  1  6  0  0  0
  2  7  1  0  0  0  0
  3  2  1  0  0  0  0
  5  3  2  0  0  0  0
  5  9  1  0  0  0  0
  6  8  1  1  0  0  0
  6  4  1  0  0  0  0
  7  1  1  1  0  0  0
  9 11  1  6  0  0  0
  9  7  1  0  0  0  0
 10  6  1  0  0  0  0
 10  3  1  0  0  0  0
 11 12  1  0  0  0  0
 12 14  1  0  0  0  0
 13 12  2  0  0  0  0
 15 19  1  0  0  0  0
 16 18  1  0  0  0  0
 16 15  2  0  0  0  0
 18 20  2  0  0  0  0
 19 17  2  0  0  0  0
 20 17  1  0  0  0  0
 21 22  1  0  0  0  0
 23 25  1  0  0  0  0
 24 26  1  0  0  0  0
 25 26  2  0  0  0  0
 25 29  1  0  0  0  0
 26 22  1  0  0  0  0
 27 28  1  0  0  0  0
 28 24  2  0  0  0  0
 30 28  1  0  0  0  0
 30 23  2  0  0  0  0
 31 23  1  0  0  0  0
 31 33  1  0  0  0  0
 32 31  2  0  0  0  0
M  END
>  <MODEL>
6

>  <REMARK>
 VINA RESULT:      -7.0      3.069      4.660
  Name = 
  8 active torsions:
  status: ('A' for Active; 'I' for Inactive)
    1  A    between atoms: C_2  and  C_6
    2  A    between atoms: C_2  and  C_13
    3  A    between atoms: C_2  and  C_18
    4  A    between atoms: C_4  and  C_22
    5  A    between atoms: S_5  and  C_13
    6  A    between atoms: S_5  and  C_19
    7  A    between atoms: C_8  and  C_14
    8  A    between atoms: C_22  and  C_25
                            x       y       z     vdW  Elec       q    Type
                         _______ _______ _______ _____ _____    ______ ____

>  <TORSDO>
F 8

$$$$
=
 OpenBabel11062418583D

 33 36  0  0  1  0  0  0  0  0999 V2000
  188.4390  177.0780  145.3620 C   0  0  1  0  0  3  0  0  0  0  0  0
  188.6990  175.5030  143.4210 C   0  0  1  0  0  3  0  0  0  0  0  0
  187.7150  175.2130  142.3850 C   0  0  0  0  0  0  0  0  0  0  0  0
  190.0050  175.4010  142.6440 C   0  0  0  0  0  2  0  0  0  0  0  0
  186.7670  176.0740  142.2710 N   0  0  0  0  0  0  0  0  0  0  0  0
  189.6920  174.4720  141.4580 C   0  0  1  0  0  3  0  0  0  0  0  0
  188.3190  176.9150  143.8420 C   0  0  1  0  0  3  0  0  0  0  0  0
  190.0730  173.1120  141.7950 N   0  0  0  0  0  1  0  0  0  0  0  0
  186.8820  177.0690  143.3230 C   0  0  1  0  0  3  0  0  0  0  0  0
  188.2500  174.5380  141.2690 N   0  0  0  0  0  2  0  0  0  0  0  0
  186.6800  178.4620  142.7490 C   0  0  0  0  0  2  0  0  0  0  0  0
  185.4300  179.0710  143.2830 C   0  0  0  0  0  0  0  0  0  0  0  0
  185.4760  180.1700  143.8920 O   0  0  0  0  0  1  0  0  0  0  0  0
  184.2100  178.4430  143.0800 O   0  0  0  0  0  0  0  0  0  0  0  0
  187.0360  178.6880  146.6560 C   0  0  0  0  0  3  0  0  0  0  0  0
  187.1390  177.4560  146.0040 C   0  0  0  0  0  0  0  0  0  0  0  0
  184.7140  178.2350  147.1710 C   0  0  0  0  0  3  0  0  0  0  0  0
  186.0170  176.6140  145.9310 C   0  0  0  0  0  3  0  0  0  0  0  0
  185.8280  179.0770  147.2410 C   0  0  0  0  0  3  0  0  0  0  0  0
  184.8080  177.0040  146.5150 C   0  0  0  0  0  3  0  0  0  0  0  0
  189.1200  175.8990  146.0560 C   0  0  0  0  0  2  0  0  0  0  0  0
  190.5530  176.4750  147.0170 S   0  0  0  0  0  0  0  0  0  0  0  0
  193.8940  174.6600  145.4180 C   0  0  0  0  0  0  0  0  0  0  0  0
  191.1380  174.1580  145.6680 C   0  0  0  0  0  3  0  0  0  0  0  0
  193.0630  175.5830  146.1080 C   0  0  0  0  0  0  0  0  0  0  0  0
  191.6770  175.3260  146.2110 C   0  0  0  0  0  0  0  0  0  0  0  0
  191.4230  172.1160  144.4820 F   0  0  0  0  0  0  0  0  0  0  0  0
  191.9550  173.2450  145.0090 C   0  0  0  0  0  0  0  0  0  0  0  0
  193.7160  177.0410  146.8640 Cl  0  0  0  0  0  0  0  0  0  0  0  0
  193.3180  173.4990  144.8810 C   0  0  0  0  0  3  0  0  0  0  0  0
  195.3510  174.8470  145.2070 C   0  0  0  0  0  0  0  0  0  0  0  0
  196.2550  174.0280  145.8730 O   0  0  0  0  0  1  0  0  0  0  0  0
  195.7980  175.7260  144.4250 O   0  0  0  0  0  0  0  0  0  0  0  0
  1 16  1  0  0  0  0
  1 21  1  1  0  0  0
  2  4  1  6  0  0  0
  2  7  1  0  0  0  0
  3  2  1  0  0  0  0
  5  3  2  0  0  0  0
  5  9  1  0  0  0  0
  6  8  1  1  0  0  0
  6  4  1  0  0  0  0
  7  1  1  1  0  0  0
  9 11  1  6  0  0  0
  9  7  1  0  0  0  0
 10  6  1  0  0  0  0
 10  3  1  0  0  0  0
 11 12  1  0  0  0  0
 12 13  1  0  0  0  0
 14 12  2  0  0  0  0
 15 19  1  0  0  0  0
 16 15  2  0  0  0  0
 17 19  2  0  0  0  0
 18 16  1  0  0  0  0
 18 20  2  0  0  0  0
 20 17  1  0  0  0  0
 21 22  1  0  0  0  0
 23 25  1  0  0  0  0
 24 26  1  0  0  0  0
 25 26  2  0  0  0  0
 25 29  1  0  0  0  0
 26 22  1  0  0  0  0
 27 28  1  0  0  0  0
 28 24  2  0  0  0  0
 30 28  1  0  0  0  0
 30 23  2  0  0  0  0
 31 23  1  0  0  0  0
 31 32  1  0  0  0  0
 33 31  2  0  0  0  0
M  END
>  <MODEL>
7

>  <REMARK>
 VINA RESULT:      -6.9      2.611      4.574
  Name = 
  8 active torsions:
  status: ('A' for Active; 'I' for Inactive)
    1  A    between atoms: C_2  and  C_6
    2  A    between atoms: C_2  and  C_13
    3  A    between atoms: C_2  and  C_18
    4  A    between atoms: C_4  and  C_22
    5  A    between atoms: S_5  and  C_13
    6  A    between atoms: S_5  and  C_19
    7  A    between atoms: C_8  and  C_14
    8  A    between atoms: C_22  and  C_25
                            x       y       z     vdW  Elec       q    Type
                         _______ _______ _______ _____ _____    ______ ____

>  <TORSDO>
F 8

$$$$
=
 OpenBabel11062418583D

 33 36  0  0  1  0  0  0  0  0999 V2000
  193.2310  173.7810  145.1620 C   0  0  1  0  0  3  0  0  0  0  0  0
  191.3730  173.6950  143.4720 C   0  0  1  0  0  3  0  0  0  0  0  0
  191.1510  174.6130  142.3610 C   0  0  0  0  0  0  0  0  0  0  0  0
  190.8850  172.3770  142.8870 C   0  0  0  0  0  2  0  0  0  0  0  0
  192.1670  175.3250  142.0240 N   0  0  0  0  0  0  0  0  0  0  0  0
  189.8810  172.7740  141.7900 C   0  0  1  0  0  3  0  0  0  0  0  0
  192.8790  173.7850  143.6700 C   0  0  1  0  0  3  0  0  0  0  0  0
  188.5350  172.7470  142.3330 N   0  0  0  0  0  1  0  0  0  0  0  0
  193.2570  175.0910  142.9560 C   0  0  1  0  0  3  0  0  0  0  0  0
  190.2230  174.1370  141.4110 N   0  0  0  0  0  2  0  0  0  0  0  0
  194.5630  174.9140  142.1990 C   0  0  0  0  0  2  0  0  0  0  0  0
  195.4100  176.1320  142.3260 C   0  0  0  0  0  0  0  0  0  0  0  0
  195.6520  176.8390  141.3150 O   0  0  0  0  0  0  0  0  0  0  0  0
  195.9050  176.5070  143.5670 O   0  0  0  0  0  1  0  0  0  0  0  0
  194.4550  171.6280  145.4820 C   0  0  0  0  0  3  0  0  0  0  0  0
  194.4920  173.0260  145.4530 C   0  0  0  0  0  0  0  0  0  0  0  0
  196.8330  171.5640  145.9360 C   0  0  0  0  0  3  0  0  0  0  0  0
  195.7110  173.6920  145.6600 C   0  0  0  0  0  3  0  0  0  0  0  0
  195.6220  170.8980  145.7250 C   0  0  0  0  0  3  0  0  0  0  0  0
  196.8780  172.9610  145.9030 C   0  0  0  0  0  3  0  0  0  0  0  0
  193.2130  175.1690  145.8010 C   0  0  0  0  0  2  0  0  0  0  0  0
  191.9330  175.2520  147.0920 S   0  0  0  0  0  0  0  0  0  0  0  0
  188.5980  176.8270  145.2460 C   0  0  0  0  0  0  0  0  0  0  0  0
  191.3900  177.1540  145.1900 C   0  0  0  0  0  3  0  0  0  0  0  0
  189.4210  176.0620  146.1170 C   0  0  0  0  0  0  0  0  0  0  0  0
  190.8240  176.2250  146.0660 C   0  0  0  0  0  0  0  0  0  0  0  0
  191.1420  178.8120  143.5030 F   0  0  0  0  0  0  0  0  0  0  0  0
  190.5830  177.9160  144.3520 C   0  0  0  0  0  0  0  0  0  0  0  0
  188.7390  174.9230  147.2840 Cl  0  0  0  0  0  0  0  0  0  0  0  0
  189.2010  177.7470  144.3780 C   0  0  0  0  0  3  0  0  0  0  0  0
  187.1200  176.7070  145.1800 C   0  0  0  0  0  0  0  0  0  0  0  0
  186.5070  176.4000  143.9710 O   0  0  0  0  0  0  0  0  0  0  0  0
  186.3970  176.8650  146.1980 O   0  0  0  0  0  1  0  0  0  0  0  0
  1 16  1  0  0  0  0
  1 21  1  6  0  0  0
  2  4  1  6  0  0  0
  2  7  1  0  0  0  0
  3  2  1  0  0  0  0
  5  3  2  0  0  0  0
  5  9  1  0  0  0  0
  6  8  1  1  0  0  0
  6  4  1  0  0  0  0
  7  1  1  1  0  0  0
  9 11  1  6  0  0  0
  9  7  1  0  0  0  0
 10  6  1  0  0  0  0
 10  3  1  0  0  0  0
 11 12  1  0  0  0  0
 12 14  1  0  0  0  0
 13 12  2  0  0  0  0
 15 19  1  0  0  0  0
 16 15  2  0  0  0  0
 16 18  1  0  0  0  0
 18 20  2  0  0  0  0
 19 17  2  0  0  0  0
 20 17  1  0  0  0  0
 21 22  1  0  0  0  0
 23 25  1  0  0  0  0
 24 26  1  0  0  0  0
 25 29  1  0  0  0  0
 26 25  2  0  0  0  0
 26 22  1  0  0  0  0
 27 28  1  0  0  0  0
 28 30  1  0  0  0  0
 28 24  2  0  0  0  0
 30 23  2  0  0  0  0
 31 23  1  0  0  0  0
 31 33  1  0  0  0  0
 32 31  2  0  0  0  0
M  END
>  <MODEL>
8

>  <REMARK>
 VINA RESULT:      -6.9      3.546      6.912
  Name = 
  8 active torsions:
  status: ('A' for Active; 'I' for Inactive)
    1  A    between atoms: C_2  and  C_6
    2  A    between atoms: C_2  and  C_13
    3  A    between atoms: C_2  and  C_18
    4  A    between atoms: C_4  and  C_22
    5  A    between atoms: S_5  and  C_13
    6  A    between atoms: S_5  and  C_19
    7  A    between atoms: C_8  and  C_14
    8  A    between atoms: C_22  and  C_25
                            x       y       z     vdW  Elec       q    Type
                         _______ _______ _______ _____ _____    ______ ____

>  <TORSDO>
F 8

$$$$
=
 OpenBabel11062418583D

 33 36  0  0  1  0  0  0  0  0999 V2000
  191.0400  175.4410  143.3170 C   0  0  1  0  0  3  0  0  0  0  0  0
  193.4860  175.6110  143.8680 C   0  0  1  0  0  3  0  0  0  0  0  0
  194.2020  174.8990  144.9190 C   0  0  0  0  0  0  0  0  0  0  0  0
  194.5460  175.7030  142.7790 C   0  0  0  0  0  2  0  0  0  0  0  0
  193.6050  173.8610  145.3850 N   0  0  0  0  0  0  0  0  0  0  0  0
  195.8910  175.6180  143.5220 C   0  0  1  0  0  3  0  0  0  0  0  0
  192.3380  174.6620  143.5580 C   0  0  1  0  0  3  0  0  0  0  0  0
  196.3900  176.9590  143.7770 N   0  0  0  0  0  1  0  0  0  0  0  0
  192.2820  173.7520  144.7940 C   0  0  1  0  0  3  0  0  0  0  0  0
  195.6050  174.9600  144.7890 N   0  0  0  0  0  2  0  0  0  0  0  0
  192.0140  172.3160  144.3750 C   0  0  0  0  0  2  0  0  0  0  0  0
  190.5490  172.0530  144.3180 C   0  0  0  0  0  0  0  0  0  0  0  0
  189.8010  172.4590  145.2430 O   0  0  0  0  0  1  0  0  0  0  0  0
  190.0040  171.3900  143.2280 O   0  0  0  0  0  0  0  0  0  0  0  0
  188.7590  174.6950  142.6270 C   0  0  0  0  0  3  0  0  0  0  0  0
  190.1280  174.7530  142.3470 C   0  0  0  0  0  0  0  0  0  0  0  0
  188.3710  173.5270  140.5420 C   0  0  0  0  0  3  0  0  0  0  0  0
  190.6160  174.1990  141.1530 C   0  0  0  0  0  3  0  0  0  0  0  0
  187.8820  174.0820  141.7270 C   0  0  0  0  0  3  0  0  0  0  0  0
  189.7390  173.5860  140.2530 C   0  0  0  0  0  3  0  0  0  0  0  0
  190.3270  175.8620  144.6010 C   0  0  0  0  0  2  0  0  0  0  0  0
  190.0590  177.6620  144.6130 S   0  0  0  0  0  0  0  0  0  0  0  0
  185.9380  177.6950  144.4250 C   0  0  0  0  0  0  0  0  0  0  0  0
  187.9600  177.0630  146.2760 C   0  0  0  0  0  3  0  0  0  0  0  0
  187.3050  177.8010  144.0490 C   0  0  0  0  0  0  0  0  0  0  0  0
  188.3100  177.4960  144.9950 C   0  0  0  0  0  0  0  0  0  0  0  0
  186.2910  176.5240  147.8830 F   0  0  0  0  0  0  0  0  0  0  0  0
  186.6220  176.9410  146.6370 C   0  0  0  0  0  0  0  0  0  0  0  0
  187.7890  178.2830  142.4190 Cl  0  0  0  0  0  0  0  0  0  0  0  0
  185.6230  177.2610  145.7210 C   0  0  0  0  0  3  0  0  0  0  0  0
  184.8010  178.0320  143.5330 C   0  0  0  0  0  0  0  0  0  0  0  0
  183.8660  178.9780  143.9360 O   0  0  0  0  0  1  0  0  0  0  0  0
  184.6640  177.4920  142.4050 O   0  0  0  0  0  0  0  0  0  0  0  0
  1 21  1  1  0  0  0
  2  4  1  6  0  0  0
  2  3  1  0  0  0  0
  3  5  2  0  0  0  0
  4  6  1  0  0  0  0
  6  8  1  1  0  0  0
  6 10  1  0  0  0  0
  7  1  1  1  0  0  0
  7  2  1  0  0  0  0
  7  9  1  0  0  0  0
  9 11  1  6  0  0  0
  9  5  1  0  0  0  0
 10  3  1  0  0  0  0
 12 11  1  0  0  0  0
 12 13  1  0  0  0  0
 14 12  2  0  0  0  0
 16 15  1  0  0  0  0
 16  1  1  0  0  0  0
 17 19  1  0  0  0  0
 18 16  2  0  0  0  0
 19 15  2  0  0  0  0
 20 17  2  0  0  0  0
 20 18  1  0  0  0  0
 21 22  1  0  0  0  0
 22 26  1  0  0  0  0
 23 30  1  0  0  0  0
 24 28  1  0  0  0  0
 25 23  2  0  0  0  0
 25 26  1  0  0  0  0
 26 24  2  0  0  0  0
 28 27  1  0  0  0  0
 29 25  1  0  0  0  0
 30 28  2  0  0  0  0
 31 32  1  0  0  0  0
 31 23  1  0  0  0  0
 33 31  2  0  0  0  0
M  END
>  <MODEL>
9

>  <REMARK>
 VINA RESULT:      -6.8      3.722      7.087
  Name = 
  8 active torsions:
  status: ('A' for Active; 'I' for Inactive)
    1  A    between atoms: C_2  and  C_6
    2  A    between atoms: C_2  and  C_13
    3  A    between atoms: C_2  and  C_18
    4  A    between atoms: C_4  and  C_22
    5  A    between atoms: S_5  and  C_13
    6  A    between atoms: S_5  and  C_19
    7  A    between atoms: C_8  and  C_14
    8  A    between atoms: C_22  and  C_25
                            x       y       z     vdW  Elec       q    Type
                         _______ _______ _______ _____ _____    ______ ____

>  <TORSDO>
F 8

$$$$
