=
 OpenBabel11062422563D

 29 32  0  0  1  0  0  0  0  0999 V2000
  189.7800  174.1730  146.1290 N   0  0  0  0  0  0  0  0  0  0  0  0
  191.2520  178.2750  143.7640 C   0  0  0  0  0  3  0  0  0  0  0  0
  192.9300  173.7470  144.1390 C   0  0  0  0  0  0  0  0  0  0  0  0
  190.2310  177.9910  144.6170 N   0  0  0  0  0  0  0  0  0  0  0  0
  190.7990  174.4220  145.2610 C   0  0  0  0  0  0  0  0  0  0  0  0
  194.2070  172.7350  144.0150 S   0  0  0  0  0  0  0  0  0  0  0  0
  190.0720  176.7400  145.1280 C   0  0  0  0  0  0  0  0  0  0  0  0
  188.9110  175.1450  146.5200 C   0  0  0  0  0  3  0  0  0  0  0  0
  189.0340  176.4480  146.0260 C   0  0  0  0  0  0  0  0  0  0  0  0
  190.9680  175.7240  144.7570 C   0  0  0  0  0  0  0  0  0  0  0  0
  192.0250  176.0440  143.8990 C   0  0  0  0  0  0  0  0  0  0  0  0
  191.6470  173.2720  144.7730 C   0  0  1  0  0  3  0  0  0  0  0  0
  192.1440  177.3090  143.4180 N   0  0  0  0  0  0  0  0  0  0  0  0
  193.0220  175.0670  143.5970 N   0  0  0  0  0  2  0  0  0  0  0  0
  189.3390  171.9340  144.1570 O   0  0  0  0  0  1  0  0  0  0  0  0
  191.5300  170.8550  143.2230 O   0  0  0  0  0  1  0  0  0  0  0  0
  190.4710  173.1640  142.1510 O   0  0  0  0  0  0  0  0  0  0  0  0
  190.6900  172.2800  143.5760 P   0  0  0  0  0  0  0  0  0  0  0  0
  188.0410  177.4870  146.4420 C   0  0  0  0  0  2  0  0  0  0  0  0
  186.2320  178.4080  142.0340 C   0  0  0  0  0  1  0  0  0  0  0  0
  185.6910  176.2840  142.8670 F   0  0  0  0  0  0  0  0  0  0  0  0
  185.8200  177.6060  143.2500 C   0  0  1  0  0  0  0  0  0  0  0  0
  184.5660  178.2680  146.2590 C   0  0  0  0  0  2  0  0  0  0  0  0
  186.8230  177.4280  145.5780 C   0  0  0  0  0  0  0  0  0  0  0  0
  185.3250  180.0500  144.8240 F   0  0  0  0  0  0  0  0  0  0  0  0
  184.4030  179.0230  144.9340 C   0  0  1  0  0  3  0  0  0  0  0  0
  186.9360  177.6970  144.2680 C   0  0  0  0  0  3  0  0  0  0  0  0
  185.5070  177.0620  146.1920 C   0  0  0  0  0  2  0  0  0  0  0  0
  184.4330  178.1030  143.7090 C   0  0  0  0  0  2  0  0  0  0  0  0
  1  8  1  0  0  0  0
  2  4  2  0  0  0  0
  3 12  1  0  0  0  0
  4  7  1  0  0  0  0
  5  1  2  0  0  0  0
  6  3  2  0  0  0  0
  7  9  1  0  0  0  0
  9 19  1  0  0  0  0
  9  8  2  0  0  0  0
 10  7  2  0  0  0  0
 10  5  1  0  0  0  0
 11 10  1  0  0  0  0
 12 18  1  6  0  0  0
 12  5  1  0  0  0  0
 13  2  1  0  0  0  0
 13 11  2  0  0  0  0
 14 11  1  0  0  0  0
 14  3  1  0  0  0  0
 16 18  1  0  0  0  0
 17 18  2  0  0  0  0
 18 15  1  0  0  0  0
 21 22  1  0  0  0  0
 22 20  1  6  0  0  0
 22 29  1  0  0  0  0
 22 27  1  0  0  0  0
 24 28  1  0  0  0  0
 24 19  1  0  0  0  0
 26 25  1  6  0  0  0
 26 23  1  0  0  0  0
 27 24  2  0  0  0  0
 28 23  1  0  0  0  0
 29 26  1  0  0  0  0
M  END
>  <MODEL>
1

>  <REMARK>
 VINA RESULT:      -8.4      0.000      0.000
  Name = 
  3 active torsions:
  status: ('A' for Active; 'I' for Inactive)
    1  A    between atoms: P_7  and  C_27
    2  A    between atoms: C_12  and  C_20
    3  A    between atoms: C_20  and  C_22
                            x       y       z     vdW  Elec       q    Type
                         _______ _______ _______ _____ _____    ______ ____

>  <TORSDO>
F 3

$$$$
=
 OpenBabel11062422563D

 29 32  0  0  1  0  0  0  0  0999 V2000
  191.6020  177.5150  144.4020 N   0  0  0  0  0  0  0  0  0  0  0  0
  189.7230  173.0110  145.2820 C   0  0  0  0  0  3  0  0  0  0  0  0
  193.5060  174.7180  142.7850 C   0  0  0  0  0  0  0  0  0  0  0  0
  189.3410  174.2740  145.6100 N   0  0  0  0  0  0  0  0  0  0  0  0
  192.0210  176.2610  144.0760 C   0  0  0  0  0  0  0  0  0  0  0  0
  194.5980  174.4680  141.5950 S   0  0  0  0  0  0  0  0  0  0  0  0
  190.0710  175.3530  145.2150 C   0  0  0  0  0  0  0  0  0  0  0  0
  190.4570  177.7330  145.1050 C   0  0  0  0  0  3  0  0  0  0  0  0
  189.6700  176.6590  145.5310 C   0  0  0  0  0  0  0  0  0  0  0  0
  191.2460  175.1550  144.4700 C   0  0  0  0  0  0  0  0  0  0  0  0
  191.6060  173.8490  144.1220 C   0  0  0  0  0  0  0  0  0  0  0  0
  193.3610  176.0840  143.4060 C   0  0  1  0  0  3  0  0  0  0  0  0
  190.8420  172.8060  144.5370 N   0  0  0  0  0  0  0  0  0  0  0  0
  192.7260  173.6200  143.2640 N   0  0  0  0  0  2  0  0  0  0  0  0
  194.3000  177.4670  145.5740 O   0  0  0  0  0  1  0  0  0  0  0  0
  196.1190  176.7780  143.8250 O   0  0  0  0  0  0  0  0  0  0  0  0
  194.9470  174.9400  145.5130 O   0  0  0  0  0  1  0  0  0  0  0  0
  194.6910  176.3560  144.6270 P   0  0  0  0  0  0  0  0  0  0  0  0
  188.4370  176.9270  146.3380 C   0  0  0  0  0  2  0  0  0  0  0  0
  186.7750  178.2740  141.9830 C   0  0  0  0  0  1  0  0  0  0  0  0
  186.0870  176.1340  142.6510 F   0  0  0  0  0  0  0  0  0  0  0  0
  186.2910  177.4140  143.1310 C   0  0  1  0  0  0  0  0  0  0  0  0
  185.0220  177.9380  146.1610 C   0  0  0  0  0  2  0  0  0  0  0  0
  187.2350  177.0080  145.4540 C   0  0  0  0  0  0  0  0  0  0  0  0
  185.9170  179.7660  144.8700 F   0  0  0  0  0  0  0  0  0  0  0  0
  184.9310  178.7940  144.8920 C   0  0  1  0  0  3  0  0  0  0  0  0
  187.3910  177.3610  144.1690 C   0  0  0  0  0  3  0  0  0  0  0  0
  185.8880  176.6820  146.0210 C   0  0  0  0  0  2  0  0  0  0  0  0
  184.9290  177.9640  143.6040 C   0  0  0  0  0  2  0  0  0  0  0  0
  1  8  1  0  0  0  0
  2  4  2  0  0  0  0
  3 14  1  0  0  0  0
  3 12  1  0  0  0  0
  5  1  2  0  0  0  0
  5 10  1  0  0  0  0
  6  3  2  0  0  0  0
  7  9  1  0  0  0  0
  7  4  1  0  0  0  0
  8  9  2  0  0  0  0
  9 19  1  0  0  0  0
 10  7  2  0  0  0  0
 11 10  1  0  0  0  0
 11 13  2  0  0  0  0
 12  5  1  0  0  0  0
 12 18  1  1  0  0  0
 13  2  1  0  0  0  0
 14 11  1  0  0  0  0
 16 18  2  0  0  0  0
 18 17  1  0  0  0  0
 18 15  1  0  0  0  0
 21 22  1  0  0  0  0
 22 20  1  6  0  0  0
 22 29  1  0  0  0  0
 22 27  1  0  0  0  0
 24 28  1  0  0  0  0
 24 19  1  0  0  0  0
 26 25  1  6  0  0  0
 26 23  1  0  0  0  0
 27 24  2  0  0  0  0
 28 23  1  0  0  0  0
 29 26  1  0  0  0  0
M  END
>  <MODEL>
2

>  <REMARK>
 VINA RESULT:      -8.0      2.590      3.358
  Name = 
  3 active torsions:
  status: ('A' for Active; 'I' for Inactive)
    1  A    between atoms: P_7  and  C_27
    2  A    between atoms: C_12  and  C_20
    3  A    between atoms: C_20  and  C_22
                            x       y       z     vdW  Elec       q    Type
                         _______ _______ _______ _____ _____    ______ ____

>  <TORSDO>
F 3

$$$$
=
 OpenBabel11062422563D

 29 32  0  0  1  0  0  0  0  0999 V2000
  189.3450  174.6300  143.1690 N   0  0  0  0  0  0  0  0  0  0  0  0
  192.4010  175.8780  146.8690 C   0  0  0  0  0  3  0  0  0  0  0  0
  192.0520  172.1200  143.8340 C   0  0  0  0  0  0  0  0  0  0  0  0
  191.2850  176.4420  146.3360 N   0  0  0  0  0  0  0  0  0  0  0  0
  190.4730  174.0530  143.6680 C   0  0  0  0  0  0  0  0  0  0  0  0
  192.4130  170.5560  143.5290 S   0  0  0  0  0  0  0  0  0  0  0  0
  190.6310  175.8550  145.2960 C   0  0  0  0  0  0  0  0  0  0  0  0
  188.8330  175.7800  143.6860 C   0  0  0  0  0  3  0  0  0  0  0  0
  189.4650  176.4200  144.7570 C   0  0  0  0  0  0  0  0  0  0  0  0
  191.1280  174.6560  144.7570 C   0  0  0  0  0  0  0  0  0  0  0  0
  192.2620  174.0810  145.3380 C   0  0  0  0  0  0  0  0  0  0  0  0
  191.0560  172.8500  142.9680 C   0  0  1  0  0  3  0  0  0  0  0  0
  192.8780  174.7040  146.3770 N   0  0  0  0  0  0  0  0  0  0  0  0
  192.7230  172.8040  144.8950 N   0  0  0  0  0  2  0  0  0  0  0  0
  192.9420  172.4040  141.0340 O   0  0  0  0  0  1  0  0  0  0  0  0
  192.5280  174.9190  141.6200 O   0  0  0  0  0  1  0  0  0  0  0  0
  190.7050  173.4370  140.1750 O   0  0  0  0  0  0  0  0  0  0  0  0
  191.8540  173.3810  141.4140 P   0  0  0  0  0  0  0  0  0  0  0  0
  188.9020  177.7050  145.2800 C   0  0  0  0  0  2  0  0  0  0  0  0
  184.6150  179.6800  144.1550 C   0  0  0  0  0  1  0  0  0  0  0  0
  184.7020  177.3530  143.8720 F   0  0  0  0  0  0  0  0  0  0  0  0
  185.1100  178.3650  144.7210 C   0  0  1  0  0  0  0  0  0  0  0  0
  186.2680  177.2880  147.6470 C   0  0  0  0  0  2  0  0  0  0  0  0
  187.4210  177.6010  145.4480 C   0  0  0  0  0  0  0  0  0  0  0  0
  185.9160  179.6400  147.2550 F   0  0  0  0  0  0  0  0  0  0  0  0
  185.2760  178.4150  147.3330 C   0  0  1  0  0  3  0  0  0  0  0  0
  186.6220  178.4000  144.7230 C   0  0  0  0  0  3  0  0  0  0  0  0
  186.8630  176.6020  146.4140 C   0  0  0  0  0  2  0  0  0  0  0  0
  184.4280  178.1400  146.0870 C   0  0  0  0  0  2  0  0  0  0  0  0
  1  5  2  0  0  0  0
  1  8  1  0  0  0  0
  3 14  1  0  0  0  0
  4  2  2  0  0  0  0
  5 10  1  0  0  0  0
  6  3  2  0  0  0  0
  7  4  1  0  0  0  0
  8  9  2  0  0  0  0
  9 19  1  0  0  0  0
  9  7  1  0  0  0  0
 10  7  2  0  0  0  0
 10 11  1  0  0  0  0
 11 13  2  0  0  0  0
 12 18  1  6  0  0  0
 12  5  1  0  0  0  0
 12  3  1  0  0  0  0
 13  2  1  0  0  0  0
 14 11  1  0  0  0  0
 15 18  1  0  0  0  0
 17 18  2  0  0  0  0
 18 16  1  0  0  0  0
 19 24  1  0  0  0  0
 21 22  1  0  0  0  0
 22 20  1  6  0  0  0
 22 27  1  0  0  0  0
 22 29  1  0  0  0  0
 24 28  1  0  0  0  0
 26 25  1  6  0  0  0
 26 23  1  0  0  0  0
 27 24  2  0  0  0  0
 28 23  1  0  0  0  0
 29 26  1  0  0  0  0
M  END
>  <MODEL>
3

>  <REMARK>
 VINA RESULT:      -7.9      2.114      2.571
  Name = 
  3 active torsions:
  status: ('A' for Active; 'I' for Inactive)
    1  A    between atoms: P_7  and  C_27
    2  A    between atoms: C_12  and  C_20
    3  A    between atoms: C_20  and  C_22
                            x       y       z     vdW  Elec       q    Type
                         _______ _______ _______ _____ _____    ______ ____

>  <TORSDO>
F 3

$$$$
=
 OpenBabel11062422563D

 29 32  0  0  1  0  0  0  0  0999 V2000
  191.9830  176.7660  145.5400 N   0  0  0  0  0  0  0  0  0  0  0  0
  189.5210  174.1760  142.1030 C   0  0  0  0  0  3  0  0  0  0  0  0
  194.0410  175.8610  142.5380 C   0  0  0  0  0  0  0  0  0  0  0  0
  189.1710  174.7450  143.2870 N   0  0  0  0  0  0  0  0  0  0  0  0
  192.3690  176.1890  144.3690 C   0  0  0  0  0  0  0  0  0  0  0  0
  195.4280  176.2950  141.7920 S   0  0  0  0  0  0  0  0  0  0  0  0
  190.0840  175.4190  144.0380 C   0  0  0  0  0  0  0  0  0  0  0  0
  190.6990  176.7050  145.9870 C   0  0  0  0  0  3  0  0  0  0  0  0
  189.7230  176.0280  145.2500 C   0  0  0  0  0  0  0  0  0  0  0  0
  191.4120  175.5150  143.5890 C   0  0  0  0  0  0  0  0  0  0  0  0
  191.7430  174.9440  142.3560 C   0  0  0  0  0  0  0  0  0  0  0  0
  193.8310  176.1870  143.9950 C   0  0  1  0  0  3  0  0  0  0  0  0
  190.7950  174.2850  141.6410 N   0  0  0  0  0  0  0  0  0  0  0  0
  193.0520  175.1260  141.8130 N   0  0  0  0  0  2  0  0  0  0  0  0
  194.9290  175.5510  146.4210 O   0  0  0  0  0  1  0  0  0  0  0  0
  196.2220  174.6300  144.3430 O   0  0  0  0  0  0  0  0  0  0  0  0
  193.8170  173.5570  145.1570 O   0  0  0  0  0  1  0  0  0  0  0  0
  194.7210  174.9800  145.0380 P   0  0  0  0  0  0  0  0  0  0  0  0
  188.3280  175.9420  145.7860 C   0  0  0  0  0  2  0  0  0  0  0  0
  184.1160  178.2920  146.3190 C   0  0  0  0  0  1  0  0  0  0  0  0
  186.0100  179.6520  146.5670 F   0  0  0  0  0  0  0  0  0  0  0  0
  185.5030  178.6170  145.8060 C   0  0  1  0  0  0  0  0  0  0  0  0
  187.2620  177.9740  143.0560 C   0  0  0  0  0  2  0  0  0  0  0  0
  187.5410  177.1540  145.4040 C   0  0  0  0  0  0  0  0  0  0  0  0
  185.1420  176.8950  143.4390 F   0  0  0  0  0  0  0  0  0  0  0  0
  185.7480  178.1250  143.2460 C   0  0  1  0  0  3  0  0  0  0  0  0
  186.3750  177.3990  146.0210 C   0  0  0  0  0  3  0  0  0  0  0  0
  188.0780  178.0710  144.3490 C   0  0  0  0  0  2  0  0  0  0  0  0
  185.3740  179.1170  144.3520 C   0  0  0  0  0  2  0  0  0  0  0  0
  1  8  1  0  0  0  0
  2  4  2  0  0  0  0
  3 12  1  0  0  0  0
  4  7  1  0  0  0  0
  5  1  2  0  0  0  0
  6  3  2  0  0  0  0
  7  9  1  0  0  0  0
  9 19  1  0  0  0  0
  9  8  2  0  0  0  0
 10  7  2  0  0  0  0
 10  5  1  0  0  0  0
 11 10  1  0  0  0  0
 12  5  1  0  0  0  0
 12 18  1  1  0  0  0
 13  2  1  0  0  0  0
 13 11  2  0  0  0  0
 14 11  1  0  0  0  0
 14  3  1  0  0  0  0
 16 18  2  0  0  0  0
 18 17  1  0  0  0  0
 18 15  1  0  0  0  0
 22 27  1  0  0  0  0
 22 20  1  1  0  0  0
 22 21  1  0  0  0  0
 23 26  1  0  0  0  0
 23 28  1  0  0  0  0
 24 19  1  0  0  0  0
 24 27  2  0  0  0  0
 26 25  1  1  0  0  0
 26 29  1  0  0  0  0
 28 24  1  0  0  0  0
 29 22  1  0  0  0  0
M  END
>  <MODEL>
4

>  <REMARK>
 VINA RESULT:      -7.9      2.690      3.583
  Name = 
  3 active torsions:
  status: ('A' for Active; 'I' for Inactive)
    1  A    between atoms: P_7  and  C_27
    2  A    between atoms: C_12  and  C_20
    3  A    between atoms: C_20  and  C_22
                            x       y       z     vdW  Elec       q    Type
                         _______ _______ _______ _____ _____    ______ ____

>  <TORSDO>
F 3

$$$$
=
 OpenBabel11062422563D

 29 32  0  0  1  0  0  0  0  0999 V2000
  190.6880  174.3070  144.4050 N   0  0  0  0  0  0  0  0  0  0  0  0
  191.9270  177.1680  148.2600 C   0  0  0  0  0  3  0  0  0  0  0  0
  194.3800  174.8460  144.7890 C   0  0  0  0  0  0  0  0  0  0  0  0
  190.7500  176.6780  147.7870 N   0  0  0  0  0  0  0  0  0  0  0  0
  191.8800  174.8000  144.8420 C   0  0  0  0  0  0  0  0  0  0  0  0
  195.7990  174.1980  144.3010 S   0  0  0  0  0  0  0  0  0  0  0  0
  190.7130  175.8910  146.6780 C   0  0  0  0  0  0  0  0  0  0  0  0
  189.5190  174.5640  145.0520 C   0  0  0  0  0  3  0  0  0  0  0  0
  189.5040  175.3640  146.1990 C   0  0  0  0  0  0  0  0  0  0  0  0
  191.9100  175.5930  146.0030 C   0  0  0  0  0  0  0  0  0  0  0  0
  193.1110  176.0860  146.5220 C   0  0  0  0  0  0  0  0  0  0  0  0
  193.1180  174.5800  144.0070 C   0  0  1  0  0  3  0  0  0  0  0  0
  193.0960  176.8650  147.6340 N   0  0  0  0  0  0  0  0  0  0  0  0
  194.3550  175.7040  145.9320 N   0  0  0  0  0  2  0  0  0  0  0  0
  194.4370  176.2010  142.2380 O   0  0  0  0  0  1  0  0  0  0  0  0
  192.0010  176.9510  142.8260 O   0  0  0  0  0  1  0  0  0  0  0  0
  192.5070  174.7790  141.2050 O   0  0  0  0  0  0  0  0  0  0  0  0
  193.0570  175.6620  142.5370 P   0  0  0  0  0  0  0  0  0  0  0  0
  188.1990  175.6630  146.8670 C   0  0  0  0  0  2  0  0  0  0  0  0
  184.1350  178.2900  146.5000 C   0  0  0  0  0  1  0  0  0  0  0  0
  186.0430  179.5460  147.0310 F   0  0  0  0  0  0  0  0  0  0  0  0
  185.6110  178.4990  146.2380 C   0  0  1  0  0  0  0  0  0  0  0  0
  187.7910  177.5910  143.8960 C   0  0  0  0  0  2  0  0  0  0  0  0
  187.5810  176.8960  146.2900 C   0  0  0  0  0  0  0  0  0  0  0  0
  185.5670  176.6650  143.9290 F   0  0  0  0  0  0  0  0  0  0  0  0
  186.2820  177.8430  143.7940 C   0  0  1  0  0  3  0  0  0  0  0  0
  186.3420  177.2460  146.6690 C   0  0  0  0  0  3  0  0  0  0  0  0
  188.3630  177.7150  145.3100 C   0  0  0  0  0  2  0  0  0  0  0  0
  185.7840  178.9200  144.7630 C   0  0  0  0  0  2  0  0  0  0  0  0
  1  5  2  0  0  0  0
  1  8  1  0  0  0  0
  3 14  1  0  0  0  0
  4  2  2  0  0  0  0
  5 10  1  0  0  0  0
  6  3  2  0  0  0  0
  7  4  1  0  0  0  0
  8  9  2  0  0  0  0
  9  7  1  0  0  0  0
  9 19  1  0  0  0  0
 10 11  1  0  0  0  0
 10  7  2  0  0  0  0
 11 13  2  0  0  0  0
 12 18  1  6  0  0  0
 12  3  1  0  0  0  0
 12  5  1  0  0  0  0
 13  2  1  0  0  0  0
 14 11  1  0  0  0  0
 15 18  1  0  0  0  0
 17 18  2  0  0  0  0
 18 16  1  0  0  0  0
 22 20  1  1  0  0  0
 22 27  1  0  0  0  0
 22 21  1  0  0  0  0
 23 28  1  0  0  0  0
 24 27  2  0  0  0  0
 24 19  1  0  0  0  0
 26 23  1  0  0  0  0
 26 25  1  1  0  0  0
 26 29  1  0  0  0  0
 28 24  1  0  0  0  0
 29 22  1  0  0  0  0
M  END
>  <MODEL>
5

>  <REMARK>
 VINA RESULT:      -7.8      2.375      3.371
  Name = 
  3 active torsions:
  status: ('A' for Active; 'I' for Inactive)
    1  A    between atoms: P_7  and  C_27
    2  A    between atoms: C_12  and  C_20
    3  A    between atoms: C_20  and  C_22
                            x       y       z     vdW  Elec       q    Type
                         _______ _______ _______ _____ _____    ______ ____

>  <TORSDO>
F 3

$$$$
=
 OpenBabel11062422563D

 29 32  0  0  1  0  0  0  0  0999 V2000
  191.0240  173.4630  144.3810 N   0  0  0  0  0  0  0  0  0  0  0  0
  193.8280  176.6940  146.8870 C   0  0  0  0  0  3  0  0  0  0  0  0
  194.6100  173.5520  143.2860 C   0  0  0  0  0  0  0  0  0  0  0  0
  192.5300  176.3000  146.9790 N   0  0  0  0  0  0  0  0  0  0  0  0
  192.3220  173.8530  144.2510 C   0  0  0  0  0  0  0  0  0  0  0  0
  195.6890  172.6510  142.4510 S   0  0  0  0  0  0  0  0  0  0  0  0
  192.0200  175.3630  146.1350 C   0  0  0  0  0  0  0  0  0  0  0  0
  190.2110  173.9730  145.3450 C   0  0  0  0  0  3  0  0  0  0  0  0
  190.6880  174.9360  146.2400 C   0  0  0  0  0  0  0  0  0  0  0  0
  192.8460  174.8050  145.1430 C   0  0  0  0  0  0  0  0  0  0  0  0
  194.1840  175.2060  145.0840 C   0  0  0  0  0  0  0  0  0  0  0  0
  193.1300  173.3410  143.0830 C   0  0  1  0  0  3  0  0  0  0  0  0
  194.6470  176.1430  145.9520 N   0  0  0  0  0  0  0  0  0  0  0  0
  195.0800  174.5730  144.1690 N   0  0  0  0  0  2  0  0  0  0  0  0
  191.2840  174.9060  141.8030 O   0  0  0  0  0  1  0  0  0  0  0  0
  192.3660  173.0360  140.3290 O   0  0  0  0  0  0  0  0  0  0  0  0
  193.7580  175.2970  141.0710 O   0  0  0  0  0  1  0  0  0  0  0  0
  192.5860  174.1800  141.5550 P   0  0  0  0  0  0  0  0  0  0  0  0
  189.7590  175.5090  147.2650 C   0  0  0  0  0  2  0  0  0  0  0  0
  185.1820  176.8020  146.3020 C   0  0  0  0  0  1  0  0  0  0  0  0
  186.4810  178.5090  147.2500 F   0  0  0  0  0  0  0  0  0  0  0  0
  186.5370  177.4780  146.3310 C   0  0  1  0  0  0  0  0  0  0  0  0
  189.2340  177.5460  144.3860 C   0  0  0  0  0  2  0  0  0  0  0  0
  188.8810  176.5530  146.6560 C   0  0  0  0  0  0  0  0  0  0  0  0
  187.4450  175.9910  143.9520 F   0  0  0  0  0  0  0  0  0  0  0  0
  187.7590  177.3380  144.0210 C   0  0  1  0  0  3  0  0  0  0  0  0
  187.5510  176.4660  146.8170 C   0  0  0  0  0  3  0  0  0  0  0  0
  189.5050  177.6770  145.8870 C   0  0  0  0  0  2  0  0  0  0  0  0
  186.7980  178.0960  144.9420 C   0  0  0  0  0  2  0  0  0  0  0  0
  1  8  1  0  0  0  0
  2  4  2  0  0  0  0
  3 14  1  0  0  0  0
  5  1  2  0  0  0  0
  5 10  1  0  0  0  0
  6  3  2  0  0  0  0
  7  9  1  0  0  0  0
  7  4  1  0  0  0  0
  8  9  2  0  0  0  0
  9 19  1  0  0  0  0
 10  7  2  0  0  0  0
 11 10  1  0  0  0  0
 11 13  2  0  0  0  0
 12 18  1  6  0  0  0
 12  3  1  0  0  0  0
 12  5  1  0  0  0  0
 13  2  1  0  0  0  0
 14 11  1  0  0  0  0
 16 18  2  0  0  0  0
 17 18  1  0  0  0  0
 18 15  1  0  0  0  0
 22 20  1  6  0  0  0
 22 27  1  0  0  0  0
 22 21  1  0  0  0  0
 23 28  1  0  0  0  0
 24 27  2  0  0  0  0
 24 19  1  0  0  0  0
 26 25  1  1  0  0  0
 26 23  1  0  0  0  0
 26 29  1  0  0  0  0
 28 24  1  0  0  0  0
 29 22  1  0  0  0  0
M  END
>  <MODEL>
6

>  <REMARK>
 VINA RESULT:      -7.7      2.282      3.351
  Name = 
  3 active torsions:
  status: ('A' for Active; 'I' for Inactive)
    1  A    between atoms: P_7  and  C_27
    2  A    between atoms: C_12  and  C_20
    3  A    between atoms: C_20  and  C_22
                            x       y       z     vdW  Elec       q    Type
                         _______ _______ _______ _____ _____    ______ ____

>  <TORSDO>
F 3

$$$$
=
 OpenBabel11062422563D

 29 32  0  0  1  0  0  0  0  0999 V2000
  187.8220  174.5060  141.9600 N   0  0  0  0  0  0  0  0  0  0  0  0
  191.5970  177.5370  143.0310 C   0  0  0  0  0  3  0  0  0  0  0  0
  191.1970  172.8840  141.7480 C   0  0  0  0  0  0  0  0  0  0  0  0
  190.2440  177.6760  143.0340 N   0  0  0  0  0  0  0  0  0  0  0  0
  189.1730  174.3430  141.9280 C   0  0  0  0  0  0  0  0  0  0  0  0
  191.8740  171.3970  141.7260 S   0  0  0  0  0  0  0  0  0  0  0  0
  189.4320  176.6400  142.6880 C   0  0  0  0  0  0  0  0  0  0  0  0
  187.2450  175.6780  142.3430 C   0  0  0  0  0  3  0  0  0  0  0  0
  188.0360  176.7710  142.7110 C   0  0  0  0  0  0  0  0  0  0  0  0
  190.0030  175.4130  142.3090 C   0  0  0  0  0  0  0  0  0  0  0  0
  191.3950  175.2850  142.3390 C   0  0  0  0  0  0  0  0  0  0  0  0
  189.7470  173.0610  141.3740 C   0  0  1  0  0  3  0  0  0  0  0  0
  192.1630  176.3480  142.6940 N   0  0  0  0  0  0  0  0  0  0  0  0
  192.0020  174.0190  142.0760 N   0  0  0  0  0  2  0  0  0  0  0  0
  188.3690  173.8800  139.1540 O   0  0  0  0  0  1  0  0  0  0  0  0
  189.3600  171.4640  139.0160 O   0  0  0  0  0  1  0  0  0  0  0  0
  190.9550  173.7070  138.8460 O   0  0  0  0  0  0  0  0  0  0  0  0
  189.5680  173.0530  139.5570 P   0  0  0  0  0  0  0  0  0  0  0  0
  187.3750  178.0600  143.0890 C   0  0  0  0  0  2  0  0  0  0  0  0
  187.9940  175.7940  147.3350 C   0  0  0  0  0  1  0  0  0  0  0  0
  188.3660  178.1070  147.4210 F   0  0  0  0  0  0  0  0  0  0  0  0
  187.5280  177.1570  146.8700 C   0  0  1  0  0  0  0  0  0  0  0  0
  184.7720  178.4190  145.5000 C   0  0  0  0  0  2  0  0  0  0  0  0
  187.0630  178.0830  144.5510 C   0  0  0  0  0  0  0  0  0  0  0  0
  185.0440  176.0370  145.7420 F   0  0  0  0  0  0  0  0  0  0  0  0
  184.9450  177.2240  146.4460 C   0  0  1  0  0  3  0  0  0  0  0  0
  187.6750  177.2100  145.3650 C   0  0  0  0  0  3  0  0  0  0  0  0
  186.0810  179.0870  145.0730 C   0  0  0  0  0  2  0  0  0  0  0  0
  186.1090  177.3970  147.4280 C   0  0  0  0  0  2  0  0  0  0  0  0
  1  8  1  0  0  0  0
  2  4  2  0  0  0  0
  3 14  1  0  0  0  0
  5  1  2  0  0  0  0
  5 10  1  0  0  0  0
  6  3  2  0  0  0  0
  7  9  1  0  0  0  0
  7  4  1  0  0  0  0
  8  9  2  0  0  0  0
  9 19  1  0  0  0  0
 10 11  1  0  0  0  0
 10  7  2  0  0  0  0
 11 13  2  0  0  0  0
 12 18  1  6  0  0  0
 12  3  1  0  0  0  0
 12  5  1  0  0  0  0
 13  2  1  0  0  0  0
 14 11  1  0  0  0  0
 15 18  1  0  0  0  0
 16 18  1  0  0  0  0
 17 18  2  0  0  0  0
 19 24  1  0  0  0  0
 22 20  1  1  0  0  0
 22 21  1  0  0  0  0
 22 29  1  0  0  0  0
 23 26  1  0  0  0  0
 24 28  1  0  0  0  0
 24 27  2  0  0  0  0
 26 25  1  6  0  0  0
 26 29  1  0  0  0  0
 27 22  1  0  0  0  0
 28 23  1  0  0  0  0
M  END
>  <MODEL>
7

>  <REMARK>
 VINA RESULT:      -7.6      2.667      3.526
  Name = 
  3 active torsions:
  status: ('A' for Active; 'I' for Inactive)
    1  A    between atoms: P_7  and  C_27
    2  A    between atoms: C_12  and  C_20
    3  A    between atoms: C_20  and  C_22
                            x       y       z     vdW  Elec       q    Type
                         _______ _______ _______ _____ _____    ______ ____

>  <TORSDO>
F 3

$$$$
=
 OpenBabel11062422563D

 29 32  0  0  1  0  0  0  0  0999 V2000
  192.6620  176.4310  142.6960 N   0  0  0  0  0  0  0  0  0  0  0  0
  191.2870  175.6750  147.4000 C   0  0  0  0  0  3  0  0  0  0  0  0
  194.5910  173.7290  144.4410 C   0  0  0  0  0  0  0  0  0  0  0  0
  190.8410  176.4870  146.4050 N   0  0  0  0  0  0  0  0  0  0  0  0
  193.1440  175.6210  143.6790 C   0  0  0  0  0  0  0  0  0  0  0  0
  195.5530  172.4530  144.0970 S   0  0  0  0  0  0  0  0  0  0  0  0
  191.4260  176.4760  145.1760 C   0  0  0  0  0  0  0  0  0  0  0  0
  191.5940  177.2510  142.8950 C   0  0  0  0  0  3  0  0  0  0  0  0
  190.9560  177.2960  144.1390 C   0  0  0  0  0  0  0  0  0  0  0  0
  192.5170  175.6230  144.9380 C   0  0  0  0  0  0  0  0  0  0  0  0
  192.9420  174.7780  145.9690 C   0  0  0  0  0  0  0  0  0  0  0  0
  194.4060  174.8320  143.4300 C   0  0  1  0  0  3  0  0  0  0  0  0
  192.3240  174.8240  147.1770 N   0  0  0  0  0  0  0  0  0  0  0  0
  193.9680  173.8140  145.7250 N   0  0  0  0  0  2  0  0  0  0  0  0
  197.0970  175.1820  143.7970 O   0  0  0  0  0  1  0  0  0  0  0  0
  195.5970  177.1510  144.6420 O   0  0  0  0  0  1  0  0  0  0  0  0
  196.0280  176.6940  141.9570 O   0  0  0  0  0  0  0  0  0  0  0  0
  195.8430  175.9580  143.4680 P   0  0  0  0  0  0  0  0  0  0  0  0
  189.8090  178.2370  144.3410 C   0  0  0  0  0  2  0  0  0  0  0  0
  186.6380  177.5590  140.7310 C   0  0  0  0  0  1  0  0  0  0  0  0
  187.2160  175.5980  141.8800 F   0  0  0  0  0  0  0  0  0  0  0  0
  186.9240  176.9340  142.0800 C   0  0  1  0  0  0  0  0  0  0  0  0
  186.4020  177.7380  145.2650 C   0  0  0  0  0  2  0  0  0  0  0  0
  188.5210  177.5920  143.9430 C   0  0  0  0  0  0  0  0  0  0  0  0
  185.9800  179.3340  143.5090 F   0  0  0  0  0  0  0  0  0  0  0  0
  185.5970  178.1020  144.0110 C   0  0  1  0  0  3  0  0  0  0  0  0
  188.1530  177.6060  142.6530 C   0  0  0  0  0  3  0  0  0  0  0  0
  187.6770  176.9360  144.9920 C   0  0  0  0  0  2  0  0  0  0  0  0
  185.6400  177.0150  142.9320 C   0  0  0  0  0  2  0  0  0  0  0  0
  1  8  2  0  0  0  0
  1  5  1  0  0  0  0
  3 14  1  0  0  0  0
  4  2  2  0  0  0  0
  5 10  2  0  0  0  0
  6  3  2  0  0  0  0
  7  4  1  0  0  0  0
  8  9  1  0  0  0  0
  9 19  1  0  0  0  0
  9  7  2  0  0  0  0
 10  7  1  0  0  0  0
 10 11  1  0  0  0  0
 11 13  2  0  0  0  0
 12 18  1  1  0  0  0
 12  5  1  0  0  0  0
 12  3  1  0  0  0  0
 13  2  1  0  0  0  0
 14 11  1  0  0  0  0
 17 18  2  0  0  0  0
 18 15  1  0  0  0  0
 18 16  1  0  0  0  0
 21 22  1  0  0  0  0
 22 20  1  6  0  0  0
 22 27  1  0  0  0  0
 22 29  1  0  0  0  0
 24 19  1  0  0  0  0
 24 28  1  0  0  0  0
 26 25  1  6  0  0  0
 26 23  1  0  0  0  0
 27 24  2  0  0  0  0
 28 23  1  0  0  0  0
 29 26  1  0  0  0  0
M  END
>  <MODEL>
8

>  <REMARK>
 VINA RESULT:      -7.6      3.062      3.750
  Name = 
  3 active torsions:
  status: ('A' for Active; 'I' for Inactive)
    1  A    between atoms: P_7  and  C_27
    2  A    between atoms: C_12  and  C_20
    3  A    between atoms: C_20  and  C_22
                            x       y       z     vdW  Elec       q    Type
                         _______ _______ _______ _____ _____    ______ ____

>  <TORSDO>
F 3

$$$$
=
 OpenBabel11062422563D

 29 32  0  0  1  0  0  0  0  0999 V2000
  193.1550  175.3340  146.4730 N   0  0  0  0  0  0  0  0  0  0  0  0
  189.9730  174.1820  142.8490 C   0  0  0  0  0  3  0  0  0  0  0  0
  194.7230  175.1040  143.0740 C   0  0  0  0  0  0  0  0  0  0  0  0
  189.8420  174.4170  144.1820 N   0  0  0  0  0  0  0  0  0  0  0  0
  193.3220  175.0820  145.1460 C   0  0  0  0  0  0  0  0  0  0  0  0
  196.0760  175.5660  142.2840 S   0  0  0  0  0  0  0  0  0  0  0  0
  190.9220  174.7260  144.9490 C   0  0  0  0  0  0  0  0  0  0  0  0
  191.9310  175.3010  147.0660 C   0  0  0  0  0  3  0  0  0  0  0  0
  190.7890  174.9920  146.3210 C   0  0  0  0  0  0  0  0  0  0  0  0
  192.1950  174.7870  144.3570 C   0  0  0  0  0  0  0  0  0  0  0  0
  192.3030  174.5670  142.9800 C   0  0  0  0  0  0  0  0  0  0  0  0
  194.7190  175.0120  144.5790 C   0  0  1  0  0  3  0  0  0  0  0  0
  191.1940  174.2650  142.2560 N   0  0  0  0  0  0  0  0  0  0  0  0
  193.5610  174.7400  142.3250 N   0  0  0  0  0  2  0  0  0  0  0  0
  196.5590  173.7420  146.1580 O   0  0  0  0  0  1  0  0  0  0  0  0
  196.2370  172.7060  143.7780 O   0  0  0  0  0  0  0  0  0  0  0  0
  194.3440  172.4190  145.7630 O   0  0  0  0  0  1  0  0  0  0  0  0
  195.5100  173.4540  145.1100 P   0  0  0  0  0  0  0  0  0  0  0  0
  189.4610  174.9240  147.0070 C   0  0  0  0  0  2  0  0  0  0  0  0
  185.0090  176.7900  146.5120 C   0  0  0  0  0  1  0  0  0  0  0  0
  186.4100  178.0180  147.9370 F   0  0  0  0  0  0  0  0  0  0  0  0
  186.4080  177.3210  146.7440 C   0  0  1  0  0  0  0  0  0  0  0  0
  189.1400  177.7850  144.9040 C   0  0  0  0  0  2  0  0  0  0  0  0
  188.6720  176.1680  146.7560 C   0  0  0  0  0  0  0  0  0  0  0  0
  187.2520  176.5800  144.0170 F   0  0  0  0  0  0  0  0  0  0  0  0
  187.6610  177.8110  144.4990 C   0  0  1  0  0  3  0  0  0  0  0  0
  187.3370  176.1350  146.8870 C   0  0  0  0  0  3  0  0  0  0  0  0
  189.3910  177.4240  146.3710 C   0  0  0  0  0  2  0  0  0  0  0  0
  186.7400  178.3170  145.6130 C   0  0  0  0  0  2  0  0  0  0  0  0
  1  8  1  0  0  0  0
  2  4  2  0  0  0  0
  3 12  1  0  0  0  0
  4  7  1  0  0  0  0
  5  1  2  0  0  0  0
  6  3  2  0  0  0  0
  7  9  1  0  0  0  0
  9 19  1  0  0  0  0
  9  8  2  0  0  0  0
 10  7  2  0  0  0  0
 10  5  1  0  0  0  0
 11 10  1  0  0  0  0
 12 18  1  6  0  0  0
 12  5  1  0  0  0  0
 13  2  1  0  0  0  0
 13 11  2  0  0  0  0
 14 11  1  0  0  0  0
 14  3  1  0  0  0  0
 16 18  2  0  0  0  0
 18 17  1  0  0  0  0
 18 15  1  0  0  0  0
 22 20  1  6  0  0  0
 22 27  1  0  0  0  0
 22 21  1  0  0  0  0
 23 28  1  0  0  0  0
 24 27  2  0  0  0  0
 24 19  1  0  0  0  0
 26 25  1  1  0  0  0
 26 23  1  0  0  0  0
 26 29  1  0  0  0  0
 28 24  1  0  0  0  0
 29 22  1  0  0  0  0
M  END
>  <MODEL>
9

>  <REMARK>
 VINA RESULT:      -7.6      2.717      3.857
  Name = 
  3 active torsions:
  status: ('A' for Active; 'I' for Inactive)
    1  A    between atoms: P_7  and  C_27
    2  A    between atoms: C_12  and  C_20
    3  A    between atoms: C_20  and  C_22
                            x       y       z     vdW  Elec       q    Type
                         _______ _______ _______ _____ _____    ______ ____

>  <TORSDO>
F 3

$$$$
