=
 OpenBabel11062418243D

 64 69  0  0  1  0  0  0  0  0999 V2000
  197.8640  173.1740  142.4320 O   0  0  0  0  0  0  0  0  0  0  0  0
  196.1600  174.6670  143.2410 C   0  0  1  0  0  3  0  0  0  0  0  0
  196.4360  174.4070  140.9100 C   0  0  1  0  0  3  0  0  0  0  0  0
  196.8350  173.2940  143.3750 C   0  0  2  0  0  3  0  0  0  0  0  0
  196.4420  175.3150  142.0040 O   0  0  0  0  0  0  0  0  0  0  0  0
  197.2240  173.1100  141.1820 C   0  0  0  0  0  2  0  0  0  0  0  0
  195.0470  174.1550  140.3850 C   0  0  0  0  0  0  0  0  0  0  0  0
  194.2700  175.1300  140.2120 O   0  0  0  0  0  0  0  0  0  0  0  0
  194.5940  172.8830  140.0280 O   0  0  0  0  0  0  0  0  0  0  0  0
  196.3150  171.8380  138.0360 O   0  0  0  0  0  1  0  0  0  0  0  0
  194.7130  172.1890  138.4510 P   0  0  2  0  0  0  0  0  0  0  0  0
  194.1550  173.1700  137.4480 O   0  0  0  0  0  0  0  0  0  0  0  0
  194.0860  169.7580  137.6180 O   0  0  0  0  0  0  0  0  0  0  0  0
  193.7350  170.6800  138.3980 C   0  0  0  0  0  0  0  0  0  0  0  0
  192.6510  170.1710  140.4380 O   0  0  0  0  0  0  0  0  0  0  0  0
  192.5300  170.5090  139.2290 C   0  0  0  0  0  0  0  0  0  0  0  0
  190.2200  169.9110  139.2930 O   0  0  0  0  0  1  0  0  0  0  0  0
  191.1600  170.7170  138.6510 C   0  0  1  0  0  3  0  0  0  0  0  0
  190.7340  172.1840  138.6560 C   0  0  0  0  0  2  0  0  0  0  0  0
  189.6040  172.4540  139.6380 C   0  0  1  0  0  3  0  0  0  0  0  0
  190.1240  172.5610  140.9300 O   0  0  0  0  0  1  0  0  0  0  0  0
  188.5930  174.5290  140.1060 O   0  0  0  0  0  0  0  0  0  0  0  0
  188.8610  173.7010  139.2480 C   0  0  0  0  0  0  0  0  0  0  0  0
  188.4790  173.9720  137.8240 C   0  0  0  0  0  2  0  0  0  0  0  0
  187.5290  174.9880  137.7640 O   0  0  0  0  0  1  0  0  0  0  0  0
  197.3890  173.1010  144.7810 C   0  0  0  0  0  2  0  0  0  0  0  0
  197.6950  171.6930  145.0150 N   0  0  0  0  0  2  0  0  0  0  0  0
  194.9920  169.0510  146.9370 C   0  0  0  0  0  3  0  0  0  0  0  0
  196.3690  168.8230  147.0340 C   0  0  0  0  0  3  0  0  0  0  0  0
  195.4100  171.0090  145.5700 C   0  0  0  0  0  3  0  0  0  0  0  0
  197.2670  169.6920  146.4010 C   0  0  0  0  0  3  0  0  0  0  0  0
  194.5130  170.1410  146.2050 C   0  0  0  0  0  3  0  0  0  0  0  0
  196.7910  170.7910  145.6700 C   0  0  0  0  0  0  0  0  0  0  0  0
  194.7790  174.5560  143.4400 O   0  0  0  0  0  0  0  0  0  0  0  0
  195.0410  176.4570  144.9130 C   0  0  0  0  0  2  0  0  0  0  0  0
  192.9960  174.2610  145.7330 O   0  0  0  0  0  0  0  0  0  0  0  0
  194.3310  175.8610  143.6930 C   0  0  2  0  0  3  0  0  0  0  0  0
  194.9080  175.6090  146.1820 C   0  0  0  0  0  2  0  0  0  0  0  0
  192.2100  174.7550  144.6580 C   0  0  2  0  0  3  0  0  0  0  0  0
  192.8080  175.9300  143.8610 C   0  0  0  0  0  2  0  0  0  0  0  0
  193.4520  175.3300  146.5310 C   0  0  0  0  0  2  0  0  0  0  0  0
  189.5830  177.0830  145.7340 O   0  0  0  0  0  0  0  0  0  0  0  0
  188.5370  178.9100  141.0580 O   0  0  0  0  0  0  0  0  0  0  0  0
  186.6960  176.0500  142.6370 C   0  0  0  0  0  2  0  0  0  0  0  0
  188.9990  175.8210  147.6230 O   0  0  0  0  0  0  0  0  0  0  0  0
  189.4290  176.3760  143.4120 C   0  0  0  0  0  2  0  0  0  0  0  0
  186.0650  177.6820  140.9860 C   0  0  0  0  0  0  0  0  0  0  0  0
  190.5440  174.7130  146.3690 O   0  0  0  0  0  0  0  0  0  0  0  0
  187.1400  176.4050  146.1430 C   0  0  2  0  0  3  0  0  0  0  0  0
  189.3130  177.6530  142.7910 O   0  0  0  0  0  0  0  0  0  0  0  0
  188.6530  176.1830  146.3110 C   0  0  1  0  0  0  0  0  0  0  0  0
  185.8850  176.4120  143.8790 C   0  0  0  0  0  2  0  0  0  0  0  0
  185.1720  178.1010  140.2340 O   0  0  0  0  0  0  0  0  0  0  0  0
  190.2810  176.4440  144.6700 C   0  0  2  0  0  3  0  0  0  0  0  0
  189.1680  174.8240  146.6410 C   0  0  2  0  0  3  0  0  0  0  0  0
  186.7160  177.1280  144.8940 C   0  0  0  0  0  0  0  0  0  0  0  0
  187.0060  177.2410  141.7850 C   0  0  0  0  0  0  0  0  0  0  0  0
  187.0050  178.3000  144.7220 O   0  0  0  0  0  0  0  0  0  0  0  0
  188.3160  177.9570  141.8570 C   0  0  0  0  0  0  0  0  0  0  0  0
  190.7430  175.0080  145.0100 C   0  0  1  0  0  3  0  0  0  0  0  0
  186.4730  176.8280  147.3170 O   0  0  0  0  0  0  0  0  0  0  0  0
  184.8460  178.4240  147.4440 O   0  0  0  0  0  1  0  0  0  0  0  0
  186.9980  178.9430  148.2910 C   0  0  0  0  0  1  0  0  0  0  0  0
  186.2050  178.2030  147.2330 C   0  0  1  0  0  3  0  0  0  0  0  0
  1  4  1  0  0  0  0
  2  4  1  0  0  0  0
  2 34  1  6  0  0  0
  3  7  1  1  0  0  0
  3  6  1  0  0  0  0
  3  5  1  0  0  0  0
  4 26  1  1  0  0  0
  5  2  1  0  0  0  0
  6  1  1  0  0  0  0
  8  7  2  0  0  0  0
  9  7  1  0  0  0  0
 10 11  1  0  0  0  0
 11 12  2  6  0  0  0
 11  9  1  0  0  0  0
 13 14  2  0  0  0  0
 14 11  1  0  0  0  0
 14 16  1  0  0  0  0
 16 15  2  0  0  0  0
 18 19  1  0  0  0  0
 18 16  1  0  0  0  0
 18 17  1  1  0  0  0
 19 20  1  0  0  0  0
 20 21  1  1  0  0  0
 23 20  1  0  0  0  0
 23 22  2  0  0  0  0
 24 23  1  0  0  0  0
 25 24  1  0  0  0  0
 26 27  1  0  0  0  0
 27 33  1  0  0  0  0
 28 29  1  0  0  0  0
 30 33  2  0  0  0  0
 30 32  1  0  0  0  0
 31 29  2  0  0  0  0
 32 28  2  0  0  0  0
 33 31  1  0  0  0  0
 35 38  1  0  0  0  0
 36 41  1  0  0  0  0
 37 34  1  1  0  0  0
 37 40  1  0  0  0  0
 37 35  1  0  0  0  0
 38 41  1  0  0  0  0
 39 40  1  1  0  0  0
 39 60  1  0  0  0  0
 39 36  1  0  0  0  0
 43 59  2  0  0  0  0
 44 52  1  0  0  0  0
 47 57  2  0  0  0  0
 49 51  1  0  0  0  0
 49 61  1  1  0  0  0
 50 46  1  0  0  0  0
 51 42  1  6  0  0  0
 51 55  1  0  0  0  0
 51 45  1  0  0  0  0
 52 56  1  0  0  0  0
 53 47  2  0  0  0  0
 54 46  1  6  0  0  0
 54 60  1  0  0  0  0
 54 42  1  0  0  0  0
 55 48  1  6  0  0  0
 55 45  1  0  0  0  0
 56 49  1  0  0  0  0
 57 59  1  0  0  0  0
 57 44  1  0  0  0  0
 58 56  2  0  0  0  0
 59 50  1  0  0  0  0
 60 48  1  1  0  0  0
 64 61  1  0  0  0  0
 64 62  1  0  0  0  0
 64 63  1  1  0  0  0
M  END
>  <MODEL>
1

>  <REMARK>
 VINA RESULT:      -7.5      0.000      0.000
  Name = 
  18 active torsions:
  status: ('A' for Active; 'I' for Inactive)
    1  A    between atoms: C_1  and  O_25
    2  A    between atoms: C_1  and  C_35
    3  A    between atoms: N_2  and  C_54
    4  A    between atoms: N_2  and  C_58
    5  A    between atoms: O_6  and  C_17
    6  A    between atoms: O_6  and  C_64
    7  A    between atoms: O_12  and  C_27
    8  A    between atoms: O_12  and  C_32
    9  A    between atoms: P_20  and  C_24
   10  A    between atoms: P_20  and  O_25
   11  A    between atoms: C_24  and  C_53
   12  A    between atoms: C_36  and  C_38
   13  A    between atoms: C_36  and  C_49
   14  A    between atoms: C_37  and  C_63
   15  A    between atoms: C_38  and  C_46
   16  A    between atoms: C_40  and  C_58
   17  A    between atoms: C_42  and  C_46
   18  A    between atoms: C_49  and  C_53
                            x       y       z     vdW  Elec       q    Type
                         _______ _______ _______ _____ _____    ______ ____

>  <TORSDO>
F 18

$$$$
=
 OpenBabel11062418243D

 64 69  0  0  1  0  0  0  0  0999 V2000
  190.3200  176.2590  147.4970 O   0  0  0  0  0  0  0  0  0  0  0  0
  190.3110  176.0890  145.0970 C   0  0  1  0  0  3  0  0  0  0  0  0
  192.3780  176.0300  146.2380 C   0  0  1  0  0  3  0  0  0  0  0  0
  189.6800  175.6310  146.4210 C   0  0  2  0  0  3  0  0  0  0  0  0
  191.5870  176.6980  145.2630 O   0  0  0  0  0  0  0  0  0  0  0  0
  191.6130  175.7100  147.5380 C   0  0  0  0  0  2  0  0  0  0  0  0
  193.0970  174.8360  145.6670 C   0  0  0  0  0  0  0  0  0  0  0  0
  192.4500  173.7780  145.4440 O   0  0  0  0  0  0  0  0  0  0  0  0
  194.4500  174.8630  145.3190 O   0  0  0  0  0  0  0  0  0  0  0  0
  196.4660  176.2150  143.8590 O   0  0  0  0  0  1  0  0  0  0  0  0
  195.0700  175.2630  143.7580 P   0  0  2  0  0  0  0  0  0  0  0  0
  194.0140  176.0310  143.0000 O   0  0  0  0  0  0  0  0  0  0  0  0
  196.1610  173.8090  141.8370 O   0  0  0  0  0  0  0  0  0  0  0  0
  195.4410  173.7450  142.8670 C   0  0  0  0  0  0  0  0  0  0  0  0
  193.8010  172.0400  142.8530 O   0  0  0  0  0  0  0  0  0  0  0  0
  194.9090  172.4420  143.3030 C   0  0  0  0  0  0  0  0  0  0  0  0
  196.9030  172.1560  144.5840 O   0  0  0  0  0  1  0  0  0  0  0  0
  195.6610  171.5940  144.2880 C   0  0  1  0  0  3  0  0  0  0  0  0
  194.8580  171.3100  145.5560 C   0  0  0  0  0  2  0  0  0  0  0  0
  194.5990  169.8250  145.7550 C   0  0  1  0  0  3  0  0  0  0  0  0
  193.9040  169.3210  144.6540 O   0  0  0  0  0  1  0  0  0  0  0  0
  196.2580  168.2770  145.1240 O   0  0  0  0  0  0  0  0  0  0  0  0
  195.8960  169.0920  145.9590 C   0  0  0  0  0  0  0  0  0  0  0  0
  196.7760  169.3710  147.1410 C   0  0  0  0  0  2  0  0  0  0  0  0
  196.6980  168.3260  148.0570 O   0  0  0  0  0  1  0  0  0  0  0  0
  188.1890  175.9440  146.4440 C   0  0  0  0  0  2  0  0  0  0  0  0
  187.9170  177.1670  145.6970 N   0  0  0  0  0  2  0  0  0  0  0  0
  184.0590  178.9130  145.4910 C   0  0  0  0  0  3  0  0  0  0  0  0
  185.0490  179.3140  144.5870 C   0  0  0  0  0  3  0  0  0  0  0  0
  185.6230  177.3750  146.5240 C   0  0  0  0  0  3  0  0  0  0  0  0
  186.3250  178.7410  144.6500 C   0  0  0  0  0  3  0  0  0  0  0  0
  184.3450  177.9460  146.4590 C   0  0  0  0  0  3  0  0  0  0  0  0
  186.6160  177.7660  145.6160 C   0  0  0  0  0  0  0  0  0  0  0  0
  190.3840  175.0220  144.1940 O   0  0  0  0  0  0  0  0  0  0  0  0
  189.0950  176.1260  142.4690 C   0  0  0  0  0  2  0  0  0  0  0  0
  189.2360  173.0190  142.4070 O   0  0  0  0  0  0  0  0  0  0  0  0
  190.4660  175.6120  142.9240 C   0  0  2  0  0  3  0  0  0  0  0  0
  188.0000  175.0550  142.4730 C   0  0  0  0  0  2  0  0  0  0  0  0
  190.5870  173.2040  142.0090 C   0  0  2  0  0  3  0  0  0  0  0  0
  191.0650  174.6630  141.8790 C   0  0  0  0  0  2  0  0  0  0  0  0
  188.3870  173.8410  141.6380 C   0  0  0  0  0  2  0  0  0  0  0  0
  190.2770  172.4570  138.4280 O   0  0  0  0  0  0  0  0  0  0  0  0
  193.6170  176.0150  136.8480 O   0  0  0  0  0  0  0  0  0  0  0  0
  194.5450  172.4490  137.5450 C   0  0  0  0  0  2  0  0  0  0  0  0
  189.6740  170.2170  138.7710 O   0  0  0  0  0  0  0  0  0  0  0  0
  192.3730  173.5110  139.0710 C   0  0  0  0  0  2  0  0  0  0  0  0
  195.4770  174.1220  136.0880 C   0  0  0  0  0  0  0  0  0  0  0  0
  190.2180  171.2090  140.7480 O   0  0  0  0  0  0  0  0  0  0  0  0
  191.5480  170.5690  137.2370 C   0  0  2  0  0  3  0  0  0  0  0  0
  192.3980  174.5710  138.1200 O   0  0  0  0  0  0  0  0  0  0  0  0
  190.6990  171.1040  138.4020 C   0  0  1  0  0  0  0  0  0  0  0  0
  193.9100  171.4230  136.6100 C   0  0  0  0  0  2  0  0  0  0  0  0
  196.3530  174.3950  135.2540 O   0  0  0  0  0  0  0  0  0  0  0  0
  190.9490  173.1550  139.4710 C   0  0  2  0  0  3  0  0  0  0  0  0
  190.7090  170.3930  139.7130 C   0  0  2  0  0  3  0  0  0  0  0  0
  192.4260  171.5760  136.5460 C   0  0  0  0  0  0  0  0  0  0  0  0
  194.5490  173.8300  136.9660 C   0  0  0  0  0  0  0  0  0  0  0  0
  191.9380  172.4890  135.8990 O   0  0  0  0  0  0  0  0  0  0  0  0
  193.5120  174.8470  137.3170 C   0  0  0  0  0  0  0  0  0  0  0  0
  191.0120  172.3670  140.8000 C   0  0  1  0  0  3  0  0  0  0  0  0
  190.8620  169.6940  136.3620 O   0  0  0  0  0  0  0  0  0  0  0  0
  192.4340  168.5630  135.1520 O   0  0  0  0  0  1  0  0  0  0  0  0
  192.3980  168.2660  137.5040 C   0  0  0  0  0  1  0  0  0  0  0  0
  191.5780  168.4920  136.2490 C   0  0  1  0  0  3  0  0  0  0  0  0
  1  6  1  0  0  0  0
  2 34  1  6  0  0  0
  2  5  1  0  0  0  0
  2  4  1  0  0  0  0
  3  7  1  6  0  0  0
  3  6  1  0  0  0  0
  4 26  1  6  0  0  0
  4  1  1  0  0  0  0
  5  3  1  0  0  0  0
  8  7  2  0  0  0  0
  9  7  1  0  0  0  0
 11 12  2  6  0  0  0
 11 10  1  0  0  0  0
 11  9  1  0  0  0  0
 13 14  2  0  0  0  0
 14 16  1  0  0  0  0
 14 11  1  0  0  0  0
 15 16  2  0  0  0  0
 16 18  1  0  0  0  0
 18 17  1  1  0  0  0
 18 19  1  0  0  0  0
 19 20  1  0  0  0  0
 20 21  1  6  0  0  0
 20 23  1  0  0  0  0
 22 23  2  0  0  0  0
 23 24  1  0  0  0  0
 24 25  1  0  0  0  0
 27 26  1  0  0  0  0
 28 32  1  0  0  0  0
 29 31  1  0  0  0  0
 29 28  2  0  0  0  0
 31 33  2  0  0  0  0
 32 30  2  0  0  0  0
 33 27  1  0  0  0  0
 33 30  1  0  0  0  0
 35 38  1  0  0  0  0
 35 37  1  0  0  0  0
 37 34  1  1  0  0  0
 39 40  1  6  0  0  0
 39 36  1  0  0  0  0
 40 37  1  0  0  0  0
 41 36  1  0  0  0  0
 41 38  1  0  0  0  0
 42 54  1  0  0  0  0
 43 59  2  0  0  0  0
 47 57  2  0  0  0  0
 49 61  1  6  0  0  0
 49 51  1  0  0  0  0
 50 46  1  0  0  0  0
 51 42  1  1  0  0  0
 51 45  1  0  0  0  0
 51 55  1  0  0  0  0
 52 44  1  0  0  0  0
 53 47  2  0  0  0  0
 54 46  1  6  0  0  0
 54 60  1  0  0  0  0
 55 45  1  6  0  0  0
 55 48  1  0  0  0  0
 56 52  1  0  0  0  0
 56 49  1  0  0  0  0
 57 59  1  0  0  0  0
 57 44  1  0  0  0  0
 58 56  2  0  0  0  0
 59 50  1  0  0  0  0
 60 48  1  6  0  0  0
 60 39  1  0  0  0  0
 62 64  1  0  0  0  0
 64 61  1  0  0  0  0
 64 63  1  1  0  0  0
M  END
>  <MODEL>
2

>  <REMARK>
 VINA RESULT:      -7.5      2.932      9.597
  Name = 
  18 active torsions:
  status: ('A' for Active; 'I' for Inactive)
    1  A    between atoms: C_1  and  O_25
    2  A    between atoms: C_1  and  C_35
    3  A    between atoms: N_2  and  C_54
    4  A    between atoms: N_2  and  C_58
    5  A    between atoms: O_6  and  C_17
    6  A    between atoms: O_6  and  C_64
    7  A    between atoms: O_12  and  C_27
    8  A    between atoms: O_12  and  C_32
    9  A    between atoms: P_20  and  C_24
   10  A    between atoms: P_20  and  O_25
   11  A    between atoms: C_24  and  C_53
   12  A    between atoms: C_36  and  C_38
   13  A    between atoms: C_36  and  C_49
   14  A    between atoms: C_37  and  C_63
   15  A    between atoms: C_38  and  C_46
   16  A    between atoms: C_40  and  C_58
   17  A    between atoms: C_42  and  C_46
   18  A    between atoms: C_49  and  C_53
                            x       y       z     vdW  Elec       q    Type
                         _______ _______ _______ _____ _____    ______ ____

>  <TORSDO>
F 18

$$$$
=
 OpenBabel11062418243D

 64 69  0  0  1  0  0  0  0  0999 V2000
  197.5820  174.2110  143.1730 O   0  0  0  0  0  0  0  0  0  0  0  0
  195.3480  173.7150  143.9140 C   0  0  1  0  0  3  0  0  0  0  0  0
  195.6620  175.3850  142.2740 C   0  0  1  0  0  3  0  0  0  0  0  0
  196.7070  173.1570  143.4650 C   0  0  2  0  0  3  0  0  0  0  0  0
  195.1600  175.0840  143.5700 O   0  0  0  0  0  0  0  0  0  0  0  0
  197.0710  174.8160  142.0120 C   0  0  0  0  0  2  0  0  0  0  0  0
  194.6760  175.0460  141.1880 C   0  0  0  0  0  0  0  0  0  0  0  0
  193.4470  175.2160  141.3990 O   0  0  0  0  0  0  0  0  0  0  0  0
  195.0690  174.5950  139.9250 O   0  0  0  0  0  0  0  0  0  0  0  0
  194.0790  171.9880  140.4210 O   0  0  0  0  0  1  0  0  0  0  0  0
  195.0100  172.9540  139.3890 P   0  0  2  0  0  0  0  0  0  0  0  0
  196.4170  172.4070  139.3510 O   0  0  0  0  0  0  0  0  0  0  0  0
  195.0960  172.9970  136.7470 O   0  0  0  0  0  0  0  0  0  0  0  0
  194.3170  172.9030  137.7310 C   0  0  0  0  0  0  0  0  0  0  0  0
  192.4240  171.7650  136.8840 O   0  0  0  0  0  0  0  0  0  0  0  0
  192.8680  172.7730  137.5000 C   0  0  0  0  0  0  0  0  0  0  0  0
  190.9250  174.0750  137.0220 O   0  0  0  0  0  1  0  0  0  0  0  0
  191.9140  173.8300  137.9760 C   0  0  1  0  0  3  0  0  0  0  0  0
  191.3080  173.5080  139.3400 C   0  0  0  0  0  2  0  0  0  0  0  0
  190.1390  172.5400  139.2380 C   0  0  1  0  0  3  0  0  0  0  0  0
  190.5110  171.3010  139.7630 O   0  0  0  0  0  1  0  0  0  0  0  0
  188.4350  172.4490  140.8610 O   0  0  0  0  0  0  0  0  0  0  0  0
  188.9390  173.0940  139.9540 C   0  0  0  0  0  0  0  0  0  0  0  0
  188.3730  174.4390  139.6100 C   0  0  0  0  0  2  0  0  0  0  0  0
  187.9000  174.4440  138.3010 O   0  0  0  0  0  1  0  0  0  0  0  0
  197.3050  172.2630  144.5430 C   0  0  0  0  0  2  0  0  0  0  0  0
  197.7560  171.0020  143.9630 N   0  0  0  0  0  2  0  0  0  0  0  0
  195.1190  168.1700  142.2320 C   0  0  0  0  0  3  0  0  0  0  0  0
  195.7550  169.1120  141.4160 C   0  0  0  0  0  3  0  0  0  0  0  0
  196.2200  169.1090  144.1770 C   0  0  0  0  0  3  0  0  0  0  0  0
  196.6270  170.0500  141.9820 C   0  0  0  0  0  3  0  0  0  0  0  0
  195.3500  168.1690  143.6110 C   0  0  0  0  0  3  0  0  0  0  0  0
  196.8660  170.0490  143.3640 C   0  0  0  0  0  0  0  0  0  0  0  0
  194.3050  172.9290  143.4110 O   0  0  0  0  0  0  0  0  0  0  0  0
  193.1270  170.9710  144.2080 C   0  0  0  0  0  2  0  0  0  0  0  0
  191.4480  173.2330  142.8880 O   0  0  0  0  0  0  0  0  0  0  0  0
  193.6900  172.3580  144.5360 C   0  0  2  0  0  3  0  0  0  0  0  0
  192.1540  170.9610  143.0250 C   0  0  0  0  0  2  0  0  0  0  0  0
  191.7350  173.9730  144.0650 C   0  0  2  0  0  3  0  0  0  0  0  0
  192.6000  173.2630  145.1240 C   0  0  0  0  0  2  0  0  0  0  0  0
  191.0040  171.9380  143.2260 C   0  0  0  0  0  2  0  0  0  0  0  0
  190.0300  177.0500  145.1180 O   0  0  0  0  0  0  0  0  0  0  0  0
  187.9330  178.0890  140.5550 O   0  0  0  0  0  0  0  0  0  0  0  0
  186.1910  176.1590  143.2570 C   0  0  0  0  0  2  0  0  0  0  0  0
  189.8420  176.3840  147.3590 O   0  0  0  0  0  0  0  0  0  0  0  0
  189.0420  175.9470  143.1890 C   0  0  0  0  0  2  0  0  0  0  0  0
  185.3830  177.5260  141.4500 C   0  0  0  0  0  0  0  0  0  0  0  0
  190.7000  174.6950  146.0940 O   0  0  0  0  0  0  0  0  0  0  0  0
  187.7530  177.0970  146.3050 C   0  0  2  0  0  3  0  0  0  0  0  0
  188.9700  177.0580  142.3010 O   0  0  0  0  0  0  0  0  0  0  0  0
  189.1780  176.5460  146.1320 C   0  0  1  0  0  0  0  0  0  0  0  0
  185.8820  176.9560  144.5210 C   0  0  0  0  0  2  0  0  0  0  0  0
  184.3910  177.9920  140.8680 O   0  0  0  0  0  0  0  0  0  0  0  0
  190.2380  176.0550  144.1210 C   0  0  2  0  0  3  0  0  0  0  0  0
  189.5190  175.1970  146.6690 C   0  0  2  0  0  3  0  0  0  0  0  0
  187.0990  177.6330  145.0610 C   0  0  0  0  0  0  0  0  0  0  0  0
  186.4300  177.0370  142.0680 C   0  0  0  0  0  0  0  0  0  0  0  0
  187.5260  178.6370  144.5150 O   0  0  0  0  0  0  0  0  0  0  0  0
  187.8030  177.4040  141.6080 C   0  0  0  0  0  0  0  0  0  0  0  0
  190.5180  174.6490  144.7010 C   0  0  1  0  0  3  0  0  0  0  0  0
  187.5680  177.9020  147.4540 O   0  0  0  0  0  0  0  0  0  0  0  0
  185.5310  177.4840  148.3960 O   0  0  0  0  0  1  0  0  0  0  0  0
  186.1610  179.7410  148.0370 C   0  0  0  0  0  1  0  0  0  0  0  0
  186.2290  178.3170  147.5240 C   0  0  1  0  0  3  0  0  0  0  0  0
  1  4  1  0  0  0  0
  2 34  1  6  0  0  0
  3  7  1  6  0  0  0
  3  5  1  0  0  0  0
  4  2  1  0  0  0  0
  4 26  1  1  0  0  0
  5  2  1  0  0  0  0
  6  3  1  0  0  0  0
  6  1  1  0  0  0  0
  7  8  2  0  0  0  0
  9  7  1  0  0  0  0
 11 12  2  6  0  0  0
 11  9  1  0  0  0  0
 11 10  1  0  0  0  0
 13 14  2  0  0  0  0
 14 11  1  0  0  0  0
 15 16  2  0  0  0  0
 16 14  1  0  0  0  0
 16 18  1  0  0  0  0
 18 17  1  6  0  0  0
 18 19  1  0  0  0  0
 20 19  1  0  0  0  0
 20 21  1  1  0  0  0
 20 23  1  0  0  0  0
 23 22  2  0  0  0  0
 24 23  1  0  0  0  0
 25 24  1  0  0  0  0
 27 26  1  0  0  0  0
 28 32  1  0  0  0  0
 29 31  1  0  0  0  0
 29 28  2  0  0  0  0
 31 33  2  0  0  0  0
 32 30  2  0  0  0  0
 33 27  1  0  0  0  0
 33 30  1  0  0  0  0
 35 37  1  0  0  0  0
 36 41  1  0  0  0  0
 36 39  1  0  0  0  0
 37 34  1  6  0  0  0
 37 40  1  0  0  0  0
 38 41  1  0  0  0  0
 38 35  1  0  0  0  0
 39 60  1  0  0  0  0
 39 40  1  1  0  0  0
 43 59  2  0  0  0  0
 44 52  1  0  0  0  0
 47 57  2  0  0  0  0
 49 61  1  1  0  0  0
 50 46  1  0  0  0  0
 51 42  1  6  0  0  0
 51 49  1  0  0  0  0
 51 55  1  0  0  0  0
 51 45  1  0  0  0  0
 52 56  1  0  0  0  0
 53 47  2  0  0  0  0
 54 46  1  6  0  0  0
 54 60  1  0  0  0  0
 54 42  1  0  0  0  0
 55 48  1  6  0  0  0
 55 45  1  0  0  0  0
 56 49  1  0  0  0  0
 57 44  1  0  0  0  0
 58 56  2  0  0  0  0
 59 57  1  0  0  0  0
 59 50  1  0  0  0  0
 60 48  1  1  0  0  0
 61 64  1  0  0  0  0
 64 63  1  1  0  0  0
 64 62  1  0  0  0  0
M  END
>  <MODEL>
3

>  <REMARK>
 VINA RESULT:      -7.3      1.773      2.477
  Name = 
  18 active torsions:
  status: ('A' for Active; 'I' for Inactive)
    1  A    between atoms: C_1  and  O_25
    2  A    between atoms: C_1  and  C_35
    3  A    between atoms: N_2  and  C_54
    4  A    between atoms: N_2  and  C_58
    5  A    between atoms: O_6  and  C_17
    6  A    between atoms: O_6  and  C_64
    7  A    between atoms: O_12  and  C_27
    8  A    between atoms: O_12  and  C_32
    9  A    between atoms: P_20  and  C_24
   10  A    between atoms: P_20  and  O_25
   11  A    between atoms: C_24  and  C_53
   12  A    between atoms: C_36  and  C_38
   13  A    between atoms: C_36  and  C_49
   14  A    between atoms: C_37  and  C_63
   15  A    between atoms: C_38  and  C_46
   16  A    between atoms: C_40  and  C_58
   17  A    between atoms: C_42  and  C_46
   18  A    between atoms: C_49  and  C_53
                            x       y       z     vdW  Elec       q    Type
                         _______ _______ _______ _____ _____    ______ ____

>  <TORSDO>
F 18

$$$$
=
 OpenBabel11062418243D

 64 69  0  0  1  0  0  0  0  0999 V2000
  197.6180  172.3030  142.0080 O   0  0  0  0  0  0  0  0  0  0  0  0
  196.0750  173.9460  142.8500 C   0  0  1  0  0  3  0  0  0  0  0  0
  196.2640  173.6490  140.5150 C   0  0  1  0  0  3  0  0  0  0  0  0
  196.6300  172.5190  142.9770 C   0  0  2  0  0  3  0  0  0  0  0  0
  196.3800  174.5590  141.6010 O   0  0  0  0  0  0  0  0  0  0  0  0
  196.9420  172.2880  140.7770 C   0  0  0  0  0  2  0  0  0  0  0  0
  194.8450  173.5180  140.0290 C   0  0  0  0  0  0  0  0  0  0  0  0
  194.1800  174.5590  139.7860 O   0  0  0  0  0  0  0  0  0  0  0  0
  194.2410  172.2820  139.7830 O   0  0  0  0  0  0  0  0  0  0  0  0
  194.5990  170.1220  137.9860 O   0  0  0  0  0  1  0  0  0  0  0  0
  193.8870  171.6390  138.2200 P   0  0  2  0  0  0  0  0  0  0  0  0
  194.4170  172.5910  137.1750 O   0  0  0  0  0  0  0  0  0  0  0  0
  191.6340  170.5040  137.4260 O   0  0  0  0  0  0  0  0  0  0  0  0
  192.1040  171.5010  138.0330 C   0  0  0  0  0  0  0  0  0  0  0  0
  191.0690  173.6260  137.9380 O   0  0  0  0  0  0  0  0  0  0  0  0
  191.1880  172.5310  138.5530 C   0  0  0  0  0  0  0  0  0  0  0  0
  189.0680  172.0350  139.5310 O   0  0  0  0  0  1  0  0  0  0  0  0
  190.4070  172.3020  139.8150 C   0  0  1  0  0  3  0  0  0  0  0  0
  191.0180  171.2150  140.6970 C   0  0  0  0  0  2  0  0  0  0  0  0
  191.3160  171.7130  142.1030 C   0  0  1  0  0  3  0  0  0  0  0  0
  190.1640  171.6140  142.8870 O   0  0  0  0  0  1  0  0  0  0  0  0
  193.4660  170.7530  142.0470 O   0  0  0  0  0  0  0  0  0  0  0  0
  192.4500  170.9300  142.7040 C   0  0  0  0  0  0  0  0  0  0  0  0
  192.3820  170.4000  144.1050 C   0  0  0  0  0  2  0  0  0  0  0  0
  192.8090  169.0760  144.1410 O   0  0  0  0  0  1  0  0  0  0  0  0
  197.2020  172.2850  144.3690 C   0  0  0  0  0  2  0  0  0  0  0  0
  197.5850  170.8860  144.5310 N   0  0  0  0  0  2  0  0  0  0  0  0
  195.9660  168.4020  147.5620 C   0  0  0  0  0  3  0  0  0  0  0  0
  197.3030  168.2440  147.1790 C   0  0  0  0  0  3  0  0  0  0  0  0
  195.7100  170.1860  145.9410 C   0  0  0  0  0  3  0  0  0  0  0  0
  197.8440  169.0620  146.1780 C   0  0  0  0  0  3  0  0  0  0  0  0
  195.1700  169.3700  146.9430 C   0  0  0  0  0  3  0  0  0  0  0  0
  197.0500  170.0390  145.5580 C   0  0  0  0  0  0  0  0  0  0  0  0
  194.6960  173.9580  143.0860 O   0  0  0  0  0  0  0  0  0  0  0  0
  195.1690  175.8050  144.5770 C   0  0  0  0  0  2  0  0  0  0  0  0
  192.9510  173.7930  145.4210 O   0  0  0  0  0  0  0  0  0  0  0  0
  194.3770  175.2950  143.3680 C   0  0  2  0  0  3  0  0  0  0  0  0
  194.9910  174.9530  145.8380 C   0  0  0  0  0  2  0  0  0  0  0  0
  192.1880  174.3740  144.3740 C   0  0  2  0  0  3  0  0  0  0  0  0
  192.8710  175.5020  143.5770 C   0  0  0  0  0  2  0  0  0  0  0  0
  193.5240  174.8030  146.2210 C   0  0  0  0  0  2  0  0  0  0  0  0
  189.8080  176.9260  145.5150 O   0  0  0  0  0  0  0  0  0  0  0  0
  188.7870  178.8260  140.8620 O   0  0  0  0  0  0  0  0  0  0  0  0
  186.7510  176.1420  142.5100 C   0  0  0  0  0  2  0  0  0  0  0  0
  189.1720  175.7260  147.4270 O   0  0  0  0  0  0  0  0  0  0  0  0
  189.5230  176.2300  143.2020 C   0  0  0  0  0  2  0  0  0  0  0  0
  186.2170  177.8200  140.8690 C   0  0  0  0  0  0  0  0  0  0  0  0
  190.5760  174.4830  146.1340 O   0  0  0  0  0  0  0  0  0  0  0  0
  187.3280  176.4660  145.9980 C   0  0  2  0  0  3  0  0  0  0  0  0
  189.5020  177.5100  142.5780 O   0  0  0  0  0  0  0  0  0  0  0  0
  188.8200  176.1130  146.1230 C   0  0  1  0  0  0  0  0  0  0  0  0
  186.0120  176.5780  143.7720 C   0  0  0  0  0  2  0  0  0  0  0  0
  185.3410  178.3130  140.1420 O   0  0  0  0  0  0  0  0  0  0  0  0
  190.4150  176.2260  144.4340 C   0  0  2  0  0  3  0  0  0  0  0  0
  189.2240  174.7140  146.4450 C   0  0  2  0  0  3  0  0  0  0  0  0
  186.9310  177.2200  144.7590 C   0  0  0  0  0  0  0  0  0  0  0  0
  187.1380  177.3000  141.6420 C   0  0  0  0  0  0  0  0  0  0  0  0
  187.3170  178.3620  144.5730 O   0  0  0  0  0  0  0  0  0  0  0  0
  188.5070  177.8980  141.6720 C   0  0  0  0  0  0  0  0  0  0  0  0
  190.7590  174.7560  144.7670 C   0  0  1  0  0  3  0  0  0  0  0  0
  186.7350  176.9490  147.1900 O   0  0  0  0  0  0  0  0  0  0  0  0
  184.5170  176.5170  146.8650 O   0  0  0  0  0  1  0  0  0  0  0  0
  185.1220  178.5320  147.9580 C   0  0  0  0  0  1  0  0  0  0  0  0
  185.4870  177.5170  146.8930 C   0  0  1  0  0  3  0  0  0  0  0  0
  1  4  1  0  0  0  0
  2  4  1  0  0  0  0
  2 34  1  6  0  0  0
  3  7  1  1  0  0  0
  3  6  1  0  0  0  0
  3  5  1  0  0  0  0
  4 26  1  1  0  0  0
  5  2  1  0  0  0  0
  6  1  1  0  0  0  0
  8  7  2  0  0  0  0
  9  7  1  0  0  0  0
 10 11  1  0  0  0  0
 11 12  2  6  0  0  0
 11  9  1  0  0  0  0
 13 14  2  0  0  0  0
 14 11  1  0  0  0  0
 14 16  1  0  0  0  0
 15 16  2  0  0  0  0
 16 18  1  0  0  0  0
 18 17  1  6  0  0  0
 18 19  1  0  0  0  0
 19 20  1  0  0  0  0
 20 23  1  0  0  0  0
 20 21  1  1  0  0  0
 22 23  2  0  0  0  0
 23 24  1  0  0  0  0
 24 25  1  0  0  0  0
 26 27  1  0  0  0  0
 27 33  1  0  0  0  0
 29 28  1  0  0  0  0
 30 32  1  0  0  0  0
 31 29  2  0  0  0  0
 32 28  2  0  0  0  0
 33 30  2  0  0  0  0
 33 31  1  0  0  0  0
 35 38  1  0  0  0  0
 36 41  1  0  0  0  0
 37 34  1  1  0  0  0
 37 40  1  0  0  0  0
 37 35  1  0  0  0  0
 38 41  1  0  0  0  0
 39 40  1  1  0  0  0
 39 60  1  0  0  0  0
 39 36  1  0  0  0  0
 43 59  2  0  0  0  0
 44 52  1  0  0  0  0
 47 57  2  0  0  0  0
 49 51  1  0  0  0  0
 49 61  1  1  0  0  0
 50 46  1  0  0  0  0
 51 42  1  6  0  0  0
 51 55  1  0  0  0  0
 51 45  1  0  0  0  0
 52 56  1  0  0  0  0
 53 47  2  0  0  0  0
 54 46  1  6  0  0  0
 54 60  1  0  0  0  0
 54 42  1  0  0  0  0
 55 48  1  6  0  0  0
 55 45  1  0  0  0  0
 56 49  1  0  0  0  0
 57 59  1  0  0  0  0
 57 44  1  0  0  0  0
 58 56  2  0  0  0  0
 59 50  1  0  0  0  0
 60 48  1  1  0  0  0
 62 64  1  0  0  0  0
 64 61  1  0  0  0  0
 64 63  1  1  0  0  0
M  END
>  <MODEL>
4

>  <REMARK>
 VINA RESULT:      -7.2      1.294      2.334
  Name = 
  18 active torsions:
  status: ('A' for Active; 'I' for Inactive)
    1  A    between atoms: C_1  and  O_25
    2  A    between atoms: C_1  and  C_35
    3  A    between atoms: N_2  and  C_54
    4  A    between atoms: N_2  and  C_58
    5  A    between atoms: O_6  and  C_17
    6  A    between atoms: O_6  and  C_64
    7  A    between atoms: O_12  and  C_27
    8  A    between atoms: O_12  and  C_32
    9  A    between atoms: P_20  and  C_24
   10  A    between atoms: P_20  and  O_25
   11  A    between atoms: C_24  and  C_53
   12  A    between atoms: C_36  and  C_38
   13  A    between atoms: C_36  and  C_49
   14  A    between atoms: C_37  and  C_63
   15  A    between atoms: C_38  and  C_46
   16  A    between atoms: C_40  and  C_58
   17  A    between atoms: C_42  and  C_46
   18  A    between atoms: C_49  and  C_53
                            x       y       z     vdW  Elec       q    Type
                         _______ _______ _______ _____ _____    ______ ____

>  <TORSDO>
F 18

$$$$
=
 OpenBabel11062418243D

 64 69  0  0  1  0  0  0  0  0999 V2000
  194.8590  171.0860  136.9580 O   0  0  0  0  0  0  0  0  0  0  0  0
  192.8650  171.0030  138.3010 C   0  0  1  0  0  3  0  0  0  0  0  0
  194.9620  171.1410  139.3780 C   0  0  1  0  0  3  0  0  0  0  0  0
  193.5650  171.6100  137.0750 C   0  0  2  0  0  3  0  0  0  0  0  0
  193.7660  170.3900  139.2180 O   0  0  0  0  0  0  0  0  0  0  0  0
  195.5790  171.6100  138.0450 C   0  0  0  0  0  2  0  0  0  0  0  0
  194.8050  172.2540  140.3800 C   0  0  0  0  0  0  0  0  0  0  0  0
  194.6820  171.9700  141.6010 O   0  0  0  0  0  0  0  0  0  0  0  0
  194.8440  173.6040  140.0220 O   0  0  0  0  0  0  0  0  0  0  0  0
  196.7160  175.2940  138.7320 O   0  0  0  0  0  0  0  0  0  0  0  0
  196.2090  174.6470  140.2110 P   0  0  2  0  0  0  0  0  0  0  0  0
  197.3450  173.8520  140.8080 O   0  0  0  0  0  1  0  0  0  0  0  0
  196.4530  177.0420  141.3040 O   0  0  0  0  0  0  0  0  0  0  0  0
  195.7760  175.9820  141.3340 C   0  0  0  0  0  0  0  0  0  0  0  0
  193.4760  175.8690  141.8760 O   0  0  0  0  0  0  0  0  0  0  0  0
  194.6660  175.8560  142.2950 C   0  0  0  0  0  0  0  0  0  0  0  0
  194.4270  176.8300  144.4620 O   0  0  0  0  0  1  0  0  0  0  0  0
  194.9320  175.7300  143.7670 C   0  0  1  0  0  3  0  0  0  0  0  0
  194.4140  174.4160  144.3500 C   0  0  0  0  0  2  0  0  0  0  0  0
  195.5420  173.4630  144.7150 C   0  0  1  0  0  3  0  0  0  0  0  0
  196.3320  174.0370  145.7140 O   0  0  0  0  0  1  0  0  0  0  0  0
  193.8030  172.0650  145.4680 O   0  0  0  0  0  0  0  0  0  0  0  0
  194.9840  172.1400  145.1590 C   0  0  0  0  0  0  0  0  0  0  0  0
  195.8290  170.9020  145.1870 C   0  0  0  0  0  2  0  0  0  0  0  0
  197.0240  171.1490  145.8570 O   0  0  0  0  0  1  0  0  0  0  0  0
  192.7700  171.3300  135.8070 C   0  0  0  0  0  2  0  0  0  0  0  0
  193.0250  172.3650  134.8100 N   0  0  0  0  0  2  0  0  0  0  0  0
  193.1220  176.5000  135.7480 C   0  0  0  0  0  3  0  0  0  0  0  0
  194.3050  175.8430  135.3880 C   0  0  0  0  0  3  0  0  0  0  0  0
  191.8930  174.4250  135.4950 C   0  0  0  0  0  3  0  0  0  0  0  0
  194.2790  174.4780  135.0770 C   0  0  0  0  0  3  0  0  0  0  0  0
  191.9180  175.7910  135.8030 C   0  0  0  0  0  3  0  0  0  0  0  0
  193.0720  173.7650  135.1250 C   0  0  0  0  0  0  0  0  0  0  0  0
  192.0810  171.9680  138.9450 O   0  0  0  0  0  0  0  0  0  0  0  0
  190.0700  170.6790  139.3290 C   0  0  0  0  0  2  0  0  0  0  0  0
  189.8870  173.7710  139.6200 O   0  0  0  0  0  0  0  0  0  0  0  0
  191.3550  171.2690  139.9210 C   0  0  2  0  0  3  0  0  0  0  0  0
  189.1660  171.7150  138.6540 C   0  0  0  0  0  2  0  0  0  0  0  0
  190.6520  173.5890  140.8020 C   0  0  2  0  0  3  0  0  0  0  0  0
  191.0420  172.1380  141.1450 C   0  0  0  0  0  2  0  0  0  0  0  0
  188.8110  172.8600  139.5940 C   0  0  0  0  0  2  0  0  0  0  0  0
  190.2210  176.7260  142.6600 O   0  0  0  0  0  0  0  0  0  0  0  0
  186.0070  178.2520  140.1660 O   0  0  0  0  0  0  0  0  0  0  0  0
  185.9420  176.3060  143.3710 C   0  0  0  0  0  2  0  0  0  0  0  0
  191.2880  175.9300  144.5910 O   0  0  0  0  0  0  0  0  0  0  0  0
  188.1860  175.8470  141.6590 C   0  0  0  0  0  2  0  0  0  0  0  0
  184.3970  177.8580  142.3730 C   0  0  0  0  0  0  0  0  0  0  0  0
  191.0650  174.2620  143.0570 O   0  0  0  0  0  0  0  0  0  0  0  0
  189.0680  176.8950  144.9480 C   0  0  2  0  0  3  0  0  0  0  0  0
  187.7390  177.0180  140.9820 O   0  0  0  0  0  0  0  0  0  0  0  0
  190.0600  176.2330  143.9790 C   0  0  1  0  0  0  0  0  0  0  0  0
  186.5090  177.0400  144.5820 C   0  0  0  0  0  2  0  0  0  0  0  0
  183.3110  178.4470  142.4780 O   0  0  0  0  0  0  0  0  0  0  0  0
  189.7040  175.7860  141.7240 C   0  0  2  0  0  3  0  0  0  0  0  0
  190.4960  174.8260  144.2130 C   0  0  2  0  0  3  0  0  0  0  0  0
  187.8810  177.5700  144.3170 C   0  0  0  0  0  0  0  0  0  0  0  0
  185.5470  177.2370  142.2670 C   0  0  0  0  0  0  0  0  0  0  0  0
  188.0230  178.5660  143.6280 O   0  0  0  0  0  0  0  0  0  0  0  0
  186.4340  177.5120  141.0960 C   0  0  0  0  0  0  0  0  0  0  0  0
  190.1090  174.3260  142.0290 C   0  0  1  0  0  3  0  0  0  0  0  0
  189.6710  177.6340  145.9940 O   0  0  0  0  0  0  0  0  0  0  0  0
  188.9170  175.7280  146.9980 O   0  0  0  0  0  1  0  0  0  0  0  0
  190.6450  176.9510  148.0640 C   0  0  0  0  0  1  0  0  0  0  0  0
  189.3860  177.0200  147.2240 C   0  0  1  0  0  3  0  0  0  0  0  0
  1  4  1  0  0  0  0
  1  6  1  0  0  0  0
  2 34  1  1  0  0  0
  2  5  1  0  0  0  0
  3  7  1  1  0  0  0
  4 26  1  6  0  0  0
  4  2  1  0  0  0  0
  5  3  1  0  0  0  0
  6  3  1  0  0  0  0
  7  8  2  0  0  0  0
  9 11  1  0  0  0  0
  9  7  1  0  0  0  0
 11 10  2  6  0  0  0
 11 12  1  0  0  0  0
 11 14  1  0  0  0  0
 13 14  2  0  0  0  0
 14 16  1  0  0  0  0
 15 16  2  0  0  0  0
 16 18  1  0  0  0  0
 18 19  1  0  0  0  0
 18 17  1  1  0  0  0
 19 20  1  0  0  0  0
 20 23  1  0  0  0  0
 20 21  1  1  0  0  0
 23 24  1  0  0  0  0
 23 22  2  0  0  0  0
 24 25  1  0  0  0  0
 27 33  1  0  0  0  0
 27 26  1  0  0  0  0
 28 32  1  0  0  0  0
 29 28  2  0  0  0  0
 30 32  2  0  0  0  0
 31 33  2  0  0  0  0
 31 29  1  0  0  0  0
 33 30  1  0  0  0  0
 35 37  1  0  0  0  0
 36 39  1  0  0  0  0
 37 34  1  6  0  0  0
 37 40  1  0  0  0  0
 38 35  1  0  0  0  0
 38 41  1  0  0  0  0
 39 40  1  1  0  0  0
 39 60  1  0  0  0  0
 41 36  1  0  0  0  0
 43 59  2  0  0  0  0
 44 52  1  0  0  0  0
 47 53  2  0  0  0  0
 49 61  1  6  0  0  0
 50 59  1  0  0  0  0
 50 46  1  0  0  0  0
 51 42  1  6  0  0  0
 51 55  1  0  0  0  0
 51 45  1  0  0  0  0
 51 49  1  0  0  0  0
 54 46  1  1  0  0  0
 54 60  1  0  0  0  0
 54 42  1  0  0  0  0
 55 48  1  6  0  0  0
 55 45  1  0  0  0  0
 56 52  1  0  0  0  0
 56 49  1  0  0  0  0
 57 47  2  0  0  0  0
 57 44  1  0  0  0  0
 58 56  2  0  0  0  0
 59 57  1  0  0  0  0
 60 48  1  1  0  0  0
 61 64  1  0  0  0  0
 62 64  1  0  0  0  0
 64 63  1  1  0  0  0
M  END
>  <MODEL>
5

>  <REMARK>
 VINA RESULT:      -7.1      2.706      6.873
  Name = 
  18 active torsions:
  status: ('A' for Active; 'I' for Inactive)
    1  A    between atoms: C_1  and  O_25
    2  A    between atoms: C_1  and  C_35
    3  A    between atoms: N_2  and  C_54
    4  A    between atoms: N_2  and  C_58
    5  A    between atoms: O_6  and  C_17
    6  A    between atoms: O_6  and  C_64
    7  A    between atoms: O_12  and  C_27
    8  A    between atoms: O_12  and  C_32
    9  A    between atoms: P_20  and  C_24
   10  A    between atoms: P_20  and  O_25
   11  A    between atoms: C_24  and  C_53
   12  A    between atoms: C_36  and  C_38
   13  A    between atoms: C_36  and  C_49
   14  A    between atoms: C_37  and  C_63
   15  A    between atoms: C_38  and  C_46
   16  A    between atoms: C_40  and  C_58
   17  A    between atoms: C_42  and  C_46
   18  A    between atoms: C_49  and  C_53
                            x       y       z     vdW  Elec       q    Type
                         _______ _______ _______ _____ _____    ______ ____

>  <TORSDO>
F 18

$$$$
=
 OpenBabel11062418243D

 64 69  0  0  1  0  0  0  0  0999 V2000
  196.7610  176.0500  144.1030 O   0  0  0  0  0  0  0  0  0  0  0  0
  194.7610  174.7120  144.0730 C   0  0  1  0  0  3  0  0  0  0  0  0
  195.1260  176.2600  142.3260 C   0  0  1  0  0  3  0  0  0  0  0  0
  196.2820  174.7460  144.2870 C   0  0  2  0  0  3  0  0  0  0  0  0
  194.2640  175.8550  143.3830 O   0  0  0  0  0  0  0  0  0  0  0  0
  196.6130  176.3150  142.7310 C   0  0  0  0  0  2  0  0  0  0  0  0
  194.8860  175.4760  141.0630 C   0  0  0  0  0  0  0  0  0  0  0  0
  193.7260  175.0560  140.8120 O   0  0  0  0  0  0  0  0  0  0  0  0
  195.8900  175.2350  140.1210 O   0  0  0  0  0  0  0  0  0  0  0  0
  196.1080  172.4880  140.7780 O   0  0  0  0  0  1  0  0  0  0  0  0
  196.4250  173.6730  139.6120 P   0  0  2  0  0  0  0  0  0  0  0  0
  197.9130  173.7280  139.3680 O   0  0  0  0  0  0  0  0  0  0  0  0
  195.5040  172.0280  137.7580 O   0  0  0  0  0  0  0  0  0  0  0  0
  195.5960  173.2410  138.0760 C   0  0  0  0  0  0  0  0  0  0  0  0
  195.7570  174.7320  136.2460 O   0  0  0  0  0  0  0  0  0  0  0  0
  195.0430  174.2710  137.1790 C   0  0  0  0  0  0  0  0  0  0  0  0
  193.5090  176.0650  136.8200 O   0  0  0  0  0  1  0  0  0  0  0  0
  193.6470  174.7890  137.3690 C   0  0  1  0  0  3  0  0  0  0  0  0
  192.5840  173.8330  136.8320 C   0  0  0  0  0  2  0  0  0  0  0  0
  191.8630  173.0880  137.9450 C   0  0  1  0  0  3  0  0  0  0  0  0
  190.7190  173.7980  138.3170 O   0  0  0  0  0  1  0  0  0  0  0  0
  192.4170  170.9080  137.2490 O   0  0  0  0  0  0  0  0  0  0  0  0
  191.5160  171.6940  137.5010 C   0  0  0  0  0  0  0  0  0  0  0  0
  190.0930  171.2340  137.4020 C   0  0  0  0  0  2  0  0  0  0  0  0
  189.6970  170.6320  138.5930 O   0  0  0  0  0  1  0  0  0  0  0  0
  196.6410  174.2490  145.6820 C   0  0  0  0  0  2  0  0  0  0  0  0
  197.5550  173.1150  145.5960 N   0  0  0  0  0  2  0  0  0  0  0  0
  196.3240  169.2080  144.5000 C   0  0  0  0  0  3  0  0  0  0  0  0
  196.0840  169.6710  145.7990 C   0  0  0  0  0  3  0  0  0  0  0  0
  197.3790  171.3190  143.9420 C   0  0  0  0  0  3  0  0  0  0  0  0
  196.4880  170.9610  146.1670 C   0  0  0  0  0  3  0  0  0  0  0  0
  196.9720  170.0300  143.5730 C   0  0  0  0  0  3  0  0  0  0  0  0
  197.1340  171.7910  145.2380 C   0  0  0  0  0  0  0  0  0  0  0  0
  194.3850  173.5340  143.4170 O   0  0  0  0  0  0  0  0  0  0  0  0
  193.3800  171.3710  143.8290 C   0  0  0  0  0  2  0  0  0  0  0  0
  191.5520  173.6310  142.7210 O   0  0  0  0  0  0  0  0  0  0  0  0
  193.7670  172.7420  144.3960 C   0  0  2  0  0  3  0  0  0  0  0  0
  192.4910  171.4450  142.5840 C   0  0  0  0  0  2  0  0  0  0  0  0
  191.6810  174.2100  144.0110 C   0  0  2  0  0  3  0  0  0  0  0  0
  192.5500  173.4350  145.0210 C   0  0  0  0  0  2  0  0  0  0  0  0
  191.2300  172.2630  142.8330 C   0  0  0  0  0  2  0  0  0  0  0  0
  189.6270  176.8890  145.4530 O   0  0  0  0  0  0  0  0  0  0  0  0
  187.8290  178.6490  140.9830 O   0  0  0  0  0  0  0  0  0  0  0  0
  186.0490  176.1070  143.0890 C   0  0  0  0  0  2  0  0  0  0  0  0
  189.3150  175.7850  147.4980 O   0  0  0  0  0  0  0  0  0  0  0  0
  188.9030  176.1180  143.2620 C   0  0  0  0  0  2  0  0  0  0  0  0
  185.2740  177.7400  141.5010 C   0  0  0  0  0  0  0  0  0  0  0  0
  190.4220  174.4440  146.0280 O   0  0  0  0  0  0  0  0  0  0  0  0
  187.2640  176.5400  146.3970 C   0  0  2  0  0  3  0  0  0  0  0  0
  188.8060  177.3730  142.5970 O   0  0  0  0  0  0  0  0  0  0  0  0
  188.7420  176.1370  146.2650 C   0  0  1  0  0  0  0  0  0  0  0  0
  185.5670  176.6160  144.4440 C   0  0  0  0  0  2  0  0  0  0  0  0
  184.2960  178.2380  140.9240 O   0  0  0  0  0  0  0  0  0  0  0  0
  190.0050  176.1260  144.3110 C   0  0  2  0  0  3  0  0  0  0  0  0
  189.1570  174.7370  146.5690 C   0  0  2  0  0  3  0  0  0  0  0  0
  186.6700  177.2610  145.2190 C   0  0  0  0  0  0  0  0  0  0  0  0
  186.3060  177.2150  142.1160 C   0  0  0  0  0  0  0  0  0  0  0  0
  187.0490  178.3800  144.9160 O   0  0  0  0  0  0  0  0  0  0  0  0
  187.6740  177.7640  141.8700 C   0  0  0  0  0  0  0  0  0  0  0  0
  190.3600  174.6580  144.6400 C   0  0  1  0  0  3  0  0  0  0  0  0
  186.9140  177.0880  147.6540 O   0  0  0  0  0  0  0  0  0  0  0  0
  184.9860  178.3050  147.7740 O   0  0  0  0  0  1  0  0  0  0  0  0
  187.0210  179.3600  148.3810 C   0  0  0  0  0  1  0  0  0  0  0  0
  186.3440  178.3570  147.4680 C   0  0  1  0  0  3  0  0  0  0  0  0
  1  4  1  0  0  0  0
  2 34  1  6  0  0  0
  2  4  1  0  0  0  0
  3  7  1  6  0  0  0
  3  6  1  0  0  0  0
  3  5  1  0  0  0  0
  4 26  1  1  0  0  0
  5  2  1  0  0  0  0
  6  1  1  0  0  0  0
  8  7  2  0  0  0  0
  9  7  1  0  0  0  0
 11 12  2  6  0  0  0
 11  9  1  0  0  0  0
 11 10  1  0  0  0  0
 13 14  2  0  0  0  0
 14 11  1  0  0  0  0
 15 16  2  0  0  0  0
 16 18  1  0  0  0  0
 16 14  1  0  0  0  0
 18 17  1  6  0  0  0
 19 18  1  0  0  0  0
 19 20  1  0  0  0  0
 20 21  1  6  0  0  0
 22 23  2  0  0  0  0
 23 20  1  0  0  0  0
 24 23  1  0  0  0  0
 24 25  1  0  0  0  0
 27 26  1  0  0  0  0
 28 29  1  0  0  0  0
 29 31  2  0  0  0  0
 30 33  2  0  0  0  0
 32 30  1  0  0  0  0
 32 28  2  0  0  0  0
 33 27  1  0  0  0  0
 33 31  1  0  0  0  0
 35 37  1  0  0  0  0
 36 41  1  0  0  0  0
 36 39  1  0  0  0  0
 37 34  1  6  0  0  0
 37 40  1  0  0  0  0
 38 41  1  0  0  0  0
 38 35  1  0  0  0  0
 39 60  1  0  0  0  0
 39 40  1  1  0  0  0
 43 59  2  0  0  0  0
 44 52  1  0  0  0  0
 47 57  2  0  0  0  0
 49 61  1  1  0  0  0
 50 46  1  0  0  0  0
 51 42  1  6  0  0  0
 51 49  1  0  0  0  0
 51 55  1  0  0  0  0
 51 45  1  0  0  0  0
 52 56  1  0  0  0  0
 53 47  2  0  0  0  0
 54 46  1  6  0  0  0
 54 60  1  0  0  0  0
 54 42  1  0  0  0  0
 55 48  1  6  0  0  0
 55 45  1  0  0  0  0
 56 49  1  0  0  0  0
 57 44  1  0  0  0  0
 58 56  2  0  0  0  0
 59 57  1  0  0  0  0
 59 50  1  0  0  0  0
 60 48  1  1  0  0  0
 64 61  1  0  0  0  0
 64 62  1  0  0  0  0
 64 63  1  1  0  0  0
M  END
>  <MODEL>
6

>  <REMARK>
 VINA RESULT:      -6.9      1.724      2.906
  Name = 
  18 active torsions:
  status: ('A' for Active; 'I' for Inactive)
    1  A    between atoms: C_1  and  O_25
    2  A    between atoms: C_1  and  C_35
    3  A    between atoms: N_2  and  C_54
    4  A    between atoms: N_2  and  C_58
    5  A    between atoms: O_6  and  C_17
    6  A    between atoms: O_6  and  C_64
    7  A    between atoms: O_12  and  C_27
    8  A    between atoms: O_12  and  C_32
    9  A    between atoms: P_20  and  C_24
   10  A    between atoms: P_20  and  O_25
   11  A    between atoms: C_24  and  C_53
   12  A    between atoms: C_36  and  C_38
   13  A    between atoms: C_36  and  C_49
   14  A    between atoms: C_37  and  C_63
   15  A    between atoms: C_38  and  C_46
   16  A    between atoms: C_40  and  C_58
   17  A    between atoms: C_42  and  C_46
   18  A    between atoms: C_49  and  C_53
                            x       y       z     vdW  Elec       q    Type
                         _______ _______ _______ _____ _____    ______ ____

>  <TORSDO>
F 18

$$$$
=
 OpenBabel11062418243D

 64 69  0  0  1  0  0  0  0  0999 V2000
  197.3480  173.4040  141.3600 O   0  0  0  0  0  0  0  0  0  0  0  0
  195.2190  173.9810  142.3210 C   0  0  1  0  0  3  0  0  0  0  0  0
  195.9280  171.7280  142.3840 C   0  0  1  0  0  3  0  0  0  0  0  0
  196.7060  174.3420  142.1800 C   0  0  2  0  0  3  0  0  0  0  0  0
  194.9270  172.6380  141.9440 O   0  0  0  0  0  0  0  0  0  0  0  0
  197.3650  172.2080  142.0970 C   0  0  0  0  0  2  0  0  0  0  0  0
  195.7220  171.3020  143.8130 C   0  0  0  0  0  0  0  0  0  0  0  0
  196.2160  171.9980  144.7390 O   0  0  0  0  0  0  0  0  0  0  0  0
  194.9550  170.1880  144.1670 O   0  0  0  0  0  0  0  0  0  0  0  0
  192.4410  171.4650  144.4340 O   0  0  0  0  0  0  0  0  0  0  0  0
  193.2450  170.0510  143.9670 P   0  0  2  0  0  0  0  0  0  0  0  0
  192.7490  168.9070  144.8170 O   0  0  0  0  0  1  0  0  0  0  0  0
  193.7470  169.0930  141.5530 O   0  0  0  0  0  0  0  0  0  0  0  0
  192.8830  169.6960  142.2410 C   0  0  0  0  0  0  0  0  0  0  0  0
  190.5310  169.6000  142.0120 O   0  0  0  0  0  0  0  0  0  0  0  0
  191.6150  170.1090  141.6150 C   0  0  0  0  0  0  0  0  0  0  0  0
  192.1260  170.5720  139.3300 O   0  0  0  0  0  1  0  0  0  0  0  0
  191.5980  171.1160  140.5020 C   0  0  1  0  0  3  0  0  0  0  0  0
  190.2110  171.7110  140.2660 C   0  0  0  0  0  2  0  0  0  0  0  0
  190.2450  173.2270  140.1520 C   0  0  1  0  0  3  0  0  0  0  0  0
  191.5100  173.6940  140.5160 O   0  0  0  0  0  1  0  0  0  0  0  0
  188.7990  174.1590  138.5440 O   0  0  0  0  0  0  0  0  0  0  0  0
  189.8910  173.6530  138.7540 C   0  0  0  0  0  0  0  0  0  0  0  0
  190.8640  173.5130  137.6220 C   0  0  0  0  0  2  0  0  0  0  0  0
  190.3660  172.6340  136.6650 O   0  0  0  0  0  1  0  0  0  0  0  0
  196.8670  175.7410  141.6010 C   0  0  0  0  0  2  0  0  0  0  0  0
  197.3210  175.6670  140.2160 N   0  0  0  0  0  2  0  0  0  0  0  0
  194.7870  174.4660  137.0360 C   0  0  0  0  0  3  0  0  0  0  0  0
  196.1600  174.2030  136.9640 C   0  0  0  0  0  3  0  0  0  0  0  0
  195.1010  175.5230  139.1950 C   0  0  0  0  0  3  0  0  0  0  0  0
  197.0020  174.5980  138.0110 C   0  0  0  0  0  3  0  0  0  0  0  0
  194.2590  175.1260  138.1490 C   0  0  0  0  0  3  0  0  0  0  0  0
  196.4750  175.2550  139.1330 C   0  0  0  0  0  0  0  0  0  0  0  0
  194.7730  174.2390  143.6220 O   0  0  0  0  0  0  0  0  0  0  0  0
  195.0200  176.4100  144.6630 C   0  0  0  0  0  2  0  0  0  0  0  0
  193.0180  174.4070  145.9500 O   0  0  0  0  0  0  0  0  0  0  0  0
  194.3070  175.5620  143.6030 C   0  0  2  0  0  3  0  0  0  0  0  0
  194.9140  175.8450  146.0820 C   0  0  0  0  0  2  0  0  0  0  0  0
  192.2140  174.6540  144.8060 C   0  0  2  0  0  3  0  0  0  0  0  0
  192.7850  175.6450  143.7730 C   0  0  0  0  0  2  0  0  0  0  0  0
  193.4660  175.6250  146.5010 C   0  0  0  0  0  2  0  0  0  0  0  0
  189.6220  177.0870  145.7240 O   0  0  0  0  0  0  0  0  0  0  0  0
  188.7100  178.7260  140.9510 O   0  0  0  0  0  0  0  0  0  0  0  0
  186.7720  175.9820  142.6180 C   0  0  0  0  0  2  0  0  0  0  0  0
  188.9720  175.9240  147.6550 O   0  0  0  0  0  0  0  0  0  0  0  0
  189.4960  176.2810  143.4330 C   0  0  0  0  0  2  0  0  0  0  0  0
  186.2120  177.5530  140.8840 C   0  0  0  0  0  0  0  0  0  0  0  0
  190.5150  174.7260  146.4830 O   0  0  0  0  0  0  0  0  0  0  0  0
  187.1570  176.4830  146.1120 C   0  0  2  0  0  3  0  0  0  0  0  0
  189.4230  177.5310  142.7540 O   0  0  0  0  0  0  0  0  0  0  0  0
  188.6600  176.2350  146.3210 C   0  0  1  0  0  0  0  0  0  0  0  0
  185.9460  176.4180  143.8250 C   0  0  0  0  0  2  0  0  0  0  0  0
  185.3430  177.9580  140.0960 O   0  0  0  0  0  0  0  0  0  0  0  0
  190.3250  176.3850  144.7040 C   0  0  2  0  0  3  0  0  0  0  0  0
  189.1370  174.8800  146.7210 C   0  0  2  0  0  3  0  0  0  0  0  0
  186.7730  177.1590  144.8240 C   0  0  0  0  0  0  0  0  0  0  0  0
  187.1260  177.1270  141.7200 C   0  0  0  0  0  0  0  0  0  0  0  0
  187.0930  178.3150  144.6070 O   0  0  0  0  0  0  0  0  0  0  0  0
  188.4510  177.8150  141.7870 C   0  0  0  0  0  0  0  0  0  0  0  0
  190.7460  174.9560  145.1160 C   0  0  1  0  0  3  0  0  0  0  0  0
  186.4770  176.9730  147.2530 O   0  0  0  0  0  0  0  0  0  0  0  0
  184.4060  177.9120  147.0500 O   0  0  0  0  0  1  0  0  0  0  0  0
  186.1840  179.2690  147.8350 C   0  0  0  0  0  1  0  0  0  0  0  0
  185.7740  178.1390  146.9130 C   0  0  1  0  0  3  0  0  0  0  0  0
  1  6  1  0  0  0  0
  1  4  1  0  0  0  0
  2 34  1  1  0  0  0
  3  7  1  1  0  0  0
  4 26  1  6  0  0  0
  4  2  1  0  0  0  0
  5  2  1  0  0  0  0
  5  3  1  0  0  0  0
  6  3  1  0  0  0  0
  7  9  1  0  0  0  0
  7  8  2  0  0  0  0
 11  9  1  0  0  0  0
 11 10  2  1  0  0  0
 11 12  1  0  0  0  0
 13 14  2  0  0  0  0
 14 11  1  0  0  0  0
 16 15  2  0  0  0  0
 16 14  1  0  0  0  0
 18 17  1  6  0  0  0
 18 16  1  0  0  0  0
 19 18  1  0  0  0  0
 20 19  1  0  0  0  0
 20 21  1  6  0  0  0
 22 23  2  0  0  0  0
 23 20  1  0  0  0  0
 24 23  1  0  0  0  0
 25 24  1  0  0  0  0
 27 26  1  0  0  0  0
 28 32  1  0  0  0  0
 29 28  2  0  0  0  0
 29 31  1  0  0  0  0
 31 33  2  0  0  0  0
 32 30  2  0  0  0  0
 33 30  1  0  0  0  0
 33 27  1  0  0  0  0
 35 38  1  0  0  0  0
 36 41  1  0  0  0  0
 37 34  1  1  0  0  0
 37 40  1  0  0  0  0
 37 35  1  0  0  0  0
 38 41  1  0  0  0  0
 39 40  1  1  0  0  0
 39 60  1  0  0  0  0
 39 36  1  0  0  0  0
 43 59  2  0  0  0  0
 44 52  1  0  0  0  0
 47 57  2  0  0  0  0
 49 51  1  0  0  0  0
 49 61  1  1  0  0  0
 50 46  1  0  0  0  0
 51 42  1  6  0  0  0
 51 55  1  0  0  0  0
 51 45  1  0  0  0  0
 52 56  1  0  0  0  0
 53 47  2  0  0  0  0
 54 46  1  6  0  0  0
 54 60  1  0  0  0  0
 54 42  1  0  0  0  0
 55 48  1  6  0  0  0
 55 45  1  0  0  0  0
 56 49  1  0  0  0  0
 57 59  1  0  0  0  0
 57 44  1  0  0  0  0
 58 56  2  0  0  0  0
 59 50  1  0  0  0  0
 60 48  1  1  0  0  0
 64 62  1  0  0  0  0
 64 61  1  0  0  0  0
 64 63  1  1  0  0  0
M  END
>  <MODEL>
7

>  <REMARK>
 VINA RESULT:      -6.9      2.034      3.924
  Name = 
  18 active torsions:
  status: ('A' for Active; 'I' for Inactive)
    1  A    between atoms: C_1  and  O_25
    2  A    between atoms: C_1  and  C_35
    3  A    between atoms: N_2  and  C_54
    4  A    between atoms: N_2  and  C_58
    5  A    between atoms: O_6  and  C_17
    6  A    between atoms: O_6  and  C_64
    7  A    between atoms: O_12  and  C_27
    8  A    between atoms: O_12  and  C_32
    9  A    between atoms: P_20  and  C_24
   10  A    between atoms: P_20  and  O_25
   11  A    between atoms: C_24  and  C_53
   12  A    between atoms: C_36  and  C_38
   13  A    between atoms: C_36  and  C_49
   14  A    between atoms: C_37  and  C_63
   15  A    between atoms: C_38  and  C_46
   16  A    between atoms: C_40  and  C_58
   17  A    between atoms: C_42  and  C_46
   18  A    between atoms: C_49  and  C_53
                            x       y       z     vdW  Elec       q    Type
                         _______ _______ _______ _____ _____    ______ ____

>  <TORSDO>
F 18

$$$$
=
 OpenBabel11062418243D

 64 69  0  0  1  0  0  0  0  0999 V2000
  192.6590  168.1910  142.4660 O   0  0  0  0  0  0  0  0  0  0  0  0
  191.7750  170.3770  142.9440 C   0  0  1  0  0  3  0  0  0  0  0  0
  193.5750  169.5660  144.2400 C   0  0  1  0  0  3  0  0  0  0  0  0
  192.2320  169.3830  141.8650 C   0  0  2  0  0  3  0  0  0  0  0  0
  192.2350  170.0420  144.2500 O   0  0  0  0  0  0  0  0  0  0  0  0
  193.8470  168.5160  143.1430 C   0  0  0  0  0  2  0  0  0  0  0  0
  194.5790  170.6880  144.2450 C   0  0  0  0  0  0  0  0  0  0  0  0
  195.5130  170.6720  145.0900 O   0  0  0  0  0  0  0  0  0  0  0  0
  194.5540  171.7290  143.3140 O   0  0  0  0  0  0  0  0  0  0  0  0
  194.9950  171.4000  140.5350 O   0  0  0  0  0  0  0  0  0  0  0  0
  195.6610  171.9190  142.0020 P   0  0  2  0  0  0  0  0  0  0  0  0
  196.8970  171.1010  142.2890 O   0  0  0  0  0  1  0  0  0  0  0  0
  196.1530  174.1860  140.7330 O   0  0  0  0  0  0  0  0  0  0  0  0
  196.1240  173.6520  141.8710 C   0  0  0  0  0  0  0  0  0  0  0  0
  197.6890  174.7850  143.2360 O   0  0  0  0  0  0  0  0  0  0  0  0
  196.4870  174.4480  143.0570 C   0  0  0  0  0  0  0  0  0  0  0  0
  195.8090  174.4370  145.3460 O   0  0  0  0  0  1  0  0  0  0  0  0
  195.4470  174.8490  144.0630 C   0  0  1  0  0  3  0  0  0  0  0  0
  195.1330  176.3430  144.0230 C   0  0  0  0  0  2  0  0  0  0  0  0
  194.7990  176.9000  145.3980 C   0  0  1  0  0  3  0  0  0  0  0  0
  195.3460  178.1780  145.5300 O   0  0  0  0  0  1  0  0  0  0  0  0
  192.5980  177.4260  144.7460 O   0  0  0  0  0  0  0  0  0  0  0  0
  193.3100  176.9230  145.6040 C   0  0  0  0  0  0  0  0  0  0  0  0
  192.6750  176.3060  146.8130 C   0  0  0  0  0  2  0  0  0  0  0  0
  192.9430  174.9400  146.8540 O   0  0  0  0  0  1  0  0  0  0  0  0
  191.1040  169.0980  140.8820 C   0  0  0  0  0  2  0  0  0  0  0  0
  191.6140  169.0890  139.5150 N   0  0  0  0  0  2  0  0  0  0  0  0
  190.7160  172.1340  136.7040 C   0  0  0  0  0  3  0  0  0  0  0  0
  192.0500  171.7800  136.9390 C   0  0  0  0  0  3  0  0  0  0  0  0
  189.9910  170.4850  138.3280 C   0  0  0  0  0  3  0  0  0  0  0  0
  192.3530  170.7750  137.8670 C   0  0  0  0  0  3  0  0  0  0  0  0
  189.6890  171.4890  137.3980 C   0  0  0  0  0  3  0  0  0  0  0  0
  191.3240  170.1210  138.5610 C   0  0  0  0  0  0  0  0  0  0  0  0
  192.1550  171.6800  142.6020 O   0  0  0  0  0  0  0  0  0  0  0  0
  191.6300  173.0940  140.7100 C   0  0  0  0  0  2  0  0  0  0  0  0
  191.8730  174.4430  143.5030 O   0  0  0  0  0  0  0  0  0  0  0  0
  191.1010  172.1850  141.8260 C   0  0  2  0  0  3  0  0  0  0  0  0
  192.5030  174.2480  141.2130 C   0  0  0  0  0  2  0  0  0  0  0  0
  190.6510  173.7840  143.7990 C   0  0  2  0  0  3  0  0  0  0  0  0
  190.0540  172.9180  142.6730 C   0  0  0  0  0  2  0  0  0  0  0  0
  191.7840  175.0940  142.2550 C   0  0  0  0  0  2  0  0  0  0  0  0
  189.4770  177.1510  144.6740 O   0  0  0  0  0  0  0  0  0  0  0  0
  187.2620  178.1390  140.1550 O   0  0  0  0  0  0  0  0  0  0  0  0
  185.4380  176.7000  143.0990 C   0  0  0  0  0  2  0  0  0  0  0  0
  189.3400  176.6930  146.9700 O   0  0  0  0  0  0  0  0  0  0  0  0
  188.2180  176.0630  142.9000 C   0  0  0  0  0  2  0  0  0  0  0  0
  184.7210  178.0310  141.2270 C   0  0  0  0  0  0  0  0  0  0  0  0
  189.8630  174.8040  145.8100 O   0  0  0  0  0  0  0  0  0  0  0  0
  187.3110  177.6270  145.9700 C   0  0  2  0  0  3  0  0  0  0  0  0
  188.2500  177.1020  141.9260 O   0  0  0  0  0  0  0  0  0  0  0  0
  188.6280  176.8580  145.7710 C   0  0  1  0  0  0  0  0  0  0  0  0
  185.3280  177.6290  144.3050 C   0  0  0  0  0  2  0  0  0  0  0  0
  183.7700  178.5920  140.6610 O   0  0  0  0  0  0  0  0  0  0  0  0
  189.4750  176.0630  143.7560 C   0  0  2  0  0  3  0  0  0  0  0  0
  188.8050  175.5190  146.4020 C   0  0  2  0  0  3  0  0  0  0  0  0
  186.6630  178.1570  144.7210 C   0  0  0  0  0  0  0  0  0  0  0  0
  185.7240  177.4400  141.8290 C   0  0  0  0  0  0  0  0  0  0  0  0
  187.1930  179.0420  144.0700 O   0  0  0  0  0  0  0  0  0  0  0  0
  187.1030  177.5630  141.2680 C   0  0  0  0  0  0  0  0  0  0  0  0
  189.5870  174.6800  144.4370 C   0  0  1  0  0  3  0  0  0  0  0  0
  187.3180  178.5350  147.0550 O   0  0  0  0  0  0  0  0  0  0  0  0
  185.1300  179.0430  147.4640 O   0  0  0  0  0  1  0  0  0  0  0  0
  185.8490  176.8110  147.8080 C   0  0  0  0  0  1  0  0  0  0  0  0
  186.2160  178.2790  147.8860 C   0  0  1  0  0  3  0  0  0  0  0  0
  1  6  1  0  0  0  0
  2 34  1  6  0  0  0
  2  5  1  0  0  0  0
  3  7  1  6  0  0  0
  3  5  1  0  0  0  0
  4 26  1  6  0  0  0
  4  1  1  0  0  0  0
  4  2  1  0  0  0  0
  6  3  1  0  0  0  0
  7  8  2  0  0  0  0
  9  7  1  0  0  0  0
 11 10  2  6  0  0  0
 11 12  1  0  0  0  0
 11  9  1  0  0  0  0
 13 14  2  0  0  0  0
 14 11  1  0  0  0  0
 14 16  1  0  0  0  0
 16 15  2  0  0  0  0
 16 18  1  0  0  0  0
 18 17  1  1  0  0  0
 19 18  1  0  0  0  0
 19 20  1  0  0  0  0
 20 21  1  6  0  0  0
 20 23  1  0  0  0  0
 22 23  2  0  0  0  0
 23 24  1  0  0  0  0
 24 25  1  0  0  0  0
 27 26  1  0  0  0  0
 28 29  2  0  0  0  0
 28 32  1  0  0  0  0
 29 31  1  0  0  0  0
 30 33  1  0  0  0  0
 31 33  2  0  0  0  0
 32 30  2  0  0  0  0
 33 27  1  0  0  0  0
 35 38  1  0  0  0  0
 35 37  1  0  0  0  0
 36 39  1  0  0  0  0
 37 34  1  1  0  0  0
 37 40  1  0  0  0  0
 38 41  1  0  0  0  0
 39 40  1  6  0  0  0
 39 60  1  0  0  0  0
 41 36  1  0  0  0  0
 43 59  2  0  0  0  0
 44 52  1  0  0  0  0
 47 57  2  0  0  0  0
 49 61  1  1  0  0  0
 50 46  1  0  0  0  0
 51 42  1  6  0  0  0
 51 49  1  0  0  0  0
 51 55  1  0  0  0  0
 51 45  1  0  0  0  0
 52 56  1  0  0  0  0
 53 47  2  0  0  0  0
 54 46  1  1  0  0  0
 54 60  1  0  0  0  0
 54 42  1  0  0  0  0
 55 48  1  6  0  0  0
 55 45  1  0  0  0  0
 56 49  1  0  0  0  0
 57 44  1  0  0  0  0
 58 56  2  0  0  0  0
 59 57  1  0  0  0  0
 59 50  1  0  0  0  0
 60 48  1  1  0  0  0
 61 64  1  0  0  0  0
 62 64  1  0  0  0  0
 64 63  1  6  0  0  0
M  END
>  <MODEL>
8

>  <REMARK>
 VINA RESULT:      -6.8      2.314      5.927
  Name = 
  18 active torsions:
  status: ('A' for Active; 'I' for Inactive)
    1  A    between atoms: C_1  and  O_25
    2  A    between atoms: C_1  and  C_35
    3  A    between atoms: N_2  and  C_54
    4  A    between atoms: N_2  and  C_58
    5  A    between atoms: O_6  and  C_17
    6  A    between atoms: O_6  and  C_64
    7  A    between atoms: O_12  and  C_27
    8  A    between atoms: O_12  and  C_32
    9  A    between atoms: P_20  and  C_24
   10  A    between atoms: P_20  and  O_25
   11  A    between atoms: C_24  and  C_53
   12  A    between atoms: C_36  and  C_38
   13  A    between atoms: C_36  and  C_49
   14  A    between atoms: C_37  and  C_63
   15  A    between atoms: C_38  and  C_46
   16  A    between atoms: C_40  and  C_58
   17  A    between atoms: C_42  and  C_46
   18  A    between atoms: C_49  and  C_53
                            x       y       z     vdW  Elec       q    Type
                         _______ _______ _______ _____ _____    ______ ____

>  <TORSDO>
F 18

$$$$
=
 OpenBabel11062418243D

 64 69  0  0  1  0  0  0  0  0999 V2000
  193.6260  171.0620  140.4140 O   0  0  0  0  0  0  0  0  0  0  0  0
  192.0760  172.3300  141.7480 C   0  0  1  0  0  3  0  0  0  0  0  0
  194.3560  172.9460  141.7520 C   0  0  1  0  0  3  0  0  0  0  0  0
  192.3600  171.6630  140.3940 C   0  0  2  0  0  3  0  0  0  0  0  0
  193.2470  172.5260  142.5360 O   0  0  0  0  0  0  0  0  0  0  0  0
  194.5460  172.1220  140.4620 C   0  0  0  0  0  2  0  0  0  0  0  0
  194.3520  174.4320  141.5090 C   0  0  0  0  0  0  0  0  0  0  0  0
  194.1130  174.8640  140.3500 O   0  0  0  0  0  0  0  0  0  0  0  0
  194.5490  175.3660  142.5290 O   0  0  0  0  0  0  0  0  0  0  0  0
  196.4740  177.1180  143.6490 O   0  0  0  0  0  1  0  0  0  0  0  0
  195.9790  175.5070  143.4880 P   0  0  2  0  0  0  0  0  0  0  0  0
  197.0860  174.7240  142.8230 O   0  0  0  0  0  0  0  0  0  0  0  0
  196.6360  174.3590  145.7780 O   0  0  0  0  0  0  0  0  0  0  0  0
  195.6660  174.8090  145.1150 C   0  0  0  0  0  0  0  0  0  0  0  0
  193.6840  173.6390  145.6620 O   0  0  0  0  0  0  0  0  0  0  0  0
  194.3060  174.7360  145.6770 C   0  0  0  0  0  0  0  0  0  0  0  0
  194.5660  176.9870  146.4270 O   0  0  0  0  0  1  0  0  0  0  0  0
  193.6440  175.9540  146.2550 C   0  0  1  0  0  3  0  0  0  0  0  0
  192.4370  176.4130  145.4380 C   0  0  0  0  0  2  0  0  0  0  0  0
  191.3130  176.9390  146.3170 C   0  0  1  0  0  3  0  0  0  0  0  0
  190.2970  177.4600  145.5130 O   0  0  0  0  0  1  0  0  0  0  0  0
  191.1180  175.8310  148.3860 O   0  0  0  0  0  0  0  0  0  0  0  0
  190.7930  175.8450  147.2080 C   0  0  0  0  0  0  0  0  0  0  0  0
  189.8500  174.7980  146.6960 C   0  0  0  0  0  2  0  0  0  0  0  0
  188.8560  174.5420  147.6360 O   0  0  0  0  0  1  0  0  0  0  0  0
  191.2930  170.6260  140.0700 C   0  0  0  0  0  2  0  0  0  0  0  0
  191.4170  170.1890  138.6830 N   0  0  0  0  0  2  0  0  0  0  0  0
  189.6800  172.3160  135.4520 C   0  0  0  0  0  3  0  0  0  0  0  0
  190.1100  170.9980  135.2610 C   0  0  0  0  0  3  0  0  0  0  0  0
  190.4050  172.2200  137.7630 C   0  0  0  0  0  3  0  0  0  0  0  0
  190.6850  170.2900  136.3240 C   0  0  0  0  0  3  0  0  0  0  0  0
  189.8280  172.9260  136.7000 C   0  0  0  0  0  3  0  0  0  0  0  0
  190.8310  170.8970  137.5810 C   0  0  0  0  0  0  0  0  0  0  0  0
  191.3920  173.5370  141.5660 O   0  0  0  0  0  0  0  0  0  0  0  0
  190.0220  172.6570  143.3560 C   0  0  0  0  0  2  0  0  0  0  0  0
  188.5790  174.0440  140.9740 O   0  0  0  0  0  0  0  0  0  0  0  0
  190.8310  173.8420  142.8160 C   0  0  2  0  0  3  0  0  0  0  0  0
  188.9270  172.1680  142.4020 C   0  0  0  0  0  2  0  0  0  0  0  0
  189.1140  175.2490  141.5020 C   0  0  2  0  0  3  0  0  0  0  0  0
  189.9740  175.1120  142.7740 C   0  0  0  0  0  2  0  0  0  0  0  0
  187.9770  173.2890  142.0030 C   0  0  0  0  0  2  0  0  0  0  0  0
  185.6690  176.3480  142.1320 O   0  0  0  0  0  0  0  0  0  0  0  0
  186.0550  176.4190  147.2460 O   0  0  0  0  0  0  0  0  0  0  0  0
  186.6490  179.4150  145.0700 C   0  0  0  0  0  2  0  0  0  0  0  0
  185.4620  177.4540  140.0740 O   0  0  0  0  0  0  0  0  0  0  0  0
  187.2450  176.8710  143.9090 C   0  0  0  0  0  2  0  0  0  0  0  0
  185.9210  179.1740  147.3510 C   0  0  0  0  0  0  0  0  0  0  0  0
  187.5880  176.6870  140.3580 O   0  0  0  0  0  0  0  0  0  0  0  0
  184.9020  178.7970  142.0410 C   0  0  2  0  0  3  0  0  0  0  0  0
  186.5240  176.3450  145.0180 O   0  0  0  0  0  0  0  0  0  0  0  0
  185.6610  177.5940  141.4580 C   0  0  1  0  0  0  0  0  0  0  0  0
  185.4210  179.9180  144.3160 C   0  0  0  0  0  2  0  0  0  0  0  0
  185.5660  179.7520  148.3900 O   0  0  0  0  0  0  0  0  0  0  0  0
  186.9710  176.0790  142.6390 C   0  0  2  0  0  3  0  0  0  0  0  0
  186.7630  177.8200  140.4780 C   0  0  2  0  0  3  0  0  0  0  0  0
  184.7620  178.8250  143.5380 C   0  0  0  0  0  0  0  0  0  0  0  0
  186.2910  178.5660  146.2500 C   0  0  0  0  0  0  0  0  0  0  0  0
  184.0850  177.9930  144.1170 O   0  0  0  0  0  0  0  0  0  0  0  0
  186.2970  177.0730  146.1930 C   0  0  0  0  0  0  0  0  0  0  0  0
  188.1020  176.3890  141.6320 C   0  0  1  0  0  3  0  0  0  0  0  0
  183.7240  179.1470  141.3380 O   0  0  0  0  0  0  0  0  0  0  0  0
  181.7010  179.0150  142.3880 O   0  0  0  0  0  1  0  0  0  0  0  0
  182.0710  177.6500  140.4860 C   0  0  0  0  0  1  0  0  0  0  0  0
  182.6810  178.2870  141.7180 C   0  0  1  0  0  3  0  0  0  0  0  0
  1  6  1  0  0  0  0
  2 34  1  6  0  0  0
  2  5  1  0  0  0  0
  3  7  1  6  0  0  0
  3  5  1  0  0  0  0
  4 26  1  1  0  0  0
  4  1  1  0  0  0  0
  4  2  1  0  0  0  0
  6  3  1  0  0  0  0
  7  9  1  0  0  0  0
  8  7  2  0  0  0  0
  9 11  1  0  0  0  0
 11 12  2  6  0  0  0
 11 10  1  0  0  0  0
 11 14  1  0  0  0  0
 14 16  1  0  0  0  0
 14 13  2  0  0  0  0
 15 16  2  0  0  0  0
 16 18  1  0  0  0  0
 18 17  1  6  0  0  0
 19 18  1  0  0  0  0
 19 20  1  0  0  0  0
 20 21  1  6  0  0  0
 20 23  1  0  0  0  0
 23 22  2  0  0  0  0
 24 23  1  0  0  0  0
 24 25  1  0  0  0  0
 27 26  1  0  0  0  0
 28 32  1  0  0  0  0
 29 28  2  0  0  0  0
 29 31  1  0  0  0  0
 31 33  2  0  0  0  0
 32 30  2  0  0  0  0
 33 30  1  0  0  0  0
 33 27  1  0  0  0  0
 36 39  1  0  0  0  0
 36 41  1  0  0  0  0
 37 34  1  6  0  0  0
 37 35  1  0  0  0  0
 38 35  1  0  0  0  0
 39 60  1  0  0  0  0
 39 40  1  1  0  0  0
 40 37  1  0  0  0  0
 41 38  1  0  0  0  0
 42 54  1  0  0  0  0
 44 57  1  0  0  0  0
 46 50  1  0  0  0  0
 47 53  2  0  0  0  0
 48 55  1  0  0  0  0
 49 61  1  6  0  0  0
 49 56  1  0  0  0  0
 50 59  1  0  0  0  0
 51 45  1  6  0  0  0
 51 49  1  0  0  0  0
 51 42  1  0  0  0  0
 52 44  1  0  0  0  0
 54 46  1  1  0  0  0
 55 45  1  6  0  0  0
 55 51  1  0  0  0  0
 56 58  2  0  0  0  0
 56 52  1  0  0  0  0
 57 47  2  0  0  0  0
 59 57  1  0  0  0  0
 59 43  2  0  0  0  0
 60 48  1  6  0  0  0
 60 54  1  0  0  0  0
 61 64  1  0  0  0  0
 64 63  1  6  0  0  0
 64 62  1  0  0  0  0
M  END
>  <MODEL>
9

>  <REMARK>
 VINA RESULT:      -6.7      2.751      7.136
  Name = 
  18 active torsions:
  status: ('A' for Active; 'I' for Inactive)
    1  A    between atoms: C_1  and  O_25
    2  A    between atoms: C_1  and  C_35
    3  A    between atoms: N_2  and  C_54
    4  A    between atoms: N_2  and  C_58
    5  A    between atoms: O_6  and  C_17
    6  A    between atoms: O_6  and  C_64
    7  A    between atoms: O_12  and  C_27
    8  A    between atoms: O_12  and  C_32
    9  A    between atoms: P_20  and  C_24
   10  A    between atoms: P_20  and  O_25
   11  A    between atoms: C_24  and  C_53
   12  A    between atoms: C_36  and  C_38
   13  A    between atoms: C_36  and  C_49
   14  A    between atoms: C_37  and  C_63
   15  A    between atoms: C_38  and  C_46
   16  A    between atoms: C_40  and  C_58
   17  A    between atoms: C_42  and  C_46
   18  A    between atoms: C_49  and  C_53
                            x       y       z     vdW  Elec       q    Type
                         _______ _______ _______ _____ _____    ______ ____

>  <TORSDO>
F 18

$$$$
