=
 OpenBabel11062422313D

 43 47  0  0  1  0  0  0  0  0999 V2000
  186.1530  178.1900  147.4110 N   0  0  0  0  0  2  0  0  0  0  0  0
  185.1210  177.4020  146.6980 C   0  0  2  0  0  3  0  0  0  0  0  0
  185.6560  176.2560  145.8160 C   0  0  0  0  0  2  0  0  0  0  0  0
  187.5240  177.8300  147.0350 C   0  0  0  0  0  2  0  0  0  0  0  0
  184.1720  178.2150  146.0330 O   0  0  0  0  0  0  0  0  0  0  0  0
  184.6020  178.9060  143.7410 C   0  0  2  0  0  3  0  0  0  0  0  0
  187.6820  177.8070  145.5160 C   0  0  0  0  0  2  0  0  0  0  0  0
  186.3680  177.1000  143.4650 C   0  0  2  0  0  3  0  0  0  0  0  0
  186.7960  176.7240  144.8950 C   0  0  2  0  0  3  0  0  0  0  0  0
  184.8860  177.4620  143.3340 C   0  0  0  0  0  2  0  0  0  0  0  0
  184.8490  179.1520  145.2270 C   0  0  0  0  0  2  0  0  0  0  0  0
  187.9710  177.7370  141.2070 C   0  0  0  0  0  1  0  0  0  0  0  0
  186.6790  175.9360  142.5280 C   0  0  1  0  0  3  0  0  0  0  0  0
  187.5400  176.2800  141.3020 C   0  0  2  0  0  3  0  0  0  0  0  0
  188.1690  175.6570  142.5330 C   0  0  2  0  0  3  0  0  0  0  0  0
  188.3830  174.1740  142.3140 C   0  0  0  0  0  2  0  0  0  0  0  0
  189.8220  173.9120  141.8980 C   0  0  0  0  0  2  0  0  0  0  0  0
  191.1840  175.8010  148.1620 C   0  0  0  0  0  3  0  0  0  0  0  0
  193.7140  176.1370  143.9460 O   0  0  0  0  0  1  0  0  0  0  0  0
  191.5080  176.5760  142.6460 O   0  0  0  0  0  0  0  0  0  0  0  0
  192.0560  176.7570  146.1670 O   0  0  0  0  0  0  0  0  0  0  0  0
  190.1810  175.0370  147.3570 C   0  0  0  0  0  2  0  0  0  0  0  0
  189.9700  172.9490  144.3250 C   0  0  0  0  0  2  0  0  0  0  0  0
  192.0330  176.6320  147.5610 C   0  0  0  0  0  3  0  0  0  0  0  0
  190.6820  173.3490  143.0320 C   0  0  2  0  0  3  0  0  0  0  0  0
  191.1990  176.0100  145.2930 C   0  0  2  0  0  3  0  0  0  0  0  0
  190.7030  174.7140  145.9580 C   0  0  2  0  0  3  0  0  0  0  0  0
  192.0930  175.7000  143.7310 P   0  0  2  0  0  0  0  0  0  0  0  0
  189.5380  174.1380  145.1710 C   0  0  0  0  0  2  0  0  0  0  0  0
  192.0750  173.9540  143.1980 C   0  0  0  0  0  2  0  0  0  0  0  0
  183.1710  179.2840  143.3830 C   0  0  0  0  0  2  0  0  0  0  0  0
  182.7390  178.5740  142.1890 N   0  0  0  0  0  2  0  0  0  0  0  0
  181.2930  178.7150  142.0970 C   0  0  0  0  0  2  0  0  0  0  0  0
  180.8860  179.0560  140.6670 C   0  0  0  0  0  2  0  0  0  0  0  0
  179.3720  178.9810  140.4360 C   0  0  1  0  0  3  0  0  0  0  0  0
  177.7140  178.9970  142.0810 C   0  0  0  0  0  1  0  0  0  0  0  0
  178.7320  178.1680  141.4590 N   0  0  0  0  0  2  0  0  0  0  0  0
  178.7330  180.3610  140.3920 C   0  0  0  0  0  2  0  0  0  0  0  0
  179.1560  181.1010  139.1350 C   0  0  0  0  0  2  0  0  0  0  0  0
  178.2760  182.9850  140.2960 O   0  0  0  0  0  0  0  0  0  0  0  0
  179.4110  184.9200  138.5440 C   0  0  0  0  0  1  0  0  0  0  0  0
  178.9550  182.5650  139.3200 C   0  0  0  0  0  0  0  0  0  0  0  0
  179.5580  183.4810  138.4020 N   0  0  0  0  0  2  0  0  0  0  0  0
  2  3  1  6  0  0  0
  2  1  1  0  0  0  0
  4  1  1  0  0  0  0
  5  2  1  0  0  0  0
  6 31  1  1  0  0  0
  6 11  1  0  0  0  0
  7  4  1  0  0  0  0
  8 10  1  1  0  0  0
  8  9  1  0  0  0  0
  9  7  1  1  0  0  0
  9  3  1  0  0  0  0
 10  6  1  0  0  0  0
 11  5  1  0  0  0  0
 13 15  1  0  0  0  0
 13  8  1  1  0  0  0
 14 12  1  1  0  0  0
 14 13  1  0  0  0  0
 14 15  1  0  0  0  0
 15 16  1  6  0  0  0
 17 16  1  0  0  0  0
 21 24  1  0  0  0  0
 22 18  1  0  0  0  0
 23 29  1  0  0  0  0
 24 18  2  0  0  0  0
 25 17  1  1  0  0  0
 25 30  1  0  0  0  0
 25 23  1  0  0  0  0
 26 27  1  0  0  0  0
 26 21  1  1  0  0  0
 27 29  1  6  0  0  0
 27 22  1  0  0  0  0
 28 20  2  6  0  0  0
 28 19  1  0  0  0  0
 28 26  1  0  0  0  0
 30 28  1  0  0  0  0
 32 31  1  0  0  0  0
 33 32  1  0  0  0  0
 34 33  1  0  0  0  0
 35 38  1  1  0  0  0
 35 34  1  0  0  0  0
 35 37  1  0  0  0  0
 37 36  1  0  0  0  0
 39 42  1  0  0  0  0
 39 38  1  0  0  0  0
 42 40  2  0  0  0  0
 43 41  1  0  0  0  0
 43 42  1  0  0  0  0
M  END
>  <MODEL>
1

>  <REMARK>
 VINA RESULT:      -7.7      0.000      0.000
  Name = 
  13 active torsions:
  status: ('A' for Active; 'I' for Inactive)
    1  A    between atoms: C_1  and  C_23
    2  A    between atoms: C_1  and  C_42
    3  A    between atoms: N_4  and  C_5
    4  A    between atoms: N_4  and  C_12
    5  A    between atoms: C_5  and  C_25
    6  A    between atoms: C_8  and  C_12
    7  A    between atoms: C_8  and  C_23
    8  A    between atoms: C_20  and  C_32
    9  A    between atoms: C_21  and  C_29
   10  A    between atoms: C_21  and  C_35
   11  A    between atoms: C_23  and  N_31
   12  A    between atoms: C_27  and  C_42
   13  A    between atoms: C_34  and  C_35
                            x       y       z     vdW  Elec       q    Type
                         _______ _______ _______ _____ _____    ______ ____

>  <TORSDO>
F 13

$$$$
=
 OpenBabel11062422313D

 43 47  0  0  1  0  0  0  0  0999 V2000
  185.1450  178.8820  147.9290 N   0  0  0  0  0  2  0  0  0  0  0  0
  184.7370  177.9060  146.8930 C   0  0  2  0  0  3  0  0  0  0  0  0
  185.6840  176.7040  146.7050 C   0  0  0  0  0  2  0  0  0  0  0  0
  186.4680  178.6060  148.5000 C   0  0  0  0  0  2  0  0  0  0  0  0
  184.3780  178.5230  145.6690 O   0  0  0  0  0  0  0  0  0  0  0  0
  186.0940  178.9220  143.9930 C   0  0  2  0  0  3  0  0  0  0  0  0
  187.5000  178.3840  147.3970 C   0  0  0  0  0  2  0  0  0  0  0  0
  187.6630  177.2720  145.1220 C   0  0  2  0  0  3  0  0  0  0  0  0
  187.1520  177.1440  146.5680 C   0  0  2  0  0  3  0  0  0  0  0  0
  186.5540  177.4690  144.0850 C   0  0  0  0  0  2  0  0  0  0  0  0
  185.4080  179.3970  145.2720 C   0  0  0  0  0  2  0  0  0  0  0  0
  190.2770  177.7380  144.1100 C   0  0  0  0  0  1  0  0  0  0  0  0
  188.4630  176.0230  144.7630 C   0  0  1  0  0  3  0  0  0  0  0  0
  189.8740  176.2730  144.2080 C   0  0  2  0  0  3  0  0  0  0  0  0
  189.6740  175.9110  145.6670 C   0  0  2  0  0  3  0  0  0  0  0  0
  189.9790  174.4450  145.8860 C   0  0  0  0  0  2  0  0  0  0  0  0
  190.5520  173.8370  144.6150 C   0  0  0  0  0  2  0  0  0  0  0  0
  196.4590  176.7950  143.6060 C   0  0  0  0  0  3  0  0  0  0  0  0
  193.8540  173.5480  140.9670 O   0  0  0  0  0  0  0  0  0  0  0  0
  191.6490  174.7130  141.6950 O   0  0  0  0  0  1  0  0  0  0  0  0
  194.9790  175.9690  141.9380 O   0  0  0  0  0  0  0  0  0  0  0  0
  195.3880  176.6320  144.6370 C   0  0  0  0  0  2  0  0  0  0  0  0
  192.8780  174.1750  145.7610 C   0  0  0  0  0  2  0  0  0  0  0  0
  196.2130  176.5020  142.3310 C   0  0  0  0  0  3  0  0  0  0  0  0
  192.0130  173.4060  144.7610 C   0  0  2  0  0  3  0  0  0  0  0  0
  193.9120  175.6920  142.8540 C   0  0  2  0  0  3  0  0  0  0  0  0
  194.4330  175.4930  144.2880 C   0  0  2  0  0  3  0  0  0  0  0  0
  192.9800  174.2460  142.2370 P   0  0  2  0  0  0  0  0  0  0  0  0
  193.2790  175.5600  145.2750 C   0  0  0  0  0  2  0  0  0  0  0  0
  192.7200  172.9420  143.4880 C   0  0  0  0  0  2  0  0  0  0  0  0
  185.1610  179.1070  142.8040 C   0  0  0  0  0  2  0  0  0  0  0  0
  184.4100  177.8870  142.5490 N   0  0  0  0  0  2  0  0  0  0  0  0
  184.3750  177.6900  141.1080 C   0  0  0  0  0  2  0  0  0  0  0  0
  185.6990  178.1220  140.4840 C   0  0  0  0  0  2  0  0  0  0  0  0
  186.5190  176.9490  139.9340 C   0  0  1  0  0  3  0  0  0  0  0  0
  186.4610  176.2700  137.7000 C   0  0  0  0  0  1  0  0  0  0  0  0
  187.0310  177.2520  138.6070 N   0  0  0  0  0  2  0  0  0  0  0  0
  187.6650  176.5700  140.8610 C   0  0  0  0  0  2  0  0  0  0  0  0
  187.4010  175.2220  141.5080 C   0  0  0  0  0  2  0  0  0  0  0  0
  188.8650  174.3830  139.8280 O   0  0  0  0  0  0  0  0  0  0  0  0
  189.6060  172.0470  141.2760 C   0  0  0  0  0  1  0  0  0  0  0  0
  188.3460  174.2080  140.9640 C   0  0  0  0  0  0  0  0  0  0  0  0
  188.6750  173.0590  141.7480 N   0  0  0  0  0  2  0  0  0  0  0  0
  1  4  1  0  0  0  0
  2  3  1  6  0  0  0
  2  1  1  0  0  0  0
  5  2  1  0  0  0  0
  6 31  1  6  0  0  0
  6 10  1  0  0  0  0
  6 11  1  0  0  0  0
  7  4  1  0  0  0  0
  8 10  1  6  0  0  0
  8  9  1  0  0  0  0
  9  3  1  6  0  0  0
  9  7  1  0  0  0  0
 11  5  1  0  0  0  0
 13  8  1  1  0  0  0
 13 15  1  0  0  0  0
 14 12  1  1  0  0  0
 14 13  1  0  0  0  0
 14 15  1  0  0  0  0
 15 16  1  6  0  0  0
 17 16  1  0  0  0  0
 18 22  1  0  0  0  0
 20 28  1  0  0  0  0
 21 24  1  0  0  0  0
 24 18  2  0  0  0  0
 25 17  1  6  0  0  0
 25 23  1  0  0  0  0
 26 21  1  6  0  0  0
 26 27  1  0  0  0  0
 27 22  1  1  0  0  0
 27 29  1  0  0  0  0
 28 19  2  6  0  0  0
 28 26  1  0  0  0  0
 28 30  1  0  0  0  0
 29 23  1  0  0  0  0
 30 25  1  0  0  0  0
 32 31  1  0  0  0  0
 33 32  1  0  0  0  0
 34 33  1  0  0  0  0
 35 34  1  1  0  0  0
 35 38  1  0  0  0  0
 36 37  1  0  0  0  0
 37 35  1  0  0  0  0
 38 39  1  0  0  0  0
 40 42  2  0  0  0  0
 41 43  1  0  0  0  0
 42 39  1  0  0  0  0
 42 43  1  0  0  0  0
M  END
>  <MODEL>
2

>  <REMARK>
 VINA RESULT:      -7.7      3.768      6.202
  Name = 
  13 active torsions:
  status: ('A' for Active; 'I' for Inactive)
    1  A    between atoms: C_1  and  C_23
    2  A    between atoms: C_1  and  C_42
    3  A    between atoms: N_4  and  C_5
    4  A    between atoms: N_4  and  C_12
    5  A    between atoms: C_5  and  C_25
    6  A    between atoms: C_8  and  C_12
    7  A    between atoms: C_8  and  C_23
    8  A    between atoms: C_20  and  C_32
    9  A    between atoms: C_21  and  C_29
   10  A    between atoms: C_21  and  C_35
   11  A    between atoms: C_23  and  N_31
   12  A    between atoms: C_27  and  C_42
   13  A    between atoms: C_34  and  C_35
                            x       y       z     vdW  Elec       q    Type
                         _______ _______ _______ _____ _____    ______ ____

>  <TORSDO>
F 13

$$$$
=
 OpenBabel11062422313D

 43 47  0  0  1  0  0  0  0  0999 V2000
  189.5500  175.2410  147.3470 N   0  0  0  0  0  2  0  0  0  0  0  0
  189.6310  174.9040  145.9070 C   0  0  2  0  0  3  0  0  0  0  0  0
  191.0140  174.4340  145.4140 C   0  0  0  0  0  2  0  0  0  0  0  0
  190.8490  175.2060  148.0270 C   0  0  0  0  0  2  0  0  0  0  0  0
  189.0580  175.8990  145.0770 O   0  0  0  0  0  0  0  0  0  0  0  0
  190.4510  177.7250  144.2800 C   0  0  2  0  0  3  0  0  0  0  0  0
  191.8920  176.0030  147.2480 C   0  0  0  0  0  2  0  0  0  0  0  0
  192.5670  176.4350  144.8410 C   0  0  2  0  0  3  0  0  0  0  0  0
  192.1400  175.3760  145.8730 C   0  0  2  0  0  3  0  0  0  0  0  0
  191.5030  176.7370  143.7830 C   0  0  0  0  0  2  0  0  0  0  0  0
  189.6040  177.1530  145.4140 C   0  0  0  0  0  2  0  0  0  0  0  0
  194.9700  177.6720  145.7190 C   0  0  0  0  0  1  0  0  0  0  0  0
  193.8420  175.9670  144.1440 C   0  0  1  0  0  3  0  0  0  0  0  0
  195.1420  176.6400  144.6120 C   0  0  2  0  0  3  0  0  0  0  0  0
  194.7490  175.2750  145.1420 C   0  0  2  0  0  3  0  0  0  0  0  0
  195.5240  174.1940  144.4210 C   0  0  0  0  0  2  0  0  0  0  0  0
  194.6470  172.9660  144.2290 C   0  0  0  0  0  2  0  0  0  0  0  0
  190.5380  172.5970  138.9710 C   0  0  0  0  0  3  0  0  0  0  0  0
  191.8450  169.3340  142.4270 O   0  0  0  0  0  0  0  0  0  0  0  0
  191.9120  171.2290  144.2030 O   0  0  0  0  0  1  0  0  0  0  0  0
  190.4160  171.3060  140.9650 O   0  0  0  0  0  0  0  0  0  0  0  0
  191.5420  173.4980  139.6170 C   0  0  0  0  0  2  0  0  0  0  0  0
  194.6210  173.3340  141.6400 C   0  0  0  0  0  2  0  0  0  0  0  0
  190.0030  171.5890  139.6570 C   0  0  0  0  0  3  0  0  0  0  0  0
  194.7460  172.3720  142.8220 C   0  0  2  0  0  3  0  0  0  0  0  0
  191.4310  172.0520  141.6510 C   0  0  2  0  0  3  0  0  0  0  0  0
  192.3750  172.7630  140.6650 C   0  0  2  0  0  3  0  0  0  0  0  0
  192.3170  170.9200  142.7790 P   0  0  2  0  0  0  0  0  0  0  0  0
  193.1970  173.8110  141.3960 C   0  0  0  0  0  2  0  0  0  0  0  0
  194.1340  170.9860  142.6210 C   0  0  0  0  0  2  0  0  0  0  0  0
  189.5530  178.1650  143.1310 C   0  0  0  0  0  2  0  0  0  0  0  0
  189.3440  177.0680  142.1980 N   0  0  0  0  0  2  0  0  0  0  0  0
  188.0330  177.2530  141.5950 C   0  0  0  0  0  2  0  0  0  0  0  0
  186.9600  177.3290  142.6770 C   0  0  0  0  0  2  0  0  0  0  0  0
  185.9480  178.4580  142.4460 C   0  0  1  0  0  3  0  0  0  0  0  0
  184.7230  178.2290  140.4710 C   0  0  0  0  0  1  0  0  0  0  0  0
  184.7080  177.9350  141.8940 N   0  0  0  0  0  2  0  0  0  0  0  0
  185.6640  179.2380  143.7220 C   0  0  0  0  0  2  0  0  0  0  0  0
  184.4480  178.6680  144.4320 C   0  0  0  0  0  2  0  0  0  0  0  0
  184.1720  178.7160  146.7960 O   0  0  0  0  0  0  0  0  0  0  0  0
  186.2760  176.8780  147.3380 C   0  0  0  0  0  1  0  0  0  0  0  0
  184.8180  178.2590  145.8140 C   0  0  0  0  0  0  0  0  0  0  0  0
  185.8850  177.3280  146.0130 N   0  0  0  0  0  2  0  0  0  0  0  0
  1  4  1  0  0  0  0
  2  3  1  6  0  0  0
  2  1  1  0  0  0  0
  5 11  1  0  0  0  0
  5  2  1  0  0  0  0
  6 31  1  6  0  0  0
  6 11  1  0  0  0  0
  7  4  1  0  0  0  0
  8 10  1  6  0  0  0
  8  9  1  0  0  0  0
  9  3  1  6  0  0  0
  9  7  1  0  0  0  0
 10  6  1  0  0  0  0
 13 14  1  0  0  0  0
 13  8  1  1  0  0  0
 13 15  1  0  0  0  0
 14 15  1  0  0  0  0
 14 12  1  1  0  0  0
 15 16  1  6  0  0  0
 17 16  1  0  0  0  0
 18 22  1  0  0  0  0
 18 24  2  0  0  0  0
 23 25  1  0  0  0  0
 24 21  1  0  0  0  0
 25 17  1  1  0  0  0
 26 21  1  6  0  0  0
 26 28  1  0  0  0  0
 27 22  1  6  0  0  0
 27 29  1  0  0  0  0
 27 26  1  0  0  0  0
 28 19  2  6  0  0  0
 28 20  1  0  0  0  0
 29 23  1  0  0  0  0
 30 28  1  0  0  0  0
 30 25  1  0  0  0  0
 32 31  1  0  0  0  0
 33 32  1  0  0  0  0
 33 34  1  0  0  0  0
 35 34  1  1  0  0  0
 35 38  1  0  0  0  0
 36 37  1  0  0  0  0
 37 35  1  0  0  0  0
 38 39  1  0  0  0  0
 39 42  1  0  0  0  0
 42 43  1  0  0  0  0
 42 40  2  0  0  0  0
 43 41  1  0  0  0  0
M  END
>  <MODEL>
3

>  <REMARK>
 VINA RESULT:      -7.6      3.940      7.123
  Name = 
  13 active torsions:
  status: ('A' for Active; 'I' for Inactive)
    1  A    between atoms: C_1  and  C_23
    2  A    between atoms: C_1  and  C_42
    3  A    between atoms: N_4  and  C_5
    4  A    between atoms: N_4  and  C_12
    5  A    between atoms: C_5  and  C_25
    6  A    between atoms: C_8  and  C_12
    7  A    between atoms: C_8  and  C_23
    8  A    between atoms: C_20  and  C_32
    9  A    between atoms: C_21  and  C_29
   10  A    between atoms: C_21  and  C_35
   11  A    between atoms: C_23  and  N_31
   12  A    between atoms: C_27  and  C_42
   13  A    between atoms: C_34  and  C_35
                            x       y       z     vdW  Elec       q    Type
                         _______ _______ _______ _____ _____    ______ ____

>  <TORSDO>
F 13

$$$$
=
 OpenBabel11062422313D

 43 47  0  0  1  0  0  0  0  0999 V2000
  184.6600  178.5390  147.1110 N   0  0  0  0  0  2  0  0  0  0  0  0
  184.8680  177.4050  146.1820 C   0  0  2  0  0  3  0  0  0  0  0  0
  186.0830  176.5070  146.4940 C   0  0  0  0  0  2  0  0  0  0  0  0
  185.7410  178.6960  148.0900 C   0  0  0  0  0  2  0  0  0  0  0  0
  184.8030  177.7910  144.8210 O   0  0  0  0  0  0  0  0  0  0  0  0
  186.8330  178.5160  143.6940 C   0  0  2  0  0  3  0  0  0  0  0  0
  187.1040  178.6820  147.4020 C   0  0  0  0  0  2  0  0  0  0  0  0
  188.2800  177.4750  145.5050 C   0  0  2  0  0  3  0  0  0  0  0  0
  187.3600  177.3300  146.7310 C   0  0  2  0  0  3  0  0  0  0  0  0
  187.5690  177.2640  144.1660 C   0  0  0  0  0  2  0  0  0  0  0  0
  185.6660  178.8830  144.6080 C   0  0  0  0  0  2  0  0  0  0  0  0
  190.7220  178.2670  144.2850 C   0  0  0  0  0  1  0  0  0  0  0  0
  189.4280  176.4760  145.6210 C   0  0  1  0  0  3  0  0  0  0  0  0
  190.7480  176.8990  144.9560 C   0  0  2  0  0  3  0  0  0  0  0  0
  190.5480  177.0750  146.4480 C   0  0  2  0  0  3  0  0  0  0  0  0
  191.2410  175.9600  147.2010 C   0  0  0  0  0  2  0  0  0  0  0  0
  191.8140  174.9480  146.2200 C   0  0  0  0  0  2  0  0  0  0  0  0
  197.3770  176.1440  142.7150 C   0  0  0  0  0  3  0  0  0  0  0  0
  194.6680  172.0840  143.4020 O   0  0  0  0  0  1  0  0  0  0  0  0
  192.5010  173.5180  143.3960 O   0  0  0  0  0  0  0  0  0  0  0  0
  195.7580  174.4560  142.2820 O   0  0  0  0  0  0  0  0  0  0  0  0
  196.4470  176.7820  143.6980 C   0  0  0  0  0  2  0  0  0  0  0  0
  194.2360  175.8880  146.5110 C   0  0  0  0  0  2  0  0  0  0  0  0
  196.9980  175.0610  142.0400 C   0  0  0  0  0  3  0  0  0  0  0  0
  193.3040  174.6780  146.4370 C   0  0  2  0  0  3  0  0  0  0  0  0
  194.8260  174.9320  143.2620 C   0  0  2  0  0  3  0  0  0  0  0  0
  195.5250  175.7580  144.3560 C   0  0  2  0  0  3  0  0  0  0  0  0
  193.9130  173.5010  143.9370 P   0  0  2  0  0  0  0  0  0  0  0  0
  194.4960  176.5360  145.1590 C   0  0  0  0  0  2  0  0  0  0  0  0
  193.8790  173.4350  145.7610 C   0  0  0  0  0  2  0  0  0  0  0  0
  186.3360  178.3300  142.2660 C   0  0  0  0  0  2  0  0  0  0  0  0
  187.4550  178.1150  141.3610 N   0  0  0  0  0  2  0  0  0  0  0  0
  187.1010  177.0060  140.4880 C   0  0  0  0  0  2  0  0  0  0  0  0
  187.2100  175.6840  141.2420 C   0  0  0  0  0  2  0  0  0  0  0  0
  188.4830  174.8990  140.9040 C   0  0  1  0  0  3  0  0  0  0  0  0
  189.1830  174.1460  143.0010 C   0  0  0  0  0  1  0  0  0  0  0  0
  189.4930  175.0820  141.9340 N   0  0  0  0  0  2  0  0  0  0  0  0
  188.2030  173.4160  140.7070 C   0  0  0  0  0  2  0  0  0  0  0  0
  188.8650  172.9160  139.4360 C   0  0  0  0  0  2  0  0  0  0  0  0
  191.1560  172.4180  139.0180 O   0  0  0  0  0  0  0  0  0  0  0  0
  191.4900  170.7900  141.3290 C   0  0  0  0  0  1  0  0  0  0  0  0
  190.1550  172.2500  139.7670 C   0  0  0  0  0  0  0  0  0  0  0  0
  190.2520  171.4480  140.9460 N   0  0  0  0  0  2  0  0  0  0  0  0
  1  4  1  0  0  0  0
  2  3  1  1  0  0  0
  2  1  1  0  0  0  0
  5  2  1  0  0  0  0
  6 31  1  6  0  0  0
  6 10  1  0  0  0  0
  6 11  1  0  0  0  0
  7  4  1  0  0  0  0
  8 10  1  6  0  0  0
  8  9  1  0  0  0  0
  9  3  1  6  0  0  0
  9  7  1  0  0  0  0
 11  5  1  0  0  0  0
 13  8  1  6  0  0  0
 13 15  1  0  0  0  0
 14 12  1  6  0  0  0
 14 13  1  0  0  0  0
 14 15  1  0  0  0  0
 15 16  1  1  0  0  0
 17 16  1  0  0  0  0
 18 22  1  0  0  0  0
 19 28  1  0  0  0  0
 24 21  1  0  0  0  0
 24 18  2  0  0  0  0
 25 17  1  6  0  0  0
 25 23  1  0  0  0  0
 26 21  1  6  0  0  0
 26 28  1  0  0  0  0
 26 27  1  0  0  0  0
 27 22  1  6  0  0  0
 27 29  1  0  0  0  0
 28 20  2  6  0  0  0
 28 30  1  0  0  0  0
 29 23  1  0  0  0  0
 30 25  1  0  0  0  0
 32 31  1  0  0  0  0
 33 34  1  0  0  0  0
 33 32  1  0  0  0  0
 35 38  1  1  0  0  0
 35 34  1  0  0  0  0
 35 37  1  0  0  0  0
 37 36  1  0  0  0  0
 39 42  1  0  0  0  0
 39 38  1  0  0  0  0
 40 42  2  0  0  0  0
 42 43  1  0  0  0  0
 43 41  1  0  0  0  0
M  END
>  <MODEL>
4

>  <REMARK>
 VINA RESULT:      -7.5      4.545      7.639
  Name = 
  13 active torsions:
  status: ('A' for Active; 'I' for Inactive)
    1  A    between atoms: C_1  and  C_23
    2  A    between atoms: C_1  and  C_42
    3  A    between atoms: N_4  and  C_5
    4  A    between atoms: N_4  and  C_12
    5  A    between atoms: C_5  and  C_25
    6  A    between atoms: C_8  and  C_12
    7  A    between atoms: C_8  and  C_23
    8  A    between atoms: C_20  and  C_32
    9  A    between atoms: C_21  and  C_29
   10  A    between atoms: C_21  and  C_35
   11  A    between atoms: C_23  and  N_31
   12  A    between atoms: C_27  and  C_42
   13  A    between atoms: C_34  and  C_35
                            x       y       z     vdW  Elec       q    Type
                         _______ _______ _______ _____ _____    ______ ____

>  <TORSDO>
F 13

$$$$
=
 OpenBabel11062422313D

 43 47  0  0  1  0  0  0  0  0999 V2000
  184.8690  178.7990  147.3320 N   0  0  0  0  0  2  0  0  0  0  0  0
  184.5900  177.5960  146.5150 C   0  0  2  0  0  3  0  0  0  0  0  0
  185.7170  176.5430  146.4800 C   0  0  0  0  0  2  0  0  0  0  0  0
  186.2390  178.8450  147.8520 C   0  0  0  0  0  2  0  0  0  0  0  0
  184.0880  177.9100  145.2290 O   0  0  0  0  0  0  0  0  0  0  0  0
  185.6500  178.2540  143.3970 C   0  0  2  0  0  3  0  0  0  0  0  0
  187.2520  178.5860  146.7400 C   0  0  0  0  0  2  0  0  0  0  0  0
  187.5130  177.1100  144.6930 C   0  0  2  0  0  3  0  0  0  0  0  0
  187.0840  177.1750  146.1690 C   0  0  2  0  0  3  0  0  0  0  0  0
  186.3490  176.9350  143.7140 C   0  0  0  0  0  2  0  0  0  0  0  0
  184.9430  178.8450  144.6140 C   0  0  0  0  0  2  0  0  0  0  0  0
  190.2050  177.8640  144.1780 C   0  0  0  0  0  1  0  0  0  0  0  0
  188.4960  175.9580  144.5080 C   0  0  1  0  0  3  0  0  0  0  0  0
  189.9510  176.3630  144.2220 C   0  0  2  0  0  3  0  0  0  0  0  0
  189.5220  175.9740  145.6230 C   0  0  2  0  0  3  0  0  0  0  0  0
  189.9370  174.5480  145.9180 C   0  0  0  0  0  2  0  0  0  0  0  0
  190.5210  173.9080  144.6680 C   0  0  0  0  0  2  0  0  0  0  0  0
  196.4760  176.6970  143.4740 C   0  0  0  0  0  3  0  0  0  0  0  0
  193.8190  173.3250  141.0520 O   0  0  0  0  0  0  0  0  0  0  0  0
  191.6320  174.5720  141.6980 O   0  0  0  0  0  1  0  0  0  0  0  0
  194.9820  175.7870  141.8620 O   0  0  0  0  0  0  0  0  0  0  0  0
  195.4020  176.6190  144.5120 C   0  0  0  0  0  2  0  0  0  0  0  0
  192.8520  174.2830  145.7920 C   0  0  0  0  0  2  0  0  0  0  0  0
  196.2250  176.3230  142.2210 C   0  0  0  0  0  3  0  0  0  0  0  0
  191.9750  173.4640  144.8440 C   0  0  2  0  0  3  0  0  0  0  0  0
  193.9110  175.5880  142.7930 C   0  0  2  0  0  3  0  0  0  0  0  0
  194.4280  175.4750  144.2380 C   0  0  2  0  0  3  0  0  0  0  0  0
  192.9560  174.1200  142.2720 P   0  0  2  0  0  0  0  0  0  0  0  0
  193.2760  175.6260  145.2170 C   0  0  0  0  0  2  0  0  0  0  0  0
  192.6740  172.9060  143.6060 C   0  0  0  0  0  2  0  0  0  0  0  0
  184.6560  178.0660  142.2590 C   0  0  0  0  0  2  0  0  0  0  0  0
  183.4070  178.7520  142.5530 N   0  0  0  0  0  2  0  0  0  0  0  0
  182.3980  178.2280  141.6450 C   0  0  0  0  0  2  0  0  0  0  0  0
  181.0610  178.9240  141.8840 C   0  0  0  0  0  2  0  0  0  0  0  0
  179.9010  178.2870  141.1090 C   0  0  1  0  0  3  0  0  0  0  0  0
  178.4460  178.3880  142.9320 C   0  0  0  0  0  1  0  0  0  0  0  0
  179.0730  177.4780  141.9890 N   0  0  0  0  0  2  0  0  0  0  0  0
  179.0480  179.3290  140.4010 C   0  0  0  0  0  2  0  0  0  0  0  0
  179.8290  180.6180  140.2180 C   0  0  0  0  0  2  0  0  0  0  0  0
  177.7720  181.7540  140.6040 O   0  0  0  0  0  0  0  0  0  0  0  0
  178.4010  183.9910  138.9600 C   0  0  0  0  0  1  0  0  0  0  0  0
  178.8880  181.7540  140.0160 C   0  0  0  0  0  0  0  0  0  0  0  0
  179.2710  182.8470  139.1780 N   0  0  0  0  0  2  0  0  0  0  0  0
  1  4  1  0  0  0  0
  2  3  1  6  0  0  0
  2  1  1  0  0  0  0
  5  2  1  0  0  0  0
  6 31  1  6  0  0  0
  6 10  1  0  0  0  0
  6 11  1  0  0  0  0
  7  4  1  0  0  0  0
  8 10  1  6  0  0  0
  8  9  1  0  0  0  0
  9  3  1  6  0  0  0
  9  7  1  0  0  0  0
 11  5  1  0  0  0  0
 13  8  1  1  0  0  0
 13 15  1  0  0  0  0
 14 12  1  1  0  0  0
 14 13  1  0  0  0  0
 14 15  1  0  0  0  0
 15 16  1  6  0  0  0
 17 16  1  0  0  0  0
 18 22  1  0  0  0  0
 20 28  1  0  0  0  0
 21 24  1  0  0  0  0
 24 18  2  0  0  0  0
 25 17  1  6  0  0  0
 25 23  1  0  0  0  0
 26 21  1  6  0  0  0
 26 27  1  0  0  0  0
 27 22  1  1  0  0  0
 27 29  1  0  0  0  0
 28 19  2  6  0  0  0
 28 26  1  0  0  0  0
 28 30  1  0  0  0  0
 29 23  1  0  0  0  0
 30 25  1  0  0  0  0
 31 32  1  0  0  0  0
 33 34  1  0  0  0  0
 33 32  1  0  0  0  0
 35 38  1  1  0  0  0
 35 34  1  0  0  0  0
 35 37  1  0  0  0  0
 37 36  1  0  0  0  0
 39 38  1  0  0  0  0
 41 43  1  0  0  0  0
 42 39  1  0  0  0  0
 42 40  2  0  0  0  0
 43 42  1  0  0  0  0
M  END
>  <MODEL>
5

>  <REMARK>
 VINA RESULT:      -7.5      2.016      2.920
  Name = 
  13 active torsions:
  status: ('A' for Active; 'I' for Inactive)
    1  A    between atoms: C_1  and  C_23
    2  A    between atoms: C_1  and  C_42
    3  A    between atoms: N_4  and  C_5
    4  A    between atoms: N_4  and  C_12
    5  A    between atoms: C_5  and  C_25
    6  A    between atoms: C_8  and  C_12
    7  A    between atoms: C_8  and  C_23
    8  A    between atoms: C_20  and  C_32
    9  A    between atoms: C_21  and  C_29
   10  A    between atoms: C_21  and  C_35
   11  A    between atoms: C_23  and  N_31
   12  A    between atoms: C_27  and  C_42
   13  A    between atoms: C_34  and  C_35
                            x       y       z     vdW  Elec       q    Type
                         _______ _______ _______ _____ _____    ______ ____

>  <TORSDO>
F 13

$$$$
=
 OpenBabel11062422313D

 43 47  0  0  1  0  0  0  0  0999 V2000
  189.6740  175.5030  147.4710 N   0  0  0  0  0  2  0  0  0  0  0  0
  189.3980  174.9890  146.1090 C   0  0  2  0  0  3  0  0  0  0  0  0
  190.5480  174.1940  145.4570 C   0  0  0  0  0  2  0  0  0  0  0  0
  191.0580  175.2890  147.9050 C   0  0  0  0  0  2  0  0  0  0  0  0
  188.8500  175.9730  145.2510 O   0  0  0  0  0  0  0  0  0  0  0  0
  190.3470  177.3740  143.9440 C   0  0  2  0  0  3  0  0  0  0  0  0
  192.0420  175.7620  146.8380 C   0  0  0  0  0  2  0  0  0  0  0  0
  192.2750  175.7600  144.3120 C   0  0  2  0  0  3  0  0  0  0  0  0
  191.8900  174.9390  145.5560 C   0  0  2  0  0  3  0  0  0  0  0  0
  191.0860  176.1420  143.4270 C   0  0  0  0  0  2  0  0  0  0  0  0
  189.6640  177.1220  145.2860 C   0  0  0  0  0  2  0  0  0  0  0  0
  194.9920  176.5450  144.5900 C   0  0  0  0  0  1  0  0  0  0  0  0
  193.2790  174.9660  143.4800 C   0  0  1  0  0  3  0  0  0  0  0  0
  194.7480  175.3940  143.6240 C   0  0  2  0  0  3  0  0  0  0  0  0
  194.2150  174.2030  144.3960 C   0  0  2  0  0  3  0  0  0  0  0  0
  194.6180  172.9150  143.7110 C   0  0  0  0  0  2  0  0  0  0  0  0
  193.4120  172.2940  143.0230 C   0  0  0  0  0  2  0  0  0  0  0  0
  190.2720  172.8740  137.1530 C   0  0  0  0  0  3  0  0  0  0  0  0
  190.6730  169.1660  140.3750 O   0  0  0  0  0  0  0  0  0  0  0  0
  190.5880  170.8580  142.3450 O   0  0  0  0  0  1  0  0  0  0  0  0
  189.6940  171.4110  138.9360 O   0  0  0  0  0  0  0  0  0  0  0  0
  191.2190  173.5990  138.0550 C   0  0  0  0  0  2  0  0  0  0  0  0
  193.8700  172.9180  140.5260 C   0  0  0  0  0  2  0  0  0  0  0  0
  189.5420  171.8630  137.6200 C   0  0  0  0  0  3  0  0  0  0  0  0
  193.7050  171.8350  141.5930 C   0  0  2  0  0  3  0  0  0  0  0  0
  190.6320  171.9760  139.8610 C   0  0  2  0  0  3  0  0  0  0  0  0
  191.7900  172.6810  139.1340 C   0  0  2  0  0  3  0  0  0  0  0  0
  191.2080  170.6530  140.9820 P   0  0  2  0  0  0  0  0  0  0  0  0
  192.5570  173.5610  140.1070 C   0  0  0  0  0  2  0  0  0  0  0  0
  193.0240  170.5470  141.1340 C   0  0  0  0  0  2  0  0  0  0  0  0
  189.3230  177.8450  142.9200 C   0  0  0  0  0  2  0  0  0  0  0  0
  188.9770  176.7640  142.0100 N   0  0  0  0  0  2  0  0  0  0  0  0
  187.6520  177.0490  141.4800 C   0  0  0  0  0  2  0  0  0  0  0  0
  186.6660  177.2810  142.6220 C   0  0  0  0  0  2  0  0  0  0  0  0
  185.7400  178.4800  142.3850 C   0  0  1  0  0  3  0  0  0  0  0  0
  184.2080  178.3540  140.6270 C   0  0  0  0  0  1  0  0  0  0  0  0
  184.4000  178.0360  142.0320 N   0  0  0  0  0  2  0  0  0  0  0  0
  185.6810  179.4020  143.5940 C   0  0  0  0  0  2  0  0  0  0  0  0
  184.4380  179.1190  144.4180 C   0  0  0  0  0  2  0  0  0  0  0  0
  183.9360  178.3720  146.6220 O   0  0  0  0  0  0  0  0  0  0  0  0
  186.6470  177.9230  147.3650 C   0  0  0  0  0  1  0  0  0  0  0  0
  184.8280  178.6260  145.7680 C   0  0  0  0  0  0  0  0  0  0  0  0
  186.2090  178.4200  146.0710 N   0  0  0  0  0  2  0  0  0  0  0  0
  1  4  1  0  0  0  0
  2  3  1  6  0  0  0
  2  1  1  0  0  0  0
  5 11  1  0  0  0  0
  5  2  1  0  0  0  0
  6 31  1  6  0  0  0
  6 11  1  0  0  0  0
  7  4  1  0  0  0  0
  8 10  1  6  0  0  0
  8  9  1  0  0  0  0
  9  3  1  6  0  0  0
  9  7  1  0  0  0  0
 10  6  1  0  0  0  0
 13 14  1  0  0  0  0
 13  8  1  1  0  0  0
 13 15  1  0  0  0  0
 14 15  1  0  0  0  0
 14 12  1  1  0  0  0
 15 16  1  6  0  0  0
 17 16  1  0  0  0  0
 18 24  2  0  0  0  0
 18 22  1  0  0  0  0
 23 25  1  0  0  0  0
 24 21  1  0  0  0  0
 25 17  1  1  0  0  0
 26 21  1  6  0  0  0
 26 28  1  0  0  0  0
 27 22  1  6  0  0  0
 27 26  1  0  0  0  0
 27 29  1  0  0  0  0
 28 19  2  6  0  0  0
 28 30  1  0  0  0  0
 28 20  1  0  0  0  0
 29 23  1  0  0  0  0
 30 25  1  0  0  0  0
 32 31  1  0  0  0  0
 33 32  1  0  0  0  0
 33 34  1  0  0  0  0
 35 34  1  1  0  0  0
 35 38  1  0  0  0  0
 36 37  1  0  0  0  0
 37 35  1  0  0  0  0
 38 39  1  0  0  0  0
 39 42  1  0  0  0  0
 42 43  1  0  0  0  0
 42 40  2  0  0  0  0
 43 41  1  0  0  0  0
M  END
>  <MODEL>
6

>  <REMARK>
 VINA RESULT:      -7.4      3.827      7.229
  Name = 
  13 active torsions:
  status: ('A' for Active; 'I' for Inactive)
    1  A    between atoms: C_1  and  C_23
    2  A    between atoms: C_1  and  C_42
    3  A    between atoms: N_4  and  C_5
    4  A    between atoms: N_4  and  C_12
    5  A    between atoms: C_5  and  C_25
    6  A    between atoms: C_8  and  C_12
    7  A    between atoms: C_8  and  C_23
    8  A    between atoms: C_20  and  C_32
    9  A    between atoms: C_21  and  C_29
   10  A    between atoms: C_21  and  C_35
   11  A    between atoms: C_23  and  N_31
   12  A    between atoms: C_27  and  C_42
   13  A    between atoms: C_34  and  C_35
                            x       y       z     vdW  Elec       q    Type
                         _______ _______ _______ _____ _____    ______ ____

>  <TORSDO>
F 13

$$$$
=
 OpenBabel11062422313D

 43 47  0  0  1  0  0  0  0  0999 V2000
  189.1590  175.0250  147.2640 N   0  0  0  0  0  2  0  0  0  0  0  0
  189.3260  174.7240  145.8240 C   0  0  2  0  0  3  0  0  0  0  0  0
  190.7490  174.3160  145.3930 C   0  0  0  0  0  2  0  0  0  0  0  0
  190.4220  175.0220  148.0100 C   0  0  0  0  0  2  0  0  0  0  0  0
  188.7590  175.7160  144.9870 O   0  0  0  0  0  0  0  0  0  0  0  0
  190.1220  177.6100  144.3010 C   0  0  2  0  0  3  0  0  0  0  0  0
  191.4730  175.8740  147.3030 C   0  0  0  0  0  2  0  0  0  0  0  0
  192.2540  176.3840  144.9430 C   0  0  2  0  0  3  0  0  0  0  0  0
  191.8140  175.2880  145.9300 C   0  0  2  0  0  3  0  0  0  0  0  0
  191.2340  176.6710  143.8380 C   0  0  0  0  0  2  0  0  0  0  0  0
  189.2410  176.9810  145.3770 C   0  0  0  0  0  2  0  0  0  0  0  0
  194.5780  177.5460  146.0940 C   0  0  0  0  0  1  0  0  0  0  0  0
  193.5790  175.9780  144.3030 C   0  0  1  0  0  3  0  0  0  0  0  0
  194.8360  176.6110  144.9200 C   0  0  2  0  0  3  0  0  0  0  0  0
  194.4160  175.2060  145.3030 C   0  0  2  0  0  3  0  0  0  0  0  0
  195.2500  174.1900  144.5510 C   0  0  0  0  0  2  0  0  0  0  0  0
  194.6620  173.9580  143.1680 C   0  0  0  0  0  2  0  0  0  0  0  0
  197.8050  175.5540  137.4900 C   0  0  0  0  0  3  0  0  0  0  0  0
  193.7830  172.8680  138.4420 O   0  0  0  0  0  0  0  0  0  0  0  0
  193.1380  174.4970  140.3600 O   0  0  0  0  0  1  0  0  0  0  0  0
  195.5010  175.0180  137.7380 O   0  0  0  0  0  0  0  0  0  0  0  0
  197.9410  175.6530  138.9760 C   0  0  0  0  0  2  0  0  0  0  0  0
  197.0180  173.8220  142.0410 C   0  0  0  0  0  2  0  0  0  0  0  0
  196.6220  175.2840  136.9420 C   0  0  0  0  0  3  0  0  0  0  0  0
  195.6200  173.2280  142.2230 C   0  0  2  0  0  3  0  0  0  0  0  0
  195.5370  175.0010  139.1720 C   0  0  2  0  0  3  0  0  0  0  0  0
  196.9580  174.7350  139.6990 C   0  0  2  0  0  3  0  0  0  0  0  0
  194.3240  173.7710  139.7670 P   0  0  2  0  0  0  0  0  0  0  0  0
  197.0360  175.0750  141.1780 C   0  0  0  0  0  2  0  0  0  0  0  0
  195.0010  172.5890  140.9820 C   0  0  0  0  0  2  0  0  0  0  0  0
  189.2680  178.0420  143.1160 C   0  0  0  0  0  2  0  0  0  0  0  0
  189.0850  176.9360  142.1890 N   0  0  0  0  0  2  0  0  0  0  0  0
  187.7700  177.0890  141.5840 C   0  0  0  0  0  2  0  0  0  0  0  0
  186.7100  177.2780  142.6650 C   0  0  0  0  0  2  0  0  0  0  0  0
  185.8180  178.5030  142.4290 C   0  0  1  0  0  3  0  0  0  0  0  0
  184.3300  178.2800  140.6430 C   0  0  0  0  0  1  0  0  0  0  0  0
  184.4660  178.0970  142.0780 N   0  0  0  0  0  2  0  0  0  0  0  0
  185.7880  179.4270  143.6370 C   0  0  0  0  0  2  0  0  0  0  0  0
  184.4630  179.3020  144.3680 C   0  0  0  0  0  2  0  0  0  0  0  0
  183.6980  178.4160  146.4410 O   0  0  0  0  0  0  0  0  0  0  0  0
  186.2990  177.9350  147.4920 C   0  0  0  0  0  1  0  0  0  0  0  0
  184.6860  178.7280  145.7230 C   0  0  0  0  0  0  0  0  0  0  0  0
  186.0210  178.5100  146.1860 N   0  0  0  0  0  2  0  0  0  0  0  0
  1  4  1  0  0  0  0
  2  3  1  6  0  0  0
  2  1  1  0  0  0  0
  5 11  1  0  0  0  0
  5  2  1  0  0  0  0
  6 31  1  6  0  0  0
  6 11  1  0  0  0  0
  7  4  1  0  0  0  0
  8 10  1  6  0  0  0
  8  9  1  0  0  0  0
  9  3  1  6  0  0  0
  9  7  1  0  0  0  0
 10  6  1  0  0  0  0
 13 14  1  0  0  0  0
 13  8  1  1  0  0  0
 13 15  1  0  0  0  0
 14 15  1  0  0  0  0
 14 12  1  1  0  0  0
 15 16  1  6  0  0  0
 17 16  1  0  0  0  0
 18 22  1  0  0  0  0
 23 25  1  0  0  0  0
 24 18  2  0  0  0  0
 24 21  1  0  0  0  0
 25 17  1  6  0  0  0
 26 21  1  6  0  0  0
 26 27  1  0  0  0  0
 26 28  1  0  0  0  0
 27 22  1  6  0  0  0
 27 29  1  0  0  0  0
 28 19  2  6  0  0  0
 28 20  1  0  0  0  0
 28 30  1  0  0  0  0
 29 23  1  0  0  0  0
 30 25  1  0  0  0  0
 32 31  1  0  0  0  0
 33 32  1  0  0  0  0
 33 34  1  0  0  0  0
 35 34  1  1  0  0  0
 35 38  1  0  0  0  0
 36 37  1  0  0  0  0
 37 35  1  0  0  0  0
 38 39  1  0  0  0  0
 39 42  1  0  0  0  0
 42 43  1  0  0  0  0
 42 40  2  0  0  0  0
 43 41  1  0  0  0  0
M  END
>  <MODEL>
7

>  <REMARK>
 VINA RESULT:      -7.3      3.813      7.470
  Name = 
  13 active torsions:
  status: ('A' for Active; 'I' for Inactive)
    1  A    between atoms: C_1  and  C_23
    2  A    between atoms: C_1  and  C_42
    3  A    between atoms: N_4  and  C_5
    4  A    between atoms: N_4  and  C_12
    5  A    between atoms: C_5  and  C_25
    6  A    between atoms: C_8  and  C_12
    7  A    between atoms: C_8  and  C_23
    8  A    between atoms: C_20  and  C_32
    9  A    between atoms: C_21  and  C_29
   10  A    between atoms: C_21  and  C_35
   11  A    between atoms: C_23  and  N_31
   12  A    between atoms: C_27  and  C_42
   13  A    between atoms: C_34  and  C_35
                            x       y       z     vdW  Elec       q    Type
                         _______ _______ _______ _____ _____    ______ ____

>  <TORSDO>
F 13

$$$$
=
 OpenBabel11062422313D

 43 47  0  0  1  0  0  0  0  0999 V2000
  196.9340  174.7320  144.6360 N   0  0  0  0  0  2  0  0  0  0  0  0
  196.1080  175.8230  144.0700 C   0  0  2  0  0  3  0  0  0  0  0  0
  194.7850  176.1040  144.8110 C   0  0  0  0  0  2  0  0  0  0  0  0
  196.2740  174.0060  145.7260 C   0  0  0  0  0  2  0  0  0  0  0  0
  195.9440  175.7170  142.6670 O   0  0  0  0  0  0  0  0  0  0  0  0
  194.0740  174.4360  141.7860 C   0  0  2  0  0  3  0  0  0  0  0  0
  194.8620  173.5880  145.3230 C   0  0  0  0  0  2  0  0  0  0  0  0
  192.8850  174.5150  144.0310 C   0  0  2  0  0  3  0  0  0  0  0  0
  193.9840  174.8160  145.0660 C   0  0  2  0  0  3  0  0  0  0  0  0
  193.0990  175.2000  142.6790 C   0  0  0  0  0  2  0  0  0  0  0  0
  195.4920  174.4200  142.3520 C   0  0  0  0  0  2  0  0  0  0  0  0
  191.0140  172.4200  144.4620 C   0  0  0  0  0  1  0  0  0  0  0  0
  191.5340  174.9440  144.5970 C   0  0  1  0  0  3  0  0  0  0  0  0
  190.5180  173.8140  144.8250 C   0  0  2  0  0  3  0  0  0  0  0  0
  191.3440  174.3490  145.9780 C   0  0  2  0  0  3  0  0  0  0  0  0
  190.5180  175.3090  146.8080 C   0  0  0  0  0  2  0  0  0  0  0  0
  189.1550  175.5120  146.1640 C   0  0  0  0  0  2  0  0  0  0  0  0
  183.7560  178.8030  144.0030 C   0  0  0  0  0  3  0  0  0  0  0  0
  188.0470  177.6570  141.8670 O   0  0  0  0  0  0  0  0  0  0  0  0
  188.0690  175.3780  143.1150 O   0  0  0  0  0  1  0  0  0  0  0  0
  185.3230  177.6110  142.6690 O   0  0  0  0  0  0  0  0  0  0  0  0
  184.3490  178.2020  145.2370 C   0  0  0  0  0  2  0  0  0  0  0  0
  187.6340  177.5470  146.7800 C   0  0  0  0  0  2  0  0  0  0  0  0
  184.2250  178.4700  142.8020 C   0  0  0  0  0  3  0  0  0  0  0  0
  188.7990  176.9870  145.9640 C   0  0  2  0  0  3  0  0  0  0  0  0
  186.0220  177.0450  143.7860 C   0  0  2  0  0  3  0  0  0  0  0  0
  185.8330  177.8890  145.0590 C   0  0  2  0  0  3  0  0  0  0  0  0
  187.7790  176.8460  143.3280 P   0  0  2  0  0  0  0  0  0  0  0  0
  186.2700  177.0950  146.2790 C   0  0  0  0  0  2  0  0  0  0  0  0
  188.9470  177.5400  144.5480 C   0  0  0  0  0  2  0  0  0  0  0  0
  194.0800  175.0270  140.3830 C   0  0  0  0  0  2  0  0  0  0  0  0
  194.3150  173.9870  139.3920 N   0  0  0  0  0  2  0  0  0  0  0  0
  193.1930  174.0080  138.4660 C   0  0  0  0  0  2  0  0  0  0  0  0
  192.2870  172.8040  138.7070 C   0  0  0  0  0  2  0  0  0  0  0  0
  190.9790  173.1660  139.4190 C   0  0  1  0  0  3  0  0  0  0  0  0
  189.4730  173.7150  137.7200 C   0  0  0  0  0  1  0  0  0  0  0  0
  189.8310  172.6770  138.6710 N   0  0  0  0  0  2  0  0  0  0  0  0
  190.9380  172.6340  140.8440 C   0  0  0  0  0  2  0  0  0  0  0  0
  191.9240  171.4910  141.0110 C   0  0  0  0  0  2  0  0  0  0  0  0
  190.5930  169.7530  141.9450 O   0  0  0  0  0  0  0  0  0  0  0  0
  190.4980  168.1940  139.5650 C   0  0  0  0  0  1  0  0  0  0  0  0
  191.2060  170.1890  140.9340 C   0  0  0  0  0  0  0  0  0  0  0  0
  191.1980  169.4610  139.7040 N   0  0  0  0  0  2  0  0  0  0  0  0
  1  4  1  0  0  0  0
  2  1  1  0  0  0  0
  2  3  1  1  0  0  0
  5  2  1  0  0  0  0
  6 31  1  6  0  0  0
  6 11  1  0  0  0  0
  6 10  1  0  0  0  0
  7  4  1  0  0  0  0
  8 10  1  6  0  0  0
  8  9  1  0  0  0  0
  9  3  1  6  0  0  0
  9  7  1  0  0  0  0
 11  5  1  0  0  0  0
 13  8  1  6  0  0  0
 13 14  1  0  0  0  0
 13 15  1  0  0  0  0
 14 12  1  6  0  0  0
 14 15  1  0  0  0  0
 15 16  1  1  0  0  0
 17 16  1  0  0  0  0
 18 22  1  0  0  0  0
 20 28  1  0  0  0  0
 21 24  1  0  0  0  0
 24 18  2  0  0  0  0
 25 17  1  6  0  0  0
 25 23  1  0  0  0  0
 26 21  1  6  0  0  0
 26 27  1  0  0  0  0
 27 22  1  1  0  0  0
 27 29  1  0  0  0  0
 28 19  2  6  0  0  0
 28 26  1  0  0  0  0
 28 30  1  0  0  0  0
 29 23  1  0  0  0  0
 30 25  1  0  0  0  0
 32 31  1  0  0  0  0
 33 34  1  0  0  0  0
 33 32  1  0  0  0  0
 35 34  1  6  0  0  0
 35 38  1  0  0  0  0
 36 37  1  0  0  0  0
 37 35  1  0  0  0  0
 38 39  1  0  0  0  0
 41 43  1  0  0  0  0
 42 39  1  0  0  0  0
 42 40  2  0  0  0  0
 43 42  1  0  0  0  0
M  END
>  <MODEL>
8

>  <REMARK>
 VINA RESULT:      -7.2      5.196     10.577
  Name = 
  13 active torsions:
  status: ('A' for Active; 'I' for Inactive)
    1  A    between atoms: C_1  and  C_23
    2  A    between atoms: C_1  and  C_42
    3  A    between atoms: N_4  and  C_5
    4  A    between atoms: N_4  and  C_12
    5  A    between atoms: C_5  and  C_25
    6  A    between atoms: C_8  and  C_12
    7  A    between atoms: C_8  and  C_23
    8  A    between atoms: C_20  and  C_32
    9  A    between atoms: C_21  and  C_29
   10  A    between atoms: C_21  and  C_35
   11  A    between atoms: C_23  and  N_31
   12  A    between atoms: C_27  and  C_42
   13  A    between atoms: C_34  and  C_35
                            x       y       z     vdW  Elec       q    Type
                         _______ _______ _______ _____ _____    ______ ____

>  <TORSDO>
F 13

$$$$
=
 OpenBabel11062422313D

 43 47  0  0  1  0  0  0  0  0999 V2000
  196.5140  175.4430  144.6560 N   0  0  0  0  0  2  0  0  0  0  0  0
  195.5360  176.2730  143.9170 C   0  0  2  0  0  3  0  0  0  0  0  0
  194.0800  176.1840  144.4170 C   0  0  0  0  0  2  0  0  0  0  0  0
  195.8960  174.5620  145.6520 C   0  0  0  0  0  2  0  0  0  0  0  0
  195.6460  176.1310  142.5120 O   0  0  0  0  0  0  0  0  0  0  0  0
  194.3630  174.3970  141.3900 C   0  0  2  0  0  3  0  0  0  0  0  0
  194.7360  173.7800  145.0410 C   0  0  0  0  0  2  0  0  0  0  0  0
  192.8330  174.1440  143.4030 C   0  0  2  0  0  3  0  0  0  0  0  0
  193.6200  174.7260  144.5910 C   0  0  2  0  0  3  0  0  0  0  0  0
  193.0830  174.8670  142.0770 C   0  0  0  0  0  2  0  0  0  0  0  0
  195.6160  174.7620  142.1810 C   0  0  0  0  0  2  0  0  0  0  0  0
  191.6350  171.6470  144.0430 C   0  0  0  0  0  1  0  0  0  0  0  0
  191.3410  174.1910  143.7210 C   0  0  1  0  0  3  0  0  0  0  0  0
  190.6900  172.8410  144.0600 C   0  0  2  0  0  3  0  0  0  0  0  0
  191.1100  173.7900  145.1650 C   0  0  2  0  0  3  0  0  0  0  0  0
  189.9070  174.5450  145.6880 C   0  0  0  0  0  2  0  0  0  0  0  0
  189.2730  175.3530  144.5680 C   0  0  0  0  0  2  0  0  0  0  0  0
  183.9350  179.0420  146.1700 C   0  0  0  0  0  3  0  0  0  0  0  0
  186.5630  178.5910  142.0250 O   0  0  0  0  0  0  0  0  0  0  0  0
  186.8850  176.0560  142.4940 O   0  0  0  0  0  1  0  0  0  0  0  0
  184.5430  178.2870  143.9980 O   0  0  0  0  0  0  0  0  0  0  0  0
  184.9570  178.1300  146.7720 C   0  0  0  0  0  2  0  0  0  0  0  0
  188.4740  177.1170  146.3250 C   0  0  0  0  0  2  0  0  0  0  0  0
  183.7470  179.0610  144.8520 C   0  0  0  0  0  3  0  0  0  0  0  0
  189.0470  176.8210  144.9390 C   0  0  2  0  0  3  0  0  0  0  0  0
  185.6060  177.4440  144.4590 C   0  0  2  0  0  3  0  0  0  0  0  0
  186.1360  177.8980  145.8300 C   0  0  2  0  0  3  0  0  0  0  0  0
  186.9100  177.4030  143.1790 P   0  0  2  0  0  0  0  0  0  0  0  0
  186.9900  176.8030  146.4470 C   0  0  0  0  0  2  0  0  0  0  0  0
  188.5860  177.7470  143.8160 C   0  0  0  0  0  2  0  0  0  0  0  0
  194.4500  174.9730  139.9830 C   0  0  0  0  0  2  0  0  0  0  0  0
  194.9350  173.9690  139.0490 N   0  0  0  0  0  2  0  0  0  0  0  0
  194.3030  172.7060  139.4010 C   0  0  0  0  0  2  0  0  0  0  0  0
  193.4170  172.2220  138.2570 C   0  0  0  0  0  2  0  0  0  0  0  0
  192.1250  171.5500  138.7360 C   0  0  1  0  0  3  0  0  0  0  0  0
  191.9680  169.9150  140.3960 C   0  0  0  0  0  1  0  0  0  0  0  0
  192.3470  170.1390  139.0110 N   0  0  0  0  0  2  0  0  0  0  0  0
  191.5470  172.2370  139.9660 C   0  0  0  0  0  2  0  0  0  0  0  0
  190.6940  173.4250  139.5580 C   0  0  0  0  0  2  0  0  0  0  0  0
  189.4060  174.7930  141.0190 O   0  0  0  0  0  0  0  0  0  0  0  0
  187.7250  172.6850  141.9310 C   0  0  0  0  0  1  0  0  0  0  0  0
  189.6140  173.6380  140.5600 C   0  0  0  0  0  0  0  0  0  0  0  0
  188.8060  172.5330  140.9710 N   0  0  0  0  0  2  0  0  0  0  0  0
  1  4  1  0  0  0  0
  2  3  1  1  0  0  0
  2  1  1  0  0  0  0
  5  2  1  0  0  0  0
  6 31  1  6  0  0  0
  6 10  1  0  0  0  0
  6 11  1  0  0  0  0
  7  4  1  0  0  0  0
  8 10  1  6  0  0  0
  8  9  1  0  0  0  0
  9  3  1  6  0  0  0
  9  7  1  0  0  0  0
 11  5  1  0  0  0  0
 13  8  1  1  0  0  0
 13 14  1  0  0  0  0
 13 15  1  0  0  0  0
 14 12  1  1  0  0  0
 14 15  1  0  0  0  0
 15 16  1  6  0  0  0
 17 16  1  0  0  0  0
 18 22  1  0  0  0  0
 20 28  1  0  0  0  0
 21 24  1  0  0  0  0
 23 29  1  0  0  0  0
 24 18  2  0  0  0  0
 25 17  1  6  0  0  0
 25 23  1  0  0  0  0
 26 21  1  6  0  0  0
 26 27  1  0  0  0  0
 27 29  1  1  0  0  0
 27 22  1  0  0  0  0
 28 19  2  6  0  0  0
 28 30  1  0  0  0  0
 28 26  1  0  0  0  0
 30 25  1  0  0  0  0
 32 33  1  0  0  0  0
 32 31  1  0  0  0  0
 34 33  1  0  0  0  0
 35 34  1  1  0  0  0
 35 37  1  0  0  0  0
 35 38  1  0  0  0  0
 37 36  1  0  0  0  0
 39 38  1  0  0  0  0
 39 42  1  0  0  0  0
 42 43  1  0  0  0  0
 42 40  2  0  0  0  0
 43 41  1  0  0  0  0
M  END
>  <MODEL>
9

>  <REMARK>
 VINA RESULT:      -7.2      5.111     10.225
  Name = 
  13 active torsions:
  status: ('A' for Active; 'I' for Inactive)
    1  A    between atoms: C_1  and  C_23
    2  A    between atoms: C_1  and  C_42
    3  A    between atoms: N_4  and  C_5
    4  A    between atoms: N_4  and  C_12
    5  A    between atoms: C_5  and  C_25
    6  A    between atoms: C_8  and  C_12
    7  A    between atoms: C_8  and  C_23
    8  A    between atoms: C_20  and  C_32
    9  A    between atoms: C_21  and  C_29
   10  A    between atoms: C_21  and  C_35
   11  A    between atoms: C_23  and  N_31
   12  A    between atoms: C_27  and  C_42
   13  A    between atoms: C_34  and  C_35
                            x       y       z     vdW  Elec       q    Type
                         _______ _______ _______ _____ _____    ______ ____

>  <TORSDO>
F 13

$$$$
