=
 OpenBabel11062420273D

 53 58  0  0  1  0  0  0  0  0999 V2000
  190.2790  172.8130  140.2770 C   0  0  0  0  0  0  0  0  0  0  0  0
  191.2720  171.7120  140.2520 C   0  0  0  0  0  0  0  0  0  0  0  0
  191.8110  171.3420  139.0140 C   0  0  0  0  0  3  0  0  0  0  0  0
  189.9150  173.3580  138.9970 C   0  0  0  0  0  3  0  0  0  0  0  0
  191.4230  171.9630  137.8550 C   0  0  0  0  0  3  0  0  0  0  0  0
  190.5190  172.9420  137.8550 N   0  0  0  0  0  0  0  0  0  0  0  0
  190.7210  169.7420  141.4410 O   0  0  0  0  0  0  0  0  0  0  0  0
  192.6900  170.7870  142.1460 N   0  0  0  0  0  2  0  0  0  0  0  0
  191.5510  170.7000  141.2600 C   0  0  0  0  0  0  0  0  0  0  0  0
  192.7830  170.2140  143.4950 C   0  0  0  0  0  2  0  0  0  0  0  0
  194.4760  169.8030  143.9070 S   0  0  0  0  0  0  0  0  0  0  0  0
  194.8530  171.5310  143.4370 C   0  0  0  0  0  2  0  0  0  0  0  0
  196.6680  171.0110  144.8150 O   0  0  0  0  0  1  0  0  0  0  0  0
  195.8360  172.0460  144.4370 C   0  0  2  0  0  3  0  0  0  0  0  0
  195.4010  173.0470  145.5450 C   0  0  0  0  0  2  0  0  0  0  0  0
  196.1190  174.3270  145.7910 C   0  0  2  0  0  3  0  0  0  0  0  0
  195.1650  175.2190  146.2220 O   0  0  0  0  0  1  0  0  0  0  0  0
  196.6830  174.7000  144.5050 C   0  0  0  0  0  2  0  0  0  0  0  0
  196.7690  176.9110  143.4040 C   0  0  0  0  0  2  0  0  0  0  0  0
  195.9350  175.5970  143.5680 C   0  0  1  0  0  3  0  0  0  0  0  0
  196.7860  175.8380  142.2800 C   0  0  1  0  0  3  0  0  0  0  0  0
  195.8920  176.3760  141.1620 C   0  0  0  0  0  2  0  0  0  0  0  0
  195.9940  175.5090  139.8610 C   0  0  0  0  0  2  0  0  0  0  0  0
  194.5870  173.9710  138.3290 C   0  0  0  0  0  2  0  0  0  0  0  0
  197.0200  172.8000  140.4400 C   0  0  0  0  0  1  0  0  0  0  0  0
  195.0780  172.5750  138.6950 C   0  0  0  0  0  2  0  0  0  0  0  0
  194.8730  174.3970  139.8040 C   0  0  2  0  0  0  0  0  0  0  0  0
  193.5370  174.6250  140.5110 C   0  0  0  0  0  1  0  0  0  0  0  0
  195.4890  172.9970  140.1120 C   0  0  2  0  0  3  0  0  0  0  0  0
  189.5900  173.3770  141.4870 C   0  0  0  0  0  0  0  0  0  0  0  0
  189.9440  172.9210  142.6640 N   0  0  0  0  0  0  0  0  0  0  0  0
  188.4640  174.4300  141.1920 C   0  0  0  0  0  2  0  0  0  0  0  0
  188.3980  175.7620  141.7330 C   0  0  0  0  0  2  0  0  0  0  0  0
  187.3130  177.9850  142.1540 C   0  0  0  0  0  2  0  0  0  0  0  0
  186.5940  177.8880  143.4630 N   0  0  2  0  0  0  0  0  0  0  0  0
  187.0330  176.5250  141.7930 C   0  0  2  0  0  3  0  0  0  0  0  0
  186.2210  176.5120  143.0780 C   0  0  0  0  0  2  0  0  0  0  0  0
  184.4800  178.7920  142.5370 O   0  0  0  0  0  1  0  0  0  0  0  0
  185.5560  179.9260  144.2320 O   0  0  0  0  0  0  0  0  0  0  0  0
  184.7410  178.9950  144.8060 C   0  0  1  0  0  3  0  0  0  0  0  0
  185.4580  178.7780  143.5040 C   0  0  2  0  0  0  0  0  0  0  0  0
  185.2420  178.7640  146.2000 C   0  0  0  0  0  2  0  0  0  0  0  0
  184.9170  177.4660  146.6310 O   0  0  0  0  0  0  0  0  0  0  0  0
  186.2080  176.9900  146.9950 C   0  0  0  0  0  1  0  0  0  0  0  0
  189.4360  173.3280  143.9500 N   0  0  0  0  0  2  0  0  0  0  0  0
  189.6720  174.9400  145.6710 C   0  0  0  0  0  3  0  0  0  0  0  0
  191.7490  173.6380  144.7080 C   0  0  0  0  0  3  0  0  0  0  0  0
  190.6600  178.2560  143.6700 Cl  0  0  0  0  0  0  0  0  0  0  0  0
  190.8410  176.5900  144.1890 C   0  0  0  0  0  0  0  0  0  0  0  0
  190.2470  173.6630  145.0920 C   0  0  2  0  0  3  0  0  0  0  0  0
  189.8320  176.1800  145.2250 C   0  0  0  0  0  3  0  0  0  0  0  0
  192.4300  174.5870  144.0760 C   0  0  0  0  0  3  0  0  0  0  0  0
  191.9060  175.9290  143.7530 C   0  0  0  0  0  3  0  0  0  0  0  0
  1 30  1  0  0  0  0
  2  1  1  0  0  0  0
  2  9  1  0  0  0  0
  3  2  2  0  0  0  0
  4  1  2  0  0  0  0
  5  6  2  0  0  0  0
  5  3  1  0  0  0  0
  6  4  1  0  0  0  0
  8 10  1  0  0  0  0
  9  7  2  0  0  0  0
  9  8  1  0  0  0  0
 10 11  1  0  0  0  0
 12 11  1  0  0  0  0
 12 14  1  0  0  0  0
 14 13  1  1  0  0  0
 14 15  1  0  0  0  0
 15 16  1  0  0  0  0
 16 17  1  6  0  0  0
 18 16  1  0  0  0  0
 19 20  1  0  0  0  0
 20 18  1  1  0  0  0
 21 22  1  6  0  0  0
 21 19  1  0  0  0  0
 21 20  1  0  0  0  0
 23 22  1  0  0  0  0
 24 26  1  0  0  0  0
 24 27  1  0  0  0  0
 26 29  1  0  0  0  0
 27 23  1  0  0  0  0
 27 29  1  0  0  0  0
 27 28  1  1  0  0  0
 29 25  1  6  0  0  0
 30 31  2  0  0  0  0
 31 45  1  0  0  0  0
 32 30  1  0  0  0  0
 32 33  1  0  0  0  0
 35 34  1  6  0  0  0
 35 41  1  0  0  0  0
 36 33  1  1  0  0  0
 36 34  1  0  0  0  0
 36 37  1  0  0  0  0
 37 35  1  0  0  0  0
 39 40  1  0  0  0  0
 40 42  1  1  0  0  0
 41 38  1  6  0  0  0
 41 39  1  0  0  0  0
 41 40  1  0  0  0  0
 42 43  1  0  0  0  0
 43 44  1  0  0  0  0
 47 50  1  0  0  0  0
 48 49  1  0  0  0  0
 49 51  1  0  0  0  0
 50 45  1  6  0  0  0
 50 46  1  0  0  0  0
 51 46  2  0  0  0  0
 52 47  2  0  0  0  0
 53 52  1  0  0  0  0
 53 49  2  0  0  0  0
M  END
>  <MODEL>
1

>  <REMARK>
 VINA RESULT:      -6.1      0.000      0.000
  Name = 
  20 active torsions:
  status: ('A' for Active; 'I' for Inactive)
    1  A    between atoms: C_1  and  C_8
    2  A    between atoms: C_2  and  O_10
    3  A    between atoms: C_2  and  C_30
    4  A    between atoms: C_4  and  C_46
    5  A    between atoms: C_6  and  C_11
    6  A    between atoms: C_6  and  C_40
    7  A    between atoms: C_7  and  C_20
    8  A    between atoms: C_7  and  C_37
    9  A    between atoms: C_8  and  C_21
   10  A    between atoms: C_11  and  C_22
   11  A    between atoms: S_12  and  C_23
   12  A    between atoms: S_12  and  C_27
   13  A    between atoms: N_18  and  C_28
   14  A    between atoms: N_18  and  N_49
   15  A    between atoms: C_20  and  C_50
   16  A    between atoms: C_22  and  C_42
   17  A    between atoms: C_23  and  N_41
   18  A    between atoms: N_24  and  C_44
   19  A    between atoms: C_27  and  C_40
   20  A    between atoms: C_33  and  C_51
                            x       y       z     vdW  Elec       q    Type
                         _______ _______ _______ _____ _____    ______ ____

>  <TORSDO>
F 20

$$$$
=
 OpenBabel11062420273D

 53 58  0  0  1  0  0  0  0  0999 V2000
  190.6020  172.1230  139.9580 C   0  0  0  0  0  0  0  0  0  0  0  0
  189.2460  172.7190  139.8770 C   0  0  0  0  0  0  0  0  0  0  0  0
  188.7050  172.9490  138.6060 C   0  0  0  0  0  3  0  0  0  0  0  0
  191.2620  171.8950  138.7010 C   0  0  0  0  0  3  0  0  0  0  0  0
  189.4090  172.6500  137.4690 C   0  0  0  0  0  3  0  0  0  0  0  0
  190.6350  172.1310  137.5220 N   0  0  0  0  0  0  0  0  0  0  0  0
  187.7430  172.7740  141.7050 O   0  0  0  0  0  0  0  0  0  0  0  0
  188.4660  174.8740  140.9730 N   0  0  0  0  0  2  0  0  0  0  0  0
  188.4900  173.4300  140.8960 C   0  0  0  0  0  0  0  0  0  0  0  0
  187.3780  175.6940  141.5210 C   0  0  0  0  0  2  0  0  0  0  0  0
  187.1040  177.1540  140.5230 S   0  0  0  0  0  0  0  0  0  0  0  0
  185.8160  177.5710  141.7540 C   0  0  0  0  0  2  0  0  0  0  0  0
  187.7230  178.5620  142.6740 O   0  0  0  0  0  1  0  0  0  0  0  0
  186.3520  178.6980  142.5770 C   0  0  2  0  0  3  0  0  0  0  0  0
  185.5970  179.1960  143.8410 C   0  0  0  0  0  2  0  0  0  0  0  0
  184.4600  178.4470  144.4400 C   0  0  2  0  0  3  0  0  0  0  0  0
  183.3240  179.1320  144.0770 O   0  0  0  0  0  1  0  0  0  0  0  0
  184.6930  178.4840  145.8740 C   0  0  0  0  0  2  0  0  0  0  0  0
  186.0350  177.7770  147.8250 C   0  0  0  0  0  2  0  0  0  0  0  0
  186.0840  178.4800  146.4290 C   0  0  1  0  0  3  0  0  0  0  0  0
  186.5800  177.0080  146.5900 C   0  0  1  0  0  3  0  0  0  0  0  0
  188.1030  176.9890  146.7380 C   0  0  0  0  0  2  0  0  0  0  0  0
  188.6810  175.5350  146.6600 C   0  0  0  0  0  2  0  0  0  0  0  0
  190.0730  176.7760  144.8670 C   0  0  0  0  0  2  0  0  0  0  0  0
  191.4440  175.4160  147.6980 C   0  0  0  0  0  1  0  0  0  0  0  0
  191.5010  176.6400  145.3820 C   0  0  0  0  0  2  0  0  0  0  0  0
  189.7650  175.3910  145.5200 C   0  0  2  0  0  0  0  0  0  0  0  0
  189.5680  174.3630  144.4060 C   0  0  0  0  0  1  0  0  0  0  0  0
  191.1960  175.3430  146.1410 C   0  0  2  0  0  3  0  0  0  0  0  0
  191.3620  171.7820  141.2080 C   0  0  0  0  0  0  0  0  0  0  0  0
  191.2290  170.5730  141.6980 N   0  0  0  0  0  0  0  0  0  0  0  0
  192.2020  172.9550  141.8270 C   0  0  0  0  0  2  0  0  0  0  0  0
  192.0360  174.3530  141.5310 C   0  0  0  0  0  2  0  0  0  0  0  0
  194.4450  174.8590  141.0410 C   0  0  0  0  0  2  0  0  0  0  0  0
  195.2130  174.6240  142.3030 N   0  0  2  0  0  0  0  0  0  0  0  0
  193.2060  175.3610  141.7870 C   0  0  2  0  0  3  0  0  0  0  0  0
  194.0680  175.2090  143.0290 C   0  0  0  0  0  2  0  0  0  0  0  0
  196.3470  176.8270  142.2540 O   0  0  0  0  0  1  0  0  0  0  0  0
  197.5990  174.9000  142.0650 O   0  0  0  0  0  0  0  0  0  0  0  0
  197.4450  175.1680  143.3940 C   0  0  1  0  0  3  0  0  0  0  0  0
  196.3900  175.4570  142.3630 C   0  0  2  0  0  0  0  0  0  0  0  0
  197.7010  173.8920  144.1370 C   0  0  0  0  0  2  0  0  0  0  0  0
  197.7470  174.1300  145.5220 O   0  0  0  0  0  0  0  0  0  0  0  0
  196.3560  174.1530  145.8210 C   0  0  0  0  0  1  0  0  0  0  0  0
  191.8730  170.0250  142.8650 N   0  0  0  0  0  2  0  0  0  0  0  0
  192.9340  168.5200  144.3560 C   0  0  0  0  0  3  0  0  0  0  0  0
  193.7700  168.8230  141.8770 C   0  0  0  0  0  3  0  0  0  0  0  0
  195.9880  170.6700  145.7840 Cl  0  0  0  0  0  0  0  0  0  0  0  0
  195.0130  169.9110  144.5380 C   0  0  0  0  0  0  0  0  0  0  0  0
  192.6070  168.7870  142.9010 C   0  0  2  0  0  3  0  0  0  0  0  0
  193.8900  169.0780  145.0900 C   0  0  0  0  0  3  0  0  0  0  0  0
  194.9520  169.4080  142.0290 C   0  0  0  0  0  3  0  0  0  0  0  0
  195.4410  170.0110  143.2850 C   0  0  0  0  0  3  0  0  0  0  0  0
  1 30  1  0  0  0  0
  2  1  1  0  0  0  0
  2  9  1  0  0  0  0
  3  2  2  0  0  0  0
  4  1  2  0  0  0  0
  5  6  2  0  0  0  0
  5  3  1  0  0  0  0
  6  4  1  0  0  0  0
  8 10  1  0  0  0  0
  9  8  1  0  0  0  0
  9  7  2  0  0  0  0
 11 10  1  0  0  0  0
 11 12  1  0  0  0  0
 12 14  1  0  0  0  0
 14 13  1  1  0  0  0
 14 15  1  0  0  0  0
 15 16  1  0  0  0  0
 16 17  1  1  0  0  0
 16 18  1  0  0  0  0
 20 18  1  6  0  0  0
 20 21  1  0  0  0  0
 20 19  1  0  0  0  0
 21 22  1  1  0  0  0
 21 19  1  0  0  0  0
 23 22  1  0  0  0  0
 24 26  1  0  0  0  0
 24 27  1  0  0  0  0
 26 29  1  0  0  0  0
 27 28  1  6  0  0  0
 27 29  1  0  0  0  0
 27 23  1  0  0  0  0
 29 25  1  1  0  0  0
 30 31  2  0  0  0  0
 30 32  1  0  0  0  0
 31 45  1  0  0  0  0
 33 32  1  0  0  0  0
 34 36  1  0  0  0  0
 35 34  1  6  0  0  0
 35 41  1  0  0  0  0
 35 37  1  0  0  0  0
 36 33  1  1  0  0  0
 36 37  1  0  0  0  0
 39 41  1  0  0  0  0
 39 40  1  0  0  0  0
 40 42  1  1  0  0  0
 41 38  1  6  0  0  0
 41 40  1  0  0  0  0
 42 43  1  0  0  0  0
 43 44  1  0  0  0  0
 46 51  2  0  0  0  0
 47 52  2  0  0  0  0
 47 50  1  0  0  0  0
 49 51  1  0  0  0  0
 49 48  1  0  0  0  0
 50 45  1  1  0  0  0
 50 46  1  0  0  0  0
 52 53  1  0  0  0  0
 53 49  2  0  0  0  0
M  END
>  <MODEL>
2

>  <REMARK>
 VINA RESULT:      -5.9      2.800      8.784
  Name = 
  20 active torsions:
  status: ('A' for Active; 'I' for Inactive)
    1  A    between atoms: C_1  and  C_8
    2  A    between atoms: C_2  and  O_10
    3  A    between atoms: C_2  and  C_30
    4  A    between atoms: C_4  and  C_46
    5  A    between atoms: C_6  and  C_11
    6  A    between atoms: C_6  and  C_40
    7  A    between atoms: C_7  and  C_20
    8  A    between atoms: C_7  and  C_37
    9  A    between atoms: C_8  and  C_21
   10  A    between atoms: C_11  and  C_22
   11  A    between atoms: S_12  and  C_23
   12  A    between atoms: S_12  and  C_27
   13  A    between atoms: N_18  and  C_28
   14  A    between atoms: N_18  and  N_49
   15  A    between atoms: C_20  and  C_50
   16  A    between atoms: C_22  and  C_42
   17  A    between atoms: C_23  and  N_41
   18  A    between atoms: N_24  and  C_44
   19  A    between atoms: C_27  and  C_40
   20  A    between atoms: C_33  and  C_51
                            x       y       z     vdW  Elec       q    Type
                         _______ _______ _______ _____ _____    ______ ____

>  <TORSDO>
F 20

$$$$
=
 OpenBabel11062420273D

 53 58  0  0  1  0  0  0  0  0999 V2000
  190.0220  174.5790  142.5260 C   0  0  0  0  0  0  0  0  0  0  0  0
  190.0020  173.0970  142.5840 C   0  0  0  0  0  0  0  0  0  0  0  0
  188.9990  172.4270  141.8730 C   0  0  0  0  0  3  0  0  0  0  0  0
  188.9550  175.1920  141.7820 C   0  0  0  0  0  3  0  0  0  0  0  0
  188.0540  173.1140  141.1570 C   0  0  0  0  0  3  0  0  0  0  0  0
  188.0460  174.4450  141.1080 N   0  0  0  0  0  0  0  0  0  0  0  0
  190.1640  172.0770  144.7130 O   0  0  0  0  0  0  0  0  0  0  0  0
  191.8850  171.5210  143.2310 N   0  0  0  0  0  2  0  0  0  0  0  0
  190.6470  172.2040  143.5330 C   0  0  0  0  0  0  0  0  0  0  0  0
  192.8940  171.0870  144.2060 C   0  0  0  0  0  2  0  0  0  0  0  0
  194.4890  170.8580  143.4260 S   0  0  0  0  0  0  0  0  0  0  0  0
  193.8610  172.0040  142.1460 C   0  0  0  0  0  2  0  0  0  0  0  0
  196.0160  172.7790  142.6100 O   0  0  0  0  0  1  0  0  0  0  0  0
  195.0380  172.7700  141.6360 C   0  0  2  0  0  3  0  0  0  0  0  0
  194.8480  174.0730  140.8090 C   0  0  0  0  0  2  0  0  0  0  0  0
  195.9690  174.7260  140.0810 C   0  0  2  0  0  3  0  0  0  0  0  0
  196.1940  175.9200  140.7260 O   0  0  0  0  0  1  0  0  0  0  0  0
  195.4820  174.9160  138.7240 C   0  0  0  0  0  2  0  0  0  0  0  0
  194.2540  174.2960  136.6710 C   0  0  0  0  0  2  0  0  0  0  0  0
  194.2720  174.1830  138.2310 C   0  0  1  0  0  3  0  0  0  0  0  0
  194.7160  172.9750  137.3460 C   0  0  1  0  0  3  0  0  0  0  0  0
  193.5550  171.9910  137.1940 C   0  0  0  0  0  2  0  0  0  0  0  0
  192.7640  171.8080  138.5340 C   0  0  0  0  0  2  0  0  0  0  0  0
  190.7400  171.4250  136.9680 C   0  0  0  0  0  2  0  0  0  0  0  0
  191.1340  169.7960  139.9580 C   0  0  0  0  0  1  0  0  0  0  0  0
  189.8770  170.4420  137.7510 C   0  0  0  0  0  2  0  0  0  0  0  0
  191.2100  172.0160  138.3350 C   0  0  2  0  0  0  0  0  0  0  0  0
  190.6000  173.4080  138.4970 C   0  0  0  0  0  1  0  0  0  0  0  0
  190.4170  170.9150  139.1070 C   0  0  2  0  0  3  0  0  0  0  0  0
  191.0090  175.4930  143.1960 C   0  0  0  0  0  0  0  0  0  0  0  0
  192.2710  175.3930  142.8530 N   0  0  0  0  0  0  0  0  0  0  0  0
  190.4110  176.4440  144.2930 C   0  0  0  0  0  2  0  0  0  0  0  0
  189.4770  176.0580  145.3180 C   0  0  0  0  0  2  0  0  0  0  0  0
  187.3940  176.4190  146.6700 C   0  0  0  0  0  2  0  0  0  0  0  0
  186.3910  177.0750  145.7740 N   0  0  2  0  0  0  0  0  0  0  0  0
  188.5770  177.1330  146.0130 C   0  0  2  0  0  3  0  0  0  0  0  0
  187.5100  177.8540  145.2060 C   0  0  0  0  0  2  0  0  0  0  0  0
  185.8440  178.6050  147.6460 O   0  0  0  0  0  1  0  0  0  0  0  0
  184.1380  177.6300  146.4390 O   0  0  0  0  0  0  0  0  0  0  0  0
  184.5020  178.7770  145.7950 C   0  0  1  0  0  3  0  0  0  0  0  0
  185.4730  177.8950  146.5280 C   0  0  2  0  0  0  0  0  0  0  0  0
  184.0210  178.6640  144.3800 C   0  0  0  0  0  2  0  0  0  0  0  0
  184.9070  179.3170  143.5050 O   0  0  0  0  0  0  0  0  0  0  0  0
  185.1920  180.4890  144.2630 C   0  0  0  0  0  1  0  0  0  0  0  0
  193.3770  176.1750  143.3460 N   0  0  0  0  0  2  0  0  0  0  0  0
  193.8990  174.4530  144.8870 C   0  0  0  0  0  3  0  0  0  0  0  0
  195.0550  176.8160  145.0170 C   0  0  0  0  0  3  0  0  0  0  0  0
  191.5420  175.2920  148.0060 Cl  0  0  0  0  0  0  0  0  0  0  0  0
  192.7850  175.6150  146.8100 C   0  0  0  0  0  0  0  0  0  0  0  0
  194.4450  175.6710  144.1690 C   0  0  2  0  0  3  0  0  0  0  0  0
  193.1010  174.4240  145.9480 C   0  0  0  0  0  3  0  0  0  0  0  0
  194.5670  177.3260  146.1420 C   0  0  0  0  0  3  0  0  0  0  0  0
  193.4140  176.7820  146.8860 C   0  0  0  0  0  3  0  0  0  0  0  0
  1  2  1  0  0  0  0
  1 30  1  0  0  0  0
  2  9  1  0  0  0  0
  3  2  2  0  0  0  0
  4  1  2  0  0  0  0
  5  3  1  0  0  0  0
  6  5  2  0  0  0  0
  6  4  1  0  0  0  0
  8  9  1  0  0  0  0
  8 10  1  0  0  0  0
  9  7  2  0  0  0  0
 11 10  1  0  0  0  0
 12 11  1  0  0  0  0
 14 12  1  0  0  0  0
 14 13  1  1  0  0  0
 15 14  1  0  0  0  0
 16 17  1  1  0  0  0
 16 15  1  0  0  0  0
 18 16  1  0  0  0  0
 19 21  1  0  0  0  0
 19 20  1  0  0  0  0
 20 18  1  1  0  0  0
 21 22  1  6  0  0  0
 21 20  1  0  0  0  0
 22 23  1  0  0  0  0
 24 26  1  0  0  0  0
 24 27  1  0  0  0  0
 26 29  1  0  0  0  0
 27 28  1  1  0  0  0
 27 23  1  0  0  0  0
 27 29  1  0  0  0  0
 29 25  1  6  0  0  0
 30 32  1  0  0  0  0
 31 30  2  0  0  0  0
 31 45  1  0  0  0  0
 32 33  1  0  0  0  0
 35 37  1  6  0  0  0
 35 41  1  0  0  0  0
 35 34  1  0  0  0  0
 36 33  1  6  0  0  0
 36 34  1  0  0  0  0
 37 36  1  0  0  0  0
 39 41  1  0  0  0  0
 40 42  1  6  0  0  0
 40 39  1  0  0  0  0
 40 41  1  0  0  0  0
 41 38  1  1  0  0  0
 43 44  1  0  0  0  0
 43 42  1  0  0  0  0
 46 51  2  0  0  0  0
 47 52  2  0  0  0  0
 49 53  2  0  0  0  0
 49 48  1  0  0  0  0
 50 45  1  1  0  0  0
 50 46  1  0  0  0  0
 50 47  1  0  0  0  0
 51 49  1  0  0  0  0
 52 53  1  0  0  0  0
M  END
>  <MODEL>
3

>  <REMARK>
 VINA RESULT:      -5.9      2.186      4.328
  Name = 
  20 active torsions:
  status: ('A' for Active; 'I' for Inactive)
    1  A    between atoms: C_1  and  C_8
    2  A    between atoms: C_2  and  O_10
    3  A    between atoms: C_2  and  C_30
    4  A    between atoms: C_4  and  C_46
    5  A    between atoms: C_6  and  C_11
    6  A    between atoms: C_6  and  C_40
    7  A    between atoms: C_7  and  C_20
    8  A    between atoms: C_7  and  C_37
    9  A    between atoms: C_8  and  C_21
   10  A    between atoms: C_11  and  C_22
   11  A    between atoms: S_12  and  C_23
   12  A    between atoms: S_12  and  C_27
   13  A    between atoms: N_18  and  C_28
   14  A    between atoms: N_18  and  N_49
   15  A    between atoms: C_20  and  C_50
   16  A    between atoms: C_22  and  C_42
   17  A    between atoms: C_23  and  N_41
   18  A    between atoms: N_24  and  C_44
   19  A    between atoms: C_27  and  C_40
   20  A    between atoms: C_33  and  C_51
                            x       y       z     vdW  Elec       q    Type
                         _______ _______ _______ _____ _____    ______ ____

>  <TORSDO>
F 20

$$$$
=
 OpenBabel11062420273D

 53 58  0  0  1  0  0  0  0  0999 V2000
  189.2850  173.6360  139.6810 C   0  0  0  0  0  0  0  0  0  0  0  0
  189.9750  172.3240  139.6140 C   0  0  0  0  0  0  0  0  0  0  0  0
  190.0350  171.6770  138.3740 C   0  0  0  0  0  3  0  0  0  0  0  0
  188.6830  174.0900  138.4570 C   0  0  0  0  0  3  0  0  0  0  0  0
  189.4610  172.2250  137.2570 C   0  0  0  0  0  3  0  0  0  0  0  0
  188.8230  173.3930  137.3010 N   0  0  0  0  0  0  0  0  0  0  0  0
  189.7370  171.5180  141.8260 O   0  0  0  0  0  0  0  0  0  0  0  0
  191.3830  170.4370  140.5670 N   0  0  0  0  0  2  0  0  0  0  0  0
  190.3220  171.4100  140.6910 C   0  0  0  0  0  0  0  0  0  0  0  0
  192.1880  169.8880  141.6660 C   0  0  0  0  0  2  0  0  0  0  0  0
  193.8980  169.6840  141.1750 S   0  0  0  0  0  0  0  0  0  0  0  0
  194.1100  171.4120  141.7400 C   0  0  0  0  0  2  0  0  0  0  0  0
  194.9540  171.3340  139.5620 O   0  0  0  0  0  1  0  0  0  0  0  0
  194.5410  172.2060  140.5500 C   0  0  2  0  0  3  0  0  0  0  0  0
  195.3480  173.5240  140.7170 C   0  0  0  0  0  2  0  0  0  0  0  0
  194.7020  174.8180  141.0660 C   0  0  2  0  0  3  0  0  0  0  0  0
  195.1830  175.7360  140.1620 O   0  0  0  0  0  1  0  0  0  0  0  0
  195.1310  175.1030  142.4240 C   0  0  0  0  0  2  0  0  0  0  0  0
  197.3420  175.6910  143.3580 C   0  0  0  0  0  2  0  0  0  0  0  0
  196.3910  174.5100  142.9750 C   0  0  1  0  0  3  0  0  0  0  0  0
  196.5620  174.9350  144.4680 C   0  0  1  0  0  3  0  0  0  0  0  0
  197.5770  174.0180  145.1530 C   0  0  0  0  0  2  0  0  0  0  0  0
  196.8840  172.9850  146.1050 C   0  0  0  0  0  2  0  0  0  0  0  0
  196.5570  170.4340  146.3910 C   0  0  0  0  0  2  0  0  0  0  0  0
  194.0090  172.5710  145.5610 C   0  0  0  0  0  1  0  0  0  0  0  0
  195.0880  170.2310  146.0350 C   0  0  0  0  0  2  0  0  0  0  0  0
  196.5820  171.6180  145.3730 C   0  0  2  0  0  0  0  0  0  0  0  0
  197.4200  171.2000  144.1640 C   0  0  0  0  0  1  0  0  0  0  0  0
  195.0480  171.4660  145.1260 C   0  0  2  0  0  3  0  0  0  0  0  0
  189.1170  174.5040  140.8960 C   0  0  0  0  0  0  0  0  0  0  0  0
  190.1310  174.6110  141.7200 N   0  0  0  0  0  0  0  0  0  0  0  0
  187.6980  175.1520  141.0690 C   0  0  0  0  0  2  0  0  0  0  0  0
  187.3910  176.5510  140.9220 C   0  0  0  0  0  2  0  0  0  0  0  0
  186.4410  178.5710  142.0680 C   0  0  0  0  0  2  0  0  0  0  0  0
  186.2590  178.2190  143.5110 N   0  0  2  0  0  0  0  0  0  0  0  0
  186.1120  177.1550  141.5920 C   0  0  2  0  0  3  0  0  0  0  0  0
  185.8320  176.8790  143.0590 C   0  0  0  0  0  2  0  0  0  0  0  0
  183.8920  178.9420  143.6230 O   0  0  0  0  0  1  0  0  0  0  0  0
  185.4860  180.0760  144.8440 O   0  0  0  0  0  0  0  0  0  0  0  0
  185.0530  179.0250  145.5990 C   0  0  1  0  0  3  0  0  0  0  0  0
  185.1800  178.9730  144.1020 C   0  0  2  0  0  0  0  0  0  0  0  0
  186.1020  178.7600  146.6360 C   0  0  0  0  0  2  0  0  0  0  0  0
  185.6330  177.8370  147.5870 O   0  0  0  0  0  0  0  0  0  0  0  0
  185.3380  176.7310  146.7400 C   0  0  0  0  0  1  0  0  0  0  0  0
  190.2010  175.3970  142.9260 N   0  0  0  0  0  2  0  0  0  0  0  0
  192.1030  176.6400  143.5950 C   0  0  0  0  0  3  0  0  0  0  0  0
  189.6790  177.6630  143.7100 C   0  0  0  0  0  3  0  0  0  0  0  0
  192.1940  176.0840  147.5540 Cl  0  0  0  0  0  0  0  0  0  0  0  0
  191.4880  176.5800  146.0260 C   0  0  0  0  0  0  0  0  0  0  0  0
  190.7100  176.7410  143.0090 C   0  0  2  0  0  3  0  0  0  0  0  0
  192.4390  176.4610  144.8670 C   0  0  0  0  0  3  0  0  0  0  0  0
  189.4620  177.7740  145.0150 C   0  0  0  0  0  3  0  0  0  0  0  0
  190.2860  177.1420  146.0650 C   0  0  0  0  0  3  0  0  0  0  0  0
  1 30  1  0  0  0  0
  2  1  1  0  0  0  0
  2  9  1  0  0  0  0
  3  2  2  0  0  0  0
  4  1  2  0  0  0  0
  5  6  2  0  0  0  0
  5  3  1  0  0  0  0
  6  4  1  0  0  0  0
  8  9  1  0  0  0  0
  8 10  1  0  0  0  0
  9  7  2  0  0  0  0
 11 10  1  0  0  0  0
 11 12  1  0  0  0  0
 14 13  1  6  0  0  0
 14 15  1  0  0  0  0
 14 12  1  0  0  0  0
 15 16  1  0  0  0  0
 16 17  1  6  0  0  0
 16 18  1  0  0  0  0
 19 21  1  0  0  0  0
 20 18  1  6  0  0  0
 20 19  1  0  0  0  0
 20 21  1  0  0  0  0
 21 22  1  1  0  0  0
 22 23  1  0  0  0  0
 26 24  1  0  0  0  0
 27 28  1  6  0  0  0
 27 23  1  0  0  0  0
 27 24  1  0  0  0  0
 29 27  1  0  0  0  0
 29 25  1  1  0  0  0
 29 26  1  0  0  0  0
 30 32  1  0  0  0  0
 30 31  2  0  0  0  0
 31 45  1  0  0  0  0
 33 32  1  0  0  0  0
 35 34  1  6  0  0  0
 35 41  1  0  0  0  0
 36 33  1  1  0  0  0
 36 34  1  0  0  0  0
 36 37  1  0  0  0  0
 37 35  1  0  0  0  0
 39 40  1  0  0  0  0
 40 42  1  1  0  0  0
 41 38  1  6  0  0  0
 41 39  1  0  0  0  0
 41 40  1  0  0  0  0
 42 43  1  0  0  0  0
 44 43  1  0  0  0  0
 46 51  2  0  0  0  0
 47 52  2  0  0  0  0
 49 53  2  0  0  0  0
 49 48  1  0  0  0  0
 50 45  1  1  0  0  0
 50 46  1  0  0  0  0
 50 47  1  0  0  0  0
 51 49  1  0  0  0  0
 52 53  1  0  0  0  0
M  END
>  <MODEL>
4

>  <REMARK>
 VINA RESULT:      -5.8      2.018      3.593
  Name = 
  20 active torsions:
  status: ('A' for Active; 'I' for Inactive)
    1  A    between atoms: C_1  and  C_8
    2  A    between atoms: C_2  and  O_10
    3  A    between atoms: C_2  and  C_30
    4  A    between atoms: C_4  and  C_46
    5  A    between atoms: C_6  and  C_11
    6  A    between atoms: C_6  and  C_40
    7  A    between atoms: C_7  and  C_20
    8  A    between atoms: C_7  and  C_37
    9  A    between atoms: C_8  and  C_21
   10  A    between atoms: C_11  and  C_22
   11  A    between atoms: S_12  and  C_23
   12  A    between atoms: S_12  and  C_27
   13  A    between atoms: N_18  and  C_28
   14  A    between atoms: N_18  and  N_49
   15  A    between atoms: C_20  and  C_50
   16  A    between atoms: C_22  and  C_42
   17  A    between atoms: C_23  and  N_41
   18  A    between atoms: N_24  and  C_44
   19  A    between atoms: C_27  and  C_40
   20  A    between atoms: C_33  and  C_51
                            x       y       z     vdW  Elec       q    Type
                         _______ _______ _______ _____ _____    ______ ____

>  <TORSDO>
F 20

$$$$
=
 OpenBabel11062420273D

 53 58  0  0  1  0  0  0  0  0999 V2000
  190.1810  172.9680  141.0110 C   0  0  0  0  0  0  0  0  0  0  0  0
  189.5600  173.7740  142.0910 C   0  0  0  0  0  0  0  0  0  0  0  0
  189.2700  173.1350  143.3030 C   0  0  0  0  0  3  0  0  0  0  0  0
  190.3680  171.5720  141.3000 C   0  0  0  0  0  3  0  0  0  0  0  0
  189.5340  171.8020  143.4850 C   0  0  0  0  0  3  0  0  0  0  0  0
  190.0730  171.0580  142.5210 N   0  0  0  0  0  0  0  0  0  0  0  0
  189.5610  176.1400  142.0640 O   0  0  0  0  0  0  0  0  0  0  0  0
  187.4390  175.1640  141.9660 N   0  0  0  0  0  2  0  0  0  0  0  0
  188.8800  175.0570  142.0080 C   0  0  0  0  0  0  0  0  0  0  0  0
  186.6420  176.3040  142.4390 C   0  0  0  0  0  2  0  0  0  0  0  0
  186.3210  177.4630  141.1130 S   0  0  0  0  0  0  0  0  0  0  0  0
  186.0160  178.6760  142.4490 C   0  0  0  0  0  2  0  0  0  0  0  0
  183.7370  178.1540  142.4930 O   0  0  0  0  0  1  0  0  0  0  0  0
  184.8830  178.1440  143.2650 C   0  0  2  0  0  3  0  0  0  0  0  0
  184.7300  178.5220  144.7650 C   0  0  0  0  0  2  0  0  0  0  0  0
  185.0670  177.5780  145.8650 C   0  0  2  0  0  3  0  0  0  0  0  0
  184.2270  177.8970  146.9070 O   0  0  0  0  0  1  0  0  0  0  0  0
  186.4610  177.8420  146.1790 C   0  0  0  0  0  2  0  0  0  0  0  0
  188.6640  177.4550  145.1270 C   0  0  0  0  0  2  0  0  0  0  0  0
  187.5110  176.7980  145.9560 C   0  0  1  0  0  3  0  0  0  0  0  0
  188.8390  177.2330  146.6550 C   0  0  1  0  0  3  0  0  0  0  0  0
  189.7640  176.0240  146.8060 C   0  0  0  0  0  2  0  0  0  0  0  0
  190.4190  175.6140  145.4430 C   0  0  0  0  0  2  0  0  0  0  0  0
  192.4930  176.5150  146.7020 C   0  0  0  0  0  2  0  0  0  0  0  0
  192.4470  173.4950  145.0820 C   0  0  0  0  0  1  0  0  0  0  0  0
  193.5470  175.4450  146.4430 C   0  0  0  0  0  2  0  0  0  0  0  0
  191.8880  176.1790  145.3020 C   0  0  2  0  0  0  0  0  0  0  0  0
  192.1670  177.3500  144.3600 C   0  0  0  0  0  1  0  0  0  0  0  0
  192.9010  175.0050  145.1230 C   0  0  2  0  0  3  0  0  0  0  0  0
  190.5850  173.4500  139.6470 C   0  0  0  0  0  0  0  0  0  0  0  0
  189.7790  173.2010  138.6430 N   0  0  0  0  0  0  0  0  0  0  0  0
  191.9810  174.1640  139.5710 C   0  0  0  0  0  2  0  0  0  0  0  0
  193.2140  173.6560  140.1120 C   0  0  0  0  0  2  0  0  0  0  0  0
  195.4760  173.8430  141.1820 C   0  0  0  0  0  2  0  0  0  0  0  0
  195.3110  174.6470  142.4330 N   0  0  2  0  0  0  0  0  0  0  0  0
  194.3980  174.6280  140.4320 C   0  0  2  0  0  3  0  0  0  0  0  0
  194.3490  175.4830  141.6870 C   0  0  0  0  0  2  0  0  0  0  0  0
  196.6140  176.7300  142.7560 O   0  0  0  0  0  1  0  0  0  0  0  0
  197.7150  174.7070  142.6370 O   0  0  0  0  0  0  0  0  0  0  0  0
  197.3460  174.9050  143.9350 C   0  0  1  0  0  3  0  0  0  0  0  0
  196.5230  175.3580  142.7620 C   0  0  2  0  0  0  0  0  0  0  0  0
  197.3560  173.5660  144.6090 C   0  0  0  0  0  2  0  0  0  0  0  0
  196.2910  173.4660  145.5210 O   0  0  0  0  0  0  0  0  0  0  0  0
  196.3160  172.0670  145.7860 C   0  0  0  0  0  1  0  0  0  0  0  0
  189.9540  173.5840  137.2640 N   0  0  0  0  0  2  0  0  0  0  0  0
  189.7780  171.2900  136.6990 C   0  0  0  0  0  3  0  0  0  0  0  0
  191.4870  172.8830  135.4810 C   0  0  0  0  0  3  0  0  0  0  0  0
  192.6920  169.6050  138.8580 Cl  0  0  0  0  0  0  0  0  0  0  0  0
  192.0140  170.7110  137.6750 C   0  0  0  0  0  0  0  0  0  0  0  0
  190.1120  172.6680  136.1650 C   0  0  2  0  0  3  0  0  0  0  0  0
  190.5460  170.4960  137.4360 C   0  0  0  0  0  3  0  0  0  0  0  0
  192.6650  172.4290  135.8940 C   0  0  0  0  0  3  0  0  0  0  0  0
  192.8630  171.4900  137.0160 C   0  0  0  0  0  3  0  0  0  0  0  0
  1  4  2  0  0  0  0
  1  2  1  0  0  0  0
  2  3  2  0  0  0  0
  3  5  1  0  0  0  0
  4  6  1  0  0  0  0
  6  5  2  0  0  0  0
  8  9  1  0  0  0  0
  8 10  1  0  0  0  0
  9  7  2  0  0  0  0
  9  2  1  0  0  0  0
 11 10  1  0  0  0  0
 11 12  1  0  0  0  0
 12 14  1  0  0  0  0
 14 13  1  6  0  0  0
 14 15  1  0  0  0  0
 15 16  1  0  0  0  0
 16 18  1  0  0  0  0
 16 17  1  1  0  0  0
 19 20  1  0  0  0  0
 19 21  1  0  0  0  0
 20 18  1  1  0  0  0
 20 21  1  0  0  0  0
 21 22  1  6  0  0  0
 23 22  1  0  0  0  0
 26 24  1  0  0  0  0
 27 28  1  6  0  0  0
 27 23  1  0  0  0  0
 27 24  1  0  0  0  0
 29 25  1  1  0  0  0
 29 27  1  0  0  0  0
 29 26  1  0  0  0  0
 30  1  1  0  0  0  0
 31 30  2  0  0  0  0
 32 30  1  0  0  0  0
 32 33  1  0  0  0  0
 35 34  1  6  0  0  0
 35 41  1  0  0  0  0
 36 33  1  1  0  0  0
 36 34  1  0  0  0  0
 36 37  1  0  0  0  0
 37 35  1  0  0  0  0
 39 41  1  0  0  0  0
 39 40  1  0  0  0  0
 40 42  1  6  0  0  0
 41 38  1  6  0  0  0
 41 40  1  0  0  0  0
 42 43  1  0  0  0  0
 43 44  1  0  0  0  0
 45 31  1  0  0  0  0
 46 51  2  0  0  0  0
 47 52  2  0  0  0  0
 47 50  1  0  0  0  0
 49 48  1  0  0  0  0
 50 46  1  0  0  0  0
 50 45  1  1  0  0  0
 51 49  1  0  0  0  0
 52 53  1  0  0  0  0
 53 49  2  0  0  0  0
M  END
>  <MODEL>
5

>  <REMARK>
 VINA RESULT:      -5.7      2.916      9.010
  Name = 
  20 active torsions:
  status: ('A' for Active; 'I' for Inactive)
    1  A    between atoms: C_1  and  C_8
    2  A    between atoms: C_2  and  O_10
    3  A    between atoms: C_2  and  C_30
    4  A    between atoms: C_4  and  C_46
    5  A    between atoms: C_6  and  C_11
    6  A    between atoms: C_6  and  C_40
    7  A    between atoms: C_7  and  C_20
    8  A    between atoms: C_7  and  C_37
    9  A    between atoms: C_8  and  C_21
   10  A    between atoms: C_11  and  C_22
   11  A    between atoms: S_12  and  C_23
   12  A    between atoms: S_12  and  C_27
   13  A    between atoms: N_18  and  C_28
   14  A    between atoms: N_18  and  N_49
   15  A    between atoms: C_20  and  C_50
   16  A    between atoms: C_22  and  C_42
   17  A    between atoms: C_23  and  N_41
   18  A    between atoms: N_24  and  C_44
   19  A    between atoms: C_27  and  C_40
   20  A    between atoms: C_33  and  C_51
                            x       y       z     vdW  Elec       q    Type
                         _______ _______ _______ _____ _____    ______ ____

>  <TORSDO>
F 20

$$$$
=
 OpenBabel11062420273D

 53 58  0  0  1  0  0  0  0  0999 V2000
  189.7780  173.3250  139.0950 C   0  0  0  0  0  0  0  0  0  0  0  0
  188.5710  174.0630  139.5410 C   0  0  0  0  0  0  0  0  0  0  0  0
  187.8090  174.7230  138.5700 C   0  0  0  0  0  3  0  0  0  0  0  0
  190.0850  173.4150  137.6930 C   0  0  0  0  0  3  0  0  0  0  0  0
  188.1720  174.7050  137.2480 C   0  0  0  0  0  3  0  0  0  0  0  0
  189.2620  174.0640  136.8310 N   0  0  0  0  0  0  0  0  0  0  0  0
  187.9960  173.6490  141.7990 O   0  0  0  0  0  0  0  0  0  0  0  0
  187.9730  175.9050  141.1850 N   0  0  0  0  0  2  0  0  0  0  0  0
  188.2080  174.5120  140.8760 C   0  0  0  0  0  0  0  0  0  0  0  0
  187.0970  176.4210  142.2440 C   0  0  0  0  0  2  0  0  0  0  0  0
  186.7280  178.1540  141.9900 S   0  0  0  0  0  0  0  0  0  0  0  0
  185.0730  177.7460  142.6550 C   0  0  0  0  0  2  0  0  0  0  0  0
  185.5640  179.8220  143.6100 O   0  0  0  0  0  1  0  0  0  0  0  0
  184.8280  178.6700  143.8030 C   0  0  2  0  0  3  0  0  0  0  0  0
  184.7270  178.1300  145.2580 C   0  0  0  0  0  2  0  0  0  0  0  0
  185.5860  177.0240  145.7610 C   0  0  2  0  0  3  0  0  0  0  0  0
  184.9590  176.5410  146.8860 O   0  0  0  0  0  1  0  0  0  0  0  0
  186.8650  177.6450  146.0650 C   0  0  0  0  0  2  0  0  0  0  0  0
  189.1690  177.2830  146.8810 C   0  0  0  0  0  2  0  0  0  0  0  0
  188.1520  176.9550  145.7380 C   0  0  1  0  0  3  0  0  0  0  0  0
  188.4740  175.8940  146.8390 C   0  0  1  0  0  3  0  0  0  0  0  0
  189.5210  174.9090  146.3180 C   0  0  0  0  0  2  0  0  0  0  0  0
  190.9320  175.5750  146.1740 C   0  0  0  0  0  2  0  0  0  0  0  0
  190.7160  174.4280  143.8650 C   0  0  0  0  0  2  0  0  0  0  0  0
  191.5960  177.7170  144.2510 C   0  0  0  0  0  1  0  0  0  0  0  0
  191.1330  175.5250  142.8920 C   0  0  0  0  0  2  0  0  0  0  0  0
  191.7060  175.0470  144.9020 C   0  0  2  0  0  0  0  0  0  0  0  0
  192.8900  174.0950  145.0710 C   0  0  0  0  0  1  0  0  0  0  0  0
  192.0150  176.2300  143.9310 C   0  0  2  0  0  3  0  0  0  0  0  0
  190.7250  172.5410  139.9590 C   0  0  0  0  0  0  0  0  0  0  0  0
  190.3930  171.3130  140.2770 N   0  0  0  0  0  0  0  0  0  0  0  0
  192.0030  173.3180  140.4350 C   0  0  0  0  0  2  0  0  0  0  0  0
  192.8280  174.1620  139.6110 C   0  0  0  0  0  2  0  0  0  0  0  0
  194.8400  173.2760  140.8200 C   0  0  0  0  0  2  0  0  0  0  0  0
  194.9920  174.0760  142.0750 N   0  0  2  0  0  0  0  0  0  0  0  0
  194.3070  174.4670  140.0220 C   0  0  2  0  0  3  0  0  0  0  0  0
  194.5850  175.2580  141.2890 C   0  0  0  0  0  2  0  0  0  0  0  0
  197.1190  175.2920  142.4510 O   0  0  0  0  0  1  0  0  0  0  0  0
  197.1030  172.9860  142.4990 O   0  0  0  0  0  0  0  0  0  0  0  0
  196.7930  173.4310  143.7510 C   0  0  1  0  0  3  0  0  0  0  0  0
  196.3720  174.1370  142.4930 C   0  0  2  0  0  0  0  0  0  0  0  0
  196.1070  172.3060  144.4650 C   0  0  0  0  0  2  0  0  0  0  0  0
  196.6980  172.0860  145.7210 O   0  0  0  0  0  0  0  0  0  0  0  0
  196.8510  173.4300  146.1660 C   0  0  0  0  0  1  0  0  0  0  0  0
  191.1520  170.3780  141.0710 N   0  0  0  0  0  2  0  0  0  0  0  0
  193.2070  169.2830  140.6360 C   0  0  0  0  0  3  0  0  0  0  0  0
  191.0360  168.7450  139.2430 C   0  0  0  0  0  3  0  0  0  0  0  0
  194.7530  171.4290  137.6370 Cl  0  0  0  0  0  0  0  0  0  0  0  0
  193.5440  170.4400  138.4370 C   0  0  0  0  0  0  0  0  0  0  0  0
  191.6990  169.1380  140.5890 C   0  0  2  0  0  3  0  0  0  0  0  0
  193.9880  169.9310  139.7800 C   0  0  0  0  0  3  0  0  0  0  0  0
  191.3280  169.2220  138.0390 C   0  0  0  0  0  3  0  0  0  0  0  0
  192.4630  170.1170  137.7360 C   0  0  0  0  0  3  0  0  0  0  0  0
  1  2  1  0  0  0  0
  1 30  1  0  0  0  0
  2  9  1  0  0  0  0
  3  2  2  0  0  0  0
  4  1  2  0  0  0  0
  5  3  1  0  0  0  0
  6  5  2  0  0  0  0
  6  4  1  0  0  0  0
  8 10  1  0  0  0  0
  9  8  1  0  0  0  0
  9  7  2  0  0  0  0
 11 10  1  0  0  0  0
 11 12  1  0  0  0  0
 12 14  1  0  0  0  0
 14 13  1  1  0  0  0
 14 15  1  0  0  0  0
 15 16  1  0  0  0  0
 16 18  1  0  0  0  0
 16 17  1  1  0  0  0
 20 18  1  1  0  0  0
 20 21  1  0  0  0  0
 20 19  1  0  0  0  0
 21 22  1  6  0  0  0
 21 19  1  0  0  0  0
 23 22  1  0  0  0  0
 24 27  1  0  0  0  0
 26 24  1  0  0  0  0
 26 29  1  0  0  0  0
 27 28  1  1  0  0  0
 27 23  1  0  0  0  0
 29 25  1  1  0  0  0
 29 27  1  0  0  0  0
 30 31  2  0  0  0  0
 30 32  1  0  0  0  0
 31 45  1  0  0  0  0
 33 32  1  0  0  0  0
 35 34  1  6  0  0  0
 35 41  1  0  0  0  0
 36 33  1  1  0  0  0
 36 34  1  0  0  0  0
 36 37  1  0  0  0  0
 37 35  1  0  0  0  0
 39 40  1  0  0  0  0
 40 42  1  6  0  0  0
 41 38  1  6  0  0  0
 41 39  1  0  0  0  0
 41 40  1  0  0  0  0
 42 43  1  0  0  0  0
 43 44  1  0  0  0  0
 47 50  1  0  0  0  0
 48 49  1  0  0  0  0
 49 51  1  0  0  0  0
 50 46  1  0  0  0  0
 50 45  1  6  0  0  0
 51 46  2  0  0  0  0
 52 47  2  0  0  0  0
 53 52  1  0  0  0  0
 53 49  2  0  0  0  0
M  END
>  <MODEL>
6

>  <REMARK>
 VINA RESULT:      -5.7      2.851      8.726
  Name = 
  20 active torsions:
  status: ('A' for Active; 'I' for Inactive)
    1  A    between atoms: C_1  and  C_8
    2  A    between atoms: C_2  and  O_10
    3  A    between atoms: C_2  and  C_30
    4  A    between atoms: C_4  and  C_46
    5  A    between atoms: C_6  and  C_11
    6  A    between atoms: C_6  and  C_40
    7  A    between atoms: C_7  and  C_20
    8  A    between atoms: C_7  and  C_37
    9  A    between atoms: C_8  and  C_21
   10  A    between atoms: C_11  and  C_22
   11  A    between atoms: S_12  and  C_23
   12  A    between atoms: S_12  and  C_27
   13  A    between atoms: N_18  and  C_28
   14  A    between atoms: N_18  and  N_49
   15  A    between atoms: C_20  and  C_50
   16  A    between atoms: C_22  and  C_42
   17  A    between atoms: C_23  and  N_41
   18  A    between atoms: N_24  and  C_44
   19  A    between atoms: C_27  and  C_40
   20  A    between atoms: C_33  and  C_51
                            x       y       z     vdW  Elec       q    Type
                         _______ _______ _______ _____ _____    ______ ____

>  <TORSDO>
F 20

$$$$
=
 OpenBabel11062420273D

 53 58  0  0  1  0  0  0  0  0999 V2000
  189.8560  173.6050  140.2490 C   0  0  0  0  0  0  0  0  0  0  0  0
  190.8370  172.5060  140.4280 C   0  0  0  0  0  0  0  0  0  0  0  0
  191.0080  171.6020  139.3730 C   0  0  0  0  0  3  0  0  0  0  0  0
  189.1220  173.5950  139.0130 C   0  0  0  0  0  3  0  0  0  0  0  0
  190.2830  171.7140  138.2150 C   0  0  0  0  0  3  0  0  0  0  0  0
  189.3850  172.6830  138.0440 N   0  0  0  0  0  0  0  0  0  0  0  0
  190.6690  171.5220  142.5740 O   0  0  0  0  0  0  0  0  0  0  0  0
  192.8450  172.0730  141.9210 N   0  0  0  0  0  2  0  0  0  0  0  0
  191.4270  171.9890  141.6530 C   0  0  0  0  0  0  0  0  0  0  0  0
  193.4730  172.1320  143.2470 C   0  0  0  0  0  2  0  0  0  0  0  0
  195.2590  172.1300  143.1180 S   0  0  0  0  0  0  0  0  0  0  0  0
  195.1980  173.5160  144.3100 C   0  0  0  0  0  2  0  0  0  0  0  0
  197.3010  174.5340  144.3870 O   0  0  0  0  0  1  0  0  0  0  0  0
  196.0720  174.5970  143.7610 C   0  0  2  0  0  3  0  0  0  0  0  0
  195.5020  176.0120  143.4580 C   0  0  0  0  0  2  0  0  0  0  0  0
  195.0370  176.4110  142.1020 C   0  0  2  0  0  3  0  0  0  0  0  0
  194.1210  175.4580  141.7210 O   0  0  0  0  0  1  0  0  0  0  0  0
  196.2290  176.3940  141.2710 C   0  0  0  0  0  2  0  0  0  0  0  0
  197.7580  175.6500  139.4780 C   0  0  0  0  0  2  0  0  0  0  0  0
  196.3190  175.5020  140.0720 C   0  0  1  0  0  3  0  0  0  0  0  0
  197.3940  174.3970  140.3200 C   0  0  1  0  0  3  0  0  0  0  0  0
  197.2010  173.2540  139.3220 C   0  0  0  0  0  2  0  0  0  0  0  0
  195.6880  173.0070  138.9980 C   0  0  0  0  0  2  0  0  0  0  0  0
  194.7250  171.7980  136.9240 C   0  0  0  0  0  2  0  0  0  0  0  0
  193.2150  174.5050  138.3880 C   0  0  0  0  0  1  0  0  0  0  0  0
  193.4930  172.6270  136.5810 C   0  0  0  0  0  2  0  0  0  0  0  0
  195.3920  173.1080  137.4500 C   0  0  2  0  0  0  0  0  0  0  0  0
  196.5080  173.5050  136.4840 C   0  0  0  0  0  1  0  0  0  0  0  0
  194.0710  173.9030  137.2060 C   0  0  2  0  0  3  0  0  0  0  0  0
  189.5260  174.6870  141.2390 C   0  0  0  0  0  0  0  0  0  0  0  0
  190.4670  175.0700  142.0670 N   0  0  0  0  0  0  0  0  0  0  0  0
  188.0440  175.2040  141.2020 C   0  0  0  0  0  2  0  0  0  0  0  0
  187.6370  176.5710  141.0070 C   0  0  0  0  0  2  0  0  0  0  0  0
  186.3260  178.5250  141.8760 C   0  0  0  0  0  2  0  0  0  0  0  0
  186.0170  178.2490  143.3140 N   0  0  2  0  0  0  0  0  0  0  0  0
  186.2250  177.0510  141.4810 C   0  0  2  0  0  3  0  0  0  0  0  0
  185.8070  176.8390  142.9260 C   0  0  0  0  0  2  0  0  0  0  0  0
  183.5820  178.6630  143.1160 O   0  0  0  0  0  1  0  0  0  0  0  0
  184.8780  180.0850  144.3880 O   0  0  0  0  0  0  0  0  0  0  0  0
  184.4920  179.0470  145.1860 C   0  0  1  0  0  3  0  0  0  0  0  0
  184.7940  178.8990  143.7210 C   0  0  2  0  0  0  0  0  0  0  0  0
  185.4410  179.0000  146.3450 C   0  0  0  0  0  2  0  0  0  0  0  0
  184.8640  178.3130  147.4270 O   0  0  0  0  0  0  0  0  0  0  0  0
  185.9660  177.5060  147.8300 C   0  0  0  0  0  1  0  0  0  0  0  0
  190.3810  176.0960  143.0760 N   0  0  0  0  0  2  0  0  0  0  0  0
  190.3430  176.9900  145.2690 C   0  0  0  0  0  3  0  0  0  0  0  0
  189.7620  174.4640  144.7990 C   0  0  0  0  0  3  0  0  0  0  0  0
  193.9510  176.0260  146.6960 Cl  0  0  0  0  0  0  0  0  0  0  0  0
  192.3720  175.7100  146.0000 C   0  0  0  0  0  0  0  0  0  0  0  0
  189.7330  175.9480  144.3530 C   0  0  2  0  0  3  0  0  0  0  0  0
  191.5170  176.9420  145.8870 C   0  0  0  0  0  3  0  0  0  0  0  0
  190.7780  173.8150  145.3550 C   0  0  0  0  0  3  0  0  0  0  0  0
  192.0400  174.4410  145.7990 C   0  0  0  0  0  3  0  0  0  0  0  0
  1  2  1  0  0  0  0
  1 30  1  0  0  0  0
  2  9  1  0  0  0  0
  3  2  2  0  0  0  0
  4  1  2  0  0  0  0
  5  3  1  0  0  0  0
  6  5  2  0  0  0  0
  6  4  1  0  0  0  0
  8 10  1  0  0  0  0
  9  8  1  0  0  0  0
  9  7  2  0  0  0  0
 11 10  1  0  0  0  0
 11 12  1  0  0  0  0
 14 12  1  0  0  0  0
 14 13  1  1  0  0  0
 15 14  1  0  0  0  0
 16 17  1  6  0  0  0
 16 15  1  0  0  0  0
 18 16  1  0  0  0  0
 19 20  1  0  0  0  0
 19 21  1  0  0  0  0
 20 21  1  0  0  0  0
 20 18  1  1  0  0  0
 21 22  1  6  0  0  0
 23 22  1  0  0  0  0
 24 27  1  0  0  0  0
 26 24  1  0  0  0  0
 26 29  1  0  0  0  0
 27 28  1  6  0  0  0
 27 23  1  0  0  0  0
 29 27  1  0  0  0  0
 29 25  1  1  0  0  0
 30 31  2  0  0  0  0
 31 45  1  0  0  0  0
 32 30  1  0  0  0  0
 33 32  1  0  0  0  0
 35 34  1  6  0  0  0
 35 41  1  0  0  0  0
 36 33  1  1  0  0  0
 36 34  1  0  0  0  0
 36 37  1  0  0  0  0
 37 35  1  0  0  0  0
 39 40  1  0  0  0  0
 40 42  1  1  0  0  0
 41 38  1  6  0  0  0
 41 39  1  0  0  0  0
 41 40  1  0  0  0  0
 42 43  1  0  0  0  0
 43 44  1  0  0  0  0
 46 51  2  0  0  0  0
 47 52  2  0  0  0  0
 49 48  1  0  0  0  0
 50 45  1  6  0  0  0
 50 47  1  0  0  0  0
 50 46  1  0  0  0  0
 51 49  1  0  0  0  0
 52 53  1  0  0  0  0
 53 49  2  0  0  0  0
M  END
>  <MODEL>
7

>  <REMARK>
 VINA RESULT:      -5.4      1.695      2.551
  Name = 
  20 active torsions:
  status: ('A' for Active; 'I' for Inactive)
    1  A    between atoms: C_1  and  C_8
    2  A    between atoms: C_2  and  O_10
    3  A    between atoms: C_2  and  C_30
    4  A    between atoms: C_4  and  C_46
    5  A    between atoms: C_6  and  C_11
    6  A    between atoms: C_6  and  C_40
    7  A    between atoms: C_7  and  C_20
    8  A    between atoms: C_7  and  C_37
    9  A    between atoms: C_8  and  C_21
   10  A    between atoms: C_11  and  C_22
   11  A    between atoms: S_12  and  C_23
   12  A    between atoms: S_12  and  C_27
   13  A    between atoms: N_18  and  C_28
   14  A    between atoms: N_18  and  N_49
   15  A    between atoms: C_20  and  C_50
   16  A    between atoms: C_22  and  C_42
   17  A    between atoms: C_23  and  N_41
   18  A    between atoms: N_24  and  C_44
   19  A    between atoms: C_27  and  C_40
   20  A    between atoms: C_33  and  C_51
                            x       y       z     vdW  Elec       q    Type
                         _______ _______ _______ _____ _____    ______ ____

>  <TORSDO>
F 20

$$$$
=
 OpenBabel11062420273D

 53 58  0  0  1  0  0  0  0  0999 V2000
  188.9300  173.8160  140.2640 C   0  0  0  0  0  0  0  0  0  0  0  0
  189.7020  172.5500  140.2500 C   0  0  0  0  0  0  0  0  0  0  0  0
  189.7650  171.8340  139.0490 C   0  0  0  0  0  3  0  0  0  0  0  0
  188.2600  174.1560  139.0390 C   0  0  0  0  0  3  0  0  0  0  0  0
  189.1210  172.2760  137.9220 C   0  0  0  0  0  3  0  0  0  0  0  0
  188.4080  173.4010  137.9210 N   0  0  0  0  0  0  0  0  0  0  0  0
  189.3720  171.5640  142.3760 O   0  0  0  0  0  0  0  0  0  0  0  0
  191.4710  171.1590  141.4290 N   0  0  0  0  0  2  0  0  0  0  0  0
  190.1430  171.7270  141.3660 C   0  0  0  0  0  0  0  0  0  0  0  0
  192.2130  170.8270  142.6520 C   0  0  0  0  0  2  0  0  0  0  0  0
  192.5260  169.0680  142.7600 S   0  0  0  0  0  0  0  0  0  0  0  0
  194.2020  169.5520  143.3140 C   0  0  0  0  0  2  0  0  0  0  0  0
  193.3120  168.7290  145.3130 O   0  0  0  0  0  1  0  0  0  0  0  0
  194.4760  168.7950  144.5730 C   0  0  2  0  0  3  0  0  0  0  0  0
  195.8040  168.9980  145.3570 C   0  0  0  0  0  2  0  0  0  0  0  0
  196.7030  170.1590  145.1170 C   0  0  2  0  0  3  0  0  0  0  0  0
  197.9350  169.7900  145.6050 O   0  0  0  0  0  1  0  0  0  0  0  0
  196.1170  171.2550  145.8690 C   0  0  0  0  0  2  0  0  0  0  0  0
  196.7530  173.6170  146.2190 C   0  0  0  0  0  2  0  0  0  0  0  0
  196.0030  172.6240  145.2720 C   0  0  1  0  0  3  0  0  0  0  0  0
  197.4240  173.1530  144.8970 C   0  0  1  0  0  3  0  0  0  0  0  0
  197.2990  174.3240  143.9210 C   0  0  0  0  0  2  0  0  0  0  0  0
  196.1920  174.0720  142.8420 C   0  0  0  0  0  2  0  0  0  0  0  0
  197.6240  174.8920  140.8490 C   0  0  0  0  0  2  0  0  0  0  0  0
  194.6530  173.2270  140.4650 C   0  0  0  0  0  1  0  0  0  0  0  0
  196.7800  174.5130  139.6370 C   0  0  0  0  0  2  0  0  0  0  0  0
  196.2940  175.0950  141.6420 C   0  0  2  0  0  0  0  0  0  0  0  0
  196.1040  176.5900  141.8970 C   0  0  0  0  0  1  0  0  0  0  0  0
  195.4650  174.5800  140.4240 C   0  0  2  0  0  3  0  0  0  0  0  0
  188.7440  174.7440  141.4320 C   0  0  0  0  0  0  0  0  0  0  0  0
  187.5280  174.9200  141.8890 N   0  0  0  0  0  0  0  0  0  0  0  0
  190.0480  175.4520  141.9440 C   0  0  0  0  0  2  0  0  0  0  0  0
  191.3960  175.0410  141.6510 C   0  0  0  0  0  2  0  0  0  0  0  0
  192.5960  174.5430  143.7980 C   0  0  0  0  0  2  0  0  0  0  0  0
  192.2700  175.6450  144.7550 N   0  0  2  0  0  0  0  0  0  0  0  0
  192.5760  175.4740  142.5840 C   0  0  2  0  0  3  0  0  0  0  0  0
  192.3570  176.5730  143.6100 C   0  0  0  0  0  2  0  0  0  0  0  0
  194.5660  176.3490  145.3660 O   0  0  0  0  0  1  0  0  0  0  0  0
  193.3190  175.1160  146.8630 O   0  0  0  0  0  0  0  0  0  0  0  0
  193.0170  176.4330  147.0540 C   0  0  1  0  0  3  0  0  0  0  0  0
  193.3350  175.8430  145.7090 C   0  0  2  0  0  0  0  0  0  0  0  0
  191.6980  176.4880  147.7630 C   0  0  0  0  0  2  0  0  0  0  0  0
  191.2160  175.1910  148.0090 O   0  0  0  0  0  0  0  0  0  0  0  0
  189.9270  175.2830  147.4130 C   0  0  0  0  0  1  0  0  0  0  0  0
  187.1220  175.7410  143.0030 N   0  0  0  0  0  2  0  0  0  0  0  0
  188.0440  177.5810  144.1760 C   0  0  0  0  0  3  0  0  0  0  0  0
  185.7020  177.7420  142.9820 C   0  0  0  0  0  3  0  0  0  0  0  0
  186.3310  177.3020  147.7780 Cl  0  0  0  0  0  0  0  0  0  0  0  0
  186.3610  177.4510  146.0300 C   0  0  0  0  0  0  0  0  0  0  0  0
  187.1470  177.1800  143.0230 C   0  0  2  0  0  3  0  0  0  0  0  0
  187.7490  177.5930  145.4700 C   0  0  0  0  0  3  0  0  0  0  0  0
  184.8540  177.8450  143.9990 C   0  0  0  0  0  3  0  0  0  0  0  0
  185.1930  177.5810  145.4110 C   0  0  0  0  0  3  0  0  0  0  0  0
  1 30  1  0  0  0  0
  2  1  1  0  0  0  0
  2  9  1  0  0  0  0
  3  2  2  0  0  0  0
  4  1  2  0  0  0  0
  5  3  1  0  0  0  0
  6  5  2  0  0  0  0
  6  4  1  0  0  0  0
  8 10  1  0  0  0  0
  9  8  1  0  0  0  0
  9  7  2  0  0  0  0
 10 11  1  0  0  0  0
 11 12  1  0  0  0  0
 12 14  1  0  0  0  0
 14 13  1  1  0  0  0
 14 15  1  0  0  0  0
 16 15  1  0  0  0  0
 16 17  1  1  0  0  0
 16 18  1  0  0  0  0
 20 18  1  1  0  0  0
 20 19  1  0  0  0  0
 21 22  1  6  0  0  0
 21 20  1  0  0  0  0
 21 19  1  0  0  0  0
 23 22  1  0  0  0  0
 24 27  1  0  0  0  0
 26 29  1  0  0  0  0
 26 24  1  0  0  0  0
 27 28  1  1  0  0  0
 27 23  1  0  0  0  0
 29 25  1  1  0  0  0
 29 27  1  0  0  0  0
 30 31  2  0  0  0  0
 30 32  1  0  0  0  0
 31 45  1  0  0  0  0
 33 32  1  0  0  0  0
 34 35  1  0  0  0  0
 35 37  1  6  0  0  0
 35 41  1  0  0  0  0
 36 33  1  6  0  0  0
 36 37  1  0  0  0  0
 36 34  1  0  0  0  0
 39 40  1  0  0  0  0
 40 42  1  6  0  0  0
 41 38  1  6  0  0  0
 41 39  1  0  0  0  0
 41 40  1  0  0  0  0
 42 43  1  0  0  0  0
 44 43  1  0  0  0  0
 46 51  2  0  0  0  0
 47 50  1  0  0  0  0
 47 52  2  0  0  0  0
 49 48  1  0  0  0  0
 50 45  1  1  0  0  0
 50 46  1  0  0  0  0
 51 49  1  0  0  0  0
 52 53  1  0  0  0  0
 53 49  2  0  0  0  0
M  END
>  <MODEL>
8

>  <REMARK>
 VINA RESULT:      -5.4      2.623      4.813
  Name = 
  20 active torsions:
  status: ('A' for Active; 'I' for Inactive)
    1  A    between atoms: C_1  and  C_8
    2  A    between atoms: C_2  and  O_10
    3  A    between atoms: C_2  and  C_30
    4  A    between atoms: C_4  and  C_46
    5  A    between atoms: C_6  and  C_11
    6  A    between atoms: C_6  and  C_40
    7  A    between atoms: C_7  and  C_20
    8  A    between atoms: C_7  and  C_37
    9  A    between atoms: C_8  and  C_21
   10  A    between atoms: C_11  and  C_22
   11  A    between atoms: S_12  and  C_23
   12  A    between atoms: S_12  and  C_27
   13  A    between atoms: N_18  and  C_28
   14  A    between atoms: N_18  and  N_49
   15  A    between atoms: C_20  and  C_50
   16  A    between atoms: C_22  and  C_42
   17  A    between atoms: C_23  and  N_41
   18  A    between atoms: N_24  and  C_44
   19  A    between atoms: C_27  and  C_40
   20  A    between atoms: C_33  and  C_51
                            x       y       z     vdW  Elec       q    Type
                         _______ _______ _______ _____ _____    ______ ____

>  <TORSDO>
F 20

$$$$
=
 OpenBabel11062420273D

 53 58  0  0  1  0  0  0  0  0999 V2000
  189.4600  175.9900  142.3020 C   0  0  0  0  0  0  0  0  0  0  0  0
  188.8770  174.8600  141.5380 C   0  0  0  0  0  0  0  0  0  0  0  0
  187.8250  175.1370  140.6570 C   0  0  0  0  0  3  0  0  0  0  0  0
  188.8330  177.2690  142.1060 C   0  0  0  0  0  3  0  0  0  0  0  0
  187.3320  176.4090  140.5150 C   0  0  0  0  0  3  0  0  0  0  0  0
  187.8310  177.4330  141.2060 N   0  0  0  0  0  0  0  0  0  0  0  0
  187.9730  172.7940  142.2550 O   0  0  0  0  0  0  0  0  0  0  0  0
  190.2200  172.7050  141.6140 N   0  0  0  0  0  2  0  0  0  0  0  0
  188.9810  173.4300  141.7840 C   0  0  0  0  0  0  0  0  0  0  0  0
  190.6130  171.4830  142.3260 C   0  0  0  0  0  2  0  0  0  0  0  0
  190.9880  171.8280  144.0420 S   0  0  0  0  0  0  0  0  0  0  0  0
  192.3820  170.6630  143.8160 C   0  0  0  0  0  2  0  0  0  0  0  0
  193.2740  172.3330  145.1880 O   0  0  0  0  0  1  0  0  0  0  0  0
  193.6190  171.3800  144.2490 C   0  0  2  0  0  3  0  0  0  0  0  0
  194.7230  171.7630  143.2230 C   0  0  0  0  0  2  0  0  0  0  0  0
  195.9760  170.9760  143.0680 C   0  0  2  0  0  3  0  0  0  0  0  0
  196.3280  170.5730  144.3350 O   0  0  0  0  0  1  0  0  0  0  0  0
  196.9390  171.9030  142.4960 C   0  0  0  0  0  2  0  0  0  0  0  0
  197.9410  172.9660  140.5030 C   0  0  0  0  0  2  0  0  0  0  0  0
  196.6060  172.7030  141.2750 C   0  0  1  0  0  3  0  0  0  0  0  0
  196.9560  171.8770  139.9960 C   0  0  1  0  0  3  0  0  0  0  0  0
  196.2450  172.4780  138.7820 C   0  0  0  0  0  2  0  0  0  0  0  0
  194.8380  173.0560  139.1540 C   0  0  0  0  0  2  0  0  0  0  0  0
  195.8350  175.0180  137.7940 C   0  0  0  0  0  2  0  0  0  0  0  0
  192.7890  173.6090  137.0970 C   0  0  0  0  0  1  0  0  0  0  0  0
  194.7350  175.3360  136.7880 C   0  0  0  0  0  2  0  0  0  0  0  0
  194.7170  174.5910  138.7970 C   0  0  2  0  0  0  0  0  0  0  0  0
  194.6450  175.6300  139.9150 C   0  0  0  0  0  1  0  0  0  0  0  0
  193.6250  174.8030  137.7020 C   0  0  2  0  0  3  0  0  0  0  0  0
  190.5960  175.9220  143.2830 C   0  0  0  0  0  0  0  0  0  0  0  0
  191.7510  175.4720  142.8560 N   0  0  0  0  0  0  0  0  0  0  0  0
  190.2450  176.3540  144.7510 C   0  0  0  0  0  2  0  0  0  0  0  0
  189.6210  175.5210  145.7450 C   0  0  0  0  0  2  0  0  0  0  0  0
  187.4020  176.3470  146.5750 C   0  0  0  0  0  2  0  0  0  0  0  0
  187.4820  177.8390  146.6460 N   0  0  2  0  0  0  0  0  0  0  0  0
  188.8720  176.1630  146.9590 C   0  0  2  0  0  3  0  0  0  0  0  0
  188.8690  177.6740  147.1250 C   0  0  0  0  0  2  0  0  0  0  0  0
  187.0600  178.9970  148.7960 O   0  0  0  0  0  1  0  0  0  0  0  0
  185.3460  177.8460  147.7690 O   0  0  0  0  0  0  0  0  0  0  0  0
  185.3660  179.1100  147.2550 C   0  0  1  0  0  3  0  0  0  0  0  0
  186.6040  178.3620  147.6650 C   0  0  2  0  0  0  0  0  0  0  0  0
  184.6390  179.0690  145.9450 C   0  0  0  0  0  2  0  0  0  0  0  0
  184.5600  177.7490  145.4670 O   0  0  0  0  0  0  0  0  0  0  0  0
  184.6730  177.9810  144.0670 C   0  0  0  0  0  1  0  0  0  0  0  0
  192.9730  175.3410  143.6100 N   0  0  0  0  0  2  0  0  0  0  0  0
  195.2470  175.9910  143.4630 C   0  0  0  0  0  3  0  0  0  0  0  0
  193.6890  176.8520  145.4060 C   0  0  0  0  0  3  0  0  0  0  0  0
  197.0790  173.4090  145.9050 Cl  0  0  0  0  0  0  0  0  0  0  0  0
  195.9250  174.6590  145.4770 C   0  0  0  0  0  0  0  0  0  0  0  0
  193.8700  176.4210  143.9270 C   0  0  2  0  0  3  0  0  0  0  0  0
  196.0820  175.1540  144.0660 C   0  0  0  0  0  3  0  0  0  0  0  0
  194.1930  176.2550  146.4790 C   0  0  0  0  0  3  0  0  0  0  0  0
  195.1620  175.1410  146.4510 C   0  0  0  0  0  3  0  0  0  0  0  0
  1 30  1  0  0  0  0
  2  9  1  0  0  0  0
  2  1  2  0  0  0  0
  3  2  1  0  0  0  0
  4  1  1  0  0  0  0
  5  3  2  0  0  0  0
  5  6  1  0  0  0  0
  6  4  2  0  0  0  0
  8  9  1  0  0  0  0
  8 10  1  0  0  0  0
  9  7  2  0  0  0  0
 10 11  1  0  0  0  0
 12 11  1  0  0  0  0
 12 14  1  0  0  0  0
 14 13  1  6  0  0  0
 15 14  1  0  0  0  0
 16 15  1  0  0  0  0
 16 17  1  1  0  0  0
 18 16  1  0  0  0  0
 19 20  1  0  0  0  0
 20 18  1  1  0  0  0
 21 22  1  6  0  0  0
 21 19  1  0  0  0  0
 21 20  1  0  0  0  0
 22 23  1  0  0  0  0
 24 27  1  0  0  0  0
 26 29  1  0  0  0  0
 26 24  1  0  0  0  0
 27 23  1  0  0  0  0
 27 28  1  1  0  0  0
 29 25  1  6  0  0  0
 29 27  1  0  0  0  0
 30 32  1  0  0  0  0
 31 30  2  0  0  0  0
 31 45  1  0  0  0  0
 32 33  1  0  0  0  0
 34 36  1  0  0  0  0
 35 34  1  1  0  0  0
 35 37  1  0  0  0  0
 35 41  1  0  0  0  0
 36 33  1  6  0  0  0
 36 37  1  0  0  0  0
 40 42  1  6  0  0  0
 40 41  1  0  0  0  0
 40 39  1  0  0  0  0
 41 39  1  0  0  0  0
 41 38  1  1  0  0  0
 43 42  1  0  0  0  0
 44 43  1  0  0  0  0
 46 50  1  0  0  0  0
 46 51  2  0  0  0  0
 47 52  2  0  0  0  0
 49 48  1  0  0  0  0
 49 53  2  0  0  0  0
 50 45  1  1  0  0  0
 50 47  1  0  0  0  0
 51 49  1  0  0  0  0
 53 52  1  0  0  0  0
M  END
>  <MODEL>
9

>  <REMARK>
 VINA RESULT:      -5.3      2.283      4.322
  Name = 
  20 active torsions:
  status: ('A' for Active; 'I' for Inactive)
    1  A    between atoms: C_1  and  C_8
    2  A    between atoms: C_2  and  O_10
    3  A    between atoms: C_2  and  C_30
    4  A    between atoms: C_4  and  C_46
    5  A    between atoms: C_6  and  C_11
    6  A    between atoms: C_6  and  C_40
    7  A    between atoms: C_7  and  C_20
    8  A    between atoms: C_7  and  C_37
    9  A    between atoms: C_8  and  C_21
   10  A    between atoms: C_11  and  C_22
   11  A    between atoms: S_12  and  C_23
   12  A    between atoms: S_12  and  C_27
   13  A    between atoms: N_18  and  C_28
   14  A    between atoms: N_18  and  N_49
   15  A    between atoms: C_20  and  C_50
   16  A    between atoms: C_22  and  C_42
   17  A    between atoms: C_23  and  N_41
   18  A    between atoms: N_24  and  C_44
   19  A    between atoms: C_27  and  C_40
   20  A    between atoms: C_33  and  C_51
                            x       y       z     vdW  Elec       q    Type
                         _______ _______ _______ _____ _____    ______ ____

>  <TORSDO>
F 20

$$$$
