=
 OpenBabel11062420403D

 60 65  0  0  1  0  0  0  0  0999 V2000
  188.7200  173.3260  140.7960 C   0  0  1  0  0  0  0  0  0  0  0  0
  188.4290  173.6410  138.7330 O   0  0  0  0  0  0  0  0  0  0  0  0
  188.8910  172.5550  139.4970 C   0  0  1  0  0  3  0  0  0  0  0  0
  188.2430  174.4200  139.8910 C   0  0  0  0  0  2  0  0  0  0  0  0
  187.6630  172.8560  141.5760 O   0  0  0  0  0  1  0  0  0  0  0  0
  190.3400  172.1970  139.1140 C   0  0  1  0  0  3  0  0  0  0  0  0
  190.6360  170.7650  139.5170 C   0  0  0  0  0  1  0  0  0  0  0  0
  189.5330  171.9930  136.8130 O   0  0  0  0  0  1  0  0  0  0  0  0
  190.6350  172.3100  137.6130 C   0  0  1  0  0  3  0  0  0  0  0  0
  190.4720  174.3960  136.4100 O   0  0  0  0  0  1  0  0  0  0  0  0
  191.3300  173.6050  137.1750 C   0  0  2  0  0  3  0  0  0  0  0  0
  192.6940  173.4290  136.5490 C   0  0  0  0  0  0  0  0  0  0  0  0
  193.7870  172.8050  137.2370 N   0  0  0  0  0  2  0  0  0  0  0  0
  192.7870  173.5650  135.2690 N   0  0  0  0  0  2  0  0  0  0  0  0
  194.0040  172.8450  138.6750 C   0  0  0  0  0  2  0  0  0  0  0  0
  194.4920  171.4890  139.1400 C   0  0  0  0  0  2  0  0  0  0  0  0
  194.1600  171.2510  140.6050 C   0  0  2  0  0  3  0  0  0  0  0  0
  193.6440  172.4260  141.1530 O   0  0  0  0  0  1  0  0  0  0  0  0
  196.3530  171.1280  143.8440 C   0  0  2  0  0  0  0  0  0  0  0  0
  194.9320  170.2560  143.0830 S   0  0  0  0  0  0  0  0  0  0  0  0
  195.3850  170.7900  141.3910 C   0  0  2  0  0  3  0  0  0  0  0  0
  197.8890  172.7800  142.9900 O   0  0  0  0  0  0  0  0  0  0  0  0
  196.9420  171.9750  142.7750 C   0  0  0  0  0  0  0  0  0  0  0  0
  196.3770  171.8380  141.4870 N   0  0  0  0  0  2  0  0  0  0  0  0
  197.3940  170.1160  144.3150 C   0  0  0  0  0  2  0  0  0  0  0  0
  197.0900  169.6390  145.5930 O   0  0  0  0  0  1  0  0  0  0  0  0
  195.8790  171.9840  145.0180 C   0  0  0  0  0  2  0  0  0  0  0  0
  194.8730  172.8880  144.6080 O   0  0  0  0  0  0  0  0  0  0  0  0
  196.4000  174.1770  145.9950 C   0  0  0  0  0  1  0  0  0  0  0  0
  195.0990  174.1610  145.1910 C   0  0  2  0  0  0  0  0  0  0  0  0
  194.0700  174.3980  146.0820 F   0  0  0  0  0  0  0  0  0  0  0  0
  195.0930  176.5990  144.5790 O   0  0  0  0  0  1  0  0  0  0  0  0
  195.0860  175.0090  142.9310 O   0  0  0  0  0  0  0  0  0  0  0  0
  195.0630  175.2710  144.1650 C   0  0  0  0  0  0  0  0  0  0  0  0
  189.9410  173.7720  141.6090 C   0  0  0  0  0  2  0  0  0  0  0  0
  189.5950  174.4800  142.8430 N   0  0  0  0  0  0  0  0  0  0  0  0
  190.2550  174.1390  144.0580 C   0  0  0  0  0  0  0  0  0  0  0  0
  190.1820  176.4610  144.0170 C   0  0  1  0  0  3  0  0  0  0  0  0
  189.3230  175.9190  142.8720 C   0  0  2  0  0  3  0  0  0  0  0  0
  190.5750  175.2210  144.7510 C   0  0  0  0  0  0  0  0  0  0  0  0
  189.4360  171.9880  145.0000 O   0  0  0  0  0  1  0  0  0  0  0  0
  191.6400  172.2540  144.4790 O   0  0  0  0  0  0  0  0  0  0  0  0
  190.4850  172.7500  144.5040 C   0  0  0  0  0  0  0  0  0  0  0  0
  191.4210  177.1470  143.4590 C   0  0  0  0  0  2  0  0  0  0  0  0
  191.2830  178.5320  143.5350 O   0  0  0  0  0  1  0  0  0  0  0  0
  191.1800  175.1920  146.0100 O   0  0  0  0  0  0  0  0  0  0  0  0
  189.1640  174.6550  147.2090 C   0  0  0  0  0  2  0  0  0  0  0  0
  188.3620  175.9280  147.0350 C   0  0  0  0  0  2  0  0  0  0  0  0
  190.4500  175.4610  147.2010 C   0  0  0  0  0  3  0  0  0  0  0  0
  189.6470  176.7340  147.0240 C   0  0  0  0  0  2  0  0  0  0  0  0
  187.8680  176.1540  143.2660 C   0  0  0  0  0  2  0  0  0  0  0  0
  183.7190  178.1090  142.0510 C   0  0  0  0  0  3  0  0  0  0  0  0
  185.5020  178.3980  140.5410 N   0  0  0  0  0  0  0  0  0  0  0  0
  185.1420  177.9120  144.1080 C   0  0  0  0  0  3  0  0  0  0  0  0
  187.3650  178.3480  142.1800 C   0  0  0  0  0  2  0  0  0  0  0  0
  187.5800  177.6190  143.5280 C   0  0  1  0  0  3  0  0  0  0  0  0
  184.8780  178.0540  142.6780 C   0  0  0  0  0  0  0  0  0  0  0  0
  185.9380  178.2280  141.7400 C   0  0  0  0  0  0  0  0  0  0  0  0
  184.0390  178.3060  140.5900 C   0  0  0  0  0  3  0  0  0  0  0  0
  186.4170  177.7580  144.5060 C   0  0  0  0  0  2  0  0  0  0  0  0
  1  5  1  1  0  0  0
  1 35  1  0  0  0  0
  2  3  1  0  0  0  0
  2  4  1  0  0  0  0
  3  6  1  6  0  0  0
  3  1  1  0  0  0  0
  4  1  1  0  0  0  0
  6  7  1  6  0  0  0
  9  8  1  6  0  0  0
  9  6  1  0  0  0  0
 11 10  1  6  0  0  0
 11  9  1  0  0  0  0
 12 11  1  0  0  0  0
 12 13  1  0  0  0  0
 13 15  1  0  0  0  0
 14 12  2  0  0  0  0
 15 16  1  0  0  0  0
 16 17  1  0  0  0  0
 17 18  1  1  0  0  0
 19 25  1  1  0  0  0
 19 27  1  0  0  0  0
 20 19  1  0  0  0  0
 21 17  1  1  0  0  0
 21 24  1  0  0  0  0
 21 20  1  0  0  0  0
 23 22  2  0  0  0  0
 23 19  1  0  0  0  0
 24 23  1  0  0  0  0
 25 26  1  0  0  0  0
 28 27  1  0  0  0  0
 28 30  1  0  0  0  0
 30 29  1  1  0  0  0
 30 31  1  0  0  0  0
 33 34  2  0  0  0  0
 34 32  1  0  0  0  0
 34 30  1  0  0  0  0
 35 36  1  0  0  0  0
 36 39  1  0  0  0  0
 36 37  1  0  0  0  0
 37 43  1  0  0  0  0
 37 40  2  0  0  0  0
 38 44  1  6  0  0  0
 38 40  1  0  0  0  0
 39 51  1  1  0  0  0
 39 38  1  0  0  0  0
 40 46  1  0  0  0  0
 42 43  2  0  0  0  0
 43 41  1  0  0  0  0
 44 45  1  0  0  0  0
 46 49  1  0  0  0  0
 48 47  1  0  0  0  0
 49 47  1  0  0  0  0
 50 48  1  0  0  0  0
 50 49  1  0  0  0  0
 52 57  1  0  0  0  0
 53 59  1  0  0  0  0
 53 58  2  0  0  0  0
 54 60  1  0  0  0  0
 55 56  1  0  0  0  0
 56 51  1  6  0  0  0
 56 60  1  0  0  0  0
 57 54  2  0  0  0  0
 58 55  1  0  0  0  0
 58 57  1  0  0  0  0
 59 52  2  0  0  0  0
M  END
>  <MODEL>
1

>  <REMARK>
 VINA RESULT:      -6.6      0.000      0.000
  Name = 
  21 active torsions:
  status: ('A' for Active; 'I' for Inactive)
    1  A    between atoms: N_1  and  C_47
    2  A    between atoms: C_3  and  C_28
    3  A    between atoms: C_3  and  C_38
    4  A    between atoms: C_4  and  C_42
    5  A    between atoms: C_5  and  C_18
    6  A    between atoms: C_7  and  C_32
    7  A    between atoms: O_10  and  C_30
    8  A    between atoms: O_10  and  C_48
    9  A    between atoms: C_12  and  C_47
   10  A    between atoms: C_14  and  C_20
   11  A    between atoms: C_14  and  C_28
   12  A    between atoms: C_18  and  C_22
   13  A    between atoms: N_21  and  C_52
   14  A    between atoms: C_22  and  O_44
   15  A    between atoms: C_23  and  C_26
   16  A    between atoms: C_23  and  C_52
   17  A    between atoms: C_26  and  C_27
   18  A    between atoms: C_35  and  C_59
   19  A    between atoms: C_43  and  O_44
   20  A    between atoms: C_43  and  C_60
   21  A    between atoms: C_46  and  C_59
                            x       y       z     vdW  Elec       q    Type
                         _______ _______ _______ _____ _____    ______ ____

>  <TORSDO>
F 21

$$$$
=
 OpenBabel11062420403D

 60 65  0  0  1  0  0  0  0  0999 V2000
  190.5270  174.2170  142.0540 C   0  0  1  0  0  0  0  0  0  0  0  0
  192.6060  173.8710  142.0620 O   0  0  0  0  0  0  0  0  0  0  0  0
  191.4830  173.0490  141.8600 C   0  0  1  0  0  3  0  0  0  0  0  0
  191.7880  175.0010  142.2530 C   0  0  0  0  0  2  0  0  0  0  0  0
  189.9000  174.6130  140.8720 O   0  0  0  0  0  1  0  0  0  0  0  0
  191.4170  171.9440  142.9310 C   0  0  1  0  0  3  0  0  0  0  0  0
  190.1210  171.1690  142.7860 C   0  0  0  0  0  1  0  0  0  0  0  0
  192.4120  169.8590  143.7410 O   0  0  0  0  0  1  0  0  0  0  0  0
  192.5600  170.9240  142.8460 C   0  0  1  0  0  3  0  0  0  0  0  0
  192.0350  169.4790  140.9860 O   0  0  0  0  0  1  0  0  0  0  0  0
  192.9230  170.4590  141.4310 C   0  0  2  0  0  3  0  0  0  0  0  0
  194.3730  170.0880  141.2220 C   0  0  0  0  0  0  0  0  0  0  0  0
  195.4060  171.0680  141.0530 N   0  0  0  0  0  2  0  0  0  0  0  0
  194.7280  168.8820  141.5080 N   0  0  0  0  0  2  0  0  0  0  0  0
  195.2300  172.3740  140.4350 C   0  0  0  0  0  2  0  0  0  0  0  0
  195.0180  172.1920  138.9460 C   0  0  0  0  0  2  0  0  0  0  0  0
  195.8580  173.1700  138.1420 C   0  0  2  0  0  3  0  0  0  0  0  0
  196.4990  174.0490  139.0150 O   0  0  0  0  0  1  0  0  0  0  0  0
  192.4260  174.4450  136.7590 C   0  0  2  0  0  0  0  0  0  0  0  0
  193.7130  174.9300  137.9700 S   0  0  0  0  0  0  0  0  0  0  0  0
  195.0100  173.9430  137.1340 C   0  0  2  0  0  3  0  0  0  0  0  0
  192.3600  172.7370  135.0570 O   0  0  0  0  0  0  0  0  0  0  0  0
  193.0190  173.3610  135.9330 C   0  0  0  0  0  0  0  0  0  0  0  0
  194.3760  173.0550  136.1850 N   0  0  0  0  0  2  0  0  0  0  0  0
  192.0820  175.6300  135.8620 C   0  0  0  0  0  2  0  0  0  0  0  0
  190.7300  175.6190  135.5100 O   0  0  0  0  0  1  0  0  0  0  0  0
  191.1760  173.9520  137.4870 C   0  0  0  0  0  2  0  0  0  0  0  0
  191.4710  172.8290  138.2920 O   0  0  0  0  0  0  0  0  0  0  0  0
  189.3870  172.3030  137.1530 C   0  0  0  0  0  1  0  0  0  0  0  0
  190.4510  171.8530  138.1550 C   0  0  2  0  0  0  0  0  0  0  0  0
  189.8260  171.7320  139.3810 F   0  0  0  0  0  0  0  0  0  0  0  0
  190.1470  169.4110  137.6410 O   0  0  0  0  0  1  0  0  0  0  0  0
  192.2400  170.3380  137.5790 O   0  0  0  0  0  0  0  0  0  0  0  0
  191.0080  170.4920  137.8050 C   0  0  0  0  0  0  0  0  0  0  0  0
  189.6260  174.2950  143.2910 C   0  0  0  0  0  2  0  0  0  0  0  0
  189.6820  175.5880  143.9750 N   0  0  0  0  0  0  0  0  0  0  0  0
  188.6300  176.5300  143.7860 C   0  0  0  0  0  0  0  0  0  0  0  0
  189.0910  176.5580  146.0630 C   0  0  1  0  0  3  0  0  0  0  0  0
  190.1630  175.7290  145.3510 C   0  0  2  0  0  3  0  0  0  0  0  0
  188.2920  177.1090  144.9270 C   0  0  0  0  0  0  0  0  0  0  0  0
  188.5350  177.9260  141.7300 O   0  0  0  0  0  0  0  0  0  0  0  0
  187.0810  176.1930  142.0150 O   0  0  0  0  0  1  0  0  0  0  0  0
  188.0490  176.8560  142.4670 C   0  0  0  0  0  0  0  0  0  0  0  0
  188.2160  175.6540  146.9200 C   0  0  0  0  0  2  0  0  0  0  0  0
  188.9650  174.5900  147.4210 O   0  0  0  0  0  1  0  0  0  0  0  0
  187.3290  178.1150  145.0380 O   0  0  0  0  0  0  0  0  0  0  0  0
  185.1470  179.1310  145.0380 C   0  0  0  0  0  2  0  0  0  0  0  0
  184.5330  178.5240  146.2820 C   0  0  0  0  0  2  0  0  0  0  0  0
  185.9480  177.8610  144.8110 C   0  0  0  0  0  3  0  0  0  0  0  0
  185.3340  177.2560  146.0580 C   0  0  0  0  0  2  0  0  0  0  0  0
  191.4410  176.5610  145.3610 C   0  0  0  0  0  2  0  0  0  0  0  0
  195.5620  174.2610  144.8820 C   0  0  0  0  0  3  0  0  0  0  0  0
  193.6960  172.9630  145.4940 N   0  0  0  0  0  0  0  0  0  0  0  0
  194.7440  176.4000  145.9030 C   0  0  0  0  0  3  0  0  0  0  0  0
  192.4350  174.7130  146.7190 C   0  0  0  0  0  2  0  0  0  0  0  0
  192.3130  176.2480  146.5610 C   0  0  1  0  0  3  0  0  0  0  0  0
  194.6690  174.9950  145.5150 C   0  0  0  0  0  0  0  0  0  0  0  0
  193.5500  174.1840  145.8700 C   0  0  0  0  0  0  0  0  0  0  0  0
  194.9790  172.8730  144.7880 C   0  0  0  0  0  3  0  0  0  0  0  0
  193.6520  176.9710  146.4400 C   0  0  0  0  0  2  0  0  0  0  0  0
  1  5  1  6  0  0  0
  1  4  1  0  0  0  0
  1 35  1  0  0  0  0
  2  4  1  0  0  0  0
  3  1  1  0  0  0  0
  3  2  1  0  0  0  0
  3  6  1  1  0  0  0
  6  7  1  6  0  0  0
  9  6  1  0  0  0  0
  9  8  1  1  0  0  0
 11 10  1  1  0  0  0
 11  9  1  0  0  0  0
 12 11  1  0  0  0  0
 12 14  2  0  0  0  0
 13 12  1  0  0  0  0
 15 13  1  0  0  0  0
 16 15  1  0  0  0  0
 17 16  1  0  0  0  0
 17 18  1  1  0  0  0
 19 25  1  6  0  0  0
 19 27  1  0  0  0  0
 19 20  1  0  0  0  0
 21 20  1  0  0  0  0
 21 17  1  1  0  0  0
 22 23  2  0  0  0  0
 23 24  1  0  0  0  0
 23 19  1  0  0  0  0
 24 21  1  0  0  0  0
 26 25  1  0  0  0  0
 27 28  1  0  0  0  0
 30 29  1  6  0  0  0
 30 28  1  0  0  0  0
 30 31  1  0  0  0  0
 32 34  1  0  0  0  0
 33 34  2  0  0  0  0
 34 30  1  0  0  0  0
 35 36  1  0  0  0  0
 36 39  1  0  0  0  0
 37 36  1  0  0  0  0
 37 40  2  0  0  0  0
 38 44  1  1  0  0  0
 39 51  1  6  0  0  0
 39 38  1  0  0  0  0
 40 46  1  0  0  0  0
 40 38  1  0  0  0  0
 41 43  2  0  0  0  0
 42 43  1  0  0  0  0
 43 37  1  0  0  0  0
 44 45  1  0  0  0  0
 47 48  1  0  0  0  0
 49 46  1  0  0  0  0
 49 47  1  0  0  0  0
 49 50  1  0  0  0  0
 50 48  1  0  0  0  0
 52 57  1  0  0  0  0
 53 58  2  0  0  0  0
 54 60  1  0  0  0  0
 56 51  1  6  0  0  0
 56 55  1  0  0  0  0
 57 58  1  0  0  0  0
 57 54  2  0  0  0  0
 58 55  1  0  0  0  0
 59 52  2  0  0  0  0
 59 53  1  0  0  0  0
 60 56  1  0  0  0  0
M  END
>  <MODEL>
2

>  <REMARK>
 VINA RESULT:      -6.2      2.766      7.101
  Name = 
  21 active torsions:
  status: ('A' for Active; 'I' for Inactive)
    1  A    between atoms: N_1  and  C_47
    2  A    between atoms: C_3  and  C_28
    3  A    between atoms: C_3  and  C_38
    4  A    between atoms: C_4  and  C_42
    5  A    between atoms: C_5  and  C_18
    6  A    between atoms: C_7  and  C_32
    7  A    between atoms: O_10  and  C_30
    8  A    between atoms: O_10  and  C_48
    9  A    between atoms: C_12  and  C_47
   10  A    between atoms: C_14  and  C_20
   11  A    between atoms: C_14  and  C_28
   12  A    between atoms: C_18  and  C_22
   13  A    between atoms: N_21  and  C_52
   14  A    between atoms: C_22  and  O_44
   15  A    between atoms: C_23  and  C_26
   16  A    between atoms: C_23  and  C_52
   17  A    between atoms: C_26  and  C_27
   18  A    between atoms: C_35  and  C_59
   19  A    between atoms: C_43  and  O_44
   20  A    between atoms: C_43  and  C_60
   21  A    between atoms: C_46  and  C_59
                            x       y       z     vdW  Elec       q    Type
                         _______ _______ _______ _____ _____    ______ ____

>  <TORSDO>
F 21

$$$$
=
 OpenBabel11062420403D

 60 65  0  0  1  0  0  0  0  0999 V2000
  190.1860  174.0980  141.8190 C   0  0  1  0  0  0  0  0  0  0  0  0
  192.2740  174.0200  141.5430 O   0  0  0  0  0  0  0  0  0  0  0  0
  191.2550  173.0510  141.5500 C   0  0  1  0  0  3  0  0  0  0  0  0
  191.3440  175.0480  141.7920 C   0  0  0  0  0  2  0  0  0  0  0  0
  189.3550  174.3270  140.7220 O   0  0  0  0  0  1  0  0  0  0  0  0
  191.4880  172.0240  142.6740 C   0  0  1  0  0  3  0  0  0  0  0  0
  190.1730  171.3590  143.0390 C   0  0  0  0  0  1  0  0  0  0  0  0
  192.4590  169.8440  143.2170 O   0  0  0  0  0  1  0  0  0  0  0  0
  192.4680  170.9040  142.3040 C   0  0  1  0  0  3  0  0  0  0  0  0
  191.5630  169.3240  140.7210 O   0  0  0  0  0  1  0  0  0  0  0  0
  192.4050  170.4290  140.8480 C   0  0  2  0  0  3  0  0  0  0  0  0
  193.7410  170.2410  140.1680 C   0  0  0  0  0  0  0  0  0  0  0  0
  194.9600  170.7840  140.6940 N   0  0  0  0  0  2  0  0  0  0  0  0
  193.8300  169.3200  139.2700 N   0  0  0  0  0  2  0  0  0  0  0  0
  195.0660  172.0160  141.4610 C   0  0  0  0  0  2  0  0  0  0  0  0
  195.6180  173.1090  140.5690 C   0  0  0  0  0  2  0  0  0  0  0  0
  197.1360  173.1600  140.6270 C   0  0  2  0  0  3  0  0  0  0  0  0
  197.5260  173.9940  141.6750 O   0  0  0  0  0  1  0  0  0  0  0  0
  196.8140  174.6110  137.0060 C   0  0  2  0  0  0  0  0  0  0  0  0
  196.9260  175.1920  138.7410 S   0  0  0  0  0  0  0  0  0  0  0  0
  197.7320  173.6480  139.3080 C   0  0  2  0  0  3  0  0  0  0  0  0
  197.1170  172.4410  135.9990 O   0  0  0  0  0  0  0  0  0  0  0  0
  197.1800  173.1710  137.0250 C   0  0  0  0  0  0  0  0  0  0  0  0
  197.6040  172.6510  138.2690 N   0  0  0  0  0  2  0  0  0  0  0  0
  197.8090  175.3730  136.1370 C   0  0  0  0  0  2  0  0  0  0  0  0
  197.2450  176.5500  135.6380 O   0  0  0  0  0  1  0  0  0  0  0  0
  195.3930  174.8050  136.4760 C   0  0  0  0  0  2  0  0  0  0  0  0
  194.4840  173.9600  137.1530 O   0  0  0  0  0  0  0  0  0  0  0  0
  193.1060  175.8940  136.6240 C   0  0  0  0  0  1  0  0  0  0  0  0
  193.3400  174.6990  137.5500 C   0  0  2  0  0  0  0  0  0  0  0  0
  193.5900  175.2060  138.8100 F   0  0  0  0  0  0  0  0  0  0  0  0
  190.8970  174.2720  137.1400 O   0  0  0  0  0  0  0  0  0  0  0  0
  192.1840  172.6640  138.1430 O   0  0  0  0  0  1  0  0  0  0  0  0
  192.1090  173.8270  137.6580 C   0  0  0  0  0  0  0  0  0  0  0  0
  189.4610  174.1480  143.1690 C   0  0  0  0  0  2  0  0  0  0  0  0
  189.5990  175.4310  143.8610 N   0  0  0  0  0  0  0  0  0  0  0  0
  188.5190  176.3590  143.8460 C   0  0  0  0  0  0  0  0  0  0  0  0
  189.3110  176.3570  146.0300 C   0  0  1  0  0  3  0  0  0  0  0  0
  190.2770  175.5570  145.1530 C   0  0  2  0  0  3  0  0  0  0  0  0
  188.3460  176.9140  145.0350 C   0  0  0  0  0  0  0  0  0  0  0  0
  186.4410  176.2470  142.4840 O   0  0  0  0  0  1  0  0  0  0  0  0
  188.2720  177.3620  141.7050 O   0  0  0  0  0  0  0  0  0  0  0  0
  187.7450  176.6970  142.6330 C   0  0  0  0  0  0  0  0  0  0  0  0
  188.5840  175.4260  146.9900 C   0  0  0  0  0  2  0  0  0  0  0  0
  189.2110  174.1810  147.0240 O   0  0  0  0  0  1  0  0  0  0  0  0
  187.3970  177.9030  145.3050 O   0  0  0  0  0  0  0  0  0  0  0  0
  185.3320  176.9400  146.0840 C   0  0  0  0  0  2  0  0  0  0  0  0
  184.4270  178.1540  146.1100 C   0  0  0  0  0  2  0  0  0  0  0  0
  186.5230  177.8190  146.4240 C   0  0  0  0  0  3  0  0  0  0  0  0
  185.6150  179.0330  146.4480 C   0  0  0  0  0  2  0  0  0  0  0  0
  191.5310  176.4080  144.9900 C   0  0  0  0  0  2  0  0  0  0  0  0
  195.5200  173.8560  144.7010 C   0  0  0  0  0  3  0  0  0  0  0  0
  193.6500  172.7840  145.6460 N   0  0  0  0  0  0  0  0  0  0  0  0
  194.8540  176.1830  145.3610 C   0  0  0  0  0  3  0  0  0  0  0  0
  192.5400  174.7870  146.6020 C   0  0  0  0  0  2  0  0  0  0  0  0
  192.4680  176.2720  146.1740 C   0  0  1  0  0  3  0  0  0  0  0  0
  194.6990  174.7360  145.2400 C   0  0  0  0  0  0  0  0  0  0  0  0
  193.5760  174.0590  145.8010 C   0  0  0  0  0  0  0  0  0  0  0  0
  194.8790  172.5050  144.8950 C   0  0  0  0  0  3  0  0  0  0  0  0
  193.8230  176.8950  145.8470 C   0  0  0  0  0  2  0  0  0  0  0  0
  1  5  1  6  0  0  0
  1 35  1  0  0  0  0
  2  3  1  0  0  0  0
  2  4  1  0  0  0  0
  3  1  1  0  0  0  0
  3  6  1  1  0  0  0
  4  1  1  0  0  0  0
  6  7  1  6  0  0  0
  9  6  1  0  0  0  0
  9  8  1  1  0  0  0
 11 10  1  1  0  0  0
 11  9  1  0  0  0  0
 12 13  1  0  0  0  0
 12 11  1  0  0  0  0
 13 15  1  0  0  0  0
 14 12  2  0  0  0  0
 16 17  1  0  0  0  0
 16 15  1  0  0  0  0
 17 18  1  1  0  0  0
 19 25  1  6  0  0  0
 19 23  1  0  0  0  0
 19 20  1  0  0  0  0
 20 21  1  0  0  0  0
 21 17  1  1  0  0  0
 22 23  2  0  0  0  0
 23 24  1  0  0  0  0
 24 21  1  0  0  0  0
 26 25  1  0  0  0  0
 27 19  1  0  0  0  0
 27 28  1  0  0  0  0
 28 30  1  0  0  0  0
 30 29  1  6  0  0  0
 30 34  1  0  0  0  0
 30 31  1  0  0  0  0
 32 34  2  0  0  0  0
 34 33  1  0  0  0  0
 35 36  1  0  0  0  0
 36 39  1  0  0  0  0
 37 36  1  0  0  0  0
 37 40  2  0  0  0  0
 38 44  1  1  0  0  0
 39 51  1  6  0  0  0
 39 38  1  0  0  0  0
 40 46  1  0  0  0  0
 40 38  1  0  0  0  0
 41 43  1  0  0  0  0
 42 43  2  0  0  0  0
 43 37  1  0  0  0  0
 44 45  1  0  0  0  0
 46 49  1  0  0  0  0
 47 48  1  0  0  0  0
 47 49  1  0  0  0  0
 48 50  1  0  0  0  0
 49 50  1  0  0  0  0
 52 59  2  0  0  0  0
 52 57  1  0  0  0  0
 53 58  2  0  0  0  0
 54 60  1  0  0  0  0
 56 51  1  6  0  0  0
 56 55  1  0  0  0  0
 57 54  2  0  0  0  0
 57 58  1  0  0  0  0
 58 55  1  0  0  0  0
 59 53  1  0  0  0  0
 60 56  1  0  0  0  0
M  END
>  <MODEL>
3

>  <REMARK>
 VINA RESULT:      -5.9      3.020      6.552
  Name = 
  21 active torsions:
  status: ('A' for Active; 'I' for Inactive)
    1  A    between atoms: N_1  and  C_47
    2  A    between atoms: C_3  and  C_28
    3  A    between atoms: C_3  and  C_38
    4  A    between atoms: C_4  and  C_42
    5  A    between atoms: C_5  and  C_18
    6  A    between atoms: C_7  and  C_32
    7  A    between atoms: O_10  and  C_30
    8  A    between atoms: O_10  and  C_48
    9  A    between atoms: C_12  and  C_47
   10  A    between atoms: C_14  and  C_20
   11  A    between atoms: C_14  and  C_28
   12  A    between atoms: C_18  and  C_22
   13  A    between atoms: N_21  and  C_52
   14  A    between atoms: C_22  and  O_44
   15  A    between atoms: C_23  and  C_26
   16  A    between atoms: C_23  and  C_52
   17  A    between atoms: C_26  and  C_27
   18  A    between atoms: C_35  and  C_59
   19  A    between atoms: C_43  and  O_44
   20  A    between atoms: C_43  and  C_60
   21  A    between atoms: C_46  and  C_59
                            x       y       z     vdW  Elec       q    Type
                         _______ _______ _______ _____ _____    ______ ____

>  <TORSDO>
F 21

$$$$
=
 OpenBabel11062420403D

 60 65  0  0  1  0  0  0  0  0999 V2000
  191.4530  176.6250  147.1220 C   0  0  1  0  0  0  0  0  0  0  0  0
  192.2330  174.6680  147.0730 O   0  0  0  0  0  0  0  0  0  0  0  0
  192.7990  175.9460  146.9190 C   0  0  1  0  0  3  0  0  0  0  0  0
  190.9530  175.2210  147.2700 C   0  0  0  0  0  2  0  0  0  0  0  0
  191.3570  177.2970  148.3400 O   0  0  0  0  0  1  0  0  0  0  0  0
  193.4250  176.0990  145.5200 C   0  0  1  0  0  3  0  0  0  0  0  0
  194.0950  177.4560  145.4070 C   0  0  0  0  0  1  0  0  0  0  0  0
  194.3750  173.8910  145.9750 O   0  0  0  0  0  1  0  0  0  0  0  0
  194.4890  175.0450  145.1930 C   0  0  1  0  0  3  0  0  0  0  0  0
  194.3960  173.3920  143.4380 O   0  0  0  0  0  1  0  0  0  0  0  0
  194.6720  174.7340  143.7030 C   0  0  2  0  0  3  0  0  0  0  0  0
  195.9730  175.2060  143.0960 C   0  0  0  0  0  0  0  0  0  0  0  0
  196.0250  176.1250  141.9960 N   0  0  0  0  0  2  0  0  0  0  0  0
  197.0520  175.0190  143.7760 N   0  0  0  0  0  2  0  0  0  0  0  0
  195.0260  176.2290  140.9430 C   0  0  0  0  0  2  0  0  0  0  0  0
  194.7840  174.8560  140.3520 C   0  0  0  0  0  2  0  0  0  0  0  0
  195.8540  174.4910  139.3360 C   0  0  2  0  0  3  0  0  0  0  0  0
  196.6480  175.6110  139.0870 O   0  0  0  0  0  1  0  0  0  0  0  0
  192.8130  173.3350  137.1590 C   0  0  2  0  0  0  0  0  0  0  0  0
  193.7000  174.8710  137.6190 S   0  0  0  0  0  0  0  0  0  0  0  0
  195.2410  173.9730  138.0360 C   0  0  2  0  0  3  0  0  0  0  0  0
  193.3230  171.0030  137.5030 O   0  0  0  0  0  0  0  0  0  0  0  0
  193.6810  172.2090  137.5910 C   0  0  0  0  0  0  0  0  0  0  0  0
  194.9440  172.5600  138.1180 N   0  0  0  0  0  2  0  0  0  0  0  0
  192.6260  173.2750  135.6460 C   0  0  0  0  0  2  0  0  0  0  0  0
  193.0750  174.4500  135.0360 O   0  0  0  0  0  1  0  0  0  0  0  0
  191.4580  173.2780  137.8620 C   0  0  0  0  0  2  0  0  0  0  0  0
  190.5450  174.1800  137.2700 O   0  0  0  0  0  0  0  0  0  0  0  0
  189.3420  172.1720  136.6090 C   0  0  0  0  0  1  0  0  0  0  0  0
  189.2600  173.5860  137.1880 C   0  0  2  0  0  0  0  0  0  0  0  0
  188.5090  174.3400  136.3070 F   0  0  0  0  0  0  0  0  0  0  0  0
  188.2890  172.4120  139.1870 O   0  0  0  0  0  1  0  0  0  0  0  0
  188.2270  174.6980  139.0650 O   0  0  0  0  0  0  0  0  0  0  0  0
  188.5380  173.6050  138.5160 C   0  0  0  0  0  0  0  0  0  0  0  0
  190.7550  177.3420  145.9600 C   0  0  0  0  0  2  0  0  0  0  0  0
  189.8460  176.4790  145.2020 N   0  0  0  0  0  0  0  0  0  0  0  0
  188.4410  176.5810  145.4110 C   0  0  0  0  0  0  0  0  0  0  0  0
  188.7220  176.4320  143.1090 C   0  0  1  0  0  3  0  0  0  0  0  0
  190.0650  176.1570  143.7900 C   0  0  2  0  0  3  0  0  0  0  0  0
  187.7800  176.5330  144.2650 C   0  0  0  0  0  0  0  0  0  0  0  0
  187.6550  177.8890  147.3750 O   0  0  0  0  0  1  0  0  0  0  0  0
  187.4540  175.6170  147.3470 O   0  0  0  0  0  0  0  0  0  0  0  0
  187.8140  176.6620  146.7460 C   0  0  0  0  0  0  0  0  0  0  0  0
  188.7750  177.7600  142.3680 C   0  0  0  0  0  2  0  0  0  0  0  0
  188.0140  177.6940  141.2020 O   0  0  0  0  0  1  0  0  0  0  0  0
  186.3870  176.5540  144.1640 O   0  0  0  0  0  0  0  0  0  0  0  0
  184.6120  178.0410  143.5070 C   0  0  0  0  0  2  0  0  0  0  0  0
  185.3790  179.3140  143.2160 C   0  0  0  0  0  2  0  0  0  0  0  0
  185.6200  177.6760  144.5820 C   0  0  0  0  0  3  0  0  0  0  0  0
  186.3880  178.9500  144.2880 C   0  0  0  0  0  2  0  0  0  0  0  0
  190.3350  174.6630  143.6440 C   0  0  0  0  0  2  0  0  0  0  0  0
  191.4800  170.3320  142.0830 C   0  0  0  0  0  3  0  0  0  0  0  0
  192.6390  172.1400  141.1200 N   0  0  0  0  0  0  0  0  0  0  0  0
  189.3920  171.6130  142.6240 C   0  0  0  0  0  3  0  0  0  0  0  0
  190.8610  173.8570  141.3380 C   0  0  0  0  0  2  0  0  0  0  0  0
  189.7350  174.1000  142.3710 C   0  0  1  0  0  3  0  0  0  0  0  0
  190.7560  171.4330  142.1330 C   0  0  0  0  0  0  0  0  0  0  0  0
  191.4840  172.5100  141.5460 C   0  0  0  0  0  0  0  0  0  0  0  0
  192.7900  170.7170  141.4420 C   0  0  0  0  0  3  0  0  0  0  0  0
  188.8990  172.8630  142.6870 C   0  0  0  0  0  2  0  0  0  0  0  0
  1  4  1  0  0  0  0
  1  5  1  1  0  0  0
  2  4  1  0  0  0  0
  3  6  1  6  0  0  0
  3  2  1  0  0  0  0
  3  1  1  0  0  0  0
  6  7  1  1  0  0  0
  9  6  1  0  0  0  0
  9  8  1  1  0  0  0
 11 10  1  1  0  0  0
 11  9  1  0  0  0  0
 12 11  1  0  0  0  0
 12 14  2  0  0  0  0
 13 12  1  0  0  0  0
 15 13  1  0  0  0  0
 16 15  1  0  0  0  0
 17 18  1  6  0  0  0
 17 16  1  0  0  0  0
 19 25  1  6  0  0  0
 19 23  1  0  0  0  0
 19 20  1  0  0  0  0
 19 27  1  0  0  0  0
 20 21  1  0  0  0  0
 21 24  1  0  0  0  0
 21 17  1  1  0  0  0
 22 23  2  0  0  0  0
 23 24  1  0  0  0  0
 26 25  1  0  0  0  0
 28 27  1  0  0  0  0
 30 29  1  6  0  0  0
 30 28  1  0  0  0  0
 30 34  1  0  0  0  0
 31 30  1  0  0  0  0
 34 33  2  0  0  0  0
 34 32  1  0  0  0  0
 35  1  1  0  0  0  0
 36 37  1  0  0  0  0
 36 35  1  0  0  0  0
 37 43  1  0  0  0  0
 38 44  1  1  0  0  0
 38 39  1  0  0  0  0
 38 40  1  0  0  0  0
 39 51  1  1  0  0  0
 39 36  1  0  0  0  0
 40 37  2  0  0  0  0
 43 42  2  0  0  0  0
 43 41  1  0  0  0  0
 45 44  1  0  0  0  0
 46 40  1  0  0  0  0
 46 49  1  0  0  0  0
 47 49  1  0  0  0  0
 48 47  1  0  0  0  0
 48 50  1  0  0  0  0
 50 49  1  0  0  0  0
 52 57  1  0  0  0  0
 53 59  1  0  0  0  0
 53 58  2  0  0  0  0
 54 60  1  0  0  0  0
 55 58  1  0  0  0  0
 55 56  1  0  0  0  0
 56 60  1  0  0  0  0
 56 51  1  1  0  0  0
 57 54  2  0  0  0  0
 58 57  1  0  0  0  0
 59 52  2  0  0  0  0
M  END
>  <MODEL>
4

>  <REMARK>
 VINA RESULT:      -5.8      2.995      7.470
  Name = 
  21 active torsions:
  status: ('A' for Active; 'I' for Inactive)
    1  A    between atoms: N_1  and  C_47
    2  A    between atoms: C_3  and  C_28
    3  A    between atoms: C_3  and  C_38
    4  A    between atoms: C_4  and  C_42
    5  A    between atoms: C_5  and  C_18
    6  A    between atoms: C_7  and  C_32
    7  A    between atoms: O_10  and  C_30
    8  A    between atoms: O_10  and  C_48
    9  A    between atoms: C_12  and  C_47
   10  A    between atoms: C_14  and  C_20
   11  A    between atoms: C_14  and  C_28
   12  A    between atoms: C_18  and  C_22
   13  A    between atoms: N_21  and  C_52
   14  A    between atoms: C_22  and  O_44
   15  A    between atoms: C_23  and  C_26
   16  A    between atoms: C_23  and  C_52
   17  A    between atoms: C_26  and  C_27
   18  A    between atoms: C_35  and  C_59
   19  A    between atoms: C_43  and  O_44
   20  A    between atoms: C_43  and  C_60
   21  A    between atoms: C_46  and  C_59
                            x       y       z     vdW  Elec       q    Type
                         _______ _______ _______ _____ _____    ______ ____

>  <TORSDO>
F 21

$$$$
=
 OpenBabel11062420403D

 60 65  0  0  1  0  0  0  0  0999 V2000
  194.7190  174.3680  139.9630 C   0  0  1  0  0  0  0  0  0  0  0  0
  194.3280  174.8750  141.9710 O   0  0  0  0  0  0  0  0  0  0  0  0
  195.3750  175.1670  141.0790 C   0  0  1  0  0  3  0  0  0  0  0  0
  193.6590  174.1180  140.9910 C   0  0  0  0  0  2  0  0  0  0  0  0
  194.2140  175.1700  138.9400 O   0  0  0  0  0  1  0  0  0  0  0  0
  196.7120  174.6100  141.6070 C   0  0  1  0  0  3  0  0  0  0  0  0
  197.8220  174.9340  140.6260 C   0  0  0  0  0  1  0  0  0  0  0  0
  197.7580  176.4310  142.8630 O   0  0  0  0  0  1  0  0  0  0  0  0
  197.1330  175.1840  142.9650 C   0  0  1  0  0  3  0  0  0  0  0  0
  195.8180  176.4310  144.5590 O   0  0  0  0  0  1  0  0  0  0  0  0
  196.0560  175.1510  144.0560 C   0  0  2  0  0  3  0  0  0  0  0  0
  196.2600  174.1150  145.1380 C   0  0  0  0  0  0  0  0  0  0  0  0
  195.2120  173.2390  145.5770 N   0  0  0  0  0  2  0  0  0  0  0  0
  197.4730  173.8080  145.4510 N   0  0  0  0  0  2  0  0  0  0  0  0
  193.7950  173.5710  145.5960 C   0  0  0  0  0  2  0  0  0  0  0  0
  193.0710  172.7080  144.5840 C   0  0  0  0  0  2  0  0  0  0  0  0
  191.6180  173.1270  144.4350 C   0  0  2  0  0  3  0  0  0  0  0  0
  191.2180  172.9290  143.1130 O   0  0  0  0  0  1  0  0  0  0  0  0
  189.4000  176.3260  144.8400 C   0  0  2  0  0  0  0  0  0  0  0  0
  189.8370  174.8020  145.7590 S   0  0  0  0  0  0  0  0  0  0  0  0
  191.4080  174.5830  144.8430 C   0  0  2  0  0  3  0  0  0  0  0  0
  190.2940  177.3250  142.8350 O   0  0  0  0  0  0  0  0  0  0  0  0
  190.3720  176.4300  143.7200 C   0  0  0  0  0  0  0  0  0  0  0  0
  191.3980  175.4590  143.6920 N   0  0  0  0  0  2  0  0  0  0  0  0
  189.5480  177.5430  145.7490 C   0  0  0  0  0  2  0  0  0  0  0  0
  189.6310  177.1610  147.0910 O   0  0  0  0  0  1  0  0  0  0  0  0
  187.9690  176.2320  144.3130 C   0  0  0  0  0  2  0  0  0  0  0  0
  187.3540  177.5040  144.2950 O   0  0  0  0  0  0  0  0  0  0  0  0
  185.6200  176.8380  145.8640 C   0  0  0  0  0  1  0  0  0  0  0  0
  185.9530  177.3680  144.4690 C   0  0  2  0  0  0  0  0  0  0  0  0
  185.5120  176.4240  143.5620 F   0  0  0  0  0  0  0  0  0  0  0  0
  184.3770  179.2120  145.1290 O   0  0  0  0  0  1  0  0  0  0  0  0
  185.4080  179.2690  143.0850 O   0  0  0  0  0  0  0  0  0  0  0  0
  185.2140  178.6520  144.1690 C   0  0  0  0  0  0  0  0  0  0  0  0
  195.3370  173.0530  139.4740 C   0  0  0  0  0  2  0  0  0  0  0  0
  194.4760  171.8880  139.6850 N   0  0  0  0  0  0  0  0  0  0  0  0
  193.6160  171.4490  138.6380 C   0  0  0  0  0  0  0  0  0  0  0  0
  194.5650  169.5190  139.5170 C   0  0  1  0  0  3  0  0  0  0  0  0
  194.9250  170.7030  140.4180 C   0  0  2  0  0  3  0  0  0  0  0  0
  193.6210  170.1300  138.5320 C   0  0  0  0  0  0  0  0  0  0  0  0
  193.1120  172.6280  136.5070 O   0  0  0  0  0  0  0  0  0  0  0  0
  191.7840  172.9320  138.3360 O   0  0  0  0  0  1  0  0  0  0  0  0
  192.7810  172.3590  137.8280 C   0  0  0  0  0  0  0  0  0  0  0  0
  195.8070  169.0130  138.7990 C   0  0  0  0  0  2  0  0  0  0  0  0
  196.9560  169.4190  139.4750 O   0  0  0  0  0  1  0  0  0  0  0  0
  192.8310  169.4140  137.6300 O   0  0  0  0  0  0  0  0  0  0  0  0
  190.4840  169.1690  137.1530 C   0  0  0  0  0  2  0  0  0  0  0  0
  189.8620  169.9080  138.3190 C   0  0  0  0  0  2  0  0  0  0  0  0
  191.6430  168.7460  138.0380 C   0  0  0  0  0  3  0  0  0  0  0  0
  191.0200  169.4890  139.2030 C   0  0  0  0  0  2  0  0  0  0  0  0
  194.1030  170.5510  141.6940 C   0  0  0  0  0  2  0  0  0  0  0  0
  194.7740  169.7110  146.3150 C   0  0  0  0  0  3  0  0  0  0  0  0
  196.6780  169.5950  144.9360 N   0  0  0  0  0  0  0  0  0  0  0  0
  193.1210  169.0760  144.5390 C   0  0  0  0  0  3  0  0  0  0  0  0
  195.5560  168.8740  142.8440 C   0  0  0  0  0  2  0  0  0  0  0  0
  194.1560  169.1370  142.2390 C   0  0  1  0  0  3  0  0  0  0  0  0
  194.4390  169.3990  145.0790 C   0  0  0  0  0  0  0  0  0  0  0  0
  195.6100  169.3390  144.2670 C   0  0  0  0  0  0  0  0  0  0  0  0
  196.2710  169.8980  146.3120 C   0  0  0  0  0  2  0  0  0  0  0  0
  193.0020  168.9050  143.2100 C   0  0  0  0  0  3  0  0  0  0  0  0
  1  5  1  6  0  0  0
  1  4  1  0  0  0  0
  1  3  1  0  0  0  0
  3  6  1  1  0  0  0
  3  2  1  0  0  0  0
  4  2  1  0  0  0  0
  6  7  1  6  0  0  0
  6  9  1  0  0  0  0
  9  8  1  6  0  0  0
  9 11  1  0  0  0  0
 11 10  1  1  0  0  0
 11 12  1  0  0  0  0
 12 14  2  0  0  0  0
 12 13  1  0  0  0  0
 13 15  1  0  0  0  0
 16 15  1  0  0  0  0
 17 18  1  6  0  0  0
 17 16  1  0  0  0  0
 19 27  1  6  0  0  0
 19 25  1  0  0  0  0
 19 20  1  0  0  0  0
 21 17  1  6  0  0  0
 21 20  1  0  0  0  0
 22 23  2  0  0  0  0
 23 19  1  0  0  0  0
 24 23  1  0  0  0  0
 24 21  1  0  0  0  0
 25 26  1  0  0  0  0
 28 27  1  0  0  0  0
 28 30  1  0  0  0  0
 30 29  1  1  0  0  0
 31 30  1  0  0  0  0
 33 34  2  0  0  0  0
 34 30  1  0  0  0  0
 34 32  1  0  0  0  0
 35 36  1  0  0  0  0
 35  1  1  0  0  0  0
 36 39  1  0  0  0  0
 37 36  1  0  0  0  0
 38 44  1  6  0  0  0
 38 39  1  0  0  0  0
 39 51  1  1  0  0  0
 40 37  2  0  0  0  0
 40 38  1  0  0  0  0
 41 43  2  0  0  0  0
 43 42  1  0  0  0  0
 43 37  1  0  0  0  0
 44 45  1  0  0  0  0
 46 49  1  0  0  0  0
 46 40  1  0  0  0  0
 47 49  1  0  0  0  0
 47 48  1  0  0  0  0
 48 50  1  0  0  0  0
 49 50  1  0  0  0  0
 53 59  1  0  0  0  0
 54 57  1  0  0  0  0
 55 58  1  0  0  0  0
 56 51  1  1  0  0  0
 56 55  1  0  0  0  0
 56 60  1  0  0  0  0
 57 52  2  0  0  0  0
 58 53  2  0  0  0  0
 58 57  1  0  0  0  0
 59 52  1  0  0  0  0
 60 54  2  0  0  0  0
M  END
>  <MODEL>
5

>  <REMARK>
 VINA RESULT:      -5.5      3.122      9.595
  Name = 
  21 active torsions:
  status: ('A' for Active; 'I' for Inactive)
    1  A    between atoms: N_1  and  C_47
    2  A    between atoms: C_3  and  C_28
    3  A    between atoms: C_3  and  C_38
    4  A    between atoms: C_4  and  C_42
    5  A    between atoms: C_5  and  C_18
    6  A    between atoms: C_7  and  C_32
    7  A    between atoms: O_10  and  C_30
    8  A    between atoms: O_10  and  C_48
    9  A    between atoms: C_12  and  C_47
   10  A    between atoms: C_14  and  C_20
   11  A    between atoms: C_14  and  C_28
   12  A    between atoms: C_18  and  C_22
   13  A    between atoms: N_21  and  C_52
   14  A    between atoms: C_22  and  O_44
   15  A    between atoms: C_23  and  C_26
   16  A    between atoms: C_23  and  C_52
   17  A    between atoms: C_26  and  C_27
   18  A    between atoms: C_35  and  C_59
   19  A    between atoms: C_43  and  O_44
   20  A    between atoms: C_43  and  C_60
   21  A    between atoms: C_46  and  C_59
                            x       y       z     vdW  Elec       q    Type
                         _______ _______ _______ _____ _____    ______ ____

>  <TORSDO>
F 21

$$$$
=
 OpenBabel11062420403D

 60 65  0  0  1  0  0  0  0  0999 V2000
  194.6280  175.2620  141.1180 C   0  0  1  0  0  0  0  0  0  0  0  0
  193.5690  176.1120  142.7300 O   0  0  0  0  0  0  0  0  0  0  0  0
  194.9350  175.9790  142.4240 C   0  0  1  0  0  3  0  0  0  0  0  0
  193.2040  175.4550  141.5390 C   0  0  0  0  0  2  0  0  0  0  0  0
  194.9030  176.0360  139.9910 O   0  0  0  0  0  1  0  0  0  0  0  0
  195.6550  175.1400  143.4970 C   0  0  1  0  0  3  0  0  0  0  0  0
  197.1190  175.5340  143.5550 C   0  0  0  0  0  1  0  0  0  0  0  0
  194.9630  176.6590  145.2870 O   0  0  0  0  0  1  0  0  0  0  0  0
  195.0880  175.3170  144.9110 C   0  0  1  0  0  3  0  0  0  0  0  0
  193.2880  174.8660  146.4550 O   0  0  0  0  0  1  0  0  0  0  0  0
  193.8300  174.4970  145.2230 C   0  0  2  0  0  3  0  0  0  0  0  0
  193.9730  173.0020  145.0590 C   0  0  0  0  0  0  0  0  0  0  0  0
  193.3910  172.2840  143.9620 N   0  0  0  0  0  2  0  0  0  0  0  0
  194.8900  172.4100  145.7470 N   0  0  0  0  0  2  0  0  0  0  0  0
  192.1570  172.6490  143.2830 C   0  0  0  0  0  2  0  0  0  0  0  0
  191.0010  171.9110  143.9260 C   0  0  0  0  0  2  0  0  0  0  0  0
  189.7500  172.7730  143.9750 C   0  0  2  0  0  3  0  0  0  0  0  0
  188.6950  172.0830  143.3770 O   0  0  0  0  0  1  0  0  0  0  0  0
  188.6810  176.4390  143.1160 C   0  0  2  0  0  0  0  0  0  0  0  0
  189.5950  175.5150  144.4080 S   0  0  0  0  0  0  0  0  0  0  0  0
  189.9660  174.1180  143.2840 C   0  0  2  0  0  3  0  0  0  0  0  0
  187.8390  175.7960  140.9500 O   0  0  0  0  0  0  0  0  0  0  0  0
  188.5110  175.5020  141.9760 C   0  0  0  0  0  0  0  0  0  0  0  0
  189.1430  174.2440  142.1020 N   0  0  0  0  0  2  0  0  0  0  0  0
  189.4990  177.6430  142.6600 C   0  0  0  0  0  2  0  0  0  0  0  0
  190.8000  177.5900  143.1680 O   0  0  0  0  0  1  0  0  0  0  0  0
  187.3250  176.8950  143.6540 C   0  0  0  0  0  2  0  0  0  0  0  0
  187.4760  177.5980  144.8710 O   0  0  0  0  0  0  0  0  0  0  0  0
  186.7560  176.8350  147.0650 C   0  0  0  0  0  1  0  0  0  0  0  0
  186.3440  177.3840  145.6980 C   0  0  2  0  0  0  0  0  0  0  0  0
  185.5640  176.4180  145.0930 F   0  0  0  0  0  0  0  0  0  0  0  0
  185.7740  179.7460  145.0550 O   0  0  0  0  0  0  0  0  0  0  0  0
  184.4750  178.6330  146.5770 O   0  0  0  0  0  1  0  0  0  0  0  0
  185.4920  178.6260  145.8290 C   0  0  0  0  0  0  0  0  0  0  0  0
  194.9570  173.7740  140.9460 C   0  0  0  0  0  2  0  0  0  0  0  0
  194.7540  173.2850  139.5810 N   0  0  0  0  0  0  0  0  0  0  0  0
  195.8500  172.7250  138.8640 C   0  0  0  0  0  0  0  0  0  0  0  0
  194.0480  171.3170  138.4510 C   0  0  1  0  0  3  0  0  0  0  0  0
  193.5430  172.5660  139.1770 C   0  0  2  0  0  3  0  0  0  0  0  0
  195.4860  171.6390  138.2010 C   0  0  0  0  0  0  0  0  0  0  0  0
  197.7090  173.8240  137.6300 O   0  0  0  0  0  0  0  0  0  0  0  0
  197.9120  173.3680  139.8560 O   0  0  0  0  0  1  0  0  0  0  0  0
  197.1970  173.3300  138.8220 C   0  0  0  0  0  0  0  0  0  0  0  0
  193.9410  170.1040  139.3650 C   0  0  0  0  0  2  0  0  0  0  0  0
  192.6300  169.6300  139.3870 O   0  0  0  0  0  1  0  0  0  0  0  0
  196.3360  170.9100  137.3660 O   0  0  0  0  0  0  0  0  0  0  0  0
  195.2930  172.0750  135.5360 C   0  0  0  0  0  2  0  0  0  0  0  0
  194.7160  170.9250  134.7380 C   0  0  0  0  0  2  0  0  0  0  0  0
  196.4480  171.1930  135.9760 C   0  0  0  0  0  3  0  0  0  0  0  0
  195.8660  170.0420  135.1790 C   0  0  0  0  0  2  0  0  0  0  0  0
  192.7800  173.3940  138.1480 C   0  0  0  0  0  2  0  0  0  0  0  0
  188.6160  174.9330  136.4740 C   0  0  0  0  0  3  0  0  0  0  0  0
  188.5410  173.5690  138.3910 N   0  0  0  0  0  0  0  0  0  0  0  0
  190.7430  173.9780  135.5510 C   0  0  0  0  0  3  0  0  0  0  0  0
  190.5800  172.2250  137.9480 C   0  0  0  0  0  2  0  0  0  0  0  0
  191.9240  172.5280  137.2440 C   0  0  1  0  0  3  0  0  0  0  0  0
  189.6640  174.1350  136.5220 C   0  0  0  0  0  0  0  0  0  0  0  0
  189.5940  173.3250  137.6940 C   0  0  0  0  0  0  0  0  0  0  0  0
  187.8110  174.6470  137.7170 C   0  0  0  0  0  2  0  0  0  0  0  0
  191.7780  173.1820  135.8730 C   0  0  0  0  0  3  0  0  0  0  0  0
  1  5  1  6  0  0  0
  1  4  1  0  0  0  0
  1  3  1  0  0  0  0
  3  2  1  0  0  0  0
  3  6  1  1  0  0  0
  4  2  1  0  0  0  0
  6  7  1  1  0  0  0
  6  9  1  0  0  0  0
  9 11  1  0  0  0  0
  9  8  1  6  0  0  0
 11 10  1  1  0  0  0
 12 11  1  0  0  0  0
 12 14  2  0  0  0  0
 13 12  1  0  0  0  0
 15 16  1  0  0  0  0
 15 13  1  0  0  0  0
 16 17  1  0  0  0  0
 17 18  1  6  0  0  0
 19 25  1  6  0  0  0
 19 27  1  0  0  0  0
 19 20  1  0  0  0  0
 21 17  1  1  0  0  0
 21 20  1  0  0  0  0
 22 23  2  0  0  0  0
 23 24  1  0  0  0  0
 23 19  1  0  0  0  0
 24 21  1  0  0  0  0
 25 26  1  0  0  0  0
 27 28  1  0  0  0  0
 28 30  1  0  0  0  0
 30 34  1  0  0  0  0
 30 29  1  1  0  0  0
 31 30  1  0  0  0  0
 32 34  2  0  0  0  0
 34 33  1  0  0  0  0
 35  1  1  0  0  0  0
 36 35  1  0  0  0  0
 37 36  1  0  0  0  0
 38 39  1  0  0  0  0
 38 44  1  1  0  0  0
 39 51  1  6  0  0  0
 39 36  1  0  0  0  0
 40 38  1  0  0  0  0
 40 37  2  0  0  0  0
 41 43  2  0  0  0  0
 43 37  1  0  0  0  0
 43 42  1  0  0  0  0
 44 45  1  0  0  0  0
 46 40  1  0  0  0  0
 47 49  1  0  0  0  0
 48 50  1  0  0  0  0
 48 47  1  0  0  0  0
 49 46  1  0  0  0  0
 50 49  1  0  0  0  0
 52 57  2  0  0  0  0
 52 59  1  0  0  0  0
 54 60  2  0  0  0  0
 54 57  1  0  0  0  0
 56 55  1  0  0  0  0
 56 51  1  1  0  0  0
 57 58  1  0  0  0  0
 58 55  1  0  0  0  0
 58 53  2  0  0  0  0
 59 53  1  0  0  0  0
 60 56  1  0  0  0  0
M  END
>  <MODEL>
6

>  <REMARK>
 VINA RESULT:      -5.5      3.113      9.107
  Name = 
  21 active torsions:
  status: ('A' for Active; 'I' for Inactive)
    1  A    between atoms: N_1  and  C_47
    2  A    between atoms: C_3  and  C_28
    3  A    between atoms: C_3  and  C_38
    4  A    between atoms: C_4  and  C_42
    5  A    between atoms: C_5  and  C_18
    6  A    between atoms: C_7  and  C_32
    7  A    between atoms: O_10  and  C_30
    8  A    between atoms: O_10  and  C_48
    9  A    between atoms: C_12  and  C_47
   10  A    between atoms: C_14  and  C_20
   11  A    between atoms: C_14  and  C_28
   12  A    between atoms: C_18  and  C_22
   13  A    between atoms: N_21  and  C_52
   14  A    between atoms: C_22  and  O_44
   15  A    between atoms: C_23  and  C_26
   16  A    between atoms: C_23  and  C_52
   17  A    between atoms: C_26  and  C_27
   18  A    between atoms: C_35  and  C_59
   19  A    between atoms: C_43  and  O_44
   20  A    between atoms: C_43  and  C_60
   21  A    between atoms: C_46  and  C_59
                            x       y       z     vdW  Elec       q    Type
                         _______ _______ _______ _____ _____    ______ ____

>  <TORSDO>
F 21

$$$$
=
 OpenBabel11062420403D

 60 65  0  0  1  0  0  0  0  0999 V2000
  190.7810  172.0590  143.6030 C   0  0  1  0  0  0  0  0  0  0  0  0
  189.7290  173.4900  144.7380 O   0  0  0  0  0  0  0  0  0  0  0  0
  190.5880  173.5670  143.6270 C   0  0  1  0  0  3  0  0  0  0  0  0
  189.8570  172.0880  144.7820 C   0  0  0  0  0  2  0  0  0  0  0  0
  190.1540  171.4440  142.5190 O   0  0  0  0  0  1  0  0  0  0  0  0
  191.8400  174.3990  143.9640 C   0  0  1  0  0  3  0  0  0  0  0  0
  191.7220  175.7760  143.3370 C   0  0  0  0  0  1  0  0  0  0  0  0
  193.3900  174.3990  145.8580 O   0  0  0  0  0  1  0  0  0  0  0  0
  192.0640  174.6100  145.4660 C   0  0  1  0  0  3  0  0  0  0  0  0
  192.4650  176.8790  146.1840 O   0  0  0  0  0  1  0  0  0  0  0  0
  191.4770  175.9030  146.0440 C   0  0  2  0  0  3  0  0  0  0  0  0
  190.6280  175.7340  147.2830 C   0  0  0  0  0  0  0  0  0  0  0  0
  189.1950  175.6740  147.2360 N   0  0  0  0  0  2  0  0  0  0  0  0
  191.2130  175.3290  148.3580 N   0  0  0  0  0  2  0  0  0  0  0  0
  188.3590  176.3590  146.2630 C   0  0  0  0  0  2  0  0  0  0  0  0
  188.0040  177.7320  146.7940 C   0  0  0  0  0  2  0  0  0  0  0  0
  186.6510  177.7270  147.4890 C   0  0  2  0  0  3  0  0  0  0  0  0
  186.3180  176.4160  147.8310 O   0  0  0  0  0  1  0  0  0  0  0  0
  184.8420  178.2140  144.0530 C   0  0  2  0  0  0  0  0  0  0  0  0
  184.8160  177.0900  145.5000 S   0  0  0  0  0  0  0  0  0  0  0  0
  185.5650  178.3410  146.6080 C   0  0  2  0  0  3  0  0  0  0  0  0
  185.9430  180.3220  143.6550 O   0  0  0  0  0  0  0  0  0  0  0  0
  185.6510  179.3930  144.4560 C   0  0  0  0  0  0  0  0  0  0  0  0
  186.0870  179.4210  145.8000 N   0  0  0  0  0  2  0  0  0  0  0  0
  183.4240  178.6660  143.7200 C   0  0  0  0  0  2  0  0  0  0  0  0
  183.0900  178.3460  142.4010 O   0  0  0  0  0  1  0  0  0  0  0  0
  185.4680  177.5090  142.8500 C   0  0  0  0  0  2  0  0  0  0  0  0
  186.7840  177.0860  143.1440 O   0  0  0  0  0  0  0  0  0  0  0  0
  189.0010  177.9160  142.5830 C   0  0  0  0  0  1  0  0  0  0  0  0
  187.6500  177.4140  142.0700 C   0  0  2  0  0  0  0  0  0  0  0  0
  187.0700  178.4570  141.3730 F   0  0  0  0  0  0  0  0  0  0  0  0
  187.2380  176.3420  139.8340 O   0  0  0  0  0  0  0  0  0  0  0  0
  188.5330  175.2730  141.3910 O   0  0  0  0  0  1  0  0  0  0  0  0
  187.8140  176.2670  141.0980 C   0  0  0  0  0  0  0  0  0  0  0  0
  192.1320  171.4370  143.9740 C   0  0  0  0  0  2  0  0  0  0  0  0
  193.1450  171.5680  142.9240 N   0  0  0  0  0  0  0  0  0  0  0  0
  194.5180  171.3590  143.2400 C   0  0  0  0  0  0  0  0  0  0  0  0
  194.1670  170.2590  141.2240 C   0  0  1  0  0  3  0  0  0  0  0  0
  192.9240  171.0890  141.5580 C   0  0  2  0  0  3  0  0  0  0  0  0
  195.1260  170.6540  142.3000 C   0  0  0  0  0  0  0  0  0  0  0  0
  196.0150  173.0240  144.3230 O   0  0  0  0  0  0  0  0  0  0  0  0
  195.0240  171.3860  145.5620 O   0  0  0  0  0  1  0  0  0  0  0  0
  195.1780  171.9220  144.4360 C   0  0  0  0  0  0  0  0  0  0  0  0
  193.8480  168.7750  141.3330 C   0  0  0  0  0  2  0  0  0  0  0  0
  193.1420  168.5170  142.5070 O   0  0  0  0  0  1  0  0  0  0  0  0
  196.4870  170.3430  142.3130 O   0  0  0  0  0  0  0  0  0  0  0  0
  196.7610  172.3160  140.9610 C   0  0  0  0  0  2  0  0  0  0  0  0
  196.9680  171.7120  139.5880 C   0  0  0  0  0  2  0  0  0  0  0  0
  197.4410  171.1150  141.5940 C   0  0  0  0  0  3  0  0  0  0  0  0
  197.6450  170.5110  140.2180 C   0  0  0  0  0  2  0  0  0  0  0  0
  192.9160  172.2740  140.5980 C   0  0  0  0  0  2  0  0  0  0  0  0
  189.2330  173.9560  138.1250 C   0  0  0  0  0  3  0  0  0  0  0  0
  188.9440  171.8560  139.1480 N   0  0  0  0  0  0  0  0  0  0  0  0
  191.7200  173.7800  137.8530 C   0  0  0  0  0  3  0  0  0  0  0  0
  191.3080  171.1040  139.0840 C   0  0  0  0  0  2  0  0  0  0  0  0
  192.6650  171.8440  139.1660 C   0  0  1  0  0  3  0  0  0  0  0  0
  190.3920  173.3470  138.2800 C   0  0  0  0  0  0  0  0  0  0  0  0
  190.1870  172.0810  138.9030 C   0  0  0  0  0  0  0  0  0  0  0  0
  188.1920  173.0380  138.7150 C   0  0  0  0  0  2  0  0  0  0  0  0
  192.7800  173.0430  138.2290 C   0  0  0  0  0  3  0  0  0  0  0  0
  1  5  1  6  0  0  0
  1  3  1  0  0  0  0
  1 35  1  0  0  0  0
  1  4  1  0  0  0  0
  2  4  1  0  0  0  0
  3  6  1  1  0  0  0
  3  2  1  0  0  0  0
  6  7  1  6  0  0  0
  6  9  1  0  0  0  0
  9  8  1  6  0  0  0
  9 11  1  0  0  0  0
 11 10  1  1  0  0  0
 11 12  1  0  0  0  0
 12 14  2  0  0  0  0
 13 12  1  0  0  0  0
 15 16  1  0  0  0  0
 15 13  1  0  0  0  0
 16 17  1  0  0  0  0
 17 18  1  6  0  0  0
 19 27  1  6  0  0  0
 19 23  1  0  0  0  0
 19 20  1  0  0  0  0
 20 21  1  0  0  0  0
 21 17  1  6  0  0  0
 22 23  2  0  0  0  0
 23 24  1  0  0  0  0
 24 21  1  0  0  0  0
 25 19  1  0  0  0  0
 26 25  1  0  0  0  0
 27 28  1  0  0  0  0
 30 29  1  1  0  0  0
 30 28  1  0  0  0  0
 31 30  1  0  0  0  0
 32 34  2  0  0  0  0
 34 33  1  0  0  0  0
 34 30  1  0  0  0  0
 36 37  1  0  0  0  0
 36 35  1  0  0  0  0
 37 43  1  0  0  0  0
 38 44  1  1  0  0  0
 38 39  1  0  0  0  0
 38 40  1  0  0  0  0
 39 51  1  6  0  0  0
 39 36  1  0  0  0  0
 40 46  1  0  0  0  0
 40 37  2  0  0  0  0
 41 43  2  0  0  0  0
 43 42  1  0  0  0  0
 44 45  1  0  0  0  0
 47 49  1  0  0  0  0
 48 50  1  0  0  0  0
 48 47  1  0  0  0  0
 49 46  1  0  0  0  0
 50 49  1  0  0  0  0
 52 57  2  0  0  0  0
 52 59  1  0  0  0  0
 54 60  2  0  0  0  0
 54 57  1  0  0  0  0
 55 56  1  0  0  0  0
 56 51  1  1  0  0  0
 57 58  1  0  0  0  0
 58 55  1  0  0  0  0
 58 53  2  0  0  0  0
 59 53  1  0  0  0  0
 60 56  1  0  0  0  0
M  END
>  <MODEL>
7

>  <REMARK>
 VINA RESULT:      -5.3      3.313      9.600
  Name = 
  21 active torsions:
  status: ('A' for Active; 'I' for Inactive)
    1  A    between atoms: N_1  and  C_47
    2  A    between atoms: C_3  and  C_28
    3  A    between atoms: C_3  and  C_38
    4  A    between atoms: C_4  and  C_42
    5  A    between atoms: C_5  and  C_18
    6  A    between atoms: C_7  and  C_32
    7  A    between atoms: O_10  and  C_30
    8  A    between atoms: O_10  and  C_48
    9  A    between atoms: C_12  and  C_47
   10  A    between atoms: C_14  and  C_20
   11  A    between atoms: C_14  and  C_28
   12  A    between atoms: C_18  and  C_22
   13  A    between atoms: N_21  and  C_52
   14  A    between atoms: C_22  and  O_44
   15  A    between atoms: C_23  and  C_26
   16  A    between atoms: C_23  and  C_52
   17  A    between atoms: C_26  and  C_27
   18  A    between atoms: C_35  and  C_59
   19  A    between atoms: C_43  and  O_44
   20  A    between atoms: C_43  and  C_60
   21  A    between atoms: C_46  and  C_59
                            x       y       z     vdW  Elec       q    Type
                         _______ _______ _______ _____ _____    ______ ____

>  <TORSDO>
F 21

$$$$
=
 OpenBabel11062420403D

 60 65  0  0  1  0  0  0  0  0999 V2000
  195.2970  175.2570  141.5360 C   0  0  1  0  0  0  0  0  0  0  0  0
  194.8950  175.8700  143.5120 O   0  0  0  0  0  0  0  0  0  0  0  0
  195.8990  175.0820  142.9220 C   0  0  1  0  0  3  0  0  0  0  0  0
  194.2780  176.0790  142.2640 C   0  0  0  0  0  2  0  0  0  0  0  0
  196.0640  176.0720  140.7050 O   0  0  0  0  0  1  0  0  0  0  0  0
  195.8700  173.6500  143.4900 C   0  0  1  0  0  3  0  0  0  0  0  0
  197.1920  172.9620  143.2050 C   0  0  0  0  0  1  0  0  0  0  0  0
  195.6610  174.8430  145.6160 O   0  0  0  0  0  1  0  0  0  0  0  0
  195.6490  173.5840  145.0060 C   0  0  1  0  0  3  0  0  0  0  0  0
  194.9090  171.4730  145.9100 O   0  0  0  0  0  1  0  0  0  0  0  0
  194.4690  172.7190  145.4620 C   0  0  2  0  0  3  0  0  0  0  0  0
  193.3160  172.6280  144.4890 C   0  0  0  0  0  0  0  0  0  0  0  0
  192.3470  173.6750  144.3380 N   0  0  0  0  0  2  0  0  0  0  0  0
  193.3840  171.7320  143.5640 N   0  0  0  0  0  2  0  0  0  0  0  0
  191.9130  174.5740  145.3960 C   0  0  0  0  0  2  0  0  0  0  0  0
  191.9190  175.9950  144.8730 C   0  0  0  0  0  2  0  0  0  0  0  0
  190.5140  176.5700  144.8060 C   0  0  2  0  0  3  0  0  0  0  0  0
  189.7300  175.9780  145.7970 O   0  0  0  0  0  1  0  0  0  0  0  0
  187.6350  177.0610  142.2000 C   0  0  2  0  0  0  0  0  0  0  0  0
  189.1540  177.9060  142.7830 S   0  0  0  0  0  0  0  0  0  0  0  0
  189.8840  176.3570  143.4310 C   0  0  2  0  0  3  0  0  0  0  0  0
  186.7360  174.8640  142.6250 O   0  0  0  0  0  0  0  0  0  0  0  0
  187.6830  175.6860  142.7620 C   0  0  0  0  0  0  0  0  0  0  0  0
  188.8550  175.3420  143.4720 N   0  0  0  0  0  2  0  0  0  0  0  0
  187.6360  176.9820  140.6760 C   0  0  0  0  0  2  0  0  0  0  0  0
  186.3840  177.3200  140.1540 O   0  0  0  0  0  1  0  0  0  0  0  0
  186.3950  177.8070  142.6900 C   0  0  0  0  0  2  0  0  0  0  0  0
  186.7400  178.7660  143.6700 O   0  0  0  0  0  0  0  0  0  0  0  0
  184.3400  178.4540  143.9200 C   0  0  0  0  0  1  0  0  0  0  0  0
  185.6330  179.0040  144.5250 C   0  0  2  0  0  0  0  0  0  0  0  0
  185.4790  180.3730  144.6330 F   0  0  0  0  0  0  0  0  0  0  0  0
  186.3690  177.1870  146.0980 O   0  0  0  0  0  0  0  0  0  0  0  0
  185.6870  179.2090  146.9290 O   0  0  0  0  0  1  0  0  0  0  0  0
  185.8670  178.4720  145.9210 C   0  0  0  0  0  0  0  0  0  0  0  0
  194.6400  174.0760  140.8130 C   0  0  0  0  0  2  0  0  0  0  0  0
  194.9380  174.0280  139.3800 N   0  0  0  0  0  0  0  0  0  0  0  0
  195.7980  173.0110  138.8730 C   0  0  0  0  0  0  0  0  0  0  0  0
  194.0300  173.1410  137.3710 C   0  0  1  0  0  3  0  0  0  0  0  0
  193.9270  174.3070  138.3580 C   0  0  2  0  0  3  0  0  0  0  0  0
  195.3340  172.5110  137.7390 C   0  0  0  0  0  0  0  0  0  0  0  0
  197.3190  171.2980  139.8410 O   0  0  0  0  0  1  0  0  0  0  0  0
  197.9340  173.4940  139.7960 O   0  0  0  0  0  0  0  0  0  0  0  0
  197.0730  172.6240  139.5100 C   0  0  0  0  0  0  0  0  0  0  0  0
  192.8940  172.1550  137.6080 C   0  0  0  0  0  2  0  0  0  0  0  0
  192.3690  171.7210  136.3920 O   0  0  0  0  0  1  0  0  0  0  0  0
  195.9950  171.5380  136.9850 O   0  0  0  0  0  0  0  0  0  0  0  0
  195.6900  170.2510  134.9740 C   0  0  0  0  0  2  0  0  0  0  0  0
  197.1220  170.0600  134.5200 C   0  0  0  0  0  2  0  0  0  0  0  0
  196.0550  171.6010  135.5650 C   0  0  0  0  0  3  0  0  0  0  0  0
  197.4880  171.4070  135.1120 C   0  0  0  0  0  2  0  0  0  0  0  0
  194.3120  175.5670  137.5900 C   0  0  0  0  0  2  0  0  0  0  0  0
  195.3500  179.0710  134.5640 C   0  0  0  0  0  3  0  0  0  0  0  0
  193.0670  178.5960  134.8840 N   0  0  0  0  0  0  0  0  0  0  0  0
  196.1760  176.7570  135.0720 C   0  0  0  0  0  3  0  0  0  0  0  0
  193.2770  176.1780  135.3990 C   0  0  0  0  0  2  0  0  0  0  0  0
  194.3670  175.3270  136.0950 C   0  0  1  0  0  3  0  0  0  0  0  0
  195.1790  177.8150  134.9270 C   0  0  0  0  0  0  0  0  0  0  0  0
  193.7890  177.5570  135.1160 C   0  0  0  0  0  0  0  0  0  0  0  0
  193.9770  179.6940  134.5400 C   0  0  0  0  0  3  0  0  0  0  0  0
  195.7800  175.5740  135.5740 C   0  0  0  0  0  2  0  0  0  0  0  0
  1  5  1  6  0  0  0
  1  4  1  0  0  0  0
  1  3  1  0  0  0  0
  3  6  1  1  0  0  0
  3  2  1  0  0  0  0
  4  2  1  0  0  0  0
  6  7  1  1  0  0  0
  6  9  1  0  0  0  0
  9 11  1  0  0  0  0
  9  8  1  6  0  0  0
 11 10  1  6  0  0  0
 12 11  1  0  0  0  0
 13 12  1  0  0  0  0
 13 15  1  0  0  0  0
 14 12  2  0  0  0  0
 16 15  1  0  0  0  0
 17 16  1  0  0  0  0
 17 18  1  1  0  0  0
 19 25  1  6  0  0  0
 19 27  1  0  0  0  0
 19 23  1  0  0  0  0
 19 20  1  0  0  0  0
 20 21  1  0  0  0  0
 21 24  1  0  0  0  0
 21 17  1  1  0  0  0
 22 23  2  0  0  0  0
 23 24  1  0  0  0  0
 26 25  1  0  0  0  0
 27 28  1  0  0  0  0
 28 30  1  0  0  0  0
 30 29  1  6  0  0  0
 30 31  1  0  0  0  0
 30 34  1  0  0  0  0
 34 32  2  0  0  0  0
 34 33  1  0  0  0  0
 35  1  1  0  0  0  0
 36 35  1  0  0  0  0
 37 36  1  0  0  0  0
 37 43  1  0  0  0  0
 38 44  1  1  0  0  0
 38 40  1  0  0  0  0
 38 39  1  0  0  0  0
 39 51  1  6  0  0  0
 39 36  1  0  0  0  0
 40 37  2  0  0  0  0
 43 42  2  0  0  0  0
 43 41  1  0  0  0  0
 45 44  1  0  0  0  0
 46 40  1  0  0  0  0
 47 49  1  0  0  0  0
 48 47  1  0  0  0  0
 48 50  1  0  0  0  0
 49 46  1  0  0  0  0
 50 49  1  0  0  0  0
 52 57  1  0  0  0  0
 53 58  2  0  0  0  0
 54 60  1  0  0  0  0
 55 56  1  0  0  0  0
 56 51  1  1  0  0  0
 57 54  2  0  0  0  0
 57 58  1  0  0  0  0
 58 55  1  0  0  0  0
 59 52  2  0  0  0  0
 59 53  1  0  0  0  0
 60 56  1  0  0  0  0
M  END
>  <MODEL>
8

>  <REMARK>
 VINA RESULT:      -5.2      3.697     10.110
  Name = 
  21 active torsions:
  status: ('A' for Active; 'I' for Inactive)
    1  A    between atoms: N_1  and  C_47
    2  A    between atoms: C_3  and  C_28
    3  A    between atoms: C_3  and  C_38
    4  A    between atoms: C_4  and  C_42
    5  A    between atoms: C_5  and  C_18
    6  A    between atoms: C_7  and  C_32
    7  A    between atoms: O_10  and  C_30
    8  A    between atoms: O_10  and  C_48
    9  A    between atoms: C_12  and  C_47
   10  A    between atoms: C_14  and  C_20
   11  A    between atoms: C_14  and  C_28
   12  A    between atoms: C_18  and  C_22
   13  A    between atoms: N_21  and  C_52
   14  A    between atoms: C_22  and  O_44
   15  A    between atoms: C_23  and  C_26
   16  A    between atoms: C_23  and  C_52
   17  A    between atoms: C_26  and  C_27
   18  A    between atoms: C_35  and  C_59
   19  A    between atoms: C_43  and  O_44
   20  A    between atoms: C_43  and  C_60
   21  A    between atoms: C_46  and  C_59
                            x       y       z     vdW  Elec       q    Type
                         _______ _______ _______ _____ _____    ______ ____

>  <TORSDO>
F 21

$$$$
=
 OpenBabel11062420403D

 60 65  0  0  1  0  0  0  0  0999 V2000
  192.2570  172.6830  141.4630 C   0  0  1  0  0  0  0  0  0  0  0  0
  191.8020  174.2110  142.8420 O   0  0  0  0  0  0  0  0  0  0  0  0
  192.3540  174.1980  141.5480 C   0  0  1  0  0  3  0  0  0  0  0  0
  191.6800  172.8080  142.8400 C   0  0  0  0  0  2  0  0  0  0  0  0
  191.2770  172.2460  140.5720 O   0  0  0  0  0  1  0  0  0  0  0  0
  193.7810  174.7810  141.5590 C   0  0  1  0  0  3  0  0  0  0  0  0
  194.1980  175.1350  140.1450 C   0  0  0  0  0  1  0  0  0  0  0  0
  192.7010  176.6420  142.7260 O   0  0  0  0  0  1  0  0  0  0  0  0
  193.9290  176.0540  142.4010 C   0  0  1  0  0  3  0  0  0  0  0  0
  196.1980  176.0830  143.2230 O   0  0  0  0  0  1  0  0  0  0  0  0
  194.8650  175.9380  143.6100 C   0  0  2  0  0  3  0  0  0  0  0  0
  194.6310  174.7400  144.5000 C   0  0  0  0  0  0  0  0  0  0  0  0
  193.5430  174.6680  145.4310 N   0  0  0  0  0  2  0  0  0  0  0  0
  195.2370  173.6420  144.1970 N   0  0  0  0  0  2  0  0  0  0  0  0
  192.9550  175.8060  146.1230 C   0  0  0  0  0  2  0  0  0  0  0  0
  191.8320  175.3190  147.0140 C   0  0  0  0  0  2  0  0  0  0  0  0
  190.5180  176.0070  146.6810 C   0  0  2  0  0  3  0  0  0  0  0  0
  189.4650  175.2670  147.2180 O   0  0  0  0  0  1  0  0  0  0  0  0
  188.6610  177.4490  143.5520 C   0  0  2  0  0  0  0  0  0  0  0  0
  189.9840  177.9150  144.7310 S   0  0  0  0  0  0  0  0  0  0  0  0
  190.3380  176.1740  145.1730 C   0  0  2  0  0  3  0  0  0  0  0  0
  187.4890  175.3770  143.1640 O   0  0  0  0  0  0  0  0  0  0  0  0
  188.4110  175.9990  143.7590 C   0  0  0  0  0  0  0  0  0  0  0  0
  189.2660  175.3430  144.6730 N   0  0  0  0  0  2  0  0  0  0  0  0
  189.1340  177.6790  142.1200 C   0  0  0  0  0  2  0  0  0  0  0  0
  188.0560  177.9240  141.2660 O   0  0  0  0  0  1  0  0  0  0  0  0
  187.3980  178.2640  143.8280 C   0  0  0  0  0  2  0  0  0  0  0  0
  187.0050  178.1420  145.1800 O   0  0  0  0  0  0  0  0  0  0  0  0
  184.8650  178.0970  144.0250 C   0  0  0  0  0  1  0  0  0  0  0  0
  185.6230  178.4300  145.3110 C   0  0  2  0  0  0  0  0  0  0  0  0
  185.5000  179.7920  145.5120 F   0  0  0  0  0  0  0  0  0  0  0  0
  184.5770  178.5050  147.5960 O   0  0  0  0  0  1  0  0  0  0  0  0
  184.8120  176.5000  146.5140 O   0  0  0  0  0  0  0  0  0  0  0  0
  185.0100  177.7470  146.5130 C   0  0  0  0  0  0  0  0  0  0  0  0
  193.5220  171.8160  141.4700 C   0  0  0  0  0  2  0  0  0  0  0  0
  194.2260  171.8000  140.1860 N   0  0  0  0  0  0  0  0  0  0  0  0
  195.6250  171.5290  140.1540 C   0  0  0  0  0  0  0  0  0  0  0  0
  194.7100  170.3000  138.4070 C   0  0  1  0  0  3  0  0  0  0  0  0
  193.6340  171.2310  138.9730 C   0  0  2  0  0  3  0  0  0  0  0  0
  195.9340  170.7150  139.1570 C   0  0  0  0  0  0  0  0  0  0  0  0
  197.1010  171.4160  142.1520 O   0  0  0  0  0  1  0  0  0  0  0  0
  196.9550  173.3380  140.9330 O   0  0  0  0  0  0  0  0  0  0  0  0
  196.5990  172.1410  141.0800 C   0  0  0  0  0  0  0  0  0  0  0  0
  194.3700  168.8520  138.7320 C   0  0  0  0  0  2  0  0  0  0  0  0
  193.0050  168.7190  138.9770 O   0  0  0  0  0  1  0  0  0  0  0  0
  197.2370  170.3200  138.8460 O   0  0  0  0  0  0  0  0  0  0  0  0
  197.1140  171.9570  137.0850 C   0  0  0  0  0  2  0  0  0  0  0  0
  196.9010  171.0760  135.8710 C   0  0  0  0  0  2  0  0  0  0  0  0
  197.9410  170.8630  137.7360 C   0  0  0  0  0  3  0  0  0  0  0  0
  197.7250  169.9820  136.5210 C   0  0  0  0  0  2  0  0  0  0  0  0
  193.4220  172.3350  137.9430 C   0  0  0  0  0  2  0  0  0  0  0  0
  189.5290  174.5710  136.4080 C   0  0  0  0  0  3  0  0  0  0  0  0
  189.1910  172.6940  137.7880 N   0  0  0  0  0  0  0  0  0  0  0  0
  191.7240  173.8120  135.4600 C   0  0  0  0  0  3  0  0  0  0  0  0
  191.2300  171.4250  137.1630 C   0  0  0  0  0  2  0  0  0  0  0  0
  192.6560  171.8430  136.7320 C   0  0  1  0  0  3  0  0  0  0  0  0
  190.5430  173.7330  136.3150 C   0  0  0  0  0  0  0  0  0  0  0  0
  190.3120  172.6090  137.1620 C   0  0  0  0  0  0  0  0  0  0  0  0
  188.5750  173.9700  137.4100 C   0  0  0  0  0  2  0  0  0  0  0  0
  192.6910  172.8930  135.6250 C   0  0  0  0  0  3  0  0  0  0  0  0
  1  5  1  6  0  0  0
  1 35  1  0  0  0  0
  1  3  1  0  0  0  0
  1  4  1  0  0  0  0
  3  6  1  1  0  0  0
  3  2  1  0  0  0  0
  4  2  1  0  0  0  0
  6  7  1  6  0  0  0
  6  9  1  0  0  0  0
  9  8  1  1  0  0  0
  9 11  1  0  0  0  0
 11 10  1  6  0  0  0
 11 12  1  0  0  0  0
 12 13  1  0  0  0  0
 13 15  1  0  0  0  0
 14 12  2  0  0  0  0
 15 16  1  0  0  0  0
 17 16  1  0  0  0  0
 17 18  1  6  0  0  0
 19 25  1  6  0  0  0
 19 23  1  0  0  0  0
 19 27  1  0  0  0  0
 19 20  1  0  0  0  0
 20 21  1  0  0  0  0
 21 17  1  1  0  0  0
 22 23  2  0  0  0  0
 23 24  1  0  0  0  0
 24 21  1  0  0  0  0
 26 25  1  0  0  0  0
 27 28  1  0  0  0  0
 28 30  1  0  0  0  0
 30 29  1  6  0  0  0
 30 31  1  0  0  0  0
 30 34  1  0  0  0  0
 34 33  2  0  0  0  0
 34 32  1  0  0  0  0
 36 35  1  0  0  0  0
 37 36  1  0  0  0  0
 37 43  1  0  0  0  0
 38 44  1  1  0  0  0
 38 39  1  0  0  0  0
 38 40  1  0  0  0  0
 39 51  1  6  0  0  0
 39 36  1  0  0  0  0
 40 37  2  0  0  0  0
 42 43  2  0  0  0  0
 43 41  1  0  0  0  0
 44 45  1  0  0  0  0
 46 40  1  0  0  0  0
 47 49  1  0  0  0  0
 48 50  1  0  0  0  0
 48 47  1  0  0  0  0
 49 46  1  0  0  0  0
 50 49  1  0  0  0  0
 52 59  1  0  0  0  0
 54 60  2  0  0  0  0
 54 57  1  0  0  0  0
 56 55  1  0  0  0  0
 56 51  1  1  0  0  0
 57 52  2  0  0  0  0
 57 58  1  0  0  0  0
 58 55  1  0  0  0  0
 58 53  2  0  0  0  0
 59 53  1  0  0  0  0
 60 56  1  0  0  0  0
M  END
>  <MODEL>
9

>  <REMARK>
 VINA RESULT:      -4.9      3.269      9.277
  Name = 
  21 active torsions:
  status: ('A' for Active; 'I' for Inactive)
    1  A    between atoms: N_1  and  C_47
    2  A    between atoms: C_3  and  C_28
    3  A    between atoms: C_3  and  C_38
    4  A    between atoms: C_4  and  C_42
    5  A    between atoms: C_5  and  C_18
    6  A    between atoms: C_7  and  C_32
    7  A    between atoms: O_10  and  C_30
    8  A    between atoms: O_10  and  C_48
    9  A    between atoms: C_12  and  C_47
   10  A    between atoms: C_14  and  C_20
   11  A    between atoms: C_14  and  C_28
   12  A    between atoms: C_18  and  C_22
   13  A    between atoms: N_21  and  C_52
   14  A    between atoms: C_22  and  O_44
   15  A    between atoms: C_23  and  C_26
   16  A    between atoms: C_23  and  C_52
   17  A    between atoms: C_26  and  C_27
   18  A    between atoms: C_35  and  C_59
   19  A    between atoms: C_43  and  O_44
   20  A    between atoms: C_43  and  C_60
   21  A    between atoms: C_46  and  C_59
                            x       y       z     vdW  Elec       q    Type
                         _______ _______ _______ _____ _____    ______ ____

>  <TORSDO>
F 21

$$$$
