=
 OpenBabel11062418483D

 43 47  0  0  1  0  0  0  0  0999 V2000
  187.9100  174.1540  141.6890 C   0  0  0  0  0  1  0  0  0  0  0  0
  189.5540  175.1040  144.7510 C   0  0  2  0  0  3  0  0  0  0  0  0
  189.0360  174.9280  142.3550 C   0  0  1  0  0  3  0  0  0  0  0  0
  188.5370  176.2100  142.9470 C   0  0  0  0  0  0  0  0  0  0  0  0
  189.5370  174.1360  143.5640 C   0  0  1  0  0  3  0  0  0  0  0  0
  188.8320  176.3100  144.2400 C   0  0  0  0  0  0  0  0  0  0  0  0
  190.7330  171.9730  144.1270 C   0  0  0  0  0  0  0  0  0  0  0  0
  192.7940  171.2450  142.9200 C   0  0  0  0  0  2  0  0  0  0  0  0
  191.7170  170.9730  143.8590 N   0  0  0  0  0  2  0  0  0  0  0  0
  189.8320  171.7540  144.9770 O   0  0  0  0  0  0  0  0  0  0  0  0
  190.7980  173.2740  143.3680 C   0  0  1  0  0  3  0  0  0  0  0  0
  192.7720  171.8340  140.6370 O   0  0  0  0  0  0  0  0  0  0  0  0
  192.2830  172.0220  141.7370 C   0  0  0  0  0  0  0  0  0  0  0  0
  191.1850  173.0420  141.8950 C   0  0  0  0  0  2  0  0  0  0  0  0
  187.8870  177.2700  142.1450 C   0  0  0  0  0  0  0  0  0  0  0  0
  185.8240  178.2840  141.1090 C   0  0  0  0  0  1  0  0  0  0  0  0
  188.5950  178.1960  141.6610 O   0  0  0  0  0  0  0  0  0  0  0  0
  186.4660  177.2800  141.9510 N   0  0  0  0  0  2  0  0  0  0  0  0
  191.2730  175.4460  146.5040 C   0  0  0  0  0  0  0  0  0  0  0  0
  190.3620  175.1130  147.6560 C   0  0  0  0  0  1  0  0  0  0  0  0
  190.8910  175.3910  145.2670 N   0  0  0  0  0  0  0  0  0  0  0  0
  192.7090  175.7870  146.7710 C   0  0  2  0  0  3  0  0  0  0  0  0
  192.8830  177.1720  146.7420 O   0  0  0  0  0  1  0  0  0  0  0  0
  195.0750  175.2710  146.1710 C   0  0  1  0  0  3  0  0  0  0  0  0
  193.6220  175.1270  145.7450 C   0  0  2  0  0  3  0  0  0  0  0  0
  195.0830  175.7150  143.7840 N   0  0  0  0  0  0  0  0  0  0  0  0
  195.9420  174.2480  145.4720 C   0  0  0  0  0  2  0  0  0  0  0  0
  194.5280  176.1670  145.0780 C   0  0  2  0  0  3  0  0  0  0  0  0
  195.6670  174.3930  143.9940 C   0  0  0  0  0  2  0  0  0  0  0  0
  194.0190  175.6490  142.7560 C   0  0  1  0  0  3  0  0  0  0  0  0
  192.8880  176.6230  143.0690 C   0  0  0  0  0  1  0  0  0  0  0  0
  195.7070  174.3330  140.0210 C   0  0  1  0  0  3  0  0  0  0  0  0
  197.0100  175.5590  140.3550 S   0  0  0  0  0  0  0  0  0  0  0  0
  195.8600  176.6540  141.2130 C   0  0  0  0  0  2  0  0  0  0  0  0
  194.5100  175.9650  141.3290 C   0  0  1  0  0  3  0  0  0  0  0  0
  196.0340  173.0080  140.6820 C   0  0  0  0  0  1  0  0  0  0  0  0
  194.3910  174.8080  140.4450 N   0  0  0  0  0  2  0  0  0  0  0  0
  188.5020  177.4210  145.0260 O   0  0  0  0  0  0  0  0  0  0  0  0
  187.6230  177.3280  146.1390 C   0  0  0  0  0  2  0  0  0  0  0  0
  186.1950  177.1890  145.6450 C   0  0  0  0  0  2  0  0  0  0  0  0
  185.2110  177.7230  146.6820 C   0  0  2  0  0  3  0  0  0  0  0  0
  184.0340  178.1710  146.0640 O   0  0  0  0  0  1  0  0  0  0  0  0
  185.8480  178.8680  147.4420 C   0  0  0  0  0  1  0  0  0  0  0  0
  2 21  1  6  0  0  0
  3  1  1  1  0  0  0
  3  4  1  0  0  0  0
  3  5  1  0  0  0  0
  4  6  2  0  0  0  0
  5 11  1  6  0  0  0
  5  2  1  0  0  0  0
  6  2  1  0  0  0  0
  6 38  1  0  0  0  0
  7 10  2  0  0  0  0
  8  9  1  0  0  0  0
  9  7  1  0  0  0  0
 11 14  1  6  0  0  0
 11  7  1  0  0  0  0
 12 13  2  0  0  0  0
 13 14  1  0  0  0  0
 13  8  1  0  0  0  0
 15  4  1  0  0  0  0
 16 18  1  0  0  0  0
 17 15  2  0  0  0  0
 18 15  1  0  0  0  0
 19 22  1  0  0  0  0
 19 20  1  0  0  0  0
 21 19  2  0  0  0  0
 22 23  1  6  0  0  0
 24 27  1  6  0  0  0
 25 24  1  0  0  0  0
 25 22  1  1  0  0  0
 26 29  1  0  0  0  0
 28 26  1  6  0  0  0
 28 25  1  0  0  0  0
 28 24  1  0  0  0  0
 29 27  1  0  0  0  0
 30 31  1  1  0  0  0
 30 26  1  0  0  0  0
 32 33  1  0  0  0  0
 32 37  1  0  0  0  0
 32 36  1  1  0  0  0
 33 34  1  0  0  0  0
 34 35  1  0  0  0  0
 35 30  1  1  0  0  0
 37 35  1  0  0  0  0
 38 39  1  0  0  0  0
 40 39  1  0  0  0  0
 40 41  1  0  0  0  0
 41 43  1  6  0  0  0
 42 41  1  0  0  0  0
M  END
>  <MODEL>
1

>  <REMARK>
 VINA RESULT:      -7.1      0.000      0.000
  Name = 
  11 active torsions:
  status: ('A' for Active; 'I' for Inactive)
    1  A    between atoms: C_7  and  N_23
    2  A    between atoms: C_8  and  C_37
    3  A    between atoms: C_9  and  C_32
    4  A    between atoms: C_11  and  C_18
    5  A    between atoms: C_11  and  N_26
    6  A    between atoms: C_16  and  C_30
    7  A    between atoms: C_19  and  C_35
    8  A    between atoms: C_24  and  C_30
    9  A    between atoms: C_28  and  C_37
   10  A    between atoms: C_28  and  O_42
   11  A    between atoms: C_39  and  O_42
                            x       y       z     vdW  Elec       q    Type
                         _______ _______ _______ _____ _____    ______ ____

>  <TORSDO>
F 11

$$$$
=
 OpenBabel11062418483D

 43 47  0  0  1  0  0  0  0  0999 V2000
  187.2380  173.5280  142.0310 C   0  0  0  0  0  1  0  0  0  0  0  0
  189.5020  175.0860  144.3600 C   0  0  2  0  0  3  0  0  0  0  0  0
  188.2880  174.5980  142.2800 C   0  0  1  0  0  3  0  0  0  0  0  0
  187.7070  175.7690  143.0110 C   0  0  0  0  0  0  0  0  0  0  0  0
  189.3400  174.0480  143.2450 C   0  0  1  0  0  3  0  0  0  0  0  0
  188.3750  176.0410  144.1280 C   0  0  0  0  0  0  0  0  0  0  0  0
  190.6390  171.9940  142.5270 C   0  0  0  0  0  0  0  0  0  0  0  0
  192.7290  172.1530  141.1700 C   0  0  0  0  0  2  0  0  0  0  0  0
  191.6680  171.3570  141.7680 N   0  0  0  0  0  2  0  0  0  0  0  0
  189.7510  171.2980  143.0860 O   0  0  0  0  0  0  0  0  0  0  0  0
  190.6400  173.4970  142.6300 C   0  0  1  0  0  3  0  0  0  0  0  0
  192.6740  173.9200  139.6110 O   0  0  0  0  0  0  0  0  0  0  0  0
  192.1790  173.4390  140.6140 C   0  0  0  0  0  0  0  0  0  0  0  0
  191.0340  174.1480  141.2910 C   0  0  0  0  0  2  0  0  0  0  0  0
  186.5850  176.5760  142.4800 C   0  0  0  0  0  0  0  0  0  0  0  0
  185.6250  178.1130  140.7270 C   0  0  0  0  0  1  0  0  0  0  0  0
  185.5020  176.6200  143.1250 O   0  0  0  0  0  0  0  0  0  0  0  0
  186.7010  177.2640  141.2280 N   0  0  0  0  0  2  0  0  0  0  0  0
  191.5630  175.9570  145.4280 C   0  0  0  0  0  0  0  0  0  0  0  0
  191.2020  175.4990  146.8160 C   0  0  0  0  0  1  0  0  0  0  0  0
  190.8180  175.7220  144.3940 N   0  0  0  0  0  0  0  0  0  0  0  0
  192.8720  176.6530  145.1950 C   0  0  2  0  0  3  0  0  0  0  0  0
  192.7630  177.5200  144.1070 O   0  0  0  0  0  1  0  0  0  0  0  0
  194.9540  175.6340  146.1170 C   0  0  1  0  0  3  0  0  0  0  0  0
  193.9850  175.6430  144.9450 C   0  0  2  0  0  3  0  0  0  0  0  0
  196.3660  175.5380  144.1440 N   0  0  0  0  0  0  0  0  0  0  0  0
  195.7590  174.3540  146.1370 C   0  0  0  0  0  2  0  0  0  0  0  0
  195.3410  176.3470  144.8360 C   0  0  2  0  0  3  0  0  0  0  0  0
  196.3760  174.2150  144.7650 C   0  0  0  0  0  2  0  0  0  0  0  0
  196.0540  175.4240  142.7010 C   0  0  1  0  0  3  0  0  0  0  0  0
  196.0960  176.7880  142.0180 C   0  0  0  0  0  1  0  0  0  0  0  0
  196.9930  174.4030  139.5180 C   0  0  1  0  0  3  0  0  0  0  0  0
  196.3350  172.7630  139.9520 S   0  0  0  0  0  0  0  0  0  0  0  0
  196.5510  173.0650  141.7190 C   0  0  0  0  0  2  0  0  0  0  0  0
  197.0120  174.4980  141.9250 C   0  0  1  0  0  3  0  0  0  0  0  0
  195.9480  175.2270  138.7920 C   0  0  0  0  0  1  0  0  0  0  0  0
  197.4880  175.1190  140.6920 N   0  0  0  0  0  2  0  0  0  0  0  0
  188.0540  177.1020  144.9840 O   0  0  0  0  0  0  0  0  0  0  0  0
  187.6330  176.8930  146.3240 C   0  0  0  0  0  2  0  0  0  0  0  0
  186.1270  177.0630  146.4130 C   0  0  0  0  0  2  0  0  0  0  0  0
  185.7440  178.5370  146.3140 C   0  0  2  0  0  3  0  0  0  0  0  0
  185.9450  179.1850  147.5420 O   0  0  0  0  0  1  0  0  0  0  0  0
  184.2880  178.6580  145.9130 C   0  0  0  0  0  1  0  0  0  0  0  0
  2 21  1  6  0  0  0
  3  1  1  1  0  0  0
  3  4  1  0  0  0  0
  3  5  1  0  0  0  0
  4  6  2  0  0  0  0
  5 11  1  6  0  0  0
  5  2  1  0  0  0  0
  6  2  1  0  0  0  0
  6 38  1  0  0  0  0
  7 11  1  0  0  0  0
  7 10  2  0  0  0  0
  8  9  1  0  0  0  0
  9  7  1  0  0  0  0
 11 14  1  6  0  0  0
 12 13  2  0  0  0  0
 13  8  1  0  0  0  0
 13 14  1  0  0  0  0
 15  4  1  0  0  0  0
 15 17  2  0  0  0  0
 16 18  1  0  0  0  0
 18 15  1  0  0  0  0
 19 20  1  0  0  0  0
 21 19  2  0  0  0  0
 22 23  1  6  0  0  0
 22 19  1  0  0  0  0
 24 27  1  6  0  0  0
 25 22  1  1  0  0  0
 25 24  1  0  0  0  0
 26 29  1  0  0  0  0
 28 26  1  6  0  0  0
 28 25  1  0  0  0  0
 28 24  1  0  0  0  0
 29 27  1  0  0  0  0
 30 31  1  6  0  0  0
 30 26  1  0  0  0  0
 32 36  1  1  0  0  0
 32 33  1  0  0  0  0
 32 37  1  0  0  0  0
 33 34  1  0  0  0  0
 34 35  1  0  0  0  0
 35 30  1  6  0  0  0
 37 35  1  0  0  0  0
 38 39  1  0  0  0  0
 39 40  1  0  0  0  0
 41 43  1  1  0  0  0
 41 40  1  0  0  0  0
 41 42  1  0  0  0  0
M  END
>  <MODEL>
2

>  <REMARK>
 VINA RESULT:      -7.1      1.548      1.844
  Name = 
  11 active torsions:
  status: ('A' for Active; 'I' for Inactive)
    1  A    between atoms: C_7  and  N_23
    2  A    between atoms: C_8  and  C_37
    3  A    between atoms: C_9  and  C_32
    4  A    between atoms: C_11  and  C_18
    5  A    between atoms: C_11  and  N_26
    6  A    between atoms: C_16  and  C_30
    7  A    between atoms: C_19  and  C_35
    8  A    between atoms: C_24  and  C_30
    9  A    between atoms: C_28  and  C_37
   10  A    between atoms: C_28  and  O_42
   11  A    between atoms: C_39  and  O_42
                            x       y       z     vdW  Elec       q    Type
                         _______ _______ _______ _____ _____    ______ ____

>  <TORSDO>
F 11

$$$$
=
 OpenBabel11062418483D

 43 47  0  0  1  0  0  0  0  0999 V2000
  196.6130  174.5330  141.4890 C   0  0  0  0  0  1  0  0  0  0  0  0
  193.3230  173.2190  142.1440 C   0  0  2  0  0  3  0  0  0  0  0  0
  195.1130  174.7770  141.5050 C   0  0  1  0  0  3  0  0  0  0  0  0
  194.4500  174.1590  140.3120 C   0  0  0  0  0  0  0  0  0  0  0  0
  194.5000  174.0320  142.6920 C   0  0  1  0  0  3  0  0  0  0  0  0
  193.4710  173.3280  140.6610 C   0  0  0  0  0  0  0  0  0  0  0  0
  194.6630  174.1220  145.2200 C   0  0  0  0  0  0  0  0  0  0  0  0
  194.2480  176.2240  146.5020 C   0  0  0  0  0  2  0  0  0  0  0  0
  194.6940  174.8410  146.4540 N   0  0  0  0  0  2  0  0  0  0  0  0
  195.0010  172.9100  145.1920 O   0  0  0  0  0  0  0  0  0  0  0  0
  194.2300  174.8470  143.9710 C   0  0  1  0  0  3  0  0  0  0  0  0
  194.9900  178.1510  145.3630 O   0  0  0  0  0  0  0  0  0  0  0  0
  194.7010  176.9710  145.2760 C   0  0  0  0  0  0  0  0  0  0  0  0
  194.7880  176.2830  143.9380 C   0  0  0  0  0  2  0  0  0  0  0  0
  194.7930  174.5240  138.9200 C   0  0  0  0  0  0  0  0  0  0  0  0
  196.1730  174.1820  136.8380 C   0  0  0  0  0  1  0  0  0  0  0  0
  194.1720  175.4700  138.3630 O   0  0  0  0  0  0  0  0  0  0  0  0
  195.7830  173.7900  138.1880 N   0  0  0  0  0  2  0  0  0  0  0  0
  191.2770  173.0810  143.5380 C   0  0  0  0  0  0  0  0  0  0  0  0
  191.7200  171.8680  144.3110 C   0  0  0  0  0  1  0  0  0  0  0  0
  192.0180  173.6520  142.6400 N   0  0  0  0  0  0  0  0  0  0  0  0
  189.9560  173.7190  143.8530 C   0  0  2  0  0  3  0  0  0  0  0  0
  188.9270  173.0280  143.2090 O   0  0  0  0  0  1  0  0  0  0  0  0
  190.4290  176.0610  144.5680 C   0  0  1  0  0  3  0  0  0  0  0  0
  189.9450  175.1810  143.4260 C   0  0  2  0  0  3  0  0  0  0  0  0
  188.5330  177.2520  143.6300 N   0  0  0  0  0  0  0  0  0  0  0  0
  190.8860  177.4070  144.0510 C   0  0  0  0  0  2  0  0  0  0  0  0
  188.9460  175.9840  144.2660 C   0  0  2  0  0  3  0  0  0  0  0  0
  189.7470  177.9580  143.2270 C   0  0  0  0  0  2  0  0  0  0  0  0
  187.6770  176.9890  142.4510 C   0  0  1  0  0  3  0  0  0  0  0  0
  186.7610  175.7920  142.6890 C   0  0  0  0  0  1  0  0  0  0  0  0
  184.9840  178.9260  143.4790 C   0  0  1  0  0  3  0  0  0  0  0  0
  184.0650  178.2250  142.0740 S   0  0  0  0  0  0  0  0  0  0  0  0
  185.5840  177.8590  141.1700 C   0  0  0  0  0  2  0  0  0  0  0  0
  186.7780  178.1780  142.0540 C   0  0  1  0  0  3  0  0  0  0  0  0
  184.7180  178.1350  144.7450 C   0  0  0  0  0  1  0  0  0  0  0  0
  186.4190  178.9970  143.2100 N   0  0  0  0  0  2  0  0  0  0  0  0
  192.6750  172.6390  139.7370 O   0  0  0  0  0  0  0  0  0  0  0  0
  191.4210  173.1400  139.2960 C   0  0  0  0  0  2  0  0  0  0  0  0
  190.3580  172.0720  139.4770 C   0  0  0  0  0  2  0  0  0  0  0  0
  189.0350  172.6970  139.9110 C   0  0  2  0  0  3  0  0  0  0  0  0
  188.0080  172.3540  139.0170 O   0  0  0  0  0  1  0  0  0  0  0  0
  189.1770  174.2040  139.9610 C   0  0  0  0  0  1  0  0  0  0  0  0
  2 21  1  1  0  0  0
  2  5  1  0  0  0  0
  3  1  1  6  0  0  0
  3  5  1  0  0  0  0
  4  6  2  0  0  0  0
  4  3  1  0  0  0  0
  5 11  1  1  0  0  0
  6  2  1  0  0  0  0
  7  9  1  0  0  0  0
  9  8  1  0  0  0  0
 10  7  2  0  0  0  0
 11 14  1  6  0  0  0
 11  7  1  0  0  0  0
 13 12  2  0  0  0  0
 13  8  1  0  0  0  0
 14 13  1  0  0  0  0
 15  4  1  0  0  0  0
 16 18  1  0  0  0  0
 17 15  2  0  0  0  0
 18 15  1  0  0  0  0
 19 22  1  0  0  0  0
 19 20  1  0  0  0  0
 21 19  2  0  0  0  0
 22 23  1  6  0  0  0
 24 27  1  6  0  0  0
 25 22  1  1  0  0  0
 25 28  1  0  0  0  0
 25 24  1  0  0  0  0
 28 26  1  6  0  0  0
 28 24  1  0  0  0  0
 29 26  1  0  0  0  0
 29 27  1  0  0  0  0
 30 31  1  1  0  0  0
 30 26  1  0  0  0  0
 32 36  1  1  0  0  0
 33 32  1  0  0  0  0
 34 35  1  0  0  0  0
 34 33  1  0  0  0  0
 35 30  1  1  0  0  0
 35 37  1  0  0  0  0
 37 32  1  0  0  0  0
 38  6  1  0  0  0  0
 39 40  1  0  0  0  0
 39 38  1  0  0  0  0
 40 41  1  0  0  0  0
 41 43  1  6  0  0  0
 42 41  1  0  0  0  0
M  END
>  <MODEL>
3

>  <REMARK>
 VINA RESULT:      -6.6      3.170      7.712
  Name = 
  11 active torsions:
  status: ('A' for Active; 'I' for Inactive)
    1  A    between atoms: C_7  and  N_23
    2  A    between atoms: C_8  and  C_37
    3  A    between atoms: C_9  and  C_32
    4  A    between atoms: C_11  and  C_18
    5  A    between atoms: C_11  and  N_26
    6  A    between atoms: C_16  and  C_30
    7  A    between atoms: C_19  and  C_35
    8  A    between atoms: C_24  and  C_30
    9  A    between atoms: C_28  and  C_37
   10  A    between atoms: C_28  and  O_42
   11  A    between atoms: C_39  and  O_42
                            x       y       z     vdW  Elec       q    Type
                         _______ _______ _______ _____ _____    ______ ____

>  <TORSDO>
F 11

$$$$
=
 OpenBabel11062418483D

 43 47  0  0  1  0  0  0  0  0999 V2000
  187.6420  173.0960  141.7760 C   0  0  0  0  0  1  0  0  0  0  0  0
  190.1190  174.4960  143.9870 C   0  0  2  0  0  3  0  0  0  0  0  0
  188.7200  174.1450  141.9970 C   0  0  1  0  0  3  0  0  0  0  0  0
  188.2160  175.2690  142.8500 C   0  0  0  0  0  0  0  0  0  0  0  0
  189.8490  173.5310  142.8280 C   0  0  1  0  0  3  0  0  0  0  0  0
  188.9840  175.4670  143.9180 C   0  0  0  0  0  0  0  0  0  0  0  0
  191.0690  171.5210  141.8820 C   0  0  0  0  0  0  0  0  0  0  0  0
  193.0240  171.7570  140.3470 C   0  0  0  0  0  2  0  0  0  0  0  0
  192.0210  170.9280  140.9980 N   0  0  0  0  0  2  0  0  0  0  0  0
  190.2350  170.7950  142.4840 O   0  0  0  0  0  0  0  0  0  0  0  0
  191.0840  173.0170  142.0650 C   0  0  1  0  0  3  0  0  0  0  0  0
  192.8280  173.6050  138.8970 O   0  0  0  0  0  0  0  0  0  0  0  0
  192.4270  173.0700  139.9150 C   0  0  0  0  0  0  0  0  0  0  0  0
  191.3530  173.7390  140.7320 C   0  0  0  0  0  2  0  0  0  0  0  0
  187.0590  176.1110  142.4730 C   0  0  0  0  0  0  0  0  0  0  0  0
  185.9910  177.8250  140.9640 C   0  0  0  0  0  1  0  0  0  0  0  0
  186.0090  176.0580  143.1710 O   0  0  0  0  0  0  0  0  0  0  0  0
  187.1020  176.9440  141.3080 N   0  0  0  0  0  2  0  0  0  0  0  0
  192.2460  175.3500  144.9320 C   0  0  0  0  0  0  0  0  0  0  0  0
  191.9660  174.8880  146.3370 C   0  0  0  0  0  1  0  0  0  0  0  0
  191.4370  175.1240  143.9440 N   0  0  0  0  0  0  0  0  0  0  0  0
  193.5420  176.0400  144.6220 C   0  0  2  0  0  3  0  0  0  0  0  0
  193.5710  176.4180  143.2790 O   0  0  0  0  0  1  0  0  0  0  0  0
  195.7920  175.2810  143.8580 C   0  0  1  0  0  3  0  0  0  0  0  0
  194.7250  175.1320  144.9320 C   0  0  2  0  0  3  0  0  0  0  0  0
  195.6750  172.8940  144.2890 N   0  0  0  0  0  0  0  0  0  0  0  0
  197.1320  174.7940  144.3630 C   0  0  0  0  0  2  0  0  0  0  0  0
  194.8880  174.0640  143.8450 C   0  0  2  0  0  3  0  0  0  0  0  0
  196.9100  173.3950  144.8870 C   0  0  0  0  0  2  0  0  0  0  0  0
  194.9130  172.0970  145.2770 C   0  0  1  0  0  3  0  0  0  0  0  0
  193.4910  171.8310  144.7930 C   0  0  0  0  0  1  0  0  0  0  0  0
  195.5490  168.9360  143.9870 C   0  0  1  0  0  3  0  0  0  0  0  0
  194.3990  168.2950  145.2430 S   0  0  0  0  0  0  0  0  0  0  0  0
  194.6620  169.7230  146.3160 C   0  0  0  0  0  2  0  0  0  0  0  0
  195.5470  170.7280  145.5970 C   0  0  1  0  0  3  0  0  0  0  0  0
  194.8320  169.1740  142.6720 C   0  0  0  0  0  1  0  0  0  0  0  0
  196.2200  170.1560  144.4340 N   0  0  0  0  0  2  0  0  0  0  0  0
  188.7490  176.4720  144.8640 O   0  0  0  0  0  0  0  0  0  0  0  0
  188.0870  176.2140  146.0950 C   0  0  0  0  0  2  0  0  0  0  0  0
  187.8050  177.5270  146.8020 C   0  0  0  0  0  2  0  0  0  0  0  0
  186.3950  178.0190  146.4850 C   0  0  2  0  0  3  0  0  0  0  0  0
  185.9790  178.9710  147.4280 O   0  0  0  0  0  1  0  0  0  0  0  0
  185.4350  176.8480  146.4930 C   0  0  0  0  0  1  0  0  0  0  0  0
  2 21  1  6  0  0  0
  3  1  1  1  0  0  0
  3  5  1  0  0  0  0
  3  4  1  0  0  0  0
  4  6  2  0  0  0  0
  5 11  1  6  0  0  0
  5  2  1  0  0  0  0
  6  2  1  0  0  0  0
  6 38  1  0  0  0  0
  7 11  1  0  0  0  0
  7 10  2  0  0  0  0
  8  9  1  0  0  0  0
  9  7  1  0  0  0  0
 11 14  1  6  0  0  0
 12 13  2  0  0  0  0
 13  8  1  0  0  0  0
 13 14  1  0  0  0  0
 15  4  1  0  0  0  0
 15 17  2  0  0  0  0
 16 18  1  0  0  0  0
 18 15  1  0  0  0  0
 19 20  1  0  0  0  0
 21 19  2  0  0  0  0
 22 23  1  6  0  0  0
 22 19  1  0  0  0  0
 24 27  1  1  0  0  0
 24 25  1  0  0  0  0
 25 22  1  6  0  0  0
 26 29  1  0  0  0  0
 26 30  1  0  0  0  0
 27 29  1  0  0  0  0
 28 24  1  0  0  0  0
 28 26  1  1  0  0  0
 28 25  1  0  0  0  0
 30 31  1  6  0  0  0
 32 36  1  6  0  0  0
 32 37  1  0  0  0  0
 32 33  1  0  0  0  0
 33 34  1  0  0  0  0
 35 30  1  6  0  0  0
 35 34  1  0  0  0  0
 37 35  1  0  0  0  0
 38 39  1  0  0  0  0
 39 40  1  0  0  0  0
 41 43  1  1  0  0  0
 41 40  1  0  0  0  0
 41 42  1  0  0  0  0
M  END
>  <MODEL>
4

>  <REMARK>
 VINA RESULT:      -6.6      2.492      3.408
  Name = 
  11 active torsions:
  status: ('A' for Active; 'I' for Inactive)
    1  A    between atoms: C_7  and  N_23
    2  A    between atoms: C_8  and  C_37
    3  A    between atoms: C_9  and  C_32
    4  A    between atoms: C_11  and  C_18
    5  A    between atoms: C_11  and  N_26
    6  A    between atoms: C_16  and  C_30
    7  A    between atoms: C_19  and  C_35
    8  A    between atoms: C_24  and  C_30
    9  A    between atoms: C_28  and  C_37
   10  A    between atoms: C_28  and  O_42
   11  A    between atoms: C_39  and  O_42
                            x       y       z     vdW  Elec       q    Type
                         _______ _______ _______ _____ _____    ______ ____

>  <TORSDO>
F 11

$$$$
=
 OpenBabel11062418483D

 43 47  0  0  1  0  0  0  0  0999 V2000
  193.9850  172.9180  145.2780 C   0  0  0  0  0  1  0  0  0  0  0  0
  191.7620  174.3990  142.8610 C   0  0  2  0  0  3  0  0  0  0  0  0
  193.5400  174.1710  144.5410 C   0  0  1  0  0  3  0  0  0  0  0  0
  194.0830  174.2010  143.1450 C   0  0  0  0  0  0  0  0  0  0  0  0
  192.0240  174.1210  144.3440 C   0  0  1  0  0  3  0  0  0  0  0  0
  193.1200  174.3400  142.2390 C   0  0  0  0  0  0  0  0  0  0  0  0
  190.0390  174.0670  145.9200 C   0  0  0  0  0  0  0  0  0  0  0  0
  189.5880  175.9050  147.5480 C   0  0  0  0  0  2  0  0  0  0  0  0
  189.3010  174.5760  147.0310 N   0  0  0  0  0  2  0  0  0  0  0  0
  189.7540  172.9380  145.4420 O   0  0  0  0  0  0  0  0  0  0  0  0
  191.1570  174.9020  145.3500 C   0  0  1  0  0  3  0  0  0  0  0  0
  191.5610  176.8520  148.4250 O   0  0  0  0  0  0  0  0  0  0  0  0
  191.0710  176.1650  147.5470 C   0  0  0  0  0  0  0  0  0  0  0  0
  191.9560  175.6010  146.4660 C   0  0  0  0  0  2  0  0  0  0  0  0
  195.5320  174.1800  142.8420 C   0  0  0  0  0  0  0  0  0  0  0  0
  197.6640  175.3800  142.2370 C   0  0  0  0  0  1  0  0  0  0  0  0
  196.1420  173.0760  142.8400 O   0  0  0  0  0  0  0  0  0  0  0  0
  196.2510  175.3960  142.5990 N   0  0  0  0  0  2  0  0  0  0  0  0
  189.7800  175.8190  142.4090 C   0  0  0  0  0  0  0  0  0  0  0  0
  188.7820  174.6960  142.5070 C   0  0  0  0  0  1  0  0  0  0  0  0
  191.0500  175.6500  142.6070 N   0  0  0  0  0  0  0  0  0  0  0  0
  189.3000  177.2150  142.1430 C   0  0  2  0  0  3  0  0  0  0  0  0
  189.8900  178.1020  143.0440 O   0  0  0  0  0  1  0  0  0  0  0  0
  187.1730  177.5490  140.8830 C   0  0  1  0  0  3  0  0  0  0  0  0
  187.7830  177.2960  142.2530 C   0  0  2  0  0  3  0  0  0  0  0  0
  185.9350  178.9960  142.3880 N   0  0  0  0  0  0  0  0  0  0  0  0
  185.7120  177.1600  140.8660 C   0  0  0  0  0  2  0  0  0  0  0  0
  187.2850  178.6940  141.8700 C   0  0  2  0  0  3  0  0  0  0  0  0
  185.0630  177.8820  142.0240 C   0  0  0  0  0  2  0  0  0  0  0  0
  185.9660  179.1630  143.8590 C   0  0  1  0  0  3  0  0  0  0  0  0
  185.3960  180.5160  144.2730 C   0  0  0  0  0  1  0  0  0  0  0  0
  184.8810  178.2050  147.0150 C   0  0  1  0  0  3  0  0  0  0  0  0
  185.9910  176.7720  146.8590 S   0  0  0  0  0  0  0  0  0  0  0  0
  185.9560  176.8510  145.0550 C   0  0  0  0  0  2  0  0  0  0  0  0
  185.1780  178.0830  144.6270 C   0  0  1  0  0  3  0  0  0  0  0  0
  185.5670  179.3400  147.7500 C   0  0  0  0  0  1  0  0  0  0  0  0
  184.3890  178.6570  145.7150 N   0  0  0  0  0  2  0  0  0  0  0  0
  193.3590  174.4220  140.8610 O   0  0  0  0  0  0  0  0  0  0  0  0
  192.6250  173.6530  139.9180 C   0  0  0  0  0  2  0  0  0  0  0  0
  192.8870  172.1770  140.1560 C   0  0  0  0  0  2  0  0  0  0  0  0
  191.5760  171.3970  140.2000 C   0  0  2  0  0  3  0  0  0  0  0  0
  191.5390  170.4330  139.1810 O   0  0  0  0  0  1  0  0  0  0  0  0
  190.4120  172.3510  140.0350 C   0  0  0  0  0  1  0  0  0  0  0  0
  2 21  1  1  0  0  0
  2  5  1  0  0  0  0
  3  1  1  6  0  0  0
  4  3  1  0  0  0  0
  5  3  1  0  0  0  0
  5 11  1  1  0  0  0
  6  2  1  0  0  0  0
  6  4  2  0  0  0  0
  7  9  1  0  0  0  0
  9  8  1  0  0  0  0
 10  7  2  0  0  0  0
 11  7  1  0  0  0  0
 11 14  1  1  0  0  0
 13  8  1  0  0  0  0
 13 12  2  0  0  0  0
 14 13  1  0  0  0  0
 15  4  1  0  0  0  0
 16 18  1  0  0  0  0
 17 15  2  0  0  0  0
 18 15  1  0  0  0  0
 19 20  1  0  0  0  0
 19 21  2  0  0  0  0
 22 19  1  0  0  0  0
 22 23  1  1  0  0  0
 24 27  1  1  0  0  0
 24 28  1  0  0  0  0
 24 25  1  0  0  0  0
 25 22  1  6  0  0  0
 26 30  1  0  0  0  0
 27 29  1  0  0  0  0
 28 25  1  0  0  0  0
 28 26  1  1  0  0  0
 29 26  1  0  0  0  0
 30 31  1  6  0  0  0
 32 36  1  6  0  0  0
 33 32  1  0  0  0  0
 34 33  1  0  0  0  0
 35 30  1  1  0  0  0
 35 34  1  0  0  0  0
 35 37  1  0  0  0  0
 37 32  1  0  0  0  0
 38  6  1  0  0  0  0
 39 40  1  0  0  0  0
 39 38  1  0  0  0  0
 40 41  1  0  0  0  0
 41 43  1  6  0  0  0
 42 41  1  0  0  0  0
M  END
>  <MODEL>
5

>  <REMARK>
 VINA RESULT:      -6.5      2.956      8.625
  Name = 
  11 active torsions:
  status: ('A' for Active; 'I' for Inactive)
    1  A    between atoms: C_7  and  N_23
    2  A    between atoms: C_8  and  C_37
    3  A    between atoms: C_9  and  C_32
    4  A    between atoms: C_11  and  C_18
    5  A    between atoms: C_11  and  N_26
    6  A    between atoms: C_16  and  C_30
    7  A    between atoms: C_19  and  C_35
    8  A    between atoms: C_24  and  C_30
    9  A    between atoms: C_28  and  C_37
   10  A    between atoms: C_28  and  O_42
   11  A    between atoms: C_39  and  O_42
                            x       y       z     vdW  Elec       q    Type
                         _______ _______ _______ _____ _____    ______ ____

>  <TORSDO>
F 11

$$$$
=
 OpenBabel11062418483D

 43 47  0  0  1  0  0  0  0  0999 V2000
  194.6420  171.7020  140.5480 C   0  0  0  0  0  1  0  0  0  0  0  0
  192.8150  172.6900  143.4920 C   0  0  2  0  0  3  0  0  0  0  0  0
  193.6600  172.6720  141.1840 C   0  0  1  0  0  3  0  0  0  0  0  0
  192.2920  172.0700  141.2900 C   0  0  0  0  0  0  0  0  0  0  0  0
  194.0690  172.9110  142.6390 C   0  0  1  0  0  3  0  0  0  0  0  0
  191.8310  172.0950  142.5370 C   0  0  0  0  0  0  0  0  0  0  0  0
  196.2350  173.8720  143.5380 C   0  0  0  0  0  0  0  0  0  0  0  0
  196.8330  176.2800  143.2620 C   0  0  0  0  0  2  0  0  0  0  0  0
  197.1920  174.9250  143.6530 N   0  0  0  0  0  2  0  0  0  0  0  0
  196.5320  172.7110  143.9240 O   0  0  0  0  0  0  0  0  0  0  0  0
  194.8860  174.1810  142.9420 C   0  0  1  0  0  3  0  0  0  0  0  0
  196.0950  177.1750  141.2100 O   0  0  0  0  0  0  0  0  0  0  0  0
  195.9910  176.2670  142.0150 C   0  0  0  0  0  0  0  0  0  0  0  0
  195.0100  175.1530  141.7540 C   0  0  0  0  0  2  0  0  0  0  0  0
  191.5240  171.6040  140.1140 C   0  0  0  0  0  0  0  0  0  0  0  0
  190.3990  172.0620  137.9050 C   0  0  0  0  0  1  0  0  0  0  0  0
  191.1790  170.3920  140.0470 O   0  0  0  0  0  0  0  0  0  0  0  0
  191.2100  172.4970  139.0370 N   0  0  0  0  0  2  0  0  0  0  0  0
  192.6520  174.3350  145.3400 C   0  0  0  0  0  0  0  0  0  0  0  0
  193.6990  173.6780  146.2000 C   0  0  0  0  0  1  0  0  0  0  0  0
  192.3320  173.8950  144.1640 N   0  0  0  0  0  0  0  0  0  0  0  0
  191.9890  175.5950  145.8120 C   0  0  2  0  0  3  0  0  0  0  0  0
  191.3730  175.3760  147.0460 O   0  0  0  0  0  1  0  0  0  0  0  0
  191.3550  177.4510  144.2710 C   0  0  1  0  0  3  0  0  0  0  0  0
  190.9620  176.0800  144.7970 C   0  0  2  0  0  3  0  0  0  0  0  0
  188.9590  177.5910  144.6340 N   0  0  0  0  0  0  0  0  0  0  0  0
  190.6630  177.7390  142.9570 C   0  0  0  0  0  2  0  0  0  0  0  0
  190.2510  177.3390  145.3040 C   0  0  2  0  0  3  0  0  0  0  0  0
  189.1880  177.5180  143.1930 C   0  0  0  0  0  2  0  0  0  0  0  0
  187.9540  176.5840  145.0450 C   0  0  1  0  0  3  0  0  0  0  0  0
  188.1600  176.1580  146.4950 C   0  0  0  0  0  1  0  0  0  0  0  0
  185.4680  177.4100  142.7640 C   0  0  1  0  0  3  0  0  0  0  0  0
  185.6050  179.1180  143.3770 S   0  0  0  0  0  0  0  0  0  0  0  0
  186.2740  178.5720  144.9620 C   0  0  0  0  0  2  0  0  0  0  0  0
  186.4950  177.0690  144.9170 C   0  0  1  0  0  3  0  0  0  0  0  0
  186.3330  177.2080  141.5350 C   0  0  0  0  0  1  0  0  0  0  0  0
  185.8070  176.4320  143.7970 N   0  0  0  0  0  2  0  0  0  0  0  0
  190.5670  171.6170  142.9050 O   0  0  0  0  0  0  0  0  0  0  0  0
  189.5320  172.4810  143.3530 C   0  0  0  0  0  2  0  0  0  0  0  0
  189.4870  173.7160  142.4710 C   0  0  0  0  0  2  0  0  0  0  0  0
  188.1320  173.8360  141.7790 C   0  0  2  0  0  3  0  0  0  0  0  0
  187.3650  172.6800  141.9880 O   0  0  0  0  0  1  0  0  0  0  0  0
  188.3380  174.0430  140.2930 C   0  0  0  0  0  1  0  0  0  0  0  0
  2 21  1  6  0  0  0
  3  1  1  1  0  0  0
  3  4  1  0  0  0  0
  3  5  1  0  0  0  0
  4  6  2  0  0  0  0
  5 11  1  6  0  0  0
  5  2  1  0  0  0  0
  6 38  1  0  0  0  0
  6  2  1  0  0  0  0
  7  9  1  0  0  0  0
  7 10  2  0  0  0  0
  8  9  1  0  0  0  0
 11 14  1  6  0  0  0
 11  7  1  0  0  0  0
 12 13  2  0  0  0  0
 13  8  1  0  0  0  0
 14 13  1  0  0  0  0
 15  4  1  0  0  0  0
 16 18  1  0  0  0  0
 17 15  2  0  0  0  0
 18 15  1  0  0  0  0
 19 22  1  0  0  0  0
 19 20  1  0  0  0  0
 21 19  2  0  0  0  0
 22 23  1  1  0  0  0
 24 27  1  6  0  0  0
 24 25  1  0  0  0  0
 24 28  1  0  0  0  0
 25 28  1  0  0  0  0
 25 22  1  1  0  0  0
 26 30  1  0  0  0  0
 27 29  1  0  0  0  0
 28 26  1  6  0  0  0
 29 26  1  0  0  0  0
 30 31  1  1  0  0  0
 32 36  1  6  0  0  0
 32 33  1  0  0  0  0
 32 37  1  0  0  0  0
 33 34  1  0  0  0  0
 35 34  1  0  0  0  0
 35 30  1  6  0  0  0
 37 35  1  0  0  0  0
 38 39  1  0  0  0  0
 40 39  1  0  0  0  0
 41 43  1  6  0  0  0
 41 42  1  0  0  0  0
 41 40  1  0  0  0  0
M  END
>  <MODEL>
6

>  <REMARK>
 VINA RESULT:      -6.4      3.029      6.759
  Name = 
  11 active torsions:
  status: ('A' for Active; 'I' for Inactive)
    1  A    between atoms: C_7  and  N_23
    2  A    between atoms: C_8  and  C_37
    3  A    between atoms: C_9  and  C_32
    4  A    between atoms: C_11  and  C_18
    5  A    between atoms: C_11  and  N_26
    6  A    between atoms: C_16  and  C_30
    7  A    between atoms: C_19  and  C_35
    8  A    between atoms: C_24  and  C_30
    9  A    between atoms: C_28  and  C_37
   10  A    between atoms: C_28  and  O_42
   11  A    between atoms: C_39  and  O_42
                            x       y       z     vdW  Elec       q    Type
                         _______ _______ _______ _____ _____    ______ ____

>  <TORSDO>
F 11

$$$$
=
 OpenBabel11062418483D

 43 47  0  0  1  0  0  0  0  0999 V2000
  187.8660  174.0790  142.0300 C   0  0  0  0  0  1  0  0  0  0  0  0
  191.3160  174.8700  142.7030 C   0  0  2  0  0  3  0  0  0  0  0  0
  189.1190  174.8270  141.6030 C   0  0  1  0  0  3  0  0  0  0  0  0
  189.3160  176.0660  142.4200 C   0  0  0  0  0  0  0  0  0  0  0  0
  190.3450  173.9720  141.9310 C   0  0  1  0  0  3  0  0  0  0  0  0
  190.5120  176.0950  143.0020 C   0  0  0  0  0  0  0  0  0  0  0  0
  190.6150  171.6730  140.8990 C   0  0  0  0  0  0  0  0  0  0  0  0
  191.5720  171.3480  138.6160 C   0  0  0  0  0  2  0  0  0  0  0  0
  190.9040  170.8160  139.7940 N   0  0  0  0  0  2  0  0  0  0  0  0
  190.0840  171.1990  141.9370 O   0  0  0  0  0  0  0  0  0  0  0  0
  190.9490  173.1380  140.7860 C   0  0  1  0  0  3  0  0  0  0  0  0
  190.9760  173.0730  137.1220 O   0  0  0  0  0  0  0  0  0  0  0  0
  191.0510  172.7210  138.2860 C   0  0  0  0  0  0  0  0  0  0  0  0
  190.6360  173.6750  139.3770 C   0  0  0  0  0  2  0  0  0  0  0  0
  188.3240  177.1630  142.4740 C   0  0  0  0  0  0  0  0  0  0  0  0
  186.2920  178.2340  143.5130 C   0  0  0  0  0  1  0  0  0  0  0  0
  188.4000  178.1020  141.6350 O   0  0  0  0  0  0  0  0  0  0  0  0
  187.3130  177.1920  143.4900 N   0  0  0  0  0  2  0  0  0  0  0  0
  193.7760  175.0560  142.4530 C   0  0  0  0  0  0  0  0  0  0  0  0
  194.0920  174.5450  143.8330 C   0  0  0  0  0  1  0  0  0  0  0  0
  192.5660  175.1420  141.9960 N   0  0  0  0  0  0  0  0  0  0  0  0
  194.8950  175.4180  141.5220 C   0  0  2  0  0  3  0  0  0  0  0  0
  194.8880  176.7930  141.2800 O   0  0  0  0  0  1  0  0  0  0  0  0
  195.3110  173.2460  140.3690 C   0  0  1  0  0  3  0  0  0  0  0  0
  194.7730  174.6590  140.2070 C   0  0  2  0  0  3  0  0  0  0  0  0
  196.1570  173.9880  138.2180 N   0  0  0  0  0  0  0  0  0  0  0  0
  194.7780  172.3410  139.2800 C   0  0  0  0  0  2  0  0  0  0  0  0
  196.1570  174.2880  139.6650 C   0  0  2  0  0  3  0  0  0  0  0  0
  195.0890  173.0230  137.9680 C   0  0  0  0  0  2  0  0  0  0  0  0
  195.9290  175.2200  137.4300 C   0  0  1  0  0  3  0  0  0  0  0  0
  197.1960  175.6490  136.6960 C   0  0  0  0  0  1  0  0  0  0  0  0
  194.5420  176.7220  134.6230 C   0  0  1  0  0  3  0  0  0  0  0  0
  193.0570  177.0180  135.6310 S   0  0  0  0  0  0  0  0  0  0  0  0
  193.4540  175.6560  136.7460 C   0  0  0  0  0  2  0  0  0  0  0  0
  194.8140  175.0880  136.3730 C   0  0  1  0  0  3  0  0  0  0  0  0
  195.4570  177.9320  134.6440 C   0  0  0  0  0  1  0  0  0  0  0  0
  195.2630  175.5250  135.0530 N   0  0  0  0  0  2  0  0  0  0  0  0
  190.9590  177.1550  143.8010 O   0  0  0  0  0  0  0  0  0  0  0  0
  191.4830  176.9510  145.1050 C   0  0  0  0  0  2  0  0  0  0  0  0
  190.3390  176.7960  146.0910 C   0  0  0  0  0  2  0  0  0  0  0  0
  190.8150  176.1000  147.3640 C   0  0  2  0  0  3  0  0  0  0  0  0
  191.3220  177.0350  148.2790 O   0  0  0  0  0  1  0  0  0  0  0  0
  191.8940  175.0950  147.0200 C   0  0  0  0  0  1  0  0  0  0  0  0
  2 21  1  6  0  0  0
  2  6  1  0  0  0  0
  3  5  1  0  0  0  0
  3  1  1  1  0  0  0
  3  4  1  0  0  0  0
  4 15  1  0  0  0  0
  4  6  2  0  0  0  0
  5 11  1  6  0  0  0
  5  2  1  0  0  0  0
  6 38  1  0  0  0  0
  7 10  2  0  0  0  0
  8  9  1  0  0  0  0
  9  7  1  0  0  0  0
 11 14  1  6  0  0  0
 11  7  1  0  0  0  0
 12 13  2  0  0  0  0
 13  8  1  0  0  0  0
 13 14  1  0  0  0  0
 15 18  1  0  0  0  0
 17 15  2  0  0  0  0
 18 16  1  0  0  0  0
 19 20  1  0  0  0  0
 21 19  2  0  0  0  0
 22 23  1  6  0  0  0
 22 19  1  0  0  0  0
 24 27  1  6  0  0  0
 25 24  1  0  0  0  0
 25 22  1  1  0  0  0
 28 26  1  6  0  0  0
 28 25  1  0  0  0  0
 28 24  1  0  0  0  0
 29 26  1  0  0  0  0
 29 27  1  0  0  0  0
 30 31  1  6  0  0  0
 30 26  1  0  0  0  0
 32 36  1  1  0  0  0
 32 37  1  0  0  0  0
 32 33  1  0  0  0  0
 33 34  1  0  0  0  0
 35 34  1  0  0  0  0
 35 30  1  1  0  0  0
 37 35  1  0  0  0  0
 38 39  1  0  0  0  0
 39 40  1  0  0  0  0
 40 41  1  0  0  0  0
 41 43  1  6  0  0  0
 41 42  1  0  0  0  0
M  END
>  <MODEL>
7

>  <REMARK>
 VINA RESULT:      -6.3      2.984      4.776
  Name = 
  11 active torsions:
  status: ('A' for Active; 'I' for Inactive)
    1  A    between atoms: C_7  and  N_23
    2  A    between atoms: C_8  and  C_37
    3  A    between atoms: C_9  and  C_32
    4  A    between atoms: C_11  and  C_18
    5  A    between atoms: C_11  and  N_26
    6  A    between atoms: C_16  and  C_30
    7  A    between atoms: C_19  and  C_35
    8  A    between atoms: C_24  and  C_30
    9  A    between atoms: C_28  and  C_37
   10  A    between atoms: C_28  and  O_42
   11  A    between atoms: C_39  and  O_42
                            x       y       z     vdW  Elec       q    Type
                         _______ _______ _______ _____ _____    ______ ____

>  <TORSDO>
F 11

$$$$
=
 OpenBabel11062418483D

 43 47  0  0  1  0  0  0  0  0999 V2000
  195.7610  170.3100  142.1780 C   0  0  0  0  0  1  0  0  0  0  0  0
  193.5790  172.9280  143.3490 C   0  0  2  0  0  3  0  0  0  0  0  0
  194.5940  170.7070  143.0680 C   0  0  1  0  0  3  0  0  0  0  0  0
  195.0690  171.3910  144.3130 C   0  0  0  0  0  0  0  0  0  0  0  0
  193.7650  171.7770  142.3540 C   0  0  1  0  0  3  0  0  0  0  0  0
  194.5070  172.5860  144.4710 C   0  0  0  0  0  0  0  0  0  0  0  0
  192.5820  171.5600  140.1240 C   0  0  0  0  0  0  0  0  0  0  0  0
  190.5030  170.2050  139.8520 C   0  0  0  0  0  2  0  0  0  0  0  0
  191.5960  170.9720  139.2750 N   0  0  0  0  0  2  0  0  0  0  0  0
  193.4970  172.2660  139.6260 O   0  0  0  0  0  0  0  0  0  0  0  0
  192.5030  171.3090  141.6080 C   0  0  1  0  0  3  0  0  0  0  0  0
  190.4870  168.2750  141.2070 O   0  0  0  0  0  0  0  0  0  0  0  0
  190.9930  169.3630  141.0000 C   0  0  0  0  0  0  0  0  0  0  0  0
  192.0920  169.8550  141.9060 C   0  0  0  0  0  2  0  0  0  0  0  0
  195.9780  170.7500  145.2890 C   0  0  0  0  0  0  0  0  0  0  0  0
  196.5980  168.7940  146.7530 C   0  0  0  0  0  1  0  0  0  0  0  0
  196.9940  171.3820  145.6890 O   0  0  0  0  0  0  0  0  0  0  0  0
  195.7440  169.4110  145.7440 N   0  0  0  0  0  2  0  0  0  0  0  0
  191.4630  174.1920  143.6150 C   0  0  0  0  0  0  0  0  0  0  0  0
  191.9320  175.4040  142.8550 C   0  0  0  0  0  1  0  0  0  0  0  0
  192.1950  173.1330  143.7690 N   0  0  0  0  0  0  0  0  0  0  0  0
  190.0680  174.1560  144.1650 C   0  0  2  0  0  3  0  0  0  0  0  0
  189.1540  173.9430  143.1310 O   0  0  0  0  0  1  0  0  0  0  0  0
  190.4260  175.4840  146.2460 C   0  0  1  0  0  3  0  0  0  0  0  0
  189.7380  175.4540  144.8900 C   0  0  2  0  0  3  0  0  0  0  0  0
  188.1970  176.3480  146.6640 N   0  0  0  0  0  0  0  0  0  0  0  0
  190.5250  176.9010  146.7650 C   0  0  0  0  0  2  0  0  0  0  0  0
  188.9440  175.1730  146.1710 C   0  0  2  0  0  3  0  0  0  0  0  0
  189.1280  177.4730  146.7190 C   0  0  0  0  0  2  0  0  0  0  0  0
  187.0650  176.6630  145.7630 C   0  0  1  0  0  3  0  0  0  0  0  0
  185.7820  176.9070  146.5510 C   0  0  0  0  0  1  0  0  0  0  0  0
  185.4860  178.9600  143.6920 C   0  0  1  0  0  3  0  0  0  0  0  0
  186.4490  178.2470  142.3230 S   0  0  0  0  0  0  0  0  0  0  0  0
  187.7300  177.6430  143.4440 C   0  0  0  0  0  2  0  0  0  0  0  0
  187.2980  177.9040  144.8780 C   0  0  1  0  0  3  0  0  0  0  0  0
  184.1170  178.3120  143.7820 C   0  0  0  0  0  1  0  0  0  0  0  0
  186.1900  178.8520  144.9690 N   0  0  0  0  0  2  0  0  0  0  0  0
  194.7590  173.4220  145.5660 O   0  0  0  0  0  0  0  0  0  0  0  0
  195.1040  174.7920  145.4090 C   0  0  0  0  0  2  0  0  0  0  0  0
  196.5140  174.8980  144.8570 C   0  0  0  0  0  2  0  0  0  0  0  0
  196.5170  175.6390  143.5230 C   0  0  2  0  0  3  0  0  0  0  0  0
  195.3520  176.4090  143.3810 O   0  0  0  0  0  1  0  0  0  0  0  0
  196.6010  174.6390  142.3880 C   0  0  0  0  0  1  0  0  0  0  0  0
  2 21  1  1  0  0  0
  2  6  1  0  0  0  0
  3  1  1  6  0  0  0
  3  4  1  0  0  0  0
  4  6  2  0  0  0  0
  4 15  1  0  0  0  0
  5 11  1  1  0  0  0
  5  3  1  0  0  0  0
  5  2  1  0  0  0  0
  6 38  1  0  0  0  0
  7 11  1  0  0  0  0
  8 13  1  0  0  0  0
  9  8  1  0  0  0  0
  9  7  1  0  0  0  0
 10  7  2  0  0  0  0
 11 14  1  6  0  0  0
 13 12  2  0  0  0  0
 13 14  1  0  0  0  0
 15 17  2  0  0  0  0
 15 18  1  0  0  0  0
 18 16  1  0  0  0  0
 19 21  2  0  0  0  0
 19 22  1  0  0  0  0
 20 19  1  0  0  0  0
 22 23  1  6  0  0  0
 24 27  1  1  0  0  0
 25 22  1  6  0  0  0
 25 28  1  0  0  0  0
 25 24  1  0  0  0  0
 26 29  1  0  0  0  0
 28 24  1  0  0  0  0
 28 26  1  1  0  0  0
 29 27  1  0  0  0  0
 30 31  1  1  0  0  0
 30 26  1  0  0  0  0
 32 36  1  1  0  0  0
 32 37  1  0  0  0  0
 33 34  1  0  0  0  0
 33 32  1  0  0  0  0
 34 35  1  0  0  0  0
 35 37  1  0  0  0  0
 35 30  1  6  0  0  0
 39 38  1  0  0  0  0
 40 39  1  0  0  0  0
 41 43  1  6  0  0  0
 41 40  1  0  0  0  0
 42 41  1  0  0  0  0
M  END
>  <MODEL>
8

>  <REMARK>
 VINA RESULT:      -6.3      3.219      8.194
  Name = 
  11 active torsions:
  status: ('A' for Active; 'I' for Inactive)
    1  A    between atoms: C_7  and  N_23
    2  A    between atoms: C_8  and  C_37
    3  A    between atoms: C_9  and  C_32
    4  A    between atoms: C_11  and  C_18
    5  A    between atoms: C_11  and  N_26
    6  A    between atoms: C_16  and  C_30
    7  A    between atoms: C_19  and  C_35
    8  A    between atoms: C_24  and  C_30
    9  A    between atoms: C_28  and  C_37
   10  A    between atoms: C_28  and  O_42
   11  A    between atoms: C_39  and  O_42
                            x       y       z     vdW  Elec       q    Type
                         _______ _______ _______ _____ _____    ______ ____

>  <TORSDO>
F 11

$$$$
=
 OpenBabel11062418483D

 43 47  0  0  1  0  0  0  0  0999 V2000
  192.0770  176.2070  147.4560 C   0  0  0  0  0  1  0  0  0  0  0  0
  191.7680  175.6620  143.9080 C   0  0  2  0  0  3  0  0  0  0  0  0
  191.6520  175.2760  146.3330 C   0  0  1  0  0  3  0  0  0  0  0  0
  190.3280  175.6830  145.7620 C   0  0  0  0  0  0  0  0  0  0  0  0
  192.6220  175.4350  145.1600 C   0  0  1  0  0  3  0  0  0  0  0  0
  190.3900  175.8760  144.4470 C   0  0  0  0  0  0  0  0  0  0  0  0
  195.0820  174.9340  145.5080 C   0  0  0  0  0  0  0  0  0  0  0  0
  196.0030  172.6210  145.3240 C   0  0  0  0  0  2  0  0  0  0  0  0
  196.1690  174.0230  145.6730 N   0  0  0  0  0  2  0  0  0  0  0  0
  195.2440  176.1560  145.7610 O   0  0  0  0  0  0  0  0  0  0  0  0
  193.7540  174.3990  145.0370 C   0  0  1  0  0  3  0  0  0  0  0  0
  194.5070  170.9770  146.1110 O   0  0  0  0  0  0  0  0  0  0  0  0
  194.6420  172.1290  145.7380 C   0  0  0  0  0  0  0  0  0  0  0  0
  193.4410  173.0370  145.6840 C   0  0  0  0  0  2  0  0  0  0  0  0
  189.0900  175.7550  146.5690 C   0  0  0  0  0  0  0  0  0  0  0  0
  186.9890  176.9630  147.2620 C   0  0  0  0  0  1  0  0  0  0  0  0
  188.8200  174.8120  147.3630 O   0  0  0  0  0  0  0  0  0  0  0  0
  188.1790  176.8520  146.4250 N   0  0  0  0  0  2  0  0  0  0  0  0
  192.5500  174.5590  141.8300 C   0  0  0  0  0  0  0  0  0  0  0  0
  193.4930  175.6640  141.4360 C   0  0  0  0  0  1  0  0  0  0  0  0
  191.8570  174.5840  142.9250 N   0  0  0  0  0  0  0  0  0  0  0  0
  192.4470  173.3320  140.9730 C   0  0  2  0  0  3  0  0  0  0  0  0
  193.5940  173.2010  140.1880 O   0  0  0  0  0  1  0  0  0  0  0  0
  189.9630  173.5500  140.9340 C   0  0  1  0  0  3  0  0  0  0  0  0
  191.2130  173.3960  140.0830 C   0  0  2  0  0  3  0  0  0  0  0  0
  189.3560  171.9300  139.2310 N   0  0  0  0  0  0  0  0  0  0  0  0
  188.8160  174.0920  140.1100 C   0  0  0  0  0  2  0  0  0  0  0  0
  190.2960  172.1960  140.3400 C   0  0  2  0  0  3  0  0  0  0  0  0
  188.6910  173.1890  138.9050 C   0  0  0  0  0  2  0  0  0  0  0  0
  190.0800  171.4110  138.0480 C   0  0  1  0  0  3  0  0  0  0  0  0
  189.6930  169.9650  137.7530 C   0  0  0  0  0  1  0  0  0  0  0  0
  190.4630  171.3650  134.5960 C   0  0  1  0  0  3  0  0  0  0  0  0
  191.6370  172.7400  134.8030 S   0  0  0  0  0  0  0  0  0  0  0  0
  190.8960  173.2310  136.3740 C   0  0  0  0  0  2  0  0  0  0  0  0
  189.8290  172.2200  136.7590 C   0  0  1  0  0  3  0  0  0  0  0  0
  191.1920  170.0360  134.5540 C   0  0  0  0  0  1  0  0  0  0  0  0
  189.4430  171.3580  135.6440 N   0  0  0  0  0  2  0  0  0  0  0  0
  189.2860  176.2380  143.6650 O   0  0  0  0  0  0  0  0  0  0  0  0
  189.3630  177.2480  142.6690 C   0  0  0  0  0  2  0  0  0  0  0  0
  188.0010  177.8970  142.5010 C   0  0  0  0  0  2  0  0  0  0  0  0
  186.9630  176.8680  142.0620 C   0  0  2  0  0  3  0  0  0  0  0  0
  186.4200  177.2130  140.8150 O   0  0  0  0  0  1  0  0  0  0  0  0
  185.8540  176.7960  143.0920 C   0  0  0  0  0  1  0  0  0  0  0  0
  2 21  1  6  0  0  0
  2  6  1  0  0  0  0
  2  5  1  0  0  0  0
  3  1  1  1  0  0  0
  4  3  1  0  0  0  0
  4 15  1  0  0  0  0
  5 11  1  6  0  0  0
  5  3  1  0  0  0  0
  6  4  2  0  0  0  0
  7  9  1  0  0  0  0
  7 10  2  0  0  0  0
  8  9  1  0  0  0  0
  8 13  1  0  0  0  0
 11  7  1  0  0  0  0
 11 14  1  1  0  0  0
 13 12  2  0  0  0  0
 14 13  1  0  0  0  0
 15 17  2  0  0  0  0
 18 15  1  0  0  0  0
 18 16  1  0  0  0  0
 19 21  2  0  0  0  0
 20 19  1  0  0  0  0
 22 23  1  6  0  0  0
 22 19  1  0  0  0  0
 24 27  1  6  0  0  0
 25 28  1  0  0  0  0
 25 24  1  0  0  0  0
 25 22  1  1  0  0  0
 28 26  1  6  0  0  0
 28 24  1  0  0  0  0
 29 26  1  0  0  0  0
 29 27  1  0  0  0  0
 30 31  1  6  0  0  0
 30 26  1  0  0  0  0
 32 36  1  1  0  0  0
 32 33  1  0  0  0  0
 32 37  1  0  0  0  0
 33 34  1  0  0  0  0
 34 35  1  0  0  0  0
 35 30  1  1  0  0  0
 37 35  1  0  0  0  0
 38  6  1  0  0  0  0
 39 38  1  0  0  0  0
 40 39  1  0  0  0  0
 41 40  1  0  0  0  0
 41 43  1  1  0  0  0
 42 41  1  0  0  0  0
M  END
>  <MODEL>
9

>  <REMARK>
 VINA RESULT:      -6.3      3.481      6.191
  Name = 
  11 active torsions:
  status: ('A' for Active; 'I' for Inactive)
    1  A    between atoms: C_7  and  N_23
    2  A    between atoms: C_8  and  C_37
    3  A    between atoms: C_9  and  C_32
    4  A    between atoms: C_11  and  C_18
    5  A    between atoms: C_11  and  N_26
    6  A    between atoms: C_16  and  C_30
    7  A    between atoms: C_19  and  C_35
    8  A    between atoms: C_24  and  C_30
    9  A    between atoms: C_28  and  C_37
   10  A    between atoms: C_28  and  O_42
   11  A    between atoms: C_39  and  O_42
                            x       y       z     vdW  Elec       q    Type
                         _______ _______ _______ _____ _____    ______ ____

>  <TORSDO>
F 11

$$$$
