=
 OpenBabel11062419353D

 42 44  0  0  1  0  0  0  0  0999 V2000
  194.3330  174.8070  145.1560 C   0  0  1  0  0  3  0  0  0  0  0  0
  193.0680  177.2510  145.0790 O   0  0  0  0  0  0  0  0  0  0  0  0
  194.4250  177.2130  145.3660 N   0  0  0  0  0  2  0  0  0  0  0  0
  195.0210  176.0760  144.6690 C   0  0  0  0  0  2  0  0  0  0  0  0
  192.8840  174.9250  145.0020 N   0  0  0  0  0  0  0  0  0  0  0  0
  192.2920  176.0830  145.0050 C   0  0  0  0  0  0  0  0  0  0  0  0
  188.7050  175.7790  143.5800 C   0  0  1  0  0  3  0  0  0  0  0  0
  190.8210  176.1680  144.8470 C   0  0  0  0  0  0  0  0  0  0  0  0
  190.2130  175.8150  143.6870 C   0  0  0  0  0  0  0  0  0  0  0  0
  186.6550  176.7680  145.9110 C   0  0  0  0  0  0  0  0  0  0  0  0
  187.7390  176.4770  146.8110 N   0  0  0  0  0  2  0  0  0  0  0  0
  188.0750  177.1550  143.8440 C   0  0  2  0  0  3  0  0  0  0  0  0
  188.9720  175.7690  146.4850 C   0  0  0  0  0  2  0  0  0  0  0  0
  186.7910  177.0570  144.6090 C   0  0  0  0  0  3  0  0  0  0  0  0
  190.0320  176.7410  146.0000 C   0  0  0  0  0  2  0  0  0  0  0  0
  190.9930  175.4920  142.5360 N   0  0  0  0  0  1  0  0  0  0  0  0
  185.2860  176.8440  146.4840 C   0  0  0  0  0  1  0  0  0  0  0  0
  189.0660  178.3650  141.8790 O   0  0  0  0  0  0  0  0  0  0  0  0
  186.8130  178.4520  142.2890 O   0  0  0  0  0  1  0  0  0  0  0  0
  187.9460  178.0160  142.6250 C   0  0  0  0  0  0  0  0  0  0  0  0
  187.0240  174.7290  142.2820 O   0  0  0  0  0  0  0  0  0  0  0  0
  188.1940  175.0700  142.3560 C   0  0  0  0  0  3  0  0  0  0  0  0
  194.8450  173.5970  144.3930 C   0  0  0  0  0  2  0  0  0  0  0  0
  196.8400  172.7390  145.9960 S   0  0  0  0  0  0  0  0  0  0  0  0
  195.3440  172.5600  145.3420 C   0  0  0  0  0  0  0  0  0  0  0  0
  194.4540  171.5250  145.7840 N   0  0  0  0  0  2  0  0  0  0  0  0
  194.6480  170.1040  145.5060 C   0  0  0  0  0  2  0  0  0  0  0  0
  193.7020  169.6450  144.4110 C   0  0  0  0  0  2  0  0  0  0  0  0
  193.3460  170.3640  142.1550 C   0  0  0  0  0  3  0  0  0  0  0  0
  194.1510  170.1420  143.1340 N   0  0  0  0  0  0  0  0  0  0  0  0
  191.8650  170.1130  142.2480 C   0  0  0  0  0  2  0  0  0  0  0  0
  191.0330  171.3780  142.0350 C   0  0  2  0  0  3  0  0  0  0  0  0
  191.0440  172.2050  144.2890 O   0  0  0  0  0  1  0  0  0  0  0  0
  190.3630  171.8350  143.2960 C   0  0  0  0  0  0  0  0  0  0  0  0
  188.9760  171.8780  143.3550 O   0  0  0  0  0  0  0  0  0  0  0  0
  190.0640  171.2370  140.8620 C   0  0  0  0  0  2  0  0  0  0  0  0
  188.5830  173.8270  138.1330 S   0  0  0  0  0  0  0  0  0  0  0  0
  189.9740  172.5310  140.0660 C   0  0  2  0  0  3  0  0  0  0  0  0
  188.5470  172.7890  139.6250 C   0  0  0  0  0  2  0  0  0  0  0  0
  190.3690  173.5640  137.9050 C   0  0  0  0  0  2  0  0  0  0  0  0
  190.8030  172.4300  138.8080 C   0  0  1  0  0  3  0  0  0  0  0  0
  192.1590  172.5690  139.1130 O   0  0  0  0  0  1  0  0  0  0  0  0
  1 23  1  6  0  0  0
  2  3  1  0  0  0  0
  4  1  1  0  0  0  0
  4  3  1  0  0  0  0
  5  6  2  0  0  0  0
  5  1  1  0  0  0  0
  6  2  1  0  0  0  0
  7 22  1  6  0  0  0
  7  9  1  0  0  0  0
  7 12  1  0  0  0  0
  8  6  1  0  0  0  0
  8 15  1  0  0  0  0
  9  8  2  0  0  0  0
 10 17  1  0  0  0  0
 10 11  1  0  0  0  0
 12 20  1  6  0  0  0
 12 14  1  0  0  0  0
 13 11  1  0  0  0  0
 14 10  2  0  0  0  0
 15 13  1  0  0  0  0
 16  9  1  0  0  0  0
 18 20  2  0  0  0  0
 19 20  1  0  0  0  0
 21 22  2  0  0  0  0
 23 25  1  0  0  0  0
 25 26  1  0  0  0  0
 25 24  2  0  0  0  0
 27 26  1  0  0  0  0
 28 27  1  0  0  0  0
 29 31  1  0  0  0  0
 29 30  2  0  0  0  0
 30 28  1  0  0  0  0
 32 36  1  6  0  0  0
 32 31  1  0  0  0  0
 32 34  1  0  0  0  0
 34 35  2  0  0  0  0
 34 33  1  0  0  0  0
 37 39  1  0  0  0  0
 38 36  1  6  0  0  0
 39 38  1  0  0  0  0
 40 37  1  0  0  0  0
 40 41  1  0  0  0  0
 41 42  1  1  0  0  0
 41 38  1  0  0  0  0
M  END
>  <MODEL>
1

>  <REMARK>
 VINA RESULT:      -6.2      0.000      0.000
  Name = 
  14 active torsions:
  status: ('A' for Active; 'I' for Inactive)
    1  A    between atoms: C_3  and  C_10
    2  A    between atoms: C_3  and  C_16
    3  A    between atoms: C_4  and  C_7
    4  A    between atoms: C_4  and  N_27
    5  A    between atoms: C_5  and  C_20
    6  A    between atoms: C_7  and  N_18
    7  A    between atoms: C_8  and  C_41
    8  A    between atoms: C_9  and  C_23
    9  A    between atoms: C_10  and  C_36
   10  A    between atoms: C_10  and  C_40
   11  A    between atoms: C_12  and  C_40
   12  A    between atoms: C_22  and  C_23
   13  A    between atoms: C_22  and  N_27
   14  A    between atoms: C_29  and  C_37
                            x       y       z     vdW  Elec       q    Type
                         _______ _______ _______ _____ _____    ______ ____

>  <TORSDO>
F 14

$$$$
=
 OpenBabel11062419353D

 42 44  0  0  1  0  0  0  0  0999 V2000
  190.1680  172.6010  139.8430 C   0  0  1  0  0  3  0  0  0  0  0  0
  192.5680  173.8920  139.4470 O   0  0  0  0  0  0  0  0  0  0  0  0
  191.8370  173.4910  138.3380 N   0  0  0  0  0  2  0  0  0  0  0  0
  190.4150  173.5410  138.6690 C   0  0  0  0  0  2  0  0  0  0  0  0
  191.0640  172.9300  140.9510 N   0  0  0  0  0  0  0  0  0  0  0  0
  192.2130  173.5060  140.7500 C   0  0  0  0  0  0  0  0  0  0  0  0
  193.8450  175.2880  143.7740 C   0  0  1  0  0  3  0  0  0  0  0  0
  193.0970  173.8240  141.8960 C   0  0  0  0  0  0  0  0  0  0  0  0
  193.0330  175.0220  142.5260 C   0  0  0  0  0  0  0  0  0  0  0  0
  196.0520  173.2420  145.0220 C   0  0  0  0  0  0  0  0  0  0  0  0
  195.2920  172.2180  144.3550 N   0  0  0  0  0  2  0  0  0  0  0  0
  195.3540  175.1630  143.5180 C   0  0  2  0  0  3  0  0  0  0  0  0
  193.9840  172.3740  143.7330 C   0  0  0  0  0  2  0  0  0  0  0  0
  196.0780  174.5350  144.6690 C   0  0  0  0  0  3  0  0  0  0  0  0
  194.1300  172.7920  142.2800 C   0  0  0  0  0  2  0  0  0  0  0  0
  192.2100  176.0660  142.0060 N   0  0  0  0  0  1  0  0  0  0  0  0
  196.9470  172.8230  146.1330 C   0  0  0  0  0  1  0  0  0  0  0  0
  195.9260  176.8320  141.7300 O   0  0  0  0  0  0  0  0  0  0  0  0
  196.6620  177.1250  143.8800 O   0  0  0  0  0  1  0  0  0  0  0  0
  196.0080  176.4300  143.0590 C   0  0  0  0  0  0  0  0  0  0  0  0
  193.3630  176.5120  145.7450 O   0  0  0  0  0  0  0  0  0  0  0  0
  193.4290  176.5230  144.5260 C   0  0  0  0  0  3  0  0  0  0  0  0
  188.7200  172.6860  140.2960 C   0  0  0  0  0  2  0  0  0  0  0  0
  188.5630  174.8610  141.8880 S   0  0  0  0  0  0  0  0  0  0  0  0
  188.6440  173.2330  141.6820 C   0  0  0  0  0  0  0  0  0  0  0  0
  188.4820  172.3310  142.7860 N   0  0  0  0  0  2  0  0  0  0  0  0
  189.5900  171.7190  143.5140 C   0  0  0  0  0  2  0  0  0  0  0  0
  189.7350  172.3510  144.8870 C   0  0  0  0  0  2  0  0  0  0  0  0
  190.3950  174.6230  145.2520 C   0  0  0  0  0  3  0  0  0  0  0  0
  190.6770  173.4400  144.8310 N   0  0  0  0  0  0  0  0  0  0  0  0
  189.0520  174.9810  145.8300 C   0  0  0  0  0  2  0  0  0  0  0  0
  188.6420  176.4230  145.5290 C   0  0  2  0  0  3  0  0  0  0  0  0
  190.1380  177.5420  147.0360 O   0  0  0  0  0  1  0  0  0  0  0  0
  189.7300  177.4020  145.8520 C   0  0  0  0  0  0  0  0  0  0  0  0
  190.3130  178.1370  144.8290 O   0  0  0  0  0  0  0  0  0  0  0  0
  187.3050  176.7850  146.1740 C   0  0  0  0  0  2  0  0  0  0  0  0
  185.5980  178.6990  143.0460 S   0  0  0  0  0  0  0  0  0  0  0  0
  186.2470  177.0730  145.1170 C   0  0  2  0  0  3  0  0  0  0  0  0
  186.8720  177.7200  143.8970 C   0  0  0  0  0  2  0  0  0  0  0  0
  184.4570  178.5740  144.4580 C   0  0  0  0  0  2  0  0  0  0  0  0
  185.2280  178.0510  145.6510 C   0  0  1  0  0  3  0  0  0  0  0  0
  184.3520  177.4050  146.5260 O   0  0  0  0  0  1  0  0  0  0  0  0
  1 23  1  1  0  0  0
  1  5  1  0  0  0  0
  2  6  1  0  0  0  0
  3  4  1  0  0  0  0
  3  2  1  0  0  0  0
  4  1  1  0  0  0  0
  6  5  2  0  0  0  0
  6  8  1  0  0  0  0
  7 22  1  6  0  0  0
  8 15  1  0  0  0  0
  8  9  2  0  0  0  0
  9  7  1  0  0  0  0
 10 17  1  0  0  0  0
 11 10  1  0  0  0  0
 12 20  1  1  0  0  0
 12  7  1  0  0  0  0
 12 14  1  0  0  0  0
 13 11  1  0  0  0  0
 14 10  2  0  0  0  0
 15 13  1  0  0  0  0
 16  9  1  0  0  0  0
 18 20  2  0  0  0  0
 20 19  1  0  0  0  0
 22 21  2  0  0  0  0
 23 25  1  0  0  0  0
 25 24  2  0  0  0  0
 25 26  1  0  0  0  0
 26 27  1  0  0  0  0
 27 28  1  0  0  0  0
 29 31  1  0  0  0  0
 30 28  1  0  0  0  0
 30 29  2  0  0  0  0
 32 31  1  1  0  0  0
 32 34  1  0  0  0  0
 32 36  1  0  0  0  0
 34 33  1  0  0  0  0
 35 34  2  0  0  0  0
 37 39  1  0  0  0  0
 37 40  1  0  0  0  0
 38 41  1  0  0  0  0
 38 36  1  1  0  0  0
 39 38  1  0  0  0  0
 40 41  1  0  0  0  0
 41 42  1  1  0  0  0
M  END
>  <MODEL>
2

>  <REMARK>
 VINA RESULT:      -6.1      2.928      7.512
  Name = 
  14 active torsions:
  status: ('A' for Active; 'I' for Inactive)
    1  A    between atoms: C_3  and  C_10
    2  A    between atoms: C_3  and  C_16
    3  A    between atoms: C_4  and  C_7
    4  A    between atoms: C_4  and  N_27
    5  A    between atoms: C_5  and  C_20
    6  A    between atoms: C_7  and  N_18
    7  A    between atoms: C_8  and  C_41
    8  A    between atoms: C_9  and  C_23
    9  A    between atoms: C_10  and  C_36
   10  A    between atoms: C_10  and  C_40
   11  A    between atoms: C_12  and  C_40
   12  A    between atoms: C_22  and  C_23
   13  A    between atoms: C_22  and  N_27
   14  A    between atoms: C_29  and  C_37
                            x       y       z     vdW  Elec       q    Type
                         _______ _______ _______ _____ _____    ______ ____

>  <TORSDO>
F 14

$$$$
=
 OpenBabel11062419353D

 42 44  0  0  1  0  0  0  0  0999 V2000
  193.9280  175.6620  144.2610 C   0  0  1  0  0  3  0  0  0  0  0  0
  192.2840  176.5530  146.2810 O   0  0  0  0  0  0  0  0  0  0  0  0
  193.6170  176.2990  146.5710 N   0  0  0  0  0  2  0  0  0  0  0  0
  194.4180  176.5720  145.3800 C   0  0  0  0  0  2  0  0  0  0  0  0
  192.4860  175.8170  144.0750 N   0  0  0  0  0  0  0  0  0  0  0  0
  191.7130  176.2030  145.0470 C   0  0  0  0  0  0  0  0  0  0  0  0
  188.1750  176.0100  143.4870 C   0  0  1  0  0  3  0  0  0  0  0  0
  190.2550  176.3490  144.8250 C   0  0  0  0  0  0  0  0  0  0  0  0
  189.6780  175.9800  143.6550 C   0  0  0  0  0  0  0  0  0  0  0  0
  186.0840  177.1830  145.6930 C   0  0  0  0  0  0  0  0  0  0  0  0
  187.1170  176.8770  146.6470 N   0  0  0  0  0  2  0  0  0  0  0  0
  187.6020  177.4220  143.6740 C   0  0  2  0  0  3  0  0  0  0  0  0
  188.3250  176.1010  146.3990 C   0  0  0  0  0  2  0  0  0  0  0  0
  186.2850  177.4140  144.3870 C   0  0  0  0  0  3  0  0  0  0  0  0
  189.4500  177.0030  145.9230 C   0  0  0  0  0  2  0  0  0  0  0  0
  190.4860  175.5760  142.5500 N   0  0  0  0  0  1  0  0  0  0  0  0
  184.6980  177.3450  146.2050 C   0  0  0  0  0  1  0  0  0  0  0  0
  188.7290  178.5210  141.7160 O   0  0  0  0  0  0  0  0  0  0  0  0
  186.4640  178.7030  142.0130 O   0  0  0  0  0  1  0  0  0  0  0  0
  187.5620  178.2410  142.4190 C   0  0  0  0  0  0  0  0  0  0  0  0
  187.5470  174.0650  142.2880 O   0  0  0  0  0  0  0  0  0  0  0  0
  187.6790  175.2780  142.2700 C   0  0  0  0  0  3  0  0  0  0  0  0
  194.6600  175.9710  142.9660 C   0  0  0  0  0  2  0  0  0  0  0  0
  197.3530  176.1440  142.8790 S   0  0  0  0  0  0  0  0  0  0  0  0
  195.9710  175.2580  142.9310 C   0  0  0  0  0  0  0  0  0  0  0  0
  196.0020  173.8340  143.1050 N   0  0  0  0  0  2  0  0  0  0  0  0
  196.5870  173.1620  144.2620 C   0  0  0  0  0  2  0  0  0  0  0  0
  195.4960  172.6320  145.1740 C   0  0  0  0  0  2  0  0  0  0  0  0
  193.7330  171.1950  144.4270 C   0  0  0  0  0  3  0  0  0  0  0  0
  194.9840  171.3870  144.6580 N   0  0  0  0  0  0  0  0  0  0  0  0
  192.6880  172.2460  144.6860 C   0  0  0  0  0  2  0  0  0  0  0  0
  191.6190  172.3040  143.5940 C   0  0  2  0  0  3  0  0  0  0  0  0
  189.3070  171.6580  143.5910 O   0  0  0  0  0  0  0  0  0  0  0  0
  190.2310  172.2990  144.1590 C   0  0  0  0  0  0  0  0  0  0  0  0
  189.9710  172.9860  145.3370 O   0  0  0  0  0  1  0  0  0  0  0  0
  191.8310  171.2310  142.5270 C   0  0  0  0  0  2  0  0  0  0  0  0
  192.8780  174.1370  139.9160 S   0  0  0  0  0  0  0  0  0  0  0  0
  192.1100  171.8570  141.1680 C   0  0  2  0  0  3  0  0  0  0  0  0
  193.1260  172.9750  141.2920 C   0  0  0  0  0  2  0  0  0  0  0  0
  191.2770  173.3890  139.4790 C   0  0  0  0  0  2  0  0  0  0  0  0
  190.8520  172.4770  140.6100 C   0  0  1  0  0  3  0  0  0  0  0  0
  190.0030  171.4840  140.1150 O   0  0  0  0  0  1  0  0  0  0  0  0
  1 23  1  6  0  0  0
  1  4  1  0  0  0  0
  2  3  1  0  0  0  0
  4  3  1  0  0  0  0
  5  1  1  0  0  0  0
  5  6  2  0  0  0  0
  6  2  1  0  0  0  0
  7 22  1  6  0  0  0
  7  9  1  0  0  0  0
  7 12  1  0  0  0  0
  8  6  1  0  0  0  0
  8 15  1  0  0  0  0
  9  8  2  0  0  0  0
 10 17  1  0  0  0  0
 10 11  1  0  0  0  0
 12 20  1  6  0  0  0
 12 14  1  0  0  0  0
 13 11  1  0  0  0  0
 14 10  2  0  0  0  0
 15 13  1  0  0  0  0
 16  9  1  0  0  0  0
 18 20  2  0  0  0  0
 19 20  1  0  0  0  0
 22 21  2  0  0  0  0
 24 25  2  0  0  0  0
 25 23  1  0  0  0  0
 25 26  1  0  0  0  0
 26 27  1  0  0  0  0
 27 28  1  0  0  0  0
 29 30  2  0  0  0  0
 29 31  1  0  0  0  0
 30 28  1  0  0  0  0
 32 36  1  6  0  0  0
 32 34  1  0  0  0  0
 32 31  1  0  0  0  0
 33 34  2  0  0  0  0
 34 35  1  0  0  0  0
 37 39  1  0  0  0  0
 38 39  1  0  0  0  0
 38 36  1  1  0  0  0
 40 37  1  0  0  0  0
 40 41  1  0  0  0  0
 41 42  1  6  0  0  0
 41 38  1  0  0  0  0
M  END
>  <MODEL>
3

>  <REMARK>
 VINA RESULT:      -6.1      1.703      2.233
  Name = 
  14 active torsions:
  status: ('A' for Active; 'I' for Inactive)
    1  A    between atoms: C_3  and  C_10
    2  A    between atoms: C_3  and  C_16
    3  A    between atoms: C_4  and  C_7
    4  A    between atoms: C_4  and  N_27
    5  A    between atoms: C_5  and  C_20
    6  A    between atoms: C_7  and  N_18
    7  A    between atoms: C_8  and  C_41
    8  A    between atoms: C_9  and  C_23
    9  A    between atoms: C_10  and  C_36
   10  A    between atoms: C_10  and  C_40
   11  A    between atoms: C_12  and  C_40
   12  A    between atoms: C_22  and  C_23
   13  A    between atoms: C_22  and  N_27
   14  A    between atoms: C_29  and  C_37
                            x       y       z     vdW  Elec       q    Type
                         _______ _______ _______ _____ _____    ______ ____

>  <TORSDO>
F 14

$$$$
=
 OpenBabel11062419353D

 42 44  0  0  1  0  0  0  0  0999 V2000
  194.1790  174.7120  144.8860 C   0  0  1  0  0  3  0  0  0  0  0  0
  192.9410  177.1690  144.9860 O   0  0  0  0  0  0  0  0  0  0  0  0
  194.2980  177.0960  145.2670 N   0  0  0  0  0  2  0  0  0  0  0  0
  194.8800  176.0050  144.4890 C   0  0  0  0  0  2  0  0  0  0  0  0
  192.7310  174.8570  144.7430 N   0  0  0  0  0  0  0  0  0  0  0  0
  192.1520  176.0180  144.8300 C   0  0  0  0  0  0  0  0  0  0  0  0
  188.5540  175.8060  143.4150 C   0  0  1  0  0  3  0  0  0  0  0  0
  190.6810  176.1290  144.6810 C   0  0  0  0  0  0  0  0  0  0  0  0
  190.0630  175.8150  143.5160 C   0  0  0  0  0  0  0  0  0  0  0  0
  186.5300  176.7670  145.7810 C   0  0  0  0  0  0  0  0  0  0  0  0
  187.6140  176.4350  146.6680 N   0  0  0  0  0  2  0  0  0  0  0  0
  187.9470  177.1840  143.7170 C   0  0  2  0  0  3  0  0  0  0  0  0
  188.8340  175.7180  146.3180 C   0  0  0  0  0  2  0  0  0  0  0  0
  186.6650  177.0870  144.4860 C   0  0  0  0  0  3  0  0  0  0  0  0
  189.9070  176.6850  145.8530 C   0  0  0  0  0  2  0  0  0  0  0  0
  190.8330  175.5100  142.3530 N   0  0  0  0  0  1  0  0  0  0  0  0
  185.1650  176.8490  146.3620 C   0  0  0  0  0  1  0  0  0  0  0  0
  188.9500  178.4410  141.7880 O   0  0  0  0  0  0  0  0  0  0  0  0
  186.6960  178.5280  142.1930 O   0  0  0  0  0  1  0  0  0  0  0  0
  187.8260  178.0780  142.5210 C   0  0  0  0  0  0  0  0  0  0  0  0
  187.4580  174.0580  142.2490 O   0  0  0  0  0  0  0  0  0  0  0  0
  188.0260  175.1370  142.1760 C   0  0  0  0  0  3  0  0  0  0  0  0
  194.6770  173.5550  144.0360 C   0  0  0  0  0  2  0  0  0  0  0  0
  196.2690  172.0360  145.6010 S   0  0  0  0  0  0  0  0  0  0  0  0
  194.8260  172.3280  144.8720 C   0  0  0  0  0  0  0  0  0  0  0  0
  193.6720  171.5220  145.1500 N   0  0  0  0  0  2  0  0  0  0  0  0
  193.1240  170.5300  144.2280 C   0  0  0  0  0  2  0  0  0  0  0  0
  192.0140  171.1400  143.3920 C   0  0  0  0  0  2  0  0  0  0  0  0
  190.7030  170.4940  141.4950 C   0  0  0  0  0  3  0  0  0  0  0  0
  191.5760  170.1970  142.3930 N   0  0  0  0  0  0  0  0  0  0  0  0
  190.0500  171.8470  141.4130 C   0  0  0  0  0  2  0  0  0  0  0  0
  190.4680  172.6340  140.1710 C   0  0  2  0  0  3  0  0  0  0  0  0
  189.3800  174.0400  138.5580 O   0  0  0  0  0  0  0  0  0  0  0  0
  189.2920  173.0620  139.3470 C   0  0  0  0  0  0  0  0  0  0  0  0
  188.1030  172.3510  139.4350 O   0  0  0  0  0  1  0  0  0  0  0  0
  191.5300  171.8970  139.3560 C   0  0  0  0  0  2  0  0  0  0  0  0
  194.1260  174.8510  140.3000 S   0  0  0  0  0  0  0  0  0  0  0  0
  192.8270  172.6930  139.2960 C   0  0  2  0  0  3  0  0  0  0  0  0
  193.0840  173.3950  140.6150 C   0  0  0  0  0  2  0  0  0  0  0  0
  193.8670  174.7370  138.5030 C   0  0  0  0  0  2  0  0  0  0  0  0
  192.7310  173.7710  138.2440 C   0  0  1  0  0  3  0  0  0  0  0  0
  192.8720  173.2150  136.9710 O   0  0  0  0  0  1  0  0  0  0  0  0
  1 23  1  6  0  0  0
  2  3  1  0  0  0  0
  4  1  1  0  0  0  0
  4  3  1  0  0  0  0
  5  6  2  0  0  0  0
  5  1  1  0  0  0  0
  6  2  1  0  0  0  0
  7 22  1  6  0  0  0
  7  9  1  0  0  0  0
  7 12  1  0  0  0  0
  8  6  1  0  0  0  0
  8 15  1  0  0  0  0
  9  8  2  0  0  0  0
 10 17  1  0  0  0  0
 10 11  1  0  0  0  0
 12 20  1  6  0  0  0
 12 14  1  0  0  0  0
 13 11  1  0  0  0  0
 14 10  2  0  0  0  0
 15 13  1  0  0  0  0
 16  9  1  0  0  0  0
 18 20  2  0  0  0  0
 19 20  1  0  0  0  0
 22 21  2  0  0  0  0
 23 25  1  0  0  0  0
 25 26  1  0  0  0  0
 25 24  2  0  0  0  0
 27 26  1  0  0  0  0
 28 27  1  0  0  0  0
 29 30  2  0  0  0  0
 30 28  1  0  0  0  0
 31 29  1  0  0  0  0
 32 36  1  6  0  0  0
 32 31  1  0  0  0  0
 33 34  2  0  0  0  0
 34 35  1  0  0  0  0
 34 32  1  0  0  0  0
 37 39  1  0  0  0  0
 38 36  1  1  0  0  0
 38 39  1  0  0  0  0
 40 37  1  0  0  0  0
 41 42  1  6  0  0  0
 41 40  1  0  0  0  0
 41 38  1  0  0  0  0
M  END
>  <MODEL>
4

>  <REMARK>
 VINA RESULT:      -6.0      1.688      2.249
  Name = 
  14 active torsions:
  status: ('A' for Active; 'I' for Inactive)
    1  A    between atoms: C_3  and  C_10
    2  A    between atoms: C_3  and  C_16
    3  A    between atoms: C_4  and  C_7
    4  A    between atoms: C_4  and  N_27
    5  A    between atoms: C_5  and  C_20
    6  A    between atoms: C_7  and  N_18
    7  A    between atoms: C_8  and  C_41
    8  A    between atoms: C_9  and  C_23
    9  A    between atoms: C_10  and  C_36
   10  A    between atoms: C_10  and  C_40
   11  A    between atoms: C_12  and  C_40
   12  A    between atoms: C_22  and  C_23
   13  A    between atoms: C_22  and  N_27
   14  A    between atoms: C_29  and  C_37
                            x       y       z     vdW  Elec       q    Type
                         _______ _______ _______ _____ _____    ______ ____

>  <TORSDO>
F 14

$$$$
=
 OpenBabel11062419353D

 42 44  0  0  1  0  0  0  0  0999 V2000
  194.2940  174.7950  145.0450 C   0  0  1  0  0  3  0  0  0  0  0  0
  193.0280  177.2390  145.0500 O   0  0  0  0  0  0  0  0  0  0  0  0
  194.3830  177.1910  145.3450 N   0  0  0  0  0  2  0  0  0  0  0  0
  194.9840  176.0810  144.6100 C   0  0  0  0  0  2  0  0  0  0  0  0
  192.8460  174.9180  144.8860 N   0  0  0  0  0  0  0  0  0  0  0  0
  192.2530  176.0750  144.9270 C   0  0  0  0  0  0  0  0  0  0  0  0
  188.6740  175.8080  143.4740 C   0  0  1  0  0  3  0  0  0  0  0  0
  190.7830  176.1640  144.7630 C   0  0  0  0  0  0  0  0  0  0  0  0
  190.1820  175.8400  143.5920 C   0  0  0  0  0  0  0  0  0  0  0  0
  186.6110  176.7410  145.8180 C   0  0  0  0  0  0  0  0  0  0  0  0
  187.6900  176.4260  146.7170 N   0  0  0  0  0  2  0  0  0  0  0  0
  188.0440  177.1770  143.7690 C   0  0  2  0  0  3  0  0  0  0  0  0
  188.9240  175.7260  146.3810 C   0  0  0  0  0  2  0  0  0  0  0  0
  186.7550  177.0620  144.5240 C   0  0  0  0  0  3  0  0  0  0  0  0
  189.9880  176.7090  145.9260 C   0  0  0  0  0  2  0  0  0  0  0  0
  190.9680  175.5450  142.4380 N   0  0  0  0  0  1  0  0  0  0  0  0
  185.2390  176.8040  146.3850 C   0  0  0  0  0  1  0  0  0  0  0  0
  189.0450  178.4280  141.8350 O   0  0  0  0  0  0  0  0  0  0  0  0
  186.7930  178.5210  142.2440 O   0  0  0  0  0  1  0  0  0  0  0  0
  187.9220  178.0690  142.5710 C   0  0  0  0  0  0  0  0  0  0  0  0
  187.2070  174.3810  142.2810 O   0  0  0  0  0  0  0  0  0  0  0  0
  188.1690  175.1310  142.2300 C   0  0  0  0  0  3  0  0  0  0  0  0
  194.8120  173.6140  144.2410 C   0  0  0  0  0  2  0  0  0  0  0  0
  196.6520  172.5140  145.8810 S   0  0  0  0  0  0  0  0  0  0  0  0
  195.1810  172.4910  145.1510 C   0  0  0  0  0  0  0  0  0  0  0  0
  194.1930  171.5090  145.4920 N   0  0  0  0  0  2  0  0  0  0  0  0
  194.1330  170.1700  144.9120 C   0  0  0  0  0  2  0  0  0  0  0  0
  192.7890  169.9410  144.2450 C   0  0  0  0  0  2  0  0  0  0  0  0
  191.9250  171.6480  142.8040 C   0  0  0  0  0  3  0  0  0  0  0  0
  192.1430  171.2060  143.9930 N   0  0  0  0  0  0  0  0  0  0  0  0
  192.3350  170.8920  141.5690 C   0  0  0  0  0  2  0  0  0  0  0  0
  193.0380  171.7760  140.5380 C   0  0  2  0  0  3  0  0  0  0  0  0
  195.0220  173.1270  140.5750 O   0  0  0  0  0  0  0  0  0  0  0  0
  194.4680  172.0440  140.9010 C   0  0  0  0  0  0  0  0  0  0  0  0
  195.1750  171.0980  141.6310 O   0  0  0  0  0  1  0  0  0  0  0  0
  192.2500  173.0510  140.2430 C   0  0  0  0  0  2  0  0  0  0  0  0
  190.0910  173.9710  136.9490 S   0  0  0  0  0  0  0  0  0  0  0  0
  191.2460  172.8280  139.1200 C   0  0  2  0  0  3  0  0  0  0  0  0
  191.6040  173.6670  137.9090 C   0  0  0  0  0  2  0  0  0  0  0  0
  189.0280  173.3750  138.3010 C   0  0  0  0  0  2  0  0  0  0  0  0
  189.8680  173.2630  139.5550 C   0  0  1  0  0  3  0  0  0  0  0  0
  189.3090  172.3100  140.4090 O   0  0  0  0  0  1  0  0  0  0  0  0
  1 23  1  6  0  0  0
  2  3  1  0  0  0  0
  4  1  1  0  0  0  0
  4  3  1  0  0  0  0
  5  6  2  0  0  0  0
  5  1  1  0  0  0  0
  6  2  1  0  0  0  0
  7 22  1  6  0  0  0
  7  9  1  0  0  0  0
  7 12  1  0  0  0  0
  8  6  1  0  0  0  0
  8 15  1  0  0  0  0
  9  8  2  0  0  0  0
 10 17  1  0  0  0  0
 10 11  1  0  0  0  0
 12 20  1  6  0  0  0
 12 14  1  0  0  0  0
 13 11  1  0  0  0  0
 14 10  2  0  0  0  0
 15 13  1  0  0  0  0
 16  9  1  0  0  0  0
 18 20  2  0  0  0  0
 19 20  1  0  0  0  0
 22 21  2  0  0  0  0
 23 25  1  0  0  0  0
 25 26  1  0  0  0  0
 25 24  2  0  0  0  0
 27 26  1  0  0  0  0
 28 27  1  0  0  0  0
 29 30  2  0  0  0  0
 30 28  1  0  0  0  0
 31 29  1  0  0  0  0
 32 36  1  1  0  0  0
 32 34  1  0  0  0  0
 32 31  1  0  0  0  0
 33 34  2  0  0  0  0
 34 35  1  0  0  0  0
 37 39  1  0  0  0  0
 37 40  1  0  0  0  0
 38 41  1  0  0  0  0
 38 36  1  1  0  0  0
 39 38  1  0  0  0  0
 40 41  1  0  0  0  0
 41 42  1  1  0  0  0
M  END
>  <MODEL>
5

>  <REMARK>
 VINA RESULT:      -5.9      1.305      1.933
  Name = 
  14 active torsions:
  status: ('A' for Active; 'I' for Inactive)
    1  A    between atoms: C_3  and  C_10
    2  A    between atoms: C_3  and  C_16
    3  A    between atoms: C_4  and  C_7
    4  A    between atoms: C_4  and  N_27
    5  A    between atoms: C_5  and  C_20
    6  A    between atoms: C_7  and  N_18
    7  A    between atoms: C_8  and  C_41
    8  A    between atoms: C_9  and  C_23
    9  A    between atoms: C_10  and  C_36
   10  A    between atoms: C_10  and  C_40
   11  A    between atoms: C_12  and  C_40
   12  A    between atoms: C_22  and  C_23
   13  A    between atoms: C_22  and  N_27
   14  A    between atoms: C_29  and  C_37
                            x       y       z     vdW  Elec       q    Type
                         _______ _______ _______ _____ _____    ______ ____

>  <TORSDO>
F 14

$$$$
=
 OpenBabel11062419353D

 42 44  0  0  1  0  0  0  0  0999 V2000
  189.5970  173.0280  139.5850 C   0  0  1  0  0  3  0  0  0  0  0  0
  187.8350  175.1360  139.7670 O   0  0  0  0  0  0  0  0  0  0  0  0
  188.1000  174.5960  138.5170 N   0  0  0  0  0  2  0  0  0  0  0  0
  188.3870  173.1720  138.6710 C   0  0  0  0  0  2  0  0  0  0  0  0
  189.3720  173.7440  140.8400 N   0  0  0  0  0  0  0  0  0  0  0  0
  188.5660  174.7620  140.9070 C   0  0  0  0  0  0  0  0  0  0  0  0
  189.1750  176.7990  144.1430 C   0  0  1  0  0  3  0  0  0  0  0  0
  188.3610  175.4660  142.1950 C   0  0  0  0  0  0  0  0  0  0  0  0
  189.4050  175.9690  142.9000 C   0  0  0  0  0  0  0  0  0  0  0  0
  186.2670  177.3130  145.5200 C   0  0  0  0  0  0  0  0  0  0  0  0
  185.7420  177.0670  144.2030 N   0  0  0  0  0  2  0  0  0  0  0  0
  188.4270  176.0130  145.2310 C   0  0  2  0  0  3  0  0  0  0  0  0
  186.5100  176.9620  142.9680 C   0  0  0  0  0  2  0  0  0  0  0  0
  187.4450  176.8640  145.9760 C   0  0  0  0  0  3  0  0  0  0  0  0
  186.9510  175.5290  142.7330 C   0  0  0  0  0  2  0  0  0  0  0  0
  190.7450  175.7020  142.4880 N   0  0  0  0  0  1  0  0  0  0  0  0
  185.4010  178.0440  146.4810 C   0  0  0  0  0  1  0  0  0  0  0  0
  189.9470  174.0740  145.7180 O   0  0  0  0  0  0  0  0  0  0  0  0
  189.4770  175.6250  147.3380 O   0  0  0  0  0  1  0  0  0  0  0  0
  189.3190  175.2360  146.1510 C   0  0  0  0  0  0  0  0  0  0  0  0
  190.7270  178.5880  144.0880 O   0  0  0  0  0  0  0  0  0  0  0  0
  190.3940  177.5400  144.6190 C   0  0  0  0  0  3  0  0  0  0  0  0
  189.8830  171.5620  139.8610 C   0  0  0  0  0  2  0  0  0  0  0  0
  192.2300  171.4210  138.5340 S   0  0  0  0  0  0  0  0  0  0  0  0
  191.3550  171.3250  139.9210 C   0  0  0  0  0  0  0  0  0  0  0  0
  191.9930  171.1810  141.1980 N   0  0  0  0  0  2  0  0  0  0  0  0
  191.2900  170.8420  142.4320 C   0  0  0  0  0  2  0  0  0  0  0  0
  191.5070  171.9190  143.4790 C   0  0  0  0  0  2  0  0  0  0  0  0
  193.3720  172.3270  144.9240 C   0  0  0  0  0  3  0  0  0  0  0  0
  192.5300  171.5040  144.4070 N   0  0  0  0  0  0  0  0  0  0  0  0
  193.3760  173.7970  144.5990 C   0  0  0  0  0  2  0  0  0  0  0  0
  194.7130  174.2760  144.0310 C   0  0  2  0  0  3  0  0  0  0  0  0
  196.8760  174.5500  145.0350 O   0  0  0  0  0  0  0  0  0  0  0  0
  195.6370  174.7740  145.1010 C   0  0  0  0  0  0  0  0  0  0  0  0
  195.1240  175.5150  146.1570 O   0  0  0  0  0  1  0  0  0  0  0  0
  194.5250  175.2770  142.8920 C   0  0  0  0  0  2  0  0  0  0  0  0
  196.9100  175.2750  139.6260 S   0  0  0  0  0  0  0  0  0  0  0  0
  195.1210  174.7490  141.5940 C   0  0  2  0  0  3  0  0  0  0  0  0
  196.5320  175.2680  141.4040 C   0  0  0  0  0  2  0  0  0  0  0  0
  195.1650  175.0060  139.1810 C   0  0  0  0  0  2  0  0  0  0  0  0
  194.3180  175.2380  140.4130 C   0  0  1  0  0  3  0  0  0  0  0  0
  193.1290  174.5120  140.3060 O   0  0  0  0  0  1  0  0  0  0  0  0
  1 23  1  1  0  0  0
  1  5  1  0  0  0  0
  2  6  1  0  0  0  0
  3  4  1  0  0  0  0
  3  2  1  0  0  0  0
  4  1  1  0  0  0  0
  5  6  2  0  0  0  0
  6  8  1  0  0  0  0
  7 22  1  1  0  0  0
  7 12  1  0  0  0  0
  8 15  1  0  0  0  0
  8  9  2  0  0  0  0
  9  7  1  0  0  0  0
 10 14  2  0  0  0  0
 10 17  1  0  0  0  0
 11 10  1  0  0  0  0
 12 14  1  0  0  0  0
 12 20  1  1  0  0  0
 13 11  1  0  0  0  0
 15 13  1  0  0  0  0
 16  9  1  0  0  0  0
 18 20  2  0  0  0  0
 20 19  1  0  0  0  0
 21 22  2  0  0  0  0
 23 25  1  0  0  0  0
 24 25  2  0  0  0  0
 25 26  1  0  0  0  0
 26 27  1  0  0  0  0
 27 28  1  0  0  0  0
 28 30  1  0  0  0  0
 30 29  2  0  0  0  0
 31 29  1  0  0  0  0
 32 36  1  6  0  0  0
 32 31  1  0  0  0  0
 32 34  1  0  0  0  0
 33 34  2  0  0  0  0
 34 35  1  0  0  0  0
 37 39  1  0  0  0  0
 38 36  1  1  0  0  0
 39 38  1  0  0  0  0
 40 37  1  0  0  0  0
 40 41  1  0  0  0  0
 41 42  1  6  0  0  0
 41 38  1  0  0  0  0
M  END
>  <MODEL>
6

>  <REMARK>
 VINA RESULT:      -5.8      2.713      5.559
  Name = 
  14 active torsions:
  status: ('A' for Active; 'I' for Inactive)
    1  A    between atoms: C_3  and  C_10
    2  A    between atoms: C_3  and  C_16
    3  A    between atoms: C_4  and  C_7
    4  A    between atoms: C_4  and  N_27
    5  A    between atoms: C_5  and  C_20
    6  A    between atoms: C_7  and  N_18
    7  A    between atoms: C_8  and  C_41
    8  A    between atoms: C_9  and  C_23
    9  A    between atoms: C_10  and  C_36
   10  A    between atoms: C_10  and  C_40
   11  A    between atoms: C_12  and  C_40
   12  A    between atoms: C_22  and  C_23
   13  A    between atoms: C_22  and  N_27
   14  A    between atoms: C_29  and  C_37
                            x       y       z     vdW  Elec       q    Type
                         _______ _______ _______ _____ _____    ______ ____

>  <TORSDO>
F 14

$$$$
=
 OpenBabel11062419353D

 42 44  0  0  1  0  0  0  0  0999 V2000
  193.9580  174.7560  145.7460 C   0  0  1  0  0  3  0  0  0  0  0  0
  192.8720  177.1770  145.0120 O   0  0  0  0  0  0  0  0  0  0  0  0
  194.2170  177.1260  145.3510 N   0  0  0  0  0  2  0  0  0  0  0  0
  194.7440  175.8150  144.9820 C   0  0  0  0  0  2  0  0  0  0  0  0
  192.5240  174.9240  145.5120 N   0  0  0  0  0  0  0  0  0  0  0  0
  192.0160  176.0800  145.2030 C   0  0  0  0  0  0  0  0  0  0  0  0
  188.4940  175.8980  143.6050 C   0  0  1  0  0  3  0  0  0  0  0  0
  190.5580  176.2160  144.9740 C   0  0  0  0  0  0  0  0  0  0  0  0
  189.9960  175.8820  143.7860 C   0  0  0  0  0  0  0  0  0  0  0  0
  186.3690  176.9640  145.8340 C   0  0  0  0  0  0  0  0  0  0  0  0
  187.3980  176.6370  146.7860 N   0  0  0  0  0  2  0  0  0  0  0  0
  187.9010  177.2960  143.8380 C   0  0  2  0  0  3  0  0  0  0  0  0
  188.6190  175.8860  146.5210 C   0  0  0  0  0  2  0  0  0  0  0  0
  186.5780  177.2450  144.5390 C   0  0  0  0  0  3  0  0  0  0  0  0
  189.7350  176.8190  146.0870 C   0  0  0  0  0  2  0  0  0  0  0  0
  190.8180  175.5290  142.6750 N   0  0  0  0  0  1  0  0  0  0  0  0
  184.9770  177.0890  146.3400 C   0  0  0  0  0  1  0  0  0  0  0  0
  189.0180  178.4120  141.8850 O   0  0  0  0  0  0  0  0  0  0  0  0
  186.7730  178.6820  142.2570 O   0  0  0  0  0  1  0  0  0  0  0  0
  187.8610  178.1580  142.6130 C   0  0  0  0  0  0  0  0  0  0  0  0
  187.0670  174.4410  142.4000 O   0  0  0  0  0  0  0  0  0  0  0  0
  188.0180  175.2050  142.3580 C   0  0  0  0  0  3  0  0  0  0  0  0
  194.3980  173.3630  145.3280 C   0  0  0  0  0  2  0  0  0  0  0  0
  193.9410  173.2600  142.6690 S   0  0  0  0  0  0  0  0  0  0  0  0
  193.5420  172.8640  144.2130 C   0  0  0  0  0  0  0  0  0  0  0  0
  192.4940  171.9260  144.4960 N   0  0  0  0  0  2  0  0  0  0  0  0
  191.0860  172.1480  144.1750 C   0  0  0  0  0  2  0  0  0  0  0  0
  190.6910  171.3490  142.9460 C   0  0  0  0  0  2  0  0  0  0  0  0
  189.5820  172.2690  141.0340 C   0  0  0  0  0  3  0  0  0  0  0  0
  189.5740  171.9800  142.2870 N   0  0  0  0  0  0  0  0  0  0  0  0
  190.7620  171.9880  140.1420 C   0  0  0  0  0  2  0  0  0  0  0  0
  190.3730  171.2720  138.8490 C   0  0  2  0  0  3  0  0  0  0  0  0
  190.9160  169.2530  140.0300 O   0  0  0  0  0  1  0  0  0  0  0  0
  190.4790  169.7820  138.9720 C   0  0  0  0  0  0  0  0  0  0  0  0
  190.0630  168.9780  137.9200 O   0  0  0  0  0  0  0  0  0  0  0  0
  191.1240  171.8250  137.6390 C   0  0  0  0  0  2  0  0  0  0  0  0
  189.4640  174.8650  135.5510 S   0  0  0  0  0  0  0  0  0  0  0  0
  190.7110  173.2610  137.3470 C   0  0  2  0  0  3  0  0  0  0  0  0
  189.4780  173.2940  136.4650 C   0  0  0  0  0  2  0  0  0  0  0  0
  191.1860  175.2310  136.0120 C   0  0  0  0  0  2  0  0  0  0  0  0
  191.8030  173.9760  136.5890 C   0  0  1  0  0  3  0  0  0  0  0  0
  192.8430  174.3220  137.4560 O   0  0  0  0  0  1  0  0  0  0  0  0
  1 23  1  6  0  0  0
  2  6  1  0  0  0  0
  2  3  1  0  0  0  0
  4  3  1  0  0  0  0
  4  1  1  0  0  0  0
  5  1  1  0  0  0  0
  6  5  2  0  0  0  0
  7 22  1  6  0  0  0
  7  9  1  0  0  0  0
  7 12  1  0  0  0  0
  8  6  1  0  0  0  0
  8 15  1  0  0  0  0
  9  8  2  0  0  0  0
 10 17  1  0  0  0  0
 10 11  1  0  0  0  0
 12 20  1  6  0  0  0
 12 14  1  0  0  0  0
 13 11  1  0  0  0  0
 14 10  2  0  0  0  0
 15 13  1  0  0  0  0
 16  9  1  0  0  0  0
 18 20  2  0  0  0  0
 19 20  1  0  0  0  0
 22 21  2  0  0  0  0
 24 25  2  0  0  0  0
 25 26  1  0  0  0  0
 25 23  1  0  0  0  0
 27 26  1  0  0  0  0
 28 27  1  0  0  0  0
 29 30  2  0  0  0  0
 30 28  1  0  0  0  0
 31 29  1  0  0  0  0
 32 36  1  6  0  0  0
 32 34  1  0  0  0  0
 32 31  1  0  0  0  0
 34 33  1  0  0  0  0
 35 34  2  0  0  0  0
 37 40  1  0  0  0  0
 37 39  1  0  0  0  0
 38 36  1  6  0  0  0
 39 38  1  0  0  0  0
 40 41  1  0  0  0  0
 41 38  1  0  0  0  0
 41 42  1  1  0  0  0
M  END
>  <MODEL>
7

>  <REMARK>
 VINA RESULT:      -5.7      1.765      2.586
  Name = 
  14 active torsions:
  status: ('A' for Active; 'I' for Inactive)
    1  A    between atoms: C_3  and  C_10
    2  A    between atoms: C_3  and  C_16
    3  A    between atoms: C_4  and  C_7
    4  A    between atoms: C_4  and  N_27
    5  A    between atoms: C_5  and  C_20
    6  A    between atoms: C_7  and  N_18
    7  A    between atoms: C_8  and  C_41
    8  A    between atoms: C_9  and  C_23
    9  A    between atoms: C_10  and  C_36
   10  A    between atoms: C_10  and  C_40
   11  A    between atoms: C_12  and  C_40
   12  A    between atoms: C_22  and  C_23
   13  A    between atoms: C_22  and  N_27
   14  A    between atoms: C_29  and  C_37
                            x       y       z     vdW  Elec       q    Type
                         _______ _______ _______ _____ _____    ______ ____

>  <TORSDO>
F 14

$$$$
=
 OpenBabel11062419353D

 42 44  0  0  1  0  0  0  0  0999 V2000
  193.7760  174.8490  145.7410 C   0  0  1  0  0  3  0  0  0  0  0  0
  192.7000  177.1720  144.7270 O   0  0  0  0  0  0  0  0  0  0  0  0
  194.0540  177.1410  145.0260 N   0  0  0  0  0  2  0  0  0  0  0  0
  194.5510  175.7830  144.8190 C   0  0  0  0  0  2  0  0  0  0  0  0
  192.3380  175.0110  145.5330 N   0  0  0  0  0  0  0  0  0  0  0  0
  191.8350  176.1250  145.0900 C   0  0  0  0  0  0  0  0  0  0  0  0
  188.2770  175.9050  143.5810 C   0  0  1  0  0  3  0  0  0  0  0  0
  190.3730  176.2560  144.8920 C   0  0  0  0  0  0  0  0  0  0  0  0
  189.7820  175.8920  143.7270 C   0  0  0  0  0  0  0  0  0  0  0  0
  186.2060  177.0290  145.8310 C   0  0  0  0  0  0  0  0  0  0  0  0
  187.2560  176.7250  146.7670 N   0  0  0  0  0  2  0  0  0  0  0  0
  187.6890  177.3080  143.7920 C   0  0  2  0  0  3  0  0  0  0  0  0
  188.4710  175.9670  146.4920 C   0  0  0  0  0  2  0  0  0  0  0  0
  186.3840  177.2760  144.5260 C   0  0  0  0  0  3  0  0  0  0  0  0
  189.5770  176.8880  146.0080 C   0  0  0  0  0  2  0  0  0  0  0  0
  190.5790  175.5100  142.6050 N   0  0  0  0  0  1  0  0  0  0  0  0
  184.8260  177.1670  146.3670 C   0  0  0  0  0  1  0  0  0  0  0  0
  188.7600  178.3760  141.7870 O   0  0  0  0  0  0  0  0  0  0  0  0
  186.5240  178.6530  142.2020 O   0  0  0  0  0  1  0  0  0  0  0  0
  187.6210  178.1400  142.5470 C   0  0  0  0  0  0  0  0  0  0  0  0
  187.6270  173.9690  142.3810 O   0  0  0  0  0  0  0  0  0  0  0  0
  187.7720  175.1810  142.3640 C   0  0  0  0  0  3  0  0  0  0  0  0
  194.1830  173.4050  145.4980 C   0  0  0  0  0  2  0  0  0  0  0  0
  196.8160  173.4100  146.0920 S   0  0  0  0  0  0  0  0  0  0  0  0
  195.5890  173.3410  145.0030 C   0  0  0  0  0  0  0  0  0  0  0  0
  195.8340  173.0620  143.6170 N   0  0  0  0  0  2  0  0  0  0  0  0
  194.8950  172.3630  142.7430 C   0  0  0  0  0  2  0  0  0  0  0  0
  194.3010  173.3230  141.7280 C   0  0  0  0  0  2  0  0  0  0  0  0
  193.9540  173.2210  139.3620 C   0  0  0  0  0  3  0  0  0  0  0  0
  194.6560  172.9090  140.3940 N   0  0  0  0  0  0  0  0  0  0  0  0
  192.6920  174.0360  139.4530 C   0  0  0  0  0  2  0  0  0  0  0  0
  191.4700  173.3050  138.8950 C   0  0  2  0  0  3  0  0  0  0  0  0
  189.8720  174.1520  137.3170 O   0  0  0  0  0  1  0  0  0  0  0  0
  191.0660  173.8220  137.5480 C   0  0  0  0  0  0  0  0  0  0  0  0
  192.0270  173.9660  136.5560 O   0  0  0  0  0  0  0  0  0  0  0  0
  190.3140  173.2750  139.8940 C   0  0  0  0  0  2  0  0  0  0  0  0
  191.4420  170.0280  142.0240 S   0  0  0  0  0  0  0  0  0  0  0  0
  190.1720  171.8980  140.5280 C   0  0  2  0  0  3  0  0  0  0  0  0
  191.0490  171.7830  141.7580 C   0  0  0  0  0  2  0  0  0  0  0  0
  190.8240  169.5650  140.3760 C   0  0  0  0  0  2  0  0  0  0  0  0
  190.6320  170.8300  139.5660 C   0  0  1  0  0  3  0  0  0  0  0  0
  189.6620  170.6130  138.5850 O   0  0  0  0  0  1  0  0  0  0  0  0
  1 23  1  6  0  0  0
  2  3  1  0  0  0  0
  2  6  1  0  0  0  0
  4  3  1  0  0  0  0
  4  1  1  0  0  0  0
  5  1  1  0  0  0  0
  6  5  2  0  0  0  0
  7 22  1  6  0  0  0
  7  9  1  0  0  0  0
  7 12  1  0  0  0  0
  8  6  1  0  0  0  0
  8 15  1  0  0  0  0
  9  8  2  0  0  0  0
 10 17  1  0  0  0  0
 10 11  1  0  0  0  0
 12 20  1  6  0  0  0
 12 14  1  0  0  0  0
 13 11  1  0  0  0  0
 14 10  2  0  0  0  0
 15 13  1  0  0  0  0
 16  9  1  0  0  0  0
 18 20  2  0  0  0  0
 19 20  1  0  0  0  0
 22 21  2  0  0  0  0
 25 23  1  0  0  0  0
 25 24  2  0  0  0  0
 26 25  1  0  0  0  0
 27 26  1  0  0  0  0
 28 27  1  0  0  0  0
 29 31  1  0  0  0  0
 29 30  2  0  0  0  0
 30 28  1  0  0  0  0
 32 31  1  1  0  0  0
 32 36  1  0  0  0  0
 33 34  1  0  0  0  0
 34 32  1  0  0  0  0
 35 34  2  0  0  0  0
 38 36  1  6  0  0  0
 38 39  1  0  0  0  0
 39 37  1  0  0  0  0
 40 37  1  0  0  0  0
 41 42  1  6  0  0  0
 41 40  1  0  0  0  0
 41 38  1  0  0  0  0
M  END
>  <MODEL>
8

>  <REMARK>
 VINA RESULT:      -5.7      1.850      2.944
  Name = 
  14 active torsions:
  status: ('A' for Active; 'I' for Inactive)
    1  A    between atoms: C_3  and  C_10
    2  A    between atoms: C_3  and  C_16
    3  A    between atoms: C_4  and  C_7
    4  A    between atoms: C_4  and  N_27
    5  A    between atoms: C_5  and  C_20
    6  A    between atoms: C_7  and  N_18
    7  A    between atoms: C_8  and  C_41
    8  A    between atoms: C_9  and  C_23
    9  A    between atoms: C_10  and  C_36
   10  A    between atoms: C_10  and  C_40
   11  A    between atoms: C_12  and  C_40
   12  A    between atoms: C_22  and  C_23
   13  A    between atoms: C_22  and  N_27
   14  A    between atoms: C_29  and  C_37
                            x       y       z     vdW  Elec       q    Type
                         _______ _______ _______ _____ _____    ______ ____

>  <TORSDO>
F 14

$$$$
=
 OpenBabel11062419353D

 42 44  0  0  1  0  0  0  0  0999 V2000
  194.2670  174.8930  145.1440 C   0  0  1  0  0  3  0  0  0  0  0  0
  192.9720  177.3220  145.0590 O   0  0  0  0  0  0  0  0  0  0  0  0
  194.3320  177.3020  145.3330 N   0  0  0  0  0  2  0  0  0  0  0  0
  194.9350  176.1670  144.6390 C   0  0  0  0  0  2  0  0  0  0  0  0
  192.8150  174.9930  145.0020 N   0  0  0  0  0  0  0  0  0  0  0  0
  192.2090  176.1440  145.0010 C   0  0  0  0  0  0  0  0  0  0  0  0
  188.6140  175.8040  143.6050 C   0  0  1  0  0  3  0  0  0  0  0  0
  190.7360  176.2100  144.8570 C   0  0  0  0  0  0  0  0  0  0  0  0
  190.1230  175.8600  143.6990 C   0  0  0  0  0  0  0  0  0  0  0  0
  186.5720  176.7430  145.9630 C   0  0  0  0  0  0  0  0  0  0  0  0
  187.6680  176.4580  146.8510 N   0  0  0  0  0  2  0  0  0  0  0  0
  187.9680  177.1680  143.8870 C   0  0  2  0  0  3  0  0  0  0  0  0
  188.9070  175.7710  146.5080 C   0  0  0  0  0  2  0  0  0  0  0  0
  186.6920  177.0460  144.6620 C   0  0  0  0  0  3  0  0  0  0  0  0
  189.9500  176.7620  146.0220 C   0  0  0  0  0  2  0  0  0  0  0  0
  190.8970  175.5580  142.5390 N   0  0  0  0  0  1  0  0  0  0  0  0
  185.2060  176.7950  146.5480 C   0  0  0  0  0  1  0  0  0  0  0  0
  186.5570  178.4300  142.2360 O   0  0  0  0  0  1  0  0  0  0  0  0
  188.8400  178.3990  142.0380 O   0  0  0  0  0  0  0  0  0  0  0  0
  187.8170  178.0400  142.6780 C   0  0  0  0  0  0  0  0  0  0  0  0
  187.0350  174.5080  142.4050 O   0  0  0  0  0  0  0  0  0  0  0  0
  188.1020  175.1000  142.3780 C   0  0  0  0  0  3  0  0  0  0  0  0
  194.7860  173.6840  144.3850 C   0  0  0  0  0  2  0  0  0  0  0  0
  196.8140  173.3420  146.1340 S   0  0  0  0  0  0  0  0  0  0  0  0
  196.2540  173.5300  144.6010 C   0  0  0  0  0  0  0  0  0  0  0  0
  197.1210  173.3900  143.4660 N   0  0  0  0  0  2  0  0  0  0  0  0
  196.7060  173.6190  142.0850 C   0  0  0  0  0  2  0  0  0  0  0  0
  197.0260  172.4070  141.2290 C   0  0  0  0  0  2  0  0  0  0  0  0
  195.1350  171.0510  140.6630 C   0  0  0  0  0  3  0  0  0  0  0  0
  195.8860  172.0650  140.4140 N   0  0  0  0  0  0  0  0  0  0  0  0
  195.3840  170.1190  141.8190 C   0  0  0  0  0  2  0  0  0  0  0  0
  194.5070  170.4310  143.0320 C   0  0  2  0  0  3  0  0  0  0  0  0
  194.3880  169.4390  145.2150 O   0  0  0  0  0  1  0  0  0  0  0  0
  195.1120  169.9360  144.3110 C   0  0  0  0  0  0  0  0  0  0  0  0
  196.4870  169.9990  144.4850 O   0  0  0  0  0  0  0  0  0  0  0  0
  193.0670  169.9610  142.8330 C   0  0  0  0  0  2  0  0  0  0  0  0
  190.0490  172.2790  144.2040 S   0  0  0  0  0  0  0  0  0  0  0  0
  192.1000  171.1380  142.8460 C   0  0  2  0  0  3  0  0  0  0  0  0
  191.6710  171.4620  144.2630 C   0  0  0  0  0  2  0  0  0  0  0  0
  189.8050  171.8260  142.4580 C   0  0  0  0  0  2  0  0  0  0  0  0
  190.8440  170.7910  142.0840 C   0  0  1  0  0  3  0  0  0  0  0  0
  191.0840  170.8470  140.7090 O   0  0  0  0  0  1  0  0  0  0  0  0
  1 23  1  6  0  0  0
  2  3  1  0  0  0  0
  4  1  1  0  0  0  0
  4  3  1  0  0  0  0
  5  1  1  0  0  0  0
  6  5  2  0  0  0  0
  6  2  1  0  0  0  0
  7 22  1  6  0  0  0
  7  9  1  0  0  0  0
  7 12  1  0  0  0  0
  8  6  1  0  0  0  0
  8 15  1  0  0  0  0
  9  8  2  0  0  0  0
 10 17  1  0  0  0  0
 10 11  1  0  0  0  0
 12 20  1  6  0  0  0
 12 14  1  0  0  0  0
 13 11  1  0  0  0  0
 14 10  2  0  0  0  0
 15 13  1  0  0  0  0
 16  9  1  0  0  0  0
 18 20  1  0  0  0  0
 19 20  2  0  0  0  0
 22 21  2  0  0  0  0
 23 25  1  0  0  0  0
 25 24  2  0  0  0  0
 26 25  1  0  0  0  0
 27 26  1  0  0  0  0
 28 27  1  0  0  0  0
 29 31  1  0  0  0  0
 30 29  2  0  0  0  0
 30 28  1  0  0  0  0
 32 31  1  6  0  0  0
 32 34  1  0  0  0  0
 34 35  2  0  0  0  0
 34 33  1  0  0  0  0
 36 32  1  0  0  0  0
 37 39  1  0  0  0  0
 38 36  1  1  0  0  0
 38 39  1  0  0  0  0
 40 37  1  0  0  0  0
 41 42  1  6  0  0  0
 41 40  1  0  0  0  0
 41 38  1  0  0  0  0
M  END
>  <MODEL>
9

>  <REMARK>
 VINA RESULT:      -5.7      2.073      3.042
  Name = 
  14 active torsions:
  status: ('A' for Active; 'I' for Inactive)
    1  A    between atoms: C_3  and  C_10
    2  A    between atoms: C_3  and  C_16
    3  A    between atoms: C_4  and  C_7
    4  A    between atoms: C_4  and  N_27
    5  A    between atoms: C_5  and  C_20
    6  A    between atoms: C_7  and  N_18
    7  A    between atoms: C_8  and  C_41
    8  A    between atoms: C_9  and  C_23
    9  A    between atoms: C_10  and  C_36
   10  A    between atoms: C_10  and  C_40
   11  A    between atoms: C_12  and  C_40
   12  A    between atoms: C_22  and  C_23
   13  A    between atoms: C_22  and  N_27
   14  A    between atoms: C_29  and  C_37
                            x       y       z     vdW  Elec       q    Type
                         _______ _______ _______ _____ _____    ______ ____

>  <TORSDO>
F 14

$$$$
