=
 OpenBabel11062419433D

 30 36  0  0  1  0  0  0  0  0999 V2000
  186.1970  177.8120  140.8790 C   0  0  0  0  0  0  0  0  0  0  0  0
  183.5070  178.5550  141.6940 C   0  0  0  0  0  2  0  0  0  0  0  0
  183.7550  177.7980  140.3900 C   0  0  0  0  0  2  0  0  0  0  0  0
  186.5610  178.3010  147.5400 C   0  0  2  0  0  3  0  0  0  0  0  0
  184.6480  178.3250  146.4280 C   0  0  0  0  0  2  0  0  0  0  0  0
  185.8700  177.9280  142.3150 C   0  0  0  0  0  0  0  0  0  0  0  0
  187.7490  177.4670  147.1110 C   0  0  2  0  0  3  0  0  0  0  0  0
  187.7440  177.4540  145.6070 C   0  0  2  0  0  0  0  0  0  0  0  0
  186.8330  177.6960  143.2930 C   0  0  0  0  0  3  0  0  0  0  0  0
  185.7870  177.9110  148.6390 O   0  0  0  0  0  0  0  0  0  0  0  0
  186.5470  177.7850  144.6630 C   0  0  0  0  0  0  0  0  0  0  0  0
  185.3780  177.4340  147.3770 C   0  0  2  0  0  3  0  0  0  0  0  0
  187.4600  176.2990  146.3600 O   0  0  0  0  0  0  0  0  0  0  0  0
  184.5670  178.2460  142.7130 C   0  0  0  0  0  0  0  0  0  0  0  0
  185.1490  178.1100  139.8480 C   0  0  0  0  0  2  0  0  0  0  0  0
  187.3600  177.5040  140.5080 O   0  0  0  0  0  0  0  0  0  0  0  0
  185.1820  178.1210  145.0210 C   0  0  0  0  0  0  0  0  0  0  0  0
  184.2730  178.3470  144.0320 N   0  0  0  0  0  0  0  0  0  0  0  0
  189.1580  177.4080  145.0210 C   0  0  0  0  0  2  0  0  0  0  0  0
  193.6560  174.8670  143.9430 C   0  0  0  0  0  2  0  0  0  0  0  0
  193.7300  173.1800  145.7370 C   0  0  0  0  0  1  0  0  0  0  0  0
  191.2330  176.9720  143.0480 C   0  0  0  0  0  2  0  0  0  0  0  0
  194.0360  175.5270  146.3590 C   0  0  0  0  0  1  0  0  0  0  0  0
  189.7060  175.9850  144.9650 C   0  0  2  0  0  3  0  0  0  0  0  0
  193.2880  174.5920  145.4180 C   0  0  0  0  0  0  0  0  0  0  0  0
  191.1930  175.9950  145.2460 C   0  0  1  0  0  3  0  0  0  0  0  0
  191.7740  174.6650  145.6840 C   0  0  0  0  0  2  0  0  0  0  0  0
  192.6020  176.6290  142.4570 C   0  0  0  0  0  2  0  0  0  0  0  0
  193.6490  176.3500  143.5390 C   0  0  0  0  0  2  0  0  0  0  0  0
  190.7120  175.7780  143.8300 C   0  0  2  0  0  3  0  0  0  0  0  0
  1  6  1  0  0  0  0
  2 14  1  0  0  0  0
  3  2  1  0  0  0  0
  4 10  1  1  0  0  0
  6 14  2  0  0  0  0
  6  9  1  0  0  0  0
  7 13  1  1  0  0  0
  7  4  1  0  0  0  0
  8 19  1  6  0  0  0
  8 13  1  0  0  0  0
  8  7  1  0  0  0  0
  9 11  2  0  0  0  0
 11 17  1  0  0  0  0
 11  8  1  0  0  0  0
 12  5  1  6  0  0  0
 12  4  1  0  0  0  0
 12 10  1  0  0  0  0
 14 18  1  0  0  0  0
 15  3  1  0  0  0  0
 15  1  1  0  0  0  0
 16  1  2  0  0  0  0
 17  5  1  0  0  0  0
 18 17  2  0  0  0  0
 20 25  1  0  0  0  0
 24 19  1  6  0  0  0
 24 26  1  0  0  0  0
 25 27  1  0  0  0  0
 25 21  1  0  0  0  0
 25 23  1  0  0  0  0
 26 27  1  1  0  0  0
 28 22  1  0  0  0  0
 28 29  1  0  0  0  0
 29 20  1  0  0  0  0
 30 22  1  6  0  0  0
 30 24  1  0  0  0  0
 30 26  1  0  0  0  0
M  END
>  <MODEL>
1

>  <REMARK>
 VINA RESULT:      -8.6      0.000      0.000
  Name = 
  2 active torsions:
  status: ('A' for Active; 'I' for Inactive)
    1  A    between atoms: C_1  and  C_12
    2  A    between atoms: C_1  and  C_14
                            x       y       z     vdW  Elec       q    Type
                         _______ _______ _______ _____ _____    ______ ____

>  <TORSDO>
F 2

$$$$
=
 OpenBabel11062419433D

 30 36  0  0  1  0  0  0  0  0999 V2000
  187.3900  176.5310  140.9650 C   0  0  0  0  0  0  0  0  0  0  0  0
  185.2770  178.4670  140.4770 C   0  0  0  0  0  2  0  0  0  0  0  0
  185.5650  177.3460  139.4790 C   0  0  0  0  0  2  0  0  0  0  0  0
  185.6510  178.6540  147.0650 C   0  0  2  0  0  3  0  0  0  0  0  0
  184.4860  179.1220  145.2430 C   0  0  0  0  0  2  0  0  0  0  0  0
  186.6910  177.1580  142.1050 C   0  0  0  0  0  0  0  0  0  0  0  0
  186.3690  177.3350  147.2630 C   0  0  2  0  0  3  0  0  0  0  0  0
  186.8710  176.9110  145.9100 C   0  0  2  0  0  0  0  0  0  0  0  0
  187.0310  176.8440  143.4170 C   0  0  0  0  0  3  0  0  0  0  0  0
  184.4640  178.9210  147.7560 O   0  0  0  0  0  0  0  0  0  0  0  0
  186.3750  177.4130  144.5190 C   0  0  0  0  0  0  0  0  0  0  0  0
  184.3350  178.3150  146.4890 C   0  0  2  0  0  3  0  0  0  0  0  0
  185.8380  176.2190  146.5690 O   0  0  0  0  0  0  0  0  0  0  0  0
  185.6460  178.0590  141.8760 C   0  0  0  0  0  0  0  0  0  0  0  0
  187.0300  176.9200  139.5620 C   0  0  0  0  0  2  0  0  0  0  0  0
  188.3160  175.6990  141.1570 O   0  0  0  0  0  0  0  0  0  0  0  0
  185.3020  178.3450  144.2250 C   0  0  0  0  0  0  0  0  0  0  0  0
  185.0070  178.6280  142.9260 N   0  0  0  0  0  0  0  0  0  0  0  0
  188.1970  176.1520  145.9940 C   0  0  0  0  0  2  0  0  0  0  0  0
  193.2910  175.5090  144.7720 C   0  0  0  0  0  2  0  0  0  0  0  0
  193.3610  176.3110  142.4430 C   0  0  0  0  0  1  0  0  0  0  0  0
  190.8510  175.6460  147.0370 C   0  0  0  0  0  2  0  0  0  0  0  0
  192.1730  174.2200  142.9000 C   0  0  0  0  0  1  0  0  0  0  0  0
  189.3240  176.8900  145.2770 C   0  0  2  0  0  3  0  0  0  0  0  0
  192.4870  175.6030  143.4570 C   0  0  0  0  0  0  0  0  0  0  0  0
  190.3100  175.8940  144.7060 C   0  0  1  0  0  3  0  0  0  0  0  0
  191.1950  176.4270  143.5970 C   0  0  0  0  0  2  0  0  0  0  0  0
  192.3110  175.1890  147.0880 C   0  0  0  0  0  2  0  0  0  0  0  0
  192.7480  174.4980  145.7930 C   0  0  0  0  0  2  0  0  0  0  0  0
  190.6890  176.6830  145.9380 C   0  0  2  0  0  3  0  0  0  0  0  0
  1 16  2  0  0  0  0
  1  6  1  0  0  0  0
  2 14  1  0  0  0  0
  3 15  1  0  0  0  0
  3  2  1  0  0  0  0
  4  7  1  0  0  0  0
  4 10  1  1  0  0  0
  6  9  1  0  0  0  0
  7 13  1  6  0  0  0
  8 19  1  6  0  0  0
  8 13  1  0  0  0  0
  8  7  1  0  0  0  0
  9 11  2  0  0  0  0
 11  8  1  0  0  0  0
 12  5  1  6  0  0  0
 12  4  1  0  0  0  0
 12 10  1  0  0  0  0
 14  6  2  0  0  0  0
 14 18  1  0  0  0  0
 15  1  1  0  0  0  0
 17 11  1  0  0  0  0
 17  5  1  0  0  0  0
 18 17  2  0  0  0  0
 20 29  1  0  0  0  0
 21 25  1  0  0  0  0
 22 28  1  0  0  0  0
 23 25  1  0  0  0  0
 24 30  1  0  0  0  0
 24 19  1  1  0  0  0
 25 27  1  0  0  0  0
 25 20  1  0  0  0  0
 26 27  1  6  0  0  0
 26 24  1  0  0  0  0
 26 30  1  0  0  0  0
 29 28  1  0  0  0  0
 30 22  1  1  0  0  0
M  END
>  <MODEL>
2

>  <REMARK>
 VINA RESULT:      -8.5      1.254      2.292
  Name = 
  2 active torsions:
  status: ('A' for Active; 'I' for Inactive)
    1  A    between atoms: C_1  and  C_12
    2  A    between atoms: C_1  and  C_14
                            x       y       z     vdW  Elec       q    Type
                         _______ _______ _______ _____ _____    ______ ____

>  <TORSDO>
F 2

$$$$
=
 OpenBabel11062419433D

 30 36  0  0  1  0  0  0  0  0999 V2000
  186.7140  177.2050  147.1150 C   0  0  0  0  0  0  0  0  0  0  0  0
  184.1350  178.2330  146.2560 C   0  0  0  0  0  2  0  0  0  0  0  0
  184.7700  178.6920  147.5680 C   0  0  0  0  0  2  0  0  0  0  0  0
  186.8110  176.5630  140.4580 C   0  0  2  0  0  3  0  0  0  0  0  0
  185.2550  177.7040  141.5410 C   0  0  0  0  0  2  0  0  0  0  0  0
  186.4060  177.3020  145.6750 C   0  0  0  0  0  0  0  0  0  0  0  0
  188.2550  176.5130  140.9100 C   0  0  2  0  0  3  0  0  0  0  0  0
  188.2360  176.5330  142.4140 C   0  0  2  0  0  0  0  0  0  0  0  0
  187.3280  176.9010  144.7130 C   0  0  0  0  0  3  0  0  0  0  0  0
  186.4460  177.3360  139.3500 O   0  0  0  0  0  0  0  0  0  0  0  0
  187.0680  176.9970  143.3380 C   0  0  0  0  0  0  0  0  0  0  0  0
  186.3890  177.9700  140.6080 C   0  0  2  0  0  3  0  0  0  0  0  0
  188.7180  177.6210  141.6630 O   0  0  0  0  0  0  0  0  0  0  0  0
  185.1820  177.8340  145.2550 C   0  0  0  0  0  0  0  0  0  0  0  0
  185.6840  177.6050  148.1290 C   0  0  0  0  0  2  0  0  0  0  0  0
  187.8220  176.7490  147.5060 O   0  0  0  0  0  0  0  0  0  0  0  0
  185.7820  177.5510  142.9580 C   0  0  0  0  0  0  0  0  0  0  0  0
  184.9070  177.9250  143.9320 N   0  0  0  0  0  0  0  0  0  0  0  0
  189.3820  175.7190  143.0210 C   0  0  0  0  0  2  0  0  0  0  0  0
  193.8460  175.6510  145.8340 C   0  0  0  0  0  2  0  0  0  0  0  0
  195.5040  176.4050  144.1740 C   0  0  0  0  0  1  0  0  0  0  0  0
  190.5190  175.5500  145.6790 C   0  0  0  0  0  2  0  0  0  0  0  0
  194.4910  174.2000  143.8600 C   0  0  0  0  0  1  0  0  0  0  0  0
  190.6300  176.5680  143.2430 C   0  0  2  0  0  3  0  0  0  0  0  0
  194.2190  175.6210  144.3350 C   0  0  0  0  0  0  0  0  0  0  0  0
  191.7900  175.6820  143.6400 C   0  0  1  0  0  3  0  0  0  0  0  0
  193.1630  176.2910  143.4380 C   0  0  0  0  0  2  0  0  0  0  0  0
  191.5310  175.2680  146.7920 C   0  0  0  0  0  2  0  0  0  0  0  0
  192.8060  174.6050  146.2640 C   0  0  0  0  0  2  0  0  0  0  0  0
  191.1220  176.5360  144.6920 C   0  0  2  0  0  3  0  0  0  0  0  0
  1 16  2  0  0  0  0
  1 15  1  0  0  0  0
  2  3  1  0  0  0  0
  3 15  1  0  0  0  0
  4 10  1  6  0  0  0
  4 12  1  0  0  0  0
  4  7  1  0  0  0  0
  5 17  1  0  0  0  0
  6  1  1  0  0  0  0
  7 13  1  6  0  0  0
  7  8  1  0  0  0  0
  8 19  1  1  0  0  0
  8 11  1  0  0  0  0
  9  6  2  0  0  0  0
 10 12  1  0  0  0  0
 11  9  1  0  0  0  0
 12  5  1  1  0  0  0
 13  8  1  0  0  0  0
 14  6  1  0  0  0  0
 14  2  1  0  0  0  0
 17 11  2  0  0  0  0
 17 18  1  0  0  0  0
 18 14  2  0  0  0  0
 20 29  1  0  0  0  0
 21 25  1  0  0  0  0
 22 28  1  0  0  0  0
 23 25  1  0  0  0  0
 24 19  1  1  0  0  0
 24 26  1  0  0  0  0
 24 30  1  0  0  0  0
 25 20  1  0  0  0  0
 26 27  1  6  0  0  0
 26 30  1  0  0  0  0
 27 25  1  0  0  0  0
 29 28  1  0  0  0  0
 30 22  1  1  0  0  0
M  END
>  <MODEL>
3

>  <REMARK>
 VINA RESULT:      -8.4      1.238      4.657
  Name = 
  2 active torsions:
  status: ('A' for Active; 'I' for Inactive)
    1  A    between atoms: C_1  and  C_12
    2  A    between atoms: C_1  and  C_14
                            x       y       z     vdW  Elec       q    Type
                         _______ _______ _______ _____ _____    ______ ____

>  <TORSDO>
F 2

$$$$
=
 OpenBabel11062419433D

 30 36  0  0  1  0  0  0  0  0999 V2000
  190.1640  172.9140  142.5080 C   0  0  0  0  0  0  0  0  0  0  0  0
  189.5300  173.3030  139.6980 C   0  0  0  0  0  2  0  0  0  0  0  0
  189.8210  171.9100  140.2560 C   0  0  0  0  0  2  0  0  0  0  0  0
  186.5700  178.5530  142.3880 C   0  0  2  0  0  3  0  0  0  0  0  0
  186.7700  177.2090  140.6410 C   0  0  0  0  0  2  0  0  0  0  0  0
  189.2930  174.0340  142.1000 C   0  0  0  0  0  0  0  0  0  0  0  0
  186.5130  178.0440  143.8120 C   0  0  2  0  0  3  0  0  0  0  0  0
  187.4180  176.8450  143.8770 C   0  0  2  0  0  0  0  0  0  0  0  0
  188.7720  174.9190  143.0390 C   0  0  0  0  0  3  0  0  0  0  0  0
  185.4080  179.0140  141.7570 O   0  0  0  0  0  0  0  0  0  0  0  0
  187.9310  175.9830  142.6820 C   0  0  0  0  0  0  0  0  0  0  0  0
  185.7130  177.6460  141.6000 C   0  0  2  0  0  3  0  0  0  0  0  0
  186.0200  176.7270  143.9910 O   0  0  0  0  0  0  0  0  0  0  0  0
  188.9520  174.2020  140.7540 C   0  0  0  0  0  0  0  0  0  0  0  0
  190.7440  172.0010  141.4680 C   0  0  0  0  0  2  0  0  0  0  0  0
  190.4600  172.7380  143.7200 O   0  0  0  0  0  0  0  0  0  0  0  0
  187.6120  176.1140  141.2730 C   0  0  0  0  0  0  0  0  0  0  0  0
  188.1490  175.2290  140.3870 N   0  0  0  0  0  0  0  0  0  0  0  0
  188.1050  176.7080  145.2380 C   0  0  0  0  0  2  0  0  0  0  0  0
  193.1670  175.9880  146.5440 C   0  0  0  0  0  2  0  0  0  0  0  0
  194.3350  177.1660  144.7220 C   0  0  0  0  0  1  0  0  0  0  0  0
  189.9300  175.8810  147.3290 C   0  0  0  0  0  2  0  0  0  0  0  0
  193.1440  175.1000  144.1720 C   0  0  0  0  0  1  0  0  0  0  0  0
  189.4140  177.4900  145.2980 C   0  0  2  0  0  3  0  0  0  0  0  0
  193.1020  176.3480  145.0440 C   0  0  0  0  0  0  0  0  0  0  0  0
  190.5840  176.5490  145.1120 C   0  0  1  0  0  3  0  0  0  0  0  0
  191.8790  177.2100  144.6830 C   0  0  0  0  0  2  0  0  0  0  0  0
  191.1950  175.3390  147.9990 C   0  0  0  0  0  2  0  0  0  0  0  0
  192.2280  174.8520  146.9790 C   0  0  0  0  0  2  0  0  0  0  0  0
  190.2900  177.0960  146.4900 C   0  0  2  0  0  3  0  0  0  0  0  0
  1 16  2  0  0  0  0
  2  3  1  0  0  0  0
  2 14  1  0  0  0  0
  3 15  1  0  0  0  0
  4 10  1  1  0  0  0
  4  7  1  0  0  0  0
  5 17  1  0  0  0  0
  6  1  1  0  0  0  0
  6  9  1  0  0  0  0
  7  8  1  0  0  0  0
  7 13  1  6  0  0  0
  8 13  1  0  0  0  0
  8 19  1  1  0  0  0
 11  9  2  0  0  0  0
 11  8  1  0  0  0  0
 12  5  1  6  0  0  0
 12 10  1  0  0  0  0
 12  4  1  0  0  0  0
 14  6  2  0  0  0  0
 15  1  1  0  0  0  0
 17 11  1  0  0  0  0
 18 14  1  0  0  0  0
 18 17  2  0  0  0  0
 20 29  1  0  0  0  0
 21 25  1  0  0  0  0
 22 28  1  0  0  0  0
 23 25  1  0  0  0  0
 24 19  1  1  0  0  0
 24 30  1  0  0  0  0
 25 20  1  0  0  0  0
 26 27  1  6  0  0  0
 26 24  1  0  0  0  0
 26 30  1  0  0  0  0
 27 25  1  0  0  0  0
 29 28  1  0  0  0  0
 30 22  1  1  0  0  0
M  END
>  <MODEL>
4

>  <REMARK>
 VINA RESULT:      -8.4      2.799      4.981
  Name = 
  2 active torsions:
  status: ('A' for Active; 'I' for Inactive)
    1  A    between atoms: C_1  and  C_12
    2  A    between atoms: C_1  and  C_14
                            x       y       z     vdW  Elec       q    Type
                         _______ _______ _______ _____ _____    ______ ____

>  <TORSDO>
F 2

$$$$
=
 OpenBabel11062419433D

 30 36  0  0  1  0  0  0  0  0999 V2000
  185.2730  177.7180  144.0900 C   0  0  0  0  0  0  0  0  0  0  0  0
  185.6320  178.8620  146.7390 C   0  0  0  0  0  2  0  0  0  0  0  0
  184.2360  178.5860  146.1810 C   0  0  0  0  0  2  0  0  0  0  0  0
  191.3530  175.6620  145.9710 C   0  0  2  0  0  3  0  0  0  0  0  0
  189.9240  176.6340  147.3530 C   0  0  0  0  0  2  0  0  0  0  0  0
  186.4870  177.4020  144.8690 C   0  0  0  0  0  0  0  0  0  0  0  0
  190.9160  174.7320  144.8590 C   0  0  2  0  0  3  0  0  0  0  0  0
  189.6050  175.2610  144.3470 C   0  0  2  0  0  0  0  0  0  0  0  0
  187.4740  176.5680  144.3530 C   0  0  0  0  0  3  0  0  0  0  0  0
  191.9470  175.1460  147.1280 O   0  0  0  0  0  0  0  0  0  0  0  0
  188.6310  176.2380  145.0750 C   0  0  0  0  0  0  0  0  0  0  0  0
  190.5450  175.2920  147.1480 C   0  0  2  0  0  3  0  0  0  0  0  0
  189.6900  174.0480  145.0550 O   0  0  0  0  0  0  0  0  0  0  0  0
  186.6460  177.9170  146.1590 C   0  0  0  0  0  0  0  0  0  0  0  0
  184.2460  178.6550  144.6560 C   0  0  0  0  0  2  0  0  0  0  0  0
  185.1060  177.2420  142.9360 O   0  0  0  0  0  0  0  0  0  0  0  0
  188.7480  176.8030  146.4070 C   0  0  0  0  0  0  0  0  0  0  0  0
  187.7610  177.6190  146.8690 N   0  0  0  0  0  0  0  0  0  0  0  0
  189.4280  175.0220  142.8450 C   0  0  0  0  0  2  0  0  0  0  0  0
  189.5790  171.7150  138.7350 C   0  0  0  0  0  2  0  0  0  0  0  0
  190.6650  169.7330  139.7170 C   0  0  0  0  0  1  0  0  0  0  0  0
  188.4370  174.4940  140.1750 C   0  0  0  0  0  2  0  0  0  0  0  0
  192.0170  171.7520  139.4220 C   0  0  0  0  0  1  0  0  0  0  0  0
  189.1840  173.5490  142.5260 C   0  0  2  0  0  3  0  0  0  0  0  0
  190.6240  171.2450  139.7720 C   0  0  0  0  0  0  0  0  0  0  0  0
  190.0350  173.1300  141.3480 C   0  0  1  0  0  3  0  0  0  0  0  0
  190.2600  171.6370  141.2140 C   0  0  0  0  0  2  0  0  0  0  0  0
  188.3820  173.9490  138.7460 C   0  0  0  0  0  2  0  0  0  0  0  0
  189.6610  173.2020  138.3600 C   0  0  0  0  0  2  0  0  0  0  0  0
  188.5510  173.3340  141.1500 C   0  0  2  0  0  3  0  0  0  0  0  0
  1 15  1  0  0  0  0
  1  6  1  0  0  0  0
  3  2  1  0  0  0  0
  4 10  1  1  0  0  0
  4 12  1  0  0  0  0
  6 14  1  0  0  0  0
  7 13  1  1  0  0  0
  7  4  1  0  0  0  0
  8 19  1  6  0  0  0
  8  7  1  0  0  0  0
  8 13  1  0  0  0  0
  8 11  1  0  0  0  0
  9  6  2  0  0  0  0
  9 11  1  0  0  0  0
 10 12  1  0  0  0  0
 11 17  2  0  0  0  0
 12  5  1  1  0  0  0
 14  2  1  0  0  0  0
 14 18  2  0  0  0  0
 15  3  1  0  0  0  0
 16  1  2  0  0  0  0
 17 18  1  0  0  0  0
 17  5  1  0  0  0  0
 20 25  1  0  0  0  0
 21 25  1  0  0  0  0
 23 25  1  0  0  0  0
 24 19  1  6  0  0  0
 25 27  1  0  0  0  0
 26 27  1  1  0  0  0
 26 24  1  0  0  0  0
 28 22  1  0  0  0  0
 29 20  1  0  0  0  0
 29 28  1  0  0  0  0
 30 22  1  6  0  0  0
 30 26  1  0  0  0  0
 30 24  1  0  0  0  0
M  END
>  <MODEL>
5

>  <REMARK>
 VINA RESULT:      -8.4      3.661      5.185
  Name = 
  2 active torsions:
  status: ('A' for Active; 'I' for Inactive)
    1  A    between atoms: C_1  and  C_12
    2  A    between atoms: C_1  and  C_14
                            x       y       z     vdW  Elec       q    Type
                         _______ _______ _______ _____ _____    ______ ____

>  <TORSDO>
F 2

$$$$
=
 OpenBabel11062419433D

 30 36  0  0  1  0  0  0  0  0999 V2000
  188.6100  174.9180  140.8160 C   0  0  0  0  0  0  0  0  0  0  0  0
  190.3220  172.5970  140.4470 C   0  0  0  0  0  2  0  0  0  0  0  0
  189.6440  173.2750  139.2560 C   0  0  0  0  0  2  0  0  0  0  0  0
  192.7410  175.0540  146.0750 C   0  0  2  0  0  3  0  0  0  0  0  0
  193.0360  173.7130  144.3400 C   0  0  0  0  0  2  0  0  0  0  0  0
  189.7220  174.6680  141.7560 C   0  0  0  0  0  0  0  0  0  0  0  0
  192.1740  176.4520  145.9450 C   0  0  2  0  0  3  0  0  0  0  0  0
  191.1520  176.4010  144.8420 C   0  0  2  0  0  0  0  0  0  0  0  0
  189.9630  175.5220  142.8280 C   0  0  0  0  0  3  0  0  0  0  0  0
  194.1080  174.8680  146.3080 O   0  0  0  0  0  0  0  0  0  0  0  0
  191.0190  175.3180  143.7270 C   0  0  0  0  0  0  0  0  0  0  0  0
  193.6950  174.9000  144.9600 C   0  0  2  0  0  3  0  0  0  0  0  0
  192.3670  177.0960  144.6970 O   0  0  0  0  0  0  0  0  0  0  0  0
  190.5730  173.5760  141.5590 C   0  0  0  0  0  0  0  0  0  0  0  0
  188.3490  173.9560  139.6950 C   0  0  0  0  0  2  0  0  0  0  0  0
  187.8510  175.9110  140.9680 O   0  0  0  0  0  0  0  0  0  0  0  0
  191.8690  174.1680  143.4800 C   0  0  0  0  0  0  0  0  0  0  0  0
  191.5930  173.3550  142.4230 N   0  0  0  0  0  0  0  0  0  0  0  0
  189.9840  177.3590  145.0870 C   0  0  0  0  0  2  0  0  0  0  0  0
  184.7590  177.9870  145.4820 C   0  0  0  0  0  2  0  0  0  0  0  0
  184.0910  178.1900  143.1190 C   0  0  0  0  0  1  0  0  0  0  0  0
  187.6870  177.1640  146.8420 C   0  0  0  0  0  2  0  0  0  0  0  0
  185.3910  180.0150  144.1020 C   0  0  0  0  0  1  0  0  0  0  0  0
  188.7000  176.8760  144.4180 C   0  0  2  0  0  3  0  0  0  0  0  0
  185.2040  178.5030  144.0960 C   0  0  0  0  0  0  0  0  0  0  0  0
  187.6200  177.9270  144.5610 C   0  0  1  0  0  3  0  0  0  0  0  0
  186.4750  177.8100  143.5740 C   0  0  0  0  0  2  0  0  0  0  0  0
  186.2960  177.4310  147.4190 C   0  0  0  0  0  2  0  0  0  0  0  0
  185.5590  178.5440  146.6690 C   0  0  0  0  0  2  0  0  0  0  0  0
  187.5500  176.6780  145.4080 C   0  0  2  0  0  3  0  0  0  0  0  0
  1 16  2  0  0  0  0
  1  6  1  0  0  0  0
  2 14  1  0  0  0  0
  3 15  1  0  0  0  0
  3  2  1  0  0  0  0
  4 10  1  1  0  0  0
  6  9  1  0  0  0  0
  7 13  1  6  0  0  0
  7  4  1  0  0  0  0
  8 19  1  1  0  0  0
  8  7  1  0  0  0  0
  9 11  2  0  0  0  0
 11  8  1  0  0  0  0
 12  5  1  1  0  0  0
 12  4  1  0  0  0  0
 12 10  1  0  0  0  0
 13  8  1  0  0  0  0
 14  6  2  0  0  0  0
 14 18  1  0  0  0  0
 15  1  1  0  0  0  0
 17 11  1  0  0  0  0
 17  5  1  0  0  0  0
 18 17  2  0  0  0  0
 20 29  1  0  0  0  0
 21 25  1  0  0  0  0
 22 28  1  0  0  0  0
 24 26  1  0  0  0  0
 24 19  1  1  0  0  0
 24 30  1  0  0  0  0
 25 23  1  0  0  0  0
 25 20  1  0  0  0  0
 26 27  1  6  0  0  0
 26 30  1  0  0  0  0
 27 25  1  0  0  0  0
 29 28  1  0  0  0  0
 30 22  1  1  0  0  0
M  END
>  <MODEL>
6

>  <REMARK>
 VINA RESULT:      -8.3      3.068      7.015
  Name = 
  2 active torsions:
  status: ('A' for Active; 'I' for Inactive)
    1  A    between atoms: C_1  and  C_12
    2  A    between atoms: C_1  and  C_14
                            x       y       z     vdW  Elec       q    Type
                         _______ _______ _______ _____ _____    ______ ____

>  <TORSDO>
F 2

$$$$
=
 OpenBabel11062419433D

 30 36  0  0  1  0  0  0  0  0999 V2000
  190.9440  176.0860  146.1560 C   0  0  0  0  0  0  0  0  0  0  0  0
  193.5630  175.5040  145.0360 C   0  0  0  0  0  2  0  0  0  0  0  0
  193.3230  175.4610  146.5450 C   0  0  0  0  0  2  0  0  0  0  0  0
  189.6550  173.9630  139.9460 C   0  0  2  0  0  3  0  0  0  0  0  0
  191.6470  173.7940  140.8920 C   0  0  0  0  0  2  0  0  0  0  0  0
  191.0520  175.5030  144.8030 C   0  0  0  0  0  0  0  0  0  0  0  0
  188.3630  173.8150  140.7210 C   0  0  2  0  0  3  0  0  0  0  0  0
  188.6090  174.4040  142.0830 C   0  0  2  0  0  0  0  0  0  0  0  0
  189.9170  175.2330  144.0440 C   0  0  0  0  0  3  0  0  0  0  0  0
  190.0930  172.9340  139.1040 O   0  0  0  0  0  0  0  0  0  0  0  0
  189.9880  174.6670  142.7630 C   0  0  0  0  0  0  0  0  0  0  0  0
  190.5460  172.8940  140.4380 C   0  0  2  0  0  3  0  0  0  0  0  0
  188.4200  173.0220  141.8950 O   0  0  0  0  0  0  0  0  0  0  0  0
  192.3070  175.1840  144.2760 C   0  0  0  0  0  0  0  0  0  0  0  0
  192.1870  176.4050  146.9330 C   0  0  0  0  0  2  0  0  0  0  0  0
  189.8180  176.3570  146.6520 O   0  0  0  0  0  0  0  0  0  0  0  0
  191.3150  174.3590  142.2630 C   0  0  0  0  0  0  0  0  0  0  0  0
  192.3980  174.6460  143.0360 N   0  0  0  0  0  0  0  0  0  0  0  0
  187.3580  175.0660  142.6650 C   0  0  0  0  0  2  0  0  0  0  0  0
  185.0010  179.3060  144.7440 C   0  0  0  0  0  2  0  0  0  0  0  0
  186.0000  179.3900  146.9950 C   0  0  0  0  0  1  0  0  0  0  0  0
  185.7650  177.4200  142.1060 C   0  0  0  0  0  2  0  0  0  0  0  0
  184.4700  177.5480  146.4890 C   0  0  0  0  0  1  0  0  0  0  0  0
  187.7000  176.2920  143.5070 C   0  0  2  0  0  3  0  0  0  0  0  0
  185.5530  178.4440  145.9010 C   0  0  0  0  0  0  0  0  0  0  0  0
  186.4850  176.7300  144.2950 C   0  0  1  0  0  3  0  0  0  0  0  0
  186.7780  177.6060  145.4970 C   0  0  0  0  0  2  0  0  0  0  0  0
  184.7890  178.5780  142.3250 C   0  0  0  0  0  2  0  0  0  0  0  0
  184.1510  178.5440  143.7160 C   0  0  0  0  0  2  0  0  0  0  0  0
  186.9140  177.5380  143.0930 C   0  0  2  0  0  3  0  0  0  0  0  0
  1 16  2  0  0  0  0
  1 15  1  0  0  0  0
  2  3  1  0  0  0  0
  3 15  1  0  0  0  0
  4 10  1  6  0  0  0
  4 12  1  0  0  0  0
  4  7  1  0  0  0  0
  5 17  1  0  0  0  0
  6  1  1  0  0  0  0
  7 13  1  1  0  0  0
  7  8  1  0  0  0  0
  8 19  1  1  0  0  0
  8 11  1  0  0  0  0
  9  6  2  0  0  0  0
 10 12  1  0  0  0  0
 11  9  1  0  0  0  0
 12  5  1  6  0  0  0
 13  8  1  0  0  0  0
 14  6  1  0  0  0  0
 14  2  1  0  0  0  0
 17 11  2  0  0  0  0
 17 18  1  0  0  0  0
 18 14  2  0  0  0  0
 20 25  1  0  0  0  0
 22 28  1  0  0  0  0
 24 19  1  6  0  0  0
 24 26  1  0  0  0  0
 25 23  1  0  0  0  0
 25 21  1  0  0  0  0
 26 27  1  1  0  0  0
 27 25  1  0  0  0  0
 28 29  1  0  0  0  0
 29 20  1  0  0  0  0
 30 22  1  6  0  0  0
 30 24  1  0  0  0  0
 30 26  1  0  0  0  0
M  END
>  <MODEL>
7

>  <REMARK>
 VINA RESULT:      -8.0      2.921      8.014
  Name = 
  2 active torsions:
  status: ('A' for Active; 'I' for Inactive)
    1  A    between atoms: C_1  and  C_12
    2  A    between atoms: C_1  and  C_14
                            x       y       z     vdW  Elec       q    Type
                         _______ _______ _______ _____ _____    ______ ____

>  <TORSDO>
F 2

$$$$
=
 OpenBabel11062419433D

 30 36  0  0  1  0  0  0  0  0999 V2000
  190.0320  173.7860  140.4950 C   0  0  0  0  0  0  0  0  0  0  0  0
  192.7530  173.2230  139.6380 C   0  0  0  0  0  2  0  0  0  0  0  0
  191.6790  173.6400  138.6340 C   0  0  0  0  0  2  0  0  0  0  0  0
  193.7540  174.9520  145.9290 C   0  0  2  0  0  3  0  0  0  0  0  0
  194.6180  174.6250  143.9180 C   0  0  0  0  0  2  0  0  0  0  0  0
  191.1580  174.0200  141.4220 C   0  0  0  0  0  0  0  0  0  0  0  0
  192.4420  175.6750  146.1510 C   0  0  2  0  0  3  0  0  0  0  0  0
  191.5540  175.3170  144.9910 C   0  0  2  0  0  0  0  0  0  0  0  0
  190.9410  174.5010  142.7100 C   0  0  0  0  0  3  0  0  0  0  0  0
  194.9670  175.5870  146.2230 O   0  0  0  0  0  0  0  0  0  0  0  0
  191.9910  174.7460  143.6070 C   0  0  0  0  0  0  0  0  0  0  0  0
  194.4780  175.7340  144.9080 C   0  0  2  0  0  3  0  0  0  0  0  0
  192.0670  176.6170  145.1600 O   0  0  0  0  0  0  0  0  0  0  0  0
  192.4720  173.7890  141.0010 C   0  0  0  0  0  0  0  0  0  0  0  0
  190.2950  173.2270  139.1280 C   0  0  0  0  0  2  0  0  0  0  0  0
  188.8460  174.0120  140.8540 O   0  0  0  0  0  0  0  0  0  0  0  0
  193.3330  174.4860  143.1210 C   0  0  0  0  0  0  0  0  0  0  0  0
  193.5000  174.0100  141.8560 N   0  0  0  0  0  0  0  0  0  0  0  0
  190.0780  175.2420  145.3910 C   0  0  0  0  0  2  0  0  0  0  0  0
  186.0730  178.6590  145.0230 C   0  0  0  0  0  2  0  0  0  0  0  0
  185.5640  179.1020  147.3930 C   0  0  0  0  0  1  0  0  0  0  0  0
  188.6040  177.0020  143.6260 C   0  0  0  0  0  2  0  0  0  0  0  0
  185.0590  176.8760  146.5110 C   0  0  0  0  0  1  0  0  0  0  0  0
  189.5930  176.5390  146.0320 C   0  0  2  0  0  3  0  0  0  0  0  0
  186.0470  178.0340  146.4360 C   0  0  0  0  0  0  0  0  0  0  0  0
  188.0840  176.6220  145.9440 C   0  0  1  0  0  3  0  0  0  0  0  0
  187.4360  177.5820  146.9210 C   0  0  0  0  0  2  0  0  0  0  0  0
  187.4450  177.8270  143.0610 C   0  0  0  0  0  2  0  0  0  0  0  0
  186.1570  177.6490  143.8690 C   0  0  0  0  0  2  0  0  0  0  0  0
  188.9250  177.4850  145.0310 C   0  0  2  0  0  3  0  0  0  0  0  0
  1 16  2  0  0  0  0
  1  6  1  0  0  0  0
  2 14  1  0  0  0  0
  3 15  1  0  0  0  0
  3  2  1  0  0  0  0
  4  7  1  0  0  0  0
  4 10  1  1  0  0  0
  6  9  1  0  0  0  0
  7 13  1  6  0  0  0
  8 13  1  0  0  0  0
  8 19  1  1  0  0  0
  8  7  1  0  0  0  0
  9 11  2  0  0  0  0
 11  8  1  0  0  0  0
 12  5  1  6  0  0  0
 12  4  1  0  0  0  0
 12 10  1  0  0  0  0
 14  6  2  0  0  0  0
 14 18  1  0  0  0  0
 15  1  1  0  0  0  0
 17 11  1  0  0  0  0
 17  5  1  0  0  0  0
 18 17  2  0  0  0  0
 20 25  1  0  0  0  0
 24 19  1  6  0  0  0
 25 23  1  0  0  0  0
 25 27  1  0  0  0  0
 25 21  1  0  0  0  0
 26 24  1  0  0  0  0
 26 27  1  1  0  0  0
 28 22  1  0  0  0  0
 28 29  1  0  0  0  0
 29 20  1  0  0  0  0
 30 22  1  6  0  0  0
 30 26  1  0  0  0  0
 30 24  1  0  0  0  0
M  END
>  <MODEL>
8

>  <REMARK>
 VINA RESULT:      -7.9      3.342      7.303
  Name = 
  2 active torsions:
  status: ('A' for Active; 'I' for Inactive)
    1  A    between atoms: C_1  and  C_12
    2  A    between atoms: C_1  and  C_14
                            x       y       z     vdW  Elec       q    Type
                         _______ _______ _______ _____ _____    ______ ____

>  <TORSDO>
F 2

$$$$
=
 OpenBabel11062419433D

 30 36  0  0  1  0  0  0  0  0999 V2000
  191.9500  175.4830  145.0400 C   0  0  0  0  0  0  0  0  0  0  0  0
  191.0260  176.3980  147.6400 C   0  0  0  0  0  2  0  0  0  0  0  0
  192.5060  176.4580  147.2630 C   0  0  0  0  0  2  0  0  0  0  0  0
  185.5610  177.1820  144.0210 C   0  0  2  0  0  3  0  0  0  0  0  0
  186.6610  177.6700  145.8790 C   0  0  0  0  0  2  0  0  0  0  0  0
  190.5850  176.0280  145.1840 C   0  0  0  0  0  0  0  0  0  0  0  0
  186.2190  177.1680  142.6580 C   0  0  2  0  0  3  0  0  0  0  0  0
  187.6230  176.6680  142.8630 C   0  0  2  0  0  0  0  0  0  0  0  0
  189.7230  176.1050  144.0950 C   0  0  0  0  0  3  0  0  0  0  0  0
  184.7110  178.2340  144.3830 O   0  0  0  0  0  0  0  0  0  0  0  0
  188.4270  176.6310  144.1990 C   0  0  0  0  0  0  0  0  0  0  0  0
  186.0760  178.3840  144.7060 C   0  0  2  0  0  3  0  0  0  0  0  0
  187.3550  178.0010  142.4980 O   0  0  0  0  0  0  0  0  0  0  0  0
  190.1490  176.5070  146.4240 C   0  0  0  0  0  0  0  0  0  0  0  0
  192.8410  175.3730  146.2420 C   0  0  0  0  0  2  0  0  0  0  0  0
  192.3630  175.0690  143.9240 O   0  0  0  0  0  0  0  0  0  0  0  0
  188.0240  177.1100  145.5080 C   0  0  0  0  0  0  0  0  0  0  0  0
  188.8970  177.0090  146.5480 N   0  0  0  0  0  0  0  0  0  0  0  0
  188.1290  175.8520  141.6710 C   0  0  0  0  0  2  0  0  0  0  0  0
  190.3090  171.3800  139.9100 C   0  0  0  0  0  2  0  0  0  0  0  0
  190.8160  170.2000  142.0130 C   0  0  0  0  0  1  0  0  0  0  0  0
  188.5660  174.1660  139.3570 C   0  0  0  0  0  2  0  0  0  0  0  0
  192.1070  172.2120  141.4890 C   0  0  0  0  0  1  0  0  0  0  0  0
  188.0950  174.3520  141.9500 C   0  0  2  0  0  3  0  0  0  0  0  0
  190.7280  171.5740  141.3840 C   0  0  0  0  0  0  0  0  0  0  0  0
  189.4180  173.7270  141.5640 C   0  0  1  0  0  3  0  0  0  0  0  0
  189.7040  172.3820  142.2010 C   0  0  0  0  0  2  0  0  0  0  0  0
  189.2200  173.1320  138.4370 C   0  0  0  0  0  2  0  0  0  0  0  0
  190.5390  172.6000  139.0050 C   0  0  0  0  0  2  0  0  0  0  0  0
  188.2120  173.5070  140.6800 C   0  0  2  0  0  3  0  0  0  0  0  0
  1  6  1  0  0  0  0
  1 15  1  0  0  0  0
  3  2  1  0  0  0  0
  4 10  1  6  0  0  0
  4 12  1  0  0  0  0
  6 14  1  0  0  0  0
  7 13  1  1  0  0  0
  7  8  1  0  0  0  0
  7  4  1  0  0  0  0
  8 19  1  6  0  0  0
  8 11  1  0  0  0  0
  9 11  1  0  0  0  0
  9  6  2  0  0  0  0
 10 12  1  0  0  0  0
 11 17  2  0  0  0  0
 12  5  1  1  0  0  0
 13  8  1  0  0  0  0
 14 18  2  0  0  0  0
 14  2  1  0  0  0  0
 15  3  1  0  0  0  0
 16  1  2  0  0  0  0
 17  5  1  0  0  0  0
 17 18  1  0  0  0  0
 20 25  1  0  0  0  0
 24 19  1  6  0  0  0
 25 23  1  0  0  0  0
 25 21  1  0  0  0  0
 25 27  1  0  0  0  0
 26 24  1  0  0  0  0
 26 27  1  1  0  0  0
 28 29  1  0  0  0  0
 28 22  1  0  0  0  0
 29 20  1  0  0  0  0
 30 22  1  6  0  0  0
 30 26  1  0  0  0  0
 30 24  1  0  0  0  0
M  END
>  <MODEL>
9

>  <REMARK>
 VINA RESULT:      -7.9      3.504      5.799
  Name = 
  2 active torsions:
  status: ('A' for Active; 'I' for Inactive)
    1  A    between atoms: C_1  and  C_12
    2  A    between atoms: C_1  and  C_14
                            x       y       z     vdW  Elec       q    Type
                         _______ _______ _______ _____ _____    ______ ____

>  <TORSDO>
F 2

$$$$
