=
 OpenBabel11072409143D

 39 41  0  0  1  0  0  0  0  0999 V2000
  189.0540  178.4300  142.7480 O   0  0  0  0  0  1  0  0  0  0  0  0
  188.0260  175.0390  141.8530 O   0  0  0  0  0  0  0  0  0  0  0  0
  188.2940  176.4270  141.6490 C   0  0  2  0  0  3  0  0  0  0  0  0
  188.7210  172.7820  141.9980 C   0  0  0  0  0  3  0  0  0  0  0  0
  189.0370  174.0740  141.8710 C   0  0  0  0  0  0  0  0  0  0  0  0
  187.3080  172.3200  142.0900 C   0  0  0  0  0  1  0  0  0  0  0  0
  190.7560  175.2290  142.9940 O   0  0  0  0  0  0  0  0  0  0  0  0
  190.6020  176.5910  142.6900 C   0  0  2  0  0  3  0  0  0  0  0  0
  191.4790  177.3900  143.6430 C   0  0  0  0  0  1  0  0  0  0  0  0
  189.1260  177.0320  142.8000 C   0  0  1  0  0  3  0  0  0  0  0  0
  190.4710  174.5370  141.8140 C   0  0  1  0  0  3  0  0  0  0  0  0
  186.7930  177.7590  140.2920 N   0  0  0  0  0  2  0  0  0  0  0  0
  187.0040  177.1500  141.4020 C   0  0  0  0  0  0  0  0  0  0  0  0
  185.9570  177.1390  142.4710 C   0  0  0  0  0  2  0  0  0  0  0  0
  185.1370  178.4280  142.4800 C   0  0  1  0  0  3  0  0  0  0  0  0
  183.7950  178.1290  142.7160 O   0  0  0  0  0  1  0  0  0  0  0  0
  185.6450  179.4520  143.5030 C   0  0  0  0  0  2  0  0  0  0  0  0
  185.0090  179.2970  144.8840 C   0  0  0  0  0  2  0  0  0  0  0  0
  185.1630  176.6030  145.8580 O   0  0  0  0  0  0  0  0  0  0  0  0
  186.0030  177.4380  146.2940 C   0  0  0  0  0  0  0  0  0  0  0  0
  185.9770  178.7990  145.8520 N   0  0  0  0  0  2  0  0  0  0  0  0
  187.0430  176.9980  147.2630 C   0  0  0  0  0  2  0  0  0  0  0  0
  188.3940  176.9360  146.5790 C   0  0  0  0  0  2  0  0  0  0  0  0
  189.7010  173.6260  145.7110 N   0  0  0  0  0  2  0  0  0  0  0  0
  188.5380  175.6580  145.9100 N   0  0  0  0  0  2  0  0  0  0  0  0
  189.5810  174.7710  146.2930 C   0  0  0  0  0  3  0  0  0  0  0  0
  191.5120  173.4430  141.5680 C   0  0  0  0  0  2  0  0  0  0  0  0
  192.1660  173.0150  142.8710 C   0  0  2  0  0  3  0  0  0  0  0  0
  193.6300  172.9300  142.6940 C   0  0  2  0  0  3  0  0  0  0  0  0
  192.8190  171.7810  142.6920 O   0  0  0  0  0  0  0  0  0  0  0  0
  194.2780  173.0670  143.9890 N   0  0  0  0  0  2  0  0  0  0  0  0
  194.6420  175.8350  145.2390 N   0  0  0  0  0  0  0  0  0  0  0  0
  196.4920  172.6430  145.8780 C   0  0  0  0  0  1  0  0  0  0  0  0
  194.4610  177.0440  146.0210 C   0  0  0  0  0  1  0  0  0  0  0  0
  196.2840  173.9400  145.1160 C   0  0  1  0  0  3  0  0  0  0  0  0
  195.5730  173.7080  143.7760 C   0  0  2  0  0  3  0  0  0  0  0  0
  195.2690  176.2360  143.9810 C   0  0  0  0  0  2  0  0  0  0  0  0
  195.5580  174.9740  145.9980 C   0  0  0  0  0  2  0  0  0  0  0  0
  195.3730  175.0360  143.0310 C   0  0  0  0  0  2  0  0  0  0  0  0
  2  5  1  0  0  0  0
  3 13  1  1  0  0  0
  3  2  1  0  0  0  0
  3 10  1  0  0  0  0
  4  6  1  0  0  0  0
  5  4  2  0  0  0  0
  8 10  1  0  0  0  0
  8  7  1  0  0  0  0
  8  9  1  1  0  0  0
 10  1  1  6  0  0  0
 11 27  1  1  0  0  0
 11  5  1  0  0  0  0
 11  7  1  0  0  0  0
 12 13  2  0  0  0  0
 13 14  1  0  0  0  0
 14 15  1  0  0  0  0
 15 16  1  1  0  0  0
 15 17  1  0  0  0  0
 17 18  1  0  0  0  0
 18 21  1  0  0  0  0
 19 20  2  0  0  0  0
 20 22  1  0  0  0  0
 21 20  1  0  0  0  0
 23 22  1  0  0  0  0
 24 26  2  0  0  0  0
 25 26  1  0  0  0  0
 25 23  1  0  0  0  0
 28 27  1  6  0  0  0
 29 28  1  0  0  0  0
 29 31  1  1  0  0  0
 30 29  1  0  0  0  0
 30 28  1  0  0  0  0
 32 38  1  0  0  0  0
 32 34  1  0  0  0  0
 35 33  1  1  0  0  0
 35 38  1  0  0  0  0
 36 31  1  1  0  0  0
 36 35  1  0  0  0  0
 37 32  1  0  0  0  0
 39 36  1  0  0  0  0
 39 37  1  0  0  0  0
M  END
>  <MODEL>
1

>  <REMARK>
 VINA RESULT:      -6.5      0.000      0.000
  Name = 
  13 active torsions:
  status: ('A' for Active; 'I' for Inactive)
    1  A    between atoms: C_2  and  C_15
    2  A    between atoms: C_2  and  C_36
    3  A    between atoms: C_6  and  C_27
    4  A    between atoms: C_6  and  N_38
    5  A    between atoms: C_8  and  C_29
    6  A    between atoms: C_9  and  C_11
    7  A    between atoms: C_9  and  C_34
    8  A    between atoms: C_11  and  C_29
    9  A    between atoms: N_18  and  C_20
   10  A    between atoms: N_18  and  C_32
   11  A    between atoms: C_21  and  C_27
   12  A    between atoms: C_30  and  C_34
   13  A    between atoms: C_30  and  N_35
                            x       y       z     vdW  Elec       q    Type
                         _______ _______ _______ _____ _____    ______ ____

>  <TORSDO>
F 13

$$$$
=
 OpenBabel11072409143D

 39 41  0  0  1  0  0  0  0  0999 V2000
  183.9120  178.6860  143.1360 O   0  0  0  0  0  1  0  0  0  0  0  0
  187.4620  177.9000  143.4980 O   0  0  0  0  0  0  0  0  0  0  0  0
  186.0600  177.7830  143.7420 C   0  0  2  0  0  3  0  0  0  0  0  0
  189.4030  177.4240  142.2310 C   0  0  0  0  0  3  0  0  0  0  0  0
  188.0780  177.3420  142.3730 C   0  0  0  0  0  0  0  0  0  0  0  0
  190.2700  178.0690  143.2580 C   0  0  0  0  0  1  0  0  0  0  0  0
  186.4490  177.7310  140.7170 O   0  0  0  0  0  0  0  0  0  0  0  0
  185.1990  177.7090  141.3560 C   0  0  2  0  0  3  0  0  0  0  0  0
  184.1650  178.2720  140.3930 C   0  0  0  0  0  1  0  0  0  0  0  0
  185.2220  178.5170  142.6720 C   0  0  1  0  0  3  0  0  0  0  0  0
  187.2040  176.7190  141.3140 C   0  0  1  0  0  3  0  0  0  0  0  0
  185.7300  179.4780  145.4410 N   0  0  0  0  0  2  0  0  0  0  0  0
  185.7610  178.2300  145.1420 C   0  0  0  0  0  0  0  0  0  0  0  0
  185.4850  177.1930  146.1840 C   0  0  0  0  0  2  0  0  0  0  0  0
  186.5790  177.1500  147.2500 C   0  0  1  0  0  3  0  0  0  0  0  0
  186.1080  176.4800  148.3790 O   0  0  0  0  0  1  0  0  0  0  0  0
  187.8760  176.5020  146.7470 C   0  0  0  0  0  2  0  0  0  0  0  0
  189.0910  177.4250  146.8390 C   0  0  0  0  0  2  0  0  0  0  0  0
  191.3150  176.7900  148.5360 O   0  0  0  0  0  0  0  0  0  0  0  0
  191.3780  176.4420  147.3250 C   0  0  0  0  0  0  0  0  0  0  0  0
  190.3040  176.7330  146.4240 N   0  0  0  0  0  2  0  0  0  0  0  0
  192.5740  175.7050  146.8320 C   0  0  0  0  0  2  0  0  0  0  0  0
  193.4030  176.6060  145.9390 C   0  0  0  0  0  2  0  0  0  0  0  0
  196.2190  175.7400  143.7610 N   0  0  0  0  0  2  0  0  0  0  0  0
  194.3810  175.8090  145.2250 N   0  0  0  0  0  2  0  0  0  0  0  0
  195.3370  176.4450  144.3850 C   0  0  0  0  0  3  0  0  0  0  0  0
  187.9350  175.8970  140.2510 C   0  0  0  0  0  2  0  0  0  0  0  0
  188.0200  174.4350  140.6590 C   0  0  2  0  0  3  0  0  0  0  0  0
  189.3570  173.8990  140.3330 C   0  0  2  0  0  3  0  0  0  0  0  0
  188.2380  173.6360  139.5220 O   0  0  0  0  0  0  0  0  0  0  0  0
  189.6290  172.7460  141.1760 N   0  0  0  0  0  2  0  0  0  0  0  0
  190.0030  173.3000  144.1600 N   0  0  0  0  0  0  0  0  0  0  0  0
  191.0860  170.3650  142.1040 C   0  0  0  0  0  1  0  0  0  0  0  0
  189.7750  173.4780  145.5830 C   0  0  0  0  0  1  0  0  0  0  0  0
  191.3090  171.7540  142.6760 C   0  0  1  0  0  3  0  0  0  0  0  0
  191.0070  172.8510  141.6470 C   0  0  2  0  0  3  0  0  0  0  0  0
  191.0310  174.2650  143.7740 C   0  0  0  0  0  2  0  0  0  0  0  0
  190.5120  171.9340  143.9820 C   0  0  0  0  0  2  0  0  0  0  0  0
  191.2390  174.2430  142.2550 C   0  0  0  0  0  2  0  0  0  0  0  0
  2  3  1  0  0  0  0
  3 13  1  1  0  0  0
  4  5  2  0  0  0  0
  4  6  1  0  0  0  0
  5  2  1  0  0  0  0
  7 11  1  0  0  0  0
  7  8  1  0  0  0  0
  8  9  1  6  0  0  0
  8 10  1  0  0  0  0
 10  1  1  1  0  0  0
 10  3  1  0  0  0  0
 11 27  1  6  0  0  0
 11  5  1  0  0  0  0
 13 12  2  0  0  0  0
 13 14  1  0  0  0  0
 14 15  1  0  0  0  0
 15 16  1  1  0  0  0
 17 18  1  0  0  0  0
 17 15  1  0  0  0  0
 20 19  2  0  0  0  0
 21 18  1  0  0  0  0
 21 20  1  0  0  0  0
 22 20  1  0  0  0  0
 23 22  1  0  0  0  0
 24 26  2  0  0  0  0
 25 23  1  0  0  0  0
 26 25  1  0  0  0  0
 28 27  1  6  0  0  0
 29 28  1  0  0  0  0
 29 31  1  1  0  0  0
 30 29  1  0  0  0  0
 30 28  1  0  0  0  0
 32 34  1  0  0  0  0
 35 33  1  6  0  0  0
 35 38  1  0  0  0  0
 36 31  1  1  0  0  0
 36 39  1  0  0  0  0
 36 35  1  0  0  0  0
 37 32  1  0  0  0  0
 38 32  1  0  0  0  0
 39 37  1  0  0  0  0
M  END
>  <MODEL>
2

>  <REMARK>
 VINA RESULT:      -6.3      2.280      5.386
  Name = 
  13 active torsions:
  status: ('A' for Active; 'I' for Inactive)
    1  A    between atoms: C_2  and  C_15
    2  A    between atoms: C_2  and  C_36
    3  A    between atoms: C_6  and  C_27
    4  A    between atoms: C_6  and  N_38
    5  A    between atoms: C_8  and  C_29
    6  A    between atoms: C_9  and  C_11
    7  A    between atoms: C_9  and  C_34
    8  A    between atoms: C_11  and  C_29
    9  A    between atoms: N_18  and  C_20
   10  A    between atoms: N_18  and  C_32
   11  A    between atoms: C_21  and  C_27
   12  A    between atoms: C_30  and  C_34
   13  A    between atoms: C_30  and  N_35
                            x       y       z     vdW  Elec       q    Type
                         _______ _______ _______ _____ _____    ______ ____

>  <TORSDO>
F 13

$$$$
=
 OpenBabel11072409143D

 39 41  0  0  1  0  0  0  0  0999 V2000
  183.8940  178.6720  143.1750 O   0  0  0  0  0  1  0  0  0  0  0  0
  187.4490  177.9050  143.5320 O   0  0  0  0  0  0  0  0  0  0  0  0
  186.0500  177.7970  143.7950 C   0  0  2  0  0  3  0  0  0  0  0  0
  189.3780  177.3790  142.2660 C   0  0  0  0  0  3  0  0  0  0  0  0
  188.0540  177.3020  142.4250 C   0  0  0  0  0  0  0  0  0  0  0  0
  190.2540  178.0660  143.2560 C   0  0  0  0  0  1  0  0  0  0  0  0
  186.4080  177.6210  140.7710 O   0  0  0  0  0  0  0  0  0  0  0  0
  185.1650  177.6240  141.4230 C   0  0  2  0  0  3  0  0  0  0  0  0
  184.1200  178.1460  140.4490 C   0  0  0  0  0  1  0  0  0  0  0  0
  185.2000  178.4850  142.7050 C   0  0  1  0  0  3  0  0  0  0  0  0
  187.1710  176.6350  141.4010 C   0  0  1  0  0  3  0  0  0  0  0  0
  185.8200  179.5550  145.4460 N   0  0  0  0  0  2  0  0  0  0  0  0
  185.7650  178.3000  145.1780 C   0  0  0  0  0  0  0  0  0  0  0  0
  185.4000  177.3140  146.2420 C   0  0  0  0  0  2  0  0  0  0  0  0
  186.4840  177.2050  147.3150 C   0  0  1  0  0  3  0  0  0  0  0  0
  186.0100  176.4450  148.3850 O   0  0  0  0  0  1  0  0  0  0  0  0
  187.7950  176.6150  146.7810 C   0  0  0  0  0  2  0  0  0  0  0  0
  189.0090  177.5130  147.0240 C   0  0  0  0  0  2  0  0  0  0  0  0
  191.1670  176.0800  148.2550 O   0  0  0  0  0  0  0  0  0  0  0  0
  191.2270  176.2840  147.0110 C   0  0  0  0  0  0  0  0  0  0  0  0
  190.1850  176.9970  146.3370 N   0  0  0  0  0  2  0  0  0  0  0  0
  192.3850  175.7630  146.2350 C   0  0  0  0  0  2  0  0  0  0  0  0
  191.8990  175.1310  144.9460 C   0  0  0  0  0  2  0  0  0  0  0  0
  189.6800  172.2180  144.8480 N   0  0  0  0  0  2  0  0  0  0  0  0
  191.3630  173.8130  145.2270 N   0  0  0  0  0  2  0  0  0  0  0  0
  190.1500  173.3960  144.6130 C   0  0  0  0  0  3  0  0  0  0  0  0
  187.8920  175.7700  140.3660 C   0  0  0  0  0  2  0  0  0  0  0  0
  188.3040  174.4360  140.9650 C   0  0  2  0  0  3  0  0  0  0  0  0
  189.4620  173.8900  140.2270 C   0  0  2  0  0  3  0  0  0  0  0  0
  188.1550  173.4180  140.0050 O   0  0  0  0  0  0  0  0  0  0  0  0
  190.1780  172.9570  141.0830 N   0  0  0  0  0  2  0  0  0  0  0  0
  192.8630  174.3870  141.3970 N   0  0  0  0  0  0  0  0  0  0  0  0
  191.9020  170.8630  142.2210 C   0  0  0  0  0  1  0  0  0  0  0  0
  193.9350  175.2510  141.8570 C   0  0  0  0  0  1  0  0  0  0  0  0
  192.4040  171.9230  141.2560 C   0  0  1  0  0  3  0  0  0  0  0  0
  191.2940  172.4120  140.3160 C   0  0  2  0  0  3  0  0  0  0  0  0
  193.0070  174.2710  139.9470 C   0  0  0  0  0  2  0  0  0  0  0  0
  193.0780  173.0770  142.0240 C   0  0  0  0  0  2  0  0  0  0  0  0
  191.8300  173.4850  139.3550 C   0  0  0  0  0  2  0  0  0  0  0  0
  2  3  1  0  0  0  0
  3 13  1  1  0  0  0
  4  5  2  0  0  0  0
  4  6  1  0  0  0  0
  5  2  1  0  0  0  0
  7 11  1  0  0  0  0
  7  8  1  0  0  0  0
  8  9  1  6  0  0  0
  8 10  1  0  0  0  0
 10  1  1  1  0  0  0
 10  3  1  0  0  0  0
 11 27  1  6  0  0  0
 11  5  1  0  0  0  0
 13 12  2  0  0  0  0
 13 14  1  0  0  0  0
 14 15  1  0  0  0  0
 15 16  1  1  0  0  0
 17 18  1  0  0  0  0
 17 15  1  0  0  0  0
 20 19  2  0  0  0  0
 21 20  1  0  0  0  0
 21 18  1  0  0  0  0
 22 20  1  0  0  0  0
 23 25  1  0  0  0  0
 23 22  1  0  0  0  0
 26 24  2  0  0  0  0
 26 25  1  0  0  0  0
 28 27  1  6  0  0  0
 29 28  1  0  0  0  0
 29 31  1  1  0  0  0
 30 29  1  0  0  0  0
 30 28  1  0  0  0  0
 32 34  1  0  0  0  0
 32 38  1  0  0  0  0
 35 38  1  0  0  0  0
 35 33  1  1  0  0  0
 36 31  1  1  0  0  0
 36 35  1  0  0  0  0
 37 32  1  0  0  0  0
 39 37  1  0  0  0  0
 39 36  1  0  0  0  0
M  END
>  <MODEL>
3

>  <REMARK>
 VINA RESULT:      -5.9      2.540      4.984
  Name = 
  13 active torsions:
  status: ('A' for Active; 'I' for Inactive)
    1  A    between atoms: C_2  and  C_15
    2  A    between atoms: C_2  and  C_36
    3  A    between atoms: C_6  and  C_27
    4  A    between atoms: C_6  and  N_38
    5  A    between atoms: C_8  and  C_29
    6  A    between atoms: C_9  and  C_11
    7  A    between atoms: C_9  and  C_34
    8  A    between atoms: C_11  and  C_29
    9  A    between atoms: N_18  and  C_20
   10  A    between atoms: N_18  and  C_32
   11  A    between atoms: C_21  and  C_27
   12  A    between atoms: C_30  and  C_34
   13  A    between atoms: C_30  and  N_35
                            x       y       z     vdW  Elec       q    Type
                         _______ _______ _______ _____ _____    ______ ____

>  <TORSDO>
F 13

$$$$
=
 OpenBabel11072409143D

 39 41  0  0  1  0  0  0  0  0999 V2000
  190.3140  175.3060  143.4180 O   0  0  0  0  0  1  0  0  0  0  0  0
  187.9220  175.6090  140.6730 O   0  0  0  0  0  0  0  0  0  0  0  0
  188.5170  175.0380  141.8380 C   0  0  2  0  0  3  0  0  0  0  0  0
  186.4840  177.1640  139.6170 C   0  0  0  0  0  3  0  0  0  0  0  0
  187.0670  176.7140  140.7310 C   0  0  0  0  0  0  0  0  0  0  0  0
  186.6860  176.5030  138.2970 C   0  0  0  0  0  1  0  0  0  0  0  0
  188.0990  178.0050  142.4100 O   0  0  0  0  0  0  0  0  0  0  0  0
  188.7280  177.1080  143.2900 C   0  0  2  0  0  3  0  0  0  0  0  0
  189.6630  177.9030  144.1870 C   0  0  0  0  0  1  0  0  0  0  0  0
  189.5000  176.0120  142.5230 C   0  0  1  0  0  3  0  0  0  0  0  0
  186.8850  177.4090  142.0570 C   0  0  1  0  0  3  0  0  0  0  0  0
  188.7980  172.6450  142.0990 N   0  0  0  0  0  2  0  0  0  0  0  0
  189.1370  173.7190  141.4820 C   0  0  0  0  0  0  0  0  0  0  0  0
  190.1520  173.6740  140.3840 C   0  0  0  0  0  2  0  0  0  0  0  0
  191.5040  173.1600  140.8770 C   0  0  1  0  0  3  0  0  0  0  0  0
  191.8080  171.9560  140.2410 O   0  0  0  0  0  1  0  0  0  0  0  0
  192.6380  174.1730  140.6720 C   0  0  0  0  0  2  0  0  0  0  0  0
  193.9490  173.7610  141.3410 C   0  0  0  0  0  2  0  0  0  0  0  0
  193.2510  174.1150  144.1010 O   0  0  0  0  0  0  0  0  0  0  0  0
  194.0600  174.9360  143.5860 C   0  0  0  0  0  0  0  0  0  0  0  0
  194.4450  174.8180  142.2130 N   0  0  0  0  0  2  0  0  0  0  0  0
  194.6330  176.0270  144.4200 C   0  0  0  0  0  2  0  0  0  0  0  0
  194.8300  175.5400  145.8420 C   0  0  0  0  0  2  0  0  0  0  0  0
  191.9190  176.7910  147.6810 N   0  0  0  0  0  2  0  0  0  0  0  0
  194.0260  176.3430  146.7430 N   0  0  0  0  0  2  0  0  0  0  0  0
  192.6330  176.0890  146.8680 C   0  0  0  0  0  3  0  0  0  0  0  0
  185.7490  178.4310  142.1200 C   0  0  0  0  0  2  0  0  0  0  0  0
  185.9430  179.3880  143.2840 C   0  0  2  0  0  3  0  0  0  0  0  0
  185.2480  178.8710  144.4810 C   0  0  2  0  0  3  0  0  0  0  0  0
  184.6970  179.8980  143.6920 O   0  0  0  0  0  0  0  0  0  0  0  0
  185.8560  179.4440  145.6710 N   0  0  0  0  0  2  0  0  0  0  0  0
  187.2490  176.9020  146.6490 N   0  0  0  0  0  0  0  0  0  0  0  0
  186.6990  180.1690  148.3940 C   0  0  0  0  0  1  0  0  0  0  0  0
  188.2010  175.8250  146.8480 C   0  0  0  0  0  1  0  0  0  0  0  0
  186.2580  178.7690  148.0030 C   0  0  1  0  0  3  0  0  0  0  0  0
  185.2640  178.7880  146.8350 C   0  0  2  0  0  3  0  0  0  0  0  0
  185.9160  176.3190  146.7920 C   0  0  0  0  0  2  0  0  0  0  0  0
  187.4820  177.8760  147.7230 C   0  0  0  0  0  2  0  0  0  0  0  0
  184.8390  177.3600  146.4600 C   0  0  0  0  0  2  0  0  0  0  0  0
  2  5  1  0  0  0  0
  2  3  1  0  0  0  0
  3 13  1  6  0  0  0
  3 10  1  0  0  0  0
  4  5  2  0  0  0  0
  5 11  1  0  0  0  0
  6  4  1  0  0  0  0
  7  8  1  0  0  0  0
  8  9  1  1  0  0  0
 10  8  1  0  0  0  0
 10  1  1  1  0  0  0
 11 27  1  6  0  0  0
 11  7  1  0  0  0  0
 13 12  2  0  0  0  0
 14 15  1  0  0  0  0
 14 13  1  0  0  0  0
 15 16  1  6  0  0  0
 17 15  1  0  0  0  0
 17 18  1  0  0  0  0
 18 21  1  0  0  0  0
 20 19  2  0  0  0  0
 20 22  1  0  0  0  0
 21 20  1  0  0  0  0
 22 23  1  0  0  0  0
 23 25  1  0  0  0  0
 25 26  1  0  0  0  0
 26 24  2  0  0  0  0
 28 27  1  6  0  0  0
 28 30  1  0  0  0  0
 28 29  1  0  0  0  0
 29 31  1  1  0  0  0
 30 29  1  0  0  0  0
 32 37  1  0  0  0  0
 32 34  1  0  0  0  0
 32 38  1  0  0  0  0
 35 33  1  6  0  0  0
 36 31  1  6  0  0  0
 36 35  1  0  0  0  0
 38 35  1  0  0  0  0
 39 37  1  0  0  0  0
 39 36  1  0  0  0  0
M  END
>  <MODEL>
4

>  <REMARK>
 VINA RESULT:      -5.8      1.982      7.776
  Name = 
  13 active torsions:
  status: ('A' for Active; 'I' for Inactive)
    1  A    between atoms: C_2  and  C_15
    2  A    between atoms: C_2  and  C_36
    3  A    between atoms: C_6  and  C_27
    4  A    between atoms: C_6  and  N_38
    5  A    between atoms: C_8  and  C_29
    6  A    between atoms: C_9  and  C_11
    7  A    between atoms: C_9  and  C_34
    8  A    between atoms: C_11  and  C_29
    9  A    between atoms: N_18  and  C_20
   10  A    between atoms: N_18  and  C_32
   11  A    between atoms: C_21  and  C_27
   12  A    between atoms: C_30  and  C_34
   13  A    between atoms: C_30  and  N_35
                            x       y       z     vdW  Elec       q    Type
                         _______ _______ _______ _____ _____    ______ ____

>  <TORSDO>
F 13

$$$$
=
 OpenBabel11072409143D

 39 41  0  0  1  0  0  0  0  0999 V2000
  186.0200  178.7660  144.9330 O   0  0  0  0  0  1  0  0  0  0  0  0
  188.1030  176.1060  143.5400 O   0  0  0  0  0  0  0  0  0  0  0  0
  187.6800  177.4470  143.7910 C   0  0  2  0  0  3  0  0  0  0  0  0
  189.2710  174.1410  144.1510 C   0  0  0  0  0  3  0  0  0  0  0  0
  188.8430  175.3660  144.4680 C   0  0  0  0  0  0  0  0  0  0  0  0
  189.0150  173.5360  142.8140 C   0  0  0  0  0  1  0  0  0  0  0  0
  187.8460  176.0390  146.4930 O   0  0  0  0  0  0  0  0  0  0  0  0
  187.3960  177.3570  146.3120 C   0  0  2  0  0  3  0  0  0  0  0  0
  186.4720  177.7050  147.4680 C   0  0  0  0  0  1  0  0  0  0  0  0
  186.6710  177.5270  144.9580 C   0  0  1  0  0  3  0  0  0  0  0  0
  189.0760  175.9590  145.8340 C   0  0  1  0  0  3  0  0  0  0  0  0
  187.8440  178.9460  141.8960 N   0  0  0  0  0  2  0  0  0  0  0  0
  187.1660  178.0520  142.5190 C   0  0  0  0  0  0  0  0  0  0  0  0
  185.8520  177.5840  141.9790 C   0  0  0  0  0  2  0  0  0  0  0  0
  185.5810  178.1360  140.5790 C   0  0  1  0  0  3  0  0  0  0  0  0
  186.0330  177.2280  139.6220 O   0  0  0  0  0  1  0  0  0  0  0  0
  184.1020  178.4680  140.3450 C   0  0  0  0  0  2  0  0  0  0  0  0
  183.2350  178.2950  141.5920 C   0  0  0  0  0  2  0  0  0  0  0  0
  180.9230  179.8490  140.9090 O   0  0  0  0  0  0  0  0  0  0  0  0
  180.8100  178.5920  140.9100 C   0  0  0  0  0  0  0  0  0  0  0  0
  181.9250  177.7590  141.2460 N   0  0  0  0  0  2  0  0  0  0  0  0
  179.5100  177.9690  140.5400 C   0  0  0  0  0  2  0  0  0  0  0  0
  178.3930  178.5780  141.3620 C   0  0  0  0  0  2  0  0  0  0  0  0
  178.4740  178.6320  145.0240 N   0  0  0  0  0  2  0  0  0  0  0  0
  178.4940  178.1140  142.7320 N   0  0  0  0  0  2  0  0  0  0  0  0
  178.4020  179.0440  143.8040 C   0  0  0  0  0  3  0  0  0  0  0  0
  190.1040  175.2340  146.7050 C   0  0  0  0  0  2  0  0  0  0  0  0
  191.5050  175.7610  146.4420 C   0  0  2  0  0  3  0  0  0  0  0  0
  192.4440  174.6320  146.2790 C   0  0  2  0  0  3  0  0  0  0  0  0
  192.3660  175.3610  147.4800 O   0  0  0  0  0  0  0  0  0  0  0  0
  193.5980  175.0770  145.5130 N   0  0  0  0  0  2  0  0  0  0  0  0
  194.7740  175.7240  142.7650 N   0  0  0  0  0  0  0  0  0  0  0  0
  196.3810  174.1590  145.7630 C   0  0  0  0  0  1  0  0  0  0  0  0
  195.3090  176.4180  141.6080 C   0  0  0  0  0  1  0  0  0  0  0  0
  195.5880  174.0720  144.4710 C   0  0  1  0  0  3  0  0  0  0  0  0
  194.0820  173.9410  144.7330 C   0  0  2  0  0  3  0  0  0  0  0  0
  194.0240  174.5760  142.2590 C   0  0  0  0  0  2  0  0  0  0  0  0
  195.9260  175.2590  143.5480 C   0  0  0  0  0  2  0  0  0  0  0  0
  193.3060  173.8590  143.4090 C   0  0  0  0  0  2  0  0  0  0  0  0
  2  3  1  0  0  0  0
  2  5  1  0  0  0  0
  3 13  1  6  0  0  0
  3 10  1  0  0  0  0
  4  5  2  0  0  0  0
  5 11  1  0  0  0  0
  6  4  1  0  0  0  0
  8  7  1  0  0  0  0
  8  9  1  1  0  0  0
 10  1  1  1  0  0  0
 10  8  1  0  0  0  0
 11  7  1  0  0  0  0
 11 27  1  1  0  0  0
 12 13  2  0  0  0  0
 14 13  1  0  0  0  0
 15 16  1  6  0  0  0
 15 14  1  0  0  0  0
 17 15  1  0  0  0  0
 17 18  1  0  0  0  0
 19 20  2  0  0  0  0
 20 21  1  0  0  0  0
 21 18  1  0  0  0  0
 22 20  1  0  0  0  0
 22 23  1  0  0  0  0
 23 25  1  0  0  0  0
 25 26  1  0  0  0  0
 26 24  2  0  0  0  0
 28 27  1  1  0  0  0
 28 30  1  0  0  0  0
 29 31  1  6  0  0  0
 29 28  1  0  0  0  0
 29 30  1  0  0  0  0
 32 38  1  0  0  0  0
 34 32  1  0  0  0  0
 35 36  1  0  0  0  0
 35 33  1  1  0  0  0
 36 31  1  6  0  0  0
 37 32  1  0  0  0  0
 37 39  1  0  0  0  0
 38 35  1  0  0  0  0
 39 36  1  0  0  0  0
M  END
>  <MODEL>
5

>  <REMARK>
 VINA RESULT:      -5.8      3.363      5.501
  Name = 
  13 active torsions:
  status: ('A' for Active; 'I' for Inactive)
    1  A    between atoms: C_2  and  C_15
    2  A    between atoms: C_2  and  C_36
    3  A    between atoms: C_6  and  C_27
    4  A    between atoms: C_6  and  N_38
    5  A    between atoms: C_8  and  C_29
    6  A    between atoms: C_9  and  C_11
    7  A    between atoms: C_9  and  C_34
    8  A    between atoms: C_11  and  C_29
    9  A    between atoms: N_18  and  C_20
   10  A    between atoms: N_18  and  C_32
   11  A    between atoms: C_21  and  C_27
   12  A    between atoms: C_30  and  C_34
   13  A    between atoms: C_30  and  N_35
                            x       y       z     vdW  Elec       q    Type
                         _______ _______ _______ _____ _____    ______ ____

>  <TORSDO>
F 13

$$$$
=
 OpenBabel11072409143D

 39 41  0  0  1  0  0  0  0  0999 V2000
  190.7520  172.7950  140.4310 O   0  0  0  0  0  1  0  0  0  0  0  0
  193.2730  172.9340  143.0730 O   0  0  0  0  0  0  0  0  0  0  0  0
  192.6020  173.3310  141.8770 C   0  0  2  0  0  3  0  0  0  0  0  0
  193.5060  172.9300  145.4270 C   0  0  0  0  0  3  0  0  0  0  0  0
  192.8000  173.2690  144.3460 C   0  0  0  0  0  0  0  0  0  0  0  0
  194.8160  172.2260  145.3280 C   0  0  0  0  0  1  0  0  0  0  0  0
  190.4750  173.0480  144.0450 O   0  0  0  0  0  0  0  0  0  0  0  0
  190.2020  173.3570  142.7030 C   0  0  2  0  0  3  0  0  0  0  0  0
  188.7800  172.9160  142.3950 C   0  0  0  0  0  1  0  0  0  0  0  0
  191.2090  172.6760  141.7490 C   0  0  1  0  0  3  0  0  0  0  0  0
  191.4600  173.9500  144.4560 C   0  0  1  0  0  3  0  0  0  0  0  0
  193.8460  171.8750  140.3930 N   0  0  0  0  0  2  0  0  0  0  0  0
  193.4910  173.0710  140.6980 C   0  0  0  0  0  0  0  0  0  0  0  0
  193.9500  174.2310  139.8730 C   0  0  0  0  0  2  0  0  0  0  0  0
  194.9830  173.8140  138.8270 C   0  0  1  0  0  3  0  0  0  0  0  0
  194.8400  174.6030  137.6850 O   0  0  0  0  0  1  0  0  0  0  0  0
  196.4240  173.8870  139.3490 C   0  0  0  0  0  2  0  0  0  0  0  0
  196.9130  175.3150  139.5870 C   0  0  0  0  0  2  0  0  0  0  0  0
  195.3600  177.0820  141.2290 O   0  0  0  0  0  0  0  0  0  0  0  0
  196.3120  176.4560  141.7710 C   0  0  0  0  0  0  0  0  0  0  0  0
  197.1280  175.5630  141.0070 N   0  0  0  0  0  2  0  0  0  0  0  0
  196.5770  176.6340  143.2250 C   0  0  0  0  0  2  0  0  0  0  0  0
  196.0820  175.4240  143.9920 C   0  0  0  0  0  2  0  0  0  0  0  0
  194.0290  176.8510  146.6690 N   0  0  0  0  0  2  0  0  0  0  0  0
  195.6590  175.8330  145.3170 N   0  0  0  0  0  2  0  0  0  0  0  0
  194.4150  176.5010  145.4900 C   0  0  0  0  0  3  0  0  0  0  0  0
  191.1200  174.5260  145.8310 C   0  0  0  0  0  2  0  0  0  0  0  0
  189.6210  174.4830  146.0820 C   0  0  2  0  0  3  0  0  0  0  0  0
  189.1780  175.7510  146.6970 C   0  0  2  0  0  3  0  0  0  0  0  0
  189.3670  174.5860  147.4620 O   0  0  0  0  0  0  0  0  0  0  0  0
  187.7600  175.9390  146.4370 N   0  0  0  0  0  2  0  0  0  0  0  0
  187.3110  176.3840  143.4450 N   0  0  0  0  0  0  0  0  0  0  0  0
  185.0640  177.1130  146.3490 C   0  0  0  0  0  1  0  0  0  0  0  0
  187.0610  176.1820  142.0290 C   0  0  0  0  0  1  0  0  0  0  0  0
  186.1720  177.4970  145.3850 C   0  0  1  0  0  3  0  0  0  0  0  0
  187.5620  177.3220  146.0110 C   0  0  2  0  0  3  0  0  0  0  0  0
  188.2300  177.5150  143.5540 C   0  0  0  0  0  2  0  0  0  0  0  0
  186.0220  176.7310  144.0570 C   0  0  0  0  0  2  0  0  0  0  0  0
  188.6610  177.7150  145.0120 C   0  0  0  0  0  2  0  0  0  0  0  0
  2  5  1  0  0  0  0
  3 13  1  6  0  0  0
  3  2  1  0  0  0  0
  5 11  1  0  0  0  0
  5  4  2  0  0  0  0
  6  4  1  0  0  0  0
  7 11  1  0  0  0  0
  8  9  1  6  0  0  0
  8  7  1  0  0  0  0
 10  1  1  6  0  0  0
 10  3  1  0  0  0  0
 10  8  1  0  0  0  0
 11 27  1  1  0  0  0
 12 13  2  0  0  0  0
 14 13  1  0  0  0  0
 15 16  1  6  0  0  0
 15 17  1  0  0  0  0
 15 14  1  0  0  0  0
 17 18  1  0  0  0  0
 18 21  1  0  0  0  0
 19 20  2  0  0  0  0
 20 22  1  0  0  0  0
 21 20  1  0  0  0  0
 22 23  1  0  0  0  0
 23 25  1  0  0  0  0
 25 26  1  0  0  0  0
 26 24  2  0  0  0  0
 28 27  1  1  0  0  0
 28 29  1  0  0  0  0
 28 30  1  0  0  0  0
 29 31  1  6  0  0  0
 29 30  1  0  0  0  0
 32 37  1  0  0  0  0
 32 38  1  0  0  0  0
 34 32  1  0  0  0  0
 35 36  1  0  0  0  0
 35 33  1  1  0  0  0
 36 31  1  6  0  0  0
 37 39  1  0  0  0  0
 38 35  1  0  0  0  0
 39 36  1  0  0  0  0
M  END
>  <MODEL>
6

>  <REMARK>
 VINA RESULT:      -5.8      2.616      8.359
  Name = 
  13 active torsions:
  status: ('A' for Active; 'I' for Inactive)
    1  A    between atoms: C_2  and  C_15
    2  A    between atoms: C_2  and  C_36
    3  A    between atoms: C_6  and  C_27
    4  A    between atoms: C_6  and  N_38
    5  A    between atoms: C_8  and  C_29
    6  A    between atoms: C_9  and  C_11
    7  A    between atoms: C_9  and  C_34
    8  A    between atoms: C_11  and  C_29
    9  A    between atoms: N_18  and  C_20
   10  A    between atoms: N_18  and  C_32
   11  A    between atoms: C_21  and  C_27
   12  A    between atoms: C_30  and  C_34
   13  A    between atoms: C_30  and  N_35
                            x       y       z     vdW  Elec       q    Type
                         _______ _______ _______ _____ _____    ______ ____

>  <TORSDO>
F 13

$$$$
=
 OpenBabel11072409143D

 39 41  0  0  1  0  0  0  0  0999 V2000
  195.5420  172.2760  142.5400 O   0  0  0  0  0  1  0  0  0  0  0  0
  192.1730  172.7040  143.8900 O   0  0  0  0  0  0  0  0  0  0  0  0
  193.4600  173.1060  143.4210 C   0  0  2  0  0  3  0  0  0  0  0  0
  189.9230  172.0750  143.5180 C   0  0  0  0  0  3  0  0  0  0  0  0
  191.1260  172.3790  143.0230 C   0  0  0  0  0  0  0  0  0  0  0  0
  189.6400  172.1020  144.9800 C   0  0  0  0  0  1  0  0  0  0  0  0
  192.2810  171.2440  141.3120 O   0  0  0  0  0  0  0  0  0  0  0  0
  193.5700  171.7980  141.2500 C   0  0  2  0  0  3  0  0  0  0  0  0
  194.4360  170.8860  140.3940 C   0  0  0  0  0  1  0  0  0  0  0  0
  194.1800  171.9730  142.6580 C   0  0  1  0  0  3  0  0  0  0  0  0
  191.4140  172.3150  141.5440 C   0  0  1  0  0  3  0  0  0  0  0  0
  194.7600  172.8670  145.4510 N   0  0  0  0  0  2  0  0  0  0  0  0
  194.2580  173.6520  144.5680 C   0  0  0  0  0  0  0  0  0  0  0  0
  194.4720  175.1300  144.6570 C   0  0  0  0  0  2  0  0  0  0  0  0
  193.7870  175.7320  145.8830 C   0  0  1  0  0  3  0  0  0  0  0  0
  194.3000  177.0060  146.1280 O   0  0  0  0  0  1  0  0  0  0  0  0
  192.2600  175.7880  145.7470 C   0  0  0  0  0  2  0  0  0  0  0  0
  191.5320  175.8530  147.0890 C   0  0  0  0  0  2  0  0  0  0  0  0
  188.7670  175.1190  146.8840 O   0  0  0  0  0  0  0  0  0  0  0  0
  189.0490  176.3480  146.9310 C   0  0  0  0  0  0  0  0  0  0  0  0
  190.4100  176.7810  147.0290 N   0  0  0  0  0  2  0  0  0  0  0  0
  187.9550  177.3560  146.9040 C   0  0  0  0  0  2  0  0  0  0  0  0
  186.6730  176.7130  146.4130 C   0  0  0  0  0  2  0  0  0  0  0  0
  185.5630  179.5820  144.4250 N   0  0  0  0  0  2  0  0  0  0  0  0
  185.8070  177.7320  145.8520 N   0  0  0  0  0  2  0  0  0  0  0  0
  186.3350  178.6860  144.9390 C   0  0  0  0  0  3  0  0  0  0  0  0
  190.1880  172.2200  140.6340 C   0  0  0  0  0  2  0  0  0  0  0  0
  189.8000  173.5900  140.1030 C   0  0  2  0  0  3  0  0  0  0  0  0
  188.4100  173.9050  140.4930 C   0  0  2  0  0  3  0  0  0  0  0  0
  188.7310  173.4630  139.1960 O   0  0  0  0  0  0  0  0  0  0  0  0
  188.2260  175.3480  140.4840 N   0  0  0  0  0  2  0  0  0  0  0  0
  189.6610  177.1490  142.4970 N   0  0  0  0  0  0  0  0  0  0  0  0
  186.5370  177.7550  140.5240 C   0  0  0  0  0  1  0  0  0  0  0  0
  190.6110  178.0380  143.1390 C   0  0  0  0  0  1  0  0  0  0  0  0
  187.2670  177.2290  141.7470 C   0  0  1  0  0  3  0  0  0  0  0  0
  187.4720  175.7100  141.6810 C   0  0  2  0  0  3  0  0  0  0  0  0
  189.1280  176.2760  143.5410 C   0  0  0  0  0  2  0  0  0  0  0  0
  188.5870  177.9940  141.9600 C   0  0  0  0  0  2  0  0  0  0  0  0
  188.2140  175.2070  142.9290 C   0  0  0  0  0  2  0  0  0  0  0  0
  3  2  1  0  0  0  0
  3 13  1  1  0  0  0
  4  6  1  0  0  0  0
  5  4  2  0  0  0  0
  5  2  1  0  0  0  0
  7 11  1  0  0  0  0
  8  9  1  6  0  0  0
  8  7  1  0  0  0  0
  8 10  1  0  0  0  0
 10  1  1  6  0  0  0
 10  3  1  0  0  0  0
 11 27  1  6  0  0  0
 11  5  1  0  0  0  0
 13 14  1  0  0  0  0
 13 12  2  0  0  0  0
 14 15  1  0  0  0  0
 15 16  1  6  0  0  0
 17 15  1  0  0  0  0
 17 18  1  0  0  0  0
 19 20  2  0  0  0  0
 20 21  1  0  0  0  0
 21 18  1  0  0  0  0
 22 20  1  0  0  0  0
 23 22  1  0  0  0  0
 24 26  2  0  0  0  0
 25 23  1  0  0  0  0
 26 25  1  0  0  0  0
 28 29  1  0  0  0  0
 28 27  1  1  0  0  0
 29 31  1  6  0  0  0
 30 28  1  0  0  0  0
 30 29  1  0  0  0  0
 32 34  1  0  0  0  0
 32 37  1  0  0  0  0
 35 33  1  6  0  0  0
 35 38  1  0  0  0  0
 36 31  1  6  0  0  0
 36 35  1  0  0  0  0
 36 39  1  0  0  0  0
 38 32  1  0  0  0  0
 39 37  1  0  0  0  0
M  END
>  <MODEL>
7

>  <REMARK>
 VINA RESULT:      -5.7      2.411      6.786
  Name = 
  13 active torsions:
  status: ('A' for Active; 'I' for Inactive)
    1  A    between atoms: C_2  and  C_15
    2  A    between atoms: C_2  and  C_36
    3  A    between atoms: C_6  and  C_27
    4  A    between atoms: C_6  and  N_38
    5  A    between atoms: C_8  and  C_29
    6  A    between atoms: C_9  and  C_11
    7  A    between atoms: C_9  and  C_34
    8  A    between atoms: C_11  and  C_29
    9  A    between atoms: N_18  and  C_20
   10  A    between atoms: N_18  and  C_32
   11  A    between atoms: C_21  and  C_27
   12  A    between atoms: C_30  and  C_34
   13  A    between atoms: C_30  and  N_35
                            x       y       z     vdW  Elec       q    Type
                         _______ _______ _______ _____ _____    ______ ____

>  <TORSDO>
F 13

$$$$
=
 OpenBabel11072409143D

 39 41  0  0  1  0  0  0  0  0999 V2000
  188.4100  177.5840  144.1980 O   0  0  0  0  0  1  0  0  0  0  0  0
  189.8620  177.3150  147.5410 O   0  0  0  0  0  0  0  0  0  0  0  0
  189.0250  176.9580  146.4410 C   0  0  2  0  0  3  0  0  0  0  0  0
  191.9390  177.2860  148.6740 C   0  0  0  0  0  3  0  0  0  0  0  0
  191.2210  176.9870  147.5890 C   0  0  0  0  0  0  0  0  0  0  0  0
  191.3330  177.9370  149.8690 C   0  0  0  0  0  1  0  0  0  0  0  0
  191.8490  177.3060  145.3410 O   0  0  0  0  0  0  0  0  0  0  0  0
  190.7210  177.0210  144.5540 C   0  0  2  0  0  3  0  0  0  0  0  0
  190.9880  177.5230  143.1440 C   0  0  0  0  0  1  0  0  0  0  0  0
  189.4460  177.6700  145.1370 C   0  0  1  0  0  3  0  0  0  0  0  0
  191.8490  176.3600  146.3700 C   0  0  1  0  0  3  0  0  0  0  0  0
  186.8480  176.2270  147.2130 N   0  0  0  0  0  2  0  0  0  0  0  0
  187.5910  177.1940  146.8110 C   0  0  0  0  0  0  0  0  0  0  0  0
  187.0430  178.5830  146.7180 C   0  0  0  0  0  2  0  0  0  0  0  0
  185.5770  178.5900  146.2850 C   0  0  1  0  0  3  0  0  0  0  0  0
  184.7820  179.0640  147.3280 O   0  0  0  0  0  1  0  0  0  0  0  0
  185.3350  179.4110  145.0120 C   0  0  0  0  0  2  0  0  0  0  0  0
  184.5710  178.6460  143.9310 C   0  0  0  0  0  2  0  0  0  0  0  0
  185.9840  178.1370  141.4880 O   0  0  0  0  0  0  0  0  0  0  0  0
  185.9470  177.2170  142.3510 C   0  0  0  0  0  0  0  0  0  0  0  0
  185.2540  177.4060  143.5890 N   0  0  0  0  0  2  0  0  0  0  0  0
  186.6450  175.9300  142.0860 C   0  0  0  0  0  2  0  0  0  0  0  0
  187.8180  176.1620  141.1550 C   0  0  0  0  0  2  0  0  0  0  0  0
  188.8770  172.6900  141.6500 N   0  0  0  0  0  2  0  0  0  0  0  0
  188.6080  174.9490  141.0630 N   0  0  0  0  0  2  0  0  0  0  0  0
  188.1850  173.7740  141.7440 C   0  0  0  0  0  3  0  0  0  0  0  0
  193.2520  175.7840  146.5690 C   0  0  0  0  0  2  0  0  0  0  0  0
  193.9990  175.7080  145.2480 C   0  0  2  0  0  3  0  0  0  0  0  0
  195.4320  175.4470  145.4960 C   0  0  2  0  0  3  0  0  0  0  0  0
  194.9590  176.7350  145.1850 O   0  0  0  0  0  0  0  0  0  0  0  0
  196.0210  174.8450  144.3100 N   0  0  0  0  0  2  0  0  0  0  0  0
  196.0280  171.8090  144.6810 N   0  0  0  0  0  0  0  0  0  0  0  0
  197.9410  173.9440  142.2720 C   0  0  0  0  0  1  0  0  0  0  0  0
  195.6590  170.4060  144.6780 C   0  0  0  0  0  1  0  0  0  0  0  0
  197.7770  173.2650  143.6210 C   0  0  1  0  0  3  0  0  0  0  0  0
  197.2940  174.2440  144.6990 C   0  0  2  0  0  3  0  0  0  0  0  0
  196.8160  172.0360  145.8910 C   0  0  0  0  0  2  0  0  0  0  0  0
  196.8660  172.0280  143.4950 C   0  0  0  0  0  2  0  0  0  0  0  0
  197.1340  173.5280  146.0490 C   0  0  0  0  0  2  0  0  0  0  0  0
  2  5  1  0  0  0  0
  3 13  1  1  0  0  0
  3  2  1  0  0  0  0
  4  6  1  0  0  0  0
  5  4  2  0  0  0  0
  7 11  1  0  0  0  0
  8  9  1  6  0  0  0
  8 10  1  0  0  0  0
  8  7  1  0  0  0  0
 10  1  1  6  0  0  0
 10  3  1  0  0  0  0
 11 27  1  1  0  0  0
 11  5  1  0  0  0  0
 13 12  2  0  0  0  0
 14 13  1  0  0  0  0
 15 14  1  0  0  0  0
 15 16  1  1  0  0  0
 17 15  1  0  0  0  0
 18 17  1  0  0  0  0
 19 20  2  0  0  0  0
 20 21  1  0  0  0  0
 21 18  1  0  0  0  0
 22 20  1  0  0  0  0
 23 22  1  0  0  0  0
 24 26  2  0  0  0  0
 25 23  1  0  0  0  0
 25 26  1  0  0  0  0
 28 29  1  0  0  0  0
 28 27  1  1  0  0  0
 29 31  1  6  0  0  0
 30 28  1  0  0  0  0
 30 29  1  0  0  0  0
 32 37  1  0  0  0  0
 34 32  1  0  0  0  0
 35 33  1  6  0  0  0
 35 36  1  0  0  0  0
 36 31  1  6  0  0  0
 36 39  1  0  0  0  0
 37 39  1  0  0  0  0
 38 35  1  0  0  0  0
 38 32  1  0  0  0  0
M  END
>  <MODEL>
8

>  <REMARK>
 VINA RESULT:      -5.7      2.428      4.836
  Name = 
  13 active torsions:
  status: ('A' for Active; 'I' for Inactive)
    1  A    between atoms: C_2  and  C_15
    2  A    between atoms: C_2  and  C_36
    3  A    between atoms: C_6  and  C_27
    4  A    between atoms: C_6  and  N_38
    5  A    between atoms: C_8  and  C_29
    6  A    between atoms: C_9  and  C_11
    7  A    between atoms: C_9  and  C_34
    8  A    between atoms: C_11  and  C_29
    9  A    between atoms: N_18  and  C_20
   10  A    between atoms: N_18  and  C_32
   11  A    between atoms: C_21  and  C_27
   12  A    between atoms: C_30  and  C_34
   13  A    between atoms: C_30  and  N_35
                            x       y       z     vdW  Elec       q    Type
                         _______ _______ _______ _____ _____    ______ ____

>  <TORSDO>
F 13

$$$$
=
 OpenBabel11072409143D

 39 41  0  0  1  0  0  0  0  0999 V2000
  184.2270  178.3240  144.7380 O   0  0  0  0  0  1  0  0  0  0  0  0
  187.8290  177.8400  144.3570 O   0  0  0  0  0  0  0  0  0  0  0  0
  186.5140  177.5760  144.8450 C   0  0  2  0  0  3  0  0  0  0  0  0
  189.5200  177.6490  142.7130 C   0  0  0  0  0  3  0  0  0  0  0  0
  188.2570  177.4340  143.0890 C   0  0  0  0  0  0  0  0  0  0  0  0
  190.5170  178.2850  143.6190 C   0  0  0  0  0  1  0  0  0  0  0  0
  186.3150  177.8060  141.8100 O   0  0  0  0  0  0  0  0  0  0  0  0
  185.2160  177.6170  142.6640 C   0  0  2  0  0  3  0  0  0  0  0  0
  183.9770  178.1590  141.9690 C   0  0  0  0  0  1  0  0  0  0  0  0
  185.4330  178.3140  144.0260 C   0  0  1  0  0  3  0  0  0  0  0  0
  187.2440  176.8220  142.1550 C   0  0  1  0  0  3  0  0  0  0  0  0
  185.8300  178.9090  146.7480 N   0  0  0  0  0  2  0  0  0  0  0  0
  186.4580  177.8780  146.3120 C   0  0  0  0  0  0  0  0  0  0  0  0
  187.1370  176.9460  147.2650 C   0  0  0  0  0  2  0  0  0  0  0  0
  188.5550  176.6000  146.8120 C   0  0  1  0  0  3  0  0  0  0  0  0
  189.4540  177.5310  147.3310 O   0  0  0  0  0  1  0  0  0  0  0  0
  188.9750  175.1770  147.2010 C   0  0  0  0  0  2  0  0  0  0  0  0
  189.5130  174.3590  146.0270 C   0  0  0  0  0  2  0  0  0  0  0  0
  190.9240  173.4530  143.6990 O   0  0  0  0  0  0  0  0  0  0  0  0
  191.3580  174.4790  144.2910 C   0  0  0  0  0  0  0  0  0  0  0  0
  190.7030  174.9800  145.4600 N   0  0  0  0  0  2  0  0  0  0  0  0
  192.5540  175.1860  143.7560 C   0  0  0  0  0  2  0  0  0  0  0  0
  193.8150  174.5720  144.3290 C   0  0  0  0  0  2  0  0  0  0  0  0
  194.1920  177.1660  146.8870 N   0  0  0  0  0  2  0  0  0  0  0  0
  194.1280  175.2050  145.5950 N   0  0  0  0  0  2  0  0  0  0  0  0
  193.9300  176.6030  145.7570 C   0  0  0  0  0  3  0  0  0  0  0  0
  187.8160  176.1590  140.9000 C   0  0  0  0  0  2  0  0  0  0  0  0
  188.6610  174.9490  141.2630 C   0  0  2  0  0  3  0  0  0  0  0  0
  188.1760  173.7610  140.5310 C   0  0  2  0  0  3  0  0  0  0  0  0
  187.8560  173.9760  141.8830 O   0  0  0  0  0  0  0  0  0  0  0  0
  189.2520  172.7870  140.4340 N   0  0  0  0  0  2  0  0  0  0  0  0
  191.0880  173.6470  138.1440 N   0  0  0  0  0  0  0  0  0  0  0  0
  190.8020  170.3470  139.8900 C   0  0  0  0  0  1  0  0  0  0  0  0
  192.1460  174.2620  137.3640 C   0  0  0  0  0  1  0  0  0  0  0  0
  190.3880  171.3300  138.8080 C   0  0  1  0  0  3  0  0  0  0  0  0
  189.0930  172.0680  139.1730 C   0  0  2  0  0  3  0  0  0  0  0  0
  189.9140  173.5700  137.2760 C   0  0  0  0  0  2  0  0  0  0  0  0
  191.5460  172.2930  138.4820 C   0  0  0  0  0  2  0  0  0  0  0  0
  188.7020  173.0560  138.0630 C   0  0  0  0  0  2  0  0  0  0  0  0
  2  3  1  0  0  0  0
  3 13  1  1  0  0  0
  4  5  2  0  0  0  0
  4  6  1  0  0  0  0
  5  2  1  0  0  0  0
  7 11  1  0  0  0  0
  7  8  1  0  0  0  0
  8  9  1  6  0  0  0
  8 10  1  0  0  0  0
 10  1  1  1  0  0  0
 10  3  1  0  0  0  0
 11 27  1  6  0  0  0
 11  5  1  0  0  0  0
 13 12  2  0  0  0  0
 13 14  1  0  0  0  0
 15 17  1  0  0  0  0
 15 14  1  0  0  0  0
 15 16  1  1  0  0  0
 18 17  1  0  0  0  0
 19 20  2  0  0  0  0
 20 21  1  0  0  0  0
 21 18  1  0  0  0  0
 22 20  1  0  0  0  0
 22 23  1  0  0  0  0
 23 25  1  0  0  0  0
 25 26  1  0  0  0  0
 26 24  2  0  0  0  0
 28 27  1  6  0  0  0
 28 30  1  0  0  0  0
 29 31  1  1  0  0  0
 29 28  1  0  0  0  0
 29 30  1  0  0  0  0
 32 38  1  0  0  0  0
 34 32  1  0  0  0  0
 35 36  1  0  0  0  0
 35 33  1  1  0  0  0
 36 31  1  1  0  0  0
 37 39  1  0  0  0  0
 37 32  1  0  0  0  0
 38 35  1  0  0  0  0
 39 36  1  0  0  0  0
M  END
>  <MODEL>
9

>  <REMARK>
 VINA RESULT:      -5.7      2.551      6.438
  Name = 
  13 active torsions:
  status: ('A' for Active; 'I' for Inactive)
    1  A    between atoms: C_2  and  C_15
    2  A    between atoms: C_2  and  C_36
    3  A    between atoms: C_6  and  C_27
    4  A    between atoms: C_6  and  N_38
    5  A    between atoms: C_8  and  C_29
    6  A    between atoms: C_9  and  C_11
    7  A    between atoms: C_9  and  C_34
    8  A    between atoms: C_11  and  C_29
    9  A    between atoms: N_18  and  C_20
   10  A    between atoms: N_18  and  C_32
   11  A    between atoms: C_21  and  C_27
   12  A    between atoms: C_30  and  C_34
   13  A    between atoms: C_30  and  N_35
                            x       y       z     vdW  Elec       q    Type
                         _______ _______ _______ _____ _____    ______ ____

>  <TORSDO>
F 13

$$$$
