=
 OpenBabel11062419193D

 50 52  0  0  1  0  0  0  0  0999 V2000
  194.2100  172.8790  143.5510 C   0  0  0  0  0  3  0  0  0  0  0  0
  193.6210  175.1960  144.4720 C   0  0  1  0  0  3  0  0  0  0  0  0
  196.7480  174.5060  141.4680 N   0  0  0  0  0  2  0  0  0  0  0  0
  195.6720  173.0930  143.2470 C   0  0  1  0  0  3  0  0  0  0  0  0
  195.0890  175.5550  144.6510 C   0  0  0  0  0  2  0  0  0  0  0  0
  195.7730  175.5380  143.3680 N   0  0  0  0  0  0  0  0  0  0  0  0
  196.0290  174.4480  142.7050 C   0  0  0  0  0  0  0  0  0  0  0  0
  196.9870  175.6960  140.7070 C   0  0  0  0  0  0  0  0  0  0  0  0
  193.3560  173.7590  144.1010 C   0  0  0  0  0  3  0  0  0  0  0  0
  196.3700  176.7630  140.9640 O   0  0  0  0  0  0  0  0  0  0  0  0
  190.8260  176.9050  144.5270 C   0  0  0  0  0  2  0  0  0  0  0  0
  192.8520  175.5550  145.7020 C   0  0  0  0  0  0  0  0  0  0  0  0
  188.4760  176.6870  145.4430 C   0  0  2  0  0  3  0  0  0  0  0  0
  189.7810  177.4820  145.4320 C   0  0  1  0  0  3  0  0  0  0  0  0
  189.8380  175.7620  147.1710 C   0  0  0  0  0  2  0  0  0  0  0  0
  191.6450  176.3040  145.5920 N   0  0  0  0  0  0  0  0  0  0  0  0
  190.6380  176.8780  146.5000 C   0  0  1  0  0  3  0  0  0  0  0  0
  193.2750  175.2130  146.8370 O   0  0  0  0  0  0  0  0  0  0  0  0
  188.7180  175.4080  146.2180 C   0  0  0  0  0  2  0  0  0  0  0  0
  187.7840  176.5390  144.0750 C   0  0  1  0  0  3  0  0  0  0  0  0
  187.9940  175.3320  143.3730 O   0  0  0  0  0  0  0  0  0  0  0  0
  187.3200  175.4190  142.2430 O   0  0  0  0  0  1  0  0  0  0  0  0
  186.3720  177.1400  143.9610 C   0  0  0  0  0  2  0  0  0  0  0  0
  186.3560  178.5490  143.4700 C   0  0  0  0  0  2  0  0  0  0  0  0
  186.5840  178.8120  142.2660 O   0  0  0  0  0  0  0  0  0  0  0  0
  186.6120  178.8170  142.1260 O   0  0  0  0  0 15  0  0  0  0  0  0
  185.6530  177.0500  145.2960 C   0  0  0  0  0  2  0  0  0  0  0  0
  184.4100  178.4060  146.8420 O   0  0  0  0  0  0  0  0  0  0  0  0
  185.7330  178.5350  147.2980 C   0  0  0  0  0  0  0  0  0  0  0  0
  185.9570  179.7890  147.8700 O   0  0  0  0  0  1  0  0  0  0  0  0
  186.1410  177.4130  148.0250 O   0  0  0  0  0  1  0  0  0  0  0  0
  185.4220  178.4470  145.8520 C   0  0  1  0  0  3  0  0  0  0  0  0
  197.9170  173.4740  144.6670 O   0  0  0  0  0  0  0  0  0  0  0  0
  197.3470  170.8920  144.2920 C   0  0  0  0  0  1  0  0  0  0  0  0
  195.9970  172.5710  145.8810 O   0  0  0  0  0  0  0  0  0  0  0  0
  196.7420  172.5420  144.5770 S   0  0  0  0  0  0  0  0  0  0  0  0
  197.9410  175.6520  139.5650 C   0  0  0  0  0  2  0  0  0  0  0  0
  197.6080  174.5320  138.6940 N   0  0  0  0  0  2  0  0  0  0  0  0
  194.6790  174.1100  136.5400 C   0  0  0  0  0  0  0  0  0  0  0  0
  195.8870  173.9270  137.2220 O   0  0  0  0  0  0  0  0  0  0  0  0
  196.6700  175.0200  137.6970 C   0  0  2  0  0  3  0  0  0  0  0  0
  197.4400  175.6760  136.5600 C   0  0  0  0  0  2  0  0  0  0  0  0
  194.6220  174.7990  135.4390 N   0  0  0  0  0  0  0  0  0  0  0  0
  196.4940  176.3930  135.6150 C   0  0  0  0  0  2  0  0  0  0  0  0
  195.7700  175.3780  134.7490 C   0  0  0  0  0  2  0  0  0  0  0  0
  193.6090  172.5760  137.9670 O   0  0  0  0  0  0  0  0  0  0  0  0
  193.4660  173.4520  137.0760 C   0  0  0  0  0  0  0  0  0  0  0  0
  192.1660  173.7320  136.6250 O   0  0  0  0  0  0  0  0  0  0  0  0
  191.2970  171.8560  135.6060 O   0  0  0  0  0  1  0  0  0  0  0  0
  191.0970  172.7950  136.6190 C   0  0  0  0  0  2  0  0  0  0  0  0
  1  9  2  0  0  0  0
  2  5  1  0  0  0  0
  2 12  1  1  0  0  0
  3  7  1  0  0  0  0
  4  1  1  0  0  0  0
  4 36  1  1  0  0  0
  6  5  1  0  0  0  0
  7  4  1  0  0  0  0
  7  6  2  0  0  0  0
  8 10  2  0  0  0  0
  8  3  1  0  0  0  0
  9  2  1  0  0  0  0
 11 16  1  0  0  0  0
 12 18  2  0  0  0  0
 13 20  1  6  0  0  0
 13 19  1  0  0  0  0
 14 11  1  6  0  0  0
 14 13  1  0  0  0  0
 14 17  1  0  0  0  0
 16 12  1  0  0  0  0
 16 17  1  0  0  0  0
 17 15  1  6  0  0  0
 19 15  1  0  0  0  0
 20 23  1  1  0  0  0
 21 20  1  0  0  0  0
 22 21  1  0  0  0  0
 23 27  1  0  0  0  0
 25 24  2  0  0  0  0
 28 29  1  0  0  0  0
 29 30  1  0  0  0  0
 29 31  1  0  0  0  0
 32 27  1  1  0  0  0
 32 28  1  0  0  0  0
 32 29  1  0  0  0  0
 34 36  1  0  0  0  0
 36 33  2  0  0  0  0
 36 35  2  0  0  0  0
 37  8  1  0  0  0  0
 38 37  1  0  0  0  0
 39 47  1  0  0  0  0
 39 40  1  0  0  0  0
 40 41  1  0  0  0  0
 41 38  1  1  0  0  0
 42 41  1  0  0  0  0
 43 39  2  0  0  0  0
 44 42  1  0  0  0  0
 45 43  1  0  0  0  0
 45 44  1  0  0  0  0
 47 46  2  0  0  0  0
 48 47  1  0  0  0  0
 49 50  1  0  0  0  0
 50 48  1  0  0  0  0
M  END
>  <MODEL>
1

>  <REMARK>
 VINA RESULT:      -7.2      0.000      0.000
  Name = 
  14 active torsions:
  status: ('A' for Active; 'I' for Inactive)
    1  A    between atoms: O_2  and  C_38
    2  A    between atoms: O_2  and  C_40
    3  A    between atoms: C_6  and  C_38
    4  A    between atoms: O_7  and  C_12
    5  A    between atoms: C_10  and  C_21
    6  A    between atoms: C_11  and  C_39
    7  A    between atoms: C_11  and  C_43
    8  A    between atoms: C_12  and  C_14
    9  A    between atoms: C_12  and  C_43
   10  A    between atoms: C_13  and  N_35
   11  A    between atoms: C_19  and  C_43
   12  A    between atoms: C_33  and  S_47
   13  A    between atoms: N_35  and  C_50
   14  A    between atoms: C_46  and  C_50
                            x       y       z     vdW  Elec       q    Type
                         _______ _______ _______ _____ _____    ______ ____

>  <TORSDO>
F 14

$$$$
=
 OpenBabel11062419193D

 50 52  0  0  1  0  0  0  0  0999 V2000
  192.0920  172.5640  139.6970 C   0  0  0  0  0  3  0  0  0  0  0  0
  190.2350  173.6490  141.0880 C   0  0  1  0  0  3  0  0  0  0  0  0
  193.0180  170.6500  142.6820 N   0  0  0  0  0  2  0  0  0  0  0  0
  192.1710  171.2230  140.3850 C   0  0  1  0  0  3  0  0  0  0  0  0
  189.8200  172.3070  141.6760 C   0  0  0  0  0  2  0  0  0  0  0  0
  190.9190  171.7250  142.4290 N   0  0  0  0  0  0  0  0  0  0  0  0
  191.9970  171.2500  141.8770 C   0  0  0  0  0  0  0  0  0  0  0  0
  193.1200  170.7640  144.1060 C   0  0  0  0  0  0  0  0  0  0  0  0
  191.2480  173.5720  139.9740 C   0  0  0  0  0  3  0  0  0  0  0  0
  192.4330  171.6080  144.7380 O   0  0  0  0  0  0  0  0  0  0  0  0
  188.1190  175.2130  143.0420 C   0  0  0  0  0  2  0  0  0  0  0  0
  189.0280  174.4020  140.6280 C   0  0  0  0  0  0  0  0  0  0  0  0
  187.0960  177.5160  143.2870 C   0  0  2  0  0  3  0  0  0  0  0  0
  186.8600  176.0240  143.0530 C   0  0  1  0  0  3  0  0  0  0  0  0
  187.1730  177.1870  140.9240 C   0  0  0  0  0  2  0  0  0  0  0  0
  188.1850  175.0430  141.5810 N   0  0  0  0  0  0  0  0  0  0  0  0
  186.9370  175.8230  141.5720 C   0  0  1  0  0  3  0  0  0  0  0  0
  188.7460  174.4590  139.4030 O   0  0  0  0  0  0  0  0  0  0  0  0
  187.6860  178.0960  142.0180 C   0  0  0  0  0  2  0  0  0  0  0  0
  187.8140  177.8710  144.6020 C   0  0  1  0  0  3  0  0  0  0  0  0
  187.0120  178.3240  145.6730 O   0  0  0  0  0  0  0  0  0  0  0  0
  185.8650  178.7200  145.1580 O   0  0  0  0  0  1  0  0  0  0  0  0
  189.0000  176.9720  144.9910 C   0  0  0  0  0  2  0  0  0  0  0  0
  189.0080  176.5740  146.4290 C   0  0  0  0  0  2  0  0  0  0  0  0
  188.6090  175.4400  146.7840 O   0  0  0  0  0  0  0  0  0  0  0  0
  188.5600  175.3060  146.7990 O   0  0  0  0  0 15  0  0  0  0  0  0
  190.3120  177.6510  144.6360 C   0  0  0  0  0  2  0  0  0  0  0  0
  191.6110  175.6320  144.5170 O   0  0  0  0  0  0  0  0  0  0  0  0
  192.5510  176.6330  144.2200 C   0  0  0  0  0  0  0  0  0  0  0  0
  193.8270  176.2840  144.6670 O   0  0  0  0  0  1  0  0  0  0  0  0
  192.4300  177.0810  142.9020 O   0  0  0  0  0  1  0  0  0  0  0  0
  191.4750  176.8580  145.2130 C   0  0  1  0  0  3  0  0  0  0  0  0
  190.7180  168.9770  140.5920 O   0  0  0  0  0  0  0  0  0  0  0  0
  192.1340  169.0970  138.3300 C   0  0  0  0  0  1  0  0  0  0  0  0
  189.9930  170.5960  138.9100 O   0  0  0  0  0  0  0  0  0  0  0  0
  191.1900  169.9660  139.5650 S   0  0  0  0  0  0  0  0  0  0  0  0
  194.0900  169.9050  144.8380 C   0  0  0  0  0  2  0  0  0  0  0  0
  195.4440  170.2100  144.3940 N   0  0  0  0  0  2  0  0  0  0  0  0
  196.0060  173.6460  143.2680 C   0  0  0  0  0  0  0  0  0  0  0  0
  196.0590  172.2570  143.4350 O   0  0  0  0  0  0  0  0  0  0  0  0
  195.6800  171.6200  144.6520 C   0  0  2  0  0  3  0  0  0  0  0  0
  196.7670  171.7640  145.7080 C   0  0  0  0  0  2  0  0  0  0  0  0
  196.6710  174.4470  144.0470 N   0  0  0  0  0  0  0  0  0  0  0  0
  196.8830  173.2060  146.1650 C   0  0  0  0  0  2  0  0  0  0  0  0
  197.5880  174.0250  145.1000 C   0  0  0  0  0  2  0  0  0  0  0  0
  193.9570  174.1240  142.2130 O   0  0  0  0  0  0  0  0  0  0  0  0
  195.2120  174.1860  142.1400 C   0  0  0  0  0  0  0  0  0  0  0  0
  195.7810  174.7380  140.9820 O   0  0  0  0  0  0  0  0  0  0  0  0
  196.1500  176.9390  141.5560 O   0  0  0  0  0  1  0  0  0  0  0  0
  195.6290  176.0920  140.5770 C   0  0  0  0  0  2  0  0  0  0  0  0
  1  9  2  0  0  0  0
  1  4  1  0  0  0  0
  2 12  1  6  0  0  0
  2  5  1  0  0  0  0
  3  8  1  0  0  0  0
  4 36  1  6  0  0  0
  4  7  1  0  0  0  0
  5  6  1  0  0  0  0
  7  6  2  0  0  0  0
  7  3  1  0  0  0  0
  8 10  2  0  0  0  0
  8 37  1  0  0  0  0
  9  2  1  0  0  0  0
 12 16  1  0  0  0  0
 13 20  1  1  0  0  0
 14 11  1  1  0  0  0
 14 13  1  0  0  0  0
 15 19  1  0  0  0  0
 16 11  1  0  0  0  0
 17 15  1  6  0  0  0
 17 16  1  0  0  0  0
 17 14  1  0  0  0  0
 18 12  2  0  0  0  0
 19 13  1  0  0  0  0
 20 23  1  1  0  0  0
 20 21  1  0  0  0  0
 22 21  1  0  0  0  0
 24 25  2  0  0  0  0
 27 23  1  0  0  0  0
 28 32  1  0  0  0  0
 29 28  1  0  0  0  0
 29 30  1  0  0  0  0
 29 32  1  0  0  0  0
 31 29  1  0  0  0  0
 32 27  1  6  0  0  0
 34 36  1  0  0  0  0
 35 36  2  0  0  0  0
 36 33  2  0  0  0  0
 38 37  1  0  0  0  0
 39 40  1  0  0  0  0
 39 43  2  0  0  0  0
 40 41  1  0  0  0  0
 41 38  1  6  0  0  0
 41 42  1  0  0  0  0
 42 44  1  0  0  0  0
 43 45  1  0  0  0  0
 45 44  1  0  0  0  0
 47 46  2  0  0  0  0
 47 39  1  0  0  0  0
 48 47  1  0  0  0  0
 50 48  1  0  0  0  0
 50 49  1  0  0  0  0
M  END
>  <MODEL>
2

>  <REMARK>
 VINA RESULT:      -7.0      3.334      6.824
  Name = 
  14 active torsions:
  status: ('A' for Active; 'I' for Inactive)
    1  A    between atoms: O_2  and  C_38
    2  A    between atoms: O_2  and  C_40
    3  A    between atoms: C_6  and  C_38
    4  A    between atoms: O_7  and  C_12
    5  A    between atoms: C_10  and  C_21
    6  A    between atoms: C_11  and  C_39
    7  A    between atoms: C_11  and  C_43
    8  A    between atoms: C_12  and  C_14
    9  A    between atoms: C_12  and  C_43
   10  A    between atoms: C_13  and  N_35
   11  A    between atoms: C_19  and  C_43
   12  A    between atoms: C_33  and  S_47
   13  A    between atoms: N_35  and  C_50
   14  A    between atoms: C_46  and  C_50
                            x       y       z     vdW  Elec       q    Type
                         _______ _______ _______ _____ _____    ______ ____

>  <TORSDO>
F 14

$$$$
=
 OpenBabel11062419193D

 50 52  0  0  1  0  0  0  0  0999 V2000
  193.1050  176.3420  143.1440 C   0  0  0  0  0  3  0  0  0  0  0  0
  192.4670  173.8610  143.1890 C   0  0  1  0  0  3  0  0  0  0  0  0
  190.5470  176.9020  145.7080 N   0  0  0  0  0  2  0  0  0  0  0  0
  192.7810  176.7100  144.5710 C   0  0  1  0  0  3  0  0  0  0  0  0
  192.4490  173.8400  144.7110 C   0  0  0  0  0  2  0  0  0  0  0  0
  191.4450  174.7620  145.2160 N   0  0  0  0  0  0  0  0  0  0  0  0
  191.5580  176.0560  145.1480 C   0  0  0  0  0  0  0  0  0  0  0  0
  189.2400  176.4730  146.1080 C   0  0  0  0  0  0  0  0  0  0  0  0
  193.0050  175.1290  142.5750 C   0  0  0  0  0  3  0  0  0  0  0  0
  188.8010  175.3420  145.7740 O   0  0  0  0  0  0  0  0  0  0  0  0
  191.2920  171.6210  141.1060 C   0  0  0  0  0  2  0  0  0  0  0  0
  193.2250  172.6820  142.6700 C   0  0  0  0  0  0  0  0  0  0  0  0
  191.9100  170.5740  138.8850 C   0  0  2  0  0  3  0  0  0  0  0  0
  191.6300  170.3600  140.3720 C   0  0  1  0  0  3  0  0  0  0  0  0
  194.0080  170.7990  140.0000 C   0  0  0  0  0  2  0  0  0  0  0  0
  192.6000  171.7780  141.7640 N   0  0  0  0  0  0  0  0  0  0  0  0
  192.9460  170.5290  141.0660 C   0  0  1  0  0  3  0  0  0  0  0  0
  194.4100  172.4750  143.0430 O   0  0  0  0  0  0  0  0  0  0  0  0
  193.2650  171.2390  138.7590 C   0  0  0  0  0  2  0  0  0  0  0  0
  190.7580  171.2080  138.0830 C   0  0  1  0  0  3  0  0  0  0  0  0
  189.5090  170.5480  138.1170 O   0  0  0  0  0  0  0  0  0  0  0  0
  189.7010  169.3300  137.6530 O   0  0  0  0  0  1  0  0  0  0  0  0
  190.7000  172.7450  138.0780 C   0  0  0  0  0  2  0  0  0  0  0  0
  189.3510  173.2980  138.3930 C   0  0  0  0  0  2  0  0  0  0  0  0
  189.1630  173.9850  139.4250 O   0  0  0  0  0  0  0  0  0  0  0  0
  189.1670  174.0600  139.5470 O   0  0  0  0  0 15  0  0  0  0  0  0
  191.1800  173.2840  136.7410 C   0  0  0  0  0  2  0  0  0  0  0  0
  193.1610  174.3980  135.9610 O   0  0  0  0  0  0  0  0  0  0  0  0
  192.1730  175.3910  135.8480 C   0  0  0  0  0  0  0  0  0  0  0  0
  192.7030  176.6650  136.0570 O   0  0  0  0  0  1  0  0  0  0  0  0
  191.3770  175.2010  134.7150 O   0  0  0  0  0  1  0  0  0  0  0  0
  192.1660  174.4200  136.9680 C   0  0  1  0  0  3  0  0  0  0  0  0
  194.8140  178.0100  145.7450 O   0  0  0  0  0  0  0  0  0  0  0  0
  195.4510  175.5200  145.0180 C   0  0  0  0  0  1  0  0  0  0  0  0
  193.8030  176.1870  147.0190 O   0  0  0  0  0  0  0  0  0  0  0  0
  194.2140  176.6370  145.6470 S   0  0  0  0  0  0  0  0  0  0  0  0
  188.3740  177.4010  146.8860 C   0  0  0  0  0  2  0  0  0  0  0  0
  187.0690  176.7880  147.0960 N   0  0  0  0  0  2  0  0  0  0  0  0
  186.4210  178.1910  143.7780 C   0  0  0  0  0  0  0  0  0  0  0  0
  186.9450  177.9180  145.0470 O   0  0  0  0  0  0  0  0  0  0  0  0
  186.1730  177.3120  146.0790 C   0  0  2  0  0  3  0  0  0  0  0  0
  185.2230  178.3170  146.7150 C   0  0  0  0  0  2  0  0  0  0  0  0
  185.3790  178.9540  143.6270 N   0  0  0  0  0  0  0  0  0  0  0  0
  184.1320  178.7160  145.7390 C   0  0  0  0  0  2  0  0  0  0  0  0
  184.6980  179.6680  144.7010 C   0  0  0  0  0  2  0  0  0  0  0  0
  186.8810  178.1370  141.4710 O   0  0  0  0  0  0  0  0  0  0  0  0
  187.1160  177.6280  142.5980 C   0  0  0  0  0  0  0  0  0  0  0  0
  188.0020  176.5410  142.6620 O   0  0  0  0  0  0  0  0  0  0  0  0
  189.9070  177.8310  142.5330 O   0  0  0  0  0  1  0  0  0  0  0  0
  189.3580  176.5820  142.2390 C   0  0  0  0  0  2  0  0  0  0  0  0
  1  4  1  0  0  0  0
  2 12  1  1  0  0  0
  2  5  1  0  0  0  0
  3  8  1  0  0  0  0
  4  7  1  0  0  0  0
  4 36  1  1  0  0  0
  5  6  1  0  0  0  0
  7  6  2  0  0  0  0
  7  3  1  0  0  0  0
  8 37  1  0  0  0  0
  9  1  2  0  0  0  0
  9  2  1  0  0  0  0
 10  8  2  0  0  0  0
 11 16  1  0  0  0  0
 12 18  2  0  0  0  0
 13 20  1  1  0  0  0
 13 14  1  0  0  0  0
 14 17  1  0  0  0  0
 14 11  1  1  0  0  0
 16 12  1  0  0  0  0
 17 15  1  6  0  0  0
 17 16  1  0  0  0  0
 19 13  1  0  0  0  0
 19 15  1  0  0  0  0
 20 23  1  1  0  0  0
 20 21  1  0  0  0  0
 22 21  1  0  0  0  0
 24 25  2  0  0  0  0
 27 23  1  0  0  0  0
 28 32  1  0  0  0  0
 29 28  1  0  0  0  0
 29 30  1  0  0  0  0
 29 32  1  0  0  0  0
 31 29  1  0  0  0  0
 32 27  1  6  0  0  0
 34 36  1  0  0  0  0
 36 33  2  0  0  0  0
 36 35  2  0  0  0  0
 37 38  1  0  0  0  0
 39 40  1  0  0  0  0
 40 41  1  0  0  0  0
 41 42  1  0  0  0  0
 41 38  1  1  0  0  0
 43 39  2  0  0  0  0
 43 45  1  0  0  0  0
 44 42  1  0  0  0  0
 45 44  1  0  0  0  0
 46 47  2  0  0  0  0
 47 48  1  0  0  0  0
 47 39  1  0  0  0  0
 50 49  1  0  0  0  0
 50 48  1  0  0  0  0
M  END
>  <MODEL>
3

>  <REMARK>
 VINA RESULT:      -7.0      3.158      9.555
  Name = 
  14 active torsions:
  status: ('A' for Active; 'I' for Inactive)
    1  A    between atoms: O_2  and  C_38
    2  A    between atoms: O_2  and  C_40
    3  A    between atoms: C_6  and  C_38
    4  A    between atoms: O_7  and  C_12
    5  A    between atoms: C_10  and  C_21
    6  A    between atoms: C_11  and  C_39
    7  A    between atoms: C_11  and  C_43
    8  A    between atoms: C_12  and  C_14
    9  A    between atoms: C_12  and  C_43
   10  A    between atoms: C_13  and  N_35
   11  A    between atoms: C_19  and  C_43
   12  A    between atoms: C_33  and  S_47
   13  A    between atoms: N_35  and  C_50
   14  A    between atoms: C_46  and  C_50
                            x       y       z     vdW  Elec       q    Type
                         _______ _______ _______ _____ _____    ______ ____

>  <TORSDO>
F 14

$$$$
=
 OpenBabel11062419193D

 50 52  0  0  1  0  0  0  0  0999 V2000
  191.3780  174.1470  144.9510 C   0  0  0  0  0  3  0  0  0  0  0  0
  193.0050  176.0110  144.2880 C   0  0  1  0  0  3  0  0  0  0  0  0
  188.9700  175.6070  142.6060 N   0  0  0  0  0  2  0  0  0  0  0  0
  190.6060  174.0170  143.6610 C   0  0  1  0  0  3  0  0  0  0  0  0
  192.6980  175.8250  142.8090 C   0  0  0  0  0  2  0  0  0  0  0  0
  191.2920  176.0890  142.5490 N   0  0  0  0  0  0  0  0  0  0  0  0
  190.3290  175.3040  142.9390 C   0  0  0  0  0  0  0  0  0  0  0  0
  188.5020  176.8670  142.1110 C   0  0  0  0  0  0  0  0  0  0  0  0
  192.4140  174.9660  145.2000 C   0  0  0  0  0  3  0  0  0  0  0  0
  189.2340  177.8910  142.1520 O   0  0  0  0  0  0  0  0  0  0  0  0
  195.2240  174.0050  142.9490 C   0  0  0  0  0  2  0  0  0  0  0  0
  194.4830  176.0930  144.4980 C   0  0  0  0  0  0  0  0  0  0  0  0
  197.3440  174.1540  141.5740 C   0  0  2  0  0  3  0  0  0  0  0  0
  196.6890  173.7000  142.8780 C   0  0  1  0  0  3  0  0  0  0  0  0
  197.5310  175.9880  143.0900 C   0  0  0  0  0  2  0  0  0  0  0  0
  195.3450  175.1580  143.8560 N   0  0  0  0  0  0  0  0  0  0  0  0
  196.7870  174.8650  143.8130 C   0  0  1  0  0  3  0  0  0  0  0  0
  194.9680  176.9760  145.2540 O   0  0  0  0  0  0  0  0  0  0  0  0
  197.4620  175.6630  141.6150 C   0  0  0  0  0  2  0  0  0  0  0  0
  196.7450  173.5470  140.2910 C   0  0  1  0  0  3  0  0  0  0  0  0
  196.0010  172.3550  140.4270 O   0  0  0  0  0  0  0  0  0  0  0  0
  196.7690  171.3690  140.0070 O   0  0  0  0  0  1  0  0  0  0  0  0
  196.2160  174.5490  139.2510 C   0  0  0  0  0  2  0  0  0  0  0  0
  194.8280  174.2580  138.7870 C   0  0  0  0  0  2  0  0  0  0  0  0
  193.8580  174.9400  139.1950 O   0  0  0  0  0  0  0  0  0  0  0  0
  193.7650  175.0310  139.2550 O   0  0  0  0  0 15  0  0  0  0  0  0
  197.1550  174.6150  138.0590 C   0  0  0  0  0  2  0  0  0  0  0  0
  197.5250  175.9690  136.1080 O   0  0  0  0  0  0  0  0  0  0  0  0
  196.8050  174.8730  135.6020 C   0  0  0  0  0  0  0  0  0  0  0  0
  195.9990  175.2450  134.5250 O   0  0  0  0  0  1  0  0  0  0  0  0
  197.6190  173.7490  135.4410 O   0  0  0  0  0  1  0  0  0  0  0  0
  196.5170  175.4310  136.9450 C   0  0  1  0  0  3  0  0  0  0  0  0
  190.1140  171.8000  142.2330 O   0  0  0  0  0  0  0  0  0  0  0  0
  192.5070  171.7640  143.4190 C   0  0  0  0  0  1  0  0  0  0  0  0
  191.8170  173.3130  141.3480 O   0  0  0  0  0  0  0  0  0  0  0  0
  191.2440  172.7170  142.6020 S   0  0  0  0  0  0  0  0  0  0  0  0
  187.1120  176.9750  141.5880 C   0  0  0  0  0  2  0  0  0  0  0  0
  186.1690  176.5710  142.6230 N   0  0  0  0  0  2  0  0  0  0  0  0
  187.2280  177.0630  146.0920 C   0  0  0  0  0  0  0  0  0  0  0  0
  186.6280  176.5850  144.9210 O   0  0  0  0  0  0  0  0  0  0  0  0
  186.4070  177.4130  143.7830 C   0  0  2  0  0  3  0  0  0  0  0  0
  185.2090  178.3280  143.9950 C   0  0  0  0  0  2  0  0  0  0  0  0
  186.7210  178.0610  146.7530 N   0  0  0  0  0  0  0  0  0  0  0  0
  185.5120  179.3720  145.0530 C   0  0  0  0  0  2  0  0  0  0  0  0
  185.4680  178.7330  146.4290 C   0  0  0  0  0  2  0  0  0  0  0  0
  188.2890  175.2450  147.1460 O   0  0  0  0  0  0  0  0  0  0  0  0
  188.4350  176.3660  146.5940 C   0  0  0  0  0  0  0  0  0  0  0  0
  189.7310  176.9010  146.5130 O   0  0  0  0  0  0  0  0  0  0  0  0
  191.4150  176.6010  148.0570 O   0  0  0  0  0  1  0  0  0  0  0  0
  190.4320  177.4810  147.6050 C   0  0  0  0  0  2  0  0  0  0  0  0
  1  9  2  0  0  0  0
  2 12  1  6  0  0  0
  2  9  1  0  0  0  0
  3  7  1  0  0  0  0
  4 36  1  6  0  0  0
  4  1  1  0  0  0  0
  5  2  1  0  0  0  0
  6  5  1  0  0  0  0
  6  7  2  0  0  0  0
  7  4  1  0  0  0  0
  8 10  2  0  0  0  0
  8  3  1  0  0  0  0
 11 16  1  0  0  0  0
 12 18  2  0  0  0  0
 13 20  1  6  0  0  0
 13 19  1  0  0  0  0
 13 14  1  0  0  0  0
 14 11  1  6  0  0  0
 14 17  1  0  0  0  0
 16 12  1  0  0  0  0
 17 15  1  6  0  0  0
 17 16  1  0  0  0  0
 19 15  1  0  0  0  0
 20 23  1  1  0  0  0
 20 21  1  0  0  0  0
 22 21  1  0  0  0  0
 24 25  2  0  0  0  0
 27 23  1  0  0  0  0
 28 32  1  0  0  0  0
 29 28  1  0  0  0  0
 29 32  1  0  0  0  0
 30 29  1  0  0  0  0
 31 29  1  0  0  0  0
 32 27  1  1  0  0  0
 33 36  2  0  0  0  0
 35 36  2  0  0  0  0
 36 34  1  0  0  0  0
 37  8  1  0  0  0  0
 37 38  1  0  0  0  0
 39 47  1  0  0  0  0
 39 43  2  0  0  0  0
 40 39  1  0  0  0  0
 41 38  1  6  0  0  0
 41 42  1  0  0  0  0
 41 40  1  0  0  0  0
 42 44  1  0  0  0  0
 44 45  1  0  0  0  0
 45 43  1  0  0  0  0
 47 46  2  0  0  0  0
 48 47  1  0  0  0  0
 48 50  1  0  0  0  0
 50 49  1  0  0  0  0
M  END
>  <MODEL>
4

>  <REMARK>
 VINA RESULT:      -6.8      2.909     10.457
  Name = 
  14 active torsions:
  status: ('A' for Active; 'I' for Inactive)
    1  A    between atoms: O_2  and  C_38
    2  A    between atoms: O_2  and  C_40
    3  A    between atoms: C_6  and  C_38
    4  A    between atoms: O_7  and  C_12
    5  A    between atoms: C_10  and  C_21
    6  A    between atoms: C_11  and  C_39
    7  A    between atoms: C_11  and  C_43
    8  A    between atoms: C_12  and  C_14
    9  A    between atoms: C_12  and  C_43
   10  A    between atoms: C_13  and  N_35
   11  A    between atoms: C_19  and  C_43
   12  A    between atoms: C_33  and  S_47
   13  A    between atoms: N_35  and  C_50
   14  A    between atoms: C_46  and  C_50
                            x       y       z     vdW  Elec       q    Type
                         _______ _______ _______ _____ _____    ______ ____

>  <TORSDO>
F 14

$$$$
=
 OpenBabel11062419193D

 50 52  0  0  1  0  0  0  0  0999 V2000
  193.2100  175.9600  143.1660 C   0  0  0  0  0  3  0  0  0  0  0  0
  192.6440  173.4770  143.4410 C   0  0  1  0  0  3  0  0  0  0  0  0
  190.5580  176.6900  145.5870 N   0  0  0  0  0  2  0  0  0  0  0  0
  192.8310  176.4580  144.5390 C   0  0  1  0  0  3  0  0  0  0  0  0
  192.5780  173.6060  144.9560 C   0  0  0  0  0  2  0  0  0  0  0  0
  191.5320  174.5420  145.3370 N   0  0  0  0  0  0  0  0  0  0  0  0
  191.6100  175.8260  145.1430 C   0  0  0  0  0  0  0  0  0  0  0  0
  189.2520  176.2610  145.9900 C   0  0  0  0  0  0  0  0  0  0  0  0
  193.1630  174.6940  142.7180 C   0  0  0  0  0  3  0  0  0  0  0  0
  188.8560  175.0890  145.7580 O   0  0  0  0  0  0  0  0  0  0  0  0
  191.9340  171.4060  141.0030 C   0  0  0  0  0  2  0  0  0  0  0  0
  193.4510  172.2770  143.0640 C   0  0  0  0  0  0  0  0  0  0  0  0
  193.0490  170.4190  138.9550 C   0  0  2  0  0  3  0  0  0  0  0  0
  192.3880  170.1580  140.3080 C   0  0  1  0  0  3  0  0  0  0  0  0
  194.8000  170.4660  140.5770 C   0  0  0  0  0  2  0  0  0  0  0  0
  193.0360  171.4530  141.9790 N   0  0  0  0  0  0  0  0  0  0  0  0
  193.4880  170.2170  141.3210 C   0  0  1  0  0  3  0  0  0  0  0  0
  194.4890  171.9820  143.7130 O   0  0  0  0  0  0  0  0  0  0  0  0
  194.4220  171.0040  139.2150 C   0  0  0  0  0  2  0  0  0  0  0  0
  192.1730  171.1560  137.9250 C   0  0  1  0  0  3  0  0  0  0  0  0
  192.7970  171.5750  136.7300 O   0  0  0  0  0  0  0  0  0  0  0  0
  192.9500  172.8820  136.8110 O   0  0  0  0  0  1  0  0  0  0  0  0
  190.7270  170.6520  137.7810 C   0  0  0  0  0  2  0  0  0  0  0  0
  190.6100  169.3560  137.0510 C   0  0  0  0  0  2  0  0  0  0  0  0
  190.4650  168.2790  137.6740 O   0  0  0  0  0  0  0  0  0  0  0  0
  190.4490  168.1700  137.7660 O   0  0  0  0  0 15  0  0  0  0  0  0
  189.8680  171.7060  137.1040 C   0  0  0  0  0  2  0  0  0  0  0  0
  189.9000  173.7190  138.4160 O   0  0  0  0  0  0  0  0  0  0  0  0
  188.7410  173.8670  137.6340 C   0  0  0  0  0  0  0  0  0  0  0  0
  187.7560  174.5870  138.3130 O   0  0  0  0  0  1  0  0  0  0  0  0
  189.0460  174.2640  136.3290 O   0  0  0  0  0  1  0  0  0  0  0  0
  189.1550  172.5430  138.1550 C   0  0  1  0  0  3  0  0  0  0  0  0
  194.8300  177.9130  145.5820 O   0  0  0  0  0  0  0  0  0  0  0  0
  195.4840  175.3470  145.2270 C   0  0  0  0  0  1  0  0  0  0  0  0
  193.7780  176.2810  147.0660 O   0  0  0  0  0  0  0  0  0  0  0  0
  194.2310  176.5370  145.6570 S   0  0  0  0  0  0  0  0  0  0  0  0
  188.3350  177.2340  146.6460 C   0  0  0  0  0  2  0  0  0  0  0  0
  187.1180  176.5500  147.0650 N   0  0  0  0  0  2  0  0  0  0  0  0
  185.8080  177.5930  143.8100 C   0  0  0  0  0  0  0  0  0  0  0  0
  186.5900  177.4360  144.9610 O   0  0  0  0  0  0  0  0  0  0  0  0
  186.0410  177.0120  146.2050 C   0  0  2  0  0  3  0  0  0  0  0  0
  185.3010  178.1500  146.8940 C   0  0  0  0  0  2  0  0  0  0  0  0
  184.7930  178.4050  143.7890 N   0  0  0  0  0  0  0  0  0  0  0  0
  184.0380  178.5060  146.1330 C   0  0  0  0  0  2  0  0  0  0  0  0
  184.3980  179.2870  144.8810 C   0  0  0  0  0  2  0  0  0  0  0  0
  185.7410  177.2340  141.4850 O   0  0  0  0  0  0  0  0  0  0  0  0
  186.1980  176.8470  142.5920 C   0  0  0  0  0  0  0  0  0  0  0  0
  187.0280  175.7150  142.6060 O   0  0  0  0  0  0  0  0  0  0  0  0
  188.7440  174.6390  141.5060 O   0  0  0  0  0  1  0  0  0  0  0  0
  188.4180  175.7330  142.3090 C   0  0  0  0  0  2  0  0  0  0  0  0
  1  4  1  0  0  0  0
  2 12  1  1  0  0  0
  2  5  1  0  0  0  0
  3  8  1  0  0  0  0
  4  7  1  0  0  0  0
  4 36  1  1  0  0  0
  5  6  1  0  0  0  0
  7  6  2  0  0  0  0
  7  3  1  0  0  0  0
  8 37  1  0  0  0  0
  9  1  2  0  0  0  0
  9  2  1  0  0  0  0
 10  8  2  0  0  0  0
 11 16  1  0  0  0  0
 12 18  2  0  0  0  0
 13 20  1  6  0  0  0
 13 19  1  0  0  0  0
 13 14  1  0  0  0  0
 14 11  1  1  0  0  0
 14 17  1  0  0  0  0
 16 12  1  0  0  0  0
 17 15  1  6  0  0  0
 17 16  1  0  0  0  0
 19 15  1  0  0  0  0
 20 23  1  6  0  0  0
 21 22  1  0  0  0  0
 21 20  1  0  0  0  0
 24 25  2  0  0  0  0
 27 23  1  0  0  0  0
 29 32  1  0  0  0  0
 29 30  1  0  0  0  0
 29 28  1  0  0  0  0
 31 29  1  0  0  0  0
 32 27  1  6  0  0  0
 32 28  1  0  0  0  0
 33 36  2  0  0  0  0
 34 36  1  0  0  0  0
 36 35  2  0  0  0  0
 37 38  1  0  0  0  0
 39 40  1  0  0  0  0
 40 41  1  0  0  0  0
 41 42  1  0  0  0  0
 41 38  1  1  0  0  0
 43 39  2  0  0  0  0
 43 45  1  0  0  0  0
 44 42  1  0  0  0  0
 45 44  1  0  0  0  0
 46 47  2  0  0  0  0
 47 48  1  0  0  0  0
 47 39  1  0  0  0  0
 49 50  1  0  0  0  0
 50 48  1  0  0  0  0
M  END
>  <MODEL>
5

>  <REMARK>
 VINA RESULT:      -6.8      3.360      9.660
  Name = 
  14 active torsions:
  status: ('A' for Active; 'I' for Inactive)
    1  A    between atoms: O_2  and  C_38
    2  A    between atoms: O_2  and  C_40
    3  A    between atoms: C_6  and  C_38
    4  A    between atoms: O_7  and  C_12
    5  A    between atoms: C_10  and  C_21
    6  A    between atoms: C_11  and  C_39
    7  A    between atoms: C_11  and  C_43
    8  A    between atoms: C_12  and  C_14
    9  A    between atoms: C_12  and  C_43
   10  A    between atoms: C_13  and  N_35
   11  A    between atoms: C_19  and  C_43
   12  A    between atoms: C_33  and  S_47
   13  A    between atoms: N_35  and  C_50
   14  A    between atoms: C_46  and  C_50
                            x       y       z     vdW  Elec       q    Type
                         _______ _______ _______ _____ _____    ______ ____

>  <TORSDO>
F 14

$$$$
=
 OpenBabel11062419193D

 50 52  0  0  1  0  0  0  0  0999 V2000
  187.2680  178.8420  143.0470 C   0  0  0  0  0  3  0  0  0  0  0  0
  187.2900  176.6550  141.7130 C   0  0  1  0  0  3  0  0  0  0  0  0
  183.6140  178.8110  142.7690 N   0  0  0  0  0  2  0  0  0  0  0  0
  185.9320  178.7030  143.7350 C   0  0  1  0  0  3  0  0  0  0  0  0
  186.1540  176.0760  142.5440 C   0  0  0  0  0  2  0  0  0  0  0  0
  184.9590  176.8920  142.4040 N   0  0  0  0  0  0  0  0  0  0  0  0
  184.8400  178.0850  142.9100 C   0  0  0  0  0  0  0  0  0  0  0  0
  182.5560  178.4780  141.8630 C   0  0  0  0  0  0  0  0  0  0  0  0
  187.8530  177.9580  142.2210 C   0  0  0  0  0  3  0  0  0  0  0  0
  182.7330  177.6350  140.9440 O   0  0  0  0  0  0  0  0  0  0  0  0
  189.7490  176.2130  143.8330 C   0  0  0  0  0  2  0  0  0  0  0  0
  188.3850  175.6480  141.5690 C   0  0  0  0  0  0  0  0  0  0  0  0
  190.8050  174.3350  145.1620 C   0  0  2  0  0  3  0  0  0  0  0  0
  190.9880  175.4130  144.0950 C   0  0  1  0  0  3  0  0  0  0  0  0
  190.2670  173.3090  143.0750 C   0  0  0  0  0  2  0  0  0  0  0  0
  189.3990  175.5530  142.5640 N   0  0  0  0  0  0  0  0  0  0  0  0
  190.6230  174.7690  142.7940 C   0  0  1  0  0  3  0  0  0  0  0  0
  188.4230  174.8930  140.5620 O   0  0  0  0  0  0  0  0  0  0  0  0
  189.9790  173.2190  144.5570 C   0  0  0  0  0  2  0  0  0  0  0  0
  190.3580  174.8460  146.5450 C   0  0  1  0  0  3  0  0  0  0  0  0
  189.2900  174.1660  147.1700 O   0  0  0  0  0  0  0  0  0  0  0  0
  188.2850  175.0150  147.2510 O   0  0  0  0  0  1  0  0  0  0  0  0
  191.4770  175.3350  147.4800 C   0  0  0  0  0  2  0  0  0  0  0  0
  191.4080  176.7930  147.7900 C   0  0  0  0  0  2  0  0  0  0  0  0
  190.3790  177.4580  147.5240 O   0  0  0  0  0  0  0  0  0  0  0  0
  190.2520  177.5120  147.4850 O   0  0  0  0  0 15  0  0  0  0  0  0
  192.8370  174.9950  146.8960 C   0  0  0  0  0  2  0  0  0  0  0  0
  194.9560  176.1060  146.6630 O   0  0  0  0  0  0  0  0  0  0  0  0
  194.4710  176.0670  145.3450 C   0  0  0  0  0  0  0  0  0  0  0  0
  194.8990  177.1740  144.6100 O   0  0  0  0  0  1  0  0  0  0  0  0
  194.6410  174.8050  144.7690 O   0  0  0  0  0  1  0  0  0  0  0  0
  193.5590  176.2730  146.4950 C   0  0  1  0  0  3  0  0  0  0  0  0
  185.2650  176.7470  145.4450 O   0  0  0  0  0  0  0  0  0  0  0  0
  185.4650  179.1360  146.6230 C   0  0  0  0  0  1  0  0  0  0  0  0
  187.5090  177.6850  145.6820 O   0  0  0  0  0  0  0  0  0  0  0  0
  186.0730  178.0110  145.3840 S   0  0  0  0  0  0  0  0  0  0  0  0
  181.2470  179.1770  141.9810 C   0  0  0  0  0  2  0  0  0  0  0  0
  180.1700  178.1940  142.0070 N   0  0  0  0  0  2  0  0  0  0  0  0
  178.3760  177.8880  138.8330 C   0  0  0  0  0  0  0  0  0  0  0  0
  179.3660  177.9640  139.8190 O   0  0  0  0  0  0  0  0  0  0  0  0
  179.1590  178.6310  141.0600 C   0  0  2  0  0  3  0  0  0  0  0  0
  179.2460  180.1410  140.8920 C   0  0  0  0  0  2  0  0  0  0  0  0
  177.8510  178.9600  138.3180 N   0  0  0  0  0  0  0  0  0  0  0  0
  178.0680  180.6610  140.0890 C   0  0  0  0  0  2  0  0  0  0  0  0
  178.2630  180.3270  138.6210 C   0  0  0  0  0  2  0  0  0  0  0  0
  177.7400  175.6510  139.1970 O   0  0  0  0  0  0  0  0  0  0  0  0
  177.9730  176.5480  138.3460 C   0  0  0  0  0  0  0  0  0  0  0  0
  177.8630  176.2160  136.9860 O   0  0  0  0  0  0  0  0  0  0  0  0
  179.8760  175.4850  136.1350 O   0  0  0  0  0  1  0  0  0  0  0  0
  178.8750  176.4500  136.0160 C   0  0  0  0  0  2  0  0  0  0  0  0
  1  4  1  0  0  0  0
  2 12  1  1  0  0  0
  2  9  1  0  0  0  0
  2  5  1  0  0  0  0
  3  7  1  0  0  0  0
  4 36  1  1  0  0  0
  6  5  1  0  0  0  0
  6  7  2  0  0  0  0
  7  4  1  0  0  0  0
  8 37  1  0  0  0  0
  8  3  1  0  0  0  0
  9  1  2  0  0  0  0
 10  8  2  0  0  0  0
 12 16  1  0  0  0  0
 13 20  1  1  0  0  0
 14 11  1  1  0  0  0
 14 13  1  0  0  0  0
 15 19  1  0  0  0  0
 16 17  1  0  0  0  0
 16 11  1  0  0  0  0
 17 15  1  1  0  0  0
 17 14  1  0  0  0  0
 18 12  2  0  0  0  0
 19 13  1  0  0  0  0
 20 21  1  0  0  0  0
 20 23  1  1  0  0  0
 21 22  1  0  0  0  0
 25 24  2  0  0  0  0
 27 23  1  0  0  0  0
 29 32  1  0  0  0  0
 29 28  1  0  0  0  0
 30 29  1  0  0  0  0
 31 29  1  0  0  0  0
 32 28  1  0  0  0  0
 32 27  1  1  0  0  0
 36 33  2  0  0  0  0
 36 35  2  0  0  0  0
 36 34  1  0  0  0  0
 37 38  1  0  0  0  0
 39 40  1  0  0  0  0
 40 41  1  0  0  0  0
 41 38  1  1  0  0  0
 42 41  1  0  0  0  0
 43 45  1  0  0  0  0
 43 39  2  0  0  0  0
 44 42  1  0  0  0  0
 45 44  1  0  0  0  0
 47 39  1  0  0  0  0
 47 46  2  0  0  0  0
 48 47  1  0  0  0  0
 50 49  1  0  0  0  0
 50 48  1  0  0  0  0
M  END
>  <MODEL>
6

>  <REMARK>
 VINA RESULT:      -6.8      6.131     11.654
  Name = 
  14 active torsions:
  status: ('A' for Active; 'I' for Inactive)
    1  A    between atoms: O_2  and  C_38
    2  A    between atoms: O_2  and  C_40
    3  A    between atoms: C_6  and  C_38
    4  A    between atoms: O_7  and  C_12
    5  A    between atoms: C_10  and  C_21
    6  A    between atoms: C_11  and  C_39
    7  A    between atoms: C_11  and  C_43
    8  A    between atoms: C_12  and  C_14
    9  A    between atoms: C_12  and  C_43
   10  A    between atoms: C_13  and  N_35
   11  A    between atoms: C_19  and  C_43
   12  A    between atoms: C_33  and  S_47
   13  A    between atoms: N_35  and  C_50
   14  A    between atoms: C_46  and  C_50
                            x       y       z     vdW  Elec       q    Type
                         _______ _______ _______ _____ _____    ______ ____

>  <TORSDO>
F 14

$$$$
=
 OpenBabel11062419193D

 50 52  0  0  1  0  0  0  0  0999 V2000
  193.1070  176.5650  142.8030 C   0  0  0  0  0  3  0  0  0  0  0  0
  193.2620  174.0990  142.1280 C   0  0  1  0  0  3  0  0  0  0  0  0
  190.9690  175.5230  145.5910 N   0  0  0  0  0  2  0  0  0  0  0  0
  192.9320  176.4070  144.2930 C   0  0  1  0  0  3  0  0  0  0  0  0
  193.5080  173.6670  143.5670 C   0  0  0  0  0  2  0  0  0  0  0  0
  192.3720  174.0250  144.4020 N   0  0  0  0  0  0  0  0  0  0  0  0
  192.0780  175.2500  144.7270 C   0  0  0  0  0  0  0  0  0  0  0  0
  189.9390  174.5880  145.9320 C   0  0  0  0  0  0  0  0  0  0  0  0
  193.2810  175.5880  141.8970 C   0  0  0  0  0  3  0  0  0  0  0  0
  189.8100  173.5080  145.2990 O   0  0  0  0  0  0  0  0  0  0  0  0
  192.4870  172.3730  139.4520 C   0  0  0  0  0  2  0  0  0  0  0  0
  194.2400  173.4290  141.2180 C   0  0  0  0  0  0  0  0  0  0  0  0
  193.0720  172.3090  136.9900 C   0  0  2  0  0  3  0  0  0  0  0  0
  193.0610  171.5680  138.3270 C   0  0  1  0  0  3  0  0  0  0  0  0
  195.1550  172.8020  138.0470 C   0  0  0  0  0  2  0  0  0  0  0  0
  193.7750  172.7070  140.0820 N   0  0  0  0  0  0  0  0  0  0  0  0
  194.3580  171.9050  138.9940 C   0  0  1  0  0  3  0  0  0  0  0  0
  195.4750  173.4860  141.4610 O   0  0  0  0  0  0  0  0  0  0  0  0
  194.1620  173.3590  137.0510 C   0  0  0  0  0  2  0  0  0  0  0  0
  191.6950  172.7790  136.4860 C   0  0  1  0  0  3  0  0  0  0  0  0
  191.6490  173.3980  135.2170 O   0  0  0  0  0  0  0  0  0  0  0  0
  191.5060  174.6920  135.4220 O   0  0  0  0  0  1  0  0  0  0  0  0
  190.5020  171.8720  136.8280 C   0  0  0  0  0  2  0  0  0  0  0  0
  190.2680  170.7830  135.8350 C   0  0  0  0  0  2  0  0  0  0  0  0
  190.9170  169.7130  135.8910 O   0  0  0  0  0  0  0  0  0  0  0  0
  191.0020  169.6000  135.9180 O   0  0  0  0  0 15  0  0  0  0  0  0
  189.2400  172.7020  136.9910 C   0  0  0  0  0  2  0  0  0  0  0  0
  188.2530  174.4650  138.2920 O   0  0  0  0  0  0  0  0  0  0  0  0
  188.6900  173.5550  139.2700 C   0  0  0  0  0  0  0  0  0  0  0  0
  189.0670  174.2100  140.4440 O   0  0  0  0  0  1  0  0  0  0  0  0
  187.8200  172.4680  139.3890 O   0  0  0  0  0  1  0  0  0  0  0  0
  189.4690  173.7880  138.0310 C   0  0  1  0  0  3  0  0  0  0  0  0
  195.6120  176.2840  144.2330 O   0  0  0  0  0  0  0  0  0  0  0  0
  194.5770  175.3490  146.5110 C   0  0  0  0  0  1  0  0  0  0  0  0
  194.6280  177.9180  145.7610 O   0  0  0  0  0  0  0  0  0  0  0  0
  194.4810  176.5370  145.1880 S   0  0  0  0  0  0  0  0  0  0  0  0
  188.9780  174.9260  147.0180 C   0  0  0  0  0  2  0  0  0  0  0  0
  188.7480  176.3650  147.0360 N   0  0  0  0  0  2  0  0  0  0  0  0
  187.1980  177.6960  143.9990 C   0  0  0  0  0  0  0  0  0  0  0  0
  187.9660  177.5270  145.1570 O   0  0  0  0  0  0  0  0  0  0  0  0
  187.5900  176.6310  146.1990 C   0  0  2  0  0  3  0  0  0  0  0  0
  186.4780  177.2220  147.0540 C   0  0  0  0  0  2  0  0  0  0  0  0
  185.9580  178.0820  144.0620 N   0  0  0  0  0  0  0  0  0  0  0  0
  185.1830  177.3040  146.2680 C   0  0  0  0  0  2  0  0  0  0  0  0
  185.2550  178.4570  145.2830 C   0  0  0  0  0  2  0  0  0  0  0  0
  189.0110  177.9260  142.5170 O   0  0  0  0  0  0  0  0  0  0  0  0
  187.8500  177.4750  142.6880 C   0  0  0  0  0  0  0  0  0  0  0  0
  187.2320  176.8130  141.6150 O   0  0  0  0  0  0  0  0  0  0  0  0
  185.5280  177.9390  140.5470 O   0  0  0  0  0  1  0  0  0  0  0  0
  186.8250  177.4430  140.4070 C   0  0  0  0  0  2  0  0  0  0  0  0
  1  4  1  0  0  0  0
  2 12  1  6  0  0  0
  2  5  1  0  0  0  0
  3  8  1  0  0  0  0
  4  7  1  0  0  0  0
  4 36  1  1  0  0  0
  5  6  1  0  0  0  0
  6  7  2  0  0  0  0
  7  3  1  0  0  0  0
  8 37  1  0  0  0  0
  9  2  1  0  0  0  0
  9  1  2  0  0  0  0
 10  8  2  0  0  0  0
 11 16  1  0  0  0  0
 12 18  2  0  0  0  0
 13 20  1  1  0  0  0
 13 19  1  0  0  0  0
 13 14  1  0  0  0  0
 14 17  1  0  0  0  0
 14 11  1  1  0  0  0
 16 12  1  0  0  0  0
 17 15  1  6  0  0  0
 17 16  1  0  0  0  0
 19 15  1  0  0  0  0
 20 23  1  6  0  0  0
 21 22  1  0  0  0  0
 21 20  1  0  0  0  0
 23 27  1  0  0  0  0
 24 25  2  0  0  0  0
 28 29  1  0  0  0  0
 29 31  1  0  0  0  0
 29 30  1  0  0  0  0
 32 27  1  6  0  0  0
 32 28  1  0  0  0  0
 32 29  1  0  0  0  0
 33 36  2  0  0  0  0
 36 35  2  0  0  0  0
 36 34  1  0  0  0  0
 37 38  1  0  0  0  0
 39 43  2  0  0  0  0
 39 40  1  0  0  0  0
 40 41  1  0  0  0  0
 41 38  1  1  0  0  0
 41 42  1  0  0  0  0
 43 45  1  0  0  0  0
 44 42  1  0  0  0  0
 45 44  1  0  0  0  0
 46 47  2  0  0  0  0
 47 39  1  0  0  0  0
 48 47  1  0  0  0  0
 50 49  1  0  0  0  0
 50 48  1  0  0  0  0
M  END
>  <MODEL>
7

>  <REMARK>
 VINA RESULT:      -6.8      2.842      9.353
  Name = 
  14 active torsions:
  status: ('A' for Active; 'I' for Inactive)
    1  A    between atoms: O_2  and  C_38
    2  A    between atoms: O_2  and  C_40
    3  A    between atoms: C_6  and  C_38
    4  A    between atoms: O_7  and  C_12
    5  A    between atoms: C_10  and  C_21
    6  A    between atoms: C_11  and  C_39
    7  A    between atoms: C_11  and  C_43
    8  A    between atoms: C_12  and  C_14
    9  A    between atoms: C_12  and  C_43
   10  A    between atoms: C_13  and  N_35
   11  A    between atoms: C_19  and  C_43
   12  A    between atoms: C_33  and  S_47
   13  A    between atoms: N_35  and  C_50
   14  A    between atoms: C_46  and  C_50
                            x       y       z     vdW  Elec       q    Type
                         _______ _______ _______ _____ _____    ______ ____

>  <TORSDO>
F 14

$$$$
=
 OpenBabel11062419193D

 50 52  0  0  1  0  0  0  0  0999 V2000
  193.9780  173.0020  143.5280 C   0  0  0  0  0  3  0  0  0  0  0  0
  193.5340  175.3310  144.5000 C   0  0  1  0  0  3  0  0  0  0  0  0
  196.5580  174.5280  141.4190 N   0  0  0  0  0  2  0  0  0  0  0  0
  195.4430  173.1430  143.1970 C   0  0  1  0  0  3  0  0  0  0  0  0
  195.0230  175.6070  144.6550 C   0  0  0  0  0  2  0  0  0  0  0  0
  195.6790  175.5760  143.3570 N   0  0  0  0  0  0  0  0  0  0  0  0
  195.8620  174.4860  142.6700 C   0  0  0  0  0  0  0  0  0  0  0  0
  196.8450  175.7160  140.6740 C   0  0  0  0  0  0  0  0  0  0  0  0
  193.1840  173.9170  144.1110 C   0  0  0  0  0  3  0  0  0  0  0  0
  196.2930  176.8100  140.9620 O   0  0  0  0  0  0  0  0  0  0  0  0
  190.6830  176.9410  144.6280 C   0  0  0  0  0  2  0  0  0  0  0  0
  192.8100  175.7090  145.7520 C   0  0  0  0  0  0  0  0  0  0  0  0
  188.3880  176.6740  145.6640 C   0  0  2  0  0  3  0  0  0  0  0  0
  189.6610  177.5140  145.5620 C   0  0  1  0  0  3  0  0  0  0  0  0
  189.8630  175.8640  147.3570 C   0  0  0  0  0  2  0  0  0  0  0  0
  191.5730  176.4100  145.6740 N   0  0  0  0  0  0  0  0  0  0  0  0
  190.5890  176.9810  146.6080 C   0  0  1  0  0  3  0  0  0  0  0  0
  193.2990  175.4250  146.8770 O   0  0  0  0  0  0  0  0  0  0  0  0
  188.7140  175.4350  146.4720 C   0  0  0  0  0  2  0  0  0  0  0  0
  187.6390  176.4500  144.3380 C   0  0  1  0  0  3  0  0  0  0  0  0
  186.4640  177.2040  144.1250 O   0  0  0  0  0  0  0  0  0  0  0  0
  186.1210  177.7240  145.2860 O   0  0  0  0  0  1  0  0  0  0  0  0
  188.5150  176.2150  143.0950 C   0  0  0  0  0  2  0  0  0  0  0  0
  188.1760  177.1010  141.9430 C   0  0  0  0  0  2  0  0  0  0  0  0
  188.7950  178.1750  141.7550 O   0  0  0  0  0  0  0  0  0  0  0  0
  188.8790  178.2900  141.7540 O   0  0  0  0  0 15  0  0  0  0  0  0
  188.4400  174.7600  142.6670 C   0  0  0  0  0  2  0  0  0  0  0  0
  189.5930  174.3220  140.6040 O   0  0  0  0  0  0  0  0  0  0  0  0
  188.6180  173.3100  140.6440 C   0  0  0  0  0  0  0  0  0  0  0  0
  188.1930  172.9600  139.3620 O   0  0  0  0  0  1  0  0  0  0  0  0
  188.9840  172.2740  141.5080 O   0  0  0  0  0  1  0  0  0  0  0  0
  188.3350  174.6740  141.1510 C   0  0  1  0  0  3  0  0  0  0  0  0
  197.7330  173.3770  144.5760 O   0  0  0  0  0  0  0  0  0  0  0  0
  197.0170  170.8360  144.1690 C   0  0  0  0  0  1  0  0  0  0  0  0
  195.7920  172.5560  145.8140 O   0  0  0  0  0  0  0  0  0  0  0  0
  196.5080  172.5110  144.4940 S   0  0  0  0  0  0  0  0  0  0  0  0
  197.7720  175.6410  139.5120 C   0  0  0  0  0  2  0  0  0  0  0  0
  197.3580  174.5600  138.6260 N   0  0  0  0  0  2  0  0  0  0  0  0
  193.7420  174.0790  138.3350 C   0  0  0  0  0  0  0  0  0  0  0  0
  195.1270  173.8840  138.3960 O   0  0  0  0  0  0  0  0  0  0  0  0
  196.0580  174.9160  138.0830 C   0  0  2  0  0  3  0  0  0  0  0  0
  196.1770  175.1090  136.5780 C   0  0  0  0  0  2  0  0  0  0  0  0
  193.1600  174.4510  137.2330 N   0  0  0  0  0  0  0  0  0  0  0  0
  194.8990  175.6970  136.0100 C   0  0  0  0  0  2  0  0  0  0  0  0
  193.8260  174.6240  135.9470 C   0  0  0  0  0  2  0  0  0  0  0  0
  193.0380  174.5920  140.5210 O   0  0  0  0  0  0  0  0  0  0  0  0
  192.9410  173.7990  139.5480 C   0  0  0  0  0  0  0  0  0  0  0  0
  192.1000  172.6830  139.6850 O   0  0  0  0  0  0  0  0  0  0  0  0
  193.8960  171.3810  140.3090 O   0  0  0  0  0  1  0  0  0  0  0  0
  192.5540  171.3580  139.9270 C   0  0  0  0  0  2  0  0  0  0  0  0
  1  9  2  0  0  0  0
  2  5  1  0  0  0  0
  2 12  1  1  0  0  0
  3  7  1  0  0  0  0
  4  1  1  0  0  0  0
  4 36  1  1  0  0  0
  6  5  1  0  0  0  0
  7  4  1  0  0  0  0
  7  6  2  0  0  0  0
  8 10  2  0  0  0  0
  8  3  1  0  0  0  0
  9  2  1  0  0  0  0
 11 16  1  0  0  0  0
 12 18  2  0  0  0  0
 13 20  1  6  0  0  0
 13 19  1  0  0  0  0
 14 11  1  6  0  0  0
 14 13  1  0  0  0  0
 14 17  1  0  0  0  0
 16 12  1  0  0  0  0
 16 17  1  0  0  0  0
 17 15  1  1  0  0  0
 19 15  1  0  0  0  0
 20 23  1  6  0  0  0
 21 20  1  0  0  0  0
 21 22  1  0  0  0  0
 25 24  2  0  0  0  0
 27 23  1  0  0  0  0
 28 29  1  0  0  0  0
 28 32  1  0  0  0  0
 29 32  1  0  0  0  0
 29 31  1  0  0  0  0
 30 29  1  0  0  0  0
 32 27  1  1  0  0  0
 34 36  1  0  0  0  0
 36 33  2  0  0  0  0
 36 35  2  0  0  0  0
 37  8  1  0  0  0  0
 38 37  1  0  0  0  0
 39 40  1  0  0  0  0
 39 47  1  0  0  0  0
 41 40  1  0  0  0  0
 41 38  1  6  0  0  0
 42 41  1  0  0  0  0
 43 39  2  0  0  0  0
 44 42  1  0  0  0  0
 45 44  1  0  0  0  0
 45 43  1  0  0  0  0
 47 48  1  0  0  0  0
 47 46  2  0  0  0  0
 48 50  1  0  0  0  0
 50 49  1  0  0  0  0
M  END
>  <MODEL>
8

>  <REMARK>
 VINA RESULT:      -6.7      1.826      3.382
  Name = 
  14 active torsions:
  status: ('A' for Active; 'I' for Inactive)
    1  A    between atoms: O_2  and  C_38
    2  A    between atoms: O_2  and  C_40
    3  A    between atoms: C_6  and  C_38
    4  A    between atoms: O_7  and  C_12
    5  A    between atoms: C_10  and  C_21
    6  A    between atoms: C_11  and  C_39
    7  A    between atoms: C_11  and  C_43
    8  A    between atoms: C_12  and  C_14
    9  A    between atoms: C_12  and  C_43
   10  A    between atoms: C_13  and  N_35
   11  A    between atoms: C_19  and  C_43
   12  A    between atoms: C_33  and  S_47
   13  A    between atoms: N_35  and  C_50
   14  A    between atoms: C_46  and  C_50
                            x       y       z     vdW  Elec       q    Type
                         _______ _______ _______ _____ _____    ______ ____

>  <TORSDO>
F 14

$$$$
=
 OpenBabel11062419193D

 50 52  0  0  1  0  0  0  0  0999 V2000
  193.2010  173.2210  143.0760 C   0  0  0  0  0  3  0  0  0  0  0  0
  193.1580  175.3710  144.4690 C   0  0  1  0  0  3  0  0  0  0  0  0
  196.1970  174.5230  141.4160 N   0  0  0  0  0  2  0  0  0  0  0  0
  194.6860  173.1050  142.8390 C   0  0  1  0  0  3  0  0  0  0  0  0
  194.6540  175.2900  144.7350 C   0  0  0  0  0  2  0  0  0  0  0  0
  195.3930  175.3590  143.4850 N   0  0  0  0  0  0  0  0  0  0  0  0
  195.4080  174.4010  142.6050 C   0  0  0  0  0  0  0  0  0  0  0  0
  196.7770  175.7400  140.9310 C   0  0  0  0  0  0  0  0  0  0  0  0
  192.5630  174.1600  143.7950 C   0  0  0  0  0  3  0  0  0  0  0  0
  196.4350  176.8540  141.4060 O   0  0  0  0  0  0  0  0  0  0  0  0
  190.4610  177.2140  144.7290 C   0  0  0  0  0  2  0  0  0  0  0  0
  192.4260  175.6570  145.7400 C   0  0  0  0  0  0  0  0  0  0  0  0
  188.1150  177.0380  145.6660 C   0  0  2  0  0  3  0  0  0  0  0  0
  189.4610  177.7600  145.7020 C   0  0  1  0  0  3  0  0  0  0  0  0
  189.4480  175.8890  147.2780 C   0  0  0  0  0  2  0  0  0  0  0  0
  191.2600  176.4760  145.7210 N   0  0  0  0  0  0  0  0  0  0  0  0
  190.2990  177.0170  146.6950 C   0  0  1  0  0  3  0  0  0  0  0  0
  192.8460  175.1910  146.8320 O   0  0  0  0  0  0  0  0  0  0  0  0
  188.2980  175.6830  146.3180 C   0  0  0  0  0  2  0  0  0  0  0  0
  187.3970  177.0510  144.3030 C   0  0  1  0  0  3  0  0  0  0  0  0
  186.5540  178.1510  144.0290 O   0  0  0  0  0  0  0  0  0  0  0  0
  186.0850  178.5770  145.1840 O   0  0  0  0  0  1  0  0  0  0  0  0
  188.2010  176.5130  143.1080 C   0  0  0  0  0  2  0  0  0  0  0  0
  188.0800  177.3460  141.8760 C   0  0  0  0  0  2  0  0  0  0  0  0
  188.8760  178.2900  141.6590 O   0  0  0  0  0  0  0  0  0  0  0  0
  188.9780  178.3910  141.6560 O   0  0  0  0  0 15  0  0  0  0  0  0
  187.7960  175.0810  142.8040 C   0  0  0  0  0  2  0  0  0  0  0  0
  189.4990  174.1580  141.3810 O   0  0  0  0  0  0  0  0  0  0  0  0
  188.4260  173.2670  141.2110 C   0  0  0  0  0  0  0  0  0  0  0  0
  188.4120  172.7230  139.9260 O   0  0  0  0  0  1  0  0  0  0  0  0
  188.3140  172.3820  142.2870 O   0  0  0  0  0  1  0  0  0  0  0  0
  188.2000  174.7210  141.3820 C   0  0  1  0  0  3  0  0  0  0  0  0
  195.7120  170.6880  143.3950 O   0  0  0  0  0  0  0  0  0  0  0  0
  194.5070  171.8170  145.4950 C   0  0  0  0  0  1  0  0  0  0  0  0
  196.8260  172.6090  144.4170 O   0  0  0  0  0  0  0  0  0  0  0  0
  195.4940  172.0330  144.0280 S   0  0  0  0  0  0  0  0  0  0  0  0
  197.7620  175.6850  139.8160 C   0  0  0  0  0  2  0  0  0  0  0  0
  197.4160  174.5930  138.9140 N   0  0  0  0  0  2  0  0  0  0  0  0
  194.5790  174.5040  136.6040 C   0  0  0  0  0  0  0  0  0  0  0  0
  195.7010  174.1750  137.3730 O   0  0  0  0  0  0  0  0  0  0  0  0
  196.6290  175.1550  137.8300 C   0  0  2  0  0  3  0  0  0  0  0  0
  197.5590  175.5950  136.7080 C   0  0  0  0  0  2  0  0  0  0  0  0
  194.6990  175.1140  135.4610 N   0  0  0  0  0  0  0  0  0  0  0  0
  196.7990  176.3880  135.6620 C   0  0  0  0  0  2  0  0  0  0  0  0
  195.9630  175.4460  134.8140 C   0  0  0  0  0  2  0  0  0  0  0  0
  192.3210  174.9460  137.0960 O   0  0  0  0  0  0  0  0  0  0  0  0
  193.2450  174.0930  137.0980 C   0  0  0  0  0  0  0  0  0  0  0  0
  192.9620  172.8110  137.5950 O   0  0  0  0  0  0  0  0  0  0  0  0
  191.5040  171.9260  139.1450 O   0  0  0  0  0  1  0  0  0  0  0  0
  192.7610  172.5060  138.9690 C   0  0  0  0  0  2  0  0  0  0  0  0
  1  9  2  0  0  0  0
  2  5  1  0  0  0  0
  2 12  1  1  0  0  0
  3  7  1  0  0  0  0
  4  1  1  0  0  0  0
  4 36  1  1  0  0  0
  6  5  1  0  0  0  0
  7  4  1  0  0  0  0
  7  6  2  0  0  0  0
  8 10  2  0  0  0  0
  8  3  1  0  0  0  0
  9  2  1  0  0  0  0
 11 16  1  0  0  0  0
 12 18  2  0  0  0  0
 13 20  1  6  0  0  0
 13 14  1  0  0  0  0
 13 19  1  0  0  0  0
 14 11  1  6  0  0  0
 14 17  1  0  0  0  0
 16 12  1  0  0  0  0
 16 17  1  0  0  0  0
 17 15  1  6  0  0  0
 19 15  1  0  0  0  0
 20 23  1  6  0  0  0
 21 20  1  0  0  0  0
 21 22  1  0  0  0  0
 25 24  2  0  0  0  0
 27 23  1  0  0  0  0
 28 32  1  0  0  0  0
 29 28  1  0  0  0  0
 29 32  1  0  0  0  0
 29 31  1  0  0  0  0
 30 29  1  0  0  0  0
 32 27  1  1  0  0  0
 33 36  2  0  0  0  0
 36 35  2  0  0  0  0
 36 34  1  0  0  0  0
 37  8  1  0  0  0  0
 38 37  1  0  0  0  0
 39 47  1  0  0  0  0
 39 40  1  0  0  0  0
 40 41  1  0  0  0  0
 41 38  1  1  0  0  0
 42 41  1  0  0  0  0
 43 39  2  0  0  0  0
 44 42  1  0  0  0  0
 45 43  1  0  0  0  0
 45 44  1  0  0  0  0
 46 47  2  0  0  0  0
 47 48  1  0  0  0  0
 48 50  1  0  0  0  0
 50 49  1  0  0  0  0
M  END
>  <MODEL>
9

>  <REMARK>
 VINA RESULT:      -6.7      1.631      3.187
  Name = 
  14 active torsions:
  status: ('A' for Active; 'I' for Inactive)
    1  A    between atoms: O_2  and  C_38
    2  A    between atoms: O_2  and  C_40
    3  A    between atoms: C_6  and  C_38
    4  A    between atoms: O_7  and  C_12
    5  A    between atoms: C_10  and  C_21
    6  A    between atoms: C_11  and  C_39
    7  A    between atoms: C_11  and  C_43
    8  A    between atoms: C_12  and  C_14
    9  A    between atoms: C_12  and  C_43
   10  A    between atoms: C_13  and  N_35
   11  A    between atoms: C_19  and  C_43
   12  A    between atoms: C_33  and  S_47
   13  A    between atoms: N_35  and  C_50
   14  A    between atoms: C_46  and  C_50
                            x       y       z     vdW  Elec       q    Type
                         _______ _______ _______ _____ _____    ______ ____

>  <TORSDO>
F 14

$$$$
