=
 OpenBabel11062418273D

 48 53  0  0  1  0  0  0  0  0999 V2000
  194.7810  176.1280  144.8660 C   0  0  0  0  0  3  0  0  0  0  0  0
  192.4260  176.6350  144.6040 C   0  0  0  0  0  0  0  0  0  0  0  0
  193.5430  176.4490  145.4270 C   0  0  0  0  0  3  0  0  0  0  0  0
  193.7960  176.1770  142.6560 C   0  0  0  0  0  3  0  0  0  0  0  0
  194.9120  175.9870  143.4760 C   0  0  0  0  0  0  0  0  0  0  0  0
  192.5560  176.5000  143.2180 C   0  0  0  0  0  3  0  0  0  0  0  0
  190.1120  177.9180  144.8880 C   0  0  0  0  0  2  0  0  0  0  0  0
  190.3580  176.4810  146.3210 C   0  0  0  0  0  0  0  0  0  0  0  0
  189.2970  177.4810  145.9840 C   0  0  2  0  0  3  0  0  0  0  0  0
  190.5080  175.6020  147.2080 O   0  0  0  0  0  0  0  0  0  0  0  0
  191.1610  176.9620  145.1790 N   0  0  0  0  0  0  0  0  0  0  0  0
  188.2390  175.5440  144.9810 F   0  0  0  0  0  0  0  0  0  0  0  0
  188.0120  176.8180  145.4830 C   0  0  1  0  0  3  0  0  0  0  0  0
  187.0560  176.7610  146.5330 O   0  0  0  0  0  0  0  0  0  0  0  0
  185.7780  177.3240  146.4350 C   0  0  0  0  0  0  0  0  0  0  0  0
  184.7740  176.5760  146.5710 O   0  0  0  0  0  0  0  0  0  0  0  0
  184.1530  179.0240  145.6030 C   0  0  0  0  0  2  0  0  0  0  0  0
  185.6210  180.3280  144.1990 F   0  0  0  0  0  0  0  0  0  0  0  0
  185.5730  178.7820  146.1070 C   0  0  2  0  0  3  0  0  0  0  0  0
  185.3020  179.0550  144.6270 C   0  0  1  0  0  0  0  0  0  0  0  0
  185.2870  177.9130  143.6100 C   0  0  0  0  0  2  0  0  0  0  0  0
  187.1580  177.3620  140.5690 C   0  0  0  0  0  2  0  0  0  0  0  0
  185.9800  178.3110  142.3160 C   0  0  2  0  0  3  0  0  0  0  0  0
  185.0000  178.2380  141.1690 C   0  0  0  0  0  2  0  0  0  0  0  0
  185.7760  177.6440  140.0190 C   0  0  0  0  0  2  0  0  0  0  0  0
  187.0720  177.3950  142.0200 N   0  0  0  0  0  2  0  0  0  0  0  0
  196.1710  175.6550  142.8810 N   0  0  0  0  0  2  0  0  0  0  0  0
  196.3900  174.4550  142.0840 C   0  0  0  0  0  2  0  0  0  0  0  0
  196.1330  173.2170  142.9280 C   0  0  0  0  0  2  0  0  0  0  0  0
  195.6640  171.1620  141.5640 C   0  0  0  0  0  0  0  0  0  0  0  0
  194.8450  170.3720  141.0200 O   0  0  0  0  0  0  0  0  0  0  0  0
  195.1970  172.3340  142.2500 N   0  0  0  0  0  0  0  0  0  0  0  0
  197.0220  170.8810  141.4980 O   0  0  0  0  0  1  0  0  0  0  0  0
  193.7720  172.5730  142.4310 C   0  0  0  0  0  2  0  0  0  0  0  0
  191.6310  170.0360  141.8370 O   0  0  0  0  0  1  0  0  0  0  0  0
  191.5570  172.6440  144.5270 C   0  0  1  0  0  3  0  0  0  0  0  0
  189.8200  171.4430  142.5110 C   0  0  0  0  0  2  0  0  0  0  0  0
  192.0200  171.4440  143.7490 C   0  0  2  0  0  3  0  0  0  0  0  0
  189.4040  172.7500  143.2170 C   0  0  1  0  0  3  0  0  0  0  0  0
  192.8690  173.1490  144.4440 O   0  0  0  0  0  0  0  0  0  0  0  0
  190.6070  173.5480  143.7390 C   0  0  0  0  0  2  0  0  0  0  0  0
  193.3430  172.0720  143.7400 N   0  0  0  0  0  0  0  0  0  0  0  0
  191.3320  171.2880  142.3720 C   0  0  1  0  0  3  0  0  0  0  0  0
  188.5540  173.6150  142.2880 C   0  0  2  0  0  3  0  0  0  0  0  0
  187.5830  172.8310  141.6590 O   0  0  0  0  0  1  0  0  0  0  0  0
  189.3920  174.2400  141.2770 N   0  0  0  0  0  2  0  0  0  0  0  0
  188.7490  174.0260  139.9920 C   0  0  0  0  0  2  0  0  0  0  0  0
  189.7620  173.4960  139.0010 C   0  0  0  0  0  1  0  0  0  0  0  0
  1  3  1  0  0  0  0
  2 11  1  0  0  0  0
  2  3  2  0  0  0  0
  4  6  2  0  0  0  0
  4  5  1  0  0  0  0
  5  1  2  0  0  0  0
  6  2  1  0  0  0  0
  7 11  1  0  0  0  0
  7  9  1  0  0  0  0
  8 10  2  0  0  0  0
  9 13  1  6  0  0  0
  9  8  1  0  0  0  0
 11  8  1  0  0  0  0
 13 12  1  1  0  0  0
 13 14  1  0  0  0  0
 15 14  1  0  0  0  0
 15 16  2  0  0  0  0
 17 19  1  0  0  0  0
 19 15  1  6  0  0  0
 20 18  1  6  0  0  0
 20 17  1  0  0  0  0
 20 19  1  0  0  0  0
 21 20  1  0  0  0  0
 22 26  1  0  0  0  0
 23 21  1  1  0  0  0
 24 23  1  0  0  0  0
 25 22  1  0  0  0  0
 25 24  1  0  0  0  0
 26 23  1  0  0  0  0
 27  5  1  0  0  0  0
 28 27  1  0  0  0  0
 28 29  1  0  0  0  0
 30 32  1  0  0  0  0
 31 30  2  0  0  0  0
 32 34  1  0  0  0  0
 32 29  1  0  0  0  0
 33 30  1  0  0  0  0
 34 42  1  0  0  0  0
 36 41  1  6  0  0  0
 37 39  1  0  0  0  0
 38 42  1  6  0  0  0
 38 36  1  0  0  0  0
 39 44  1  6  0  0  0
 39 41  1  0  0  0  0
 40 36  1  0  0  0  0
 42 40  1  0  0  0  0
 43 35  1  1  0  0  0
 43 37  1  0  0  0  0
 43 38  1  0  0  0  0
 44 45  1  6  0  0  0
 46 44  1  0  0  0  0
 47 46  1  0  0  0  0
 48 47  1  0  0  0  0
M  END
>  <MODEL>
1

>  <REMARK>
 VINA RESULT:      -7.1      0.000      0.000
  Name = 
  16 active torsions:
  status: ('A' for Active; 'I' for Inactive)
    1  A    between atoms: C_1  and  N_15
    2  A    between atoms: C_3  and  N_28
    3  A    between atoms: C_3  and  C_44
    4  A    between atoms: C_4  and  N_15
    5  A    between atoms: C_4  and  C_19
    6  A    between atoms: C_10  and  N_41
    7  A    between atoms: C_16  and  O_35
    8  A    between atoms: C_16  and  C_36
    9  A    between atoms: N_18  and  C_30
   10  A    between atoms: N_18  and  C_44
   11  A    between atoms: C_20  and  C_22
   12  A    between atoms: C_20  and  C_42
   13  A    between atoms: C_25  and  C_40
   14  A    between atoms: N_28  and  C_48
   15  A    between atoms: O_35  and  C_40
   16  A    between atoms: N_39  and  C_48
                            x       y       z     vdW  Elec       q    Type
                         _______ _______ _______ _____ _____    ______ ____

>  <TORSDO>
F 16

$$$$
=
 OpenBabel11062418273D

 48 53  0  0  1  0  0  0  0  0999 V2000
  189.9400  177.5720  145.0400 C   0  0  0  0  0  3  0  0  0  0  0  0
  191.6900  176.2870  146.1160 C   0  0  0  0  0  0  0  0  0  0  0  0
  191.2680  177.1410  145.0900 C   0  0  0  0  0  3  0  0  0  0  0  0
  189.4470  176.3010  147.0390 C   0  0  0  0  0  3  0  0  0  0  0  0
  189.0220  177.1510  146.0130 C   0  0  0  0  0  0  0  0  0  0  0  0
  190.7770  175.8700  147.0910 C   0  0  0  0  0  3  0  0  0  0  0  0
  193.7150  174.5620  146.1390 C   0  0  0  0  0  2  0  0  0  0  0  0
  194.3700  176.4940  146.2700 C   0  0  0  0  0  0  0  0  0  0  0  0
  195.0210  175.1470  146.2350 C   0  0  2  0  0  3  0  0  0  0  0  0
  194.7760  177.6810  146.3580 O   0  0  0  0  0  0  0  0  0  0  0  0
  193.0460  175.8470  146.1660 N   0  0  0  0  0  0  0  0  0  0  0  0
  196.0570  176.1050  144.2640 F   0  0  0  0  0  0  0  0  0  0  0  0
  195.8210  174.9220  144.9500 C   0  0  1  0  0  3  0  0  0  0  0  0
  197.0550  174.2840  145.2540 O   0  0  0  0  0  0  0  0  0  0  0  0
  197.2760  172.9160  145.0580 C   0  0  0  0  0  0  0  0  0  0  0  0
  197.9360  172.5470  144.0500 O   0  0  0  0  0  0  0  0  0  0  0  0
  196.7350  170.4960  145.3270 C   0  0  0  0  0  2  0  0  0  0  0  0
  194.5900  170.6840  146.4180 F   0  0  0  0  0  0  0  0  0  0  0  0
  196.6930  171.8750  145.9800 C   0  0  2  0  0  3  0  0  0  0  0  0
  195.4180  171.2190  145.4510 C   0  0  1  0  0  0  0  0  0  0  0  0
  194.8140  171.6470  144.1130 C   0  0  0  0  0  2  0  0  0  0  0  0
  192.5550  169.5930  142.1820 C   0  0  0  0  0  2  0  0  0  0  0  0
  194.4020  170.4440  143.2780 C   0  0  2  0  0  3  0  0  0  0  0  0
  194.6390  170.7340  141.8140 C   0  0  0  0  0  2  0  0  0  0  0  0
  193.4460  170.1540  141.0950 C   0  0  0  0  0  2  0  0  0  0  0  0
  192.9830  170.1670  143.4470 N   0  0  0  0  0  2  0  0  0  0  0  0
  187.6560  177.5780  145.9780 N   0  0  0  0  0  2  0  0  0  0  0  0
  186.9390  177.8730  144.7440 C   0  0  0  0  0  2  0  0  0  0  0  0
  186.4730  176.5810  144.0930 C   0  0  0  0  0  2  0  0  0  0  0  0
  186.2820  177.1620  141.6570 C   0  0  0  0  0  0  0  0  0  0  0  0
  186.7440  177.1290  140.4840 O   0  0  0  0  0  0  0  0  0  0  0  0
  186.9710  176.4980  142.7290 N   0  0  0  0  0  0  0  0  0  0  0  0
  185.1040  177.8550  141.9020 O   0  0  0  0  0  1  0  0  0  0  0  0
  188.2670  175.8740  142.5070 C   0  0  0  0  0  2  0  0  0  0  0  0
  189.4340  173.7480  144.8500 O   0  0  0  0  0  1  0  0  0  0  0  0
  189.6430  173.5340  141.1150 C   0  0  1  0  0  3  0  0  0  0  0  0
  191.3460  173.3270  143.4770 C   0  0  0  0  0  2  0  0  0  0  0  0
  189.0320  173.5290  142.4880 C   0  0  2  0  0  3  0  0  0  0  0  0
  191.9750  173.4660  142.0750 C   0  0  1  0  0  3  0  0  0  0  0  0
  188.6840  174.4950  140.7390 O   0  0  0  0  0  0  0  0  0  0  0  0
  191.0400  174.1580  141.0740 C   0  0  0  0  0  2  0  0  0  0  0  0
  188.0850  174.5210  141.9720 N   0  0  0  0  0  0  0  0  0  0  0  0
  189.9890  174.0170  143.6000 C   0  0  1  0  0  3  0  0  0  0  0  0
  193.3090  174.2040  142.1560 C   0  0  2  0  0  3  0  0  0  0  0  0
  193.1140  175.4920  142.6650 O   0  0  0  0  0  1  0  0  0  0  0  0
  193.9130  174.2990  140.8370 N   0  0  0  0  0  2  0  0  0  0  0  0
  195.1240  175.0880  140.9710 C   0  0  0  0  0  2  0  0  0  0  0  0
  196.2800  174.1840  141.3370 C   0  0  0  0  0  1  0  0  0  0  0  0
  1  3  2  0  0  0  0
  1  5  1  0  0  0  0
  2 11  1  0  0  0  0
  2  6  2  0  0  0  0
  3  2  1  0  0  0  0
  4  6  1  0  0  0  0
  5  4  2  0  0  0  0
  7 11  1  0  0  0  0
  7  9  1  0  0  0  0
  8 10  2  0  0  0  0
  9 13  1  6  0  0  0
  9  8  1  0  0  0  0
 11  8  1  0  0  0  0
 13 12  1  1  0  0  0
 13 14  1  0  0  0  0
 15 14  1  0  0  0  0
 16 15  2  0  0  0  0
 17 20  1  0  0  0  0
 17 19  1  0  0  0  0
 19 15  1  6  0  0  0
 20 19  1  0  0  0  0
 20 18  1  1  0  0  0
 21 20  1  0  0  0  0
 22 26  1  0  0  0  0
 23 26  1  0  0  0  0
 23 21  1  1  0  0  0
 24 23  1  0  0  0  0
 25 24  1  0  0  0  0
 25 22  1  0  0  0  0
 27  5  1  0  0  0  0
 28 27  1  0  0  0  0
 29 28  1  0  0  0  0
 30 33  1  0  0  0  0
 30 32  1  0  0  0  0
 31 30  2  0  0  0  0
 32 29  1  0  0  0  0
 34 32  1  0  0  0  0
 36 41  1  1  0  0  0
 36 38  1  0  0  0  0
 37 43  1  0  0  0  0
 38 42  1  6  0  0  0
 38 43  1  0  0  0  0
 39 44  1  1  0  0  0
 39 37  1  0  0  0  0
 40 36  1  0  0  0  0
 40 42  1  0  0  0  0
 41 39  1  0  0  0  0
 42 34  1  0  0  0  0
 43 35  1  1  0  0  0
 44 45  1  6  0  0  0
 46 47  1  0  0  0  0
 46 44  1  0  0  0  0
 47 48  1  0  0  0  0
M  END
>  <MODEL>
2

>  <REMARK>
 VINA RESULT:      -6.7      3.021      8.504
  Name = 
  16 active torsions:
  status: ('A' for Active; 'I' for Inactive)
    1  A    between atoms: C_1  and  N_15
    2  A    between atoms: C_3  and  N_28
    3  A    between atoms: C_3  and  C_44
    4  A    between atoms: C_4  and  N_15
    5  A    between atoms: C_4  and  C_19
    6  A    between atoms: C_10  and  N_41
    7  A    between atoms: C_16  and  O_35
    8  A    between atoms: C_16  and  C_36
    9  A    between atoms: N_18  and  C_30
   10  A    between atoms: N_18  and  C_44
   11  A    between atoms: C_20  and  C_22
   12  A    between atoms: C_20  and  C_42
   13  A    between atoms: C_25  and  C_40
   14  A    between atoms: N_28  and  C_48
   15  A    between atoms: O_35  and  C_40
   16  A    between atoms: N_39  and  C_48
                            x       y       z     vdW  Elec       q    Type
                         _______ _______ _______ _____ _____    ______ ____

>  <TORSDO>
F 16

$$$$
=
 OpenBabel11062418273D

 48 53  0  0  1  0  0  0  0  0999 V2000
  188.5830  175.1590  146.9080 C   0  0  0  0  0  3  0  0  0  0  0  0
  190.9120  175.7530  146.6000 C   0  0  0  0  0  0  0  0  0  0  0  0
  189.9070  174.7810  146.6780 C   0  0  0  0  0  3  0  0  0  0  0  0
  189.2550  177.4830  146.9840 C   0  0  0  0  0  3  0  0  0  0  0  0
  188.2500  176.5130  147.0660 C   0  0  0  0  0  0  0  0  0  0  0  0
  190.5810  177.1050  146.7520 C   0  0  0  0  0  3  0  0  0  0  0  0
  192.9240  174.1880  145.8380 C   0  0  0  0  0  2  0  0  0  0  0  0
  193.5930  175.9810  146.5570 C   0  0  0  0  0  0  0  0  0  0  0  0
  194.2340  174.7480  146.0020 C   0  0  2  0  0  3  0  0  0  0  0  0
  194.0100  177.0800  147.0050 O   0  0  0  0  0  0  0  0  0  0  0  0
  192.2650  175.3660  146.3660 N   0  0  0  0  0  0  0  0  0  0  0  0
  194.4450  176.1640  144.0460 F   0  0  0  0  0  0  0  0  0  0  0  0
  194.8990  174.9980  144.6470 C   0  0  1  0  0  3  0  0  0  0  0  0
  196.3110  175.0530  144.8030 O   0  0  0  0  0  0  0  0  0  0  0  0
  197.0850  173.9390  145.1480 C   0  0  0  0  0  0  0  0  0  0  0  0
  197.2430  173.6660  146.3680 O   0  0  0  0  0  0  0  0  0  0  0  0
  196.9270  172.9790  142.8510 C   0  0  0  0  0  2  0  0  0  0  0  0
  197.8710  170.7960  143.2630 F   0  0  0  0  0  0  0  0  0  0  0  0
  197.7850  173.1010  144.1080 C   0  0  2  0  0  3  0  0  0  0  0  0
  197.0650  171.7950  143.7740 C   0  0  1  0  0  0  0  0  0  0  0  0
  195.7700  171.4090  144.4890 C   0  0  0  0  0  2  0  0  0  0  0  0
  196.4010  169.1910  147.2700 C   0  0  0  0  0  2  0  0  0  0  0  0
  195.9010  170.0650  145.1910 C   0  0  2  0  0  3  0  0  0  0  0  0
  194.5700  169.6680  145.7860 C   0  0  0  0  0  2  0  0  0  0  0  0
  194.8980  169.0720  147.1330 C   0  0  0  0  0  2  0  0  0  0  0  0
  196.8620  170.1510  146.2820 N   0  0  0  0  0  2  0  0  0  0  0  0
  186.8990  176.9220  147.3060 N   0  0  0  0  0  2  0  0  0  0  0  0
  185.8470  176.8410  146.3010 C   0  0  0  0  0  2  0  0  0  0  0  0
  185.9820  177.9900  145.3150 C   0  0  0  0  0  2  0  0  0  0  0  0
  184.4980  178.1510  143.2950 C   0  0  0  0  0  0  0  0  0  0  0  0
  184.2090  177.8030  142.1180 O   0  0  0  0  0  0  0  0  0  0  0  0
  185.6090  177.5510  143.9790 N   0  0  0  0  0  0  0  0  0  0  0  0
  183.7350  179.1300  143.9190 O   0  0  0  0  0  1  0  0  0  0  0  0
  186.4880  176.6140  143.2930 C   0  0  0  0  0  2  0  0  0  0  0  0
  187.0520  176.3810  139.9760 O   0  0  0  0  0  1  0  0  0  0  0  0
  189.4600  176.1010  142.8340 C   0  0  1  0  0  3  0  0  0  0  0  0
  188.6840  174.6870  140.4000 C   0  0  0  0  0  2  0  0  0  0  0  0
  188.4970  176.7320  141.8670 C   0  0  2  0  0  3  0  0  0  0  0  0
  189.5660  173.9900  141.4570 C   0  0  1  0  0  3  0  0  0  0  0  0
  188.6900  176.6390  143.8830 O   0  0  0  0  0  0  0  0  0  0  0  0
  189.3750  174.5740  142.8640 C   0  0  0  0  0  2  0  0  0  0  0  0
  187.7890  177.2420  143.0440 N   0  0  0  0  0  0  0  0  0  0  0  0
  187.7240  175.7130  140.9980 C   0  0  1  0  0  3  0  0  0  0  0  0
  189.3060  172.4850  141.4650 C   0  0  2  0  0  3  0  0  0  0  0  0
  188.7640  172.0990  142.6950 O   0  0  0  0  0  1  0  0  0  0  0  0
  190.5460  171.7590  141.2410 N   0  0  0  0  0  2  0  0  0  0  0  0
  190.7810  170.9340  142.4130 C   0  0  0  0  0  2  0  0  0  0  0  0
  192.0400  171.3930  143.1120 C   0  0  0  0  0  1  0  0  0  0  0  0
  1  5  1  0  0  0  0
  2  3  1  0  0  0  0
  2  6  2  0  0  0  0
  3  1  2  0  0  0  0
  4  5  2  0  0  0  0
  5 27  1  0  0  0  0
  6  4  1  0  0  0  0
  7  9  1  0  0  0  0
  7 11  1  0  0  0  0
  8 10  2  0  0  0  0
  9 13  1  6  0  0  0
  9  8  1  0  0  0  0
 11  8  1  0  0  0  0
 11  2  1  0  0  0  0
 13 12  1  1  0  0  0
 13 14  1  0  0  0  0
 14 15  1  0  0  0  0
 15 16  2  0  0  0  0
 17 20  1  0  0  0  0
 17 19  1  0  0  0  0
 19 15  1  1  0  0  0
 20 18  1  6  0  0  0
 20 19  1  0  0  0  0
 20 21  1  0  0  0  0
 23 21  1  1  0  0  0
 23 24  1  0  0  0  0
 23 26  1  0  0  0  0
 24 25  1  0  0  0  0
 25 22  1  0  0  0  0
 26 22  1  0  0  0  0
 28 27  1  0  0  0  0
 29 28  1  0  0  0  0
 30 33  1  0  0  0  0
 30 32  1  0  0  0  0
 31 30  2  0  0  0  0
 32 29  1  0  0  0  0
 34 32  1  0  0  0  0
 36 41  1  1  0  0  0
 36 40  1  0  0  0  0
 37 43  1  0  0  0  0
 37 39  1  0  0  0  0
 38 36  1  0  0  0  0
 38 42  1  1  0  0  0
 39 44  1  1  0  0  0
 39 41  1  0  0  0  0
 42 34  1  0  0  0  0
 42 40  1  0  0  0  0
 43 35  1  6  0  0  0
 43 38  1  0  0  0  0
 44 45  1  1  0  0  0
 46 44  1  0  0  0  0
 46 47  1  0  0  0  0
 47 48  1  0  0  0  0
M  END
>  <MODEL>
3

>  <REMARK>
 VINA RESULT:      -6.6      3.241      9.313
  Name = 
  16 active torsions:
  status: ('A' for Active; 'I' for Inactive)
    1  A    between atoms: C_1  and  N_15
    2  A    between atoms: C_3  and  N_28
    3  A    between atoms: C_3  and  C_44
    4  A    between atoms: C_4  and  N_15
    5  A    between atoms: C_4  and  C_19
    6  A    between atoms: C_10  and  N_41
    7  A    between atoms: C_16  and  O_35
    8  A    between atoms: C_16  and  C_36
    9  A    between atoms: N_18  and  C_30
   10  A    between atoms: N_18  and  C_44
   11  A    between atoms: C_20  and  C_22
   12  A    between atoms: C_20  and  C_42
   13  A    between atoms: C_25  and  C_40
   14  A    between atoms: N_28  and  C_48
   15  A    between atoms: O_35  and  C_40
   16  A    between atoms: N_39  and  C_48
                            x       y       z     vdW  Elec       q    Type
                         _______ _______ _______ _____ _____    ______ ____

>  <TORSDO>
F 16

$$$$
=
 OpenBabel11062418273D

 48 53  0  0  1  0  0  0  0  0999 V2000
  194.7030  175.2630  146.1070 C   0  0  0  0  0  3  0  0  0  0  0  0
  192.5850  176.2900  145.5310 C   0  0  0  0  0  0  0  0  0  0  0  0
  193.4540  175.7570  146.4900 C   0  0  0  0  0  3  0  0  0  0  0  0
  194.2240  175.8300  143.8040 C   0  0  0  0  0  3  0  0  0  0  0  0
  195.0930  175.2940  144.7600 C   0  0  0  0  0  0  0  0  0  0  0  0
  192.9740  176.3260  144.1870 C   0  0  0  0  0  3  0  0  0  0  0  0
  190.1780  177.3840  145.2380 C   0  0  0  0  0  2  0  0  0  0  0  0
  190.5720  176.9430  147.1950 C   0  0  0  0  0  0  0  0  0  0  0  0
  189.4240  177.5460  146.4480 C   0  0  2  0  0  3  0  0  0  0  0  0
  190.8140  176.6790  148.4010 O   0  0  0  0  0  0  0  0  0  0  0  0
  191.3090  176.7940  145.9240 N   0  0  0  0  0  0  0  0  0  0  0  0
  188.4890  175.3460  146.8540 F   0  0  0  0  0  0  0  0  0  0  0  0
  188.1900  176.6410  146.4510 C   0  0  1  0  0  3  0  0  0  0  0  0
  187.1890  177.1910  147.2970 O   0  0  0  0  0  0  0  0  0  0  0  0
  185.9080  177.5280  146.8450 C   0  0  0  0  0  0  0  0  0  0  0  0
  185.0190  176.6360  146.8240 O   0  0  0  0  0  0  0  0  0  0  0  0
  184.1680  178.9440  145.7520 C   0  0  0  0  0  2  0  0  0  0  0  0
  185.5650  180.1920  144.2310 F   0  0  0  0  0  0  0  0  0  0  0  0
  185.5830  178.9050  146.3230 C   0  0  2  0  0  3  0  0  0  0  0  0
  185.3470  178.9590  144.8140 C   0  0  1  0  0  0  0  0  0  0  0  0
  185.4770  177.7010  143.9550 C   0  0  0  0  0  2  0  0  0  0  0  0
  188.4680  177.9130  141.9390 C   0  0  0  0  0  2  0  0  0  0  0  0
  186.2850  177.9680  142.6940 C   0  0  2  0  0  3  0  0  0  0  0  0
  186.3920  176.7010  141.8780 C   0  0  0  0  0  2  0  0  0  0  0  0
  187.8090  176.6780  141.3620 C   0  0  0  0  0  2  0  0  0  0  0  0
  187.6370  178.3880  143.0330 N   0  0  0  0  0  2  0  0  0  0  0  0
  196.3670  174.7890  144.3450 N   0  0  0  0  0  2  0  0  0  0  0  0
  196.5280  173.5930  143.5290 C   0  0  0  0  0  2  0  0  0  0  0  0
  196.8730  172.4040  144.4110 C   0  0  0  0  0  2  0  0  0  0  0  0
  195.6580  170.6010  145.6670 C   0  0  0  0  0  0  0  0  0  0  0  0
  194.6210  169.9100  145.8610 O   0  0  0  0  0  0  0  0  0  0  0  0
  195.7010  171.5650  144.6030 N   0  0  0  0  0  0  0  0  0  0  0  0
  196.7560  170.4240  146.4990 O   0  0  0  0  0  1  0  0  0  0  0  0
  194.5160  171.8450  143.8040 C   0  0  0  0  0  2  0  0  0  0  0  0
  194.1250  173.7360  141.0390 O   0  0  0  0  0  1  0  0  0  0  0  0
  192.6530  170.3930  141.8740 C   0  0  1  0  0  3  0  0  0  0  0  0
  191.8460  173.0270  140.9100 C   0  0  0  0  0  2  0  0  0  0  0  0
  193.6920  171.4180  141.5190 C   0  0  2  0  0  3  0  0  0  0  0  0
  190.7840  172.0210  141.4010 C   0  0  1  0  0  3  0  0  0  0  0  0
  193.4670  170.0060  142.9570 O   0  0  0  0  0  0  0  0  0  0  0  0
  191.3530  171.0040  142.4010 C   0  0  0  0  0  2  0  0  0  0  0  0
  194.4490  170.9190  142.6700 N   0  0  0  0  0  0  0  0  0  0  0  0
  193.1910  172.8780  141.6170 C   0  0  1  0  0  3  0  0  0  0  0  0
  189.5890  172.7530  142.0070 C   0  0  2  0  0  3  0  0  0  0  0  0
  188.6530  173.0480  141.0110 O   0  0  0  0  0  1  0  0  0  0  0  0
  190.0230  173.9900  142.6360 N   0  0  0  0  0  2  0  0  0  0  0  0
  189.4020  174.0500  143.9470 C   0  0  0  0  0  2  0  0  0  0  0  0
  190.3250  173.4340  144.9740 C   0  0  0  0  0  1  0  0  0  0  0  0
  1  3  1  0  0  0  0
  2 11  1  0  0  0  0
  2  3  2  0  0  0  0
  4  6  2  0  0  0  0
  4  5  1  0  0  0  0
  5  1  2  0  0  0  0
  6  2  1  0  0  0  0
  7 11  1  0  0  0  0
  7  9  1  0  0  0  0
  8 10  2  0  0  0  0
  9 13  1  6  0  0  0
  9  8  1  0  0  0  0
 11  8  1  0  0  0  0
 13 12  1  1  0  0  0
 13 14  1  0  0  0  0
 15 14  1  0  0  0  0
 16 15  2  0  0  0  0
 17 19  1  0  0  0  0
 19 15  1  6  0  0  0
 20 18  1  6  0  0  0
 20 17  1  0  0  0  0
 20 19  1  0  0  0  0
 21 20  1  0  0  0  0
 22 26  1  0  0  0  0
 23 26  1  0  0  0  0
 23 21  1  1  0  0  0
 24 23  1  0  0  0  0
 25 24  1  0  0  0  0
 25 22  1  0  0  0  0
 27  5  1  0  0  0  0
 28 27  1  0  0  0  0
 28 29  1  0  0  0  0
 29 32  1  0  0  0  0
 30 31  2  0  0  0  0
 30 33  1  0  0  0  0
 32 30  1  0  0  0  0
 34 32  1  0  0  0  0
 36 41  1  1  0  0  0
 36 40  1  0  0  0  0
 37 39  1  0  0  0  0
 37 43  1  0  0  0  0
 38 43  1  0  0  0  0
 38 36  1  0  0  0  0
 38 42  1  1  0  0  0
 39 44  1  1  0  0  0
 39 41  1  0  0  0  0
 42 40  1  0  0  0  0
 42 34  1  0  0  0  0
 43 35  1  6  0  0  0
 44 45  1  6  0  0  0
 44 46  1  0  0  0  0
 46 47  1  0  0  0  0
 47 48  1  0  0  0  0
M  END
>  <MODEL>
4

>  <REMARK>
 VINA RESULT:      -6.6      1.719      2.371
  Name = 
  16 active torsions:
  status: ('A' for Active; 'I' for Inactive)
    1  A    between atoms: C_1  and  N_15
    2  A    between atoms: C_3  and  N_28
    3  A    between atoms: C_3  and  C_44
    4  A    between atoms: C_4  and  N_15
    5  A    between atoms: C_4  and  C_19
    6  A    between atoms: C_10  and  N_41
    7  A    between atoms: C_16  and  O_35
    8  A    between atoms: C_16  and  C_36
    9  A    between atoms: N_18  and  C_30
   10  A    between atoms: N_18  and  C_44
   11  A    between atoms: C_20  and  C_22
   12  A    between atoms: C_20  and  C_42
   13  A    between atoms: C_25  and  C_40
   14  A    between atoms: N_28  and  C_48
   15  A    between atoms: O_35  and  C_40
   16  A    between atoms: N_39  and  C_48
                            x       y       z     vdW  Elec       q    Type
                         _______ _______ _______ _____ _____    ______ ____

>  <TORSDO>
F 16

$$$$
=
 OpenBabel11062418273D

 48 53  0  0  1  0  0  0  0  0999 V2000
  187.0580  176.2830  146.9210 C   0  0  0  0  0  3  0  0  0  0  0  0
  189.4620  176.5840  146.9500 C   0  0  0  0  0  0  0  0  0  0  0  0
  188.3440  175.7700  146.7360 C   0  0  0  0  0  3  0  0  0  0  0  0
  187.9980  178.4280  147.5310 C   0  0  0  0  0  3  0  0  0  0  0  0
  186.8790  177.6150  147.3220 C   0  0  0  0  0  0  0  0  0  0  0  0
  189.2860  177.9140  147.3450 C   0  0  0  0  0  3  0  0  0  0  0  0
  191.5650  175.0120  147.3800 C   0  0  0  0  0  2  0  0  0  0  0  0
  191.9140  176.3400  145.8650 C   0  0  0  0  0  0  0  0  0  0  0  0
  192.6950  175.2490  146.5280 C   0  0  2  0  0  3  0  0  0  0  0  0
  192.1350  177.1600  144.9380 O   0  0  0  0  0  0  0  0  0  0  0  0
  190.7750  176.0580  146.7620 N   0  0  0  0  0  0  0  0  0  0  0  0
  193.2570  174.4610  144.3060 F   0  0  0  0  0  0  0  0  0  0  0  0
  192.9380  174.0600  145.5960 C   0  0  1  0  0  3  0  0  0  0  0  0
  193.9760  173.2400  146.1180 O   0  0  0  0  0  0  0  0  0  0  0  0
  194.3750  172.0400  145.5190 C   0  0  0  0  0  0  0  0  0  0  0  0
  193.5100  171.3390  144.9300 O   0  0  0  0  0  0  0  0  0  0  0  0
  196.7570  172.6850  145.8910 C   0  0  0  0  0  2  0  0  0  0  0  0
  197.8170  171.2690  144.2490 F   0  0  0  0  0  0  0  0  0  0  0  0
  195.7930  171.5340  145.6160 C   0  0  2  0  0  3  0  0  0  0  0  0
  196.7180  172.0610  144.5190 C   0  0  1  0  0  0  0  0  0  0  0  0
  196.1880  172.9900  143.4260 C   0  0  0  0  0  2  0  0  0  0  0  0
  197.0590  176.2670  142.1800 C   0  0  0  0  0  2  0  0  0  0  0  0
  196.9460  174.3090  143.4000 C   0  0  2  0  0  3  0  0  0  0  0  0
  196.2110  175.3370  144.2280 C   0  0  0  0  0  2  0  0  0  0  0  0
  196.3080  176.6220  143.4450 C   0  0  0  0  0  2  0  0  0  0  0  0
  197.0330  174.8210  142.0400 N   0  0  0  0  0  2  0  0  0  0  0  0
  185.5700  178.1610  147.5200 N   0  0  0  0  0  2  0  0  0  0  0  0
  184.5890  178.2970  146.4510 C   0  0  0  0  0  2  0  0  0  0  0  0
  185.2010  179.0410  145.2750 C   0  0  0  0  0  2  0  0  0  0  0  0
  183.9560  178.4690  143.1710 C   0  0  0  0  0  0  0  0  0  0  0  0
  183.8680  177.8210  142.0930 O   0  0  0  0  0  0  0  0  0  0  0  0
  185.0650  178.2560  144.0590 N   0  0  0  0  0  0  0  0  0  0  0  0
  182.9720  179.3970  143.4870 O   0  0  0  0  0  1  0  0  0  0  0  0
  186.1630  177.3770  143.6810 C   0  0  0  0  0  2  0  0  0  0  0  0
  186.5160  176.7280  140.3910 O   0  0  0  0  0  1  0  0  0  0  0  0
  189.1360  177.3190  143.0040 C   0  0  1  0  0  3  0  0  0  0  0  0
  188.4610  175.4280  140.8840 C   0  0  0  0  0  2  0  0  0  0  0  0
  188.0050  177.6150  142.0600 C   0  0  2  0  0  3  0  0  0  0  0  0
  189.5320  175.0680  141.9350 C   0  0  1  0  0  3  0  0  0  0  0  0
  188.3590  177.8740  144.0390 O   0  0  0  0  0  0  0  0  0  0  0  0
  189.3390  175.8240  143.2570 C   0  0  0  0  0  2  0  0  0  0  0  0
  187.3030  178.1730  143.2180 N   0  0  0  0  0  0  0  0  0  0  0  0
  187.3740  176.3550  141.4240 C   0  0  1  0  0  3  0  0  0  0  0  0
  189.5570  173.5610  142.1810 C   0  0  2  0  0  3  0  0  0  0  0  0
  189.9650  173.2970  143.4920 O   0  0  0  0  0  1  0  0  0  0  0  0
  190.4750  172.9160  141.2570 N   0  0  0  0  0  2  0  0  0  0  0  0
  191.7050  173.6890  141.2600 C   0  0  0  0  0  2  0  0  0  0  0  0
  192.8740  172.7800  141.5660 C   0  0  0  0  0  1  0  0  0  0  0  0
  1  5  1  0  0  0  0
  2  6  2  0  0  0  0
  3  1  2  0  0  0  0
  3  2  1  0  0  0  0
  5 27  1  0  0  0  0
  5  4  2  0  0  0  0
  6  4  1  0  0  0  0
  8  9  1  0  0  0  0
  8 11  1  0  0  0  0
  9 13  1  6  0  0  0
  9  7  1  0  0  0  0
 10  8  2  0  0  0  0
 11  2  1  0  0  0  0
 11  7  1  0  0  0  0
 13 12  1  6  0  0  0
 13 14  1  0  0  0  0
 15 14  1  0  0  0  0
 16 15  2  0  0  0  0
 19 15  1  6  0  0  0
 19 17  1  0  0  0  0
 20 18  1  6  0  0  0
 20 19  1  0  0  0  0
 20 17  1  0  0  0  0
 21 20  1  0  0  0  0
 22 25  1  0  0  0  0
 23 21  1  6  0  0  0
 23 24  1  0  0  0  0
 25 24  1  0  0  0  0
 26 22  1  0  0  0  0
 26 23  1  0  0  0  0
 28 27  1  0  0  0  0
 29 28  1  0  0  0  0
 30 33  1  0  0  0  0
 30 32  1  0  0  0  0
 31 30  2  0  0  0  0
 32 29  1  0  0  0  0
 34 32  1  0  0  0  0
 36 41  1  1  0  0  0
 36 40  1  0  0  0  0
 37 43  1  0  0  0  0
 37 39  1  0  0  0  0
 38 36  1  0  0  0  0
 38 42  1  1  0  0  0
 39 44  1  1  0  0  0
 39 41  1  0  0  0  0
 42 34  1  0  0  0  0
 42 40  1  0  0  0  0
 43 35  1  6  0  0  0
 43 38  1  0  0  0  0
 44 45  1  1  0  0  0
 46 47  1  0  0  0  0
 46 44  1  0  0  0  0
 47 48  1  0  0  0  0
M  END
>  <MODEL>
5

>  <REMARK>
 VINA RESULT:      -6.6      2.885      9.032
  Name = 
  16 active torsions:
  status: ('A' for Active; 'I' for Inactive)
    1  A    between atoms: C_1  and  N_15
    2  A    between atoms: C_3  and  N_28
    3  A    between atoms: C_3  and  C_44
    4  A    between atoms: C_4  and  N_15
    5  A    between atoms: C_4  and  C_19
    6  A    between atoms: C_10  and  N_41
    7  A    between atoms: C_16  and  O_35
    8  A    between atoms: C_16  and  C_36
    9  A    between atoms: N_18  and  C_30
   10  A    between atoms: N_18  and  C_44
   11  A    between atoms: C_20  and  C_22
   12  A    between atoms: C_20  and  C_42
   13  A    between atoms: C_25  and  C_40
   14  A    between atoms: N_28  and  C_48
   15  A    between atoms: O_35  and  C_40
   16  A    between atoms: N_39  and  C_48
                            x       y       z     vdW  Elec       q    Type
                         _______ _______ _______ _____ _____    ______ ____

>  <TORSDO>
F 16

$$$$
=
 OpenBabel11062418273D

 48 53  0  0  1  0  0  0  0  0999 V2000
  195.2090  175.2080  143.8000 C   0  0  0  0  0  3  0  0  0  0  0  0
  193.1920  176.2860  144.6020 C   0  0  0  0  0  0  0  0  0  0  0  0
  193.9900  175.8400  143.5420 C   0  0  0  0  0  3  0  0  0  0  0  0
  194.8410  175.4610  146.1780 C   0  0  0  0  0  3  0  0  0  0  0  0
  195.6420  175.0180  145.1200 C   0  0  0  0  0  0  0  0  0  0  0  0
  193.6200  176.0930  145.9200 C   0  0  0  0  0  3  0  0  0  0  0  0
  191.5370  178.1290  143.6320 C   0  0  0  0  0  2  0  0  0  0  0  0
  190.5300  176.6780  144.6620 C   0  0  0  0  0  0  0  0  0  0  0  0
  190.1480  177.9210  143.9210 C   0  0  2  0  0  3  0  0  0  0  0  0
  189.9070  175.7920  145.3010 O   0  0  0  0  0  0  0  0  0  0  0  0
  191.9480  176.9320  144.3380 N   0  0  0  0  0  0  0  0  0  0  0  0
  189.7850  176.4450  142.0320 F   0  0  0  0  0  0  0  0  0  0  0  0
  189.3610  177.6160  142.6440 C   0  0  1  0  0  3  0  0  0  0  0  0
  187.9730  177.5320  142.9400 O   0  0  0  0  0  0  0  0  0  0  0  0
  186.9910  177.3740  141.9550 C   0  0  0  0  0  0  0  0  0  0  0  0
  187.1520  176.4870  141.0750 O   0  0  0  0  0  0  0  0  0  0  0  0
  185.8200  179.3130  143.0000 C   0  0  0  0  0  2  0  0  0  0  0  0
  183.5400  178.5330  142.8510 F   0  0  0  0  0  0  0  0  0  0  0  0
  185.7830  178.2740  141.8820 C   0  0  2  0  0  3  0  0  0  0  0  0
  184.8500  178.1630  143.0880 C   0  0  1  0  0  0  0  0  0  0  0  0
  185.1480  177.1820  144.2220 C   0  0  0  0  0  2  0  0  0  0  0  0
  185.0430  178.4420  147.6060 C   0  0  0  0  0  2  0  0  0  0  0  0
  185.6810  177.8990  145.4530 C   0  0  2  0  0  3  0  0  0  0  0  0
  186.4050  176.9160  146.3430 C   0  0  0  0  0  2  0  0  0  0  0  0
  186.0100  177.2870  147.7510 C   0  0  0  0  0  2  0  0  0  0  0  0
  184.5870  178.4670  146.2260 N   0  0  0  0  0  2  0  0  0  0  0  0
  196.8890  174.3760  145.4060 N   0  0  0  0  0  2  0  0  0  0  0  0
  197.2200  173.0310  144.9550 C   0  0  0  0  0  2  0  0  0  0  0  0
  196.3120  172.0170  145.6320 C   0  0  0  0  0  2  0  0  0  0  0  0
  196.1300  169.8000  144.4670 C   0  0  0  0  0  0  0  0  0  0  0  0
  195.5560  169.0420  143.6390 O   0  0  0  0  0  0  0  0  0  0  0  0
  195.6910  171.1560  144.6370 N   0  0  0  0  0  0  0  0  0  0  0  0
  197.1870  169.3040  145.2200 O   0  0  0  0  0  1  0  0  0  0  0  0
  194.5090  171.6490  143.9440 C   0  0  0  0  0  2  0  0  0  0  0  0
  192.5200  169.2730  142.6120 O   0  0  0  0  0  1  0  0  0  0  0  0
  191.5980  172.4760  144.3250 C   0  0  1  0  0  3  0  0  0  0  0  0
  191.0120  170.9800  141.8870 C   0  0  0  0  0  2  0  0  0  0  0  0
  192.1190  171.0770  144.1530 C   0  0  2  0  0  3  0  0  0  0  0  0
  190.5920  172.4600  142.0110 C   0  0  1  0  0  3  0  0  0  0  0  0
  192.8190  172.8080  144.9430 O   0  0  0  0  0  0  0  0  0  0  0  0
  191.4640  173.2390  143.0060 C   0  0  0  0  0  2  0  0  0  0  0  0
  193.3370  171.5460  144.8190 N   0  0  0  0  0  0  0  0  0  0  0  0
  192.2750  170.6440  142.6770 C   0  0  1  0  0  3  0  0  0  0  0  0
  190.6080  173.1390  140.6430 C   0  0  2  0  0  3  0  0  0  0  0  0
  191.6780  174.0350  140.5660 O   0  0  0  0  0  1  0  0  0  0  0  0
  189.3640  173.8610  140.4260 N   0  0  0  0  0  2  0  0  0  0  0  0
  188.3860  172.9010  139.9450 C   0  0  0  0  0  2  0  0  0  0  0  0
  188.8910  172.2580  138.6720 C   0  0  0  0  0  1  0  0  0  0  0  0
  1  5  1  0  0  0  0
  2  6  2  0  0  0  0
  3  1  2  0  0  0  0
  3  2  1  0  0  0  0
  5 27  1  0  0  0  0
  5  4  2  0  0  0  0
  6  4  1  0  0  0  0
  7  9  1  0  0  0  0
  7 11  1  0  0  0  0
  8 10  2  0  0  0  0
  9 13  1  6  0  0  0
  9  8  1  0  0  0  0
 11  2  1  0  0  0  0
 11  8  1  0  0  0  0
 13 12  1  1  0  0  0
 13 14  1  0  0  0  0
 15 14  1  0  0  0  0
 16 15  2  0  0  0  0
 17 20  1  0  0  0  0
 19 15  1  1  0  0  0
 19 17  1  0  0  0  0
 19 20  1  0  0  0  0
 20 18  1  6  0  0  0
 20 21  1  0  0  0  0
 22 25  1  0  0  0  0
 23 21  1  6  0  0  0
 23 26  1  0  0  0  0
 23 24  1  0  0  0  0
 24 25  1  0  0  0  0
 26 22  1  0  0  0  0
 28 27  1  0  0  0  0
 28 29  1  0  0  0  0
 30 32  1  0  0  0  0
 30 33  1  0  0  0  0
 31 30  2  0  0  0  0
 32 29  1  0  0  0  0
 34 32  1  0  0  0  0
 34 42  1  0  0  0  0
 36 41  1  6  0  0  0
 36 40  1  0  0  0  0
 37 39  1  0  0  0  0
 37 43  1  0  0  0  0
 38 36  1  0  0  0  0
 38 42  1  6  0  0  0
 39 44  1  6  0  0  0
 39 41  1  0  0  0  0
 42 40  1  0  0  0  0
 43 35  1  1  0  0  0
 43 38  1  0  0  0  0
 44 45  1  1  0  0  0
 46 44  1  0  0  0  0
 47 46  1  0  0  0  0
 48 47  1  0  0  0  0
M  END
>  <MODEL>
6

>  <REMARK>
 VINA RESULT:      -6.5      2.114      3.181
  Name = 
  16 active torsions:
  status: ('A' for Active; 'I' for Inactive)
    1  A    between atoms: C_1  and  N_15
    2  A    between atoms: C_3  and  N_28
    3  A    between atoms: C_3  and  C_44
    4  A    between atoms: C_4  and  N_15
    5  A    between atoms: C_4  and  C_19
    6  A    between atoms: C_10  and  N_41
    7  A    between atoms: C_16  and  O_35
    8  A    between atoms: C_16  and  C_36
    9  A    between atoms: N_18  and  C_30
   10  A    between atoms: N_18  and  C_44
   11  A    between atoms: C_20  and  C_22
   12  A    between atoms: C_20  and  C_42
   13  A    between atoms: C_25  and  C_40
   14  A    between atoms: N_28  and  C_48
   15  A    between atoms: O_35  and  C_40
   16  A    between atoms: N_39  and  C_48
                            x       y       z     vdW  Elec       q    Type
                         _______ _______ _______ _____ _____    ______ ____

>  <TORSDO>
F 16

$$$$
=
 OpenBabel11062418273D

 48 53  0  0  1  0  0  0  0  0999 V2000
  190.6570  173.7780  142.1670 C   0  0  0  0  0  3  0  0  0  0  0  0
  189.8510  174.2240  144.4090 C   0  0  0  0  0  0  0  0  0  0  0  0
  190.1510  174.6690  143.1160 C   0  0  0  0  0  3  0  0  0  0  0  0
  190.5640  171.9890  143.7940 C   0  0  0  0  0  3  0  0  0  0  0  0
  190.8680  172.4320  142.5030 C   0  0  0  0  0  0  0  0  0  0  0  0
  190.0570  172.8810  144.7440 C   0  0  0  0  0  3  0  0  0  0  0  0
  188.9710  176.5380  145.3820 C   0  0  0  0  0  2  0  0  0  0  0  0
  188.9500  175.0660  146.8010 C   0  0  0  0  0  0  0  0  0  0  0  0
  188.5800  176.5170  146.7620 C   0  0  2  0  0  3  0  0  0  0  0  0
  188.9420  174.1660  147.6790 O   0  0  0  0  0  0  0  0  0  0  0  0
  189.3360  175.1360  145.3770 N   0  0  0  0  0  0  0  0  0  0  0  0
  186.5810  176.2180  148.1010 F   0  0  0  0  0  0  0  0  0  0  0  0
  187.0730  176.7360  146.9100 C   0  0  1  0  0  3  0  0  0  0  0  0
  186.7760  178.1240  146.8270 O   0  0  0  0  0  0  0  0  0  0  0  0
  185.5520  178.6160  146.3610 C   0  0  0  0  0  0  0  0  0  0  0  0
  184.4900  178.2110  146.9050 O   0  0  0  0  0  0  0  0  0  0  0  0
  184.1320  179.4030  144.4660 C   0  0  0  0  0  2  0  0  0  0  0  0
  185.8260  179.6210  142.7600 F   0  0  0  0  0  0  0  0  0  0  0  0
  185.4670  179.5630  145.1900 C   0  0  2  0  0  3  0  0  0  0  0  0
  185.3900  178.8650  143.8310 C   0  0  1  0  0  0  0  0  0  0  0  0
  185.4340  177.3410  143.7300 C   0  0  0  0  0  2  0  0  0  0  0  0
  187.0660  177.4700  140.5090 C   0  0  0  0  0  2  0  0  0  0  0  0
  186.3900  176.8830  142.6390 C   0  0  2  0  0  3  0  0  0  0  0  0
  187.7300  177.5570  142.8180 C   0  0  0  0  0  2  0  0  0  0  0  0
  188.1850  177.9170  141.4250 C   0  0  0  0  0  2  0  0  0  0  0  0
  185.8830  177.2550  141.3260 N   0  0  0  0  0  2  0  0  0  0  0  0
  191.3880  171.5020  141.5470 N   0  0  0  0  0  2  0  0  0  0  0  0
  191.3540  171.7290  140.1080 C   0  0  0  0  0  2  0  0  0  0  0  0
  192.7100  171.4120  139.4990 C   0  0  0  0  0  2  0  0  0  0  0  0
  193.6020  172.5600  137.4520 C   0  0  0  0  0  0  0  0  0  0  0  0
  194.0280  173.5980  136.8770 O   0  0  0  0  0  1  0  0  0  0  0  0
  193.2560  172.5910  138.8450 N   0  0  0  0  0  0  0  0  0  0  0  0
  193.4640  171.3880  136.7200 O   0  0  0  0  0  0  0  0  0  0  0  0
  193.2800  173.8410  139.5920 C   0  0  0  0  0  2  0  0  0  0  0  0
  194.6060  172.2630  142.2610 O   0  0  0  0  0  1  0  0  0  0  0  0
  195.1260  175.7750  141.0610 C   0  0  1  0  0  3  0  0  0  0  0  0
  194.4760  174.3050  143.4980 C   0  0  0  0  0  2  0  0  0  0  0  0
  195.1980  174.2740  141.0790 C   0  0  2  0  0  3  0  0  0  0  0  0
  194.2750  175.8330  143.4350 C   0  0  1  0  0  3  0  0  0  0  0  0
  194.6050  175.6890  139.7550 O   0  0  0  0  0  0  0  0  0  0  0  0
  194.0620  176.3420  142.0030 C   0  0  0  0  0  2  0  0  0  0  0  0
  194.6600  174.3200  139.7180 N   0  0  0  0  0  0  0  0  0  0  0  0
  194.2930  173.6170  142.1470 C   0  0  1  0  0  3  0  0  0  0  0  0
  193.1140  176.2590  144.3300 C   0  0  2  0  0  3  0  0  0  0  0  0
  192.3350  177.2210  143.6800 O   0  0  0  0  0  1  0  0  0  0  0  0
  193.6170  176.8160  145.5760 N   0  0  0  0  0  2  0  0  0  0  0  0
  192.7020  176.4140  146.6290 C   0  0  0  0  0  2  0  0  0  0  0  0
  192.6780  174.9060  146.7330 C   0  0  0  0  0  1  0  0  0  0  0  0
  1  5  2  0  0  0  0
  1  3  1  0  0  0  0
  2  6  1  0  0  0  0
  2 11  1  0  0  0  0
  3  2  2  0  0  0  0
  4  6  2  0  0  0  0
  5  4  1  0  0  0  0
  7  9  1  0  0  0  0
  8 10  2  0  0  0  0
  9  8  1  0  0  0  0
  9 13  1  6  0  0  0
 11  7  1  0  0  0  0
 11  8  1  0  0  0  0
 13 12  1  1  0  0  0
 14 13  1  0  0  0  0
 15 14  1  0  0  0  0
 15 16  2  0  0  0  0
 17 19  1  0  0  0  0
 19 15  1  1  0  0  0
 20 18  1  6  0  0  0
 20 17  1  0  0  0  0
 20 19  1  0  0  0  0
 21 20  1  0  0  0  0
 22 26  1  0  0  0  0
 22 25  1  0  0  0  0
 23 24  1  0  0  0  0
 23 21  1  1  0  0  0
 25 24  1  0  0  0  0
 26 23  1  0  0  0  0
 27  5  1  0  0  0  0
 28 27  1  0  0  0  0
 29 28  1  0  0  0  0
 30 32  1  0  0  0  0
 31 30  1  0  0  0  0
 32 29  1  0  0  0  0
 32 34  1  0  0  0  0
 33 30  2  0  0  0  0
 34 42  1  0  0  0  0
 36 38  1  0  0  0  0
 36 41  1  1  0  0  0
 38 42  1  6  0  0  0
 38 43  1  0  0  0  0
 39 37  1  0  0  0  0
 39 44  1  1  0  0  0
 40 36  1  0  0  0  0
 41 39  1  0  0  0  0
 42 40  1  0  0  0  0
 43 35  1  1  0  0  0
 43 37  1  0  0  0  0
 44 45  1  6  0  0  0
 44 46  1  0  0  0  0
 46 47  1  0  0  0  0
 47 48  1  0  0  0  0
M  END
>  <MODEL>
7

>  <REMARK>
 VINA RESULT:      -6.4      2.384      4.377
  Name = 
  16 active torsions:
  status: ('A' for Active; 'I' for Inactive)
    1  A    between atoms: C_1  and  N_15
    2  A    between atoms: C_3  and  N_28
    3  A    between atoms: C_3  and  C_44
    4  A    between atoms: C_4  and  N_15
    5  A    between atoms: C_4  and  C_19
    6  A    between atoms: C_10  and  N_41
    7  A    between atoms: C_16  and  O_35
    8  A    between atoms: C_16  and  C_36
    9  A    between atoms: N_18  and  C_30
   10  A    between atoms: N_18  and  C_44
   11  A    between atoms: C_20  and  C_22
   12  A    between atoms: C_20  and  C_42
   13  A    between atoms: C_25  and  C_40
   14  A    between atoms: N_28  and  C_48
   15  A    between atoms: O_35  and  C_40
   16  A    between atoms: N_39  and  C_48
                            x       y       z     vdW  Elec       q    Type
                         _______ _______ _______ _____ _____    ______ ____

>  <TORSDO>
F 16

$$$$
=
 OpenBabel11062418273D

 48 53  0  0  1  0  0  0  0  0999 V2000
  192.1390  170.4510  144.0020 C   0  0  0  0  0  3  0  0  0  0  0  0
  190.8010  171.4540  142.2480 C   0  0  0  0  0  0  0  0  0  0  0  0
  191.2320  171.4260  143.5790 C   0  0  0  0  0  3  0  0  0  0  0  0
  192.1900  169.5250  141.7670 C   0  0  0  0  0  3  0  0  0  0  0  0
  192.6200  169.4930  143.0970 C   0  0  0  0  0  0  0  0  0  0  0  0
  191.2830  170.5020  141.3430 C   0  0  0  0  0  3  0  0  0  0  0  0
  188.5720  172.9070  142.2600 C   0  0  0  0  0  2  0  0  0  0  0  0
  189.8200  173.4520  140.7350 C   0  0  0  0  0  0  0  0  0  0  0  0
  188.4780  173.8970  141.2270 C   0  0  2  0  0  3  0  0  0  0  0  0
  190.5810  173.7860  139.7920 O   0  0  0  0  0  0  0  0  0  0  0  0
  189.8740  172.4490  141.8180 N   0  0  0  0  0  0  0  0  0  0  0  0
  189.8110  175.7790  141.9760 F   0  0  0  0  0  0  0  0  0  0  0  0
  188.5140  175.3090  141.8150 C   0  0  1  0  0  3  0  0  0  0  0  0
  187.7780  176.1980  140.9850 O   0  0  0  0  0  0  0  0  0  0  0  0
  187.5060  177.5250  141.3380 C   0  0  0  0  0  0  0  0  0  0  0  0
  188.4680  178.2810  141.6390 O   0  0  0  0  0  0  0  0  0  0  0  0
  185.9330  178.9320  142.6690 C   0  0  0  0  0  2  0  0  0  0  0  0
  183.9500  177.5630  142.5250 F   0  0  0  0  0  0  0  0  0  0  0  0
  186.0960  178.0520  141.4330 C   0  0  2  0  0  3  0  0  0  0  0  0
  185.3250  177.5530  142.6550 C   0  0  1  0  0  0  0  0  0  0  0  0
  185.9680  176.5780  143.6420 C   0  0  0  0  0  2  0  0  0  0  0  0
  186.3250  176.9630  147.2170 C   0  0  0  0  0  2  0  0  0  0  0  0
  186.3790  177.2790  144.9290 C   0  0  2  0  0  3  0  0  0  0  0  0
  187.7830  176.8700  145.3070 C   0  0  0  0  0  2  0  0  0  0  0  0
  187.7560  176.6900  146.8050 C   0  0  0  0  0  2  0  0  0  0  0  0
  185.4990  176.8930  146.0230 N   0  0  0  0  0  2  0  0  0  0  0  0
  193.5470  168.4830  143.5100 N   0  0  0  0  0  2  0  0  0  0  0  0
  194.6500  168.7350  144.4290 C   0  0  0  0  0  2  0  0  0  0  0  0
  195.6910  169.6190  143.7620 C   0  0  0  0  0  2  0  0  0  0  0  0
  196.9290  170.9360  145.5040 C   0  0  0  0  0  0  0  0  0  0  0  0
  197.1210  172.0130  146.1320 O   0  0  0  0  0  1  0  0  0  0  0  0
  195.8790  170.8400  144.5300 N   0  0  0  0  0  0  0  0  0  0  0  0
  197.7520  169.8470  145.7600 O   0  0  0  0  0  0  0  0  0  0  0  0
  195.0910  172.0090  144.1650 C   0  0  0  0  0  2  0  0  0  0  0  0
  196.6870  174.9470  144.6050 O   0  0  0  0  0  1  0  0  0  0  0  0
  194.3640  173.8770  141.8660 C   0  0  1  0  0  3  0  0  0  0  0  0
  194.7750  176.0850  143.7320 C   0  0  0  0  0  2  0  0  0  0  0  0
  195.6060  173.9320  142.7100 C   0  0  2  0  0  3  0  0  0  0  0  0
  193.4440  175.9550  142.9630 C   0  0  1  0  0  3  0  0  0  0  0  0
  194.3450  172.4830  142.0640 O   0  0  0  0  0  0  0  0  0  0  0  0
  193.1450  174.5090  142.5410 C   0  0  0  0  0  2  0  0  0  0  0  0
  195.4800  172.4770  142.8320 N   0  0  0  0  0  0  0  0  0  0  0  0
  195.4400  174.7410  144.0180 C   0  0  1  0  0  3  0  0  0  0  0  0
  192.2890  176.5190  143.7880 C   0  0  2  0  0  3  0  0  0  0  0  0
  192.7550  177.5270  144.6370 O   0  0  0  0  0  1  0  0  0  0  0  0
  191.6810  175.4660  144.5860 N   0  0  0  0  0  2  0  0  0  0  0  0
  191.5320  175.9800  145.9360 C   0  0  0  0  0  2  0  0  0  0  0  0
  192.3190  175.1170  146.8960 C   0  0  0  0  0  1  0  0  0  0  0  0
  2  3  2  0  0  0  0
  3  1  1  0  0  0  0
  4  5  1  0  0  0  0
  5 27  1  0  0  0  0
  5  1  2  0  0  0  0
  6  4  2  0  0  0  0
  6  2  1  0  0  0  0
  8  9  1  0  0  0  0
  8 11  1  0  0  0  0
  9 13  1  1  0  0  0
  9  7  1  0  0  0  0
 10  8  2  0  0  0  0
 11  2  1  0  0  0  0
 11  7  1  0  0  0  0
 13 12  1  6  0  0  0
 14 15  1  0  0  0  0
 14 13  1  0  0  0  0
 15 16  2  0  0  0  0
 19 15  1  1  0  0  0
 19 20  1  0  0  0  0
 19 17  1  0  0  0  0
 20 18  1  6  0  0  0
 20 17  1  0  0  0  0
 20 21  1  0  0  0  0
 23 21  1  6  0  0  0
 23 24  1  0  0  0  0
 23 26  1  0  0  0  0
 24 25  1  0  0  0  0
 25 22  1  0  0  0  0
 26 22  1  0  0  0  0
 27 28  1  0  0  0  0
 29 28  1  0  0  0  0
 29 32  1  0  0  0  0
 30 33  2  0  0  0  0
 30 31  1  0  0  0  0
 32 30  1  0  0  0  0
 34 32  1  0  0  0  0
 36 40  1  0  0  0  0
 36 41  1  1  0  0  0
 36 38  1  0  0  0  0
 37 43  1  0  0  0  0
 38 42  1  1  0  0  0
 38 43  1  0  0  0  0
 39 37  1  0  0  0  0
 39 44  1  1  0  0  0
 40 42  1  0  0  0  0
 41 39  1  0  0  0  0
 42 34  1  0  0  0  0
 43 35  1  6  0  0  0
 44 46  1  0  0  0  0
 44 45  1  1  0  0  0
 46 47  1  0  0  0  0
 47 48  1  0  0  0  0
M  END
>  <MODEL>
8

>  <REMARK>
 VINA RESULT:      -6.3      2.463      5.441
  Name = 
  16 active torsions:
  status: ('A' for Active; 'I' for Inactive)
    1  A    between atoms: C_1  and  N_15
    2  A    between atoms: C_3  and  N_28
    3  A    between atoms: C_3  and  C_44
    4  A    between atoms: C_4  and  N_15
    5  A    between atoms: C_4  and  C_19
    6  A    between atoms: C_10  and  N_41
    7  A    between atoms: C_16  and  O_35
    8  A    between atoms: C_16  and  C_36
    9  A    between atoms: N_18  and  C_30
   10  A    between atoms: N_18  and  C_44
   11  A    between atoms: C_20  and  C_22
   12  A    between atoms: C_20  and  C_42
   13  A    between atoms: C_25  and  C_40
   14  A    between atoms: N_28  and  C_48
   15  A    between atoms: O_35  and  C_40
   16  A    between atoms: N_39  and  C_48
                            x       y       z     vdW  Elec       q    Type
                         _______ _______ _______ _____ _____    ______ ____

>  <TORSDO>
F 16

$$$$
=
 OpenBabel11062418273D

 48 53  0  0  1  0  0  0  0  0999 V2000
  190.9170  174.1110  141.9600 C   0  0  0  0  0  3  0  0  0  0  0  0
  188.7120  174.9960  141.4840 C   0  0  0  0  0  0  0  0  0  0  0  0
  189.8390  174.9270  142.3110 C   0  0  0  0  0  3  0  0  0  0  0  0
  189.7500  173.4260  139.9540 C   0  0  0  0  0  3  0  0  0  0  0  0
  190.8760  173.3530  140.7800 C   0  0  0  0  0  0  0  0  0  0  0  0
  188.6710  174.2450  140.3040 C   0  0  0  0  0  3  0  0  0  0  0  0
  186.6740  175.8810  142.9470 C   0  0  0  0  0  2  0  0  0  0  0  0
  186.9340  177.0050  141.2590 C   0  0  0  0  0  0  0  0  0  0  0  0
  185.9870  177.0240  142.4190 C   0  0  2  0  0  3  0  0  0  0  0  0
  187.0860  177.6940  140.2190 O   0  0  0  0  0  0  0  0  0  0  0  0
  187.6110  175.8300  141.8440 N   0  0  0  0  0  0  0  0  0  0  0  0
  186.2470  179.4290  142.5840 F   0  0  0  0  0  0  0  0  0  0  0  0
  186.1910  178.2490  143.3130 C   0  0  1  0  0  3  0  0  0  0  0  0
  185.1460  178.3240  144.2740 O   0  0  0  0  0  0  0  0  0  0  0  0
  185.3750  178.5560  145.6360 C   0  0  0  0  0  0  0  0  0  0  0  0
  185.5550  179.7390  146.0270 O   0  0  0  0  0  0  0  0  0  0  0  0
  186.1450  177.9030  147.9170 C   0  0  0  0  0  2  0  0  0  0  0  0
  187.0660  175.7280  147.4230 F   0  0  0  0  0  0  0  0  0  0  0  0
  185.4780  177.4260  146.6300 C   0  0  2  0  0  3  0  0  0  0  0  0
  186.9140  177.0220  146.9660 C   0  0  1  0  0  0  0  0  0  0  0  0
  188.1000  177.7150  146.2960 C   0  0  0  0  0  2  0  0  0  0  0  0
  190.4360  175.2890  147.6040 C   0  0  0  0  0  2  0  0  0  0  0  0
  189.3280  176.8180  146.2720 C   0  0  2  0  0  3  0  0  0  0  0  0
  188.9610  175.4640  145.7130 C   0  0  0  0  0  2  0  0  0  0  0  0
  189.7050  174.4660  146.5660 C   0  0  0  0  0  2  0  0  0  0  0  0
  189.8370  176.6140  147.6210 N   0  0  0  0  0  2  0  0  0  0  0  0
  191.9680  172.5070  140.4040 N   0  0  0  0  0  2  0  0  0  0  0  0
  192.8340  172.7760  139.2640 C   0  0  0  0  0  2  0  0  0  0  0  0
  194.2720  172.4250  139.6100 C   0  0  0  0  0  2  0  0  0  0  0  0
  195.7600  174.1460  138.5490 C   0  0  0  0  0  0  0  0  0  0  0  0
  196.4160  175.2210  138.6200 O   0  0  0  0  0  1  0  0  0  0  0  0
  195.0770  173.6330  139.7020 N   0  0  0  0  0  0  0  0  0  0  0  0
  195.7000  173.4690  137.3370 O   0  0  0  0  0  0  0  0  0  0  0  0
  195.0310  174.3960  140.9420 C   0  0  0  0  0  2  0  0  0  0  0  0
  193.7420  172.5240  143.4320 O   0  0  0  0  0  1  0  0  0  0  0  0
  196.5230  175.0330  143.5250 C   0  0  1  0  0  3  0  0  0  0  0  0
  194.0590  174.3540  144.9360 C   0  0  0  0  0  2  0  0  0  0  0  0
  195.7920  173.7610  143.2000 C   0  0  2  0  0  3  0  0  0  0  0  0
  194.7390  175.7190  145.1720 C   0  0  1  0  0  3  0  0  0  0  0  0
  196.8010  175.1730  142.1510 O   0  0  0  0  0  0  0  0  0  0  0  0
  195.5990  176.1640  143.9800 C   0  0  0  0  0  2  0  0  0  0  0  0
  196.1550  174.0150  141.8030 N   0  0  0  0  0  0  0  0  0  0  0  0
  194.2820  173.8050  143.5290 C   0  0  1  0  0  3  0  0  0  0  0  0
  193.7000  176.7860  145.5070 C   0  0  2  0  0  3  0  0  0  0  0  0
  193.4780  176.8230  146.8870 O   0  0  0  0  0  1  0  0  0  0  0  0
  192.4460  176.4970  144.8300 N   0  0  0  0  0  2  0  0  0  0  0  0
  192.4180  177.2920  143.6150 C   0  0  0  0  0  2  0  0  0  0  0  0
  191.1850  178.1670  143.6080 C   0  0  0  0  0  1  0  0  0  0  0  0
  1  3  1  0  0  0  0
  2 11  1  0  0  0  0
  2  3  2  0  0  0  0
  4  6  2  0  0  0  0
  4  5  1  0  0  0  0
  5  1  2  0  0  0  0
  6  2  1  0  0  0  0
  8 11  1  0  0  0  0
  8  9  1  0  0  0  0
  9  7  1  0  0  0  0
  9 13  1  1  0  0  0
 10  8  2  0  0  0  0
 11  7  1  0  0  0  0
 13 12  1  6  0  0  0
 13 14  1  0  0  0  0
 14 15  1  0  0  0  0
 15 16  2  0  0  0  0
 19 15  1  6  0  0  0
 19 20  1  0  0  0  0
 19 17  1  0  0  0  0
 20 18  1  1  0  0  0
 20 17  1  0  0  0  0
 21 20  1  0  0  0  0
 22 26  1  0  0  0  0
 23 21  1  1  0  0  0
 23 26  1  0  0  0  0
 24 23  1  0  0  0  0
 24 25  1  0  0  0  0
 25 22  1  0  0  0  0
 27  5  1  0  0  0  0
 28 29  1  0  0  0  0
 28 27  1  0  0  0  0
 29 32  1  0  0  0  0
 30 31  1  0  0  0  0
 30 32  1  0  0  0  0
 32 34  1  0  0  0  0
 33 30  2  0  0  0  0
 34 42  1  0  0  0  0
 36 41  1  6  0  0  0
 37 39  1  0  0  0  0
 38 42  1  6  0  0  0
 38 36  1  0  0  0  0
 38 43  1  0  0  0  0
 39 44  1  6  0  0  0
 40 36  1  0  0  0  0
 41 39  1  0  0  0  0
 42 40  1  0  0  0  0
 43 35  1  1  0  0  0
 43 37  1  0  0  0  0
 44 45  1  1  0  0  0
 46 44  1  0  0  0  0
 47 46  1  0  0  0  0
 48 47  1  0  0  0  0
M  END
>  <MODEL>
9

>  <REMARK>
 VINA RESULT:      -6.3      2.347      5.290
  Name = 
  16 active torsions:
  status: ('A' for Active; 'I' for Inactive)
    1  A    between atoms: C_1  and  N_15
    2  A    between atoms: C_3  and  N_28
    3  A    between atoms: C_3  and  C_44
    4  A    between atoms: C_4  and  N_15
    5  A    between atoms: C_4  and  C_19
    6  A    between atoms: C_10  and  N_41
    7  A    between atoms: C_16  and  O_35
    8  A    between atoms: C_16  and  C_36
    9  A    between atoms: N_18  and  C_30
   10  A    between atoms: N_18  and  C_44
   11  A    between atoms: C_20  and  C_22
   12  A    between atoms: C_20  and  C_42
   13  A    between atoms: C_25  and  C_40
   14  A    between atoms: N_28  and  C_48
   15  A    between atoms: O_35  and  C_40
   16  A    between atoms: N_39  and  C_48
                            x       y       z     vdW  Elec       q    Type
                         _______ _______ _______ _____ _____    ______ ____

>  <TORSDO>
F 16

$$$$
