=
 OpenBabel11072408573D

 45 50  0  0  1  0  0  0  0  0999 V2000
  191.6290  171.9360  140.6300 C   0  0  0  0  0  3  0  0  0  0  0  0
  190.1830  170.8580  142.1880 N   0  0  0  0  0  0  0  0  0  0  0  0
  190.8550  173.1230  142.6000 C   0  0  0  0  0  0  0  0  0  0  0  0
  189.3090  171.9660  144.1310 N   0  0  0  0  0  1  0  0  0  0  0  0
  190.9180  170.8130  141.0460 C   0  0  0  0  0  3  0  0  0  0  0  0
  191.5860  173.1130  141.3930 C   0  0  0  0  0  0  0  0  0  0  0  0
  190.1310  171.9720  142.9660 C   0  0  0  0  0  0  0  0  0  0  0  0
  190.8100  174.3620  143.4650 C   0  0  0  0  0  2  0  0  0  0  0  0
  190.2040  176.6640  142.6360 C   0  0  0  0  0  1  0  0  0  0  0  0
  188.8400  174.7020  142.0340 C   0  0  0  0  0  1  0  0  0  0  0  0
  189.6630  175.3340  143.1440 C   0  0  0  0  0  0  0  0  0  0  0  0
  188.7890  175.5420  144.3910 C   0  0  0  0  0  2  0  0  0  0  0  0
  188.6480  177.0040  144.8120 C   0  0  0  0  0  2  0  0  0  0  0  0
  188.3640  177.0870  146.3020 C   0  0  0  0  0  2  0  0  0  0  0  0
  185.3520  178.9970  147.4720 C   0  0  0  0  0  2  0  0  0  0  0  0
  186.6840  178.2880  147.6900 C   0  0  0  0  0  2  0  0  0  0  0  0
  184.8610  177.7600  145.5770 C   0  0  1  0  0  3  0  0  0  0  0  0
  186.2700  177.7990  145.3860 O   0  0  0  0  0  0  0  0  0  0  0  0
  184.4270  178.1100  146.8880 O   0  0  0  0  0  0  0  0  0  0  0  0
  186.8840  177.3000  146.5470 C   0  0  1  0  0  3  0  0  0  0  0  0
  184.2360  178.5850  144.6390 O   0  0  0  0  0  0  0  0  0  0  0  0
  185.2450  178.9370  143.7380 C   0  0  0  0  0  2  0  0  0  0  0  0
  184.9190  178.3890  142.3580 C   0  0  0  0  0  2  0  0  0  0  0  0
  185.9560  177.3630  141.9330 C   0  0  0  0  0  3  0  0  0  0  0  0
  187.1970  178.0910  141.4680 C   0  0  0  0  0  2  0  0  0  0  0  0
  186.2410  177.5080  140.4510 C   0  0  0  0  0  2  0  0  0  0  0  0
  192.3400  174.3450  140.9520 C   0  0  0  0  0  2  0  0  0  0  0  0
  193.8000  174.3840  141.3820 C   0  0  0  0  0  2  0  0  0  0  0  0
  194.0990  175.7060  142.0740 C   0  0  0  0  0  2  0  0  0  0  0  0
  195.0290  175.5570  143.3010 C   0  0  2  0  0  0  0  0  0  0  0  0
  197.2830  173.6810  141.8840 O   0  0  0  0  0  0  0  0  0  0  0  0
  197.3430  172.8220  145.3090 C   0  0  0  0  0  2  0  0  0  0  0  0
  196.9260  173.7640  143.0490 C   0  0  0  0  0  0  0  0  0  0  0  0
  193.8180  174.3650  145.0470 C   0  0  1  0  0  3  0  0  0  0  0  0
  193.1150  176.7340  144.6990 C   0  0  0  0  0  2  0  0  0  0  0  0
  196.0800  173.5190  145.7930 C   0  0  0  0  0  2  0  0  0  0  0  0
  194.9930  173.4690  144.7060 C   0  0  2  0  0  3  0  0  0  0  0  0
  192.1990  175.3790  146.6340 C   0  0  0  0  0  2  0  0  0  0  0  0
  193.3550  174.3850  146.5040 C   0  0  0  0  0  2  0  0  0  0  0  0
  197.9400  173.6000  144.1400 C   0  0  0  0  0  2  0  0  0  0  0  0
  192.6030  176.7760  146.1410 C   0  0  0  0  0  2  0  0  0  0  0  0
  195.4820  174.0720  143.3740 C   0  0  1  0  0  3  0  0  0  0  0  0
  194.2700  175.7400  144.6240 C   0  0  2  0  0  3  0  0  0  0  0  0
  196.1160  176.4640  143.2990 O   0  0  0  0  0  0  0  0  0  0  0  0
  196.2920  176.8930  142.0590 O   0  0  0  0  0  1  0  0  0  0  0  0
  1  5  2  0  0  0  0
  1  6  1  0  0  0  0
  2  7  2  0  0  0  0
  3  7  1  0  0  0  0
  3  8  1  0  0  0  0
  5  2  1  0  0  0  0
  6  3  2  0  0  0  0
  7  4  1  0  0  0  0
  9 11  1  0  0  0  0
 10 11  1  0  0  0  0
 11  8  1  0  0  0  0
 11 12  1  0  0  0  0
 12 13  1  0  0  0  0
 13 14  1  0  0  0  0
 15 16  1  0  0  0  0
 17 21  1  6  0  0  0
 17 19  1  0  0  0  0
 18 17  1  0  0  0  0
 18 20  1  0  0  0  0
 19 15  1  0  0  0  0
 20 14  1  6  0  0  0
 20 16  1  0  0  0  0
 22 21  1  0  0  0  0
 23 22  1  0  0  0  0
 24 23  1  0  0  0  0
 25 24  1  0  0  0  0
 26 25  1  0  0  0  0
 26 24  1  0  0  0  0
 27 28  1  0  0  0  0
 27  6  1  0  0  0  0
 28 29  1  0  0  0  0
 30 29  1  6  0  0  0
 30 42  1  0  0  0  0
 30 43  1  0  0  0  0
 31 33  2  0  0  0  0
 32 36  1  0  0  0  0
 33 40  1  0  0  0  0
 34 39  1  1  0  0  0
 35 41  1  0  0  0  0
 37 34  1  0  0  0  0
 37 36  1  1  0  0  0
 39 38  1  0  0  0  0
 40 32  1  0  0  0  0
 41 38  1  0  0  0  0
 42 33  1  1  0  0  0
 42 37  1  0  0  0  0
 43 35  1  6  0  0  0
 43 34  1  0  0  0  0
 44 30  1  0  0  0  0
 45 44  1  0  0  0  0
M  END
>  <MODEL>
1

>  <REMARK>
 VINA RESULT:      -6.9      0.000      0.000
  Name = 
  15 active torsions:
  status: ('A' for Active; 'I' for Inactive)
    1  A    between atoms: C_3  and  C_5
    2  A    between atoms: C_5  and  C_20
    3  A    between atoms: C_6  and  O_27
    4  A    between atoms: C_6  and  C_30
    5  A    between atoms: C_10  and  C_20
    6  A    between atoms: C_10  and  C_41
    7  A    between atoms: C_16  and  C_39
    8  A    between atoms: C_23  and  C_30
    9  A    between atoms: C_23  and  C_31
   10  A    between atoms: C_24  and  O_35
   11  A    between atoms: C_28  and  C_41
   12  A    between atoms: C_28  and  C_42
   13  A    between atoms: C_31  and  C_34
   14  A    between atoms: O_35  and  C_38
   15  A    between atoms: C_38  and  C_39
                            x       y       z     vdW  Elec       q    Type
                         _______ _______ _______ _____ _____    ______ ____

>  <TORSDO>
F 15

$$$$
=
 OpenBabel11072408573D

 45 50  0  0  1  0  0  0  0  0999 V2000
  192.2520  176.9140  145.6440 C   0  0  0  0  0  3  0  0  0  0  0  0
  194.1920  175.7330  146.3660 N   0  0  0  0  0  0  0  0  0  0  0  0
  193.7720  175.9510  144.0150 C   0  0  0  0  0  0  0  0  0  0  0  0
  195.7920  174.8030  144.8360 N   0  0  0  0  0  1  0  0  0  0  0  0
  193.0570  176.4170  146.6660 C   0  0  0  0  0  3  0  0  0  0  0  0
  192.6140  176.7050  144.3050 C   0  0  0  0  0  0  0  0  0  0  0  0
  194.5690  175.4920  145.0810 C   0  0  0  0  0  0  0  0  0  0  0  0
  194.1800  175.6800  142.5850 C   0  0  0  0  0  2  0  0  0  0  0  0
  194.8580  173.4150  141.7110 C   0  0  0  0  0  1  0  0  0  0  0  0
  192.8310  173.6870  143.0860 C   0  0  0  0  0  1  0  0  0  0  0  0
  193.6860  174.3400  142.0140 C   0  0  0  0  0  0  0  0  0  0  0  0
  192.8460  174.5870  140.7510 C   0  0  0  0  0  2  0  0  0  0  0  0
  193.0570  173.5460  139.6540 C   0  0  0  0  0  2  0  0  0  0  0  0
  192.8640  174.1860  138.2900 C   0  0  0  0  0  2  0  0  0  0  0  0
  190.5730  171.3350  137.4440 C   0  0  0  0  0  2  0  0  0  0  0  0
  191.9410  172.0020  137.5360 C   0  0  0  0  0  2  0  0  0  0  0  0
  189.4570  173.3600  137.3080 C   0  0  1  0  0  3  0  0  0  0  0  0
  190.5030  173.8070  138.1610 O   0  0  0  0  0  0  0  0  0  0  0  0
  189.7100  172.1190  136.6550 O   0  0  0  0  0  0  0  0  0  0  0  0
  191.7300  173.5110  137.5440 C   0  0  1  0  0  3  0  0  0  0  0  0
  188.2640  173.2760  138.0290 O   0  0  0  0  0  0  0  0  0  0  0  0
  188.5330  173.9080  139.2470 C   0  0  0  0  0  2  0  0  0  0  0  0
  188.3480  172.9220  140.3910 C   0  0  0  0  0  2  0  0  0  0  0  0
  189.5610  172.9340  141.3060 C   0  0  0  0  0  3  0  0  0  0  0  0
  190.2960  171.6220  141.1550 C   0  0  0  0  0  2  0  0  0  0  0  0
  189.4160  171.8570  142.3620 C   0  0  0  0  0  2  0  0  0  0  0  0
  191.7620  177.2470  143.1810 C   0  0  0  0  0  2  0  0  0  0  0  0
  190.3770  177.7160  143.6050 C   0  0  0  0  0  2  0  0  0  0  0  0
  189.3240  177.1120  142.6870 C   0  0  0  0  0  2  0  0  0  0  0  0
  188.0600  176.6340  143.4380 C   0  0  2  0  0  0  0  0  0  0  0  0
  186.1750  179.1990  142.7490 O   0  0  0  0  0  0  0  0  0  0  0  0
  185.0150  177.9680  145.8490 C   0  0  0  0  0  2  0  0  0  0  0  0
  186.1720  178.4350  143.7020 C   0  0  0  0  0  0  0  0  0  0  0  0
  188.5800  176.4980  145.8150 C   0  0  1  0  0  3  0  0  0  0  0  0
  189.5650  174.6860  144.4090 C   0  0  0  0  0  2  0  0  0  0  0  0
  186.1330  176.9970  146.1990 C   0  0  0  0  0  2  0  0  0  0  0  0
  187.4860  177.5430  145.7140 C   0  0  2  0  0  3  0  0  0  0  0  0
  189.7340  174.6060  146.9360 C   0  0  0  0  0  2  0  0  0  0  0  0
  188.5860  175.6100  147.0590 C   0  0  0  0  0  2  0  0  0  0  0  0
  184.8680  178.0550  144.3330 C   0  0  0  0  0  2  0  0  0  0  0  0
  189.6230  173.7830  145.6440 C   0  0  0  0  0  2  0  0  0  0  0  0
  187.4740  177.8530  144.2040 C   0  0  1  0  0  3  0  0  0  0  0  0
  188.4010  175.6590  144.5750 C   0  0  2  0  0  3  0  0  0  0  0  0
  187.1090  176.0030  142.5990 O   0  0  0  0  0  0  0  0  0  0  0  0
  187.3800  176.3360  141.3470 O   0  0  0  0  0  1  0  0  0  0  0  0
  1  5  1  0  0  0  0
  2  5  2  0  0  0  0
  3  6  1  0  0  0  0
  3  7  2  0  0  0  0
  4  7  1  0  0  0  0
  6  1  2  0  0  0  0
  7  2  1  0  0  0  0
  8  3  1  0  0  0  0
  9 11  1  0  0  0  0
 11  8  1  0  0  0  0
 11 10  1  0  0  0  0
 12 11  1  0  0  0  0
 13 12  1  0  0  0  0
 14 13  1  0  0  0  0
 15 16  1  0  0  0  0
 16 20  1  0  0  0  0
 17 21  1  1  0  0  0
 17 18  1  0  0  0  0
 19 17  1  0  0  0  0
 19 15  1  0  0  0  0
 20 18  1  0  0  0  0
 20 14  1  1  0  0  0
 21 22  1  0  0  0  0
 22 23  1  0  0  0  0
 23 24  1  0  0  0  0
 24 26  1  0  0  0  0
 25 24  1  0  0  0  0
 25 26  1  0  0  0  0
 27 28  1  0  0  0  0
 27  6  1  0  0  0  0
 29 28  1  0  0  0  0
 30 29  1  6  0  0  0
 30 42  1  0  0  0  0
 30 43  1  0  0  0  0
 31 33  2  0  0  0  0
 32 36  1  0  0  0  0
 33 40  1  0  0  0  0
 34 39  1  1  0  0  0
 35 41  1  0  0  0  0
 37 34  1  0  0  0  0
 37 36  1  6  0  0  0
 38 39  1  0  0  0  0
 40 32  1  0  0  0  0
 41 38  1  0  0  0  0
 42 33  1  6  0  0  0
 42 37  1  0  0  0  0
 43 35  1  6  0  0  0
 43 34  1  0  0  0  0
 44 30  1  0  0  0  0
 45 44  1  0  0  0  0
M  END
>  <MODEL>
2

>  <REMARK>
 VINA RESULT:      -6.9      3.267      8.253
  Name = 
  15 active torsions:
  status: ('A' for Active; 'I' for Inactive)
    1  A    between atoms: C_3  and  C_5
    2  A    between atoms: C_5  and  C_20
    3  A    between atoms: C_6  and  O_27
    4  A    between atoms: C_6  and  C_30
    5  A    between atoms: C_10  and  C_20
    6  A    between atoms: C_10  and  C_41
    7  A    between atoms: C_16  and  C_39
    8  A    between atoms: C_23  and  C_30
    9  A    between atoms: C_23  and  C_31
   10  A    between atoms: C_24  and  O_35
   11  A    between atoms: C_28  and  C_41
   12  A    between atoms: C_28  and  C_42
   13  A    between atoms: C_31  and  C_34
   14  A    between atoms: O_35  and  C_38
   15  A    between atoms: C_38  and  C_39
                            x       y       z     vdW  Elec       q    Type
                         _______ _______ _______ _____ _____    ______ ____

>  <TORSDO>
F 15

$$$$
=
 OpenBabel11072408573D

 45 50  0  0  1  0  0  0  0  0999 V2000
  191.2640  174.2680  141.5780 C   0  0  0  0  0  3  0  0  0  0  0  0
  190.1050  172.4390  142.5750 N   0  0  0  0  0  0  0  0  0  0  0  0
  190.9400  174.1930  143.9820 C   0  0  0  0  0  0  0  0  0  0  0  0
  189.6730  172.3060  144.9330 N   0  0  0  0  0  1  0  0  0  0  0  0
  190.6010  173.0480  141.4660 C   0  0  0  0  0  3  0  0  0  0  0  0
  191.4210  174.8650  142.8370 C   0  0  0  0  0  0  0  0  0  0  0  0
  190.2520  172.9750  143.8160 C   0  0  0  0  0  0  0  0  0  0  0  0
  191.1160  174.7910  145.3590 C   0  0  0  0  0  2  0  0  0  0  0  0
  189.1320  174.9040  146.9100 C   0  0  0  0  0  1  0  0  0  0  0  0
  190.5250  176.8920  146.4880 C   0  0  0  0  0  1  0  0  0  0  0  0
  189.9360  175.6460  145.8500 C   0  0  0  0  0  0  0  0  0  0  0  0
  189.0430  176.0370  144.6630 C   0  0  0  0  0  2  0  0  0  0  0  0
  189.0560  177.5300  144.3440 C   0  0  0  0  0  2  0  0  0  0  0  0
  189.1320  177.7370  142.8400 C   0  0  0  0  0  2  0  0  0  0  0  0
  185.8050  177.4810  141.1210 C   0  0  0  0  0  2  0  0  0  0  0  0
  187.3280  177.3980  141.1620 C   0  0  0  0  0  2  0  0  0  0  0  0
  185.7170  178.9940  142.8710 C   0  0  1  0  0  3  0  0  0  0  0  0
  186.8530  178.2750  143.3350 O   0  0  0  0  0  0  0  0  0  0  0  0
  185.3850  178.7700  141.5040 O   0  0  0  0  0  0  0  0  0  0  0  0
  187.8150  178.2700  142.3120 C   0  0  1  0  0  3  0  0  0  0  0  0
  184.6130  178.7010  143.6760 O   0  0  0  0  0  0  0  0  0  0  0  0
  184.9790  177.5550  144.3870 C   0  0  0  0  0  2  0  0  0  0  0  0
  184.8830  177.8220  145.8810 C   0  0  0  0  0  2  0  0  0  0  0  0
  185.9520  177.0440  146.6310 C   0  0  0  0  0  3  0  0  0  0  0  0
  185.8690  177.3960  148.0990 C   0  0  0  0  0  2  0  0  0  0  0  0
  186.9540  178.0060  147.2390 C   0  0  0  0  0  2  0  0  0  0  0  0
  192.1250  176.1930  142.9790 C   0  0  0  0  0  2  0  0  0  0  0  0
  193.5480  176.2180  142.4370 C   0  0  0  0  0  2  0  0  0  0  0  0
  194.5300  175.8720  143.5470 C   0  0  0  0  0  2  0  0  0  0  0  0
  195.4970  174.7250  143.1720 C   0  0  2  0  0  0  0  0  0  0  0  0
  196.5620  175.9860  140.3640 O   0  0  0  0  0  0  0  0  0  0  0  0
  196.7950  172.4820  139.9870 C   0  0  0  0  0  2  0  0  0  0  0  0
  196.4520  174.8260  140.7320 C   0  0  0  0  0  0  0  0  0  0  0  0
  194.1920  172.6970  142.8240 C   0  0  1  0  0  3  0  0  0  0  0  0
  194.4560  173.3920  145.2070 C   0  0  0  0  0  2  0  0  0  0  0  0
  196.0080  172.0180  141.2040 C   0  0  0  0  0  2  0  0  0  0  0  0
  194.8410  172.9780  141.4830 C   0  0  2  0  0  3  0  0  0  0  0  0
  193.3800  171.1760  144.6120 C   0  0  0  0  0  2  0  0  0  0  0  0
  194.0050  171.2310  143.2160 C   0  0  0  0  0  2  0  0  0  0  0  0
  197.4680  173.8170  140.2910 C   0  0  0  0  0  2  0  0  0  0  0  0
  194.2310  171.9390  145.6370 C   0  0  0  0  0  2  0  0  0  0  0  0
  195.3220  174.4330  141.6560 C   0  0  1  0  0  3  0  0  0  0  0  0
  195.0880  173.3930  143.8180 C   0  0  2  0  0  3  0  0  0  0  0  0
  196.8430  174.9820  143.5300 O   0  0  0  0  0  0  0  0  0  0  0  0
  197.0090  176.2940  143.5930 O   0  0  0  0  0  1  0  0  0  0  0  0
  1  6  1  0  0  0  0
  2  7  2  0  0  0  0
  3  8  1  0  0  0  0
  5  1  2  0  0  0  0
  5  2  1  0  0  0  0
  6 27  1  0  0  0  0
  6  3  2  0  0  0  0
  7  3  1  0  0  0  0
  7  4  1  0  0  0  0
  8 11  1  0  0  0  0
 11 10  1  0  0  0  0
 11  9  1  0  0  0  0
 12 11  1  0  0  0  0
 13 12  1  0  0  0  0
 14 13  1  0  0  0  0
 15 16  1  0  0  0  0
 15 19  1  0  0  0  0
 16 20  1  0  0  0  0
 17 18  1  0  0  0  0
 17 21  1  1  0  0  0
 19 17  1  0  0  0  0
 20 14  1  1  0  0  0
 20 18  1  0  0  0  0
 21 22  1  0  0  0  0
 22 23  1  0  0  0  0
 23 24  1  0  0  0  0
 24 26  1  0  0  0  0
 24 25  1  0  0  0  0
 26 25  1  0  0  0  0
 28 27  1  0  0  0  0
 28 29  1  0  0  0  0
 30 44  1  0  0  0  0
 30 29  1  1  0  0  0
 30 43  1  0  0  0  0
 31 33  2  0  0  0  0
 32 40  1  0  0  0  0
 32 36  1  0  0  0  0
 34 39  1  1  0  0  0
 34 43  1  0  0  0  0
 35 41  1  0  0  0  0
 37 36  1  1  0  0  0
 37 42  1  0  0  0  0
 37 34  1  0  0  0  0
 38 41  1  0  0  0  0
 39 38  1  0  0  0  0
 40 33  1  0  0  0  0
 42 33  1  6  0  0  0
 42 30  1  0  0  0  0
 43 35  1  1  0  0  0
 44 45  1  0  0  0  0
M  END
>  <MODEL>
3

>  <REMARK>
 VINA RESULT:      -6.8      1.704      3.648
  Name = 
  15 active torsions:
  status: ('A' for Active; 'I' for Inactive)
    1  A    between atoms: C_3  and  C_5
    2  A    between atoms: C_5  and  C_20
    3  A    between atoms: C_6  and  O_27
    4  A    between atoms: C_6  and  C_30
    5  A    between atoms: C_10  and  C_20
    6  A    between atoms: C_10  and  C_41
    7  A    between atoms: C_16  and  C_39
    8  A    between atoms: C_23  and  C_30
    9  A    between atoms: C_23  and  C_31
   10  A    between atoms: C_24  and  O_35
   11  A    between atoms: C_28  and  C_41
   12  A    between atoms: C_28  and  C_42
   13  A    between atoms: C_31  and  C_34
   14  A    between atoms: O_35  and  C_38
   15  A    between atoms: C_38  and  C_39
                            x       y       z     vdW  Elec       q    Type
                         _______ _______ _______ _____ _____    ______ ____

>  <TORSDO>
F 15

$$$$
=
 OpenBabel11072408573D

 45 50  0  0  1  0  0  0  0  0999 V2000
  192.2350  176.8850  145.7080 C   0  0  0  0  0  3  0  0  0  0  0  0
  194.2300  175.8610  146.5160 N   0  0  0  0  0  0  0  0  0  0  0  0
  193.9060  176.0690  144.1490 C   0  0  0  0  0  0  0  0  0  0  0  0
  195.9730  175.0830  145.0590 N   0  0  0  0  0  1  0  0  0  0  0  0
  193.0290  176.4450  146.7650 C   0  0  0  0  0  3  0  0  0  0  0  0
  192.6770  176.7210  144.3870 C   0  0  0  0  0  0  0  0  0  0  0  0
  194.6870  175.6660  145.2490 C   0  0  0  0  0  0  0  0  0  0  0  0
  194.4020  175.8460  142.7380 C   0  0  0  0  0  2  0  0  0  0  0  0
  193.1720  174.6790  140.8730 C   0  0  0  0  0  1  0  0  0  0  0  0
  195.3160  173.8060  141.7180 C   0  0  0  0  0  1  0  0  0  0  0  0
  194.0220  174.4900  142.1240 C   0  0  0  0  0  0  0  0  0  0  0  0
  193.2800  173.6340  143.1620 C   0  0  0  0  0  2  0  0  0  0  0  0
  192.3720  172.5680  142.5510 C   0  0  0  0  0  2  0  0  0  0  0  0
  191.8120  171.6770  143.6470 C   0  0  0  0  0  2  0  0  0  0  0  0
  194.2940  169.1280  142.4520 C   0  0  0  0  0  2  0  0  0  0  0  0
  193.1470  170.1120  142.2480 C   0  0  0  0  0  2  0  0  0  0  0  0
  193.7770  168.7940  144.6840 C   0  0  1  0  0  3  0  0  0  0  0  0
  193.3820  170.1590  144.6270 O   0  0  0  0  0  0  0  0  0  0  0  0
  193.9350  168.1660  143.4150 O   0  0  0  0  0  0  0  0  0  0  0  0
  192.4480  170.3020  143.5880 C   0  0  1  0  0  3  0  0  0  0  0  0
  194.9600  168.6760  145.4170 O   0  0  0  0  0  0  0  0  0  0  0  0
  195.0540  169.8650  146.1460 C   0  0  0  0  0  2  0  0  0  0  0  0
  196.5150  170.2040  146.3950 C   0  0  0  0  0  2  0  0  0  0  0  0
  196.8560  171.5610  145.8020 C   0  0  0  0  0  3  0  0  0  0  0  0
  196.4380  171.5750  144.3490 C   0  0  0  0  0  2  0  0  0  0  0  0
  197.8960  171.3960  144.7110 C   0  0  0  0  0  2  0  0  0  0  0  0
  191.8370  177.2010  143.2270 C   0  0  0  0  0  2  0  0  0  0  0  0
  190.4410  177.6760  143.6080 C   0  0  0  0  0  2  0  0  0  0  0  0
  189.4180  177.0990  142.6400 C   0  0  0  0  0  2  0  0  0  0  0  0
  188.1310  176.6010  143.3380 C   0  0  2  0  0  0  0  0  0  0  0  0
  186.2490  179.1580  142.6110 O   0  0  0  0  0  0  0  0  0  0  0  0
  184.9860  177.8770  145.6500 C   0  0  0  0  0  2  0  0  0  0  0  0
  186.2180  178.3820  143.5540 C   0  0  0  0  0  0  0  0  0  0  0  0
  188.5630  176.4390  145.7310 C   0  0  1  0  0  3  0  0  0  0  0  0
  189.6170  174.6540  144.3400 C   0  0  0  0  0  2  0  0  0  0  0  0
  186.0990  176.9110  146.0290 C   0  0  0  0  0  2  0  0  0  0  0  0
  187.4640  177.4750  145.6030 C   0  0  2  0  0  3  0  0  0  0  0  0
  189.6920  174.5430  146.8700 C   0  0  0  0  0  2  0  0  0  0  0  0
  188.5310  175.5340  146.9630 C   0  0  0  0  0  2  0  0  0  0  0  0
  184.8950  177.9820  144.1310 C   0  0  0  0  0  2  0  0  0  0  0  0
  189.6370  173.7350  145.5650 C   0  0  0  0  0  2  0  0  0  0  0  0
  187.5050  177.8050  144.0970 C   0  0  1  0  0  3  0  0  0  0  0  0
  188.4390  175.6140  144.4750 C   0  0  2  0  0  3  0  0  0  0  0  0
  187.2180  175.9730  142.4570 O   0  0  0  0  0  0  0  0  0  0  0  0
  187.5770  176.2630  141.2160 O   0  0  0  0  0  1  0  0  0  0  0  0
  1  5  1  0  0  0  0
  2  5  2  0  0  0  0
  3  6  1  0  0  0  0
  3  7  2  0  0  0  0
  4  7  1  0  0  0  0
  6  1  2  0  0  0  0
  7  2  1  0  0  0  0
  8  3  1  0  0  0  0
  9 11  1  0  0  0  0
 10 11  1  0  0  0  0
 11  8  1  0  0  0  0
 11 12  1  0  0  0  0
 13 12  1  0  0  0  0
 13 14  1  0  0  0  0
 15 19  1  0  0  0  0
 16 15  1  0  0  0  0
 16 20  1  0  0  0  0
 17 21  1  6  0  0  0
 18 17  1  0  0  0  0
 19 17  1  0  0  0  0
 20 14  1  6  0  0  0
 20 18  1  0  0  0  0
 21 22  1  0  0  0  0
 22 23  1  0  0  0  0
 24 23  1  0  0  0  0
 25 26  1  0  0  0  0
 25 24  1  0  0  0  0
 26 24  1  0  0  0  0
 27 28  1  0  0  0  0
 27  6  1  0  0  0  0
 29 28  1  0  0  0  0
 30 29  1  6  0  0  0
 30 42  1  0  0  0  0
 30 43  1  0  0  0  0
 31 33  2  0  0  0  0
 32 36  1  0  0  0  0
 33 40  1  0  0  0  0
 34 39  1  1  0  0  0
 35 41  1  0  0  0  0
 37 34  1  0  0  0  0
 37 36  1  6  0  0  0
 38 39  1  0  0  0  0
 40 32  1  0  0  0  0
 41 38  1  0  0  0  0
 42 33  1  6  0  0  0
 42 37  1  0  0  0  0
 43 35  1  6  0  0  0
 43 34  1  0  0  0  0
 44 30  1  0  0  0  0
 45 44  1  0  0  0  0
M  END
>  <MODEL>
4

>  <REMARK>
 VINA RESULT:      -6.8      2.987      9.262
  Name = 
  15 active torsions:
  status: ('A' for Active; 'I' for Inactive)
    1  A    between atoms: C_3  and  C_5
    2  A    between atoms: C_5  and  C_20
    3  A    between atoms: C_6  and  O_27
    4  A    between atoms: C_6  and  C_30
    5  A    between atoms: C_10  and  C_20
    6  A    between atoms: C_10  and  C_41
    7  A    between atoms: C_16  and  C_39
    8  A    between atoms: C_23  and  C_30
    9  A    between atoms: C_23  and  C_31
   10  A    between atoms: C_24  and  O_35
   11  A    between atoms: C_28  and  C_41
   12  A    between atoms: C_28  and  C_42
   13  A    between atoms: C_31  and  C_34
   14  A    between atoms: O_35  and  C_38
   15  A    between atoms: C_38  and  C_39
                            x       y       z     vdW  Elec       q    Type
                         _______ _______ _______ _____ _____    ______ ____

>  <TORSDO>
F 15

$$$$
=
 OpenBabel11072408573D

 45 50  0  0  1  0  0  0  0  0999 V2000
  192.2180  176.9990  145.7690 C   0  0  0  0  0  3  0  0  0  0  0  0
  194.1760  175.9140  146.5860 N   0  0  0  0  0  0  0  0  0  0  0  0
  193.8630  176.1190  144.2170 C   0  0  0  0  0  0  0  0  0  0  0  0
  195.8940  175.0700  145.1370 N   0  0  0  0  0  1  0  0  0  0  0  0
  192.9950  176.5390  146.8300 C   0  0  0  0  0  3  0  0  0  0  0  0
  192.6560  176.8130  144.4500 C   0  0  0  0  0  0  0  0  0  0  0  0
  194.6280  175.6960  145.3220 C   0  0  0  0  0  0  0  0  0  0  0  0
  194.3540  175.8720  142.8090 C   0  0  0  0  0  2  0  0  0  0  0  0
  193.0470  173.7460  143.1630 C   0  0  0  0  0  1  0  0  0  0  0  0
  193.2190  174.7710  140.9280 C   0  0  0  0  0  1  0  0  0  0  0  0
  193.9730  174.5050  142.2200 C   0  0  0  0  0  0  0  0  0  0  0  0
  195.2410  173.6880  141.9280 C   0  0  0  0  0  2  0  0  0  0  0  0
  194.9980  172.4560  141.0580 C   0  0  0  0  0  2  0  0  0  0  0  0
  195.6380  171.2360  141.6990 C   0  0  0  0  0  2  0  0  0  0  0  0
  193.2610  170.0900  144.3680 C   0  0  0  0  0  2  0  0  0  0  0  0
  194.6530  170.3820  143.8170 C   0  0  0  0  0  2  0  0  0  0  0  0
  192.3620  169.7520  142.2610 C   0  0  1  0  0  3  0  0  0  0  0  0
  193.3010  170.7500  141.8800 O   0  0  0  0  0  0  0  0  0  0  0  0
  192.6020  169.1640  143.5370 O   0  0  0  0  0  0  0  0  0  0  0  0
  194.5760  170.3350  142.2970 C   0  0  1  0  0  3  0  0  0  0  0  0
  191.0700  170.2820  142.2230 O   0  0  0  0  0  0  0  0  0  0  0  0
  190.6950  170.2250  140.8780 C   0  0  0  0  0  2  0  0  0  0  0  0
  190.6760  171.6260  140.2880 C   0  0  0  0  0  2  0  0  0  0  0  0
  190.1500  172.6250  141.3050 C   0  0  0  0  0  3  0  0  0  0  0  0
  188.6620  172.7920  141.0970 C   0  0  0  0  0  2  0  0  0  0  0  0
  189.6160  173.8500  140.5900 C   0  0  0  0  0  2  0  0  0  0  0  0
  191.8350  177.3150  143.2860 C   0  0  0  0  0  2  0  0  0  0  0  0
  190.4300  177.7730  143.6510 C   0  0  0  0  0  2  0  0  0  0  0  0
  189.4230  177.1780  142.6770 C   0  0  0  0  0  2  0  0  0  0  0  0
  188.1460  176.6450  143.3690 C   0  0  2  0  0  0  0  0  0  0  0  0
  186.2470  179.2230  142.7720 O   0  0  0  0  0  0  0  0  0  0  0  0
  185.0250  177.8090  145.7690 C   0  0  0  0  0  2  0  0  0  0  0  0
  186.2300  178.4070  143.6820 C   0  0  0  0  0  0  0  0  0  0  0  0
  188.6080  176.3830  145.7470 C   0  0  1  0  0  3  0  0  0  0  0  0
  189.6510  174.6630  144.2690 C   0  0  0  0  0  2  0  0  0  0  0  0
  186.1460  176.8330  146.0940 C   0  0  0  0  0  2  0  0  0  0  0  0
  187.5040  177.4200  145.6760 C   0  0  2  0  0  3  0  0  0  0  0  0
  189.7570  174.4450  146.7920 C   0  0  0  0  0  2  0  0  0  0  0  0
  188.5930  175.4270  146.9400 C   0  0  0  0  0  2  0  0  0  0  0  0
  184.9150  177.9780  144.2570 C   0  0  0  0  0  2  0  0  0  0  0  0
  189.6890  173.6940  145.4540 C   0  0  0  0  0  2  0  0  0  0  0  0
  187.5260  177.8130  144.1840 C   0  0  1  0  0  3  0  0  0  0  0  0
  188.4710  175.6120  144.4580 C   0  0  2  0  0  3  0  0  0  0  0  0
  187.2250  176.0510  142.4720 O   0  0  0  0  0  0  0  0  0  0  0  0
  187.5320  176.4430  141.2460 O   0  0  0  0  0  1  0  0  0  0  0  0
  1  5  1  0  0  0  0
  2  5  2  0  0  0  0
  3  6  1  0  0  0  0
  3  7  2  0  0  0  0
  4  7  1  0  0  0  0
  6  1  2  0  0  0  0
  7  2  1  0  0  0  0
  8  3  1  0  0  0  0
 10 11  1  0  0  0  0
 11  8  1  0  0  0  0
 11  9  1  0  0  0  0
 12 11  1  0  0  0  0
 13 14  1  0  0  0  0
 13 12  1  0  0  0  0
 16 15  1  0  0  0  0
 17 21  1  1  0  0  0
 17 19  1  0  0  0  0
 18 17  1  0  0  0  0
 18 20  1  0  0  0  0
 19 15  1  0  0  0  0
 20 14  1  6  0  0  0
 20 16  1  0  0  0  0
 22 21  1  0  0  0  0
 23 22  1  0  0  0  0
 23 24  1  0  0  0  0
 25 24  1  0  0  0  0
 26 25  1  0  0  0  0
 26 24  1  0  0  0  0
 27 28  1  0  0  0  0
 27  6  1  0  0  0  0
 29 28  1  0  0  0  0
 30 29  1  6  0  0  0
 30 42  1  0  0  0  0
 30 43  1  0  0  0  0
 31 33  2  0  0  0  0
 32 36  1  0  0  0  0
 33 40  1  0  0  0  0
 34 39  1  1  0  0  0
 35 41  1  0  0  0  0
 37 34  1  0  0  0  0
 37 36  1  6  0  0  0
 38 39  1  0  0  0  0
 40 32  1  0  0  0  0
 41 38  1  0  0  0  0
 42 33  1  6  0  0  0
 42 37  1  0  0  0  0
 43 35  1  6  0  0  0
 43 34  1  0  0  0  0
 44 30  1  0  0  0  0
 45 44  1  0  0  0  0
M  END
>  <MODEL>
5

>  <REMARK>
 VINA RESULT:      -6.7      2.890      8.410
  Name = 
  15 active torsions:
  status: ('A' for Active; 'I' for Inactive)
    1  A    between atoms: C_3  and  C_5
    2  A    between atoms: C_5  and  C_20
    3  A    between atoms: C_6  and  O_27
    4  A    between atoms: C_6  and  C_30
    5  A    between atoms: C_10  and  C_20
    6  A    between atoms: C_10  and  C_41
    7  A    between atoms: C_16  and  C_39
    8  A    between atoms: C_23  and  C_30
    9  A    between atoms: C_23  and  C_31
   10  A    between atoms: C_24  and  O_35
   11  A    between atoms: C_28  and  C_41
   12  A    between atoms: C_28  and  C_42
   13  A    between atoms: C_31  and  C_34
   14  A    between atoms: O_35  and  C_38
   15  A    between atoms: C_38  and  C_39
                            x       y       z     vdW  Elec       q    Type
                         _______ _______ _______ _____ _____    ______ ____

>  <TORSDO>
F 15

$$$$
=
 OpenBabel11072408573D

 45 50  0  0  1  0  0  0  0  0999 V2000
  192.2520  177.0360  145.7070 C   0  0  0  0  0  3  0  0  0  0  0  0
  194.1910  175.9060  146.5100 N   0  0  0  0  0  0  0  0  0  0  0  0
  193.7960  176.0030  144.1460 C   0  0  0  0  0  0  0  0  0  0  0  0
  195.8130  174.9100  145.0460 N   0  0  0  0  0  1  0  0  0  0  0  0
  193.0480  176.5960  146.7620 C   0  0  0  0  0  3  0  0  0  0  0  0
  192.6310  176.7630  144.3850 C   0  0  0  0  0  0  0  0  0  0  0  0
  194.5840  175.6030  145.2430 C   0  0  0  0  0  0  0  0  0  0  0  0
  194.2220  175.6620  142.7360 C   0  0  0  0  0  2  0  0  0  0  0  0
  194.8430  173.4060  141.8000 C   0  0  0  0  0  1  0  0  0  0  0  0
  192.9420  173.6550  143.3480 C   0  0  0  0  0  1  0  0  0  0  0  0
  193.6930  174.3190  142.2060 C   0  0  0  0  0  0  0  0  0  0  0  0
  192.7440  174.5590  141.0230 C   0  0  0  0  0  2  0  0  0  0  0  0
  191.3480  173.9720  141.2200 C   0  0  0  0  0  2  0  0  0  0  0  0
  191.0120  173.0400  140.0680 C   0  0  0  0  0  2  0  0  0  0  0  0
  190.8250  169.2940  139.9100 C   0  0  0  0  0  2  0  0  0  0  0  0
  190.4790  170.6970  139.4220 C   0  0  0  0  0  2  0  0  0  0  0  0
  191.2270  170.0110  142.0750 C   0  0  1  0  0  3  0  0  0  0  0  0
  191.6900  171.1870  141.4250 O   0  0  0  0  0  0  0  0  0  0  0  0
  190.4420  169.1470  141.2570 O   0  0  0  0  0  0  0  0  0  0  0  0
  190.6650  171.6590  140.5880 C   0  0  1  0  0  3  0  0  0  0  0  0
  192.3120  169.3040  142.5980 O   0  0  0  0  0  0  0  0  0  0  0  0
  192.6500  169.9800  143.7740 C   0  0  0  0  0  2  0  0  0  0  0  0
  194.1630  170.0430  143.9150 C   0  0  0  0  0  2  0  0  0  0  0  0
  194.5580  170.1220  145.3810 C   0  0  0  0  0  3  0  0  0  0  0  0
  194.7190  171.5750  145.7630 C   0  0  0  0  0  2  0  0  0  0  0  0
  195.9430  170.7250  145.5060 C   0  0  0  0  0  2  0  0  0  0  0  0
  191.7880  177.2410  143.2260 C   0  0  0  0  0  2  0  0  0  0  0  0
  190.3890  177.7050  143.6080 C   0  0  0  0  0  2  0  0  0  0  0  0
  189.3620  177.0490  142.6960 C   0  0  0  0  0  2  0  0  0  0  0  0
  188.1010  176.5620  143.4480 C   0  0  2  0  0  0  0  0  0  0  0  0
  186.1860  179.0970  142.7280 O   0  0  0  0  0  0  0  0  0  0  0  0
  185.0320  177.8810  145.8360 C   0  0  0  0  0  2  0  0  0  0  0  0
  186.1900  178.3420  143.6890 C   0  0  0  0  0  0  0  0  0  0  0  0
  188.6140  176.4550  145.8280 C   0  0  1  0  0  3  0  0  0  0  0  0
  189.6270  174.6420  144.4430 C   0  0  0  0  0  2  0  0  0  0  0  0
  186.1600  176.9270  146.1990 C   0  0  0  0  0  2  0  0  0  0  0  0
  187.5080  177.4850  145.7140 C   0  0  2  0  0  3  0  0  0  0  0  0
  189.7880  174.5880  146.9700 C   0  0  0  0  0  2  0  0  0  0  0  0
  188.6270  175.5780  147.0800 C   0  0  0  0  0  2  0  0  0  0  0  0
  184.8880  177.9520  144.3190 C   0  0  0  0  0  2  0  0  0  0  0  0
  189.6920  173.7520  145.6870 C   0  0  0  0  0  2  0  0  0  0  0  0
  187.4970  177.7810  144.2000 C   0  0  1  0  0  3  0  0  0  0  0  0
  188.4500  175.6020  144.5950 C   0  0  2  0  0  3  0  0  0  0  0  0
  187.1610  175.9120  142.6120 O   0  0  0  0  0  0  0  0  0  0  0  0
  187.4280  176.2400  141.3580 O   0  0  0  0  0  1  0  0  0  0  0  0
  1  5  1  0  0  0  0
  2  5  2  0  0  0  0
  3  6  1  0  0  0  0
  3  7  2  0  0  0  0
  4  7  1  0  0  0  0
  6  1  2  0  0  0  0
  7  2  1  0  0  0  0
  8  3  1  0  0  0  0
  9 11  1  0  0  0  0
 11  8  1  0  0  0  0
 11 10  1  0  0  0  0
 12 13  1  0  0  0  0
 12 11  1  0  0  0  0
 14 13  1  0  0  0  0
 15 19  1  0  0  0  0
 16 15  1  0  0  0  0
 16 20  1  0  0  0  0
 17 21  1  6  0  0  0
 18 17  1  0  0  0  0
 19 17  1  0  0  0  0
 20 14  1  6  0  0  0
 20 18  1  0  0  0  0
 21 22  1  0  0  0  0
 22 23  1  0  0  0  0
 23 24  1  0  0  0  0
 24 26  1  0  0  0  0
 24 25  1  0  0  0  0
 26 25  1  0  0  0  0
 27 28  1  0  0  0  0
 27  6  1  0  0  0  0
 29 28  1  0  0  0  0
 30 29  1  6  0  0  0
 30 42  1  0  0  0  0
 30 43  1  0  0  0  0
 31 33  2  0  0  0  0
 32 36  1  0  0  0  0
 33 40  1  0  0  0  0
 34 39  1  1  0  0  0
 35 41  1  0  0  0  0
 37 34  1  0  0  0  0
 37 36  1  6  0  0  0
 38 39  1  0  0  0  0
 40 32  1  0  0  0  0
 41 38  1  0  0  0  0
 42 33  1  6  0  0  0
 42 37  1  0  0  0  0
 43 35  1  6  0  0  0
 43 34  1  0  0  0  0
 44 30  1  0  0  0  0
 45 44  1  0  0  0  0
M  END
>  <MODEL>
6

>  <REMARK>
 VINA RESULT:      -6.6      2.963      8.778
  Name = 
  15 active torsions:
  status: ('A' for Active; 'I' for Inactive)
    1  A    between atoms: C_3  and  C_5
    2  A    between atoms: C_5  and  C_20
    3  A    between atoms: C_6  and  O_27
    4  A    between atoms: C_6  and  C_30
    5  A    between atoms: C_10  and  C_20
    6  A    between atoms: C_10  and  C_41
    7  A    between atoms: C_16  and  C_39
    8  A    between atoms: C_23  and  C_30
    9  A    between atoms: C_23  and  C_31
   10  A    between atoms: C_24  and  O_35
   11  A    between atoms: C_28  and  C_41
   12  A    between atoms: C_28  and  C_42
   13  A    between atoms: C_31  and  C_34
   14  A    between atoms: O_35  and  C_38
   15  A    between atoms: C_38  and  C_39
                            x       y       z     vdW  Elec       q    Type
                         _______ _______ _______ _____ _____    ______ ____

>  <TORSDO>
F 15

$$$$
=
 OpenBabel11072408573D

 45 50  0  0  1  0  0  0  0  0999 V2000
  192.2910  176.8140  145.6230 C   0  0  0  0  0  3  0  0  0  0  0  0
  194.3070  175.7650  146.3420 N   0  0  0  0  0  0  0  0  0  0  0  0
  193.9520  176.1180  143.9960 C   0  0  0  0  0  0  0  0  0  0  0  0
  196.0410  175.1020  144.8200 N   0  0  0  0  0  1  0  0  0  0  0  0
  193.1020  176.3180  146.6410 C   0  0  0  0  0  3  0  0  0  0  0  0
  192.7190  176.7390  144.2890 C   0  0  0  0  0  0  0  0  0  0  0  0
  194.7500  175.6560  145.0610 C   0  0  0  0  0  0  0  0  0  0  0  0
  194.4350  175.9920  142.5690 C   0  0  0  0  0  2  0  0  0  0  0  0
  193.4310  174.9180  140.5220 C   0  0  0  0  0  1  0  0  0  0  0  0
  195.3770  173.9150  141.6530 C   0  0  0  0  0  1  0  0  0  0  0  0
  194.0760  174.6660  141.8790 C   0  0  0  0  0  0  0  0  0  0  0  0
  193.1440  173.8420  142.7800 C   0  0  0  0  0  2  0  0  0  0  0  0
  191.7190  173.7150  142.2470 C   0  0  0  0  0  2  0  0  0  0  0  0
  191.3930  172.2530  141.9840 C   0  0  0  0  0  2  0  0  0  0  0  0
  188.8710  173.5560  139.5290 C   0  0  0  0  0  2  0  0  0  0  0  0
  189.5030  173.4660  140.9140 C   0  0  0  0  0  2  0  0  0  0  0  0
  189.6000  171.4440  138.9220 C   0  0  1  0  0  3  0  0  0  0  0  0
  190.7170  171.7740  139.7390 O   0  0  0  0  0  0  0  0  0  0  0  0
  188.4590  172.2770  139.1060 O   0  0  0  0  0  0  0  0  0  0  0  0
  190.2390  172.1360  141.0090 C   0  0  1  0  0  3  0  0  0  0  0  0
  189.9790  171.4580  137.5770 O   0  0  0  0  0  0  0  0  0  0  0  0
  191.3360  171.7970  137.5880 C   0  0  0  0  0  2  0  0  0  0  0  0
  191.6340  172.7650  136.4540 C   0  0  0  0  0  2  0  0  0  0  0  0
  191.1930  174.1710  136.8240 C   0  0  0  0  0  3  0  0  0  0  0  0
  189.9790  174.5330  136.0000 C   0  0  0  0  0  2  0  0  0  0  0  0
  191.3350  175.0850  135.6230 C   0  0  0  0  0  2  0  0  0  0  0  0
  191.8600  177.2820  143.1710 C   0  0  0  0  0  2  0  0  0  0  0  0
  190.4490  177.6730  143.5880 C   0  0  0  0  0  2  0  0  0  0  0  0
  189.4340  176.9730  142.6950 C   0  0  0  0  0  2  0  0  0  0  0  0
  188.1620  176.5250  143.4520 C   0  0  2  0  0  0  0  0  0  0  0  0
  186.2970  179.0790  142.6720 O   0  0  0  0  0  0  0  0  0  0  0  0
  185.1090  177.9480  145.8000 C   0  0  0  0  0  2  0  0  0  0  0  0
  186.2830  178.3440  143.6480 C   0  0  0  0  0  0  0  0  0  0  0  0
  188.6650  176.4570  145.8350 C   0  0  1  0  0  3  0  0  0  0  0  0
  189.6490  174.5980  144.4910 C   0  0  0  0  0  2  0  0  0  0  0  0
  186.2180  176.9810  146.1860 C   0  0  0  0  0  2  0  0  0  0  0  0
  187.5780  177.5040  145.6960 C   0  0  2  0  0  3  0  0  0  0  0  0
  189.8000  174.5920  147.0200 C   0  0  0  0  0  2  0  0  0  0  0  0
  188.6570  175.6050  147.1050 C   0  0  0  0  0  2  0  0  0  0  0  0
  184.9720  177.9900  144.2810 C   0  0  0  0  0  2  0  0  0  0  0  0
  189.6930  173.7320  145.7530 C   0  0  0  0  0  2  0  0  0  0  0  0
  187.5780  177.7690  144.1760 C   0  0  1  0  0  3  0  0  0  0  0  0
  188.4900  175.5810  144.6190 C   0  0  2  0  0  3  0  0  0  0  0  0
  187.2140  175.8750  142.6250 O   0  0  0  0  0  0  0  0  0  0  0  0
  187.4610  176.2120  141.3700 O   0  0  0  0  0  1  0  0  0  0  0  0
  1  5  1  0  0  0  0
  2  5  2  0  0  0  0
  3  6  1  0  0  0  0
  3  7  2  0  0  0  0
  4  7  1  0  0  0  0
  6  1  2  0  0  0  0
  7  2  1  0  0  0  0
  8  3  1  0  0  0  0
  9 11  1  0  0  0  0
 10 11  1  0  0  0  0
 11  8  1  0  0  0  0
 11 12  1  0  0  0  0
 13 12  1  0  0  0  0
 14 13  1  0  0  0  0
 15 16  1  0  0  0  0
 16 20  1  0  0  0  0
 17 21  1  6  0  0  0
 17 19  1  0  0  0  0
 17 18  1  0  0  0  0
 18 20  1  0  0  0  0
 19 15  1  0  0  0  0
 20 14  1  1  0  0  0
 21 22  1  0  0  0  0
 23 24  1  0  0  0  0
 23 22  1  0  0  0  0
 25 24  1  0  0  0  0
 26 25  1  0  0  0  0
 26 24  1  0  0  0  0
 27 28  1  0  0  0  0
 27  6  1  0  0  0  0
 29 28  1  0  0  0  0
 30 29  1  6  0  0  0
 30 42  1  0  0  0  0
 30 43  1  0  0  0  0
 31 33  2  0  0  0  0
 32 36  1  0  0  0  0
 33 40  1  0  0  0  0
 34 39  1  1  0  0  0
 35 41  1  0  0  0  0
 37 34  1  0  0  0  0
 37 36  1  6  0  0  0
 38 39  1  0  0  0  0
 40 32  1  0  0  0  0
 41 38  1  0  0  0  0
 42 33  1  6  0  0  0
 42 37  1  0  0  0  0
 43 35  1  6  0  0  0
 43 34  1  0  0  0  0
 44 30  1  0  0  0  0
 45 44  1  0  0  0  0
M  END
>  <MODEL>
7

>  <REMARK>
 VINA RESULT:      -6.6      3.380      8.054
  Name = 
  15 active torsions:
  status: ('A' for Active; 'I' for Inactive)
    1  A    between atoms: C_3  and  C_5
    2  A    between atoms: C_5  and  C_20
    3  A    between atoms: C_6  and  O_27
    4  A    between atoms: C_6  and  C_30
    5  A    between atoms: C_10  and  C_20
    6  A    between atoms: C_10  and  C_41
    7  A    between atoms: C_16  and  C_39
    8  A    between atoms: C_23  and  C_30
    9  A    between atoms: C_23  and  C_31
   10  A    between atoms: C_24  and  O_35
   11  A    between atoms: C_28  and  C_41
   12  A    between atoms: C_28  and  C_42
   13  A    between atoms: C_31  and  C_34
   14  A    between atoms: O_35  and  C_38
   15  A    between atoms: C_38  and  C_39
                            x       y       z     vdW  Elec       q    Type
                         _______ _______ _______ _____ _____    ______ ____

>  <TORSDO>
F 15

$$$$
=
 OpenBabel11072408573D

 45 50  0  0  1  0  0  0  0  0999 V2000
  188.0240  177.9310  147.0400 C   0  0  0  0  0  3  0  0  0  0  0  0
  185.8660  178.5600  147.8310 N   0  0  0  0  0  0  0  0  0  0  0  0
  186.0790  177.6870  145.6070 C   0  0  0  0  0  0  0  0  0  0  0  0
  183.8720  178.2950  146.5190 N   0  0  0  0  0  1  0  0  0  0  0  0
  187.2040  178.4510  148.0380 C   0  0  0  0  0  3  0  0  0  0  0  0
  187.4650  177.5210  145.8200 C   0  0  0  0  0  0  0  0  0  0  0  0
  185.2870  178.1930  146.6560 C   0  0  0  0  0  0  0  0  0  0  0  0
  185.4450  177.2850  144.2960 C   0  0  0  0  0  2  0  0  0  0  0  0
  183.9180  178.4660  142.6740 C   0  0  0  0  0  1  0  0  0  0  0  0
  185.5760  179.7210  143.9970 C   0  0  0  0  0  1  0  0  0  0  0  0
  185.3230  178.4160  143.2620 C   0  0  0  0  0  0  0  0  0  0  0  0
  186.3710  178.2270  142.1540 C   0  0  0  0  0  2  0  0  0  0  0  0
  186.4970  176.7880  141.6590 C   0  0  0  0  0  2  0  0  0  0  0  0
  187.7970  176.6180  140.8900 C   0  0  0  0  0  2  0  0  0  0  0  0
  187.7550  172.9650  141.7510 C   0  0  0  0  0  2  0  0  0  0  0  0
  187.4640  174.4350  142.0340 C   0  0  0  0  0  2  0  0  0  0  0  0
  189.5180  173.4600  140.3330 C   0  0  1  0  0  3  0  0  0  0  0  0
  188.7250  174.5950  140.0090 O   0  0  0  0  0  0  0  0  0  0  0  0
  189.1340  172.7840  141.5270 O   0  0  0  0  0  0  0  0  0  0  0  0
  188.4240  175.2740  141.2010 C   0  0  1  0  0  3  0  0  0  0  0  0
  189.5130  172.5610  139.2630 O   0  0  0  0  0  0  0  0  0  0  0  0
  190.7550  171.9220  139.3220 C   0  0  0  0  0  2  0  0  0  0  0  0
  191.2070  171.5440  137.9200 C   0  0  0  0  0  2  0  0  0  0  0  0
  190.2040  170.6040  137.2730 C   0  0  0  0  0  3  0  0  0  0  0  0
  190.7800  170.1010  135.9690 C   0  0  0  0  0  2  0  0  0  0  0  0
  189.7280  171.1880  135.9570 C   0  0  0  0  0  2  0  0  0  0  0  0
  188.3340  176.9430  144.7280 C   0  0  0  0  0  2  0  0  0  0  0  0
  189.7400  177.5250  144.6610 C   0  0  0  0  0  2  0  0  0  0  0  0
  190.6820  176.5230  144.0080 C   0  0  0  0  0  2  0  0  0  0  0  0
  191.5520  175.7500  145.0270 C   0  0  2  0  0  0  0  0  0  0  0  0
  194.0950  177.7840  145.0270 O   0  0  0  0  0  0  0  0  0  0  0  0
  195.4200  174.5980  145.7820 C   0  0  0  0  0  2  0  0  0  0  0  0
  194.0290  176.5820  145.2360 C   0  0  0  0  0  0  0  0  0  0  0  0
  192.1180  173.5820  144.0690 C   0  0  1  0  0  3  0  0  0  0  0  0
  189.7580  173.8120  144.8480 C   0  0  0  0  0  2  0  0  0  0  0  0
  194.2240  173.7150  145.4600 C   0  0  0  0  0  2  0  0  0  0  0  0
  193.4480  174.2840  144.2600 C   0  0  2  0  0  3  0  0  0  0  0  0
  190.6570  171.5740  144.0730 C   0  0  0  0  0  2  0  0  0  0  0  0
  192.0920  172.0660  144.2680 C   0  0  0  0  0  2  0  0  0  0  0  0
  194.9350  175.9650  146.2580 C   0  0  0  0  0  2  0  0  0  0  0  0
  189.6850  172.2920  145.0200 C   0  0  0  0  0  2  0  0  0  0  0  0
  193.0120  175.7440  144.4960 C   0  0  1  0  0  3  0  0  0  0  0  0
  191.2030  174.2540  145.0620 C   0  0  2  0  0  3  0  0  0  0  0  0
  191.4490  176.2470  146.3490 O   0  0  0  0  0  0  0  0  0  0  0  0
  191.5640  175.2270  147.1830 O   0  0  0  0  0  1  0  0  0  0  0  0
  1  5  1  0  0  0  0
  2  5  2  0  0  0  0
  3  6  1  0  0  0  0
  3  7  2  0  0  0  0
  4  7  1  0  0  0  0
  6  1  2  0  0  0  0
  7  2  1  0  0  0  0
  8  3  1  0  0  0  0
  9 11  1  0  0  0  0
 11 10  1  0  0  0  0
 11  8  1  0  0  0  0
 12 11  1  0  0  0  0
 13 12  1  0  0  0  0
 14 13  1  0  0  0  0
 15 16  1  0  0  0  0
 17 21  1  6  0  0  0
 17 19  1  0  0  0  0
 18 17  1  0  0  0  0
 18 20  1  0  0  0  0
 19 15  1  0  0  0  0
 20 14  1  6  0  0  0
 20 16  1  0  0  0  0
 21 22  1  0  0  0  0
 23 22  1  0  0  0  0
 24 23  1  0  0  0  0
 25 24  1  0  0  0  0
 26 25  1  0  0  0  0
 26 24  1  0  0  0  0
 27  6  1  0  0  0  0
 28 27  1  0  0  0  0
 29 28  1  0  0  0  0
 30 29  1  6  0  0  0
 30 43  1  0  0  0  0
 30 44  1  0  0  0  0
 31 33  2  0  0  0  0
 32 40  1  0  0  0  0
 33 40  1  0  0  0  0
 34 37  1  0  0  0  0
 34 39  1  1  0  0  0
 34 43  1  0  0  0  0
 35 41  1  0  0  0  0
 36 32  1  0  0  0  0
 37 42  1  0  0  0  0
 37 36  1  1  0  0  0
 38 39  1  0  0  0  0
 38 41  1  0  0  0  0
 42 30  1  0  0  0  0
 42 33  1  1  0  0  0
 43 35  1  6  0  0  0
 44 45  1  0  0  0  0
M  END
>  <MODEL>
8

>  <REMARK>
 VINA RESULT:      -6.6      3.406      6.823
  Name = 
  15 active torsions:
  status: ('A' for Active; 'I' for Inactive)
    1  A    between atoms: C_3  and  C_5
    2  A    between atoms: C_5  and  C_20
    3  A    between atoms: C_6  and  O_27
    4  A    between atoms: C_6  and  C_30
    5  A    between atoms: C_10  and  C_20
    6  A    between atoms: C_10  and  C_41
    7  A    between atoms: C_16  and  C_39
    8  A    between atoms: C_23  and  C_30
    9  A    between atoms: C_23  and  C_31
   10  A    between atoms: C_24  and  O_35
   11  A    between atoms: C_28  and  C_41
   12  A    between atoms: C_28  and  C_42
   13  A    between atoms: C_31  and  C_34
   14  A    between atoms: O_35  and  C_38
   15  A    between atoms: C_38  and  C_39
                            x       y       z     vdW  Elec       q    Type
                         _______ _______ _______ _____ _____    ______ ____

>  <TORSDO>
F 15

$$$$
=
 OpenBabel11072408573D

 45 50  0  0  1  0  0  0  0  0999 V2000
  193.9090  177.0680  144.9500 C   0  0  0  0  0  3  0  0  0  0  0  0
  193.5030  176.5730  147.2460 N   0  0  0  0  0  0  0  0  0  0  0  0
  191.8980  175.8770  145.6050 C   0  0  0  0  0  0  0  0  0  0  0  0
  191.5810  175.3410  147.9900 N   0  0  0  0  0  1  0  0  0  0  0  0
  194.2850  177.1380  146.2890 C   0  0  0  0  0  3  0  0  0  0  0  0
  192.7200  176.4150  144.5910 C   0  0  0  0  0  0  0  0  0  0  0  0
  192.3340  175.9480  146.9420 C   0  0  0  0  0  0  0  0  0  0  0  0
  190.5950  175.1920  145.2610 C   0  0  0  0  0  2  0  0  0  0  0  0
  188.4830  175.6600  146.5550 C   0  0  0  0  0  1  0  0  0  0  0  0
  189.8310  177.5000  145.6210 C   0  0  0  0  0  1  0  0  0  0  0  0
  189.3470  176.0810  145.3720 C   0  0  0  0  0  0  0  0  0  0  0  0
  188.5440  176.0240  144.0640 C   0  0  0  0  0  2  0  0  0  0  0  0
  188.8350  177.1790  143.1080 C   0  0  0  0  0  2  0  0  0  0  0  0
  188.3960  176.8070  141.7010 C   0  0  0  0  0  2  0  0  0  0  0  0
  185.2050  177.5470  139.8670 C   0  0  0  0  0  2  0  0  0  0  0  0
  186.6820  177.1730  139.9350 C   0  0  0  0  0  2  0  0  0  0  0  0
  185.2630  178.6490  141.9030 C   0  0  1  0  0  3  0  0  0  0  0  0
  186.2190  177.6490  142.2320 O   0  0  0  0  0  0  0  0  0  0  0  0
  184.9940  178.7820  140.5100 O   0  0  0  0  0  0  0  0  0  0  0  0
  187.2340  177.6770  141.2620 C   0  0  1  0  0  3  0  0  0  0  0  0
  184.0720  178.4060  142.5900 O   0  0  0  0  0  0  0  0  0  0  0  0
  184.4680  177.9180  143.8390 C   0  0  0  0  0  2  0  0  0  0  0  0
  184.6550  179.0750  144.8080 C   0  0  0  0  0  2  0  0  0  0  0  0
  185.7250  178.7410  145.8350 C   0  0  0  0  0  3  0  0  0  0  0  0
  185.3870  177.4130  146.4750 C   0  0  0  0  0  2  0  0  0  0  0  0
  185.1100  178.7000  147.2200 C   0  0  0  0  0  2  0  0  0  0  0  0
  192.2990  176.3170  143.1440 C   0  0  0  0  0  2  0  0  0  0  0  0
  193.3300  175.6740  142.2260 C   0  0  0  0  0  2  0  0  0  0  0  0
  193.5370  174.2190  142.6220 C   0  0  0  0  0  2  0  0  0  0  0  0
  192.8270  173.2220  141.6770 C   0  0  2  0  0  0  0  0  0  0  0  0
  193.7940  174.5550  138.8670 O   0  0  0  0  0  0  0  0  0  0  0  0
  190.6870  173.0240  138.1780 C   0  0  0  0  0  2  0  0  0  0  0  0
  192.7930  173.9140  139.1480 C   0  0  0  0  0  0  0  0  0  0  0  0
  190.4210  173.4290  142.0040 C   0  0  1  0  0  3  0  0  0  0  0  0
  191.6430  172.2600  143.8390 C   0  0  0  0  0  2  0  0  0  0  0  0
  190.2100  172.7150  139.5890 C   0  0  0  0  0  2  0  0  0  0  0  0
  190.6540  173.8230  140.5580 C   0  0  2  0  0  3  0  0  0  0  0  0
  189.1110  172.3540  143.8190 C   0  0  0  0  0  2  0  0  0  0  0  0
  189.1210  172.6920  142.3270 C   0  0  0  0  0  2  0  0  0  0  0  0
  192.2120  172.9800  138.1320 C   0  0  0  0  0  2  0  0  0  0  0  0
  190.3480  171.5350  144.2160 C   0  0  0  0  0  2  0  0  0  0  0  0
  192.1800  174.0390  140.5240 C   0  0  1  0  0  3  0  0  0  0  0  0
  191.6090  172.5650  142.3450 C   0  0  2  0  0  3  0  0  0  0  0  0
  193.6730  172.1870  141.2100 O   0  0  0  0  0  0  0  0  0  0  0  0
  194.6540  172.0300  142.0850 O   0  0  0  0  0  1  0  0  0  0  0  0
  1  5  1  0  0  0  0
  3  7  2  0  0  0  0
  5  2  2  0  0  0  0
  6  1  2  0  0  0  0
  6  3  1  0  0  0  0
  7  2  1  0  0  0  0
  7  4  1  0  0  0  0
  8 11  1  0  0  0  0
  8  3  1  0  0  0  0
 11 10  1  0  0  0  0
 11  9  1  0  0  0  0
 12 11  1  0  0  0  0
 13 12  1  0  0  0  0
 14 13  1  0  0  0  0
 15 16  1  0  0  0  0
 15 19  1  0  0  0  0
 16 20  1  0  0  0  0
 17 18  1  0  0  0  0
 17 21  1  1  0  0  0
 19 17  1  0  0  0  0
 20 14  1  1  0  0  0
 20 18  1  0  0  0  0
 21 22  1  0  0  0  0
 22 23  1  0  0  0  0
 23 24  1  0  0  0  0
 24 25  1  0  0  0  0
 24 26  1  0  0  0  0
 25 26  1  0  0  0  0
 27  6  1  0  0  0  0
 28 29  1  0  0  0  0
 28 27  1  0  0  0  0
 30 43  1  0  0  0  0
 30 29  1  1  0  0  0
 31 33  2  0  0  0  0
 32 36  1  0  0  0  0
 34 39  1  6  0  0  0
 34 43  1  0  0  0  0
 35 41  1  0  0  0  0
 37 36  1  6  0  0  0
 37 34  1  0  0  0  0
 38 41  1  0  0  0  0
 39 38  1  0  0  0  0
 40 32  1  0  0  0  0
 40 33  1  0  0  0  0
 42 33  1  6  0  0  0
 42 37  1  0  0  0  0
 42 30  1  0  0  0  0
 43 35  1  1  0  0  0
 44 30  1  0  0  0  0
 44 45  1  0  0  0  0
M  END
>  <MODEL>
9

>  <REMARK>
 VINA RESULT:      -6.6      2.668      5.378
  Name = 
  15 active torsions:
  status: ('A' for Active; 'I' for Inactive)
    1  A    between atoms: C_3  and  C_5
    2  A    between atoms: C_5  and  C_20
    3  A    between atoms: C_6  and  O_27
    4  A    between atoms: C_6  and  C_30
    5  A    between atoms: C_10  and  C_20
    6  A    between atoms: C_10  and  C_41
    7  A    between atoms: C_16  and  C_39
    8  A    between atoms: C_23  and  C_30
    9  A    between atoms: C_23  and  C_31
   10  A    between atoms: C_24  and  O_35
   11  A    between atoms: C_28  and  C_41
   12  A    between atoms: C_28  and  C_42
   13  A    between atoms: C_31  and  C_34
   14  A    between atoms: O_35  and  C_38
   15  A    between atoms: C_38  and  C_39
                            x       y       z     vdW  Elec       q    Type
                         _______ _______ _______ _____ _____    ______ ____

>  <TORSDO>
F 15

$$$$
