=
 OpenBabel11062422263D

 36 41  0  0  1  0  0  0  0  0999 V2000
  191.8080  176.1940  147.3710 C   0  0  0  0  0  3  0  0  0  0  0  0
  191.8650  175.2240  146.2610 C   0  0  0  0  0  0  0  0  0  0  0  0
  193.0810  174.7410  145.9020 C   0  0  1  0  0  3  0  0  0  0  0  0
  192.3050  172.0050  143.3860 C   0  0  0  0  0  3  0  0  0  0  0  0
  189.0020  176.5710  146.0040 C   0  0  0  0  0  0  0  0  0  0  0  0
  190.7880  173.2460  145.0390 C   0  0  2  0  0  3  0  0  0  0  0  0
  190.8510  177.0650  147.6600 C   0  0  0  0  0  2  0  0  0  0  0  0
  189.6090  177.3160  146.9300 C   0  0  0  0  0  3  0  0  0  0  0  0
  192.1440  173.0300  144.4190 C   0  0  0  0  0  0  0  0  0  0  0  0
  193.2080  173.6900  144.8730 C   0  0  0  0  0  3  0  0  0  0  0  0
  189.4560  175.2420  145.5520 C   0  0  0  0  0  3  0  0  0  0  0  0
  191.2190  171.5210  142.7770 C   0  0  0  0  0  3  0  0  0  0  0  0
  189.6840  172.8280  144.0910 C   0  0  0  0  0  3  0  0  0  0  0  0
  190.6490  174.6400  145.6270 C   0  0  0  0  0  0  0  0  0  0  0  0
  189.9080  172.0150  143.1010 N   0  0  0  0  0  0  0  0  0  0  0  0
  186.5370  176.9180  146.1570 C   0  0  0  0  0  3  0  0  0  0  0  0
  186.4750  178.2300  143.6970 C   0  0  0  0  0  3  0  0  0  0  0  0
  185.2880  178.0710  144.4280 C   0  0  0  0  0  0  0  0  0  0  0  0
  185.3270  177.4090  145.6600 C   0  0  0  0  0  0  0  0  0  0  0  0
  187.6890  177.7500  144.1960 C   0  0  0  0  0  0  0  0  0  0  0  0
  187.7310  177.0890  145.4390 C   0  0  0  0  0  0  0  0  0  0  0  0
  188.8100  177.9080  143.4460 F   0  0  0  0  0  0  0  0  0  0  0  0
  184.1900  177.2330  146.3780 F   0  0  0  0  0  0  0  0  0  0  0  0
  183.6210  178.3180  142.6170 C   0  0  0  0  0  1  0  0  0  0  0  0
  184.0640  178.5460  143.9470 O   0  0  0  0  0  0  0  0  0  0  0  0
  194.3510  175.2670  146.5050 C   0  0  0  0  0  2  0  0  0  0  0  0
  195.4790  175.0070  145.6220 N   0  0  0  0  0  0  0  0  0  0  0  0
  195.7070  175.7070  144.4360 N   0  0  0  0  0  0  0  0  0  0  0  0
  196.8280  175.2630  143.9970 C   0  0  0  0  0  0  0  0  0  0  0  0
  196.5000  174.0930  145.9300 N   0  0  0  0  0  0  0  0  0  0  0  0
  197.3730  174.2580  144.8400 N   0  0  0  0  0  0  0  0  0  0  0  0
  197.7300  175.0140  140.4580 C   0  0  0  0  0  2  0  0  0  0  0  0
  197.9410  174.5710  141.8910 C   0  0  0  0  0  2  0  0  0  0  0  0
  196.4090  176.3810  141.8310 C   0  0  0  0  0  2  0  0  0  0  0  0
  196.8150  176.1550  140.4490 N   0  0  0  0  0  2  0  0  0  0  0  0
  197.4380  175.7240  142.7130 C   0  0  1  0  0  3  0  0  0  0  0  0
  1  7  1  0  0  0  0
  2  1  2  0  0  0  0
  3  2  1  0  0  0  0
  3 26  1  6  0  0  0
  4  9  1  0  0  0  0
  5  8  2  0  0  0  0
  6 13  1  6  0  0  0
  6 14  1  0  0  0  0
  8  7  1  0  0  0  0
  9 10  2  0  0  0  0
  9  6  1  0  0  0  0
 10  3  1  0  0  0  0
 11 14  2  0  0  0  0
 11  5  1  0  0  0  0
 12 15  1  0  0  0  0
 12  4  2  0  0  0  0
 14  2  1  0  0  0  0
 15 13  2  0  0  0  0
 17 20  2  0  0  0  0
 17 18  1  0  0  0  0
 18 19  2  0  0  0  0
 19 16  1  0  0  0  0
 19 23  1  0  0  0  0
 20 21  1  0  0  0  0
 21  5  1  0  0  0  0
 21 16  2  0  0  0  0
 22 20  1  0  0  0  0
 24 25  1  0  0  0  0
 25 18  1  0  0  0  0
 27 30  1  0  0  0  0
 27 26  1  0  0  0  0
 28 27  1  0  0  0  0
 29 28  2  0  0  0  0
 29 31  1  0  0  0  0
 31 30  2  0  0  0  0
 32 33  1  0  0  0  0
 33 36  1  0  0  0  0
 34 36  1  0  0  0  0
 35 32  1  0  0  0  0
 35 34  1  0  0  0  0
 36 29  1  1  0  0  0
M  END
>  <MODEL>
1

>  <REMARK>
 VINA RESULT:      -9.1      0.000      0.000
  Name = 
  5 active torsions:
  status: ('A' for Active; 'I' for Inactive)
    1  A    between atoms: C_5  and  C_16
    2  A    between atoms: C_7  and  C_26
    3  A    between atoms: N_12  and  C_16
    4  A    between atoms: C_13  and  O_30
    5  A    between atoms: C_20  and  C_23
                            x       y       z     vdW  Elec       q    Type
                         _______ _______ _______ _____ _____    ______ ____

>  <TORSDO>
F 5

$$$$
=
 OpenBabel11062422263D

 36 41  0  0  1  0  0  0  0  0999 V2000
  191.7600  176.2870  147.3720 C   0  0  0  0  0  3  0  0  0  0  0  0
  191.8150  175.3050  146.2730 C   0  0  0  0  0  0  0  0  0  0  0  0
  193.0290  174.8130  145.9210 C   0  0  1  0  0  3  0  0  0  0  0  0
  192.2470  172.0500  143.4370 C   0  0  0  0  0  3  0  0  0  0  0  0
  188.9560  176.6580  145.9970 C   0  0  0  0  0  0  0  0  0  0  0  0
  190.7320  173.3160  145.0740 C   0  0  2  0  0  3  0  0  0  0  0  0
  190.8050  177.1650  147.6500 C   0  0  0  0  0  2  0  0  0  0  0  0
  189.5640  177.4120  146.9150 C   0  0  0  0  0  3  0  0  0  0  0  0
  192.0890  173.0880  144.4580 C   0  0  0  0  0  0  0  0  0  0  0  0
  193.1530  173.7500  144.9050 C   0  0  0  0  0  3  0  0  0  0  0  0
  189.4060  175.3220  145.5620 C   0  0  0  0  0  3  0  0  0  0  0  0
  191.1600  171.5630  142.8320 C   0  0  0  0  0  3  0  0  0  0  0  0
  189.6280  172.8900  144.1300 C   0  0  0  0  0  3  0  0  0  0  0  0
  190.5970  174.7170  145.6450 C   0  0  0  0  0  0  0  0  0  0  0  0
  189.8500  172.0640  143.1490 N   0  0  0  0  0  0  0  0  0  0  0  0
  187.7090  177.8550  144.1990 C   0  0  0  0  0  3  0  0  0  0  0  0
  185.2770  177.4900  145.5130 C   0  0  0  0  0  3  0  0  0  0  0  0
  185.3040  178.1550  144.2790 C   0  0  0  0  0  0  0  0  0  0  0  0
  186.5290  178.3360  143.6260 C   0  0  0  0  0  0  0  0  0  0  0  0
  186.4540  176.9960  146.0840 C   0  0  0  0  0  0  0  0  0  0  0  0
  187.6870  177.1730  145.4260 C   0  0  0  0  0  0  0  0  0  0  0  0
  186.3840  176.3770  147.2900 F   0  0  0  0  0  0  0  0  0  0  0  0
  186.5810  178.9870  142.4380 F   0  0  0  0  0  0  0  0  0  0  0  0
  183.6530  178.1930  142.4380 C   0  0  0  0  0  1  0  0  0  0  0  0
  184.1380  178.6540  143.6910 O   0  0  0  0  0  0  0  0  0  0  0  0
  194.3000  175.3420  146.5200 C   0  0  0  0  0  2  0  0  0  0  0  0
  195.4270  175.0710  145.6390 N   0  0  0  0  0  0  0  0  0  0  0  0
  195.6580  175.7600  144.4470 N   0  0  0  0  0  0  0  0  0  0  0  0
  196.7780  175.3090  144.0120 C   0  0  0  0  0  0  0  0  0  0  0  0
  196.4460  174.1580  145.9560 N   0  0  0  0  0  0  0  0  0  0  0  0
  197.3200  174.3110  144.8650 N   0  0  0  0  0  0  0  0  0  0  0  0
  197.7350  174.9990  140.4930 C   0  0  0  0  0  2  0  0  0  0  0  0
  197.9410  174.6000  141.9400 C   0  0  0  0  0  2  0  0  0  0  0  0
  196.3510  176.3560  141.8120 C   0  0  0  0  0  2  0  0  0  0  0  0
  196.7830  176.1080  140.4420 N   0  0  0  0  0  2  0  0  0  0  0  0
  197.3890  175.7560  142.7250 C   0  0  1  0  0  3  0  0  0  0  0  0
  1  7  1  0  0  0  0
  2  1  2  0  0  0  0
  3  2  1  0  0  0  0
  3 26  1  6  0  0  0
  4  9  1  0  0  0  0
  5  8  2  0  0  0  0
  6 13  1  6  0  0  0
  6 14  1  0  0  0  0
  8  7  1  0  0  0  0
  9 10  2  0  0  0  0
  9  6  1  0  0  0  0
 10  3  1  0  0  0  0
 11 14  2  0  0  0  0
 11  5  1  0  0  0  0
 12 15  1  0  0  0  0
 12  4  2  0  0  0  0
 14  2  1  0  0  0  0
 15 13  2  0  0  0  0
 16 21  1  0  0  0  0
 17 20  1  0  0  0  0
 18 17  2  0  0  0  0
 19 16  2  0  0  0  0
 19 18  1  0  0  0  0
 20 22  1  0  0  0  0
 21  5  1  0  0  0  0
 21 20  2  0  0  0  0
 23 19  1  0  0  0  0
 24 25  1  0  0  0  0
 25 18  1  0  0  0  0
 27 30  1  0  0  0  0
 27 26  1  0  0  0  0
 28 27  1  0  0  0  0
 29 28  2  0  0  0  0
 29 31  1  0  0  0  0
 31 30  2  0  0  0  0
 32 33  1  0  0  0  0
 33 36  1  0  0  0  0
 34 36  1  0  0  0  0
 35 32  1  0  0  0  0
 35 34  1  0  0  0  0
 36 29  1  1  0  0  0
M  END
>  <MODEL>
2

>  <REMARK>
 VINA RESULT:      -9.0      0.623      1.406
  Name = 
  5 active torsions:
  status: ('A' for Active; 'I' for Inactive)
    1  A    between atoms: C_5  and  C_16
    2  A    between atoms: C_7  and  C_26
    3  A    between atoms: N_12  and  C_16
    4  A    between atoms: C_13  and  O_30
    5  A    between atoms: C_20  and  C_23
                            x       y       z     vdW  Elec       q    Type
                         _______ _______ _______ _____ _____    ______ ____

>  <TORSDO>
F 5

$$$$
=
 OpenBabel11062422263D

 36 41  0  0  1  0  0  0  0  0999 V2000
  186.9150  176.4820  141.4300 C   0  0  0  0  0  3  0  0  0  0  0  0
  186.3410  177.0970  142.6420 C   0  0  0  0  0  0  0  0  0  0  0  0
  185.3130  177.9670  142.4870 C   0  0  0  0  0  0  0  0  0  0  0  0
  184.1270  178.6740  146.0230 C   0  0  0  0  0  3  0  0  0  0  0  0
  189.1420  175.9330  143.5820 C   0  0  0  0  0  0  0  0  0  0  0  0
  185.6740  176.8470  145.1040 C   0  0  2  0  0  3  0  0  0  0  0  0
  188.1070  175.9220  141.2720 C   0  0  0  0  0  3  0  0  0  0  0  0
  189.1830  175.7960  142.2550 C   0  0  0  0  0  3  0  0  0  0  0  0
  184.8210  178.0710  144.8840 C   0  0  0  0  0  0  0  0  0  0  0  0
  184.6180  178.5410  143.6560 C   0  0  0  0  0  3  0  0  0  0  0  0
  187.9230  176.1930  144.3710 C   0  0  0  0  0  3  0  0  0  0  0  0
  184.5130  178.3560  147.2620 C   0  0  0  0  0  3  0  0  0  0  0  0
  186.1870  176.7910  146.5270 C   0  0  0  0  0  3  0  0  0  0  0  0
  186.7300  176.6920  144.0230 C   0  0  0  0  0  0  0  0  0  0  0  0
  185.6130  177.4570  147.4860 N   0  0  0  0  0  0  0  0  0  0  0  0
  190.9650  174.4490  144.4160 C   0  0  0  0  0  3  0  0  0  0  0  0
  192.2730  176.5880  145.6380 C   0  0  0  0  0  3  0  0  0  0  0  0
  192.8300  175.3020  145.7090 C   0  0  0  0  0  0  0  0  0  0  0  0
  192.1670  174.2340  145.0950 C   0  0  0  0  0  0  0  0  0  0  0  0
  191.0770  176.8090  144.9500 C   0  0  0  0  0  0  0  0  0  0  0  0
  190.4100  175.7360  144.3260 C   0  0  0  0  0  0  0  0  0  0  0  0
  190.5630  178.0660  144.9240 F   0  0  0  0  0  0  0  0  0  0  0  0
  192.6810  172.9810  145.1610 F   0  0  0  0  0  0  0  0  0  0  0  0
  195.3020  175.2450  145.7910 C   0  0  0  0  0  1  0  0  0  0  0  0
  194.0280  175.0610  146.3900 O   0  0  0  0  0  0  0  0  0  0  0  0
  184.8530  178.4130  141.1280 C   0  0  0  0  0  2  0  0  0  0  0  0
  183.4190  178.2010  140.9830 N   0  0  0  0  0  0  0  0  0  0  0  0
  182.4700  178.7160  141.8680 N   0  0  0  0  0  0  0  0  0  0  0  0
  181.3350  178.4000  141.3600 C   0  0  0  0  0  0  0  0  0  0  0  0
  182.8490  177.5410  139.8830 N   0  0  0  0  0  0  0  0  0  0  0  0
  181.4750  177.6630  140.1540 N   0  0  0  0  0  0  0  0  0  0  0  0
  177.8210  179.4180  141.4570 C   0  0  0  0  0  2  0  0  0  0  0  0
  179.2770  179.7790  141.2460 C   0  0  0  0  0  2  0  0  0  0  0  0
  179.1100  177.5410  142.0130 C   0  0  0  0  0  2  0  0  0  0  0  0
  177.7440  178.0500  141.9680 N   0  0  0  0  0  2  0  0  0  0  0  0
  180.0330  178.7310  142.0130 C   0  0  1  0  0  3  0  0  0  0  0  0
  1  2  1  0  0  0  0
  2 14  1  0  0  0  0
  3  2  2  0  0  0  0
  3 10  1  0  0  0  0
  4 12  2  0  0  0  0
  5 21  1  0  0  0  0
  5 11  1  0  0  0  0
  6 13  1  1  0  0  0
  7  1  2  0  0  0  0
  7  8  1  0  0  0  0
  8  5  2  0  0  0  0
  9  6  1  0  0  0  0
  9  4  1  0  0  0  0
 10  9  2  0  0  0  0
 12 15  1  0  0  0  0
 13 15  2  0  0  0  0
 14 11  2  0  0  0  0
 14  6  1  0  0  0  0
 16 19  1  0  0  0  0
 17 18  1  0  0  0  0
 18 25  1  0  0  0  0
 19 23  1  0  0  0  0
 19 18  2  0  0  0  0
 20 17  2  0  0  0  0
 21 16  2  0  0  0  0
 21 20  1  0  0  0  0
 22 20  1  0  0  0  0
 24 25  1  0  0  0  0
 26  3  1  0  0  0  0
 27 26  1  0  0  0  0
 27 28  1  0  0  0  0
 29 28  2  0  0  0  0
 30 31  2  0  0  0  0
 30 27  1  0  0  0  0
 31 29  1  0  0  0  0
 32 35  1  0  0  0  0
 33 32  1  0  0  0  0
 33 36  1  0  0  0  0
 35 34  1  0  0  0  0
 36 29  1  6  0  0  0
 36 34  1  0  0  0  0
M  END
>  <MODEL>
3

>  <REMARK>
 VINA RESULT:      -8.9      5.478     11.156
  Name = 
  5 active torsions:
  status: ('A' for Active; 'I' for Inactive)
    1  A    between atoms: C_5  and  C_16
    2  A    between atoms: C_7  and  C_26
    3  A    between atoms: N_12  and  C_16
    4  A    between atoms: C_13  and  O_30
    5  A    between atoms: C_20  and  C_23
                            x       y       z     vdW  Elec       q    Type
                         _______ _______ _______ _____ _____    ______ ____

>  <TORSDO>
F 5

$$$$
=
 OpenBabel11062422263D

 36 41  0  0  1  0  0  0  0  0999 V2000
  187.1440  177.6030  141.5220 C   0  0  0  0  0  3  0  0  0  0  0  0
  186.8800  177.4470  142.9650 C   0  0  0  0  0  0  0  0  0  0  0  0
  187.8080  176.8030  143.7160 C   0  0  0  0  0  0  0  0  0  0  0  0
  186.6260  177.2730  147.2930 C   0  0  0  0  0  3  0  0  0  0  0  0
  184.0600  178.1890  141.7070 C   0  0  0  0  0  0  0  0  0  0  0  0
  185.9170  178.4410  145.1220 C   0  0  2  0  0  3  0  0  0  0  0  0
  186.2810  177.8400  140.5440 C   0  0  0  0  0  3  0  0  0  0  0  0
  184.8280  177.9780  140.6360 C   0  0  0  0  0  3  0  0  0  0  0  0
  186.7510  177.4110  145.8400 C   0  0  0  0  0  0  0  0  0  0  0  0
  187.6650  176.7020  145.1810 C   0  0  0  0  0  3  0  0  0  0  0  0
  184.5580  178.4000  143.0800 C   0  0  0  0  0  3  0  0  0  0  0  0
  185.5640  177.8020  147.9060 C   0  0  0  0  0  3  0  0  0  0  0  0
  184.6470  178.7420  145.8890 C   0  0  0  0  0  3  0  0  0  0  0  0
  185.7270  178.0940  143.6560 C   0  0  0  0  0  0  0  0  0  0  0  0
  184.5370  178.4750  147.1570 N   0  0  0  0  0  0  0  0  0  0  0  0
  181.7920  178.8990  142.4640 C   0  0  0  0  0  3  0  0  0  0  0  0
  180.6070  177.9190  140.1380 C   0  0  0  0  0  3  0  0  0  0  0  0
  179.8120  178.5410  141.1120 C   0  0  0  0  0  0  0  0  0  0  0  0
  180.4140  179.0290  142.2780 C   0  0  0  0  0  0  0  0  0  0  0  0
  181.9880  177.7980  140.3160 C   0  0  0  0  0  0  0  0  0  0  0  0
  182.5970  178.2940  141.4860 C   0  0  0  0  0  0  0  0  0  0  0  0
  182.7170  177.1710  139.3570 F   0  0  0  0  0  0  0  0  0  0  0  0
  179.6630  179.6230  143.2380 F   0  0  0  0  0  0  0  0  0  0  0  0
  177.8220  178.8980  139.6870 C   0  0  0  0  0  1  0  0  0  0  0  0
  178.4290  178.6740  140.9510 O   0  0  0  0  0  0  0  0  0  0  0  0
  189.0040  176.1400  143.0950 C   0  0  0  0  0  2  0  0  0  0  0  0
  190.2270  176.8170  143.5020 N   0  0  0  0  0  0  0  0  0  0  0  0
  191.3160  176.1620  144.0790 N   0  0  0  0  0  0  0  0  0  0  0  0
  192.2200  177.0630  144.2050 C   0  0  0  0  0  0  0  0  0  0  0  0
  190.4670  178.1790  143.2600 N   0  0  0  0  0  0  0  0  0  0  0  0
  191.7770  178.3330  143.7460 N   0  0  0  0  0  0  0  0  0  0  0  0
  194.6770  175.1550  146.1330 C   0  0  0  0  0  2  0  0  0  0  0  0
  193.4310  176.0140  146.0990 C   0  0  0  0  0  2  0  0  0  0  0  0
  194.3940  175.9150  143.9330 C   0  0  0  0  0  2  0  0  0  0  0  0
  195.2760  175.1410  144.7990 N   0  0  0  0  0  2  0  0  0  0  0  0
  193.5540  176.7960  144.8220 C   0  0  1  0  0  3  0  0  0  0  0  0
  1  2  1  0  0  0  0
  2 14  1  0  0  0  0
  2  3  2  0  0  0  0
  3 10  1  0  0  0  0
  4 12  2  0  0  0  0
  5 11  1  0  0  0  0
  6  9  1  0  0  0  0
  6 13  1  1  0  0  0
  7  8  1  0  0  0  0
  7  1  2  0  0  0  0
  8  5  2  0  0  0  0
  9  4  1  0  0  0  0
 10  9  2  0  0  0  0
 11 14  2  0  0  0  0
 13 15  2  0  0  0  0
 14  6  1  0  0  0  0
 15 12  1  0  0  0  0
 17 20  2  0  0  0  0
 17 18  1  0  0  0  0
 18 19  2  0  0  0  0
 19 16  1  0  0  0  0
 19 23  1  0  0  0  0
 20 21  1  0  0  0  0
 21  5  1  0  0  0  0
 21 16  2  0  0  0  0
 22 20  1  0  0  0  0
 24 25  1  0  0  0  0
 25 18  1  0  0  0  0
 26 27  1  0  0  0  0
 26  3  1  0  0  0  0
 27 28  1  0  0  0  0
 28 29  2  0  0  0  0
 30 27  1  0  0  0  0
 30 31  2  0  0  0  0
 31 29  1  0  0  0  0
 33 32  1  0  0  0  0
 34 35  1  0  0  0  0
 34 36  1  0  0  0  0
 35 32  1  0  0  0  0
 36 29  1  6  0  0  0
 36 33  1  0  0  0  0
M  END
>  <MODEL>
4

>  <REMARK>
 VINA RESULT:      -8.8      3.652      6.781
  Name = 
  5 active torsions:
  status: ('A' for Active; 'I' for Inactive)
    1  A    between atoms: C_5  and  C_16
    2  A    between atoms: C_7  and  C_26
    3  A    between atoms: N_12  and  C_16
    4  A    between atoms: C_13  and  O_30
    5  A    between atoms: C_20  and  C_23
                            x       y       z     vdW  Elec       q    Type
                         _______ _______ _______ _____ _____    ______ ____

>  <TORSDO>
F 5

$$$$
=
 OpenBabel11062422263D

 36 41  0  0  1  0  0  0  0  0999 V2000
  192.3180  175.5620  147.0460 C   0  0  0  0  0  3  0  0  0  0  0  0
  192.1910  174.6580  145.8870 C   0  0  0  0  0  0  0  0  0  0  0  0
  193.3280  174.1470  145.3520 C   0  0  1  0  0  3  0  0  0  0  0  0
  192.1180  171.5980  142.8130 C   0  0  0  0  0  3  0  0  0  0  0  0
  189.3860  176.1340  146.0650 C   0  0  0  0  0  0  0  0  0  0  0  0
  190.8770  172.8020  144.7070 C   0  0  2  0  0  3  0  0  0  0  0  0
  191.4470  176.4530  147.4990 C   0  0  0  0  0  2  0  0  0  0  0  0
  190.1380  176.7980  146.9460 C   0  0  0  0  0  3  0  0  0  0  0  0
  192.1350  172.5660  143.9110 C   0  0  0  0  0  0  0  0  0  0  0  0
  193.2770  173.1540  144.2610 C   0  0  0  0  0  3  0  0  0  0  0  0
  189.7160  174.8170  145.4900 C   0  0  0  0  0  3  0  0  0  0  0  0
  190.9430  171.1960  142.3190 C   0  0  0  0  0  3  0  0  0  0  0  0
  189.6460  172.4850  143.8850 C   0  0  0  0  0  3  0  0  0  0  0  0
  190.8790  174.1630  145.3810 C   0  0  0  0  0  0  0  0  0  0  0  0
  189.7070  171.7230  142.8320 N   0  0  0  0  0  0  0  0  0  0  0  0
  186.9350  176.4120  146.4350 C   0  0  0  0  0  3  0  0  0  0  0  0
  186.7170  178.1810  144.2910 C   0  0  0  0  0  3  0  0  0  0  0  0
  185.5780  177.8660  145.0480 C   0  0  0  0  0  0  0  0  0  0  0  0
  185.6960  176.9750  146.1210 C   0  0  0  0  0  0  0  0  0  0  0  0
  187.9610  177.6290  144.6090 C   0  0  0  0  0  0  0  0  0  0  0  0
  188.0820  176.7360  145.6930 C   0  0  0  0  0  0  0  0  0  0  0  0
  189.0320  177.9460  143.8380 F   0  0  0  0  0  0  0  0  0  0  0  0
  184.6070  176.6470  146.8590 F   0  0  0  0  0  0  0  0  0  0  0  0
  183.9680  178.8350  143.4400 C   0  0  0  0  0  1  0  0  0  0  0  0
  184.3260  178.4100  144.7470 O   0  0  0  0  0  0  0  0  0  0  0  0
  194.6870  174.5840  145.8190 C   0  0  0  0  0  2  0  0  0  0  0  0
  195.4370  175.1720  144.7170 N   0  0  0  0  0  0  0  0  0  0  0  0
  196.3190  174.4490  143.9120 N   0  0  0  0  0  0  0  0  0  0  0  0
  196.7040  175.2780  143.0110 C   0  0  0  0  0  0  0  0  0  0  0  0
  195.2670  176.5010  144.2970 N   0  0  0  0  0  0  0  0  0  0  0  0
  196.1230  176.5630  143.1830 N   0  0  0  0  0  0  0  0  0  0  0  0
  197.9410  173.4710  140.0790 C   0  0  0  0  0  2  0  0  0  0  0  0
  197.5880  173.4780  141.5520 C   0  0  0  0  0  2  0  0  0  0  0  0
  197.4160  175.6760  140.6770 C   0  0  0  0  0  2  0  0  0  0  0  0
  197.8680  174.8400  139.5710 N   0  0  0  0  0  2  0  0  0  0  0  0
  197.6940  174.9230  141.9510 C   0  0  1  0  0  3  0  0  0  0  0  0
  1  7  1  0  0  0  0
  2  1  2  0  0  0  0
  3 26  1  6  0  0  0
  3  2  1  0  0  0  0
  4  9  1  0  0  0  0
  5  8  2  0  0  0  0
  6 13  1  6  0  0  0
  6 14  1  0  0  0  0
  8  7  1  0  0  0  0
  9 10  2  0  0  0  0
  9  6  1  0  0  0  0
 10  3  1  0  0  0  0
 11  5  1  0  0  0  0
 12  4  2  0  0  0  0
 12 15  1  0  0  0  0
 14 11  2  0  0  0  0
 14  2  1  0  0  0  0
 15 13  2  0  0  0  0
 17 20  2  0  0  0  0
 17 18  1  0  0  0  0
 18 19  2  0  0  0  0
 19 16  1  0  0  0  0
 19 23  1  0  0  0  0
 20 21  1  0  0  0  0
 21  5  1  0  0  0  0
 21 16  2  0  0  0  0
 22 20  1  0  0  0  0
 24 25  1  0  0  0  0
 25 18  1  0  0  0  0
 27 26  1  0  0  0  0
 28 27  1  0  0  0  0
 29 31  1  0  0  0  0
 29 28  2  0  0  0  0
 30 27  1  0  0  0  0
 31 30  2  0  0  0  0
 32 33  1  0  0  0  0
 33 36  1  0  0  0  0
 34 36  1  0  0  0  0
 35 32  1  0  0  0  0
 35 34  1  0  0  0  0
 36 29  1  1  0  0  0
M  END
>  <MODEL>
5

>  <REMARK>
 VINA RESULT:      -8.8      0.890      1.164
  Name = 
  5 active torsions:
  status: ('A' for Active; 'I' for Inactive)
    1  A    between atoms: C_5  and  C_16
    2  A    between atoms: C_7  and  C_26
    3  A    between atoms: N_12  and  C_16
    4  A    between atoms: C_13  and  O_30
    5  A    between atoms: C_20  and  C_23
                            x       y       z     vdW  Elec       q    Type
                         _______ _______ _______ _____ _____    ______ ____

>  <TORSDO>
F 5

$$$$
=
 OpenBabel11062422263D

 36 41  0  0  1  0  0  0  0  0999 V2000
  192.2320  175.4010  146.8910 C   0  0  0  0  0  3  0  0  0  0  0  0
  192.1110  174.5980  145.6590 C   0  0  0  0  0  0  0  0  0  0  0  0
  193.2510  174.1340  145.0890 C   0  0  1  0  0  3  0  0  0  0  0  0
  192.0560  171.8080  142.3370 C   0  0  0  0  0  3  0  0  0  0  0  0
  189.3040  176.0530  145.9460 C   0  0  0  0  0  0  0  0  0  0  0  0
  190.8050  172.8470  144.3200 C   0  0  2  0  0  3  0  0  0  0  0  0
  191.3580  176.2500  147.4130 C   0  0  0  0  0  2  0  0  0  0  0  0
  190.0510  176.6400  146.8830 C   0  0  0  0  0  3  0  0  0  0  0  0
  192.0670  172.6800  143.5130 C   0  0  0  0  0  0  0  0  0  0  0  0
  193.2060  173.2370  143.9180 C   0  0  0  0  0  3  0  0  0  0  0  0
  189.6390  174.7890  145.2630 C   0  0  0  0  0  3  0  0  0  0  0  0
  190.8840  171.4490  141.8050 C   0  0  0  0  0  3  0  0  0  0  0  0
  189.5780  172.6010  143.4670 C   0  0  0  0  0  3  0  0  0  0  0  0
  190.8030  174.1470  145.1060 C   0  0  0  0  0  0  0  0  0  0  0  0
  189.6450  171.9310  142.3540 N   0  0  0  0  0  0  0  0  0  0  0  0
  186.8830  176.4130  146.4230 C   0  0  0  0  0  3  0  0  0  0  0  0
  186.6130  178.1320  144.2440 C   0  0  0  0  0  3  0  0  0  0  0  0
  185.5040  177.8700  145.0620 C   0  0  0  0  0  0  0  0  0  0  0  0
  185.6460  177.0050  146.1520 C   0  0  0  0  0  0  0  0  0  0  0  0
  187.8540  177.5510  144.5190 C   0  0  0  0  0  0  0  0  0  0  0  0
  188.0010  176.6830  145.6200 C   0  0  0  0  0  0  0  0  0  0  0  0
  188.8960  177.8160  143.6890 F   0  0  0  0  0  0  0  0  0  0  0  0
  184.5850  176.7280  146.9490 F   0  0  0  0  0  0  0  0  0  0  0  0
  183.8260  178.7950  143.4970 C   0  0  0  0  0  1  0  0  0  0  0  0
  184.2540  178.4440  144.8050 O   0  0  0  0  0  0  0  0  0  0  0  0
  194.6070  174.5310  145.5980 C   0  0  0  0  0  2  0  0  0  0  0  0
  195.4710  173.3630  145.7050 N   0  0  0  0  0  0  0  0  0  0  0  0
  194.9920  172.0620  145.8650 N   0  0  0  0  0  0  0  0  0  0  0  0
  196.0350  171.3150  145.8240 C   0  0  0  0  0  0  0  0  0  0  0  0
  196.8660  173.4250  145.5570 N   0  0  0  0  0  0  0  0  0  0  0  0
  197.2270  172.0690  145.6570 N   0  0  0  0  0  0  0  0  0  0  0  0
  195.9580  168.1770  147.7060 C   0  0  0  0  0  2  0  0  0  0  0  0
  196.7310  169.3830  147.2140 C   0  0  0  0  0  2  0  0  0  0  0  0
  194.5680  169.3680  146.2410 C   0  0  0  0  0  2  0  0  0  0  0  0
  194.6440  168.1660  147.0630 N   0  0  0  0  0  2  0  0  0  0  0  0
  195.9790  169.8320  145.9930 C   0  0  1  0  0  3  0  0  0  0  0  0
  1  7  1  0  0  0  0
  2  1  2  0  0  0  0
  3 26  1  6  0  0  0
  3  2  1  0  0  0  0
  4  9  1  0  0  0  0
  5  8  2  0  0  0  0
  6 13  1  6  0  0  0
  6 14  1  0  0  0  0
  8  7  1  0  0  0  0
  9 10  2  0  0  0  0
  9  6  1  0  0  0  0
 10  3  1  0  0  0  0
 11  5  1  0  0  0  0
 12  4  2  0  0  0  0
 12 15  1  0  0  0  0
 14 11  2  0  0  0  0
 14  2  1  0  0  0  0
 15 13  2  0  0  0  0
 17 20  2  0  0  0  0
 17 18  1  0  0  0  0
 18 19  2  0  0  0  0
 19 16  1  0  0  0  0
 19 23  1  0  0  0  0
 20 21  1  0  0  0  0
 21  5  1  0  0  0  0
 21 16  2  0  0  0  0
 22 20  1  0  0  0  0
 24 25  1  0  0  0  0
 25 18  1  0  0  0  0
 26 27  1  0  0  0  0
 27 28  1  0  0  0  0
 29 28  2  0  0  0  0
 30 31  2  0  0  0  0
 30 27  1  0  0  0  0
 31 29  1  0  0  0  0
 33 32  1  0  0  0  0
 34 35  1  0  0  0  0
 35 32  1  0  0  0  0
 36 29  1  1  0  0  0
 36 34  1  0  0  0  0
 36 33  1  0  0  0  0
M  END
>  <MODEL>
6

>  <REMARK>
 VINA RESULT:      -8.4      2.414      3.549
  Name = 
  5 active torsions:
  status: ('A' for Active; 'I' for Inactive)
    1  A    between atoms: C_5  and  C_16
    2  A    between atoms: C_7  and  C_26
    3  A    between atoms: N_12  and  C_16
    4  A    between atoms: C_13  and  O_30
    5  A    between atoms: C_20  and  C_23
                            x       y       z     vdW  Elec       q    Type
                         _______ _______ _______ _____ _____    ______ ____

>  <TORSDO>
F 5

$$$$
=
 OpenBabel11062422263D

 36 41  0  0  1  0  0  0  0  0999 V2000
  192.3370  175.3300  146.8980 C   0  0  0  0  0  3  0  0  0  0  0  0
  192.4760  175.1030  145.4480 C   0  0  0  0  0  0  0  0  0  0  0  0
  193.7280  174.9840  144.9410 C   0  0  1  0  0  3  0  0  0  0  0  0
  193.1930  173.9370  141.3310 C   0  0  0  0  0  3  0  0  0  0  0  0
  189.4980  176.1400  145.8150 C   0  0  0  0  0  0  0  0  0  0  0  0
  191.5780  173.9880  143.3220 C   0  0  2  0  0  3  0  0  0  0  0  0
  191.3050  175.8350  147.5610 C   0  0  0  0  0  2  0  0  0  0  0  0
  190.0390  176.3310  147.0200 C   0  0  0  0  0  3  0  0  0  0  0  0
  192.9450  174.2440  142.7410 C   0  0  0  0  0  0  0  0  0  0  0  0
  193.9450  174.6500  143.5190 C   0  0  0  0  0  3  0  0  0  0  0  0
  190.0700  175.2930  144.7520 C   0  0  0  0  0  3  0  0  0  0  0  0
  192.1530  173.7610  140.5110 C   0  0  0  0  0  3  0  0  0  0  0  0
  190.5120  174.0440  142.2490 C   0  0  0  0  0  3  0  0  0  0  0  0
  191.3150  174.8440  144.5490 C   0  0  0  0  0  0  0  0  0  0  0  0
  190.8040  173.8990  140.9900 N   0  0  0  0  0  0  0  0  0  0  0  0
  187.0760  176.4160  146.3440 C   0  0  0  0  0  3  0  0  0  0  0  0
  186.7510  178.2990  144.3130 C   0  0  0  0  0  3  0  0  0  0  0  0
  185.6560  177.9520  145.1180 C   0  0  0  0  0  0  0  0  0  0  0  0
  185.8260  177.0040  146.1340 C   0  0  0  0  0  0  0  0  0  0  0  0
  188.0060  177.7210  144.5280 C   0  0  0  0  0  0  0  0  0  0  0  0
  188.1810  176.7710  145.5540 C   0  0  0  0  0  0  0  0  0  0  0  0
  189.0330  178.0710  143.7120 F   0  0  0  0  0  0  0  0  0  0  0  0
  184.7790  176.6450  146.9160 F   0  0  0  0  0  0  0  0  0  0  0  0
  183.9740  179.0390  143.6670 C   0  0  0  0  0  1  0  0  0  0  0  0
  184.3940  178.5220  144.9200 O   0  0  0  0  0  0  0  0  0  0  0  0
  194.9480  175.2150  145.7850 C   0  0  0  0  0  2  0  0  0  0  0  0
  195.9750  174.2300  145.4740 N   0  0  0  0  0  0  0  0  0  0  0  0
  195.8530  172.8700  145.7630 N   0  0  0  0  0  0  0  0  0  0  0  0
  196.9000  172.3260  145.2600 C   0  0  0  0  0  0  0  0  0  0  0  0
  197.1450  174.5410  144.7610 N   0  0  0  0  0  0  0  0  0  0  0  0
  197.7550  173.2790  144.6440 N   0  0  0  0  0  0  0  0  0  0  0  0
  196.1480  168.8290  146.0340 C   0  0  0  0  0  2  0  0  0  0  0  0
  196.4410  170.2350  146.5130 C   0  0  0  0  0  2  0  0  0  0  0  0
  196.7050  170.1200  144.1580 C   0  0  0  0  0  2  0  0  0  0  0  0
  196.3550  168.7710  144.5880 N   0  0  0  0  0  2  0  0  0  0  0  0
  197.1910  170.8660  145.3740 C   0  0  1  0  0  3  0  0  0  0  0  0
  1  7  1  0  0  0  0
  2  1  2  0  0  0  0
  3  2  1  0  0  0  0
  3 26  1  6  0  0  0
  4  9  1  0  0  0  0
  5  8  2  0  0  0  0
  6 13  1  6  0  0  0
  6 14  1  0  0  0  0
  8  7  1  0  0  0  0
  9  6  1  0  0  0  0
  9 10  2  0  0  0  0
 10  3  1  0  0  0  0
 11  5  1  0  0  0  0
 12 15  1  0  0  0  0
 12  4  2  0  0  0  0
 14 11  2  0  0  0  0
 14  2  1  0  0  0  0
 15 13  2  0  0  0  0
 17 20  2  0  0  0  0
 17 18  1  0  0  0  0
 18 19  2  0  0  0  0
 19 16  1  0  0  0  0
 19 23  1  0  0  0  0
 20 21  1  0  0  0  0
 21  5  1  0  0  0  0
 21 16  2  0  0  0  0
 22 20  1  0  0  0  0
 24 25  1  0  0  0  0
 25 18  1  0  0  0  0
 27 28  1  0  0  0  0
 27 26  1  0  0  0  0
 29 28  2  0  0  0  0
 30 27  1  0  0  0  0
 31 30  2  0  0  0  0
 31 29  1  0  0  0  0
 32 33  1  0  0  0  0
 34 35  1  0  0  0  0
 34 36  1  0  0  0  0
 35 32  1  0  0  0  0
 36 29  1  6  0  0  0
 36 33  1  0  0  0  0
M  END
>  <MODEL>
7

>  <REMARK>
 VINA RESULT:      -8.4      2.390      3.116
  Name = 
  5 active torsions:
  status: ('A' for Active; 'I' for Inactive)
    1  A    between atoms: C_5  and  C_16
    2  A    between atoms: C_7  and  C_26
    3  A    between atoms: N_12  and  C_16
    4  A    between atoms: C_13  and  O_30
    5  A    between atoms: C_20  and  C_23
                            x       y       z     vdW  Elec       q    Type
                         _______ _______ _______ _____ _____    ______ ____

>  <TORSDO>
F 5

$$$$
=
 OpenBabel11062422263D

 36 41  0  0  1  0  0  0  0  0999 V2000
  193.2980  176.5940  144.9850 C   0  0  0  0  0  3  0  0  0  0  0  0
  192.4330  175.8390  144.0590 C   0  0  0  0  0  0  0  0  0  0  0  0
  191.2300  176.3740  143.7350 C   0  0  1  0  0  3  0  0  0  0  0  0
  189.8960  174.1140  140.9920 C   0  0  0  0  0  3  0  0  0  0  0  0
  194.5810  173.7230  145.0560 C   0  0  0  0  0  0  0  0  0  0  0  0
  192.2450  174.3290  141.9980 C   0  0  2  0  0  3  0  0  0  0  0  0
  194.3040  176.1490  145.7270 C   0  0  0  0  0  2  0  0  0  0  0  0
  194.8000  174.7770  145.8450 C   0  0  0  0  0  3  0  0  0  0  0  0
  190.7960  174.7400  141.9630 C   0  0  0  0  0  0  0  0  0  0  0  0
  190.3560  175.7310  142.7350 C   0  0  0  0  0  3  0  0  0  0  0  0
  193.8010  173.7480  143.8040 C   0  0  0  0  0  3  0  0  0  0  0  0
  190.2710  172.9790  140.3970 C   0  0  0  0  0  3  0  0  0  0  0  0
  192.4230  172.9200  141.4740 C   0  0  0  0  0  3  0  0  0  0  0  0
  192.8810  174.6070  143.3490 C   0  0  0  0  0  0  0  0  0  0  0  0
  191.5260  172.3540  140.7200 N   0  0  0  0  0  0  0  0  0  0  0  0
  194.4420  171.3390  145.7740 C   0  0  0  0  0  3  0  0  0  0  0  0
  197.2190  171.0890  145.8050 C   0  0  0  0  0  3  0  0  0  0  0  0
  196.4200  169.9830  146.1300 C   0  0  0  0  0  0  0  0  0  0  0  0
  195.0270  170.1160  146.1140 C   0  0  0  0  0  0  0  0  0  0  0  0
  196.6370  172.3110  145.4530 C   0  0  0  0  0  0  0  0  0  0  0  0
  195.2340  172.4450  145.4310 C   0  0  0  0  0  0  0  0  0  0  0  0
  197.4480  173.3610  145.1660 F   0  0  0  0  0  0  0  0  0  0  0  0
  194.2360  169.0640  146.4360 F   0  0  0  0  0  0  0  0  0  0  0  0
  197.2220  168.3760  147.8310 C   0  0  0  0  0  1  0  0  0  0  0  0
  196.9840  168.7530  146.4830 O   0  0  0  0  0  0  0  0  0  0  0  0
  190.7160  177.6210  144.3960 C   0  0  0  0  0  2  0  0  0  0  0  0
  189.4380  177.3620  145.0430 N   0  0  0  0  0  0  0  0  0  0  0  0
  188.2070  177.7250  144.4930 N   0  0  0  0  0  0  0  0  0  0  0  0
  187.3280  177.2510  145.2990 C   0  0  0  0  0  0  0  0  0  0  0  0
  189.3160  176.6330  146.2370 N   0  0  0  0  0  0  0  0  0  0  0  0
  187.9210  176.5840  146.4050 N   0  0  0  0  0  0  0  0  0  0  0  0
  184.0260  178.6480  146.0330 C   0  0  0  0  0  2  0  0  0  0  0  0
  185.1570  177.7130  146.4060 C   0  0  0  0  0  2  0  0  0  0  0  0
  185.5800  178.6710  144.2770 C   0  0  0  0  0  2  0  0  0  0  0  0
  184.2870  179.1950  144.7020 N   0  0  0  0  0  2  0  0  0  0  0  0
  185.8600  177.4440  145.1050 C   0  0  1  0  0  3  0  0  0  0  0  0
  1  7  1  0  0  0  0
  2  1  2  0  0  0  0
  3  2  1  0  0  0  0
  3 26  1  1  0  0  0
  4  9  1  0  0  0  0
  5 21  1  0  0  0  0
  5  8  2  0  0  0  0
  6 13  1  1  0  0  0
  6 14  1  0  0  0  0
  7  8  1  0  0  0  0
  9  6  1  0  0  0  0
  9 10  2  0  0  0  0
 10  3  1  0  0  0  0
 11  5  1  0  0  0  0
 12 15  1  0  0  0  0
 12  4  2  0  0  0  0
 14 11  2  0  0  0  0
 14  2  1  0  0  0  0
 15 13  2  0  0  0  0
 16 19  1  0  0  0  0
 17 18  1  0  0  0  0
 18 25  1  0  0  0  0
 19 18  2  0  0  0  0
 19 23  1  0  0  0  0
 20 17  2  0  0  0  0
 21 20  1  0  0  0  0
 21 16  2  0  0  0  0
 22 20  1  0  0  0  0
 25 24  1  0  0  0  0
 26 27  1  0  0  0  0
 27 30  1  0  0  0  0
 28 27  1  0  0  0  0
 28 29  2  0  0  0  0
 29 31  1  0  0  0  0
 30 31  2  0  0  0  0
 32 33  1  0  0  0  0
 34 35  1  0  0  0  0
 34 36  1  0  0  0  0
 35 32  1  0  0  0  0
 36 29  1  1  0  0  0
 36 33  1  0  0  0  0
M  END
>  <MODEL>
8

>  <REMARK>
 VINA RESULT:      -8.2      5.191      9.333
  Name = 
  5 active torsions:
  status: ('A' for Active; 'I' for Inactive)
    1  A    between atoms: C_5  and  C_16
    2  A    between atoms: C_7  and  C_26
    3  A    between atoms: N_12  and  C_16
    4  A    between atoms: C_13  and  O_30
    5  A    between atoms: C_20  and  C_23
                            x       y       z     vdW  Elec       q    Type
                         _______ _______ _______ _____ _____    ______ ____

>  <TORSDO>
F 5

$$$$
=
 OpenBabel11062422263D

 36 41  0  0  1  0  0  0  0  0999 V2000
  189.8960  173.0180  145.2590 C   0  0  0  0  0  3  0  0  0  0  0  0
  190.9930  173.9990  145.1600 C   0  0  0  0  0  0  0  0  0  0  0  0
  191.1330  174.8980  146.1670 C   0  0  0  0  0  0  0  0  0  0  0  0
  194.4010  176.6720  145.4030 C   0  0  0  0  0  3  0  0  0  0  0  0
  190.6800  172.8480  142.2180 C   0  0  0  0  0  0  0  0  0  0  0  0
  193.4030  174.5090  144.4550 C   0  0  2  0  0  3  0  0  0  0  0  0
  189.3280  172.3120  144.2900 C   0  0  0  0  0  3  0  0  0  0  0  0
  189.6200  172.3480  142.8570 C   0  0  0  0  0  3  0  0  0  0  0  0
  193.3000  175.7080  145.3620 C   0  0  0  0  0  0  0  0  0  0  0  0
  192.2680  175.8410  146.1920 C   0  0  0  0  0  3  0  0  0  0  0  0
  191.8620  173.4430  142.8710 C   0  0  0  0  0  3  0  0  0  0  0  0
  195.3060  176.6670  144.4210 C   0  0  0  0  0  3  0  0  0  0  0  0
  194.3170  174.7910  143.2820 C   0  0  0  0  0  3  0  0  0  0  0  0
  192.0360  173.9510  144.0970 C   0  0  0  0  0  0  0  0  0  0  0  0
  195.1930  175.7520  143.3170 N   0  0  0  0  0  0  0  0  0  0  0  0
  191.5250  171.7650  140.1360 C   0  0  0  0  0  3  0  0  0  0  0  0
  189.9570  173.4180  138.5280 C   0  0  0  0  0  3  0  0  0  0  0  0
  190.7690  172.4410  137.9340 C   0  0  0  0  0  0  0  0  0  0  0  0
  191.5540  171.6170  138.7470 C   0  0  0  0  0  0  0  0  0  0  0  0
  189.9160  173.5620  139.9180 C   0  0  0  0  0  0  0  0  0  0  0  0
  190.7020  172.7290  140.7390 C   0  0  0  0  0  0  0  0  0  0  0  0
  189.1310  174.5350  140.4500 F   0  0  0  0  0  0  0  0  0  0  0  0
  192.3550  170.6730  138.1930 F   0  0  0  0  0  0  0  0  0  0  0  0
  190.3140  173.2510  135.6410 C   0  0  0  0  0  1  0  0  0  0  0  0
  190.8210  172.2800  136.5460 O   0  0  0  0  0  0  0  0  0  0  0  0
  190.1320  174.9990  147.2820 C   0  0  0  0  0  2  0  0  0  0  0  0
  189.1330  176.0140  146.9770 N   0  0  0  0  0  0  0  0  0  0  0  0
  187.8160  175.7180  146.6220 N   0  0  0  0  0  0  0  0  0  0  0  0
  187.2320  176.8560  146.5270 C   0  0  0  0  0  0  0  0  0  0  0  0
  189.3740  177.3910  147.1090 N   0  0  0  0  0  0  0  0  0  0  0  0
  188.1180  177.9360  146.7900 N   0  0  0  0  0  0  0  0  0  0  0  0
  184.0870  178.6540  146.0090 C   0  0  0  0  0  2  0  0  0  0  0  0
  185.0950  178.0390  146.9570 C   0  0  0  0  0  2  0  0  0  0  0  0
  185.6840  177.5240  144.7180 C   0  0  0  0  0  2  0  0  0  0  0  0
  184.4460  178.2900  144.6390 N   0  0  0  0  0  2  0  0  0  0  0  0
  185.8010  177.0050  146.1270 C   0  0  1  0  0  3  0  0  0  0  0  0
  2  1  1  0  0  0  0
  2  3  2  0  0  0  0
  3 10  1  0  0  0  0
  3 26  1  0  0  0  0
  5  8  2  0  0  0  0
  5 11  1  0  0  0  0
  6 13  1  6  0  0  0
  6  9  1  0  0  0  0
  7  1  2  0  0  0  0
  8  7  1  0  0  0  0
  9  4  1  0  0  0  0
  9 10  2  0  0  0  0
 11 14  2  0  0  0  0
 12  4  2  0  0  0  0
 13 15  2  0  0  0  0
 14  6  1  0  0  0  0
 14  2  1  0  0  0  0
 15 12  1  0  0  0  0
 16 21  1  0  0  0  0
 17 20  1  0  0  0  0
 18 17  2  0  0  0  0
 18 19  1  0  0  0  0
 19 16  2  0  0  0  0
 20 22  1  0  0  0  0
 20 21  2  0  0  0  0
 21  5  1  0  0  0  0
 23 19  1  0  0  0  0
 24 25  1  0  0  0  0
 25 18  1  0  0  0  0
 27 30  1  0  0  0  0
 27 26  1  0  0  0  0
 28 27  1  0  0  0  0
 29 28  2  0  0  0  0
 29 31  1  0  0  0  0
 31 30  2  0  0  0  0
 32 33  1  0  0  0  0
 34 36  1  0  0  0  0
 35 34  1  0  0  0  0
 35 32  1  0  0  0  0
 36 29  1  1  0  0  0
 36 33  1  0  0  0  0
M  END
>  <MODEL>
9

>  <REMARK>
 VINA RESULT:      -7.9      4.303      8.370
  Name = 
  5 active torsions:
  status: ('A' for Active; 'I' for Inactive)
    1  A    between atoms: C_5  and  C_16
    2  A    between atoms: C_7  and  C_26
    3  A    between atoms: N_12  and  C_16
    4  A    between atoms: C_13  and  O_30
    5  A    between atoms: C_20  and  C_23
                            x       y       z     vdW  Elec       q    Type
                         _______ _______ _______ _____ _____    ______ ____

>  <TORSDO>
F 5

$$$$
