=
 OpenBabel11062422153D

 44 49  0  0  1  0  0  0  0  0999 V2000
  194.2050  175.2760  139.4770 C   0  0  0  0  0  2  0  0  0  0  0  0
  192.0250  174.6230  146.9480 O   0  0  0  0  0  1  0  0  0  0  0  0
  190.5660  174.7030  141.5450 C   0  0  0  0  0  2  0  0  0  0  0  0
  189.0950  177.6410  144.7160 C   0  0  0  0  0  3  0  0  0  0  0  0
  193.3700  177.1070  144.6460 C   0  0  0  0  0  2  0  0  0  0  0  0
  196.0280  173.8940  140.7820 O   0  0  0  0  0  0  0  0  0  0  0  0
  190.8160  176.2070  145.6670 C   0  0  0  0  0  0  0  0  0  0  0  0
  195.2470  174.3740  138.7980 C   0  0  0  0  0  2  0  0  0  0  0  0
  194.4440  175.5540  146.1710 O   0  0  0  0  0  0  0  0  0  0  0  0
  188.0890  174.6340  141.8490 C   0  0  0  0  0  2  0  0  0  0  0  0
  189.4380  174.5080  142.5540 C   0  0  2  0  0  3  0  0  0  0  0  0
  195.6470  173.3250  139.6490 O   0  0  0  0  0  0  0  0  0  0  0  0
  194.8670  174.0170  141.5820 C   0  0  2  0  0  3  0  0  0  0  0  0
  194.0330  174.8100  143.8010 C   0  0  2  0  0  3  0  0  0  0  0  0
  191.9830  175.9810  146.6180 C   0  0  2  0  0  0  0  0  0  0  0  0
  193.7130  174.6890  140.8060 C   0  0  2  0  0  3  0  0  0  0  0  0
  191.6190  173.6180  141.7030 C   0  0  0  0  0  2  0  0  0  0  0  0
  190.0930  177.4120  145.6650 C   0  0  0  0  0  3  0  0  0  0  0  0
  187.7020  176.9500  142.7560 C   0  0  1  0  0  3  0  0  0  0  0  0
  190.5410  175.2550  144.6720 C   0  0  0  0  0  3  0  0  0  0  0  0
  194.3060  174.4470  145.2980 C   0  0  1  0  0  3  0  0  0  0  0  0
  188.8260  176.6900  143.7270 C   0  0  0  0  0  0  0  0  0  0  0  0
  192.6030  173.6820  140.5440 C   0  0  0  0  0  2  0  0  0  0  0  0
  193.3540  176.4460  146.0220 C   0  0  2  0  0  3  0  0  0  0  0  0
  191.7700  176.7450  147.9200 C   0  0  0  0  0  1  0  0  0  0  0  0
  187.7970  176.0910  141.4960 C   0  0  0  0  0  2  0  0  0  0  0  0
  195.2170  174.8040  142.8420 C   0  0  0  0  0  2  0  0  0  0  0  0
  193.1700  176.0470  143.5760 C   0  0  0  0  0  2  0  0  0  0  0  0
  189.5660  175.4850  143.6940 C   0  0  0  0  0  0  0  0  0  0  0  0
  186.2680  176.3110  144.5670 O   0  0  0  0  0  1  0  0  0  0  0  0
  186.3640  176.7970  143.4080 C   0  0  0  0  0  0  0  0  0  0  0  0
  185.2210  177.1870  142.7170 O   0  0  0  0  0  0  0  0  0  0  0  0
  195.3220  172.1540  145.2980 C   0  0  0  0  0  3  0  0  0  0  0  0
  195.4530  173.4780  145.5160 C   0  0  0  0  0  0  0  0  0  0  0  0
  194.1400  171.2690  143.3400 C   0  0  0  0  0  2  0  0  0  0  0  0
  194.0650  171.4830  144.8340 C   0  0  1  0  0  3  0  0  0  0  0  0
  193.7450  169.9530  143.0380 O   0  0  0  0  0  0  0  0  0  0  0  0
  194.0180  170.0960  145.3930 C   0  0  0  0  0  2  0  0  0  0  0  0
  193.9800  169.1830  144.1890 C   0  0  1  0  0  3  0  0  0  0  0  0
  192.3300  168.1670  143.0850 C   0  0  0  0  0  1  0  0  0  0  0  0
  192.9470  168.2500  144.3370 O   0  0  0  0  0  0  0  0  0  0  0  0
  196.7140  173.9520  146.1820 C   0  0  0  0  0  2  0  0  0  0  0  0
  197.8240  174.1330  145.1530 C   0  0  0  0  0  2  0  0  0  0  0  0
  197.9400  172.9920  144.3610 O   0  0  0  0  0  1  0  0  0  0  0  0
  3 17  1  0  0  0  0
  4 18  1  0  0  0  0
  6 13  1  0  0  0  0
  7 15  1  0  0  0  0
  8  1  1  0  0  0  0
  8 12  1  0  0  0  0
 10 11  1  0  0  0  0
 11  3  1  6  0  0  0
 11 29  1  0  0  0  0
 12  6  1  0  0  0  0
 13 27  1  1  0  0  0
 14 27  1  6  0  0  0
 14 21  1  0  0  0  0
 15  2  1  0  0  0  0
 15 25  1  1  0  0  0
 16  1  1  6  0  0  0
 16 13  1  0  0  0  0
 18  7  2  0  0  0  0
 19 31  1  1  0  0  0
 19 22  1  0  0  0  0
 20  7  1  0  0  0  0
 21 34  1  6  0  0  0
 21  9  1  0  0  0  0
 22  4  2  0  0  0  0
 23 16  1  0  0  0  0
 23 17  1  0  0  0  0
 24  5  1  6  0  0  0
 24  9  1  0  0  0  0
 24 15  1  0  0  0  0
 26 10  1  0  0  0  0
 26 19  1  0  0  0  0
 28 14  1  0  0  0  0
 28  5  1  0  0  0  0
 29 22  1  0  0  0  0
 29 20  2  0  0  0  0
 31 30  1  0  0  0  0
 32 31  2  0  0  0  0
 33 34  2  0  0  0  0
 34 42  1  0  0  0  0
 35 36  1  0  0  0  0
 36 33  1  1  0  0  0
 36 38  1  0  0  0  0
 37 35  1  0  0  0  0
 37 39  1  0  0  0  0
 39 41  1  1  0  0  0
 39 38  1  0  0  0  0
 40 41  1  0  0  0  0
 43 42  1  0  0  0  0
 44 43  1  0  0  0  0
M  END
>  <MODEL>
1

>  <REMARK>
 VINA RESULT:      -7.6      0.000      0.000
  Name = 
  6 active torsions:
  status: ('A' for Active; 'I' for Inactive)
    1  A    between atoms: C_6  and  C_30
    2  A    between atoms: C_17  and  C_24
    3  A    between atoms: O_18  and  C_41
    4  A    between atoms: C_25  and  C_27
    5  A    between atoms: C_28  and  C_30
    6  A    between atoms: C_28  and  C_32
                            x       y       z     vdW  Elec       q    Type
                         _______ _______ _______ _____ _____    ______ ____

>  <TORSDO>
F 6

$$$$
=
 OpenBabel11062422153D

 44 49  0  0  1  0  0  0  0  0999 V2000
  190.1210  171.3320  139.9510 C   0  0  0  0  0  2  0  0  0  0  0  0
  190.6240  177.4470  144.7830 O   0  0  0  0  0  1  0  0  0  0  0  0
  193.2410  173.6180  141.6500 C   0  0  0  0  0  2  0  0  0  0  0  0
  193.7110  174.0950  146.1660 C   0  0  0  0  0  3  0  0  0  0  0  0
  189.6210  173.9430  144.8190 C   0  0  0  0  0  2  0  0  0  0  0  0
  188.1770  173.0200  139.3980 O   0  0  0  0  0  0  0  0  0  0  0  0
  191.9490  175.5720  145.3680 C   0  0  0  0  0  0  0  0  0  0  0  0
  189.3370  171.3360  138.6300 C   0  0  0  0  0  2  0  0  0  0  0  0
  188.3690  175.9890  144.4450 O   0  0  0  0  0  0  0  0  0  0  0  0
  195.5840  174.1540  142.3250 C   0  0  0  0  0  2  0  0  0  0  0  0
  194.1270  174.6070  142.4020 C   0  0  2  0  0  3  0  0  0  0  0  0
  188.8480  172.6230  138.3300 O   0  0  0  0  0  0  0  0  0  0  0  0
  189.1150  173.6440  140.2550 C   0  0  2  0  0  3  0  0  0  0  0  0
  189.3610  174.8130  142.4510 C   0  0  2  0  0  3  0  0  0  0  0  0
  190.6220  176.2910  145.5710 C   0  0  2  0  0  0  0  0  0  0  0  0
  190.3510  172.7500  140.4890 C   0  0  2  0  0  3  0  0  0  0  0  0
  192.2760  174.3550  140.7350 C   0  0  0  0  0  2  0  0  0  0  0  0
  192.5490  174.8330  146.4020 C   0  0  0  0  0  3  0  0  0  0  0  0
  195.5600  173.2870  144.6880 C   0  0  1  0  0  3  0  0  0  0  0  0
  192.5200  175.5230  144.0860 C   0  0  0  0  0  3  0  0  0  0  0  0
  188.7930  176.1180  143.0990 C   0  0  1  0  0  3  0  0  0  0  0  0
  194.2730  174.0480  144.8870 C   0  0  0  0  0  0  0  0  0  0  0  0
  191.5740  173.3610  139.8200 C   0  0  0  0  0  2  0  0  0  0  0  0
  189.3850  175.3940  145.2320 C   0  0  2  0  0  3  0  0  0  0  0  0
  190.4730  176.7450  147.0190 C   0  0  0  0  0  1  0  0  0  0  0  0
  195.8220  172.9430  143.2230 C   0  0  0  0  0  2  0  0  0  0  0  0
  188.4270  173.9900  141.5720 C   0  0  0  0  0  2  0  0  0  0  0  0
  190.1440  173.9050  143.3940 C   0  0  0  0  0  2  0  0  0  0  0  0
  193.6660  174.7610  143.8280 C   0  0  0  0  0  0  0  0  0  0  0  0
  197.3210  174.9120  144.6350 O   0  0  0  0  0  0  0  0  0  0  0  0
  196.7260  174.0100  145.2840 C   0  0  0  0  0  0  0  0  0  0  0  0
  197.1590  173.6690  146.5620 O   0  0  0  0  0  1  0  0  0  0  0  0
  186.7600  177.5680  142.8640 C   0  0  0  0  0  3  0  0  0  0  0  0
  187.7130  176.8090  142.2870 C   0  0  0  0  0  0  0  0  0  0  0  0
  186.2700  179.2630  144.5660 C   0  0  0  0  0  2  0  0  0  0  0  0
  186.6380  177.8160  144.3360 C   0  0  1  0  0  3  0  0  0  0  0  0
  185.2190  179.3350  145.5000 O   0  0  0  0  0  0  0  0  0  0  0  0
  185.4590  177.0590  144.8620 C   0  0  0  0  0  2  0  0  0  0  0  0
  184.5360  178.1090  145.4370 C   0  0  1  0  0  3  0  0  0  0  0  0
  184.9870  178.4300  147.5970 C   0  0  0  0  0  1  0  0  0  0  0  0
  184.1410  177.7360  146.7260 O   0  0  0  0  0  0  0  0  0  0  0  0
  187.5610  176.4930  140.8250 C   0  0  0  0  0  2  0  0  0  0  0  0
  186.7320  177.5670  140.1320 C   0  0  0  0  0  2  0  0  0  0  0  0
  186.4360  177.1810  138.8250 O   0  0  0  0  0  1  0  0  0  0  0  0
  1 16  1  0  0  0  0
  2 15  1  0  0  0  0
  4 18  1  0  0  0  0
  6 13  1  0  0  0  0
  7 15  1  0  0  0  0
  7 18  2  0  0  0  0
  8  1  1  0  0  0  0
  9 24  1  0  0  0  0
 10 11  1  0  0  0  0
 10 26  1  0  0  0  0
 11  3  1  1  0  0  0
 11 29  1  0  0  0  0
 12  8  1  0  0  0  0
 12  6  1  0  0  0  0
 13 16  1  0  0  0  0
 13 27  1  1  0  0  0
 14 27  1  1  0  0  0
 14 21  1  0  0  0  0
 14 28  1  0  0  0  0
 15 25  1  1  0  0  0
 16 23  1  6  0  0  0
 17  3  1  0  0  0  0
 19 22  1  0  0  0  0
 19 31  1  6  0  0  0
 20  7  1  0  0  0  0
 21 34  1  6  0  0  0
 21  9  1  0  0  0  0
 22  4  2  0  0  0  0
 23 17  1  0  0  0  0
 24  5  1  6  0  0  0
 24 15  1  0  0  0  0
 26 19  1  0  0  0  0
 28  5  1  0  0  0  0
 29 20  2  0  0  0  0
 29 22  1  0  0  0  0
 30 31  2  0  0  0  0
 31 32  1  0  0  0  0
 34 33  2  0  0  0  0
 35 37  1  0  0  0  0
 36 33  1  6  0  0  0
 36 35  1  0  0  0  0
 36 38  1  0  0  0  0
 38 39  1  0  0  0  0
 39 37  1  0  0  0  0
 39 41  1  1  0  0  0
 41 40  1  0  0  0  0
 42 34  1  0  0  0  0
 43 42  1  0  0  0  0
 44 43  1  0  0  0  0
M  END
>  <MODEL>
2

>  <REMARK>
 VINA RESULT:      -7.3      2.650      8.146
  Name = 
  6 active torsions:
  status: ('A' for Active; 'I' for Inactive)
    1  A    between atoms: C_6  and  C_30
    2  A    between atoms: C_17  and  C_24
    3  A    between atoms: O_18  and  C_41
    4  A    between atoms: C_25  and  C_27
    5  A    between atoms: C_28  and  C_30
    6  A    between atoms: C_28  and  C_32
                            x       y       z     vdW  Elec       q    Type
                         _______ _______ _______ _____ _____    ______ ____

>  <TORSDO>
F 6

$$$$
=
 OpenBabel11062422153D

 44 49  0  0  1  0  0  0  0  0999 V2000
  189.9920  173.7750  138.2680 C   0  0  0  0  0  2  0  0  0  0  0  0
  191.5180  174.2860  145.9110 O   0  0  0  0  0  1  0  0  0  0  0  0
  187.8680  174.9620  141.7220 C   0  0  0  0  0  2  0  0  0  0  0  0
  189.3740  178.2850  144.4680 C   0  0  0  0  0  3  0  0  0  0  0  0
  192.4930  175.8470  142.7650 C   0  0  0  0  0  2  0  0  0  0  0  0
  191.4860  171.7260  138.9810 O   0  0  0  0  0  0  0  0  0  0  0  0
  190.6010  176.2320  144.9210 C   0  0  0  0  0  0  0  0  0  0  0  0
  190.1330  172.4870  137.4430 C   0  0  0  0  0  2  0  0  0  0  0  0
  193.4320  173.9930  144.0190 O   0  0  0  0  0  0  0  0  0  0  0  0
  186.0340  176.0410  143.0260 C   0  0  0  0  0  2  0  0  0  0  0  0
  187.3760  175.3180  143.1210 C   0  0  2  0  0  3  0  0  0  0  0  0
  190.4270  171.3810  138.2660 O   0  0  0  0  0  0  0  0  0  0  0  0
  190.9970  172.3780  140.1380 C   0  0  2  0  0  3  0  0  0  0  0  0
  191.6980  173.4920  142.2630 C   0  0  2  0  0  3  0  0  0  0  0  0
  191.8750  175.5080  145.3310 C   0  0  2  0  0  0  0  0  0  0  0  0
  189.9940  173.4950  139.7770 C   0  0  2  0  0  3  0  0  0  0  0  0
  188.3370  173.5160  141.6720 C   0  0  0  0  0  2  0  0  0  0  0  0
  190.5130  177.6350  144.9460 C   0  0  0  0  0  3  0  0  0  0  0  0
  187.0820  178.2870  143.4650 C   0  0  1  0  0  3  0  0  0  0  0  0
  189.5360  175.5010  144.3700 C   0  0  0  0  0  3  0  0  0  0  0  0
  192.4700  173.0630  143.5530 C   0  0  1  0  0  3  0  0  0  0  0  0
  188.3180  177.5510  143.9180 C   0  0  0  0  0  0  0  0  0  0  0  0
  188.5940  173.1070  140.2290 C   0  0  0  0  0  2  0  0  0  0  0  0
  192.8610  175.2840  144.1360 C   0  0  2  0  0  3  0  0  0  0  0  0
  192.6240  176.2990  146.3970 C   0  0  0  0  0  1  0  0  0  0  0  0
  186.2220  177.4650  142.5070 C   0  0  0  0  0  2  0  0  0  0  0  0
  192.1780  172.9320  140.9290 C   0  0  0  0  0  2  0  0  0  0  0  0
  191.4090  174.9840  142.1420 C   0  0  0  0  0  2  0  0  0  0  0  0
  188.4020  176.1410  143.8560 C   0  0  0  0  0  0  0  0  0  0  0  0
  185.5710  179.8160  144.5270 O   0  0  0  0  0  0  0  0  0  0  0  0
  186.2730  178.7740  144.6260 C   0  0  0  0  0  0  0  0  0  0  0  0
  186.3100  178.0690  145.8260 O   0  0  0  0  0  1  0  0  0  0  0  0
  194.3910  171.4870  143.2080 C   0  0  0  0  0  3  0  0  0  0  0  0
  193.0870  171.6780  143.4920 C   0  0  0  0  0  0  0  0  0  0  0  0
  196.6820  172.2660  143.6010 C   0  0  0  0  0  2  0  0  0  0  0  0
  195.3720  172.5810  142.9170 C   0  0  1  0  0  3  0  0  0  0  0  0
  197.7400  172.4650  142.6950 O   0  0  0  0  0  0  0  0  0  0  0  0
  195.7130  172.5540  141.4600 C   0  0  0  0  0  2  0  0  0  0  0  0
  197.2040  172.3160  141.4050 C   0  0  1  0  0  3  0  0  0  0  0  0
  196.8090  173.6070  139.6310 C   0  0  0  0  0  1  0  0  0  0  0  0
  197.8010  173.2480  140.5490 O   0  0  0  0  0  0  0  0  0  0  0  0
  192.2010  170.4640  143.5470 C   0  0  0  0  0  2  0  0  0  0  0  0
  192.4100  169.5960  142.3110 C   0  0  0  0  0  2  0  0  0  0  0  0
  191.1820  169.2250  141.7670 O   0  0  0  0  0  1  0  0  0  0  0  0
  4 18  1  0  0  0  0
  6 13  1  0  0  0  0
  7 18  2  0  0  0  0
  7 15  1  0  0  0  0
  8 12  1  0  0  0  0
  8  1  1  0  0  0  0
  9 24  1  0  0  0  0
 10 11  1  0  0  0  0
 11  3  1  6  0  0  0
 11 29  1  0  0  0  0
 12  6  1  0  0  0  0
 13 27  1  6  0  0  0
 14 27  1  6  0  0  0
 14 21  1  0  0  0  0
 15  2  1  0  0  0  0
 15 25  1  1  0  0  0
 16  1  1  6  0  0  0
 16 13  1  0  0  0  0
 16 23  1  0  0  0  0
 17  3  1  0  0  0  0
 19 22  1  0  0  0  0
 19 31  1  1  0  0  0
 20  7  1  0  0  0  0
 21 34  1  6  0  0  0
 21  9  1  0  0  0  0
 22  4  2  0  0  0  0
 23 17  1  0  0  0  0
 24  5  1  6  0  0  0
 24 15  1  0  0  0  0
 26 10  1  0  0  0  0
 26 19  1  0  0  0  0
 28 14  1  0  0  0  0
 28  5  1  0  0  0  0
 29 22  1  0  0  0  0
 29 20  2  0  0  0  0
 30 31  2  0  0  0  0
 31 32  1  0  0  0  0
 33 34  2  0  0  0  0
 34 42  1  0  0  0  0
 36 33  1  6  0  0  0
 36 35  1  0  0  0  0
 37 35  1  0  0  0  0
 38 36  1  0  0  0  0
 39 41  1  6  0  0  0
 39 38  1  0  0  0  0
 39 37  1  0  0  0  0
 40 41  1  0  0  0  0
 43 42  1  0  0  0  0
 44 43  1  0  0  0  0
M  END
>  <MODEL>
3

>  <REMARK>
 VINA RESULT:      -7.1      2.121      4.000
  Name = 
  6 active torsions:
  status: ('A' for Active; 'I' for Inactive)
    1  A    between atoms: C_6  and  C_30
    2  A    between atoms: C_17  and  C_24
    3  A    between atoms: O_18  and  C_41
    4  A    between atoms: C_25  and  C_27
    5  A    between atoms: C_28  and  C_30
    6  A    between atoms: C_28  and  C_32
                            x       y       z     vdW  Elec       q    Type
                         _______ _______ _______ _____ _____    ______ ____

>  <TORSDO>
F 6

$$$$
=
 OpenBabel11062422153D

 44 49  0  0  1  0  0  0  0  0999 V2000
  194.4690  172.9390  145.7310 C   0  0  0  0  0  2  0  0  0  0  0  0
  190.2790  173.7150  139.1850 O   0  0  0  0  0  1  0  0  0  0  0  0
  191.9710  175.9030  144.0510 C   0  0  0  0  0  2  0  0  0  0  0  0
  187.6320  175.0510  142.9110 C   0  0  0  0  0  3  0  0  0  0  0  0
  190.3170  171.7460  142.2520 C   0  0  0  0  0  2  0  0  0  0  0  0
  195.8050  171.8700  143.7280 O   0  0  0  0  0  0  0  0  0  0  0  0
  189.1160  174.1600  141.2000 C   0  0  0  0  0  0  0  0  0  0  0  0
  195.9770  172.6490  145.7620 C   0  0  0  0  0  2  0  0  0  0  0  0
  191.2710  171.3520  140.0550 O   0  0  0  0  0  0  0  0  0  0  0  0
  190.5600  177.9620  144.0190 C   0  0  0  0  0  2  0  0  0  0  0  0
  191.0370  176.7620  143.2040 C   0  0  2  0  0  3  0  0  0  0  0  0
  196.5330  172.6900  144.4680 O   0  0  0  0  0  0  0  0  0  0  0  0
  194.7260  172.6330  143.2220 C   0  0  2  0  0  3  0  0  0  0  0  0
  192.6860  172.5170  141.7820 C   0  0  2  0  0  3  0  0  0  0  0  0
  189.4520  173.1180  140.1420 C   0  0  2  0  0  0  0  0  0  0  0  0
  194.0010  173.4040  144.3460 C   0  0  2  0  0  3  0  0  0  0  0  0
  193.2230  175.5430  143.2680 C   0  0  0  0  0  2  0  0  0  0  0  0
  187.8810  174.1530  141.8710 C   0  0  0  0  0  3  0  0  0  0  0  0
  188.2940  176.9370  144.4150 C   0  0  1  0  0  3  0  0  0  0  0  0
  190.1070  175.0620  141.6220 C   0  0  0  0  0  3  0  0  0  0  0  0
  192.3880  172.1950  140.2810 C   0  0  1  0  0  3  0  0  0  0  0  0
  188.6230  175.9450  143.3280 C   0  0  0  0  0  0  0  0  0  0  0  0
  194.2430  174.8990  144.1960 C   0  0  0  0  0  2  0  0  0  0  0  0
  190.1310  171.8400  140.7390 C   0  0  2  0  0  3  0  0  0  0  0  0
  188.1910  172.6660  139.4140 C   0  0  0  0  0  1  0  0  0  0  0  0
  189.5400  177.5300  145.0710 C   0  0  0  0  0  2  0  0  0  0  0  0
  193.7680  171.7050  142.4820 C   0  0  0  0  0  2  0  0  0  0  0  0
  191.4580  172.6530  142.6770 C   0  0  0  0  0  2  0  0  0  0  0  0
  189.8820  175.9450  142.6850 C   0  0  0  0  0  0  0  0  0  0  0  0
  186.6070  178.6140  144.7120 O   0  0  0  0  0  1  0  0  0  0  0  0
  187.3860  178.0180  143.9200 C   0  0  0  0  0  0  0  0  0  0  0  0
  187.3990  178.3540  142.5700 O   0  0  0  0  0  0  0  0  0  0  0  0
  194.4140  172.5180  138.8390 C   0  0  0  0  0  3  0  0  0  0  0  0
  193.5800  171.6860  139.4940 C   0  0  0  0  0  0  0  0  0  0  0  0
  195.5880  174.6180  138.3640 C   0  0  0  0  0  2  0  0  0  0  0  0
  194.2750  174.0090  138.7970 C   0  0  1  0  0  3  0  0  0  0  0  0
  195.3490  175.5860  137.3710 O   0  0  0  0  0  0  0  0  0  0  0  0
  193.3290  174.3800  137.6980 C   0  0  0  0  0  2  0  0  0  0  0  0
  194.1330  175.2450  136.7560 C   0  0  1  0  0  3  0  0  0  0  0  0
  192.3640  176.0180  135.6390 C   0  0  0  0  0  1  0  0  0  0  0  0
  193.4210  176.4140  136.4640 O   0  0  0  0  0  0  0  0  0  0  0  0
  193.7420  170.2100  139.2560 C   0  0  0  0  0  2  0  0  0  0  0  0
  193.7430  169.9090  137.7620 C   0  0  0  0  0  2  0  0  0  0  0  0
  192.4390  169.9010  137.2690 O   0  0  0  0  0  1  0  0  0  0  0  0
  1  8  1  0  0  0  0
  2 15  1  0  0  0  0
  4 22  1  0  0  0  0
  5 28  1  0  0  0  0
  6 12  1  0  0  0  0
  7 20  2  0  0  0  0
  7 18  1  0  0  0  0
  9 21  1  0  0  0  0
  9 24  1  0  0  0  0
 10 26  1  0  0  0  0
 11 10  1  1  0  0  0
 11  3  1  0  0  0  0
 12  8  1  0  0  0  0
 13 27  1  1  0  0  0
 13  6  1  0  0  0  0
 13 16  1  0  0  0  0
 14 27  1  1  0  0  0
 14 28  1  0  0  0  0
 15 25  1  6  0  0  0
 15 24  1  0  0  0  0
 15  7  1  0  0  0  0
 16 23  1  6  0  0  0
 16  1  1  0  0  0  0
 17  3  1  0  0  0  0
 17 23  1  0  0  0  0
 18  4  2  0  0  0  0
 19 31  1  6  0  0  0
 19 26  1  0  0  0  0
 20 29  1  0  0  0  0
 21 34  1  1  0  0  0
 21 14  1  0  0  0  0
 22 19  1  0  0  0  0
 24  5  1  1  0  0  0
 29 11  1  0  0  0  0
 29 22  2  0  0  0  0
 31 30  1  0  0  0  0
 32 31  2  0  0  0  0
 33 34  2  0  0  0  0
 35 36  1  0  0  0  0
 36 33  1  6  0  0  0
 37 35  1  0  0  0  0
 38 36  1  0  0  0  0
 39 41  1  1  0  0  0
 39 37  1  0  0  0  0
 39 38  1  0  0  0  0
 40 41  1  0  0  0  0
 42 34  1  0  0  0  0
 43 42  1  0  0  0  0
 44 43  1  0  0  0  0
M  END
>  <MODEL>
4

>  <REMARK>
 VINA RESULT:      -6.9      2.470      6.210
  Name = 
  6 active torsions:
  status: ('A' for Active; 'I' for Inactive)
    1  A    between atoms: C_6  and  C_30
    2  A    between atoms: C_17  and  C_24
    3  A    between atoms: O_18  and  C_41
    4  A    between atoms: C_25  and  C_27
    5  A    between atoms: C_28  and  C_30
    6  A    between atoms: C_28  and  C_32
                            x       y       z     vdW  Elec       q    Type
                         _______ _______ _______ _____ _____    ______ ____

>  <TORSDO>
F 6

$$$$
=
 OpenBabel11062422153D

 44 49  0  0  1  0  0  0  0  0999 V2000
  192.0750  173.6140  137.8670 C   0  0  0  0  0  2  0  0  0  0  0  0
  193.9410  174.6110  145.3850 O   0  0  0  0  0  1  0  0  0  0  0  0
  189.9570  174.2040  141.4750 C   0  0  0  0  0  2  0  0  0  0  0  0
  190.6760  177.8440  144.1360 C   0  0  0  0  0  3  0  0  0  0  0  0
  194.2180  176.3460  142.1920 C   0  0  0  0  0  2  0  0  0  0  0  0
  194.1240  172.0650  138.4520 O   0  0  0  0  0  0  0  0  0  0  0  0
  192.4520  176.2170  144.4810 C   0  0  0  0  0  0  0  0  0  0  0  0
  192.5070  172.4060  137.0220 C   0  0  0  0  0  2  0  0  0  0  0  0
  195.7200  174.8380  143.3580 O   0  0  0  0  0  0  0  0  0  0  0  0
  187.9930  174.7480  142.9170 C   0  0  0  0  0  2  0  0  0  0  0  0
  189.4860  174.4260  142.9090 C   0  0  2  0  0  3  0  0  0  0  0  0
  193.1530  171.4340  137.8110 O   0  0  0  0  0  0  0  0  0  0  0  0
  193.5570  172.5700  139.6470 C   0  0  2  0  0  3  0  0  0  0  0  0
  194.0730  173.8580  141.7260 C   0  0  2  0  0  3  0  0  0  0  0  0
  193.9030  175.8780  144.7920 C   0  0  2  0  0  0  0  0  0  0  0  0
  192.2610  173.3620  139.3690 C   0  0  2  0  0  3  0  0  0  0  0  0
  190.8020  172.9440  141.3780 C   0  0  0  0  0  2  0  0  0  0  0  0
  191.9820  177.5400  144.5260 C   0  0  0  0  0  3  0  0  0  0  0  0
  188.4070  177.2020  143.3000 C   0  0  1  0  0  3  0  0  0  0  0  0
  191.5950  175.2130  144.0010 C   0  0  0  0  0  3  0  0  0  0  0  0
  195.0230  173.6730  142.9540 C   0  0  1  0  0  3  0  0  0  0  0  0
  189.8280  176.8420  143.6570 C   0  0  0  0  0  0  0  0  0  0  0  0
  191.0590  172.6070  139.9170 C   0  0  0  0  0  2  0  0  0  0  0  0
  194.8250  175.9220  143.5280 C   0  0  2  0  0  3  0  0  0  0  0  0
  194.4780  176.8570  145.8100 C   0  0  0  0  0  1  0  0  0  0  0  0
  187.7420  176.1630  142.3990 C   0  0  0  0  0  2  0  0  0  0  0  0
  194.5920  173.4370  140.3570 C   0  0  0  0  0  2  0  0  0  0  0  0
  193.3740  175.2100  141.6400 C   0  0  0  0  0  2  0  0  0  0  0  0
  190.2940  175.5090  143.5760 C   0  0  0  0  0  0  0  0  0  0  0  0
  186.7140  178.3740  144.5270 O   0  0  0  0  0  0  0  0  0  0  0  0
  187.5810  177.4580  144.5200 C   0  0  0  0  0  0  0  0  0  0  0  0
  187.7840  176.6820  145.6570 O   0  0  0  0  0  1  0  0  0  0  0  0
  195.8170  171.3600  143.5140 C   0  0  0  0  0  3  0  0  0  0  0  0
  195.9930  172.5120  142.8360 C   0  0  0  0  0  0  0  0  0  0  0  0
  193.6500  170.2360  143.7430 C   0  0  0  0  0  2  0  0  0  0  0  0
  194.6800  171.0840  144.4510 C   0  0  1  0  0  3  0  0  0  0  0  0
  193.2620  169.1750  144.5840 O   0  0  0  0  0  0  0  0  0  0  0  0
  195.1660  170.2060  145.5610 C   0  0  0  0  0  2  0  0  0  0  0  0
  194.3260  168.9530  145.4740 C   0  0  1  0  0  3  0  0  0  0  0  0
  194.9190  168.5430  147.5840 C   0  0  0  0  0  1  0  0  0  0  0  0
  193.8110  168.6410  146.7370 O   0  0  0  0  0  0  0  0  0  0  0  0
  197.2950  172.6990  142.1090 C   0  0  0  0  0  2  0  0  0  0  0  0
  197.7670  171.3780  141.5130 C   0  0  0  0  0  2  0  0  0  0  0  0
  197.3230  171.2550  140.1970 O   0  0  0  0  0  1  0  0  0  0  0  0
  4 18  1  0  0  0  0
  6 13  1  0  0  0  0
  7 18  2  0  0  0  0
  7 15  1  0  0  0  0
  8 12  1  0  0  0  0
  8  1  1  0  0  0  0
  9 24  1  0  0  0  0
 11  3  1  6  0  0  0
 11 10  1  0  0  0  0
 11 29  1  0  0  0  0
 12  6  1  0  0  0  0
 13 27  1  6  0  0  0
 14 27  1  6  0  0  0
 14 21  1  0  0  0  0
 15  2  1  0  0  0  0
 15 25  1  1  0  0  0
 16  1  1  6  0  0  0
 16 13  1  0  0  0  0
 16 23  1  0  0  0  0
 17  3  1  0  0  0  0
 19 22  1  0  0  0  0
 19 31  1  1  0  0  0
 20  7  1  0  0  0  0
 21 34  1  6  0  0  0
 21  9  1  0  0  0  0
 22  4  2  0  0  0  0
 23 17  1  0  0  0  0
 24  5  1  6  0  0  0
 24 15  1  0  0  0  0
 26 10  1  0  0  0  0
 26 19  1  0  0  0  0
 28 14  1  0  0  0  0
 28  5  1  0  0  0  0
 29 22  1  0  0  0  0
 29 20  2  0  0  0  0
 31 30  2  0  0  0  0
 31 32  1  0  0  0  0
 34 33  2  0  0  0  0
 35 36  1  0  0  0  0
 35 37  1  0  0  0  0
 36 33  1  6  0  0  0
 36 38  1  0  0  0  0
 37 39  1  0  0  0  0
 39 38  1  0  0  0  0
 39 41  1  1  0  0  0
 41 40  1  0  0  0  0
 42 34  1  0  0  0  0
 43 42  1  0  0  0  0
 44 43  1  0  0  0  0
M  END
>  <MODEL>
5

>  <REMARK>
 VINA RESULT:      -6.7      1.876      2.615
  Name = 
  6 active torsions:
  status: ('A' for Active; 'I' for Inactive)
    1  A    between atoms: C_6  and  C_30
    2  A    between atoms: C_17  and  C_24
    3  A    between atoms: O_18  and  C_41
    4  A    between atoms: C_25  and  C_27
    5  A    between atoms: C_28  and  C_30
    6  A    between atoms: C_28  and  C_32
                            x       y       z     vdW  Elec       q    Type
                         _______ _______ _______ _____ _____    ______ ____

>  <TORSDO>
F 6

$$$$
=
 OpenBabel11062422153D

 44 49  0  0  1  0  0  0  0  0999 V2000
  195.1450  170.0750  146.3150 C   0  0  0  0  0  2  0  0  0  0  0  0
  191.9770  174.1730  140.4700 O   0  0  0  0  0  1  0  0  0  0  0  0
  193.2710  173.8390  145.9050 C   0  0  0  0  0  2  0  0  0  0  0  0
  189.0480  174.2700  144.2220 C   0  0  0  0  0  3  0  0  0  0  0  0
  191.3710  171.1360  142.3920 C   0  0  0  0  0  2  0  0  0  0  0  0
  196.5920  169.7230  144.1420 O   0  0  0  0  0  0  0  0  0  0  0  0
  190.6230  173.9320  142.3980 C   0  0  0  0  0  0  0  0  0  0  0  0
  196.5890  169.5520  146.3200 C   0  0  0  0  0  2  0  0  0  0  0  0
  192.5500  171.5330  140.3080 O   0  0  0  0  0  0  0  0  0  0  0  0
  192.1390  175.9300  146.6640 C   0  0  0  0  0  2  0  0  0  0  0  0
  192.5690  175.1140  145.4470 C   0  0  2  0  0  3  0  0  0  0  0  0
  197.3110  170.0310  145.2090 O   0  0  0  0  0  0  0  0  0  0  0  0
  195.6900  170.7960  143.9410 C   0  0  2  0  0  3  0  0  0  0  0  0
  193.8570  171.6270  142.4580 C   0  0  2  0  0  3  0  0  0  0  0  0
  190.9640  173.3810  141.0210 C   0  0  2  0  0  0  0  0  0  0  0  0
  194.9230  171.1420  145.2350 C   0  0  2  0  0  3  0  0  0  0  0  0
  194.5620  173.6320  145.1290 C   0  0  0  0  0  2  0  0  0  0  0  0
  189.3190  173.8550  142.9180 C   0  0  0  0  0  3  0  0  0  0  0  0
  189.7330  175.2270  146.4300 C   0  0  1  0  0  3  0  0  0  0  0  0
  191.6530  174.4010  143.2310 C   0  0  0  0  0  3  0  0  0  0  0  0
  193.7220  172.0080  140.9470 C   0  0  1  0  0  3  0  0  0  0  0  0
  190.0780  174.7340  145.0470 C   0  0  0  0  0  0  0  0  0  0  0  0
  195.3640  172.5020  145.7570 C   0  0  0  0  0  2  0  0  0  0  0  0
  191.3980  171.8770  141.0560 C   0  0  2  0  0  3  0  0  0  0  0  0
  189.7640  173.4870  140.0870 C   0  0  0  0  0  1  0  0  0  0  0  0
  190.9450  175.2790  147.3590 C   0  0  0  0  0  2  0  0  0  0  0  0
  194.7310  170.4300  142.8120 C   0  0  0  0  0  2  0  0  0  0  0  0
  192.5490  171.5830  143.2400 C   0  0  0  0  0  2  0  0  0  0  0  0
  191.4010  174.7890  144.5520 C   0  0  0  0  0  0  0  0  0  0  0  0
  187.9490  176.7230  147.0010 O   0  0  0  0  0  1  0  0  0  0  0  0
  189.0370  176.5500  146.3860 C   0  0  0  0  0  0  0  0  0  0  0  0
  189.5950  177.5900  145.6490 O   0  0  0  0  0  0  0  0  0  0  0  0
  196.1100  172.3240  140.2490 C   0  0  0  0  0  3  0  0  0  0  0  0
  194.9360  171.6790  140.0990 C   0  0  0  0  0  0  0  0  0  0  0  0
  197.8240  173.8040  141.1900 C   0  0  0  0  0  2  0  0  0  0  0  0
  196.3620  173.4230  141.2360 C   0  0  1  0  0  3  0  0  0  0  0  0
  197.9390  175.2050  141.1410 O   0  0  0  0  0  0  0  0  0  0  0  0
  195.6550  174.6600  140.7800 C   0  0  0  0  0  2  0  0  0  0  0  0
  196.7420  175.6920  140.5880 C   0  0  1  0  0  3  0  0  0  0  0  0
  196.7970  176.7250  142.5640 C   0  0  0  0  0  1  0  0  0  0  0  0
  196.3860  176.8800  141.2360 O   0  0  0  0  0  0  0  0  0  0  0  0
  194.7950  170.7560  138.9210 C   0  0  0  0  0  2  0  0  0  0  0  0
  195.2060  169.3390  139.3030 C   0  0  0  0  0  2  0  0  0  0  0  0
  194.0930  168.6050  139.7100 O   0  0  0  0  0  1  0  0  0  0  0  0
  1  8  1  0  0  0  0
  2 15  1  0  0  0  0
  4 22  1  0  0  0  0
  5 28  1  0  0  0  0
  6 12  1  0  0  0  0
  7 18  1  0  0  0  0
  7 20  2  0  0  0  0
  9 21  1  0  0  0  0
  9 24  1  0  0  0  0
 10 26  1  0  0  0  0
 11  3  1  1  0  0  0
 11 10  1  0  0  0  0
 12  8  1  0  0  0  0
 13 27  1  6  0  0  0
 13  6  1  0  0  0  0
 13 16  1  0  0  0  0
 14 27  1  6  0  0  0
 14 28  1  0  0  0  0
 15 25  1  6  0  0  0
 15 24  1  0  0  0  0
 15  7  1  0  0  0  0
 16 23  1  1  0  0  0
 16  1  1  0  0  0  0
 17 23  1  0  0  0  0
 17  3  1  0  0  0  0
 18  4  2  0  0  0  0
 19 31  1  6  0  0  0
 19 26  1  0  0  0  0
 20 29  1  0  0  0  0
 21 34  1  6  0  0  0
 21 14  1  0  0  0  0
 22 19  1  0  0  0  0
 24  5  1  1  0  0  0
 29 22  2  0  0  0  0
 29 11  1  0  0  0  0
 31 30  1  0  0  0  0
 32 31  2  0  0  0  0
 34 33  2  0  0  0  0
 35 36  1  0  0  0  0
 36 33  1  6  0  0  0
 37 35  1  0  0  0  0
 38 36  1  0  0  0  0
 39 38  1  0  0  0  0
 39 37  1  0  0  0  0
 39 41  1  1  0  0  0
 41 40  1  0  0  0  0
 42 43  1  0  0  0  0
 42 34  1  0  0  0  0
 43 44  1  0  0  0  0
M  END
>  <MODEL>
6

>  <REMARK>
 VINA RESULT:      -6.7      2.440      6.080
  Name = 
  6 active torsions:
  status: ('A' for Active; 'I' for Inactive)
    1  A    between atoms: C_6  and  C_30
    2  A    between atoms: C_17  and  C_24
    3  A    between atoms: O_18  and  C_41
    4  A    between atoms: C_25  and  C_27
    5  A    between atoms: C_28  and  C_30
    6  A    between atoms: C_28  and  C_32
                            x       y       z     vdW  Elec       q    Type
                         _______ _______ _______ _____ _____    ______ ____

>  <TORSDO>
F 6

$$$$
=
 OpenBabel11062422153D

 44 49  0  0  1  0  0  0  0  0999 V2000
  190.1370  177.3190  148.0380 C   0  0  0  0  0  2  0  0  0  0  0  0
  191.8090  172.8750  141.8370 O   0  0  0  0  0  1  0  0  0  0  0  0
  189.5210  177.5630  143.8660 C   0  0  0  0  0  2  0  0  0  0  0  0
  187.2810  174.3230  141.5560 C   0  0  0  0  0  3  0  0  0  0  0  0
  189.6920  172.8350  144.8030 C   0  0  0  0  0  2  0  0  0  0  0  0
  192.5150  176.2370  148.3780 O   0  0  0  0  0  0  0  0  0  0  0  0
  189.5540  173.5790  142.0100 C   0  0  0  0  0  0  0  0  0  0  0  0
  191.1830  177.8400  149.0360 C   0  0  0  0  0  2  0  0  0  0  0  0
  191.9280  171.9860  144.3910 O   0  0  0  0  0  0  0  0  0  0  0  0
  188.5170  178.4110  141.7440 C   0  0  0  0  0  2  0  0  0  0  0  0
  189.4500  177.3670  142.3550 C   0  0  2  0  0  3  0  0  0  0  0  0
  192.4920  177.5400  148.6080 O   0  0  0  0  0  0  0  0  0  0  0  0
  192.1010  176.0580  147.0360 C   0  0  2  0  0  3  0  0  0  0  0  0
  191.6840  174.3300  145.2780 C   0  0  2  0  0  3  0  0  0  0  0  0
  190.5560  172.4740  142.3130 C   0  0  2  0  0  0  0  0  0  0  0  0
  190.7820  176.8040  146.7450 C   0  0  2  0  0  3  0  0  0  0  0  0
  190.9650  177.5330  144.3420 C   0  0  0  0  0  2  0  0  0  0  0  0
  188.2070  173.2920  141.7280 C   0  0  0  0  0  3  0  0  0  0  0  0
  186.6540  176.7430  141.4520 C   0  0  1  0  0  3  0  0  0  0  0  0
  189.9400  174.9220  142.1530 C   0  0  0  0  0  3  0  0  0  0  0  0
  192.5420  173.2550  144.5350 C   0  0  1  0  0  3  0  0  0  0  0  0
  187.6710  175.6580  141.7020 C   0  0  0  0  0  0  0  0  0  0  0  0
  191.0360  177.9680  145.7980 C   0  0  0  0  0  2  0  0  0  0  0  0
  190.6320  172.1200  143.8360 C   0  0  2  0  0  3  0  0  0  0  0  0
  190.1890  171.1970  141.5650 C   0  0  0  0  0  1  0  0  0  0  0  0
  187.0590  178.0850  142.0600 C   0  0  0  0  0  2  0  0  0  0  0  0
  191.9640  174.5640  146.7570 C   0  0  0  0  0  2  0  0  0  0  0  0
  190.1820  174.2560  145.0240 C   0  0  0  0  0  2  0  0  0  0  0  0
  189.0160  175.9640  142.0170 C   0  0  0  0  0  0  0  0  0  0  0  0
  187.1390  176.4300  139.1260 O   0  0  0  0  0  0  0  0  0  0  0  0
  186.3480  176.8870  139.9950 C   0  0  0  0  0  0  0  0  0  0  0  0
  185.1840  177.5410  139.6040 O   0  0  0  0  0  1  0  0  0  0  0  0
  194.9330  173.9650  144.8070 C   0  0  0  0  0  3  0  0  0  0  0  0
  193.9500  173.0820  145.0750 C   0  0  0  0  0  0  0  0  0  0  0  0
  195.2810  176.3900  144.7240 C   0  0  0  0  0  2  0  0  0  0  0  0
  194.7740  175.1900  143.9590 C   0  0  1  0  0  3  0  0  0  0  0  0
  196.1110  177.1600  143.8880 O   0  0  0  0  0  0  0  0  0  0  0  0
  195.7000  175.0950  142.7880 C   0  0  0  0  0  2  0  0  0  0  0  0
  196.6170  176.2910  142.9070 C   0  0  1  0  0  3  0  0  0  0  0  0
  196.4280  175.9960  140.7040 C   0  0  0  0  0  1  0  0  0  0  0  0
  196.6760  176.9650  141.6820 O   0  0  0  0  0  0  0  0  0  0  0  0
  194.3330  171.8020  145.7630 C   0  0  0  0  0  2  0  0  0  0  0  0
  195.6150  171.2380  145.1620 C   0  0  0  0  0  2  0  0  0  0  0  0
  196.6050  171.1420  146.1390 O   0  0  0  0  0  1  0  0  0  0  0  0
  1  8  1  0  0  0  0
  2 15  1  0  0  0  0
  3 17  1  0  0  0  0
  4 22  2  0  0  0  0
  4 18  1  0  0  0  0
  5 28  1  0  0  0  0
  6 12  1  0  0  0  0
  7 20  1  0  0  0  0
  7 15  1  0  0  0  0
  9 21  1  0  0  0  0
 10 26  1  0  0  0  0
 11 10  1  1  0  0  0
 11  3  1  0  0  0  0
 12  8  1  0  0  0  0
 13 27  1  1  0  0  0
 13  6  1  0  0  0  0
 14 28  1  1  0  0  0
 14 27  1  0  0  0  0
 15 25  1  6  0  0  0
 15 24  1  0  0  0  0
 16 23  1  6  0  0  0
 16 13  1  0  0  0  0
 16  1  1  0  0  0  0
 17 23  1  0  0  0  0
 18  7  2  0  0  0  0
 19 31  1  6  0  0  0
 19 22  1  0  0  0  0
 19 26  1  0  0  0  0
 21 34  1  1  0  0  0
 21 14  1  0  0  0  0
 22 29  1  0  0  0  0
 24  9  1  0  0  0  0
 24  5  1  1  0  0  0
 29 20  2  0  0  0  0
 29 11  1  0  0  0  0
 30 31  2  0  0  0  0
 32 31  1  0  0  0  0
 33 34  2  0  0  0  0
 34 42  1  0  0  0  0
 36 35  1  0  0  0  0
 36 33  1  1  0  0  0
 37 35  1  0  0  0  0
 38 39  1  0  0  0  0
 38 36  1  0  0  0  0
 39 41  1  6  0  0  0
 39 37  1  0  0  0  0
 40 41  1  0  0  0  0
 43 42  1  0  0  0  0
 43 44  1  0  0  0  0
M  END
>  <MODEL>
7

>  <REMARK>
 VINA RESULT:      -6.6      2.291      5.754
  Name = 
  6 active torsions:
  status: ('A' for Active; 'I' for Inactive)
    1  A    between atoms: C_6  and  C_30
    2  A    between atoms: C_17  and  C_24
    3  A    between atoms: O_18  and  C_41
    4  A    between atoms: C_25  and  C_27
    5  A    between atoms: C_28  and  C_30
    6  A    between atoms: C_28  and  C_32
                            x       y       z     vdW  Elec       q    Type
                         _______ _______ _______ _____ _____    ______ ____

>  <TORSDO>
F 6

$$$$
=
 OpenBabel11062422153D

 44 49  0  0  1  0  0  0  0  0999 V2000
  196.6420  170.8950  143.1390 C   0  0  0  0  0  2  0  0  0  0  0  0
  189.7230  173.6900  140.8380 O   0  0  0  0  0  1  0  0  0  0  0  0
  194.3390  174.3460  143.9350 C   0  0  0  0  0  2  0  0  0  0  0  0
  190.0820  174.0900  145.5690 C   0  0  0  0  0  3  0  0  0  0  0  0
  191.1060  170.9500  142.8020 C   0  0  0  0  0  2  0  0  0  0  0  0
  196.3060  170.3480  140.5850 O   0  0  0  0  0  0  0  0  0  0  0  0
  190.0690  173.6250  143.1800 C   0  0  0  0  0  0  0  0  0  0  0  0
  197.7860  170.5230  142.1830 C   0  0  0  0  0  2  0  0  0  0  0  0
  190.5020  171.1260  140.4580 O   0  0  0  0  0  0  0  0  0  0  0  0
  193.6500  176.4090  145.1590 C   0  0  0  0  0  2  0  0  0  0  0  0
  193.2970  175.4570  144.0180 C   0  0  2  0  0  3  0  0  0  0  0  0
  197.4830  170.8890  140.8570 O   0  0  0  0  0  0  0  0  0  0  0  0
  195.3270  171.2830  141.0010 C   0  0  2  0  0  3  0  0  0  0  0  0
  192.8640  171.6860  141.1290 C   0  0  2  0  0  3  0  0  0  0  0  0
  189.4980  172.9000  141.9700 C   0  0  2  0  0  0  0  0  0  0  0  0
  195.5720  171.7520  142.4510 C   0  0  2  0  0  3  0  0  0  0  0  0
  194.7940  174.1460  142.4980 C   0  0  0  0  0  2  0  0  0  0  0  0
  189.4850  173.5030  144.4530 C   0  0  0  0  0  3  0  0  0  0  0  0
  191.8770  175.4450  146.6650 C   0  0  1  0  0  3  0  0  0  0  0  0
  191.2850  174.3170  143.0620 C   0  0  0  0  0  3  0  0  0  0  0  0
  191.6910  171.8090  140.1020 C   0  0  1  0  0  3  0  0  0  0  0  0
  191.2950  174.7760  145.4460 C   0  0  0  0  0  0  0  0  0  0  0  0
  195.9960  173.2130  142.4640 C   0  0  0  0  0  2  0  0  0  0  0  0
  190.1050  171.4700  141.7730 C   0  0  2  0  0  3  0  0  0  0  0  0
  187.9880  172.7390  142.1030 C   0  0  0  0  0  1  0  0  0  0  0  0
  193.3640  175.7610  146.5120 C   0  0  0  0  0  2  0  0  0  0  0  0
  193.9470  170.6510  140.8500 C   0  0  0  0  0  2  0  0  0  0  0  0
  192.4450  171.6380  142.5940 C   0  0  0  0  0  2  0  0  0  0  0  0
  191.9130  174.8830  144.1780 C   0  0  0  0  0  0  0  0  0  0  0  0
  190.3850  177.2610  146.1950 O   0  0  0  0  0  0  0  0  0  0  0  0
  191.1070  176.6700  147.0430 C   0  0  0  0  0  0  0  0  0  0  0  0
  191.2020  177.1620  148.3420 O   0  0  0  0  0  1  0  0  0  0  0  0
  192.4380  172.4170  137.7850 C   0  0  0  0  0  3  0  0  0  0  0  0
  192.0650  171.4710  138.6700 C   0  0  0  0  0  0  0  0  0  0  0  0
  193.9430  174.2290  138.4660 C   0  0  0  0  0  2  0  0  0  0  0  0
  192.5230  173.8830  138.0850 C   0  0  1  0  0  3  0  0  0  0  0  0
  194.3440  175.3850  137.7710 O   0  0  0  0  0  0  0  0  0  0  0  0
  192.2930  174.6530  136.8230 C   0  0  0  0  0  2  0  0  0  0  0  0
  193.5560  175.4540  136.6100 C   0  0  1  0  0  3  0  0  0  0  0  0
  192.3520  176.7660  135.2660 C   0  0  0  0  0  1  0  0  0  0  0  0
  193.2290  176.7910  136.3550 O   0  0  0  0  0  0  0  0  0  0  0  0
  191.8290  170.0820  138.1460 C   0  0  0  0  0  2  0  0  0  0  0  0
  191.0710  170.1340  136.8240 C   0  0  0  0  0  2  0  0  0  0  0  0
  189.6980  170.1870  137.0550 O   0  0  0  0  0  1  0  0  0  0  0  0
  2 15  1  0  0  0  0
  6 12  1  0  0  0  0
  6 13  1  0  0  0  0
  7 18  1  0  0  0  0
  8  1  1  0  0  0  0
  9 24  1  0  0  0  0
 10 26  1  0  0  0  0
 11  3  1  1  0  0  0
 11 29  1  0  0  0  0
 11 10  1  0  0  0  0
 12  8  1  0  0  0  0
 13 27  1  1  0  0  0
 13 16  1  0  0  0  0
 14 27  1  6  0  0  0
 14 28  1  0  0  0  0
 15 25  1  1  0  0  0
 15  7  1  0  0  0  0
 16 23  1  6  0  0  0
 16  1  1  0  0  0  0
 17  3  1  0  0  0  0
 18  4  2  0  0  0  0
 19 31  1  6  0  0  0
 20  7  2  0  0  0  0
 20 29  1  0  0  0  0
 21 34  1  6  0  0  0
 21  9  1  0  0  0  0
 21 14  1  0  0  0  0
 22  4  1  0  0  0  0
 22 19  1  0  0  0  0
 23 17  1  0  0  0  0
 24 15  1  0  0  0  0
 24  5  1  1  0  0  0
 26 19  1  0  0  0  0
 28  5  1  0  0  0  0
 29 22  2  0  0  0  0
 30 31  2  0  0  0  0
 31 32  1  0  0  0  0
 33 34  2  0  0  0  0
 36 33  1  6  0  0  0
 36 35  1  0  0  0  0
 37 35  1  0  0  0  0
 38 36  1  0  0  0  0
 39 41  1  1  0  0  0
 39 38  1  0  0  0  0
 39 37  1  0  0  0  0
 40 41  1  0  0  0  0
 42 34  1  0  0  0  0
 43 44  1  0  0  0  0
 43 42  1  0  0  0  0
M  END
>  <MODEL>
8

>  <REMARK>
 VINA RESULT:      -6.5      2.989      6.785
  Name = 
  6 active torsions:
  status: ('A' for Active; 'I' for Inactive)
    1  A    between atoms: C_6  and  C_30
    2  A    between atoms: C_17  and  C_24
    3  A    between atoms: O_18  and  C_41
    4  A    between atoms: C_25  and  C_27
    5  A    between atoms: C_28  and  C_30
    6  A    between atoms: C_28  and  C_32
                            x       y       z     vdW  Elec       q    Type
                         _______ _______ _______ _____ _____    ______ ____

>  <TORSDO>
F 6

$$$$
=
 OpenBabel11062422153D

 44 49  0  0  1  0  0  0  0  0999 V2000
  188.9000  173.6460  139.7370 C   0  0  0  0  0  2  0  0  0  0  0  0
  195.3330  173.6590  144.1660 O   0  0  0  0  0  1  0  0  0  0  0  0
  189.7620  174.0960  143.8490 C   0  0  0  0  0  2  0  0  0  0  0  0
  192.5770  177.3440  145.3900 C   0  0  0  0  0  3  0  0  0  0  0  0
  193.7210  175.6690  141.5890 C   0  0  0  0  0  2  0  0  0  0  0  0
  190.5730  171.8290  138.8210 O   0  0  0  0  0  0  0  0  0  0  0  0
  193.8790  175.5030  144.4740 C   0  0  0  0  0  0  0  0  0  0  0  0
  188.4900  172.4900  138.8120 C   0  0  0  0  0  2  0  0  0  0  0  0
  195.3720  173.8940  141.4700 O   0  0  0  0  0  0  0  0  0  0  0  0
  189.3220  174.7040  146.2290 C   0  0  0  0  0  2  0  0  0  0  0  0
  190.3790  174.2210  145.2380 C   0  0  2  0  0  3  0  0  0  0  0  0
  189.3390  171.3770  138.9760 O   0  0  0  0  0  0  0  0  0  0  0  0
  191.0050  172.2690  140.0960 C   0  0  2  0  0  3  0  0  0  0  0  0
  192.9360  173.2730  141.3250 C   0  0  2  0  0  3  0  0  0  0  0  0
  195.1100  174.9760  143.7500 C   0  0  2  0  0  0  0  0  0  0  0  0
  189.9790  173.2230  140.7440 C   0  0  2  0  0  3  0  0  0  0  0  0
  190.1390  172.7670  143.2140 C   0  0  0  0  0  2  0  0  0  0  0  0
  193.7560  176.8590  144.8220 C   0  0  0  0  0  3  0  0  0  0  0  0
  190.2480  177.0450  146.2540 C   0  0  1  0  0  3  0  0  0  0  0  0
  192.7770  174.6550  144.6740 C   0  0  0  0  0  3  0  0  0  0  0  0
  194.4150  172.8600  141.6220 C   0  0  1  0  0  3  0  0  0  0  0  0
  191.4830  176.4950  145.5850 C   0  0  0  0  0  0  0  0  0  0  0  0
  189.3270  172.5540  141.9450 C   0  0  0  0  0  2  0  0  0  0  0  0
  194.9790  175.0470  142.1920 C   0  0  2  0  0  3  0  0  0  0  0  0
  196.3470  175.7770  144.1410 C   0  0  0  0  0  1  0  0  0  0  0  0
  189.0100  176.1830  146.0110 C   0  0  0  0  0  2  0  0  0  0  0  0
  192.3680  172.9390  139.9510 C   0  0  0  0  0  2  0  0  0  0  0  0
  192.5630  174.6960  141.7250 C   0  0  0  0  0  2  0  0  0  0  0  0
  191.5770  175.1350  145.2120 C   0  0  0  0  0  0  0  0  0  0  0  0
  191.1880  176.4750  148.3850 O   0  0  0  0  0  1  0  0  0  0  0  0
  190.4660  177.2650  147.7180 C   0  0  0  0  0  0  0  0  0  0  0  0
  189.8550  178.3480  148.3430 O   0  0  0  0  0  0  0  0  0  0  0  0
  194.9470  170.4120  141.4910 C   0  0  0  0  0  3  0  0  0  0  0  0
  194.8850  171.6170  140.8890 C   0  0  0  0  0  0  0  0  0  0  0  0
  194.2230  168.6900  143.0790 C   0  0  0  0  0  2  0  0  0  0  0  0
  194.5810  170.1500  142.9200 C   0  0  1  0  0  3  0  0  0  0  0  0
  194.8730  168.1720  144.2140 O   0  0  0  0  0  0  0  0  0  0  0  0
  195.7990  170.3140  143.7740 C   0  0  0  0  0  2  0  0  0  0  0  0
  196.0070  168.9710  144.4330 C   0  0  1  0  0  3  0  0  0  0  0  0
  196.7340  170.4220  145.9620 C   0  0  0  0  0  1  0  0  0  0  0  0
  196.1900  169.1430  145.8100 O   0  0  0  0  0  0  0  0  0  0  0  0
  195.4910  171.7430  139.5190 C   0  0  0  0  0  2  0  0  0  0  0  0
  196.9210  171.2170  139.5190 C   0  0  0  0  0  2  0  0  0  0  0  0
  197.8030  172.2120  139.9380 O   0  0  0  0  0  1  0  0  0  0  0  0
  4 22  1  0  0  0  0
  5 28  1  0  0  0  0
  6 12  1  0  0  0  0
  6 13  1  0  0  0  0
  7 20  2  0  0  0  0
  7 18  1  0  0  0  0
  8 12  1  0  0  0  0
  8  1  1  0  0  0  0
  9 21  1  0  0  0  0
  9 24  1  0  0  0  0
 11  3  1  6  0  0  0
 11 10  1  0  0  0  0
 13 27  1  6  0  0  0
 13 16  1  0  0  0  0
 14 27  1  6  0  0  0
 14 21  1  0  0  0  0
 14 28  1  0  0  0  0
 15 25  1  1  0  0  0
 15  2  1  0  0  0  0
 15  7  1  0  0  0  0
 16  1  1  6  0  0  0
 16 23  1  0  0  0  0
 17  3  1  0  0  0  0
 18  4  2  0  0  0  0
 19 31  1  1  0  0  0
 20 29  1  0  0  0  0
 21 34  1  6  0  0  0
 22 19  1  0  0  0  0
 23 17  1  0  0  0  0
 24  5  1  1  0  0  0
 24 15  1  0  0  0  0
 26 10  1  0  0  0  0
 26 19  1  0  0  0  0
 29 11  1  0  0  0  0
 29 22  2  0  0  0  0
 31 32  2  0  0  0  0
 31 30  1  0  0  0  0
 34 33  2  0  0  0  0
 35 37  1  0  0  0  0
 36 33  1  6  0  0  0
 36 35  1  0  0  0  0
 36 38  1  0  0  0  0
 37 39  1  0  0  0  0
 38 39  1  0  0  0  0
 39 41  1  1  0  0  0
 41 40  1  0  0  0  0
 42 34  1  0  0  0  0
 43 42  1  0  0  0  0
 43 44  1  0  0  0  0
M  END
>  <MODEL>
9

>  <REMARK>
 VINA RESULT:      -6.5      2.410      4.510
  Name = 
  6 active torsions:
  status: ('A' for Active; 'I' for Inactive)
    1  A    between atoms: C_6  and  C_30
    2  A    between atoms: C_17  and  C_24
    3  A    between atoms: O_18  and  C_41
    4  A    between atoms: C_25  and  C_27
    5  A    between atoms: C_28  and  C_30
    6  A    between atoms: C_28  and  C_32
                            x       y       z     vdW  Elec       q    Type
                         _______ _______ _______ _____ _____    ______ ____

>  <TORSDO>
F 6

$$$$
