=
 OpenBabel11062422073D

 34 40  0  0  1  0  0  0  0  0999 V2000
  188.0810  177.4100  143.1960 C   0  0  1  0  0  3  0  0  0  0  0  0
  189.0220  175.1770  142.5820 C   0  0  1  0  0  3  0  0  0  0  0  0
  190.3820  175.6110  145.3150 C   0  0  0  0  0  0  0  0  0  0  0  0
  187.1000  176.4900  143.9290 C   0  0  2  0  0  0  0  0  0  0  0  0
  189.1840  176.0770  145.0930 C   0  0  0  0  0  0  0  0  0  0  0  0
  188.5640  177.4770  146.8880 O   0  0  0  0  0  1  0  0  0  0  0  0
  191.5850  175.1410  145.5160 C   0  0  0  0  0  0  0  0  0  0  0  0
  188.2010  176.3290  146.1810 C   0  0  1  0  0  3  0  0  0  0  0  0
  188.5660  175.8410  141.2890 C   0  0  0  0  0  2  0  0  0  0  0  0
  188.5490  176.0740  143.7430 C   0  0  2  0  0  0  0  0  0  0  0  0
  188.0800  177.1780  141.7240 C   0  0  0  0  0  0  0  0  0  0  0  0
  186.2070  175.6900  143.2070 O   0  0  0  0  0  1  0  0  0  0  0  0
  187.7050  178.0250  140.9300 O   0  0  0  0  0  0  0  0  0  0  0  0
  185.8830  176.8560  145.9480 O   0  0  0  0  0  0  0  0  0  0  0  0
  186.9460  176.5870  145.4110 C   0  0  0  0  0  0  0  0  0  0  0  0
  194.1950  174.4670  143.2110 C   0  0  2  0  0  0  0  0  0  0  0  0
  194.0980  173.2280  143.9560 N   0  0  0  0  0  2  0  0  0  0  0  0
  195.6950  176.3040  143.4490 C   0  0  0  0  0  2  0  0  0  0  0  0
  194.6470  172.9760  141.1730 C   0  0  0  0  0  2  0  0  0  0  0  0
  192.2580  174.4110  144.4000 C   0  0  1  0  0  3  0  0  0  0  0  0
  194.6080  174.3360  141.8000 C   0  0  0  0  0  0  0  0  0  0  0  0
  193.7620  174.9530  140.7160 C   0  0  0  0  0  2  0  0  0  0  0  0
  195.6500  174.9040  142.7990 C   0  0  0  0  0  0  0  0  0  0  0  0
  193.0370  175.3580  143.5240 C   0  0  0  0  0  2  0  0  0  0  0  0
  193.1380  173.4290  144.9080 O   0  0  0  0  0  0  0  0  0  0  0  0
  196.0280  176.1820  142.0240 C   0  0  0  0  0  2  0  0  0  0  0  0
  193.7780  173.5670  140.0500 C   0  0  0  0  0  2  0  0  0  0  0  0
  189.3210  172.7510  143.5470 C   0  0  0  0  0  1  0  0  0  0  0  0
  188.6140  173.7270  142.6630 C   0  0  0  0  0  0  0  0  0  0  0  0
  187.7020  173.3240  141.9600 O   0  0  0  0  0  0  0  0  0  0  0  0
  192.2800  175.3080  146.8390 C   0  0  1  0  0  3  0  0  0  0  0  0
  193.2620  176.4700  146.8010 C   0  0  0  0  0  1  0  0  0  0  0  0
  191.2750  175.4850  147.9680 C   0  0  0  0  0  2  0  0  0  0  0  0
  191.3770  176.7700  148.5000 O   0  0  0  0  0  1  0  0  0  0  0  0
  1 11  1  6  0  0  0
  1 10  1  0  0  0  0
  1  4  1  0  0  0  0
  2 29  1  1  0  0  0
  2 10  1  0  0  0  0
  3  7  2  0  0  0  0
  4 12  1  6  0  0  0
  4 15  1  0  0  0  0
  5  3  2  0  0  0  0
  5  8  1  0  0  0  0
  7 31  1  0  0  0  0
  8  6  1  6  0  0  0
  9 11  1  0  0  0  0
  9  2  1  0  0  0  0
 10  4  1  0  0  0  0
 10  5  1  1  0  0  0
 13 11  2  0  0  0  0
 15 14  2  0  0  0  0
 15  8  1  0  0  0  0
 16 24  1  1  0  0  0
 16 17  1  0  0  0  0
 17 25  1  0  0  0  0
 19 21  1  0  0  0  0
 20 25  1  0  0  0  0
 20  7  1  1  0  0  0
 21 23  1  0  0  0  0
 21 16  1  0  0  0  0
 22 21  1  0  0  0  0
 23 16  1  0  0  0  0
 23 18  1  0  0  0  0
 24 20  1  0  0  0  0
 26 23  1  0  0  0  0
 26 18  1  0  0  0  0
 27 22  1  0  0  0  0
 27 19  1  0  0  0  0
 29 28  1  0  0  0  0
 30 29  2  0  0  0  0
 31 32  1  6  0  0  0
 31 33  1  0  0  0  0
 33 34  1  0  0  0  0
M  END
>  <MODEL>
1

>  <REMARK>
 VINA RESULT:      -7.4      0.000      0.000
  Name = 
  4 active torsions:
  status: ('A' for Active; 'I' for Inactive)
    1  A    between atoms: C_3  and  C_9
    2  A    between atoms: C_8  and  C_13
    3  A    between atoms: C_8  and  C_18
    4  A    between atoms: C_17  and  C_18
                            x       y       z     vdW  Elec       q    Type
                         _______ _______ _______ _____ _____    ______ ____

>  <TORSDO>
F 4

$$$$
=
 OpenBabel11062422073D

 34 40  0  0  1  0  0  0  0  0999 V2000
  191.9560  171.0820  143.1610 C   0  0  1  0  0  3  0  0  0  0  0  0
  191.5730  173.2010  141.8920 C   0  0  1  0  0  3  0  0  0  0  0  0
  192.4690  174.3460  144.6120 C   0  0  0  0  0  0  0  0  0  0  0  0
  193.3800  171.3680  142.6710 C   0  0  2  0  0  0  0  0  0  0  0  0
  192.9560  173.2160  144.1790 C   0  0  0  0  0  0  0  0  0  0  0  0
  194.2020  172.2070  145.9110 O   0  0  0  0  0  1  0  0  0  0  0  0
  191.9630  175.4760  145.0310 C   0  0  0  0  0  0  0  0  0  0  0  0
  194.2840  172.6930  144.6040 C   0  0  1  0  0  3  0  0  0  0  0  0
  190.7710  172.1110  141.1930 C   0  0  0  0  0  2  0  0  0  0  0  0
  192.4280  172.5130  142.9740 C   0  0  2  0  0  0  0  0  0  0  0  0
  190.9980  170.9050  142.0340 C   0  0  0  0  0  0  0  0  0  0  0  0
  193.6930  171.2660  141.3110 O   0  0  0  0  0  1  0  0  0  0  0  0
  190.4370  169.8440  141.8150 O   0  0  0  0  0  0  0  0  0  0  0  0
  195.4750  170.8410  143.6820 O   0  0  0  0  0  0  0  0  0  0  0  0
  194.4870  171.5570  143.6550 C   0  0  0  0  0  0  0  0  0  0  0  0
  188.9020  177.1210  144.3250 C   0  0  2  0  0  0  0  0  0  0  0  0
  189.8910  178.1180  143.9670 N   0  0  0  0  0  2  0  0  0  0  0  0
  187.6100  176.8640  146.3100 C   0  0  0  0  0  2  0  0  0  0  0  0
  187.5870  177.9870  142.2990 C   0  0  0  0  0  2  0  0  0  0  0  0
  190.9610  176.1690  144.1680 C   0  0  1  0  0  3  0  0  0  0  0  0
  187.6540  177.1450  143.5370 C   0  0  0  0  0  0  0  0  0  0  0  0
  187.1730  175.8860  142.8630 C   0  0  0  0  0  2  0  0  0  0  0  0
  187.5880  177.6720  144.9950 C   0  0  0  0  0  0  0  0  0  0  0  0
  189.5560  175.7990  144.5640 C   0  0  0  0  0  2  0  0  0  0  0  0
  191.1090  177.5720  144.2630 O   0  0  0  0  0  0  0  0  0  0  0  0
  186.3960  176.8260  145.4840 C   0  0  0  0  0  2  0  0  0  0  0  0
  187.0990  176.7200  141.5730 C   0  0  0  0  0  2  0  0  0  0  0  0
  192.3530  173.8000  139.4540 C   0  0  0  0  0  1  0  0  0  0  0  0
  192.3240  174.0790  140.9220 C   0  0  0  0  0  0  0  0  0  0  0  0
  192.9620  175.0280  141.3490 O   0  0  0  0  0  0  0  0  0  0  0  0
  192.3850  176.0850  146.3400 C   0  0  1  0  0  3  0  0  0  0  0  0
  191.7540  175.3530  147.5150 C   0  0  0  0  0  1  0  0  0  0  0  0
  193.9010  176.1110  146.4690 C   0  0  0  0  0  2  0  0  0  0  0  0
  194.4230  177.1840  145.7440 O   0  0  0  0  0  1  0  0  0  0  0  0
  1 11  1  6  0  0  0
  2 29  1  6  0  0  0
  2 10  1  0  0  0  0
  3  7  2  0  0  0  0
  4 12  1  6  0  0  0
  4 10  1  0  0  0  0
  4  1  1  0  0  0  0
  4 15  1  0  0  0  0
  5  8  1  0  0  0  0
  5  3  2  0  0  0  0
  7 31  1  0  0  0  0
  8  6  1  1  0  0  0
  9  2  1  0  0  0  0
  9 11  1  0  0  0  0
 10  1  1  0  0  0  0
 10  5  1  1  0  0  0
 13 11  2  0  0  0  0
 15 14  2  0  0  0  0
 15  8  1  0  0  0  0
 16 24  1  1  0  0  0
 16 23  1  0  0  0  0
 17 25  1  0  0  0  0
 17 16  1  0  0  0  0
 19 21  1  0  0  0  0
 20 25  1  0  0  0  0
 20 24  1  0  0  0  0
 20  7  1  1  0  0  0
 21 16  1  0  0  0  0
 21 23  1  0  0  0  0
 22 21  1  0  0  0  0
 23 26  1  0  0  0  0
 23 18  1  0  0  0  0
 26 18  1  0  0  0  0
 27 19  1  0  0  0  0
 27 22  1  0  0  0  0
 28 29  1  0  0  0  0
 29 30  2  0  0  0  0
 31 33  1  0  0  0  0
 31 32  1  1  0  0  0
 34 33  1  0  0  0  0
M  END
>  <MODEL>
2

>  <REMARK>
 VINA RESULT:      -7.3      2.842      6.568
  Name = 
  4 active torsions:
  status: ('A' for Active; 'I' for Inactive)
    1  A    between atoms: C_3  and  C_9
    2  A    between atoms: C_8  and  C_13
    3  A    between atoms: C_8  and  C_18
    4  A    between atoms: C_17  and  C_18
                            x       y       z     vdW  Elec       q    Type
                         _______ _______ _______ _____ _____    ______ ____

>  <TORSDO>
F 4

$$$$
=
 OpenBabel11062422073D

 34 40  0  0  1  0  0  0  0  0999 V2000
  195.9570  175.3610  142.2420 C   0  0  1  0  0  3  0  0  0  0  0  0
  194.9250  174.3380  144.2770 C   0  0  1  0  0  3  0  0  0  0  0  0
  193.0460  173.2320  142.0950 C   0  0  0  0  0  0  0  0  0  0  0  0
  196.6350  173.9870  142.2310 C   0  0  2  0  0  0  0  0  0  0  0  0
  194.3090  173.4330  141.8380 C   0  0  0  0  0  0  0  0  0  0  0  0
  194.6700  173.1670  139.5220 O   0  0  0  0  0  1  0  0  0  0  0  0
  191.7820  173.0440  142.3710 C   0  0  0  0  0  0  0  0  0  0  0  0
  195.0460  172.6910  140.7790 C   0  0  1  0  0  3  0  0  0  0  0  0
  195.7330  175.5420  144.7430 C   0  0  0  0  0  2  0  0  0  0  0  0
  195.2260  174.1420  142.7770 C   0  0  2  0  0  0  0  0  0  0  0  0
  196.2610  176.1290  143.4820 C   0  0  0  0  0  0  0  0  0  0  0  0
  197.5680  173.6510  143.2190 O   0  0  0  0  0  1  0  0  0  0  0  0
  196.8990  177.1690  143.4650 O   0  0  0  0  0  0  0  0  0  0  0  0
  197.4020  172.6800  140.3890 O   0  0  0  0  0  0  0  0  0  0  0  0
  196.4620  173.0760  141.0600 C   0  0  0  0  0  0  0  0  0  0  0  0
  190.1750  175.0320  144.8280 C   0  0  2  0  0  0  0  0  0  0  0  0
  189.4150  173.7990  144.8670 N   0  0  0  0  0  2  0  0  0  0  0  0
  189.7230  177.0970  143.7270 C   0  0  0  0  0  2  0  0  0  0  0  0
  189.8450  175.0830  147.3720 C   0  0  0  0  0  2  0  0  0  0  0  0
  191.2970  173.3790  143.7420 C   0  0  1  0  0  3  0  0  0  0  0  0
  190.2830  175.7590  146.1080 C   0  0  0  0  0  0  0  0  0  0  0  0
  191.6410  176.1460  146.6330 C   0  0  0  0  0  2  0  0  0  0  0  0
  189.3430  176.3540  145.0260 C   0  0  0  0  0  0  0  0  0  0  0  0
  191.4150  174.8560  144.0130 C   0  0  0  0  0  2  0  0  0  0  0  0
  189.9470  172.9920  143.9010 O   0  0  0  0  0  0  0  0  0  0  0  0
  189.9040  177.7900  145.0100 C   0  0  0  0  0  2  0  0  0  0  0  0
  191.2250  175.4540  147.9420 C   0  0  0  0  0  2  0  0  0  0  0  0
  194.1190  172.0330  145.2480 C   0  0  0  0  0  1  0  0  0  0  0  0
  195.1330  173.1270  145.1520 C   0  0  0  0  0  0  0  0  0  0  0  0
  196.1420  173.0510  145.8330 O   0  0  0  0  0  0  0  0  0  0  0  0
  190.8330  172.4860  141.3470 C   0  0  1  0  0  3  0  0  0  0  0  0
  190.8780  173.2930  140.0590 C   0  0  0  0  0  1  0  0  0  0  0  0
  191.1200  171.0160  141.0760 C   0  0  0  0  0  2  0  0  0  0  0  0
  190.5650  170.2280  142.0850 O   0  0  0  0  0  1  0  0  0  0  0  0
  1 10  1  0  0  0  0
  1 11  1  1  0  0  0
  2  9  1  0  0  0  0
  2 29  1  1  0  0  0
  3  7  2  0  0  0  0
  4  1  1  0  0  0  0
  4 10  1  0  0  0  0
  4 12  1  1  0  0  0
  5  3  2  0  0  0  0
  8  6  1  6  0  0  0
  8 15  1  0  0  0  0
  8  5  1  0  0  0  0
 10  5  1  6  0  0  0
 10  2  1  0  0  0  0
 11  9  1  0  0  0  0
 13 11  2  0  0  0  0
 14 15  2  0  0  0  0
 15  4  1  0  0  0  0
 16 24  1  6  0  0  0
 16 17  1  0  0  0  0
 16 23  1  0  0  0  0
 16 21  1  0  0  0  0
 18 26  1  0  0  0  0
 18 23  1  0  0  0  0
 19 27  1  0  0  0  0
 20  7  1  6  0  0  0
 20 25  1  0  0  0  0
 20 24  1  0  0  0  0
 21 22  1  0  0  0  0
 21 19  1  0  0  0  0
 22 27  1  0  0  0  0
 23 21  1  0  0  0  0
 25 17  1  0  0  0  0
 26 23  1  0  0  0  0
 29 28  1  0  0  0  0
 29 30  2  0  0  0  0
 31 32  1  6  0  0  0
 31  7  1  0  0  0  0
 33 31  1  0  0  0  0
 33 34  1  0  0  0  0
M  END
>  <MODEL>
3

>  <REMARK>
 VINA RESULT:      -6.7      2.886      7.714
  Name = 
  4 active torsions:
  status: ('A' for Active; 'I' for Inactive)
    1  A    between atoms: C_3  and  C_9
    2  A    between atoms: C_8  and  C_13
    3  A    between atoms: C_8  and  C_18
    4  A    between atoms: C_17  and  C_18
                            x       y       z     vdW  Elec       q    Type
                         _______ _______ _______ _____ _____    ______ ____

>  <TORSDO>
F 4

$$$$
=
 OpenBabel11062422073D

 34 40  0  0  1  0  0  0  0  0999 V2000
  191.1500  173.5610  139.9890 C   0  0  1  0  0  3  0  0  0  0  0  0
  190.1270  173.4100  142.2650 C   0  0  1  0  0  3  0  0  0  0  0  0
  188.2190  175.4390  140.9410 C   0  0  0  0  0  0  0  0  0  0  0  0
  190.0670  172.5080  139.7320 C   0  0  2  0  0  0  0  0  0  0  0  0
  188.7690  174.4920  140.2330 C   0  0  0  0  0  0  0  0  0  0  0  0
  188.3330  174.8940  137.9490 O   0  0  0  0  0  1  0  0  0  0  0  0
  187.6830  176.3840  141.6670 C   0  0  0  0  0  0  0  0  0  0  0  0
  188.1640  173.9660  138.9790 C   0  0  1  0  0  3  0  0  0  0  0  0
  191.5720  172.9470  142.3930 C   0  0  0  0  0  2  0  0  0  0  0  0
  189.8440  173.6030  140.7610 C   0  0  2  0  0  0  0  0  0  0  0  0
  192.1280  173.1230  141.0240 C   0  0  0  0  0  0  0  0  0  0  0  0
  190.1690  171.2350  140.3030 O   0  0  0  0  0  1  0  0  0  0  0  0
  193.3030  172.9210  140.7670 O   0  0  0  0  0  0  0  0  0  0  0  0
  188.8390  172.0380  137.7420 O   0  0  0  0  0  0  0  0  0  0  0  0
  189.0050  172.7590  138.7120 C   0  0  0  0  0  0  0  0  0  0  0  0
  189.7820  176.9530  144.4680 C   0  0  2  0  0  0  0  0  0  0  0  0
  188.6930  177.8820  144.6920 N   0  0  0  0  0  2  0  0  0  0  0  0
  191.9470  177.3010  143.5340 C   0  0  0  0  0  2  0  0  0  0  0  0
  189.7560  176.6210  147.0120 C   0  0  0  0  0  2  0  0  0  0  0  0
  188.0240  176.4450  143.1200 C   0  0  1  0  0  3  0  0  0  0  0  0
  190.4140  176.4030  145.6830 C   0  0  0  0  0  0  0  0  0  0  0  0
  190.5430  174.9100  145.8460 C   0  0  0  0  0  2  0  0  0  0  0  0
  191.2120  177.4660  144.8820 C   0  0  0  0  0  0  0  0  0  0  0  0
  189.4450  176.0070  143.3620 C   0  0  0  0  0  2  0  0  0  0  0  0
  187.8580  177.7580  143.6150 O   0  0  0  0  0  0  0  0  0  0  0  0
  192.5330  176.6860  144.7330 C   0  0  0  0  0  2  0  0  0  0  0  0
  189.8630  175.0990  147.2130 C   0  0  0  0  0  2  0  0  0  0  0  0
  189.5330  171.8380  144.2860 C   0  0  0  0  0  1  0  0  0  0  0  0
  189.1650  172.5140  143.0050 C   0  0  0  0  0  0  0  0  0  0  0  0
  188.0620  172.3020  142.5270 O   0  0  0  0  0  0  0  0  0  0  0  0
  186.7300  177.3830  141.0710 C   0  0  1  0  0  3  0  0  0  0  0  0
  186.5700  177.1650  139.5750 C   0  0  0  0  0  1  0  0  0  0  0  0
  185.3790  177.3390  141.7730 C   0  0  0  0  0  2  0  0  0  0  0  0
  184.9690  178.6320  142.0990 O   0  0  0  0  0  1  0  0  0  0  0  0
  1 10  1  0  0  0  0
  1 11  1  1  0  0  0
  2  9  1  0  0  0  0
  2 29  1  6  0  0  0
  3  7  2  0  0  0  0
  4  1  1  0  0  0  0
  4 12  1  1  0  0  0
  4 10  1  0  0  0  0
  5  3  2  0  0  0  0
  8  6  1  6  0  0  0
  8  5  1  0  0  0  0
 10  5  1  6  0  0  0
 10  2  1  0  0  0  0
 11  9  1  0  0  0  0
 13 11  2  0  0  0  0
 14 15  2  0  0  0  0
 15  8  1  0  0  0  0
 15  4  1  0  0  0  0
 16 24  1  6  0  0  0
 16 17  1  0  0  0  0
 16 23  1  0  0  0  0
 16 21  1  0  0  0  0
 18 26  1  0  0  0  0
 18 23  1  0  0  0  0
 19 27  1  0  0  0  0
 20  7  1  6  0  0  0
 20 24  1  0  0  0  0
 20 25  1  0  0  0  0
 21 22  1  0  0  0  0
 21 19  1  0  0  0  0
 22 27  1  0  0  0  0
 23 21  1  0  0  0  0
 25 17  1  0  0  0  0
 26 23  1  0  0  0  0
 29 28  1  0  0  0  0
 30 29  2  0  0  0  0
 31 32  1  6  0  0  0
 31  7  1  0  0  0  0
 31 33  1  0  0  0  0
 33 34  1  0  0  0  0
M  END
>  <MODEL>
4

>  <REMARK>
 VINA RESULT:      -6.6      2.808      6.454
  Name = 
  4 active torsions:
  status: ('A' for Active; 'I' for Inactive)
    1  A    between atoms: C_3  and  C_9
    2  A    between atoms: C_8  and  C_13
    3  A    between atoms: C_8  and  C_18
    4  A    between atoms: C_17  and  C_18
                            x       y       z     vdW  Elec       q    Type
                         _______ _______ _______ _____ _____    ______ ____

>  <TORSDO>
F 4

$$$$
=
 OpenBabel11062422073D

 34 40  0  0  1  0  0  0  0  0999 V2000
  192.2760  174.2010  146.0170 C   0  0  1  0  0  3  0  0  0  0  0  0
  192.5230  174.9340  143.6400 C   0  0  1  0  0  3  0  0  0  0  0  0
  189.6990  176.0120  144.2540 C   0  0  0  0  0  0  0  0  0  0  0  0
  192.7730  175.6350  146.2240 C   0  0  2  0  0  0  0  0  0  0  0  0
  190.6070  175.9690  145.1900 C   0  0  0  0  0  0  0  0  0  0  0  0
  189.5930  176.4640  147.2620 O   0  0  0  0  0  1  0  0  0  0  0  0
  188.8020  176.0410  143.3040 C   0  0  0  0  0  0  0  0  0  0  0  0
  190.5910  176.8710  146.3740 C   0  0  1  0  0  3  0  0  0  0  0  0
  193.5030  173.7890  143.8580 C   0  0  0  0  0  2  0  0  0  0  0  0
  191.9220  175.2860  145.0150 C   0  0  2  0  0  0  0  0  0  0  0  0
  193.2550  173.3680  145.2630 C   0  0  0  0  0  0  0  0  0  0  0  0
  194.0840  175.9850  145.8840 O   0  0  0  0  0  1  0  0  0  0  0  0
  193.8170  172.4080  145.7640 O   0  0  0  0  0  0  0  0  0  0  0  0
  192.3180  177.1660  147.9960 O   0  0  0  0  0  0  0  0  0  0  0  0
  191.9350  176.6170  146.9750 C   0  0  0  0  0  0  0  0  0  0  0  0
  189.5660  173.5790  140.8690 C   0  0  2  0  0  0  0  0  0  0  0  0
  188.4250  174.2580  140.2900 N   0  0  0  0  0  2  0  0  0  0  0  0
  189.6960  171.5410  142.0970 C   0  0  0  0  0  2  0  0  0  0  0  0
  190.4500  173.4360  138.4650 C   0  0  0  0  0  2  0  0  0  0  0  0
  189.1850  175.5430  141.9500 C   0  0  1  0  0  3  0  0  0  0  0  0
  190.5480  173.0410  139.9070 C   0  0  0  0  0  0  0  0  0  0  0  0
  192.0030  173.4080  140.0420 C   0  0  0  0  0  2  0  0  0  0  0  0
  189.6280  172.0230  140.6320 C   0  0  0  0  0  0  0  0  0  0  0  0
  190.0820  174.3360  142.0490 C   0  0  0  0  0  2  0  0  0  0  0  0
  188.0360  175.1980  141.2030 O   0  0  0  0  0  0  0  0  0  0  0  0
  190.7190  171.0690  141.1550 C   0  0  0  0  0  2  0  0  0  0  0  0
  191.9340  173.8290  138.5650 C   0  0  0  0  0  2  0  0  0  0  0  0
  194.4990  175.9980  142.2710 C   0  0  0  0  0  1  0  0  0  0  0  0
  193.1360  176.0840  142.8790 C   0  0  0  0  0  0  0  0  0  0  0  0
  192.5190  177.1320  142.7850 O   0  0  0  0  0  0  0  0  0  0  0  0
  187.4200  176.5780  143.5500 C   0  0  1  0  0  3  0  0  0  0  0  0
  187.0180  176.4160  145.0080 C   0  0  0  0  0  1  0  0  0  0  0  0
  187.3110  178.0330  143.1170 C   0  0  0  0  0  2  0  0  0  0  0  0
  186.6790  178.1140  141.8750 O   0  0  0  0  0  1  0  0  0  0  0  0
  1 11  1  6  0  0  0
  1  4  1  0  0  0  0
  2 29  1  1  0  0  0
  2  9  1  0  0  0  0
  2 10  1  0  0  0  0
  3  5  2  0  0  0  0
  4 12  1  6  0  0  0
  4 15  1  0  0  0  0
  5  8  1  0  0  0  0
  7 31  1  0  0  0  0
  7  3  2  0  0  0  0
  8 15  1  0  0  0  0
  8  6  1  1  0  0  0
  9 11  1  0  0  0  0
 10  5  1  1  0  0  0
 10  1  1  0  0  0  0
 10  4  1  0  0  0  0
 11 13  2  0  0  0  0
 15 14  2  0  0  0  0
 16 24  1  1  0  0  0
 17 16  1  0  0  0  0
 17 25  1  0  0  0  0
 19 27  1  0  0  0  0
 19 21  1  0  0  0  0
 20 24  1  0  0  0  0
 20  7  1  1  0  0  0
 21 22  1  0  0  0  0
 21 23  1  0  0  0  0
 21 16  1  0  0  0  0
 23 16  1  0  0  0  0
 23 26  1  0  0  0  0
 23 18  1  0  0  0  0
 25 20  1  0  0  0  0
 26 18  1  0  0  0  0
 27 22  1  0  0  0  0
 28 29  1  0  0  0  0
 30 29  2  0  0  0  0
 31 32  1  1  0  0  0
 33 31  1  0  0  0  0
 34 33  1  0  0  0  0
M  END
>  <MODEL>
5

>  <REMARK>
 VINA RESULT:      -6.5      2.210      5.726
  Name = 
  4 active torsions:
  status: ('A' for Active; 'I' for Inactive)
    1  A    between atoms: C_3  and  C_9
    2  A    between atoms: C_8  and  C_13
    3  A    between atoms: C_8  and  C_18
    4  A    between atoms: C_17  and  C_18
                            x       y       z     vdW  Elec       q    Type
                         _______ _______ _______ _____ _____    ______ ____

>  <TORSDO>
F 4

$$$$
=
 OpenBabel11062422073D

 34 40  0  0  1  0  0  0  0  0999 V2000
  189.3170  174.8340  145.5290 C   0  0  1  0  0  3  0  0  0  0  0  0
  191.6490  175.5420  144.9730 C   0  0  1  0  0  3  0  0  0  0  0  0
  190.9170  174.0040  142.4020 C   0  0  0  0  0  0  0  0  0  0  0  0
  189.0320  176.1150  144.7390 C   0  0  2  0  0  0  0  0  0  0  0  0
  190.0020  174.6620  143.0600 C   0  0  0  0  0  0  0  0  0  0  0  0
  187.8850  174.1340  142.1620 O   0  0  0  0  0  1  0  0  0  0  0  0
  191.8460  173.3470  141.7610 C   0  0  0  0  0  0  0  0  0  0  0  0
  188.7660  175.1870  142.4190 C   0  0  1  0  0  3  0  0  0  0  0  0
  191.5190  175.5820  146.4900 C   0  0  0  0  0  2  0  0  0  0  0  0
  190.2430  175.2620  144.4050 C   0  0  2  0  0  0  0  0  0  0  0  0
  190.1380  175.0920  146.7450 C   0  0  0  0  0  0  0  0  0  0  0  0
  189.3750  177.3640  145.2690 O   0  0  0  0  0  1  0  0  0  0  0  0
  189.7070  174.9160  147.8720 O   0  0  0  0  0  0  0  0  0  0  0  0
  187.1610  176.6790  143.3690 O   0  0  0  0  0  0  0  0  0  0  0  0
  188.2070  176.0600  143.4950 C   0  0  0  0  0  0  0  0  0  0  0  0
  194.6250  172.0640  143.5530 C   0  0  2  0  0  0  0  0  0  0  0  0
  195.1560  172.2300  142.2150 N   0  0  0  0  0  2  0  0  0  0  0  0
  193.7840  170.1270  144.6570 C   0  0  0  0  0  2  0  0  0  0  0  0
  196.9390  172.8300  144.3520 C   0  0  0  0  0  2  0  0  0  0  0  0
  193.2350  173.3640  142.3080 C   0  0  1  0  0  3  0  0  0  0  0  0
  195.5910  172.2510  144.6530 C   0  0  0  0  0  0  0  0  0  0  0  0
  195.2780  173.2220  145.7630 C   0  0  0  0  0  2  0  0  0  0  0  0
  195.1370  170.8000  144.3400 C   0  0  0  0  0  0  0  0  0  0  0  0
  193.2900  172.7250  143.6710 C   0  0  0  0  0  2  0  0  0  0  0  0
  194.1190  172.6770  141.4450 O   0  0  0  0  0  0  0  0  0  0  0  0
  194.7150  170.3860  145.7630 C   0  0  0  0  0  2  0  0  0  0  0  0
  196.6550  173.8440  145.4740 C   0  0  0  0  0  2  0  0  0  0  0  0
  191.9310  177.4020  143.1380 C   0  0  0  0  0  1  0  0  0  0  0  0
  192.3500  176.7580  144.4200 C   0  0  0  0  0  0  0  0  0  0  0  0
  193.3140  177.2120  145.0140 O   0  0  0  0  0  0  0  0  0  0  0  0
  191.5420  172.6000  140.4910 C   0  0  1  0  0  3  0  0  0  0  0  0
  190.9330  171.2380  140.7860 C   0  0  0  0  0  1  0  0  0  0  0  0
  190.6330  173.4140  139.5810 C   0  0  0  0  0  2  0  0  0  0  0  0
  189.3980  172.7790  139.4490 O   0  0  0  0  0  1  0  0  0  0  0  0
  1 11  1  1  0  0  0
  2 29  1  6  0  0  0
  2  9  1  0  0  0  0
  3  5  2  0  0  0  0
  4 12  1  1  0  0  0
  4  1  1  0  0  0  0
  7  3  2  0  0  0  0
  8  6  1  1  0  0  0
  8  5  1  0  0  0  0
  8 15  1  0  0  0  0
  9 11  1  0  0  0  0
 10  5  1  6  0  0  0
 10  4  1  0  0  0  0
 10  2  1  0  0  0  0
 10  1  1  0  0  0  0
 11 13  2  0  0  0  0
 14 15  2  0  0  0  0
 15  4  1  0  0  0  0
 16 24  1  1  0  0  0
 16 23  1  0  0  0  0
 16 21  1  0  0  0  0
 17 16  1  0  0  0  0
 18 26  1  0  0  0  0
 19 21  1  0  0  0  0
 19 27  1  0  0  0  0
 20  7  1  6  0  0  0
 20 24  1  0  0  0  0
 21 22  1  0  0  0  0
 23 21  1  0  0  0  0
 23 18  1  0  0  0  0
 23 26  1  0  0  0  0
 25 17  1  0  0  0  0
 25 20  1  0  0  0  0
 27 22  1  0  0  0  0
 28 29  1  0  0  0  0
 29 30  2  0  0  0  0
 31 32  1  1  0  0  0
 31  7  1  0  0  0  0
 33 31  1  0  0  0  0
 34 33  1  0  0  0  0
M  END
>  <MODEL>
6

>  <REMARK>
 VINA RESULT:      -6.4      2.547      5.244
  Name = 
  4 active torsions:
  status: ('A' for Active; 'I' for Inactive)
    1  A    between atoms: C_3  and  C_9
    2  A    between atoms: C_8  and  C_13
    3  A    between atoms: C_8  and  C_18
    4  A    between atoms: C_17  and  C_18
                            x       y       z     vdW  Elec       q    Type
                         _______ _______ _______ _____ _____    ______ ____

>  <TORSDO>
F 4

$$$$
=
 OpenBabel11062422073D

 34 40  0  0  1  0  0  0  0  0999 V2000
  185.8970  176.6360  144.3580 C   0  0  1  0  0  3  0  0  0  0  0  0
  188.2600  176.4820  145.1580 C   0  0  1  0  0  3  0  0  0  0  0  0
  188.6080  175.5420  142.2410 C   0  0  0  0  0  0  0  0  0  0  0  0
  186.4320  177.9940  143.8920 C   0  0  2  0  0  0  0  0  0  0  0  0
  187.7030  176.4320  142.5440 C   0  0  0  0  0  0  0  0  0  0  0  0
  186.3280  176.7960  140.6620 O   0  0  0  0  0  1  0  0  0  0  0  0
  189.5150  174.6450  141.9600 C   0  0  0  0  0  0  0  0  0  0  0  0
  187.1880  177.4260  141.5640 C   0  0  1  0  0  3  0  0  0  0  0  0
  187.3670  176.4390  146.3910 C   0  0  0  0  0  2  0  0  0  0  0  0
  187.3510  176.7860  143.9500 C   0  0  2  0  0  0  0  0  0  0  0  0
  185.9870  176.4720  145.8360 C   0  0  0  0  0  0  0  0  0  0  0  0
  186.7680  178.9800  144.8260 O   0  0  0  0  0  1  0  0  0  0  0  0
  184.9980  176.3720  146.5430 O   0  0  0  0  0  0  0  0  0  0  0  0
  185.8000  179.3180  142.0100 O   0  0  0  0  0  0  0  0  0  0  0  0
  186.4080  178.3510  142.4410 C   0  0  0  0  0  0  0  0  0  0  0  0
  191.9340  174.8020  144.5480 C   0  0  2  0  0  0  0  0  0  0  0  0
  190.7380  174.3900  145.2530 N   0  0  0  0  0  2  0  0  0  0  0  0
  192.9290  176.9540  144.3100 C   0  0  0  0  0  2  0  0  0  0  0  0
  193.1780  173.2210  146.1410 C   0  0  0  0  0  2  0  0  0  0  0  0
  190.3500  174.1050  143.0740 C   0  0  1  0  0  3  0  0  0  0  0  0
  193.2080  174.2940  145.0950 C   0  0  0  0  0  0  0  0  0  0  0  0
  194.1700  173.5670  144.1920 C   0  0  0  0  0  2  0  0  0  0  0  0
  192.8790  175.7930  145.3250 C   0  0  0  0  0  0  0  0  0  0  0  0
  191.7240  174.7230  143.0710 C   0  0  0  0  0  2  0  0  0  0  0  0
  189.7380  174.3570  144.3220 O   0  0  0  0  0  0  0  0  0  0  0  0
  194.1960  176.3940  144.7960 C   0  0  0  0  0  2  0  0  0  0  0  0
  194.1570  172.4440  145.2420 C   0  0  0  0  0  2  0  0  0  0  0  0
  190.0760  177.6350  146.6690 C   0  0  0  0  0  1  0  0  0  0  0  0
  189.4460  177.3970  145.3340 C   0  0  0  0  0  0  0  0  0  0  0  0
  189.8880  177.9930  144.3650 O   0  0  0  0  0  0  0  0  0  0  0  0
  189.7360  174.1720  140.5500 C   0  0  1  0  0  3  0  0  0  0  0  0
  190.4090  172.8080  140.5260 C   0  0  0  0  0  1  0  0  0  0  0  0
  188.4300  174.1460  139.7690 C   0  0  0  0  0  2  0  0  0  0  0  0
  188.1450  172.8420  139.3600 O   0  0  0  0  0  1  0  0  0  0  0  0
  1 11  1  1  0  0  0
  2 29  1  1  0  0  0
  2  9  1  0  0  0  0
  3  5  2  0  0  0  0
  4 10  1  0  0  0  0
  4  1  1  0  0  0  0
  4 12  1  1  0  0  0
  7  3  2  0  0  0  0
  8  6  1  6  0  0  0
  8 15  1  0  0  0  0
  8  5  1  0  0  0  0
 10  5  1  6  0  0  0
 10  1  1  0  0  0  0
 10  2  1  0  0  0  0
 11  9  1  0  0  0  0
 11 13  2  0  0  0  0
 14 15  2  0  0  0  0
 15  4  1  0  0  0  0
 16 24  1  6  0  0  0
 16 21  1  0  0  0  0
 16 17  1  0  0  0  0
 16 23  1  0  0  0  0
 18 26  1  0  0  0  0
 18 23  1  0  0  0  0
 20  7  1  6  0  0  0
 20 25  1  0  0  0  0
 21 23  1  0  0  0  0
 21 19  1  0  0  0  0
 22 21  1  0  0  0  0
 22 27  1  0  0  0  0
 24 20  1  0  0  0  0
 25 17  1  0  0  0  0
 26 23  1  0  0  0  0
 27 19  1  0  0  0  0
 29 28  1  0  0  0  0
 30 29  2  0  0  0  0
 31 32  1  1  0  0  0
 31  7  1  0  0  0  0
 33 31  1  0  0  0  0
 34 33  1  0  0  0  0
M  END
>  <MODEL>
7

>  <REMARK>
 VINA RESULT:      -6.4      2.249      4.872
  Name = 
  4 active torsions:
  status: ('A' for Active; 'I' for Inactive)
    1  A    between atoms: C_3  and  C_9
    2  A    between atoms: C_8  and  C_13
    3  A    between atoms: C_8  and  C_18
    4  A    between atoms: C_17  and  C_18
                            x       y       z     vdW  Elec       q    Type
                         _______ _______ _______ _____ _____    ______ ____

>  <TORSDO>
F 4

$$$$
=
 OpenBabel11062422073D

 34 40  0  0  1  0  0  0  0  0999 V2000
  187.4220  177.9800  143.5920 C   0  0  1  0  0  3  0  0  0  0  0  0
  188.7690  176.0400  142.7720 C   0  0  1  0  0  3  0  0  0  0  0  0
  190.1370  176.5470  145.4890 C   0  0  0  0  0  0  0  0  0  0  0  0
  186.6840  176.8260  144.2780 C   0  0  2  0  0  0  0  0  0  0  0  0
  188.8600  176.7700  145.3410 C   0  0  0  0  0  0  0  0  0  0  0  0
  188.0510  177.8780  147.2610 O   0  0  0  0  0  1  0  0  0  0  0  0
  191.4190  176.3230  145.6140 C   0  0  0  0  0  0  0  0  0  0  0  0
  187.8980  176.7340  146.4760 C   0  0  1  0  0  3  0  0  0  0  0  0
  188.1280  176.6870  141.5510 C   0  0  0  0  0  2  0  0  0  0  0  0
  188.1780  176.7330  144.0160 C   0  0  2  0  0  0  0  0  0  0  0  0
  187.4000  177.8590  142.1070 C   0  0  0  0  0  0  0  0  0  0  0  0
  185.9410  175.9130  143.5210 O   0  0  0  0  0  1  0  0  0  0  0  0
  186.8240  178.6660  141.3960 O   0  0  0  0  0  0  0  0  0  0  0  0
  185.5130  176.7850  146.3560 O   0  0  0  0  0  0  0  0  0  0  0  0
  186.5830  176.7810  145.7680 C   0  0  0  0  0  0  0  0  0  0  0  0
  192.2900  174.0010  143.0800 C   0  0  2  0  0  0  0  0  0  0  0  0
  191.8570  175.1560  142.3200 N   0  0  0  0  0  2  0  0  0  0  0  0
  191.1250  172.0070  143.6670 C   0  0  0  0  0  2  0  0  0  0  0  0
  194.0570  173.7050  141.2440 C   0  0  0  0  0  2  0  0  0  0  0  0
  192.1740  175.8310  144.4240 C   0  0  1  0  0  3  0  0  0  0  0  0
  193.3430  173.1790  142.4520 C   0  0  0  0  0  0  0  0  0  0  0  0
  194.6020  172.8670  143.2190 C   0  0  0  0  0  2  0  0  0  0  0  0
  191.9040  172.6000  142.4730 C   0  0  0  0  0  0  0  0  0  0  0  0
  192.4410  174.3520  144.5240 C   0  0  0  0  0  2  0  0  0  0  0  0
  191.4510  176.0860  143.2360 O   0  0  0  0  0  0  0  0  0  0  0  0
  192.2260  171.2250  143.0900 C   0  0  0  0  0  2  0  0  0  0  0  0
  195.3650  173.4060  141.9980 C   0  0  0  0  0  2  0  0  0  0  0  0
  188.4030  173.7750  141.4900 C   0  0  0  0  0  1  0  0  0  0  0  0
  188.6700  174.5350  142.7490 C   0  0  0  0  0  0  0  0  0  0  0  0
  188.7720  173.9160  143.7960 O   0  0  0  0  0  0  0  0  0  0  0  0
  192.1250  176.5350  146.9250 C   0  0  1  0  0  3  0  0  0  0  0  0
  191.5520  175.6370  148.0100 C   0  0  0  0  0  1  0  0  0  0  0  0
  193.6250  176.3190  146.7800 C   0  0  0  0  0  2  0  0  0  0  0  0
  194.2940  177.5390  146.8870 O   0  0  0  0  0  1  0  0  0  0  0  0
  1 11  1  6  0  0  0
  1 10  1  0  0  0  0
  1  4  1  0  0  0  0
  2 29  1  1  0  0  0
  2 10  1  0  0  0  0
  3  7  2  0  0  0  0
  4 12  1  6  0  0  0
  4 15  1  0  0  0  0
  5  3  2  0  0  0  0
  5  8  1  0  0  0  0
  7 31  1  0  0  0  0
  8  6  1  1  0  0  0
  9 11  1  0  0  0  0
  9  2  1  0  0  0  0
 10  4  1  0  0  0  0
 10  5  1  1  0  0  0
 13 11  2  0  0  0  0
 15 14  2  0  0  0  0
 15  8  1  0  0  0  0
 16 24  1  1  0  0  0
 17 16  1  0  0  0  0
 17 25  1  0  0  0  0
 19 27  1  0  0  0  0
 19 21  1  0  0  0  0
 20 24  1  0  0  0  0
 20  7  1  1  0  0  0
 21 23  1  0  0  0  0
 21 16  1  0  0  0  0
 21 22  1  0  0  0  0
 23 16  1  0  0  0  0
 23 26  1  0  0  0  0
 23 18  1  0  0  0  0
 25 20  1  0  0  0  0
 26 18  1  0  0  0  0
 27 22  1  0  0  0  0
 28 29  1  0  0  0  0
 29 30  2  0  0  0  0
 31 32  1  1  0  0  0
 33 34  1  0  0  0  0
 33 31  1  0  0  0  0
M  END
>  <MODEL>
8

>  <REMARK>
 VINA RESULT:      -6.3      1.614      2.437
  Name = 
  4 active torsions:
  status: ('A' for Active; 'I' for Inactive)
    1  A    between atoms: C_3  and  C_9
    2  A    between atoms: C_8  and  C_13
    3  A    between atoms: C_8  and  C_18
    4  A    between atoms: C_17  and  C_18
                            x       y       z     vdW  Elec       q    Type
                         _______ _______ _______ _____ _____    ______ ____

>  <TORSDO>
F 4

$$$$
=
 OpenBabel11062422073D

 34 40  0  0  1  0  0  0  0  0999 V2000
  188.9800  175.1370  145.3050 C   0  0  1  0  0  3  0  0  0  0  0  0
  191.4630  175.1820  145.5900 C   0  0  1  0  0  3  0  0  0  0  0  0
  191.2590  173.9690  142.7610 C   0  0  0  0  0  0  0  0  0  0  0  0
  189.3100  176.4650  144.6160 C   0  0  2  0  0  0  0  0  0  0  0  0
  190.3770  174.8400  143.1720 C   0  0  0  0  0  0  0  0  0  0  0  0
  188.6180  174.9420  141.6030 O   0  0  0  0  0  1  0  0  0  0  0  0
  192.1480  173.0940  142.3720 C   0  0  0  0  0  0  0  0  0  0  0  0
  189.6010  175.7020  142.2400 C   0  0  1  0  0  3  0  0  0  0  0  0
  190.8530  175.2200  146.9850 C   0  0  0  0  0  2  0  0  0  0  0  0
  190.3030  175.3160  144.5830 C   0  0  2  0  0  0  0  0  0  0  0  0
  189.3890  175.1280  146.7380 C   0  0  0  0  0  0  0  0  0  0  0  0
  189.7640  177.5560  145.3660 O   0  0  0  0  0  1  0  0  0  0  0  0
  188.5780  175.0520  147.6470 O   0  0  0  0  0  0  0  0  0  0  0  0
  188.2090  177.5590  142.8050 O   0  0  0  0  0  0  0  0  0  0  0  0
  188.9590  176.6720  143.1790 C   0  0  0  0  0  0  0  0  0  0  0  0
  195.0610  173.6200  144.3240 C   0  0  2  0  0  0  0  0  0  0  0  0
  194.0710  173.2610  145.3190 N   0  0  0  0  0  2  0  0  0  0  0  0
  195.8650  175.7560  143.6390 C   0  0  0  0  0  2  0  0  0  0  0  0
  196.7030  172.2710  145.7620 C   0  0  0  0  0  2  0  0  0  0  0  0
  193.2330  172.7120  143.3240 C   0  0  1  0  0  3  0  0  0  0  0  0
  196.4480  173.2140  144.6270 C   0  0  0  0  0  0  0  0  0  0  0  0
  197.2270  172.4130  143.6160 C   0  0  0  0  0  2  0  0  0  0  0  0
  196.0990  174.7210  144.7600 C   0  0  0  0  0  0  0  0  0  0  0  0
  194.5380  173.3630  142.9480 C   0  0  0  0  0  2  0  0  0  0  0  0
  192.8940  173.0920  144.6420 O   0  0  0  0  0  0  0  0  0  0  0  0
  197.2360  175.2910  143.8890 C   0  0  0  0  0  2  0  0  0  0  0  0
  197.5020  171.4210  144.7590 C   0  0  0  0  0  2  0  0  0  0  0  0
  193.4760  176.5620  146.5650 C   0  0  0  0  0  1  0  0  0  0  0  0
  192.5940  176.1670  145.4250 C   0  0  0  0  0  0  0  0  0  0  0  0
  192.7740  176.6900  144.3380 O   0  0  0  0  0  0  0  0  0  0  0  0
  192.1020  172.4920  140.9950 C   0  0  1  0  0  3  0  0  0  0  0  0
  190.9950  171.4550  140.8850 C   0  0  0  0  0  1  0  0  0  0  0  0
  191.9440  173.5690  139.9310 C   0  0  0  0  0  2  0  0  0  0  0  0
  190.7220  173.4140  139.2740 O   0  0  0  0  0  1  0  0  0  0  0  0
  1 11  1  1  0  0  0
  2 29  1  1  0  0  0
  2  9  1  0  0  0  0
  3  5  2  0  0  0  0
  4  1  1  0  0  0  0
  4 12  1  1  0  0  0
  7  3  2  0  0  0  0
  8  6  1  1  0  0  0
  8  5  1  0  0  0  0
  8 15  1  0  0  0  0
 10  5  1  6  0  0  0
 10  4  1  0  0  0  0
 10  1  1  0  0  0  0
 10  2  1  0  0  0  0
 11  9  1  0  0  0  0
 11 13  2  0  0  0  0
 14 15  2  0  0  0  0
 15  4  1  0  0  0  0
 16 24  1  6  0  0  0
 16 21  1  0  0  0  0
 16 23  1  0  0  0  0
 16 17  1  0  0  0  0
 18 26  1  0  0  0  0
 18 23  1  0  0  0  0
 20  7  1  6  0  0  0
 20 25  1  0  0  0  0
 21 23  1  0  0  0  0
 21 19  1  0  0  0  0
 22 21  1  0  0  0  0
 22 27  1  0  0  0  0
 24 20  1  0  0  0  0
 25 17  1  0  0  0  0
 26 23  1  0  0  0  0
 27 19  1  0  0  0  0
 29 28  1  0  0  0  0
 30 29  2  0  0  0  0
 31 32  1  1  0  0  0
 31  7  1  0  0  0  0
 33 31  1  0  0  0  0
 34 33  1  0  0  0  0
M  END
>  <MODEL>
9

>  <REMARK>
 VINA RESULT:      -6.3      2.155      4.870
  Name = 
  4 active torsions:
  status: ('A' for Active; 'I' for Inactive)
    1  A    between atoms: C_3  and  C_9
    2  A    between atoms: C_8  and  C_13
    3  A    between atoms: C_8  and  C_18
    4  A    between atoms: C_17  and  C_18
                            x       y       z     vdW  Elec       q    Type
                         _______ _______ _______ _____ _____    ______ ____

>  <TORSDO>
F 4

$$$$
