=
 OpenBabel11062421413D

 41 44  0  0  1  0  0  0  0  0999 V2000
  194.6580  173.1300  144.2990 C   0  0  1  0  0  3  0  0  0  0  0  0
  192.9940  174.6150  145.4360 C   0  0  1  0  0  3  0  0  0  0  0  0
  187.4080  176.0690  146.8880 O   0  0  0  0  0  0  0  0  0  0  0  0
  193.7630  175.6220  143.2950 C   0  0  0  0  0  2  0  0  0  0  0  0
  188.3950  178.0360  144.1040 C   0  0  0  0  0  2  0  0  0  0  0  0
  190.3260  176.5860  143.6950 C   0  0  0  0  0  3  0  0  0  0  0  0
  190.3090  175.7890  146.4420 C   0  0  0  0  0  2  0  0  0  0  0  0
  193.9920  175.5700  144.8070 C   0  0  2  0  0  3  0  0  0  0  0  0
  191.5650  176.6680  143.3010 C   0  0  0  0  0  0  0  0  0  0  0  0
  188.0270  176.7160  146.0010 C   0  0  0  0  0  0  0  0  0  0  0  0
  189.4740  177.0090  146.0550 C   0  0  2  0  0  3  0  0  0  0  0  0
  192.8170  176.7210  142.9320 C   0  0  0  0  0  3  0  0  0  0  0  0
  189.7600  177.5930  144.6510 C   0  0  2  0  0  3  0  0  0  0  0  0
  194.4540  174.2160  145.3560 C   0  0  2  0  0  3  0  0  0  0  0  0
  192.6710  175.0600  146.8530 C   0  0  0  0  0  2  0  0  0  0  0  0
  187.3980  177.3070  144.8730 N   0  0  0  0  0  0  0  0  0  0  0  0
  191.7060  176.2360  146.8440 C   0  0  0  0  0  2  0  0  0  0  0  0
  184.9680  177.7460  145.4760 C   0  0  0  0  0  1  0  0  0  0  0  0
  185.6000  176.7840  143.3490 C   0  0  0  0  0  2  0  0  0  0  0  0
  186.0020  177.2530  144.5230 C   0  0  0  0  0  0  0  0  0  0  0  0
  195.9840  173.0520  141.7590 O   0  0  0  0  0  0  0  0  0  0  0  0
  196.6760  172.8670  142.7930 C   0  0  0  0  0  3  0  0  0  0  0  0
  196.0840  172.9160  144.0920 N   0  0  0  0  0  2  0  0  0  0  0  0
  193.9900  171.8460  144.7070 C   0  0  0  0  0  0  0  0  0  0  0  0
  194.2190  171.3810  145.8120 O   0  0  0  0  0  0  0  0  0  0  0  0
  193.0730  171.1150  143.7730 C   0  0  0  0  0  2  0  0  0  0  0  0
  190.5270  173.3410  142.0450 C   0  0  0  0  0  0  0  0  0  0  0  0
  190.8420  172.0020  144.4890 C   0  0  0  0  0  3  0  0  0  0  0  0
  191.6770  172.5770  142.2910 C   0  0  0  0  0  3  0  0  0  0  0  0
  189.5390  173.4300  143.0330 C   0  0  0  0  0  3  0  0  0  0  0  0
  191.8380  171.9110  143.5090 C   0  0  0  0  0  0  0  0  0  0  0  0
  189.6940  172.7610  144.2510 C   0  0  0  0  0  3  0  0  0  0  0  0
  190.3380  174.0170  140.8340 O   0  0  0  0  0  0  0  0  0  0  0  0
  188.8810  173.9250  139.9200 P   0  0  1  0  0  0  0  0  0  0  0  0
  188.1140  172.6900  140.3320 O   0  0  0  0  0  1  0  0  0  0  0  0
  187.9410  175.2970  140.2240 O   0  0  0  0  0  0  0  0  0  0  0  0
  189.2900  173.8260  138.1500 C   0  0  0  0  0  2  0  0  0  0  0  0
  190.8480  171.5130  138.8500 O   0  0  0  0  0  1  0  0  0  0  0  0
  190.8350  172.9040  137.8870 P   0  0  0  0  0  0  0  0  0  0  0  0
  190.9350  172.4550  136.2610 O   0  0  0  0  0  0  0  0  0  0  0  0
  192.0200  173.7710  138.2370 O   0  0  0  0  0  1  0  0  0  0  0  0
  1 23  1  1  0  0  0
  1 24  1  0  0  0  0
  2 15  1  1  0  0  0
  5 13  1  0  0  0  0
  5 16  1  0  0  0  0
  7 17  1  0  0  0  0
  8  4  1  6  0  0  0
  8 14  1  0  0  0  0
  8  2  1  0  0  0  0
  9  6  2  0  0  0  0
 10 11  1  0  0  0  0
 10  3  2  0  0  0  0
 11  7  1  6  0  0  0
 12  4  1  0  0  0  0
 12  9  2  0  0  0  0
 13  6  1  6  0  0  0
 13 11  1  0  0  0  0
 14  1  1  6  0  0  0
 14  2  1  0  0  0  0
 16 10  1  0  0  0  0
 17 15  1  0  0  0  0
 19 20  2  0  0  0  0
 20 16  1  0  0  0  0
 20 18  1  0  0  0  0
 21 22  2  0  0  0  0
 22 23  1  0  0  0  0
 24 25  2  0  0  0  0
 26 24  1  0  0  0  0
 27 29  2  0  0  0  0
 27 30  1  0  0  0  0
 29 31  1  0  0  0  0
 30 32  2  0  0  0  0
 31 26  1  0  0  0  0
 31 28  2  0  0  0  0
 32 28  1  0  0  0  0
 33 27  1  0  0  0  0
 34 36  2  1  0  0  0
 34 35  1  0  0  0  0
 34 33  1  0  0  0  0
 37 34  1  0  0  0  0
 39 37  1  0  0  0  0
 39 41  1  0  0  0  0
 39 38  1  0  0  0  0
 40 39  2  0  0  0  0
M  END
>  <MODEL>
1

>  <REMARK>
 VINA RESULT:      -6.7      0.000      0.000
  Name = 
  10 active torsions:
  status: ('A' for Active; 'I' for Inactive)
    1  A    between atoms: P_1  and  C_37
    2  A    between atoms: P_1  and  O_40
    3  A    between atoms: C_7  and  O_40
    4  A    between atoms: C_11  and  C_24
    5  A    between atoms: C_11  and  C_39
    6  A    between atoms: C_19  and  N_32
    7  A    between atoms: C_24  and  C_29
    8  A    between atoms: C_28  and  C_39
    9  A    between atoms: P_30  and  C_37
   10  A    between atoms: N_36  and  C_39
                            x       y       z     vdW  Elec       q    Type
                         _______ _______ _______ _____ _____    ______ ____

>  <TORSDO>
F 10

$$$$
=
 OpenBabel11062421413D

 41 44  0  0  1  0  0  0  0  0999 V2000
  186.9270  176.5960  143.2240 C   0  0  1  0  0  3  0  0  0  0  0  0
  189.3660  177.0500  143.5640 C   0  0  1  0  0  3  0  0  0  0  0  0
  195.0860  175.4420  143.2250 O   0  0  0  0  0  0  0  0  0  0  0  0
  188.2760  176.4160  145.7080 C   0  0  0  0  0  2  0  0  0  0  0  0
  193.9560  174.8840  146.5420 C   0  0  0  0  0  2  0  0  0  0  0  0
  191.6200  175.1090  145.8410 C   0  0  0  0  0  3  0  0  0  0  0  0
  192.4420  176.6910  143.6050 C   0  0  0  0  0  2  0  0  0  0  0  0
  188.7000  177.5860  144.8170 C   0  0  2  0  0  3  0  0  0  0  0  0
  190.4900  175.5850  146.2850 C   0  0  0  0  0  0  0  0  0  0  0  0
  194.4890  175.4480  144.3340 C   0  0  0  0  0  0  0  0  0  0  0  0
  193.4670  176.4470  144.7120 C   0  0  2  0  0  3  0  0  0  0  0  0
  189.3490  176.0720  146.6910 C   0  0  0  0  0  3  0  0  0  0  0  0
  192.8960  175.8720  146.0320 C   0  0  2  0  0  3  0  0  0  0  0  0
  187.9870  177.6720  143.4640 C   0  0  2  0  0  3  0  0  0  0  0  0
  190.4030  178.0420  143.0620 C   0  0  0  0  0  2  0  0  0  0  0  0
  194.7740  174.5410  145.3890 N   0  0  0  0  0  0  0  0  0  0  0  0
  191.6710  177.9680  143.9000 C   0  0  0  0  0  2  0  0  0  0  0  0
  197.1280  173.6980  145.8460 C   0  0  0  0  0  1  0  0  0  0  0  0
  195.4000  172.2460  144.9800 C   0  0  0  0  0  2  0  0  0  0  0  0
  195.7320  173.4660  145.3810 C   0  0  0  0  0  0  0  0  0  0  0  0
  185.1790  177.6080  145.2580 O   0  0  0  0  0  0  0  0  0  0  0  0
  184.8030  177.6930  144.0600 C   0  0  0  0  0  3  0  0  0  0  0  0
  185.6360  177.2300  142.9950 N   0  0  0  0  0  2  0  0  0  0  0  0
  187.2960  175.7230  142.0580 C   0  0  0  0  0  0  0  0  0  0  0  0
  187.4260  176.2270  140.9550 O   0  0  0  0  0  0  0  0  0  0  0  0
  187.4790  174.2430  142.2210 C   0  0  0  0  0  2  0  0  0  0  0  0
  191.1700  173.8570  141.4160 C   0  0  0  0  0  0  0  0  0  0  0  0
  189.3930  173.2560  143.5010 C   0  0  0  0  0  3  0  0  0  0  0  0
  189.8140  174.1970  141.3110 C   0  0  0  0  0  3  0  0  0  0  0  0
  191.6270  173.2130  142.5720 C   0  0  0  0  0  3  0  0  0  0  0  0
  188.9250  173.8970  142.3470 C   0  0  0  0  0  0  0  0  0  0  0  0
  190.7420  172.9140  143.6130 C   0  0  0  0  0  3  0  0  0  0  0  0
  192.0830  174.1480  140.3960 O   0  0  0  0  0  0  0  0  0  0  0  0
  192.2590  173.1800  138.9820 P   0  0  1  0  0  0  0  0  0  0  0  0
  191.7990  171.7720  139.2850 O   0  0  0  0  0  1  0  0  0  0  0  0
  191.3110  173.8260  137.7400 O   0  0  0  0  0  0  0  0  0  0  0  0
  194.0080  173.1570  138.4860 C   0  0  0  0  0  2  0  0  0  0  0  0
  194.7800  175.5900  139.8090 O   0  0  0  0  0  1  0  0  0  0  0  0
  194.6560  174.8440  138.2960 P   0  0  0  0  0  0  0  0  0  0  0  0
  196.1900  174.7660  137.5890 O   0  0  0  0  0  1  0  0  0  0  0  0
  193.7400  175.6520  137.4080 O   0  0  0  0  0  0  0  0  0  0  0  0
  1 24  1  6  0  0  0
  2 15  1  6  0  0  0
  2  8  1  0  0  0  0
  3 10  2  0  0  0  0
  4 12  1  0  0  0  0
  6  9  2  0  0  0  0
  7 17  1  0  0  0  0
  8  4  1  1  0  0  0
  9 12  2  0  0  0  0
 10 11  1  0  0  0  0
 10 16  1  0  0  0  0
 11  7  1  6  0  0  0
 11 13  1  0  0  0  0
 13  6  1  6  0  0  0
 13  5  1  0  0  0  0
 14  1  1  1  0  0  0
 14  2  1  0  0  0  0
 14  8  1  0  0  0  0
 15 17  1  0  0  0  0
 16  5  1  0  0  0  0
 19 20  2  0  0  0  0
 20 16  1  0  0  0  0
 20 18  1  0  0  0  0
 22 21  2  0  0  0  0
 23  1  1  0  0  0  0
 23 22  1  0  0  0  0
 24 26  1  0  0  0  0
 25 24  2  0  0  0  0
 26 31  1  0  0  0  0
 27 30  1  0  0  0  0
 28 32  1  0  0  0  0
 29 27  2  0  0  0  0
 29 31  1  0  0  0  0
 30 32  2  0  0  0  0
 31 28  2  0  0  0  0
 33 27  1  0  0  0  0
 34 36  2  6  0  0  0
 34 35  1  0  0  0  0
 34 33  1  0  0  0  0
 37 34  1  0  0  0  0
 39 37  1  0  0  0  0
 39 38  1  0  0  0  0
 40 39  1  0  0  0  0
 41 39  2  0  0  0  0
M  END
>  <MODEL>
2

>  <REMARK>
 VINA RESULT:      -6.6      2.017      6.670
  Name = 
  10 active torsions:
  status: ('A' for Active; 'I' for Inactive)
    1  A    between atoms: P_1  and  C_37
    2  A    between atoms: P_1  and  O_40
    3  A    between atoms: C_7  and  O_40
    4  A    between atoms: C_11  and  C_24
    5  A    between atoms: C_11  and  C_39
    6  A    between atoms: C_19  and  N_32
    7  A    between atoms: C_24  and  C_29
    8  A    between atoms: C_28  and  C_39
    9  A    between atoms: P_30  and  C_37
   10  A    between atoms: N_36  and  C_39
                            x       y       z     vdW  Elec       q    Type
                         _______ _______ _______ _____ _____    ______ ____

>  <TORSDO>
F 10

$$$$
=
 OpenBabel11062421413D

 41 44  0  0  1  0  0  0  0  0999 V2000
  187.1400  176.5850  143.8360 C   0  0  1  0  0  3  0  0  0  0  0  0
  189.5970  177.0640  143.8210 C   0  0  1  0  0  3  0  0  0  0  0  0
  195.2500  175.4060  142.9730 O   0  0  0  0  0  0  0  0  0  0  0  0
  188.7830  176.6850  146.1410 C   0  0  0  0  0  2  0  0  0  0  0  0
  194.5370  175.2360  146.4450 C   0  0  0  0  0  2  0  0  0  0  0  0
  192.1310  175.3880  146.0130 C   0  0  0  0  0  3  0  0  0  0  0  0
  192.6600  176.7000  143.5270 C   0  0  0  0  0  2  0  0  0  0  0  0
  189.0830  177.7430  145.0770 C   0  0  2  0  0  3  0  0  0  0  0  0
  191.0590  175.9160  146.5340 C   0  0  0  0  0  0  0  0  0  0  0  0
  194.7920  175.5410  144.1380 C   0  0  0  0  0  0  0  0  0  0  0  0
  193.8130  176.5810  144.5220 C   0  0  2  0  0  3  0  0  0  0  0  0
  189.9710  176.4520  147.0190 C   0  0  0  0  0  3  0  0  0  0  0  0
  193.4130  176.1630  145.9580 C   0  0  2  0  0  3  0  0  0  0  0  0
  188.2110  177.6770  143.8200 C   0  0  2  0  0  3  0  0  0  0  0  0
  190.5560  177.9890  143.0870 C   0  0  0  0  0  2  0  0  0  0  0  0
  195.2120  174.7600  145.2470 N   0  0  0  0  0  0  0  0  0  0  0  0
  191.9170  178.0060  143.7660 C   0  0  0  0  0  2  0  0  0  0  0  0
  195.7240  172.2740  145.1000 C   0  0  0  0  0  1  0  0  0  0  0  0
  197.4740  173.9240  145.3550 C   0  0  0  0  0  2  0  0  0  0  0  0
  196.1730  173.6870  145.2450 C   0  0  0  0  0  0  0  0  0  0  0  0
  185.7030  176.6560  146.3150 O   0  0  0  0  0  0  0  0  0  0  0  0
  185.1610  177.1710  145.3020 C   0  0  0  0  0  3  0  0  0  0  0  0
  185.8320  177.1920  144.0410 N   0  0  0  0  0  2  0  0  0  0  0  0
  187.1560  175.7930  142.5590 C   0  0  0  0  0  0  0  0  0  0  0  0
  186.9510  176.3650  141.5010 O   0  0  0  0  0  0  0  0  0  0  0  0
  187.3900  174.3120  142.5640 C   0  0  0  0  0  2  0  0  0  0  0  0
  190.9860  173.9160  141.4110 C   0  0  0  0  0  0  0  0  0  0  0  0
  189.4520  173.4830  143.7190 C   0  0  0  0  0  3  0  0  0  0  0  0
  189.6170  174.2210  141.4200 C   0  0  0  0  0  3  0  0  0  0  0  0
  191.5780  173.3920  142.5670 C   0  0  0  0  0  3  0  0  0  0  0  0
  188.8500  174.0040  142.5670 C   0  0  0  0  0  0  0  0  0  0  0  0
  190.8150  173.1770  143.7180 C   0  0  0  0  0  3  0  0  0  0  0  0
  191.7800  174.1260  140.2780 O   0  0  0  0  0  0  0  0  0  0  0  0
  191.8700  173.0100  138.9690 P   0  0  1  0  0  0  0  0  0  0  0  0
  193.2460  172.3850  138.9430 O   0  0  0  0  0  0  0  0  0  0  0  0
  190.7080  171.8000  139.1840 O   0  0  0  0  0  1  0  0  0  0  0  0
  191.5720  173.8930  137.4080 C   0  0  0  0  0  2  0  0  0  0  0  0
  189.4900  172.1910  136.3920 O   0  0  0  0  0  1  0  0  0  0  0  0
  189.8300  173.7670  136.9070 P   0  0  0  0  0  0  0  0  0  0  0  0
  188.8500  174.1410  138.2320 O   0  0  0  0  0  1  0  0  0  0  0  0
  189.5430  174.7370  135.7860 O   0  0  0  0  0  0  0  0  0  0  0  0
  1 24  1  6  0  0  0
  1 23  1  0  0  0  0
  2 15  1  6  0  0  0
  2  8  1  0  0  0  0
  3 10  2  0  0  0  0
  4 12  1  0  0  0  0
  6  9  2  0  0  0  0
  7 17  1  0  0  0  0
  8  4  1  1  0  0  0
  9 12  2  0  0  0  0
 10 11  1  0  0  0  0
 10 16  1  0  0  0  0
 11  7  1  6  0  0  0
 11 13  1  0  0  0  0
 13  6  1  6  0  0  0
 13  5  1  0  0  0  0
 14  2  1  0  0  0  0
 14  1  1  1  0  0  0
 14  8  1  0  0  0  0
 15 17  1  0  0  0  0
 16  5  1  0  0  0  0
 18 20  1  0  0  0  0
 20 16  1  0  0  0  0
 20 19  2  0  0  0  0
 22 21  2  0  0  0  0
 23 22  1  0  0  0  0
 24 26  1  0  0  0  0
 25 24  2  0  0  0  0
 26 31  1  0  0  0  0
 27 29  2  0  0  0  0
 27 30  1  0  0  0  0
 29 31  1  0  0  0  0
 30 32  2  0  0  0  0
 31 28  2  0  0  0  0
 32 28  1  0  0  0  0
 33 27  1  0  0  0  0
 34 35  2  6  0  0  0
 34 36  1  0  0  0  0
 34 33  1  0  0  0  0
 37 34  1  0  0  0  0
 38 39  1  0  0  0  0
 39 37  1  0  0  0  0
 39 40  1  0  0  0  0
 41 39  2  0  0  0  0
M  END
>  <MODEL>
3

>  <REMARK>
 VINA RESULT:      -6.6      1.778      6.573
  Name = 
  10 active torsions:
  status: ('A' for Active; 'I' for Inactive)
    1  A    between atoms: P_1  and  C_37
    2  A    between atoms: P_1  and  O_40
    3  A    between atoms: C_7  and  O_40
    4  A    between atoms: C_11  and  C_24
    5  A    between atoms: C_11  and  C_39
    6  A    between atoms: C_19  and  N_32
    7  A    between atoms: C_24  and  C_29
    8  A    between atoms: C_28  and  C_39
    9  A    between atoms: P_30  and  C_37
   10  A    between atoms: N_36  and  C_39
                            x       y       z     vdW  Elec       q    Type
                         _______ _______ _______ _____ _____    ______ ____

>  <TORSDO>
F 10

$$$$
=
 OpenBabel11062421413D

 41 44  0  0  1  0  0  0  0  0999 V2000
  187.8430  177.3820  143.5880 C   0  0  1  0  0  3  0  0  0  0  0  0
  190.2620  176.9050  144.0230 C   0  0  1  0  0  3  0  0  0  0  0  0
  195.3930  174.2100  142.6670 O   0  0  0  0  0  0  0  0  0  0  0  0
  188.8110  175.5790  145.5470 C   0  0  0  0  0  2  0  0  0  0  0  0
  193.7870  172.3490  145.2270 C   0  0  0  0  0  2  0  0  0  0  0  0
  191.6790  173.5350  144.8410 C   0  0  0  0  0  3  0  0  0  0  0  0
  193.1240  175.7490  143.7510 C   0  0  0  0  0  2  0  0  0  0  0  0
  189.6150  176.8720  145.3950 C   0  0  2  0  0  3  0  0  0  0  0  0
  190.6630  174.0000  145.5120 C   0  0  0  0  0  0  0  0  0  0  0  0
  194.6940  173.8040  143.6340 C   0  0  0  0  0  0  0  0  0  0  0  0
  193.9200  174.6970  144.5210 C   0  0  2  0  0  3  0  0  0  0  0  0
  189.6430  174.4980  146.1580 C   0  0  0  0  0  3  0  0  0  0  0  0
  193.0760  173.7050  145.3580 C   0  0  2  0  0  3  0  0  0  0  0  0
  189.1060  177.8390  144.3200 C   0  0  2  0  0  3  0  0  0  0  0  0
  191.5660  177.6850  144.0830 C   0  0  0  0  0  2  0  0  0  0  0  0
  194.6190  172.4440  144.0370 N   0  0  0  0  0  0  0  0  0  0  0  0
  192.6710  176.8430  144.7060 C   0  0  0  0  0  2  0  0  0  0  0  0
  194.6480  170.6300  142.2570 C   0  0  0  0  0  1  0  0  0  0  0  0
  196.4360  170.8650  143.8680 C   0  0  0  0  0  2  0  0  0  0  0  0
  195.2690  171.3150  143.4250 C   0  0  0  0  0  0  0  0  0  0  0  0
  185.5810  176.7150  145.2170 O   0  0  0  0  0  0  0  0  0  0  0  0
  185.6310  177.8700  144.7190 C   0  0  0  0  0  3  0  0  0  0  0  0
  186.7420  178.2760  143.9170 N   0  0  0  0  0  2  0  0  0  0  0  0
  188.0630  177.3460  142.1020 C   0  0  0  0  0  0  0  0  0  0  0  0
  188.6300  178.2810  141.5610 O   0  0  0  0  0  0  0  0  0  0  0  0
  187.5730  176.1980  141.2700 C   0  0  0  0  0  2  0  0  0  0  0  0
  190.3920  173.6660  141.5140 C   0  0  0  0  0  0  0  0  0  0  0  0
  187.6860  173.8820  142.2190 C   0  0  0  0  0  3  0  0  0  0  0  0
  189.6800  174.8420  141.2370 C   0  0  0  0  0  3  0  0  0  0  0  0
  189.7380  172.6010  142.1450 C   0  0  0  0  0  3  0  0  0  0  0  0
  188.3310  174.9520  141.5850 C   0  0  0  0  0  0  0  0  0  0  0  0
  188.3890  172.7080  142.4980 C   0  0  0  0  0  3  0  0  0  0  0  0
  191.7450  173.5280  141.1800 O   0  0  0  0  0  0  0  0  0  0  0  0
  192.2840  172.9560  139.6480 P   0  0  1  0  0  0  0  0  0  0  0  0
  191.6810  173.8130  138.5580 O   0  0  0  0  0  0  0  0  0  0  0  0
  193.9710  173.0590  139.5740 O   0  0  0  0  0  1  0  0  0  0  0  0
  191.7520  171.2310  139.4320 C   0  0  0  0  0  2  0  0  0  0  0  0
  190.8500  171.5640  136.7220 O   0  0  0  0  0  0  0  0  0  0  0  0
  190.3530  171.1190  138.2770 P   0  0  0  0  0  0  0  0  0  0  0  0
  189.7950  169.5230  138.2450 O   0  0  0  0  0  1  0  0  0  0  0  0
  189.2350  172.0270  138.7290 O   0  0  0  0  0  1  0  0  0  0  0  0
  1 24  1  6  0  0  0
  1 23  1  0  0  0  0
  2 15  1  1  0  0  0
  2 14  1  0  0  0  0
  2  8  1  0  0  0  0
  3 10  2  0  0  0  0
  4 12  1  0  0  0  0
  5 13  1  0  0  0  0
  6  9  2  0  0  0  0
  7 17  1  0  0  0  0
  8  4  1  6  0  0  0
  9 12  2  0  0  0  0
 10 16  1  0  0  0  0
 10 11  1  0  0  0  0
 11  7  1  6  0  0  0
 11 13  1  0  0  0  0
 13  6  1  6  0  0  0
 14  1  1  6  0  0  0
 14  8  1  0  0  0  0
 15 17  1  0  0  0  0
 16  5  1  0  0  0  0
 18 20  1  0  0  0  0
 20 19  2  0  0  0  0
 20 16  1  0  0  0  0
 22 21  2  0  0  0  0
 23 22  1  0  0  0  0
 25 24  2  0  0  0  0
 26 31  1  0  0  0  0
 26 24  1  0  0  0  0
 27 30  1  0  0  0  0
 28 32  1  0  0  0  0
 29 27  2  0  0  0  0
 29 31  1  0  0  0  0
 30 32  2  0  0  0  0
 31 28  2  0  0  0  0
 33 27  1  0  0  0  0
 34 35  2  6  0  0  0
 34 33  1  0  0  0  0
 36 34  1  0  0  0  0
 37 34  1  0  0  0  0
 38 39  2  0  0  0  0
 39 41  1  0  0  0  0
 39 37  1  0  0  0  0
 40 39  1  0  0  0  0
M  END
>  <MODEL>
4

>  <REMARK>
 VINA RESULT:      -6.5      1.828      6.701
  Name = 
  10 active torsions:
  status: ('A' for Active; 'I' for Inactive)
    1  A    between atoms: P_1  and  C_37
    2  A    between atoms: P_1  and  O_40
    3  A    between atoms: C_7  and  O_40
    4  A    between atoms: C_11  and  C_24
    5  A    between atoms: C_11  and  C_39
    6  A    between atoms: C_19  and  N_32
    7  A    between atoms: C_24  and  C_29
    8  A    between atoms: C_28  and  C_39
    9  A    between atoms: P_30  and  C_37
   10  A    between atoms: N_36  and  C_39
                            x       y       z     vdW  Elec       q    Type
                         _______ _______ _______ _____ _____    ______ ____

>  <TORSDO>
F 10

$$$$
=
 OpenBabel11062421413D

 41 44  0  0  1  0  0  0  0  0999 V2000
  194.5440  173.0530  144.4290 C   0  0  1  0  0  3  0  0  0  0  0  0
  192.9370  174.6060  145.5580 C   0  0  1  0  0  3  0  0  0  0  0  0
  187.4300  176.1500  147.2030 O   0  0  0  0  0  0  0  0  0  0  0  0
  193.5950  175.4830  143.3250 C   0  0  0  0  0  2  0  0  0  0  0  0
  188.2710  177.9470  144.2600 C   0  0  0  0  0  2  0  0  0  0  0  0
  190.1800  176.4720  143.8410 C   0  0  0  0  0  3  0  0  0  0  0  0
  190.3050  175.8400  146.6270 C   0  0  0  0  0  2  0  0  0  0  0  0
  193.9000  175.5210  144.8240 C   0  0  2  0  0  3  0  0  0  0  0  0
  191.3990  176.5300  143.3800 C   0  0  0  0  0  0  0  0  0  0  0  0
  188.0010  176.7420  146.2480 C   0  0  0  0  0  0  0  0  0  0  0  0
  189.4490  177.0360  146.2120 C   0  0  2  0  0  3  0  0  0  0  0  0
  192.6300  176.5590  142.9460 C   0  0  0  0  0  3  0  0  0  0  0  0
  189.6630  177.5360  144.7620 C   0  0  2  0  0  3  0  0  0  0  0  0
  194.3920  174.2010  145.4280 C   0  0  2  0  0  3  0  0  0  0  0  0
  192.6860  175.1350  146.9610 C   0  0  0  0  0  2  0  0  0  0  0  0
  187.3150  177.2660  145.1210 N   0  0  0  0  0  0  0  0  0  0  0  0
  191.7190  176.3090  146.9310 C   0  0  0  0  0  2  0  0  0  0  0  0
  184.9130  177.5780  145.8900 C   0  0  0  0  0  1  0  0  0  0  0  0
  185.4480  176.8020  143.6630 C   0  0  0  0  0  2  0  0  0  0  0  0
  185.9040  177.1940  144.8460 C   0  0  0  0  0  0  0  0  0  0  0  0
  195.6460  173.0260  141.7830 O   0  0  0  0  0  0  0  0  0  0  0  0
  196.4310  172.8560  142.7520 C   0  0  0  0  0  3  0  0  0  0  0  0
  195.9520  172.8820  144.0980 N   0  0  0  0  0  2  0  0  0  0  0  0
  193.9770  171.7760  144.9820 C   0  0  0  0  0  0  0  0  0  0  0  0
  194.2940  171.4210  146.1060 O   0  0  0  0  0  0  0  0  0  0  0  0
  193.0540  170.9180  144.1690 C   0  0  0  0  0  2  0  0  0  0  0  0
  191.1220  173.1160  141.7500 C   0  0  0  0  0  0  0  0  0  0  0  0
  190.7590  171.9180  144.2600 C   0  0  0  0  0  3  0  0  0  0  0  0
  192.1380  172.3320  142.3140 C   0  0  0  0  0  3  0  0  0  0  0  0
  189.9250  173.2960  142.4550 C   0  0  0  0  0  3  0  0  0  0  0  0
  191.9620  171.7350  143.5660 C   0  0  0  0  0  0  0  0  0  0  0  0
  189.7420  172.6970  143.7050 C   0  0  0  0  0  3  0  0  0  0  0  0
  191.2690  173.7240  140.4980 O   0  0  0  0  0  0  0  0  0  0  0  0
  191.5860  172.8420  139.0530 P   0  0  1  0  0  0  0  0  0  0  0  0
  193.0760  172.6240  138.9210 O   0  0  0  0  0  0  0  0  0  0  0  0
  190.8050  171.3440  139.1280 O   0  0  0  0  0  1  0  0  0  0  0  0
  190.9800  173.7930  137.6260 C   0  0  0  0  0  2  0  0  0  0  0  0
  188.4130  173.5370  138.8950 O   0  0  0  0  0  1  0  0  0  0  0  0
  189.1930  173.5550  137.3940 P   0  0  0  0  0  0  0  0  0  0  0  0
  188.5860  174.8330  136.4680 O   0  0  0  0  0  0  0  0  0  0  0  0
  188.9350  172.2530  136.6750 O   0  0  0  0  0  1  0  0  0  0  0  0
  1 23  1  1  0  0  0
  1 24  1  0  0  0  0
  2 15  1  1  0  0  0
  5 13  1  0  0  0  0
  5 16  1  0  0  0  0
  7 17  1  0  0  0  0
  8  4  1  6  0  0  0
  8 14  1  0  0  0  0
  8  2  1  0  0  0  0
  9  6  2  0  0  0  0
 10  3  2  0  0  0  0
 11 10  1  0  0  0  0
 11  7  1  6  0  0  0
 12  4  1  0  0  0  0
 12  9  2  0  0  0  0
 13  6  1  6  0  0  0
 13 11  1  0  0  0  0
 14  1  1  6  0  0  0
 14  2  1  0  0  0  0
 16 10  1  0  0  0  0
 17 15  1  0  0  0  0
 19 20  2  0  0  0  0
 20 16  1  0  0  0  0
 20 18  1  0  0  0  0
 21 22  2  0  0  0  0
 22 23  1  0  0  0  0
 24 25  2  0  0  0  0
 26 24  1  0  0  0  0
 27 29  2  0  0  0  0
 27 30  1  0  0  0  0
 29 31  1  0  0  0  0
 30 32  2  0  0  0  0
 31 26  1  0  0  0  0
 31 28  2  0  0  0  0
 32 28  1  0  0  0  0
 33 27  1  0  0  0  0
 34 35  2  6  0  0  0
 34 36  1  0  0  0  0
 34 33  1  0  0  0  0
 37 34  1  0  0  0  0
 39 37  1  0  0  0  0
 39 38  1  0  0  0  0
 40 39  2  0  0  0  0
 41 39  1  0  0  0  0
M  END
>  <MODEL>
5

>  <REMARK>
 VINA RESULT:      -6.4      0.913      1.618
  Name = 
  10 active torsions:
  status: ('A' for Active; 'I' for Inactive)
    1  A    between atoms: P_1  and  C_37
    2  A    between atoms: P_1  and  O_40
    3  A    between atoms: C_7  and  O_40
    4  A    between atoms: C_11  and  C_24
    5  A    between atoms: C_11  and  C_39
    6  A    between atoms: C_19  and  N_32
    7  A    between atoms: C_24  and  C_29
    8  A    between atoms: C_28  and  C_39
    9  A    between atoms: P_30  and  C_37
   10  A    between atoms: N_36  and  C_39
                            x       y       z     vdW  Elec       q    Type
                         _______ _______ _______ _____ _____    ______ ____

>  <TORSDO>
F 10

$$$$
=
 OpenBabel11062421413D

 41 44  0  0  1  0  0  0  0  0999 V2000
  187.8880  176.5710  141.9820 C   0  0  1  0  0  3  0  0  0  0  0  0
  189.1570  174.4890  142.5540 C   0  0  1  0  0  3  0  0  0  0  0  0
  194.2300  171.6050  143.7250 O   0  0  0  0  0  0  0  0  0  0  0  0
  188.5680  174.5330  140.1370 C   0  0  0  0  0  2  0  0  0  0  0  0
  193.3880  171.0640  140.3200 C   0  0  0  0  0  2  0  0  0  0  0  0
  191.7510  172.8850  140.3790 C   0  0  0  0  0  3  0  0  0  0  0  0
  191.4870  172.5560  143.2080 C   0  0  0  0  0  2  0  0  0  0  0  0
  188.1370  174.0440  141.5220 C   0  0  2  0  0  3  0  0  0  0  0  0
  190.5800  173.1840  139.8910 C   0  0  0  0  0  0  0  0  0  0  0  0
  193.6610  171.4700  142.6090 C   0  0  0  0  0  0  0  0  0  0  0  0
  192.1940  171.4460  142.4310 C   0  0  2  0  0  3  0  0  0  0  0  0
  189.3980  173.5040  139.4380 C   0  0  0  0  0  3  0  0  0  0  0  0
  192.0320  171.5040  140.8920 C   0  0  2  0  0  3  0  0  0  0  0  0
  187.7910  175.1460  142.5280 C   0  0  2  0  0  3  0  0  0  0  0  0
  189.2120  173.4870  143.6950 C   0  0  0  0  0  2  0  0  0  0  0  0
  194.3560  171.2510  141.3900 N   0  0  0  0  0  0  0  0  0  0  0  0
  189.9990  172.2490  143.2900 C   0  0  0  0  0  2  0  0  0  0  0  0
  196.5590  172.4070  140.8660 C   0  0  0  0  0  1  0  0  0  0  0  0
  196.4410  170.0360  141.3280 C   0  0  0  0  0  2  0  0  0  0  0  0
  195.7810  171.1800  141.1990 C   0  0  0  0  0  0  0  0  0  0  0  0
  186.7050  177.5360  139.5570 O   0  0  0  0  0  0  0  0  0  0  0  0
  186.0310  177.6180  140.6170 C   0  0  0  0  0  3  0  0  0  0  0  0
  186.5510  177.1350  141.8560 N   0  0  0  0  0  2  0  0  0  0  0  0
  188.7390  177.4340  142.8720 C   0  0  0  0  0  0  0  0  0  0  0  0
  189.8260  177.8150  142.4690 O   0  0  0  0  0  0  0  0  0  0  0  0
  188.2890  177.8100  144.2520 C   0  0  0  0  0  2  0  0  0  0  0  0
  191.0290  176.3700  146.4520 C   0  0  0  0  0  0  0  0  0  0  0  0
  188.2760  176.0440  146.0280 C   0  0  0  0  0  3  0  0  0  0  0  0
  190.3610  177.1510  145.4980 C   0  0  0  0  0  3  0  0  0  0  0  0
  190.3060  175.4240  147.1890 C   0  0  0  0  0  3  0  0  0  0  0  0
  188.9900  176.9900  145.2820 C   0  0  0  0  0  0  0  0  0  0  0  0
  188.9330  175.2620  146.9800 C   0  0  0  0  0  3  0  0  0  0  0  0
  192.4010  176.5120  146.6900 O   0  0  0  0  0  0  0  0  0  0  0  0
  193.6060  175.6560  145.8070 P   0  0  1  0  0  0  0  0  0  0  0  0
  194.9420  175.8320  146.4920 O   0  0  0  0  0  1  0  0  0  0  0  0
  193.2080  174.0130  145.7640 O   0  0  0  0  0  0  0  0  0  0  0  0
  193.6950  176.3230  144.1170 C   0  0  0  0  0  2  0  0  0  0  0  0
  195.8400  174.4400  143.7680 O   0  0  0  0  0  1  0  0  0  0  0  0
  195.3230  176.0020  143.3730 P   0  0  0  0  0  0  0  0  0  0  0  0
  195.1940  176.1360  141.6930 O   0  0  0  0  0  0  0  0  0  0  0  0
  196.3280  177.0090  143.8770 O   0  0  0  0  0  1  0  0  0  0  0  0
  1 23  1  1  0  0  0
  1 24  1  0  0  0  0
  2 15  1  1  0  0  0
  5 16  1  0  0  0  0
  6 13  1  0  0  0  0
  7 17  1  0  0  0  0
  8  4  1  6  0  0  0
  8 14  1  0  0  0  0
  8  2  1  0  0  0  0
  9  6  2  0  0  0  0
 10  3  2  0  0  0  0
 11 10  1  0  0  0  0
 11  7  1  1  0  0  0
 12  9  2  0  0  0  0
 12  4  1  0  0  0  0
 13  5  1  6  0  0  0
 13 11  1  0  0  0  0
 14  1  1  6  0  0  0
 14  2  1  0  0  0  0
 16 10  1  0  0  0  0
 17 15  1  0  0  0  0
 18 20  1  0  0  0  0
 20 19  2  0  0  0  0
 20 16  1  0  0  0  0
 21 22  2  0  0  0  0
 22 23  1  0  0  0  0
 24 26  1  0  0  0  0
 25 24  2  0  0  0  0
 26 31  1  0  0  0  0
 27 33  1  0  0  0  0
 27 30  1  0  0  0  0
 28 32  1  0  0  0  0
 29 27  2  0  0  0  0
 31 29  1  0  0  0  0
 31 28  2  0  0  0  0
 32 30  2  0  0  0  0
 34 36  2  6  0  0  0
 34 35  1  0  0  0  0
 34 33  1  0  0  0  0
 37 34  1  0  0  0  0
 39 38  1  0  0  0  0
 39 41  1  0  0  0  0
 39 37  1  0  0  0  0
 40 39  2  0  0  0  0
M  END
>  <MODEL>
6

>  <REMARK>
 VINA RESULT:      -6.4      3.238      7.981
  Name = 
  10 active torsions:
  status: ('A' for Active; 'I' for Inactive)
    1  A    between atoms: P_1  and  C_37
    2  A    between atoms: P_1  and  O_40
    3  A    between atoms: C_7  and  O_40
    4  A    between atoms: C_11  and  C_24
    5  A    between atoms: C_11  and  C_39
    6  A    between atoms: C_19  and  N_32
    7  A    between atoms: C_24  and  C_29
    8  A    between atoms: C_28  and  C_39
    9  A    between atoms: P_30  and  C_37
   10  A    between atoms: N_36  and  C_39
                            x       y       z     vdW  Elec       q    Type
                         _______ _______ _______ _____ _____    ______ ____

>  <TORSDO>
F 10

$$$$
=
 OpenBabel11062421413D

 41 44  0  0  1  0  0  0  0  0999 V2000
  193.9950  174.8850  144.9900 C   0  0  1  0  0  3  0  0  0  0  0  0
  191.5610  174.7480  145.5610 C   0  0  1  0  0  3  0  0  0  0  0  0
  185.8600  176.1290  144.5500 O   0  0  0  0  0  0  0  0  0  0  0  0
  192.7300  176.3640  147.0480 C   0  0  0  0  0  2  0  0  0  0  0  0
  187.1080  178.2830  147.0790 C   0  0  0  0  0  2  0  0  0  0  0  0
  189.4160  177.6560  146.5510 C   0  0  0  0  0  3  0  0  0  0  0  0
  188.4940  175.1730  145.4700 C   0  0  0  0  0  2  0  0  0  0  0  0
  192.2580  174.9160  146.8980 C   0  0  2  0  0  3  0  0  0  0  0  0
  190.5510  177.4420  147.1550 C   0  0  0  0  0  0  0  0  0  0  0  0
  186.4940  176.6770  145.4910 C   0  0  0  0  0  0  0  0  0  0  0  0
  187.5100  175.9860  146.3110 C   0  0  2  0  0  3  0  0  0  0  0  0
  191.6960  177.1980  147.7330 C   0  0  0  0  0  3  0  0  0  0  0  0
  188.1330  177.1410  147.1330 C   0  0  2  0  0  3  0  0  0  0  0  0
  192.9240  174.1210  145.7710 C   0  0  2  0  0  3  0  0  0  0  0  0
  190.4910  173.6730  145.6650 C   0  0  0  0  0  2  0  0  0  0  0  0
  186.2580  178.0070  145.9310 N   0  0  0  0  0  0  0  0  0  0  0  0
  189.2530  174.2080  146.3680 C   0  0  0  0  0  2  0  0  0  0  0  0
  185.7170  179.8520  144.2680 C   0  0  0  0  0  1  0  0  0  0  0  0
  184.0780  179.0410  145.8500 C   0  0  0  0  0  2  0  0  0  0  0  0
  185.3190  178.9530  145.3870 C   0  0  0  0  0  0  0  0  0  0  0  0
  196.5050  175.9900  144.1570 O   0  0  0  0  0  0  0  0  0  0  0  0
  196.5210  174.9330  144.8390 C   0  0  0  0  0  3  0  0  0  0  0  0
  195.3080  174.3420  145.3070 N   0  0  0  0  0  2  0  0  0  0  0  0
  193.7410  174.8110  143.5100 C   0  0  0  0  0  0  0  0  0  0  0  0
  193.7940  173.7280  142.9500 O   0  0  0  0  0  0  0  0  0  0  0  0
  193.4520  176.0440  142.7070 C   0  0  0  0  0  2  0  0  0  0  0  0
  189.7040  175.7180  142.1860 C   0  0  0  0  0  0  0  0  0  0  0  0
  191.5360  177.5760  143.2150 C   0  0  0  0  0  3  0  0  0  0  0  0
  191.0760  175.4270  142.2010 C   0  0  0  0  0  3  0  0  0  0  0  0
  189.2600  176.9470  142.6880 C   0  0  0  0  0  3  0  0  0  0  0  0
  191.9920  176.3510  142.7110 C   0  0  0  0  0  0  0  0  0  0  0  0
  190.1720  177.8740  143.2030 C   0  0  0  0  0  3  0  0  0  0  0  0
  188.7650  174.8100  141.6840 O   0  0  0  0  0  0  0  0  0  0  0  0
  189.1970  173.3850  140.8200 P   0  0  1  0  0  0  0  0  0  0  0  0
  187.9500  172.7600  140.2380 O   0  0  0  0  0  1  0  0  0  0  0  0
  190.2590  173.7900  139.5680 O   0  0  0  0  0  0  0  0  0  0  0  0
  189.9920  172.2120  141.9600 C   0  0  0  0  0  2  0  0  0  0  0  0
  192.5250  171.6360  140.7270 O   0  0  0  0  0  1  0  0  0  0  0  0
  190.9930  170.9960  141.0520 P   0  0  0  0  0  0  0  0  0  0  0  0
  191.1610  169.6070  142.0010 O   0  0  0  0  0  1  0  0  0  0  0  0
  190.3120  170.6320  139.7550 O   0  0  0  0  0  0  0  0  0  0  0  0
  1 24  1  6  0  0  0
  1 23  1  0  0  0  0
  2 15  1  1  0  0  0
  2 14  1  0  0  0  0
  2  8  1  0  0  0  0
  3 10  2  0  0  0  0
  4 12  1  0  0  0  0
  5 13  1  0  0  0  0
  6  9  2  0  0  0  0
  7 17  1  0  0  0  0
  8  4  1  6  0  0  0
  9 12  2  0  0  0  0
 10 16  1  0  0  0  0
 10 11  1  0  0  0  0
 11  7  1  6  0  0  0
 11 13  1  0  0  0  0
 13  6  1  6  0  0  0
 14  1  1  6  0  0  0
 14  8  1  0  0  0  0
 15 17  1  0  0  0  0
 16  5  1  0  0  0  0
 18 20  1  0  0  0  0
 20 19  2  0  0  0  0
 20 16  1  0  0  0  0
 21 22  2  0  0  0  0
 22 23  1  0  0  0  0
 25 24  2  0  0  0  0
 26 31  1  0  0  0  0
 26 24  1  0  0  0  0
 27 29  2  0  0  0  0
 27 30  1  0  0  0  0
 29 31  1  0  0  0  0
 30 32  2  0  0  0  0
 31 28  2  0  0  0  0
 32 28  1  0  0  0  0
 33 27  1  0  0  0  0
 34 36  2  6  0  0  0
 34 33  1  0  0  0  0
 34 37  1  0  0  0  0
 35 34  1  0  0  0  0
 38 39  1  0  0  0  0
 39 37  1  0  0  0  0
 39 40  1  0  0  0  0
 41 39  2  0  0  0  0
M  END
>  <MODEL>
7

>  <REMARK>
 VINA RESULT:      -6.3      2.043      3.353
  Name = 
  10 active torsions:
  status: ('A' for Active; 'I' for Inactive)
    1  A    between atoms: P_1  and  C_37
    2  A    between atoms: P_1  and  O_40
    3  A    between atoms: C_7  and  O_40
    4  A    between atoms: C_11  and  C_24
    5  A    between atoms: C_11  and  C_39
    6  A    between atoms: C_19  and  N_32
    7  A    between atoms: C_24  and  C_29
    8  A    between atoms: C_28  and  C_39
    9  A    between atoms: P_30  and  C_37
   10  A    between atoms: N_36  and  C_39
                            x       y       z     vdW  Elec       q    Type
                         _______ _______ _______ _____ _____    ______ ____

>  <TORSDO>
F 10

$$$$
=
 OpenBabel11062421413D

 41 44  0  0  1  0  0  0  0  0999 V2000
  192.3540  174.8560  145.5590 C   0  0  1  0  0  3  0  0  0  0  0  0
  192.5070  173.2940  143.6080 C   0  0  1  0  0  3  0  0  0  0  0  0
  192.5600  172.2180  137.7550 O   0  0  0  0  0  0  0  0  0  0  0  0
  190.2320  173.2350  144.6130 C   0  0  0  0  0  2  0  0  0  0  0  0
  189.2980  171.5640  138.9890 C   0  0  0  0  0  2  0  0  0  0  0  0
  189.7970  172.7320  141.0830 C   0  0  0  0  0  3  0  0  0  0  0  0
  192.5850  172.2210  140.7030 C   0  0  0  0  0  2  0  0  0  0  0  0
  191.6130  172.5760  144.6020 C   0  0  2  0  0  3  0  0  0  0  0  0
  189.5350  172.6440  142.3570 C   0  0  0  0  0  0  0  0  0  0  0  0
  191.5420  171.9460  138.4450 C   0  0  0  0  0  0  0  0  0  0  0  0
  191.6000  171.4420  139.8330 C   0  0  2  0  0  3  0  0  0  0  0  0
  189.3110  172.5700  143.6410 C   0  0  0  0  0  3  0  0  0  0  0  0
  190.1200  171.5050  140.2850 C   0  0  2  0  0  3  0  0  0  0  0  0
  192.7660  173.4590  145.0920 C   0  0  2  0  0  3  0  0  0  0  0  0
  193.5200  172.3220  143.0260 C   0  0  0  0  0  2  0  0  0  0  0  0
  190.2110  172.0200  137.9530 N   0  0  0  0  0  0  0  0  0  0  0  0
  192.8750  171.4340  141.9720 C   0  0  0  0  0  2  0  0  0  0  0  0
  189.7510  173.8810  136.2840 C   0  0  0  0  0  1  0  0  0  0  0  0
  189.4380  171.5520  135.7150 C   0  0  0  0  0  2  0  0  0  0  0  0
  189.7880  172.4350  136.6410 C   0  0  0  0  0  0  0  0  0  0  0  0
  190.1590  175.5530  147.2650 O   0  0  0  0  0  0  0  0  0  0  0  0
  191.2660  175.2910  147.8030 C   0  0  0  0  0  3  0  0  0  0  0  0
  192.3950  174.9130  147.0140 N   0  0  0  0  0  2  0  0  0  0  0  0
  193.2480  175.9090  144.9680 C   0  0  0  0  0  0  0  0  0  0  0  0
  194.4380  175.6750  144.8370 O   0  0  0  0  0  0  0  0  0  0  0  0
  192.7100  177.2490  144.5630 C   0  0  0  0  0  2  0  0  0  0  0  0
  188.9500  177.6320  144.2010 C   0  0  0  0  0  0  0  0  0  0  0  0
  191.0760  176.3640  142.8840 C   0  0  0  0  0  3  0  0  0  0  0  0
  190.2600  177.7590  144.6850 C   0  0  0  0  0  3  0  0  0  0  0  0
  188.7140  176.8640  143.0540 C   0  0  0  0  0  3  0  0  0  0  0  0
  191.3210  177.1260  144.0320 C   0  0  0  0  0  0  0  0  0  0  0  0
  189.7740  176.2320  142.3960 C   0  0  0  0  0  3  0  0  0  0  0  0
  187.8680  178.2570  144.8330 O   0  0  0  0  0  0  0  0  0  0  0  0
  186.5730  177.3890  145.5640 P   0  0  1  0  0  0  0  0  0  0  0  0
  187.1020  176.0900  146.1280 O   0  0  0  0  0  0  0  0  0  0  0  0
  185.9130  178.3160  146.8140 O   0  0  0  0  0  1  0  0  0  0  0  0
  185.3040  177.0360  144.3090 C   0  0  0  0  0  2  0  0  0  0  0  0
  186.1030  178.7990  142.1830 O   0  0  0  0  0  0  0  0  0  0  0  0
  184.9060  178.5260  143.3470 P   0  0  0  0  0  0  0  0  0  0  0  0
  183.4200  178.2970  142.5730 O   0  0  0  0  0  1  0  0  0  0  0  0
  184.8100  179.7220  144.2620 O   0  0  0  0  0  1  0  0  0  0  0  0
  1 24  1  6  0  0  0
  1 23  1  0  0  0  0
  2 15  1  6  0  0  0
  2  8  1  0  0  0  0
  2 14  1  0  0  0  0
  3 10  2  0  0  0  0
  6  9  2  0  0  0  0
  7 17  1  0  0  0  0
  8  4  1  1  0  0  0
  8 14  1  0  0  0  0
  9 12  2  0  0  0  0
 10 11  1  0  0  0  0
 11 13  1  0  0  0  0
 11  7  1  1  0  0  0
 12  4  1  0  0  0  0
 13  5  1  6  0  0  0
 13  6  1  0  0  0  0
 14  1  1  1  0  0  0
 16 10  1  0  0  0  0
 16  5  1  0  0  0  0
 17 15  1  0  0  0  0
 18 20  1  0  0  0  0
 19 20  2  0  0  0  0
 20 16  1  0  0  0  0
 21 22  2  0  0  0  0
 23 22  1  0  0  0  0
 25 24  2  0  0  0  0
 26 24  1  0  0  0  0
 27 29  1  0  0  0  0
 27 33  1  0  0  0  0
 28 31  1  0  0  0  0
 30 27  2  0  0  0  0
 31 26  1  0  0  0  0
 31 29  2  0  0  0  0
 32 28  2  0  0  0  0
 32 30  1  0  0  0  0
 33 34  1  0  0  0  0
 34 35  2  1  0  0  0
 34 36  1  0  0  0  0
 37 34  1  0  0  0  0
 38 39  2  0  0  0  0
 39 41  1  0  0  0  0
 39 37  1  0  0  0  0
 40 39  1  0  0  0  0
M  END
>  <MODEL>
8

>  <REMARK>
 VINA RESULT:      -6.3      3.139      7.214
  Name = 
  10 active torsions:
  status: ('A' for Active; 'I' for Inactive)
    1  A    between atoms: P_1  and  C_37
    2  A    between atoms: P_1  and  O_40
    3  A    between atoms: C_7  and  O_40
    4  A    between atoms: C_11  and  C_24
    5  A    between atoms: C_11  and  C_39
    6  A    between atoms: C_19  and  N_32
    7  A    between atoms: C_24  and  C_29
    8  A    between atoms: C_28  and  C_39
    9  A    between atoms: P_30  and  C_37
   10  A    between atoms: N_36  and  C_39
                            x       y       z     vdW  Elec       q    Type
                         _______ _______ _______ _____ _____    ______ ____

>  <TORSDO>
F 10

$$$$
=
 OpenBabel11062421413D

 41 44  0  0  1  0  0  0  0  0999 V2000
  186.5010  177.0080  143.0170 C   0  0  1  0  0  3  0  0  0  0  0  0
  188.9420  177.3550  143.4510 C   0  0  1  0  0  3  0  0  0  0  0  0
  194.6050  175.5330  143.2590 O   0  0  0  0  0  0  0  0  0  0  0  0
  187.7550  176.7050  145.5380 C   0  0  0  0  0  2  0  0  0  0  0  0
  193.3390  174.9270  146.5180 C   0  0  0  0  0  2  0  0  0  0  0  0
  191.0390  175.2640  145.7460 C   0  0  0  0  0  3  0  0  0  0  0  0
  191.9990  176.8740  143.5860 C   0  0  0  0  0  2  0  0  0  0  0  0
  188.2540  177.8820  144.6970 C   0  0  2  0  0  3  0  0  0  0  0  0
  189.9130  175.7710  146.1650 C   0  0  0  0  0  0  0  0  0  0  0  0
  193.9690  175.5310  144.3470 C   0  0  0  0  0  0  0  0  0  0  0  0
  192.9740  176.5590  144.7200 C   0  0  2  0  0  3  0  0  0  0  0  0
  188.7780  176.2930  146.5470 C   0  0  0  0  0  3  0  0  0  0  0  0
  192.3360  175.9700  146.0020 C   0  0  2  0  0  3  0  0  0  0  0  0
  187.5930  178.0340  143.3230 C   0  0  2  0  0  3  0  0  0  0  0  0
  190.0340  178.3200  143.0150 C   0  0  0  0  0  2  0  0  0  0  0  0
  194.1830  174.5840  145.3840 N   0  0  0  0  0  0  0  0  0  0  0  0
  191.2680  178.1720  143.8920 C   0  0  0  0  0  2  0  0  0  0  0  0
  194.6460  172.1280  144.9260 C   0  0  0  0  0  1  0  0  0  0  0  0
  196.3630  173.6160  145.7520 C   0  0  0  0  0  2  0  0  0  0  0  0
  195.0980  173.4730  145.3770 C   0  0  0  0  0  0  0  0  0  0  0  0
  184.4870  178.2480  144.6360 O   0  0  0  0  0  0  0  0  0  0  0  0
  184.3390  178.2730  143.3860 C   0  0  0  0  0  3  0  0  0  0  0  0
  185.3160  177.6950  142.5200 N   0  0  0  0  0  2  0  0  0  0  0  0
  186.9780  175.9940  142.0150 C   0  0  0  0  0  0  0  0  0  0  0  0
  187.2410  176.3560  140.8800 O   0  0  0  0  0  0  0  0  0  0  0  0
  187.1070  174.5440  142.3770 C   0  0  0  0  0  2  0  0  0  0  0  0
  189.4500  172.5780  140.1270 C   0  0  0  0  0  0  0  0  0  0  0  0
  189.5910  174.2190  142.3970 C   0  0  0  0  0  3  0  0  0  0  0  0
  188.2850  173.1440  140.6650 C   0  0  0  0  0  3  0  0  0  0  0  0
  190.6830  172.8390  140.7360 C   0  0  0  0  0  3  0  0  0  0  0  0
  188.3520  173.9600  141.7980 C   0  0  0  0  0  0  0  0  0  0  0  0
  190.7550  173.6590  141.8670 C   0  0  0  0  0  3  0  0  0  0  0  0
  189.4140  171.7590  138.9920 O   0  0  0  0  0  0  0  0  0  0  0  0
  190.1990  172.1610  137.5130 P   0  0  1  0  0  0  0  0  0  0  0  0
  189.3320  171.7200  136.3560 O   0  0  0  0  0  0  0  0  0  0  0  0
  190.4290  173.8340  137.4380 O   0  0  0  0  0  1  0  0  0  0  0  0
  191.8010  171.3050  137.4350 C   0  0  0  0  0  2  0  0  0  0  0  0
  192.9390  168.6640  137.4210 O   0  0  0  0  0  0  0  0  0  0  0  0
  191.6560  169.5900  138.0200 P   0  0  0  0  0  0  0  0  0  0  0  0
  191.7060  169.5810  139.7100 O   0  0  0  0  0  1  0  0  0  0  0  0
  190.3460  168.9960  137.5580 O   0  0  0  0  0  1  0  0  0  0  0  0
  1 24  1  6  0  0  0
  2 15  1  6  0  0  0
  2  8  1  0  0  0  0
  3 10  2  0  0  0  0
  4 12  1  0  0  0  0
  6  9  2  0  0  0  0
  7 17  1  0  0  0  0
  8  4  1  1  0  0  0
  9 12  2  0  0  0  0
 10 11  1  0  0  0  0
 10 16  1  0  0  0  0
 11  7  1  6  0  0  0
 11 13  1  0  0  0  0
 13  6  1  6  0  0  0
 13  5  1  0  0  0  0
 14  1  1  1  0  0  0
 14  2  1  0  0  0  0
 14  8  1  0  0  0  0
 15 17  1  0  0  0  0
 16  5  1  0  0  0  0
 18 20  1  0  0  0  0
 20 16  1  0  0  0  0
 20 19  2  0  0  0  0
 22 21  2  0  0  0  0
 23  1  1  0  0  0  0
 23 22  1  0  0  0  0
 24 26  1  0  0  0  0
 25 24  2  0  0  0  0
 27 29  2  0  0  0  0
 27 30  1  0  0  0  0
 29 31  1  0  0  0  0
 30 32  2  0  0  0  0
 31 26  1  0  0  0  0
 31 28  2  0  0  0  0
 32 28  1  0  0  0  0
 33 27  1  0  0  0  0
 34 35  2  6  0  0  0
 34 33  1  0  0  0  0
 36 34  1  0  0  0  0
 37 34  1  0  0  0  0
 37 39  1  0  0  0  0
 38 39  2  0  0  0  0
 39 40  1  0  0  0  0
 41 39  1  0  0  0  0
M  END
>  <MODEL>
9

>  <REMARK>
 VINA RESULT:      -6.2      2.072      6.730
  Name = 
  10 active torsions:
  status: ('A' for Active; 'I' for Inactive)
    1  A    between atoms: P_1  and  C_37
    2  A    between atoms: P_1  and  O_40
    3  A    between atoms: C_7  and  O_40
    4  A    between atoms: C_11  and  C_24
    5  A    between atoms: C_11  and  C_39
    6  A    between atoms: C_19  and  N_32
    7  A    between atoms: C_24  and  C_29
    8  A    between atoms: C_28  and  C_39
    9  A    between atoms: P_30  and  C_37
   10  A    between atoms: N_36  and  C_39
                            x       y       z     vdW  Elec       q    Type
                         _______ _______ _______ _____ _____    ______ ____

>  <TORSDO>
F 10

$$$$
