=
 OpenBabel11072409253D

 39 46  0  0  1  0  0  0  0  0999 V2000
  189.3160  173.5390  143.6860 C   0  0  0  0  0  2  0  0  0  0  0  0
  196.1250  174.0340  138.0620 C   0  0  0  0  0  0  0  0  0  0  0  0
  189.4380  173.5320  142.1740 C   0  0  2  0  0  3  0  0  0  0  0  0
  197.4640  172.4240  137.9830 C   0  0  0  0  0  3  0  0  0  0  0  0
  190.8580  173.1300  141.7360 C   0  0  2  0  0  3  0  0  0  0  0  0
  196.3310  174.8150  143.3220 C   0  0  2  0  0  3  0  0  0  0  0  0
  189.3850  176.1550  144.4670 C   0  0  2  0  0  3  0  0  0  0  0  0
  197.9410  173.3920  137.1700 N   0  0  0  0  0  0  0  0  0  0  0  0
  192.4560  174.8990  146.4410 C   0  0  0  0  0  2  0  0  0  0  0  0
  197.3930  173.8180  145.2800 C   0  0  0  0  0  1  0  0  0  0  0  0
  195.3950  172.9430  144.4320 C   0  0  2  0  0  3  0  0  0  0  0  0
  191.0930  175.0230  145.8340 C   0  0  0  0  0  3  0  0  0  0  0  0
  197.0780  174.3610  137.2330 O   0  0  0  0  0  0  0  0  0  0  0  0
  191.6050  174.2300  140.9690 C   0  0  1  0  0  3  0  0  0  0  0  0
  193.5510  174.7770  145.3920 C   0  0  0  0  0  2  0  0  0  0  0  0
  193.9200  174.4850  139.2150 C   0  0  0  0  0  0  0  0  0  0  0  0
  193.5810  173.0890  144.7080 S   0  0  0  0  0  0  0  0  0  0  0  0
  191.3150  172.4340  139.5020 N   0  0  0  0  0  0  0  0  0  0  0  0
  187.3150  175.2560  142.5820 S   0  0  0  0  0  0  0  0  0  0  0  0
  196.1350  174.2010  144.6570 N   0  0  0  0  0  0  0  0  0  0  0  0
  194.1400  174.4080  140.6900 C   0  0  0  0  0  0  0  0  0  0  0  0
  189.1010  175.0320  142.1520 C   0  0  1  0  0  3  0  0  0  0  0  0
  192.9670  174.5410  141.6260 C   0  0  0  0  0  2  0  0  0  0  0  0
  195.3060  174.0510  141.2210 C   0  0  0  0  0  0  0  0  0  0  0  0
  190.7120  171.9710  140.7390 C   0  0  0  0  0  2  0  0  0  0  0  0
  195.6460  172.4520  143.0090 C   0  0  0  0  0  2  0  0  0  0  0  0
  190.7910  175.9990  144.9680 C   0  0  0  0  0  3  0  0  0  0  0  0
  196.2970  172.7940  138.5590 N   0  0  0  0  0  0  0  0  0  0  0  0
  188.8360  174.9860  143.5970 C   0  0  2  0  0  0  0  0  0  0  0  0
  196.7650  173.6660  141.1660 O   0  0  0  0  0  0  0  0  0  0  0  0
  196.0520  173.7200  142.3270 C   0  0  2  0  0  0  0  0  0  0  0  0
  194.9680  174.8470  138.3070 N   0  0  0  0  0  2  0  0  0  0  0  0
  192.7710  174.1080  138.7290 N   0  0  0  0  0  0  0  0  0  0  0  0
  191.7520  173.6360  139.6110 C   0  0  0  0  0  0  0  0  0  0  0  0
  190.1000  178.1920  143.1530 O   0  0  0  0  0  0  0  0  0  0  0  0
  188.0900  178.1550  144.2480 O   0  0  0  0  0  1  0  0  0  0  0  0
  189.1410  177.5420  143.9360 C   0  0  0  0  0  0  0  0  0  0  0  0
  197.6660  175.5410  143.1360 C   0  0  0  0  0  2  0  0  0  0  0  0
  197.4580  177.0420  143.1250 C   0  0  0  0  0  1  0  0  0  0  0  0
  2 32  1  0  0  0  0
  2 28  2  0  0  0  0
  3  1  1  1  0  0  0
  4 28  1  0  0  0  0
  5 25  1  6  0  0  0
  5  3  1  0  0  0  0
  6 38  1  1  0  0  0
  6 20  1  0  0  0  0
  7 37  1  6  0  0  0
  7 27  1  0  0  0  0
  8 13  1  0  0  0  0
  8  4  2  0  0  0  0
 11 26  1  6  0  0  0
 11 20  1  0  0  0  0
 11 17  1  0  0  0  0
 12  9  1  0  0  0  0
 13  2  1  0  0  0  0
 14 23  1  1  0  0  0
 14  5  1  0  0  0  0
 15  9  1  0  0  0  0
 16 21  1  0  0  0  0
 17 15  1  0  0  0  0
 18 34  2  0  0  0  0
 18 25  1  0  0  0  0
 19 29  1  0  0  0  0
 20 10  1  0  0  0  0
 21 24  2  0  0  0  0
 21 23  1  0  0  0  0
 22  3  1  0  0  0  0
 22 19  1  6  0  0  0
 22 29  1  0  0  0  0
 24 31  1  0  0  0  0
 27 12  2  0  0  0  0
 29  1  1  1  0  0  0
 29  7  1  0  0  0  0
 30 24  1  0  0  0  0
 30 31  1  0  0  0  0
 31 26  1  1  0  0  0
 31  6  1  0  0  0  0
 32 16  1  0  0  0  0
 33 16  2  0  0  0  0
 33 34  1  0  0  0  0
 34 14  1  0  0  0  0
 35 37  2  0  0  0  0
 37 36  1  0  0  0  0
 39 38  1  0  0  0  0
M  END
>  <MODEL>
1

>  <REMARK>
 VINA RESULT:      -6.9      0.000      0.000
  Name = 
  2 active torsions:
  status: ('A' for Active; 'I' for Inactive)
    1  A    between atoms: C_5  and  C_8
    2  A    between atoms: C_9  and  C_22
                            x       y       z     vdW  Elec       q    Type
                         _______ _______ _______ _____ _____    ______ ____

>  <TORSDO>
F 2

$$$$
=
 OpenBabel11072409253D

 39 46  0  0  1  0  0  0  0  0999 V2000
  194.1240  172.7390  145.1390 C   0  0  0  0  0  2  0  0  0  0  0  0
  187.5280  177.8540  142.2120 C   0  0  0  0  0  0  0  0  0  0  0  0
  193.5300  174.0590  145.5940 C   0  0  2  0  0  3  0  0  0  0  0  0
  185.5660  177.1370  142.3840 C   0  0  0  0  0  3  0  0  0  0  0  0
  192.1010  174.2380  145.0530 C   0  0  2  0  0  3  0  0  0  0  0  0
  189.5690  173.6230  139.7130 C   0  0  2  0  0  3  0  0  0  0  0  0
  195.8670  173.3170  143.1180 C   0  0  2  0  0  3  0  0  0  0  0  0
  185.5140  178.3120  141.7200 N   0  0  0  0  0  0  0  0  0  0  0  0
  193.5110  170.9590  141.1700 C   0  0  0  0  0  2  0  0  0  0  0  0
  188.8440  171.4190  138.9550 C   0  0  0  0  0  1  0  0  0  0  0  0
  189.5270  171.7540  141.1690 C   0  0  2  0  0  3  0  0  0  0  0  0
  194.3910  171.5620  142.2210 C   0  0  0  0  0  3  0  0  0  0  0  0
  186.7420  178.7310  141.6490 O   0  0  0  0  0  0  0  0  0  0  0  0
  191.9430  175.4360  144.1050 C   0  0  1  0  0  3  0  0  0  0  0  0
  192.2840  171.8120  140.8800 C   0  0  0  0  0  2  0  0  0  0  0  0
  189.8020  177.0780  142.9980 C   0  0  0  0  0  0  0  0  0  0  0  0
  191.0440  171.5960  142.1980 S   0  0  0  0  0  0  0  0  0  0  0  0
  190.6180  175.8560  145.9840 N   0  0  0  0  0  0  0  0  0  0  0  0
  196.2470  174.5500  145.7600 S   0  0  0  0  0  0  0  0  0  0  0  0
  189.7930  172.1590  139.7730 N   0  0  0  0  0  0  0  0  0  0  0  0
  190.0810  175.7470  142.3800 C   0  0  0  0  0  0  0  0  0  0  0  0
  194.6540  174.8050  144.8540 C   0  0  1  0  0  3  0  0  0  0  0  0
  191.3350  175.0010  142.7540 C   0  0  0  0  0  2  0  0  0  0  0  0
  189.1840  175.1010  141.6390 C   0  0  0  0  0  0  0  0  0  0  0  0
  191.1990  174.5540  146.2550 C   0  0  0  0  0  2  0  0  0  0  0  0
  188.5830  172.7610  141.8190 C   0  0  0  0  0  2  0  0  0  0  0  0
  194.9020  172.7930  142.0950 C   0  0  0  0  0  3  0  0  0  0  0  0
  186.8360  176.8190  142.7260 N   0  0  0  0  0  0  0  0  0  0  0  0
  195.2990  173.5190  144.5540 C   0  0  2  0  0  0  0  0  0  0  0  0
  187.8620  174.9540  140.9260 O   0  0  0  0  0  0  0  0  0  0  0  0
  188.8040  173.9670  140.9630 C   0  0  2  0  0  0  0  0  0  0  0  0
  188.9410  178.0400  142.3760 N   0  0  0  0  0  2  0  0  0  0  0  0
  190.2690  177.3300  144.1880 N   0  0  0  0  0  0  0  0  0  0  0  0
  191.0360  176.3370  144.8700 C   0  0  0  0  0  0  0  0  0  0  0  0
  196.0820  175.5150  141.8890 O   0  0  0  0  0  0  0  0  0  0  0  0
  197.9390  174.4230  142.6610 O   0  0  0  0  0  1  0  0  0  0  0  0
  196.6870  174.4530  142.5680 C   0  0  0  0  0  0  0  0  0  0  0  0
  188.9470  174.1260  138.4070 C   0  0  0  0  0  2  0  0  0  0  0  0
  189.9760  174.1270  137.2950 C   0  0  0  0  0  1  0  0  0  0  0  0
  2 32  1  0  0  0  0
  2 28  2  0  0  0  0
  3  1  1  6  0  0  0
  4 28  1  0  0  0  0
  5  3  1  0  0  0  0
  5 25  1  1  0  0  0
  6 38  1  6  0  0  0
  6 20  1  0  0  0  0
  6 31  1  0  0  0  0
  7 37  1  6  0  0  0
  7 29  1  0  0  0  0
  8  4  2  0  0  0  0
  9 12  1  0  0  0  0
 10 20  1  0  0  0  0
 11 26  1  1  0  0  0
 11 17  1  0  0  0  0
 13  8  1  0  0  0  0
 13  2  1  0  0  0  0
 14 23  1  6  0  0  0
 14 34  1  0  0  0  0
 14  5  1  0  0  0  0
 15  9  1  0  0  0  0
 15 17  1  0  0  0  0
 16 33  2  0  0  0  0
 18 25  1  0  0  0  0
 20 11  1  0  0  0  0
 21 23  1  0  0  0  0
 21 16  1  0  0  0  0
 22  3  1  0  0  0  0
 22 19  1  1  0  0  0
 24 21  2  0  0  0  0
 27 12  2  0  0  0  0
 27  7  1  0  0  0  0
 29 22  1  0  0  0  0
 29  1  1  1  0  0  0
 29 19  1  0  0  0  0
 30 31  1  0  0  0  0
 30 24  1  0  0  0  0
 31 24  1  0  0  0  0
 31 26  1  1  0  0  0
 32 16  1  0  0  0  0
 33 34  1  0  0  0  0
 34 18  2  0  0  0  0
 35 37  2  0  0  0  0
 37 36  1  0  0  0  0
 39 38  1  0  0  0  0
M  END
>  <MODEL>
2

>  <REMARK>
 VINA RESULT:      -6.9      3.247      7.954
  Name = 
  2 active torsions:
  status: ('A' for Active; 'I' for Inactive)
    1  A    between atoms: C_5  and  C_8
    2  A    between atoms: C_9  and  C_22
                            x       y       z     vdW  Elec       q    Type
                         _______ _______ _______ _____ _____    ______ ____

>  <TORSDO>
F 2

$$$$
=
 OpenBabel11072409253D

 39 46  0  0  1  0  0  0  0  0999 V2000
  195.6760  172.6760  142.6700 C   0  0  0  0  0  2  0  0  0  0  0  0
  188.9440  177.1170  146.3030 C   0  0  0  0  0  0  0  0  0  0  0  0
  195.5140  173.4970  143.9350 C   0  0  2  0  0  3  0  0  0  0  0  0
  187.3170  176.0220  147.0400 C   0  0  0  0  0  3  0  0  0  0  0  0
  194.0320  173.6100  144.3350 C   0  0  2  0  0  3  0  0  0  0  0  0
  189.0340  174.9820  141.4290 C   0  0  2  0  0  3  0  0  0  0  0  0
  196.1360  174.4430  140.6390 C   0  0  2  0  0  3  0  0  0  0  0  0
  187.0150  177.3330  147.1620 N   0  0  0  0  0  0  0  0  0  0  0  0
  192.9340  172.8010  139.2400 C   0  0  0  0  0  2  0  0  0  0  0  0
  187.8520  173.2650  140.1620 C   0  0  0  0  0  1  0  0  0  0  0  0
  189.6190  172.6920  141.5850 C   0  0  2  0  0  3  0  0  0  0  0  0
  194.2780  173.0260  139.8600 C   0  0  0  0  0  3  0  0  0  0  0  0
  188.0510  177.9760  146.7130 O   0  0  0  0  0  0  0  0  0  0  0  0
  193.4930  175.0480  144.3150 C   0  0  1  0  0  3  0  0  0  0  0  0
  191.8080  173.4260  140.0510 C   0  0  0  0  0  2  0  0  0  0  0  0
  191.2250  176.5450  145.3720 C   0  0  0  0  0  0  0  0  0  0  0  0
  191.4330  172.3940  141.5050 S   0  0  0  0  0  0  0  0  0  0  0  0
  193.3900  174.2960  146.5260 N   0  0  0  0  0  0  0  0  0  0  0  0
  197.9410  174.3950  142.9600 S   0  0  0  0  0  0  0  0  0  0  0  0
  189.1420  173.7280  140.6470 N   0  0  0  0  0  0  0  0  0  0  0  0
  191.0330  175.7240  144.1390 C   0  0  0  0  0  0  0  0  0  0  0  0
  196.1350  174.7050  143.2140 C   0  0  1  0  0  3  0  0  0  0  0  0
  192.2350  175.1580  143.4280 C   0  0  0  0  0  2  0  0  0  0  0  0
  189.8350  175.3180  143.7300 C   0  0  0  0  0  0  0  0  0  0  0  0
  193.9240  173.1590  145.7990 C   0  0  0  0  0  2  0  0  0  0  0  0
  189.2390  173.0820  143.0110 C   0  0  0  0  0  2  0  0  0  0  0  0
  194.7400  174.2560  140.1210 C   0  0  0  0  0  3  0  0  0  0  0  0
  188.5480  175.8460  146.5070 N   0  0  0  0  0  0  0  0  0  0  0  0
  196.4250  173.8540  142.0520 C   0  0  2  0  0  0  0  0  0  0  0  0
  188.3280  175.2460  143.7930 O   0  0  0  0  0  0  0  0  0  0  0  0
  189.0690  174.5620  142.8750 C   0  0  2  0  0  0  0  0  0  0  0  0
  190.2430  177.4890  145.8180 N   0  0  0  0  0  2  0  0  0  0  0  0
  192.2650  176.3190  146.1230 N   0  0  0  0  0  0  0  0  0  0  0  0
  193.1960  175.3020  145.7530 C   0  0  0  0  0  0  0  0  0  0  0  0
  195.9450  176.9480  140.9100 O   0  0  0  0  0  1  0  0  0  0  0  0
  197.6370  176.0340  139.6690 O   0  0  0  0  0  0  0  0  0  0  0  0
  196.6300  175.8430  140.3960 C   0  0  0  0  0  0  0  0  0  0  0  0
  187.8600  175.8850  141.0400 C   0  0  0  0  0  2  0  0  0  0  0  0
  188.1610  177.3280  141.3920 C   0  0  0  0  0  1  0  0  0  0  0  0
  2 28  2  0  0  0  0
  2 13  1  0  0  0  0
  3  1  1  6  0  0  0
  3  5  1  0  0  0  0
  4  8  2  0  0  0  0
  5 25  1  1  0  0  0
  6 38  1  6  0  0  0
  6 31  1  0  0  0  0
  7 37  1  1  0  0  0
  7 29  1  0  0  0  0
  9 12  1  0  0  0  0
  9 15  1  0  0  0  0
 10 20  1  0  0  0  0
 11 26  1  1  0  0  0
 12 27  2  0  0  0  0
 13  8  1  0  0  0  0
 14 23  1  6  0  0  0
 14  5  1  0  0  0  0
 14 34  1  0  0  0  0
 15 17  1  0  0  0  0
 16 32  1  0  0  0  0
 16 33  2  0  0  0  0
 17 11  1  0  0  0  0
 20  6  1  0  0  0  0
 20 11  1  0  0  0  0
 21 16  1  0  0  0  0
 22 19  1  1  0  0  0
 22  3  1  0  0  0  0
 23 21  1  0  0  0  0
 24 30  1  0  0  0  0
 24 21  2  0  0  0  0
 25 18  1  0  0  0  0
 27  7  1  0  0  0  0
 28  4  1  0  0  0  0
 29  1  1  1  0  0  0
 29 19  1  0  0  0  0
 29 22  1  0  0  0  0
 31 26  1  1  0  0  0
 31 24  1  0  0  0  0
 31 30  1  0  0  0  0
 32  2  1  0  0  0  0
 34 33  1  0  0  0  0
 34 18  2  0  0  0  0
 36 37  2  0  0  0  0
 37 35  1  0  0  0  0
 38 39  1  0  0  0  0
M  END
>  <MODEL>
3

>  <REMARK>
 VINA RESULT:      -6.9      3.150      8.395
  Name = 
  2 active torsions:
  status: ('A' for Active; 'I' for Inactive)
    1  A    between atoms: C_5  and  C_8
    2  A    between atoms: C_9  and  C_22
                            x       y       z     vdW  Elec       q    Type
                         _______ _______ _______ _____ _____    ______ ____

>  <TORSDO>
F 2

$$$$
=
 OpenBabel11072409253D

 39 46  0  0  1  0  0  0  0  0999 V2000
  195.8810  172.5310  141.5110 C   0  0  0  0  0  2  0  0  0  0  0  0
  187.5920  175.4500  142.5110 C   0  0  0  0  0  0  0  0  0  0  0  0
  194.6210  172.4370  140.6720 C   0  0  2  0  0  3  0  0  0  0  0  0
  187.2520  177.5170  142.4380 C   0  0  0  0  0  3  0  0  0  0  0  0
  193.6150  173.5360  141.0600 C   0  0  2  0  0  3  0  0  0  0  0  0
  191.4190  175.5320  146.2070 C   0  0  2  0  0  3  0  0  0  0  0  0
  195.7260  170.5490  143.3840 C   0  0  2  0  0  3  0  0  0  0  0  0
  186.0790  176.9210  142.7410 N   0  0  0  0  0  0  0  0  0  0  0  0
  195.9700  173.5680  145.7790 C   0  0  0  0  0  2  0  0  0  0  0  0
  192.6700  177.1740  147.5100 C   0  0  0  0  0  1  0  0  0  0  0  0
  193.3320  176.6240  145.3340 C   0  0  2  0  0  3  0  0  0  0  0  0
  196.1960  172.6070  144.6530 C   0  0  0  0  0  3  0  0  0  0  0  0
  186.3250  175.6460  142.7600 O   0  0  0  0  0  0  0  0  0  0  0  0
  192.2930  172.9950  141.6230 C   0  0  1  0  0  3  0  0  0  0  0  0
  194.5780  174.1830  145.7490 C   0  0  0  0  0  2  0  0  0  0  0  0
  189.5760  173.9370  142.1040 C   0  0  0  0  0  0  0  0  0  0  0  0
  194.4950  175.4850  144.4770 S   0  0  0  0  0  0  0  0  0  0  0  0
  191.7960  174.1100  139.6300 N   0  0  0  0  0  0  0  0  0  0  0  0
  195.6130  169.8600  140.5280 S   0  0  0  0  0  0  0  0  0  0  0  0
  192.7530  176.0650  146.5730 N   0  0  0  0  0  0  0  0  0  0  0  0
  190.6440  174.2930  143.0850 C   0  0  0  0  0  0  0  0  0  0  0  0
  194.3650  171.0290  141.2350 C   0  0  1  0  0  3  0  0  0  0  0  0
  191.9840  173.6090  143.0060 C   0  0  0  0  0  2  0  0  0  0  0  0
  190.5300  175.3170  143.9250 C   0  0  0  0  0  0  0  0  0  0  0  0
  193.2310  174.2740  139.7690 C   0  0  0  0  0  2  0  0  0  0  0  0
  192.2080  177.0060  144.3750 C   0  0  0  0  0  2  0  0  0  0  0  0
  195.4010  171.5480  144.4570 C   0  0  0  0  0  3  0  0  0  0  0  0
  188.2390  176.6060  142.2700 N   0  0  0  0  0  0  0  0  0  0  0  0
  195.6650  171.0750  141.9190 C   0  0  2  0  0  0  0  0  0  0  0  0
  189.8010  176.4680  144.5750 O   0  0  0  0  0  0  0  0  0  0  0  0
  191.0920  176.1410  144.8700 C   0  0  2  0  0  0  0  0  0  0  0  0
  188.1860  174.1500  142.3810 N   0  0  0  0  0  2  0  0  0  0  0  0
  189.9220  173.5190  140.9190 N   0  0  0  0  0  0  0  0  0  0  0  0
  191.3060  173.4070  140.5860 C   0  0  0  0  0  0  0  0  0  0  0  0
  193.6900  169.1670  143.9630 O   0  0  0  0  0  1  0  0  0  0  0  0
  195.7220  168.1680  143.6230 O   0  0  0  0  0  0  0  0  0  0  0  0
  195.0490  169.2290  143.6390 C   0  0  0  0  0  0  0  0  0  0  0  0
  190.3420  175.7020  147.2820 C   0  0  0  0  0  2  0  0  0  0  0  0
  189.3560  174.5520  147.2310 C   0  0  0  0  0  1  0  0  0  0  0  0
  2 13  1  0  0  0  0
  3  5  1  0  0  0  0
  3 22  1  0  0  0  0
  3  1  1  1  0  0  0
  4  8  2  0  0  0  0
  5 25  1  6  0  0  0
  5 14  1  0  0  0  0
  6 20  1  0  0  0  0
  6 38  1  1  0  0  0
  7 37  1  6  0  0  0
  7 27  1  0  0  0  0
  8 13  1  0  0  0  0
 11 26  1  6  0  0  0
 11 20  1  0  0  0  0
 12  9  1  0  0  0  0
 14 23  1  1  0  0  0
 15  9  1  0  0  0  0
 16 32  1  0  0  0  0
 16 21  1  0  0  0  0
 17 11  1  0  0  0  0
 17 15  1  0  0  0  0
 18 25  1  0  0  0  0
 18 34  2  0  0  0  0
 19 29  1  0  0  0  0
 20 10  1  0  0  0  0
 21 24  2  0  0  0  0
 22 19  1  6  0  0  0
 22 29  1  0  0  0  0
 23 21  1  0  0  0  0
 24 30  1  0  0  0  0
 24 31  1  0  0  0  0
 27 12  2  0  0  0  0
 28  4  1  0  0  0  0
 28  2  2  0  0  0  0
 29  1  1  6  0  0  0
 29  7  1  0  0  0  0
 30 31  1  0  0  0  0
 31 26  1  6  0  0  0
 31  6  1  0  0  0  0
 32  2  1  0  0  0  0
 33 16  2  0  0  0  0
 34 33  1  0  0  0  0
 34 14  1  0  0  0  0
 36 37  2  0  0  0  0
 37 35  1  0  0  0  0
 39 38  1  0  0  0  0
M  END
>  <MODEL>
4

>  <REMARK>
 VINA RESULT:      -6.8      3.207      7.304
  Name = 
  2 active torsions:
  status: ('A' for Active; 'I' for Inactive)
    1  A    between atoms: C_5  and  C_8
    2  A    between atoms: C_9  and  C_22
                            x       y       z     vdW  Elec       q    Type
                         _______ _______ _______ _____ _____    ______ ____

>  <TORSDO>
F 2

$$$$
=
 OpenBabel11072409253D

 39 46  0  0  1  0  0  0  0  0999 V2000
  192.2530  173.7200  144.8730 C   0  0  0  0  0  2  0  0  0  0  0  0
  190.4640  171.6450  136.4630 C   0  0  0  0  0  0  0  0  0  0  0  0
  191.1190  172.9810  144.1860 C   0  0  2  0  0  3  0  0  0  0  0  0
  191.6950  170.2470  135.5030 C   0  0  0  0  0  3  0  0  0  0  0  0
  191.5530  172.4660  142.8030 C   0  0  2  0  0  3  0  0  0  0  0  0
  194.3280  174.8940  138.1440 C   0  0  2  0  0  3  0  0  0  0  0  0
  191.7060  176.3850  144.6440 C   0  0  2  0  0  3  0  0  0  0  0  0
  190.8160  170.7120  134.5890 N   0  0  0  0  0  0  0  0  0  0  0  0
  195.1170  176.3540  142.8340 C   0  0  0  0  0  2  0  0  0  0  0  0
  196.7660  175.0130  138.1040 C   0  0  0  0  0  1  0  0  0  0  0  0
  195.6590  173.7680  139.7480 C   0  0  2  0  0  3  0  0  0  0  0  0
  194.0110  176.1210  143.8170 C   0  0  0  0  0  3  0  0  0  0  0  0
  190.0630  171.5600  135.2230 O   0  0  0  0  0  0  0  0  0  0  0  0
  190.7630  173.0790  141.6370 C   0  0  1  0  0  3  0  0  0  0  0  0
  194.8070  175.7750  141.4620 C   0  0  0  0  0  2  0  0  0  0  0  0
  190.2410  172.5250  138.8220 C   0  0  0  0  0  0  0  0  0  0  0  0
  195.0490  173.9690  141.4730 S   0  0  0  0  0  0  0  0  0  0  0  0
  190.3050  170.7870  141.6600 N   0  0  0  0  0  0  0  0  0  0  0  0
  189.7650  174.6140  145.9620 S   0  0  0  0  0  0  0  0  0  0  0  0
  195.5750  175.0010  138.9390 N   0  0  0  0  0  0  0  0  0  0  0  0
  191.5270  173.1840  139.1990 C   0  0  0  0  0  0  0  0  0  0  0  0
  190.2790  174.2690  144.2180 C   0  0  1  0  0  3  0  0  0  0  0  0
  191.7090  173.7150  140.5970 C   0  0  0  0  0  2  0  0  0  0  0  0
  192.5960  173.1700  138.4070 C   0  0  0  0  0  0  0  0  0  0  0  0
  191.2350  170.9640  142.7600 C   0  0  0  0  0  2  0  0  0  0  0  0
  194.8700  172.6560  139.0650 C   0  0  0  0  0  2  0  0  0  0  0  0
  192.7610  176.5410  143.5870 C   0  0  0  0  0  3  0  0  0  0  0  0
  191.4910  170.8110  136.7160 N   0  0  0  0  0  0  0  0  0  0  0  0
  191.3230  174.9230  145.0180 C   0  0  2  0  0  0  0  0  0  0  0  0
  193.3380  172.8570  137.1310 O   0  0  0  0  0  0  0  0  0  0  0  0
  193.9280  173.4450  138.2120 C   0  0  2  0  0  0  0  0  0  0  0  0
  189.8020  172.4350  137.4610 N   0  0  0  0  0  2  0  0  0  0  0  0
  189.5480  171.9210  139.7460 N   0  0  0  0  0  0  0  0  0  0  0  0
  190.0280  171.9030  141.0910 C   0  0  0  0  0  0  0  0  0  0  0  0
  190.1090  177.6220  143.1240 O   0  0  0  0  0  0  0  0  0  0  0  0
  190.0260  177.9160  145.3930 O   0  0  0  0  0  1  0  0  0  0  0  0
  190.5570  177.3300  144.4160 C   0  0  0  0  0  0  0  0  0  0  0  0
  194.4130  175.4820  136.7330 C   0  0  0  0  0  2  0  0  0  0  0  0
  193.1350  176.2200  136.3870 C   0  0  0  0  0  1  0  0  0  0  0  0
  2 28  2  0  0  0  0
  2 32  1  0  0  0  0
  3 22  1  0  0  0  0
  3  1  1  1  0  0  0
  4 28  1  0  0  0  0
  5 25  1  1  0  0  0
  5  3  1  0  0  0  0
  6 38  1  6  0  0  0
  6 31  1  0  0  0  0
  6 20  1  0  0  0  0
  7 37  1  6  0  0  0
  7 29  1  0  0  0  0
  8 13  1  0  0  0  0
  8  4  2  0  0  0  0
  9 12  1  0  0  0  0
 10 20  1  0  0  0  0
 11 26  1  6  0  0  0
 11 17  1  0  0  0  0
 13  2  1  0  0  0  0
 14 23  1  6  0  0  0
 14  5  1  0  0  0  0
 15 17  1  0  0  0  0
 15  9  1  0  0  0  0
 16 21  1  0  0  0  0
 16 33  2  0  0  0  0
 18 25  1  0  0  0  0
 20 11  1  0  0  0  0
 21 23  1  0  0  0  0
 22 29  1  0  0  0  0
 22 19  1  1  0  0  0
 24 21  2  0  0  0  0
 27 12  2  0  0  0  0
 27  7  1  0  0  0  0
 29  1  1  1  0  0  0
 29 19  1  0  0  0  0
 30 31  1  0  0  0  0
 30 24  1  0  0  0  0
 31 24  1  0  0  0  0
 31 26  1  1  0  0  0
 32 16  1  0  0  0  0
 33 34  1  0  0  0  0
 34 14  1  0  0  0  0
 34 18  2  0  0  0  0
 35 37  2  0  0  0  0
 37 36  1  0  0  0  0
 39 38  1  0  0  0  0
M  END
>  <MODEL>
5

>  <REMARK>
 VINA RESULT:      -6.5      2.728      4.595
  Name = 
  2 active torsions:
  status: ('A' for Active; 'I' for Inactive)
    1  A    between atoms: C_5  and  C_8
    2  A    between atoms: C_9  and  C_22
                            x       y       z     vdW  Elec       q    Type
                         _______ _______ _______ _____ _____    ______ ____

>  <TORSDO>
F 2

$$$$
=
 OpenBabel11072409253D

 39 46  0  0  1  0  0  0  0  0999 V2000
  192.4890  172.4670  137.4320 C   0  0  0  0  0  2  0  0  0  0  0  0
  189.6110  174.0480  145.6450 C   0  0  0  0  0  0  0  0  0  0  0  0
  191.2010  172.1680  138.1740 C   0  0  2  0  0  3  0  0  0  0  0  0
  189.2400  176.0350  146.2000 C   0  0  0  0  0  3  0  0  0  0  0  0
  191.0340  173.0970  139.3900 C   0  0  2  0  0  3  0  0  0  0  0  0
  194.5720  174.7690  143.8610 C   0  0  2  0  0  3  0  0  0  0  0  0
  194.2620  170.5040  138.1110 C   0  0  2  0  0  3  0  0  0  0  0  0
  189.0560  175.2640  147.2940 N   0  0  0  0  0  0  0  0  0  0  0  0
  196.2900  173.5450  139.3540 C   0  0  0  0  0  2  0  0  0  0  0  0
  196.1550  176.6000  143.5430 C   0  0  0  0  0  1  0  0  0  0  0  0
  194.5220  176.1410  141.9300 C   0  0  2  0  0  3  0  0  0  0  0  0
  195.4460  172.6220  138.5300 C   0  0  0  0  0  3  0  0  0  0  0  0
  189.2770  174.0430  146.9060 O   0  0  0  0  0  0  0  0  0  0  0  0
  191.0170  172.3600  140.7360 C   0  0  1  0  0  3  0  0  0  0  0  0
  195.6180  173.9320  140.6640 C   0  0  0  0  0  2  0  0  0  0  0  0
  190.2120  172.8640  143.4930 C   0  0  0  0  0  0  0  0  0  0  0  0
  194.3370  175.1920  140.3640 S   0  0  0  0  0  0  0  0  0  0  0  0
  188.9230  173.3630  140.4650 N   0  0  0  0  0  0  0  0  0  0  0  0
  191.6960  169.7780  136.8720 S   0  0  0  0  0  0  0  0  0  0  0  0
  195.4320  175.5090  142.9070 N   0  0  0  0  0  0  0  0  0  0  0  0
  191.5250  173.3930  143.0190 C   0  0  0  0  0  0  0  0  0  0  0  0
  191.7070  170.7420  138.4520 C   0  0  1  0  0  3  0  0  0  0  0  0
  192.0810  172.9300  141.6980 C   0  0  0  0  0  2  0  0  0  0  0  0
  192.1530  174.3950  143.6280 C   0  0  0  0  0  0  0  0  0  0  0  0
  189.6510  173.7530  139.2710 C   0  0  0  0  0  2  0  0  0  0  0  0
  193.1470  176.3320  142.5650 C   0  0  0  0  0  2  0  0  0  0  0  0
  195.0110  171.4480  139.0050 C   0  0  0  0  0  3  0  0  0  0  0  0
  189.5820  175.2900  145.1240 N   0  0  0  0  0  0  0  0  0  0  0  0
  192.8760  171.0000  137.6000 C   0  0  2  0  0  0  0  0  0  0  0  0
  192.3380  175.4210  144.7190 O   0  0  0  0  0  0  0  0  0  0  0  0
  193.1810  175.3060  143.6530 C   0  0  2  0  0  0  0  0  0  0  0  0
  189.8490  172.8570  144.8790 N   0  0  0  0  0  2  0  0  0  0  0  0
  189.3260  172.4950  142.6110 N   0  0  0  0  0  0  0  0  0  0  0  0
  189.6280  172.6010  141.2200 C   0  0  0  0  0  0  0  0  0  0  0  0
  193.9330  168.8110  139.9590 O   0  0  0  0  0  1  0  0  0  0  0  0
  194.7340  168.1660  137.9140 O   0  0  0  0  0  0  0  0  0  0  0  0
  194.3030  169.0960  138.6410 C   0  0  0  0  0  0  0  0  0  0  0  0
  195.0650  174.7760  145.3100 C   0  0  0  0  0  2  0  0  0  0  0  0
  195.8300  173.5030  145.6170 C   0  0  0  0  0  1  0  0  0  0  0  0
  2 13  1  0  0  0  0
  3  1  1  6  0  0  0
  3 22  1  0  0  0  0
  3  5  1  0  0  0  0
  4  8  2  0  0  0  0
  5 25  1  6  0  0  0
  5 14  1  0  0  0  0
  6 38  1  1  0  0  0
  7 37  1  1  0  0  0
  7 27  1  0  0  0  0
  9 15  1  0  0  0  0
 11 26  1  1  0  0  0
 11 20  1  0  0  0  0
 12 27  2  0  0  0  0
 12  9  1  0  0  0  0
 13  8  1  0  0  0  0
 14 34  1  0  0  0  0
 14 23  1  1  0  0  0
 16 32  1  0  0  0  0
 17 15  1  0  0  0  0
 17 11  1  0  0  0  0
 18 34  2  0  0  0  0
 19 29  1  0  0  0  0
 20 10  1  0  0  0  0
 20  6  1  0  0  0  0
 21 16  1  0  0  0  0
 21 24  2  0  0  0  0
 22 19  1  6  0  0  0
 23 21  1  0  0  0  0
 24 31  1  0  0  0  0
 24 30  1  0  0  0  0
 25 18  1  0  0  0  0
 28  2  2  0  0  0  0
 28  4  1  0  0  0  0
 29  1  1  6  0  0  0
 29  7  1  0  0  0  0
 29 22  1  0  0  0  0
 31 26  1  6  0  0  0
 31  6  1  0  0  0  0
 31 30  1  0  0  0  0
 32  2  1  0  0  0  0
 33 16  2  0  0  0  0
 34 33  1  0  0  0  0
 36 37  2  0  0  0  0
 37 35  1  0  0  0  0
 38 39  1  0  0  0  0
M  END
>  <MODEL>
6

>  <REMARK>
 VINA RESULT:      -6.4      3.585      7.292
  Name = 
  2 active torsions:
  status: ('A' for Active; 'I' for Inactive)
    1  A    between atoms: C_5  and  C_8
    2  A    between atoms: C_9  and  C_22
                            x       y       z     vdW  Elec       q    Type
                         _______ _______ _______ _____ _____    ______ ____

>  <TORSDO>
F 2

$$$$
=
 OpenBabel11072409253D

 39 46  0  0  1  0  0  0  0  0999 V2000
  191.7580  170.4240  138.6350 C   0  0  0  0  0  2  0  0  0  0  0  0
  194.1970  176.2890  144.7910 C   0  0  0  0  0  0  0  0  0  0  0  0
  193.0780  170.7730  139.2970 C   0  0  2  0  0  3  0  0  0  0  0  0
  193.5120  176.0110  146.7520 C   0  0  0  0  0  3  0  0  0  0  0  0
  192.8510  171.4940  140.6370 C   0  0  2  0  0  3  0  0  0  0  0  0
  189.4560  176.0450  142.3870 C   0  0  2  0  0  3  0  0  0  0  0  0
  191.3810  172.2390  136.6290 C   0  0  2  0  0  3  0  0  0  0  0  0
  194.1900  177.1780  146.7190 N   0  0  0  0  0  0  0  0  0  0  0  0
  188.1910  172.9890  138.6700 C   0  0  0  0  0  2  0  0  0  0  0  0
  187.1200  175.6640  142.9820 C   0  0  0  0  0  1  0  0  0  0  0  0
  188.5680  173.8610  142.6200 C   0  0  2  0  0  3  0  0  0  0  0  0
  189.3040  172.2910  137.9520 C   0  0  0  0  0  3  0  0  0  0  0  0
  194.6120  177.3060  145.4960 O   0  0  0  0  0  0  0  0  0  0  0  0
  193.3990  172.9280  140.6690 C   0  0  1  0  0  3  0  0  0  0  0  0
  188.6870  173.8120  139.8500 C   0  0  0  0  0  2  0  0  0  0  0  0
  194.0960  174.9570  142.6440 C   0  0  0  0  0  0  0  0  0  0  0  0
  189.0640  172.7230  141.2620 S   0  0  0  0  0  0  0  0  0  0  0  0
  194.5970  171.6900  142.2480 N   0  0  0  0  0  0  0  0  0  0  0  0
  193.7950  170.5590  136.6340 S   0  0  0  0  0  0  0  0  0  0  0  0
  188.2400  175.2270  142.1630 N   0  0  0  0  0  0  0  0  0  0  0  0
  192.6610  174.7800  142.2720 C   0  0  0  0  0  0  0  0  0  0  0  0
  193.4380  171.6500  138.0860 C   0  0  1  0  0  3  0  0  0  0  0  0
  192.3010  173.9340  141.0770 C   0  0  0  0  0  2  0  0  0  0  0  0
  191.6640  175.1910  143.0500 C   0  0  0  0  0  0  0  0  0  0  0  0
  193.6540  170.7320  141.7020 C   0  0  0  0  0  2  0  0  0  0  0  0
  189.6890  173.9250  143.6530 C   0  0  0  0  0  2  0  0  0  0  0  0
  190.3430  172.9610  137.4370 C   0  0  0  0  0  3  0  0  0  0  0  0
  193.5070  175.4080  145.5410 N   0  0  0  0  0  0  0  0  0  0  0  0
  192.2300  171.1800  137.3950 C   0  0  2  0  0  0  0  0  0  0  0  0
  191.0780  175.8820  144.2570 O   0  0  0  0  0  0  0  0  0  0  0  0
  190.3180  175.2410  143.3230 C   0  0  2  0  0  0  0  0  0  0  0  0
  194.5490  176.0760  143.4160 N   0  0  0  0  0  2  0  0  0  0  0  0
  194.9450  174.0120  142.3510 N   0  0  0  0  0  0  0  0  0  0  0  0
  194.4890  172.8370  141.6810 C   0  0  0  0  0  0  0  0  0  0  0  0
  192.6260  174.4040  136.2440 O   0  0  0  0  0  1  0  0  0  0  0  0
  192.3170  172.9150  134.5330 O   0  0  0  0  0  0  0  0  0  0  0  0
  192.1500  173.1870  135.7480 C   0  0  0  0  0  0  0  0  0  0  0  0
  189.1890  177.4890  142.8230 C   0  0  0  0  0  2  0  0  0  0  0  0
  188.6090  178.2910  141.6750 C   0  0  0  0  0  1  0  0  0  0  0  0
  2 13  1  0  0  0  0
  2 28  2  0  0  0  0
  3  1  1  6  0  0  0
  3  5  1  0  0  0  0
  5 14  1  0  0  0  0
  5 25  1  1  0  0  0
  6 38  1  1  0  0  0
  6 31  1  0  0  0  0
  7 37  1  1  0  0  0
  7 29  1  0  0  0  0
  7 27  1  0  0  0  0
  8  4  2  0  0  0  0
  9 15  1  0  0  0  0
 11 26  1  1  0  0  0
 12  9  1  0  0  0  0
 13  8  1  0  0  0  0
 14 23  1  1  0  0  0
 14 34  1  0  0  0  0
 15 17  1  0  0  0  0
 16 32  1  0  0  0  0
 17 11  1  0  0  0  0
 19 29  1  0  0  0  0
 20  6  1  0  0  0  0
 20 11  1  0  0  0  0
 20 10  1  0  0  0  0
 21 16  1  0  0  0  0
 21 24  2  0  0  0  0
 22 19  1  6  0  0  0
 22  3  1  0  0  0  0
 23 21  1  0  0  0  0
 24 31  1  0  0  0  0
 24 30  1  0  0  0  0
 25 18  1  0  0  0  0
 27 12  2  0  0  0  0
 28  4  1  0  0  0  0
 29 22  1  0  0  0  0
 29  1  1  1  0  0  0
 31 26  1  1  0  0  0
 31 30  1  0  0  0  0
 32  2  1  0  0  0  0
 33 16  2  0  0  0  0
 34 18  2  0  0  0  0
 34 33  1  0  0  0  0
 36 37  2  0  0  0  0
 37 35  1  0  0  0  0
 39 38  1  0  0  0  0
M  END
>  <MODEL>
7

>  <REMARK>
 VINA RESULT:      -6.4      3.183      7.336
  Name = 
  2 active torsions:
  status: ('A' for Active; 'I' for Inactive)
    1  A    between atoms: C_5  and  C_8
    2  A    between atoms: C_9  and  C_22
                            x       y       z     vdW  Elec       q    Type
                         _______ _______ _______ _____ _____    ______ ____

>  <TORSDO>
F 2

$$$$
=
 OpenBabel11072409253D

 39 46  0  0  1  0  0  0  0  0999 V2000
  191.4040  177.2130  144.8390 C   0  0  0  0  0  2  0  0  0  0  0  0
  195.7840  169.5790  143.9650 C   0  0  0  0  0  0  0  0  0  0  0  0
  192.5080  176.5340  145.6270 C   0  0  2  0  0  3  0  0  0  0  0  0
  197.0830  169.3620  142.3350 C   0  0  0  0  0  3  0  0  0  0  0  0
  193.2410  175.4900  144.7650 C   0  0  2  0  0  3  0  0  0  0  0  0
  191.4870  171.0700  141.2030 C   0  0  2  0  0  3  0  0  0  0  0  0
  189.0500  176.1110  145.6740 C   0  0  2  0  0  3  0  0  0  0  0  0
  197.0480  168.1800  142.9890 N   0  0  0  0  0  0  0  0  0  0  0  0
  188.8020  175.1940  141.9320 C   0  0  0  0  0  2  0  0  0  0  0  0
  190.8720  171.5410  138.8890 C   0  0  0  0  0  1  0  0  0  0  0  0
  191.8850  173.1850  140.2120 C   0  0  2  0  0  3  0  0  0  0  0  0
  189.0170  175.9300  143.2180 C   0  0  0  0  0  3  0  0  0  0  0  0
  196.2500  168.3600  143.9990 O   0  0  0  0  0  0  0  0  0  0  0  0
  193.1090  174.0530  145.2880 C   0  0  1  0  0  3  0  0  0  0  0  0
  189.7480  174.0130  141.7730 C   0  0  0  0  0  2  0  0  0  0  0  0
  194.4250  171.4740  144.9430 C   0  0  0  0  0  0  0  0  0  0  0  0
  191.4050  174.5980  141.2890 S   0  0  0  0  0  0  0  0  0  0  0  0
  195.3700  174.6310  145.4050 N   0  0  0  0  0  0  0  0  0  0  0  0
  190.8160  177.4160  147.6290 S   0  0  0  0  0  0  0  0  0  0  0  0
  190.9310  172.0570  140.2480 N   0  0  0  0  0  0  0  0  0  0  0  0
  193.4400  171.9210  143.9140 C   0  0  0  0  0  0  0  0  0  0  0  0
  191.4570  176.0060  146.6180 C   0  0  1  0  0  3  0  0  0  0  0  0
  192.5590  173.1110  144.1950 C   0  0  0  0  0  2  0  0  0  0  0  0
  193.4210  171.4260  142.6800 C   0  0  0  0  0  0  0  0  0  0  0  0
  194.7400  175.8120  144.8440 C   0  0  0  0  0  2  0  0  0  0  0  0
  193.2700  172.6920  140.6200 C   0  0  0  0  0  2  0  0  0  0  0  0
  188.9370  175.3170  144.4060 C   0  0  0  0  0  3  0  0  0  0  0  0
  196.2970  170.2830  142.9380 N   0  0  0  0  0  0  0  0  0  0  0  0
  190.4250  176.7950  145.9330 C   0  0  2  0  0  0  0  0  0  0  0  0
  193.8710  170.4930  141.5820 O   0  0  0  0  0  0  0  0  0  0  0  0
  192.9280  171.4610  141.3980 C   0  0  2  0  0  0  0  0  0  0  0  0
  194.9330  170.1340  144.9790 N   0  0  0  0  0  2  0  0  0  0  0  0
  194.9190  172.3540  145.7670 N   0  0  0  0  0  0  0  0  0  0  0  0
  194.5090  173.7180  145.6730 C   0  0  0  0  0  0  0  0  0  0  0  0
  188.9650  174.1370  147.2500 O   0  0  0  0  0  0  0  0  0  0  0  0
  187.4380  175.8330  147.4210 O   0  0  0  0  0  1  0  0  0  0  0  0
  188.4520  175.3710  146.8410 C   0  0  0  0  0  0  0  0  0  0  0  0
  191.2550  169.6050  140.8230 C   0  0  0  0  0  2  0  0  0  0  0  0
  190.8140  168.8060  142.0330 C   0  0  0  0  0  1  0  0  0  0  0  0
  2 13  1  0  0  0  0
  2 32  1  0  0  0  0
  3  1  1  6  0  0  0
  3 22  1  0  0  0  0
  4 28  1  0  0  0  0
  4  8  2  0  0  0  0
  5 25  1  1  0  0  0
  5 14  1  0  0  0  0
  5  3  1  0  0  0  0
  6 38  1  6  0  0  0
  6 31  1  0  0  0  0
  7 29  1  0  0  0  0
  7 37  1  1  0  0  0
  8 13  1  0  0  0  0
  9 12  1  0  0  0  0
 10 20  1  0  0  0  0
 11 20  1  0  0  0  0
 11 26  1  1  0  0  0
 11 17  1  0  0  0  0
 12 27  2  0  0  0  0
 14 23  1  6  0  0  0
 14 34  1  0  0  0  0
 15  9  1  0  0  0  0
 16 32  1  0  0  0  0
 16 33  2  0  0  0  0
 17 15  1  0  0  0  0
 18 34  2  0  0  0  0
 20  6  1  0  0  0  0
 21 23  1  0  0  0  0
 21 16  1  0  0  0  0
 22 19  1  1  0  0  0
 24 21  2  0  0  0  0
 25 18  1  0  0  0  0
 27  7  1  0  0  0  0
 28  2  2  0  0  0  0
 29  1  1  6  0  0  0
 29 22  1  0  0  0  0
 29 19  1  0  0  0  0
 30 24  1  0  0  0  0
 31 26  1  6  0  0  0
 31 30  1  0  0  0  0
 31 24  1  0  0  0  0
 34 33  1  0  0  0  0
 37 35  2  0  0  0  0
 37 36  1  0  0  0  0
 38 39  1  0  0  0  0
M  END
>  <MODEL>
8

>  <REMARK>
 VINA RESULT:      -6.3      3.200      5.974
  Name = 
  2 active torsions:
  status: ('A' for Active; 'I' for Inactive)
    1  A    between atoms: C_5  and  C_8
    2  A    between atoms: C_9  and  C_22
                            x       y       z     vdW  Elec       q    Type
                         _______ _______ _______ _____ _____    ______ ____

>  <TORSDO>
F 2

$$$$
=
 OpenBabel11072409253D

 39 46  0  0  1  0  0  0  0  0999 V2000
  190.0670  170.3520  138.7830 C   0  0  0  0  0  2  0  0  0  0  0  0
  196.5150  173.8420  143.7300 C   0  0  0  0  0  0  0  0  0  0  0  0
  191.5820  170.2830  138.7430 C   0  0  2  0  0  3  0  0  0  0  0  0
  196.7300  173.1630  145.7010 C   0  0  0  0  0  3  0  0  0  0  0  0
  192.1870  170.6430  140.1120 C   0  0  2  0  0  3  0  0  0  0  0  0
  191.3400  175.0520  144.0030 C   0  0  2  0  0  3  0  0  0  0  0  0
  189.3540  172.6770  137.5410 C   0  0  2  0  0  3  0  0  0  0  0  0
  197.6160  174.1660  145.5160 N   0  0  0  0  0  0  0  0  0  0  0  0
  187.7580  173.3700  140.9880 C   0  0  0  0  0  2  0  0  0  0  0  0
  189.5120  174.9200  145.6150 C   0  0  0  0  0  1  0  0  0  0  0  0
  190.0840  173.0670  144.3050 C   0  0  2  0  0  3  0  0  0  0  0  0
  188.1910  172.7170  139.7120 C   0  0  0  0  0  3  0  0  0  0  0  0
  197.4640  174.5470  144.2830 O   0  0  0  0  0  0  0  0  0  0  0  0
  193.0650  171.9030  140.0890 C   0  0  1  0  0  3  0  0  0  0  0  0
  188.9350  173.7490  141.8750 C   0  0  0  0  0  2  0  0  0  0  0  0
  195.1020  173.1760  141.7420 C   0  0  0  0  0  0  0  0  0  0  0  0
  189.5840  172.2720  142.7220 S   0  0  0  0  0  0  0  0  0  0  0  0
  194.4470  170.1020  140.6470 N   0  0  0  0  0  0  0  0  0  0  0  0
  190.9440  170.6810  136.0810 S   0  0  0  0  0  0  0  0  0  0  0  0
  189.9790  174.5400  144.2910 N   0  0  0  0  0  0  0  0  0  0  0  0
  193.6650  173.3480  142.1120 C   0  0  0  0  0  0  0  0  0  0  0  0
  191.5910  171.3820  137.6670 C   0  0  1  0  0  3  0  0  0  0  0  0
  192.5920  172.9300  141.1400 C   0  0  0  0  0  2  0  0  0  0  0  0
  193.2790  173.6950  143.3360 C   0  0  0  0  0  0  0  0  0  0  0  0
  193.1350  169.4990  140.5010 C   0  0  0  0  0  2  0  0  0  0  0  0
  191.5160  172.6610  144.6380 C   0  0  0  0  0  2  0  0  0  0  0  0
  189.0310  173.3170  138.8590 C   0  0  0  0  0  3  0  0  0  0  0  0
  196.0190  172.9190  144.5760 N   0  0  0  0  0  0  0  0  0  0  0  0
  190.1240  171.3250  137.6070 C   0  0  2  0  0  0  0  0  0  0  0  0
  193.5100  174.1210  144.7650 O   0  0  0  0  0  0  0  0  0  0  0  0
  192.2690  173.8930  144.2470 C   0  0  2  0  0  0  0  0  0  0  0  0
  196.1420  173.9530  142.3480 N   0  0  0  0  0  2  0  0  0  0  0  0
  195.4310  172.2180  140.9220 N   0  0  0  0  0  0  0  0  0  0  0  0
  194.4180  171.3610  140.3950 C   0  0  0  0  0  0  0  0  0  0  0  0
  190.9340  174.5380  136.8870 O   0  0  0  0  0  1  0  0  0  0  0  0
  189.3210  173.8130  135.4340 O   0  0  0  0  0  0  0  0  0  0  0  0
  189.8770  173.6860  136.5540 C   0  0  0  0  0  0  0  0  0  0  0  0
  191.7080  176.3480  144.7320 C   0  0  0  0  0  2  0  0  0  0  0  0
  191.5670  177.5380  143.8040 C   0  0  0  0  0  1  0  0  0  0  0  0
  2 13  1  0  0  0  0
  2 28  2  0  0  0  0
  3  1  1  1  0  0  0
  3  5  1  0  0  0  0
  5 25  1  6  0  0  0
  6 31  1  0  0  0  0
  6 20  1  0  0  0  0
  6 38  1  1  0  0  0
  7 37  1  6  0  0  0
  7 29  1  0  0  0  0
  7 27  1  0  0  0  0
  8  4  2  0  0  0  0
  9 15  1  0  0  0  0
 11 26  1  6  0  0  0
 12  9  1  0  0  0  0
 13  8  1  0  0  0  0
 14  5  1  0  0  0  0
 14 34  1  0  0  0  0
 14 23  1  1  0  0  0
 15 17  1  0  0  0  0
 16 21  1  0  0  0  0
 16 32  1  0  0  0  0
 17 11  1  0  0  0  0
 19 29  1  0  0  0  0
 20 11  1  0  0  0  0
 20 10  1  0  0  0  0
 21 24  2  0  0  0  0
 22 19  1  6  0  0  0
 22  3  1  0  0  0  0
 23 21  1  0  0  0  0
 24 31  1  0  0  0  0
 24 30  1  0  0  0  0
 25 18  1  0  0  0  0
 27 12  2  0  0  0  0
 28  4  1  0  0  0  0
 29 22  1  0  0  0  0
 29  1  1  1  0  0  0
 31 26  1  1  0  0  0
 31 30  1  0  0  0  0
 32  2  1  0  0  0  0
 33 16  2  0  0  0  0
 34 18  2  0  0  0  0
 34 33  1  0  0  0  0
 36 37  2  0  0  0  0
 37 35  1  0  0  0  0
 39 38  1  0  0  0  0
M  END
>  <MODEL>
9

>  <REMARK>
 VINA RESULT:      -6.1      3.318      5.943
  Name = 
  2 active torsions:
  status: ('A' for Active; 'I' for Inactive)
    1  A    between atoms: C_5  and  C_8
    2  A    between atoms: C_9  and  C_22
                            x       y       z     vdW  Elec       q    Type
                         _______ _______ _______ _____ _____    ______ ____

>  <TORSDO>
F 2

$$$$
