=
 OpenBabel11062421283D

 66 74  0  0  1  0  0  0  0  0999 V2000
  190.8310  170.5190  142.2510 C   0  0  0  0  0  2  0  0  0  0  0  0
  189.6760  177.1500  145.8530 O   0  0  0  0  0  0  0  0  0  0  0  0
  194.5750  174.9410  144.3560 C   0  0  1  0  0  3  0  0  0  0  0  0
  190.9980  175.7880  144.4370 C   0  0  1  0  0  3  0  0  0  0  0  0
  189.5110  177.5630  143.4810 C   0  0  0  0  0  2  0  0  0  0  0  0
  189.4040  172.2370  145.0130 C   0  0  0  0  0  2  0  0  0  0  0  0
  190.7630  174.2820  144.2710 C   0  0  1  0  0  3  0  0  0  0  0  0
  196.0670  171.5740  140.6970 C   0  0  0  0  0  0  0  0  0  0  0  0
  191.9060  171.0430  139.5040 C   0  0  0  0  0  2  0  0  0  0  0  0
  196.3570  172.4700  137.8530 C   0  0  0  0  0  2  0  0  0  0  0  0
  190.8580  176.8900  146.5030 N   0  0  0  0  0  0  0  0  0  0  0  0
  193.9990  171.8510  138.4080 C   0  0  0  0  0  2  0  0  0  0  0  0
  191.1180  169.7970  139.8770 C   0  0  0  0  0  2  0  0  0  0  0  0
  195.8600  172.9580  140.6710 O   0  0  0  0  0  0  0  0  0  0  0  0
  190.0070  173.7350  135.1700 C   0  0  0  0  0  0  0  0  0  0  0  0
  195.4340  171.3240  138.2840 C   0  0  2  0  0  0  0  0  0  0  0  0
  189.6950  176.5440  144.5840 C   0  0  0  0  0  0  0  0  0  0  0  0
  191.9890  173.6220  144.0370 O   0  0  0  0  0  0  0  0  0  0  0  0
  194.7960  175.7200  141.2570 C   0  0  0  0  0  2  0  0  0  0  0  0
  194.0620  176.1900  145.0910 C   0  0  1  0  0  3  0  0  0  0  0  0
  191.0350  171.5420  135.1410 C   0  0  0  0  0  2  0  0  0  0  0  0
  191.8080  172.2750  143.6330 C   0  0  0  0  0  2  0  0  0  0  0  0
  194.2090  173.6450  146.3870 C   0  0  0  0  0  3  0  0  0  0  0  0
  195.8560  170.7990  139.5490 O   0  0  0  0  0  0  0  0  0  0  0  0
  195.6260  175.2430  143.4850 O   0  0  0  0  0  0  0  0  0  0  0  0
  196.4790  171.0150  141.7480 O   0  0  0  0  0  0  0  0  0  0  0  0
  194.9650  173.8590  145.3140 C   0  0  0  0  0  3  0  0  0  0  0  0
  196.3730  173.8140  141.6830 C   0  0  2  0  0  3  0  0  0  0  0  0
  191.7140  173.0670  136.9830 C   0  0  0  0  0  2  0  0  0  0  0  0
  190.1050  170.1240  140.9680 C   0  0  0  0  0  2  0  0  0  0  0  0
  194.0140  175.8350  134.5140 C   0  0  0  0  0  2  0  0  0  0  0  0
  189.9050  173.6410  145.3800 C   0  0  0  0  0  2  0  0  0  0  0  0
  193.0260  175.8280  146.1720 C   0  0  1  0  0  3  0  0  0  0  0  0
  189.2570  172.0250  143.4970 C   0  0  0  0  0  2  0  0  0  0  0  0
  190.0390  172.5170  134.7150 N   0  0  0  0  0  0  0  0  0  0  0  0
  192.9360  170.7510  138.4320 C   0  0  2  0  0  3  0  0  0  0  0  0
  196.8020  174.1180  136.4390 C   0  0  1  0  0  3  0  0  0  0  0  0
  195.2660  174.6790  142.2540 C   0  0  1  0  0  0  0  0  0  0  0  0
  190.6000  171.9630  142.7220 C   0  0  2  0  0  0  0  0  0  0  0  0
  191.9790  175.1840  135.7010 C   0  0  0  0  0  3  0  0  0  0  0  0
  197.9410  173.7910  135.4840 C   0  0  0  0  0  1  0  0  0  0  0  0
  190.9860  174.1930  136.2330 C   0  0  1  0  0  3  0  0  0  0  0  0
  195.4410  175.3020  134.5440 C   0  0  0  0  0  2  0  0  0  0  0  0
  192.3060  170.5930  137.0390 C   0  0  0  0  0  2  0  0  0  0  0  0
  193.0520  174.8060  135.0010 C   0  0  0  0  0  3  0  0  0  0  0  0
  191.6260  176.1560  145.7600 C   0  0  0  0  0  0  0  0  0  0  0  0
  195.8560  176.2600  136.6710 O   0  0  0  0  0  0  0  0  0  0  0  0
  188.4610  176.4870  143.7120 C   0  0  0  0  0  2  0  0  0  0  0  0
  193.1290  174.4870  146.6710 O   0  0  0  0  0  0  0  0  0  0  0  0
  191.2630  171.6470  136.6390 C   0  0  2  0  0  3  0  0  0  0  0  0
  196.2330  175.2510  141.2240 C   0  0  2  0  0  3  0  0  0  0  0  0
  196.0130  175.2910  135.9370 C   0  0  0  0  0  0  0  0  0  0  0  0
  195.9750  173.0040  136.6130 O   0  0  0  0  0  0  0  0  0  0  0  0
  189.5040  173.4590  141.0260 C   0  0  0  0  0  2  0  0  0  0  0  0
  190.6100  172.9560  141.5760 C   0  0  0  0  0  3  0  0  0  0  0  0
  189.0220  174.6000  134.6820 O   0  0  0  0  0  0  0  0  0  0  0  0
  188.8020  175.8940  135.2200 C   0  0  0  0  0  1  0  0  0  0  0  0
  195.5150  170.2140  137.2340 C   0  0  0  0  0  2  0  0  0  0  0  0
  196.6120  170.4140  136.3500 O   0  0  0  0  0  0  0  0  0  0  0  0
  196.7880  169.6290  135.2120 C   0  0  0  0  0  0  0  0  0  0  0  0
  197.9370  169.5020  134.7200 O   0  0  0  0  0  0  0  0  0  0  0  0
  195.6340  168.9650  134.5350 C   0  0  0  0  0  2  0  0  0  0  0  0
  194.5400  169.8290  134.5130 O   0  0  0  0  0  1  0  0  0  0  0  0
  195.1870  176.9960  145.7300 C   0  0  0  0  0  2  0  0  0  0  0  0
  196.3490  178.9810  145.0990 O   0  0  0  0  0  1  0  0  0  0  0  0
  195.0800  178.4590  145.3470 C   0  0  0  0  0  2  0  0  0  0  0  0
  1 39  1  0  0  0  0
  2 11  1  0  0  0  0
  3 20  1  0  0  0  0
  3 27  1  1  0  0  0
  4 17  1  0  0  0  0
  4 46  1  1  0  0  0
  5 48  1  0  0  0  0
  5 17  1  0  0  0  0
  6 32  1  0  0  0  0
  7  4  1  0  0  0  0
  7 32  1  1  0  0  0
  8 26  2  0  0  0  0
  9 13  1  0  0  0  0
 10 16  1  0  0  0  0
 12 36  1  0  0  0  0
 13 30  1  0  0  0  0
 14  8  1  0  0  0  0
 15 42  1  0  0  0  0
 16 58  1  6  0  0  0
 16 12  1  0  0  0  0
 16 24  1  0  0  0  0
 17  2  1  0  0  0  0
 18  7  1  0  0  0  0
 20 64  1  1  0  0  0
 20 33  1  0  0  0  0
 22 18  1  0  0  0  0
 23 49  1  0  0  0  0
 24  8  1  0  0  0  0
 25  3  1  0  0  0  0
 27 23  2  0  0  0  0
 28 14  1  6  0  0  0
 28 38  1  0  0  0  0
 30  1  1  0  0  0  0
 31 43  1  0  0  0  0
 31 45  1  0  0  0  0
 33 46  1  6  0  0  0
 33 49  1  0  0  0  0
 34  6  1  0  0  0  0
 35 21  1  0  0  0  0
 35 15  2  0  0  0  0
 36 44  1  6  0  0  0
 36  9  1  0  0  0  0
 37 41  1  6  0  0  0
 37 53  1  0  0  0  0
 38 19  1  6  0  0  0
 38 25  1  0  0  0  0
 39 55  1  6  0  0  0
 39 34  1  0  0  0  0
 39 22  1  0  0  0  0
 42 40  1  6  0  0  0
 42 29  1  0  0  0  0
 43 52  1  0  0  0  0
 45 40  2  0  0  0  0
 46 11  2  0  0  0  0
 48 17  1  0  0  0  0
 50 21  1  6  0  0  0
 50 29  1  0  0  0  0
 50 44  1  0  0  0  0
 51 19  1  6  0  0  0
 51 28  1  0  0  0  0
 51 38  1  0  0  0  0
 52 37  1  0  0  0  0
 52 47  2  0  0  0  0
 53 10  1  0  0  0  0
 54 55  2  0  0  0  0
 56 15  1  0  0  0  0
 56 57  1  0  0  0  0
 59 58  1  0  0  0  0
 60 59  1  0  0  0  0
 61 60  2  0  0  0  0
 62 60  1  0  0  0  0
 63 62  1  0  0  0  0
 65 66  1  0  0  0  0
 66 64  1  0  0  0  0
M  END
>  <MODEL>
1

>  <REMARK>
 VINA RESULT:      -5.4      0.000      0.000
  Name = 
  8 active torsions:
  status: ('A' for Active; 'I' for Inactive)
    1  A    between atoms: C_15  and  O_39
    2  A    between atoms: C_16  and  C_48
    3  A    between atoms: C_18  and  C_20
    4  A    between atoms: C_20  and  O_63
    5  A    between atoms: C_22  and  C_51
    6  A    between atoms: C_44  and  C_46
    7  A    between atoms: C_45  and  C_51
    8  A    between atoms: C_48  and  O_63
                            x       y       z     vdW  Elec       q    Type
                         _______ _______ _______ _____ _____    ______ ____

>  <TORSDO>
F 8

$$$$
=
 OpenBabel11062421283D

 66 74  0  0  1  0  0  0  0  0999 V2000
  195.6330  170.4310  142.1800 C   0  0  0  0  0  2  0  0  0  0  0  0
  197.2480  173.3040  135.2940 O   0  0  0  0  0  0  0  0  0  0  0  0
  192.2680  171.6100  137.1510 C   0  0  1  0  0  3  0  0  0  0  0  0
  195.7000  172.9220  137.0460 C   0  0  1  0  0  3  0  0  0  0  0  0
  196.8040  175.1550  136.7770 C   0  0  0  0  0  2  0  0  0  0  0  0
  197.5900  170.2420  139.2210 C   0  0  0  0  0  2  0  0  0  0  0  0
  195.9750  171.9570  138.2040 C   0  0  1  0  0  3  0  0  0  0  0  0
  190.1240  171.1300  141.8540 C   0  0  0  0  0  0  0  0  0  0  0  0
  193.8910  172.3490  143.6830 C   0  0  0  0  0  2  0  0  0  0  0  0
  189.0960  173.5480  143.2950 C   0  0  0  0  0  2  0  0  0  0  0  0
  196.2780  172.4550  134.8200 N   0  0  0  0  0  0  0  0  0  0  0  0
  191.5510  173.2170  143.6440 C   0  0  0  0  0  2  0  0  0  0  0  0
  194.8170  171.3470  144.3550 C   0  0  0  0  0  2  0  0  0  0  0  0
  190.2380  172.2180  140.9810 O   0  0  0  0  0  0  0  0  0  0  0  0
  194.5140  177.4990  145.3350 C   0  0  0  0  0  0  0  0  0  0  0  0
  190.1610  172.6100  143.8780 C   0  0  2  0  0  0  0  0  0  0  0  0
  196.9550  173.6570  136.6230 C   0  0  0  0  0  0  0  0  0  0  0  0
  194.7690  171.3630  138.6380 O   0  0  0  0  0  0  0  0  0  0  0  0
  191.2510  174.1160  138.8670 C   0  0  0  0  0  2  0  0  0  0  0  0
  192.8720  172.1760  135.8550 C   0  0  1  0  0  3  0  0  0  0  0  0
  193.6380  175.6760  146.6690 C   0  0  0  0  0  2  0  0  0  0  0  0
  194.9230  170.6560  139.8570 C   0  0  0  0  0  2  0  0  0  0  0  0
  193.1930  169.4290  136.5820 C   0  0  0  0  0  3  0  0  0  0  0  0
  190.0920  171.3280  143.2410 O   0  0  0  0  0  0  0  0  0  0  0  0
  191.0200  172.1740  137.4340 O   0  0  0  0  0  0  0  0  0  0  0  0
  190.0140  169.9600  141.3980 O   0  0  0  0  0  0  0  0  0  0  0  0
  192.1870  170.1150  137.1140 C   0  0  0  0  0  3  0  0  0  0  0  0
  189.9400  172.1050  139.5960 C   0  0  2  0  0  3  0  0  0  0  0  0
  193.3430  175.4980  144.2070 C   0  0  0  0  0  2  0  0  0  0  0  0
  196.0450  171.1030  143.4860 C   0  0  0  0  0  2  0  0  0  0  0  0
  190.3530  178.6550  143.8350 C   0  0  0  0  0  2  0  0  0  0  0  0
  197.1140  170.9500  137.9450 C   0  0  0  0  0  2  0  0  0  0  0  0
  194.1600  171.4310  135.4560 C   0  0  1  0  0  3  0  0  0  0  0  0
  197.3740  171.0810  140.4930 C   0  0  0  0  0  2  0  0  0  0  0  0
  194.4420  176.8770  146.4750 N   0  0  0  0  0  0  0  0  0  0  0  0
  192.6480  172.6030  144.5130 C   0  0  2  0  0  3  0  0  0  0  0  0
  188.2240  175.5810  143.1660 C   0  0  1  0  0  3  0  0  0  0  0  0
  191.1000  172.6120  138.7620 C   0  0  1  0  0  0  0  0  0  0  0  0
  195.8880  171.2520  140.9060 C   0  0  2  0  0  0  0  0  0  0  0  0
  192.6510  177.8330  143.6960 C   0  0  0  0  0  3  0  0  0  0  0  0
  186.9070  175.7120  143.9180 C   0  0  0  0  0  1  0  0  0  0  0  0
  193.8000  176.9610  144.1100 C   0  0  1  0  0  3  0  0  0  0  0  0
  189.0100  177.9470  143.9610 C   0  0  0  0  0  2  0  0  0  0  0  0
  192.9270  173.5020  145.7290 C   0  0  0  0  0  2  0  0  0  0  0  0
  191.4630  177.7780  144.3030 C   0  0  0  0  0  3  0  0  0  0  0  0
  195.3950  172.2250  135.7410 C   0  0  0  0  0  0  0  0  0  0  0  0
  189.0730  177.2200  141.7070 O   0  0  0  0  0  0  0  0  0  0  0  0
  197.9390  174.4230  137.4780 C   0  0  0  0  0  2  0  0  0  0  0  0
  194.2590  170.0960  135.9700 O   0  0  0  0  0  0  0  0  0  0  0  0
  193.7780  174.7540  145.4700 C   0  0  2  0  0  3  0  0  0  0  0  0
  189.8790  173.4940  138.9950 C   0  0  2  0  0  3  0  0  0  0  0  0
  188.7970  176.9340  142.8670 C   0  0  0  0  0  0  0  0  0  0  0  0
  189.1320  174.8120  143.9020 O   0  0  0  0  0  0  0  0  0  0  0  0
  196.4470  173.6970  141.0690 C   0  0  0  0  0  2  0  0  0  0  0  0
  195.5410  172.7170  141.0810 C   0  0  0  0  0  3  0  0  0  0  0  0
  195.2970  178.6550  145.2590 O   0  0  0  0  0  0  0  0  0  0  0  0
  196.7000  178.6190  145.0460 C   0  0  0  0  0  1  0  0  0  0  0  0
  189.8900  172.4370  145.3730 C   0  0  0  0  0  2  0  0  0  0  0  0
  188.9570  173.4010  145.8470 O   0  0  0  0  0  0  0  0  0  0  0  0
  189.2660  174.2670  146.8940 C   0  0  0  0  0  0  0  0  0  0  0  0
  188.6750  174.1410  147.9960 O   0  0  0  0  0  0  0  0  0  0  0  0
  190.2570  175.3720  146.7260 C   0  0  0  0  0  2  0  0  0  0  0  0
  190.7060  175.7970  147.9770 O   0  0  0  0  0  1  0  0  0  0  0  0
  191.8930  172.1370  134.6880 C   0  0  0  0  0  2  0  0  0  0  0  0
  189.8470  173.3630  134.7500 O   0  0  0  0  0  1  0  0  0  0  0  0
  191.2160  173.4830  134.5140 C   0  0  0  0  0  2  0  0  0  0  0  0
  1 30  1  0  0  0  0
  2 17  1  0  0  0  0
  3 27  1  6  0  0  0
  3 25  1  0  0  0  0
  4 46  1  6  0  0  0
  4  7  1  0  0  0  0
  5 48  1  0  0  0  0
  6 34  1  0  0  0  0
  7 32  1  6  0  0  0
  7 18  1  0  0  0  0
  8 24  1  0  0  0  0
  9 13  1  0  0  0  0
  9 36  1  0  0  0  0
 10 16  1  0  0  0  0
 10 53  1  0  0  0  0
 11  2  1  0  0  0  0
 11 46  2  0  0  0  0
 12 16  1  0  0  0  0
 14  8  1  0  0  0  0
 15 35  2  0  0  0  0
 16 58  1  1  0  0  0
 17  5  1  0  0  0  0
 17  4  1  0  0  0  0
 17 48  1  0  0  0  0
 18 22  1  0  0  0  0
 20 64  1  6  0  0  0
 20  3  1  0  0  0  0
 22 39  1  0  0  0  0
 23 27  2  0  0  0  0
 24 16  1  0  0  0  0
 25 38  1  0  0  0  0
 26  8  2  0  0  0  0
 28 14  1  1  0  0  0
 30 13  1  0  0  0  0
 31 43  1  0  0  0  0
 31 45  1  0  0  0  0
 32  6  1  0  0  0  0
 33 46  1  1  0  0  0
 33 20  1  0  0  0  0
 33 49  1  0  0  0  0
 34 39  1  0  0  0  0
 35 21  1  0  0  0  0
 36 12  1  6  0  0  0
 36 44  1  0  0  0  0
 37 53  1  0  0  0  0
 37 41  1  1  0  0  0
 38 19  1  1  0  0  0
 38 51  1  0  0  0  0
 38 28  1  0  0  0  0
 39 55  1  1  0  0  0
 39  1  1  0  0  0  0
 40 45  2  0  0  0  0
 42 40  1  1  0  0  0
 42 29  1  0  0  0  0
 42 15  1  0  0  0  0
 47 52  2  0  0  0  0
 49 23  1  0  0  0  0
 50 29  1  6  0  0  0
 50 44  1  0  0  0  0
 50 21  1  0  0  0  0
 51 19  1  1  0  0  0
 51 28  1  0  0  0  0
 52 37  1  0  0  0  0
 52 43  1  0  0  0  0
 54 55  2  0  0  0  0
 56 15  1  0  0  0  0
 57 56  1  0  0  0  0
 58 59  1  0  0  0  0
 59 60  1  0  0  0  0
 60 61  2  0  0  0  0
 62 60  1  0  0  0  0
 62 63  1  0  0  0  0
 66 64  1  0  0  0  0
 66 65  1  0  0  0  0
M  END
>  <MODEL>
2

>  <REMARK>
 VINA RESULT:      -3.6      2.201     10.066
  Name = 
  8 active torsions:
  status: ('A' for Active; 'I' for Inactive)
    1  A    between atoms: C_15  and  O_39
    2  A    between atoms: C_16  and  C_48
    3  A    between atoms: C_18  and  C_20
    4  A    between atoms: C_20  and  O_63
    5  A    between atoms: C_22  and  C_51
    6  A    between atoms: C_44  and  C_46
    7  A    between atoms: C_45  and  C_51
    8  A    between atoms: C_48  and  O_63
                            x       y       z     vdW  Elec       q    Type
                         _______ _______ _______ _____ _____    ______ ____

>  <TORSDO>
F 8

$$$$
=
 OpenBabel11062421283D

 66 74  0  0  1  0  0  0  0  0999 V2000
  191.0360  169.4780  140.0320 C   0  0  0  0  0  2  0  0  0  0  0  0
  196.7310  169.9310  134.9690 O   0  0  0  0  0  0  0  0  0  0  0  0
  194.0370  174.1720  137.3940 C   0  0  1  0  0  3  0  0  0  0  0  0
  195.5120  170.8620  136.7740 C   0  0  1  0  0  3  0  0  0  0  0  0
  197.7130  169.7320  137.1640 C   0  0  0  0  0  2  0  0  0  0  0  0
  192.2990  168.5920  136.8320 C   0  0  0  0  0  2  0  0  0  0  0  0
  194.1610  170.3080  137.2410 C   0  0  1  0  0  3  0  0  0  0  0  0
  191.4000  174.7290  141.8310 C   0  0  0  0  0  0  0  0  0  0  0  0
  191.9730  170.4910  142.6900 C   0  0  0  0  0  2  0  0  0  0  0  0
  192.8660  175.0490  144.4250 C   0  0  0  0  0  2  0  0  0  0  0  0
  196.1050  171.0660  134.5130 N   0  0  0  0  0  0  0  0  0  0  0  0
  192.5980  172.6460  143.7860 C   0  0  0  0  0  2  0  0  0  0  0  0
  190.8500  169.4810  142.5230 C   0  0  0  0  0  2  0  0  0  0  0  0
  192.7650  174.8160  141.5330 O   0  0  0  0  0  0  0  0  0  0  0  0
  195.9200  168.9720  146.1190 C   0  0  0  0  0  0  0  0  0  0  0  0
  191.8500  173.9310  144.1660 C   0  0  2  0  0  0  0  0  0  0  0  0
  196.4480  169.7560  136.3350 C   0  0  0  0  0  0  0  0  0  0  0  0
  193.3510  171.3540  137.7340 O   0  0  0  0  0  0  0  0  0  0  0  0
  195.4640  174.3870  140.2540 C   0  0  0  0  0  2  0  0  0  0  0  0
  195.1530  173.9720  136.3560 C   0  0  1  0  0  3  0  0  0  0  0  0
  193.6390  169.5150  146.7300 C   0  0  0  0  0  2  0  0  0  0  0  0
  192.1980  170.8730  138.4040 C   0  0  0  0  0  2  0  0  0  0  0  0
  192.3960  173.6510  135.6700 C   0  0  0  0  0  3  0  0  0  0  0  0
  190.9720  174.3000  143.0940 O   0  0  0  0  0  0  0  0  0  0  0  0
  194.3280  175.2160  138.2780 O   0  0  0  0  0  0  0  0  0  0  0  0
  190.5420  175.0700  140.9740 O   0  0  0  0  0  0  0  0  0  0  0  0
  192.7060  174.3760  136.7390 C   0  0  0  0  0  3  0  0  0  0  0  0
  193.2460  175.5490  140.4150 C   0  0  2  0  0  3  0  0  0  0  0  0
  194.5300  170.5950  144.6760 C   0  0  0  0  0  2  0  0  0  0  0  0
  191.1000  168.6180  141.2910 C   0  0  0  0  0  2  0  0  0  0  0  0
  197.3050  173.2910  146.6960 C   0  0  0  0  0  2  0  0  0  0  0  0
  193.4550  169.3940  136.2190 C   0  0  0  0  0  2  0  0  0  0  0  0
  194.7540  172.9420  135.2830 C   0  0  1  0  0  3  0  0  0  0  0  0
  192.4810  168.3230  138.3360 C   0  0  0  0  0  2  0  0  0  0  0  0
  194.8600  168.7240  146.8310 N   0  0  0  0  0  0  0  0  0  0  0  0
  191.7480  171.3800  143.8980 C   0  0  2  0  0  3  0  0  0  0  0  0
  194.6830  175.7550  145.4810 C   0  0  1  0  0  3  0  0  0  0  0  0
  194.1480  174.6810  139.5610 C   0  0  1  0  0  0  0  0  0  0  0  0
  192.3460  169.5800  139.2350 C   0  0  2  0  0  0  0  0  0  0  0  0
  196.7970  171.2300  145.4830 C   0  0  0  0  0  3  0  0  0  0  0  0
  194.3760  176.7480  146.5930 C   0  0  0  0  0  1  0  0  0  0  0  0
  195.9190  170.0810  145.0840 C   0  0  1  0  0  3  0  0  0  0  0  0
  196.5170  174.5730  146.9260 C   0  0  0  0  0  2  0  0  0  0  0  0
  192.0460  170.6570  145.2220 C   0  0  0  0  0  2  0  0  0  0  0  0
  196.3960  172.1610  146.3520 C   0  0  0  0  0  3  0  0  0  0  0  0
  195.4320  171.6230  135.4710 C   0  0  0  0  0  0  0  0  0  0  0  0
  196.8510  175.2920  144.6920 O   0  0  0  0  0  0  0  0  0  0  0  0
  196.8350  168.4930  137.0710 C   0  0  0  0  0  2  0  0  0  0  0  0
  193.3390  172.7880  135.1030 O   0  0  0  0  0  0  0  0  0  0  0  0
  193.3440  169.8390  145.2750 C   0  0  2  0  0  3  0  0  0  0  0  0
  194.7490  175.6900  140.5310 C   0  0  2  0  0  3  0  0  0  0  0  0
  196.0690  175.2040  145.6330 C   0  0  0  0  0  0  0  0  0  0  0  0
  193.7390  174.7230  145.4730 O   0  0  0  0  0  0  0  0  0  0  0  0
  194.4610  168.7740  140.3280 C   0  0  0  0  0  2  0  0  0  0  0  0
  193.5580  169.7370  140.1310 C   0  0  0  0  0  3  0  0  0  0  0  0
  197.0470  168.1670  146.3060 O   0  0  0  0  0  0  0  0  0  0  0  0
  197.8160  168.1850  147.4990 C   0  0  0  0  0  1  0  0  0  0  0  0
  191.0230  173.7210  145.4350 C   0  0  0  0  0  2  0  0  0  0  0  0
  189.9770  174.6800  145.5380 O   0  0  0  0  0  0  0  0  0  0  0  0
  189.6260  175.2530  146.7590 C   0  0  0  0  0  0  0  0  0  0  0  0
  188.6330  174.8100  147.3880 O   0  0  0  0  0  0  0  0  0  0  0  0
  190.3800  176.4150  147.3220 C   0  0  0  0  0  2  0  0  0  0  0  0
  191.1920  175.9850  148.3720 O   0  0  0  0  0  1  0  0  0  0  0  0
  195.5560  175.2730  135.6720 C   0  0  0  0  0  2  0  0  0  0  0  0
  197.6620  174.6060  136.5720 O   0  0  0  0  0  1  0  0  0  0  0  0
  196.9360  175.7080  136.1210 C   0  0  0  0  0  2  0  0  0  0  0  0
  1 30  1  0  0  0  0
  2 17  1  0  0  0  0
  3 27  1  6  0  0  0
  3 25  1  0  0  0  0
  4 46  1  6  0  0  0
  4  7  1  0  0  0  0
  6 34  1  0  0  0  0
  7 32  1  6  0  0  0
  7 18  1  0  0  0  0
  8 24  1  0  0  0  0
 10 53  1  0  0  0  0
 11  2  1  0  0  0  0
 11 46  2  0  0  0  0
 12 36  1  0  0  0  0
 12 16  1  0  0  0  0
 13  9  1  0  0  0  0
 14  8  1  0  0  0  0
 15 56  1  0  0  0  0
 15 35  2  0  0  0  0
 16 10  1  0  0  0  0
 16 58  1  1  0  0  0
 17  4  1  0  0  0  0
 17 48  1  0  0  0  0
 17  5  1  0  0  0  0
 18 22  1  0  0  0  0
 20 64  1  6  0  0  0
 20  3  1  0  0  0  0
 21 35  1  0  0  0  0
 22 39  1  0  0  0  0
 23 27  2  0  0  0  0
 24 16  1  0  0  0  0
 25 38  1  0  0  0  0
 26  8  2  0  0  0  0
 28 51  1  0  0  0  0
 28 14  1  1  0  0  0
 30 13  1  0  0  0  0
 31 43  1  0  0  0  0
 32  6  1  0  0  0  0
 33 49  1  1  0  0  0
 33 46  1  0  0  0  0
 33 20  1  0  0  0  0
 34 39  1  0  0  0  0
 36  9  1  6  0  0  0
 36 44  1  0  0  0  0
 37 52  1  0  0  0  0
 37 41  1  1  0  0  0
 38 19  1  1  0  0  0
 38 28  1  0  0  0  0
 38 51  1  0  0  0  0
 39  1  1  0  0  0  0
 39 55  1  1  0  0  0
 40 45  2  0  0  0  0
 42 29  1  1  0  0  0
 42 40  1  0  0  0  0
 42 15  1  0  0  0  0
 44 50  1  0  0  0  0
 45 31  1  0  0  0  0
 47 52  2  0  0  0  0
 48  5  1  0  0  0  0
 49 23  1  0  0  0  0
 50 29  1  1  0  0  0
 50 21  1  0  0  0  0
 51 19  1  1  0  0  0
 52 43  1  0  0  0  0
 53 37  1  0  0  0  0
 55 54  2  0  0  0  0
 56 57  1  0  0  0  0
 58 59  1  0  0  0  0
 59 60  1  0  0  0  0
 60 62  1  0  0  0  0
 60 61  2  0  0  0  0
 62 63  1  0  0  0  0
 64 66  1  0  0  0  0
 66 65  1  0  0  0  0
M  END
>  <MODEL>
3

>  <REMARK>
 VINA RESULT:      -2.7      2.770     10.048
  Name = 
  8 active torsions:
  status: ('A' for Active; 'I' for Inactive)
    1  A    between atoms: C_15  and  O_39
    2  A    between atoms: C_16  and  C_48
    3  A    between atoms: C_18  and  C_20
    4  A    between atoms: C_20  and  O_63
    5  A    between atoms: C_22  and  C_51
    6  A    between atoms: C_44  and  C_46
    7  A    between atoms: C_45  and  C_51
    8  A    between atoms: C_48  and  O_63
                            x       y       z     vdW  Elec       q    Type
                         _______ _______ _______ _____ _____    ______ ____

>  <TORSDO>
F 8

$$$$
