=
 OpenBabel11062422463D

 29 34  0  0  1  0  0  0  0  0999 V2000
  185.4200  178.2970  145.2490 C   0  0  0  0  0  0  0  0  0  0  0  0
  185.7840  178.0330  140.8580 N   0  0  0  0  0  0  0  0  0  0  0  0
  192.4950  176.3550  146.7930 C   0  0  0  0  0  2  0  0  0  0  0  0
  187.4870  177.6690  143.9470 C   0  0  2  0  0  3  0  0  0  0  0  0
  189.2590  176.1650  143.0570 C   0  0  1  0  0  3  0  0  0  0  0  0
  190.7060  175.9120  145.0260 C   0  0  2  0  0  3  0  0  0  0  0  0
  184.8430  178.8360  142.8600 C   0  0  0  0  0  2  0  0  0  0  0  0
  187.0690  177.8550  142.6720 C   0  0  0  0  0  0  0  0  0  0  0  0
  187.0020  177.5390  140.5320 C   0  0  0  0  0  3  0  0  0  0  0  0
  191.6730  175.5140  142.7760 C   0  0  0  0  0  3  0  0  0  0  0  0
  190.5960  175.7620  143.5320 C   0  0  0  0  0  0  0  0  0  0  0  0
  189.4750  176.7390  145.4190 C   0  0  0  0  0  2  0  0  0  0  0  0
  187.8000  177.4410  141.6130 N   0  0  0  0  0  0  0  0  0  0  0  0
  192.9580  175.4320  143.4190 N   0  0  0  0  0  0  0  0  0  0  0  0
  184.9830  179.3370  144.2610 C   0  0  0  0  0  2  0  0  0  0  0  0
  194.2070  175.6510  145.4390 N   0  0  0  0  0  2  0  0  0  0  0  0
  193.9350  176.0310  146.7620 N   0  0  0  0  0  2  0  0  0  0  0  0
  188.9170  177.2200  144.0850 C   0  0  2  0  0  3  0  0  0  0  0  0
  192.0300  176.6050  145.3590 C   0  0  2  0  0  3  0  0  0  0  0  0
  186.5870  177.6520  145.1200 C   0  0  0  0  0  3  0  0  0  0  0  0
  193.1170  175.9450  144.6070 C   0  0  0  0  0  0  0  0  0  0  0  0
  189.1280  176.8180  141.6790 C   0  0  0  0  0  2  0  0  0  0  0  0
  185.8310  178.2430  142.1920 C   0  0  0  0  0  0  0  0  0  0  0  0
  184.3820  176.7530  146.7110 F   0  0  0  0  0  0  0  0  0  0  0  0
  183.3800  178.7290  146.3840 F   0  0  0  0  0  0  0  0  0  0  0  0
  184.6100  178.1040  146.5080 C   0  0  0  0  0  0  0  0  0  0  0  0
  185.3220  178.6810  147.7330 C   0  0  0  0  0  3  0  0  0  0  0  0
  186.1960  177.7620  148.2850 F   0  0  0  0  0  0  0  0  0  0  0  0
  186.0020  179.8410  147.4080 F   0  0  0  0  0  0  0  0  0  0  0  0
  1 26  1  0  0  0  0
  2 23  1  0  0  0  0
  4 18  1  0  0  0  0
  4 20  1  6  0  0  0
  5 22  1  6  0  0  0
  5 11  1  0  0  0  0
  5 18  1  0  0  0  0
  6 19  1  0  0  0  0
  6 12  1  6  0  0  0
  7 15  1  0  0  0  0
  8  4  1  0  0  0  0
  9  2  2  0  0  0  0
  9 13  1  0  0  0  0
 10 14  1  0  0  0  0
 10 11  2  0  0  0  0
 11  6  1  0  0  0  0
 13 22  1  0  0  0  0
 13  8  1  0  0  0  0
 14 21  2  0  0  0  0
 15  1  1  0  0  0  0
 16 17  1  0  0  0  0
 17  3  1  0  0  0  0
 18 12  1  1  0  0  0
 19  3  1  1  0  0  0
 20  1  2  0  0  0  0
 21 19  1  0  0  0  0
 21 16  1  0  0  0  0
 23  8  2  0  0  0  0
 23  7  1  0  0  0  0
 25 26  1  0  0  0  0
 26 24  1  0  0  0  0
 26 27  1  0  0  0  0
 27 28  1  0  0  0  0
 29 27  1  0  0  0  0
M  END
>  <MODEL>
1

>  <REMARK>
 VINA RESULT:      -9.2      0.000      0.000
  Name = 
  2 active torsions:
  status: ('A' for Active; 'I' for Inactive)
    1  A    between atoms: C_2  and  C_14
    2  A    between atoms: C_6  and  C_14
                            x       y       z     vdW  Elec       q    Type
                         _______ _______ _______ _____ _____    ______ ____

>  <TORSDO>
F 2

$$$$
=
 OpenBabel11062422463D

 29 34  0  0  1  0  0  0  0  0999 V2000
  186.4480  178.4980  145.5810 C   0  0  0  0  0  0  0  0  0  0  0  0
  186.1130  177.3620  141.3300 N   0  0  0  0  0  0  0  0  0  0  0  0
  193.4920  176.1110  146.5300 C   0  0  0  0  0  2  0  0  0  0  0  0
  188.2320  177.4080  144.1710 C   0  0  2  0  0  3  0  0  0  0  0  0
  189.7180  175.5730  143.3790 C   0  0  1  0  0  3  0  0  0  0  0  0
  191.4230  175.5420  145.1470 C   0  0  2  0  0  3  0  0  0  0  0  0
  185.5590  178.6320  143.2320 C   0  0  0  0  0  2  0  0  0  0  0  0
  187.6410  177.3920  142.9530 C   0  0  0  0  0  0  0  0  0  0  0  0
  187.2210  176.6830  140.9510 C   0  0  0  0  0  3  0  0  0  0  0  0
  191.9990  174.6170  142.9180 C   0  0  0  0  0  3  0  0  0  0  0  0
  191.0740  175.1230  143.7440 C   0  0  0  0  0  0  0  0  0  0  0  0
  190.3390  176.5600  145.5230 C   0  0  0  0  0  2  0  0  0  0  0  0
  188.1640  176.7050  141.9130 N   0  0  0  0  0  0  0  0  0  0  0  0
  193.3560  174.5170  143.3860 N   0  0  0  0  0  0  0  0  0  0  0  0
  185.9520  179.3720  144.4690 C   0  0  0  0  0  2  0  0  0  0  0  0
  194.9130  174.9770  145.1330 N   0  0  0  0  0  2  0  0  0  0  0  0
  194.8790  175.6300  146.3740 N   0  0  0  0  0  2  0  0  0  0  0  0
  189.6250  176.8370  144.2060 C   0  0  2  0  0  3  0  0  0  0  0  0
  192.8360  176.1340  145.1510 C   0  0  2  0  0  3  0  0  0  0  0  0
  187.5240  177.7150  145.4320 C   0  0  0  0  0  3  0  0  0  0  0  0
  193.7370  175.2270  144.4110 C   0  0  0  0  0  0  0  0  0  0  0  0
  189.4320  175.9630  141.9270 C   0  0  0  0  0  2  0  0  0  0  0  0
  186.3800  177.8160  142.5740 C   0  0  0  0  0  0  0  0  0  0  0  0
  185.8190  179.9740  147.3200 F   0  0  0  0  0  0  0  0  0  0  0  0
  186.5770  177.9440  147.8860 F   0  0  0  0  0  0  0  0  0  0  0  0
  185.8280  178.6390  146.9500 C   0  0  0  0  0  0  0  0  0  0  0  0
  184.3970  178.0990  146.9830 C   0  0  0  0  0  3  0  0  0  0  0  0
  183.5460  178.8900  146.2310 F   0  0  0  0  0  0  0  0  0  0  0  0
  184.3510  176.7940  146.5270 F   0  0  0  0  0  0  0  0  0  0  0  0
  1 26  1  0  0  0  0
  2 23  1  0  0  0  0
  4 18  1  0  0  0  0
  4 20  1  1  0  0  0
  5 22  1  6  0  0  0
  5 11  1  0  0  0  0
  5 18  1  0  0  0  0
  6 19  1  0  0  0  0
  6 12  1  6  0  0  0
  7 15  1  0  0  0  0
  8  4  1  0  0  0  0
  9  2  2  0  0  0  0
  9 13  1  0  0  0  0
 10 14  1  0  0  0  0
 10 11  2  0  0  0  0
 11  6  1  0  0  0  0
 13 22  1  0  0  0  0
 13  8  1  0  0  0  0
 14 21  2  0  0  0  0
 15  1  1  0  0  0  0
 16 17  1  0  0  0  0
 17  3  1  0  0  0  0
 18 12  1  1  0  0  0
 19  3  1  1  0  0  0
 20  1  2  0  0  0  0
 21 16  1  0  0  0  0
 21 19  1  0  0  0  0
 23  8  2  0  0  0  0
 23  7  1  0  0  0  0
 26 27  1  0  0  0  0
 26 24  1  0  0  0  0
 26 25  1  0  0  0  0
 28 27  1  0  0  0  0
 29 27  1  0  0  0  0
M  END
>  <MODEL>
2

>  <REMARK>
 VINA RESULT:      -9.1      0.843      1.605
  Name = 
  2 active torsions:
  status: ('A' for Active; 'I' for Inactive)
    1  A    between atoms: C_2  and  C_14
    2  A    between atoms: C_6  and  C_14
                            x       y       z     vdW  Elec       q    Type
                         _______ _______ _______ _____ _____    ______ ____

>  <TORSDO>
F 2

$$$$
=
 OpenBabel11062422463D

 29 34  0  0  1  0  0  0  0  0999 V2000
  185.9230  178.0820  145.5290 C   0  0  0  0  0  0  0  0  0  0  0  0
  185.1210  178.4860  141.2080 N   0  0  0  0  0  0  0  0  0  0  0  0
  191.8740  173.5720  144.8540 C   0  0  0  0  0  2  0  0  0  0  0  0
  187.2280  177.0180  143.6510 C   0  0  2  0  0  3  0  0  0  0  0  0
  188.0330  175.1750  142.1830 C   0  0  1  0  0  3  0  0  0  0  0  0
  189.6920  174.0940  143.6370 C   0  0  2  0  0  3  0  0  0  0  0  0
  185.0530  179.2000  143.4490 C   0  0  0  0  0  2  0  0  0  0  0  0
  186.6260  177.5590  142.5650 C   0  0  0  0  0  0  0  0  0  0  0  0
  185.9450  177.6680  140.5130 C   0  0  0  0  0  3  0  0  0  0  0  0
  189.8790  173.7900  141.1820 C   0  0  0  0  0  3  0  0  0  0  0  0
  189.1860  174.2580  142.2290 C   0  0  0  0  0  0  0  0  0  0  0  0
  188.9970  175.2140  144.4250 C   0  0  0  0  0  2  0  0  0  0  0  0
  186.8740  177.1110  141.3130 N   0  0  0  0  0  0  0  0  0  0  0  0
  191.1480  173.1560  141.4270 N   0  0  0  0  0  0  0  0  0  0  0  0
  185.6970  179.3660  144.7880 C   0  0  0  0  0  2  0  0  0  0  0  0
  192.8210  172.5700  143.0210 N   0  0  0  0  0  2  0  0  0  0  0  0
  193.0320  172.7810  144.3930 N   0  0  0  0  0  2  0  0  0  0  0  0
  188.3690  176.0850  143.3440 C   0  0  2  0  0  3  0  0  0  0  0  0
  191.2180  174.2170  143.6340 C   0  0  2  0  0  3  0  0  0  0  0  0
  186.6910  177.1070  145.0260 C   0  0  0  0  0  3  0  0  0  0  0  0
  191.7630  173.3650  142.5570 C   0  0  0  0  0  0  0  0  0  0  0  0
  187.8420  176.0660  140.9530 C   0  0  0  0  0  2  0  0  0  0  0  0
  185.5540  178.4290  142.4860 C   0  0  0  0  0  0  0  0  0  0  0  0
  185.3380  176.6250  147.2990 F   0  0  0  0  0  0  0  0  0  0  0  0
  184.1510  178.5070  147.0500 F   0  0  0  0  0  0  0  0  0  0  0  0
  185.4200  177.9620  146.9470 C   0  0  0  0  0  0  0  0  0  0  0  0
  186.3360  178.6850  147.9360 C   0  0  0  0  0  3  0  0  0  0  0  0
  187.6680  178.4150  147.6770 F   0  0  0  0  0  0  0  0  0  0  0  0
  186.1180  180.0510  147.9020 F   0  0  0  0  0  0  0  0  0  0  0  0
  1 26  1  0  0  0  0
  2 23  1  0  0  0  0
  4 20  1  6  0  0  0
  5 22  1  6  0  0  0
  5 11  1  0  0  0  0
  5 18  1  0  0  0  0
  6 12  1  1  0  0  0
  7 15  1  0  0  0  0
  8  4  1  0  0  0  0
  9  2  2  0  0  0  0
  9 13  1  0  0  0  0
 10 14  1  0  0  0  0
 10 11  2  0  0  0  0
 11  6  1  0  0  0  0
 13  8  1  0  0  0  0
 14 21  2  0  0  0  0
 15  1  1  0  0  0  0
 16 17  1  0  0  0  0
 17  3  1  0  0  0  0
 18  4  1  0  0  0  0
 18 12  1  1  0  0  0
 19  6  1  0  0  0  0
 19  3  1  1  0  0  0
 20  1  2  0  0  0  0
 21 16  1  0  0  0  0
 21 19  1  0  0  0  0
 22 13  1  0  0  0  0
 23  8  2  0  0  0  0
 23  7  1  0  0  0  0
 26 25  1  0  0  0  0
 26 24  1  0  0  0  0
 26 27  1  0  0  0  0
 28 27  1  0  0  0  0
 29 27  1  0  0  0  0
M  END
>  <MODEL>
3

>  <REMARK>
 VINA RESULT:      -9.0      1.821      2.091
  Name = 
  2 active torsions:
  status: ('A' for Active; 'I' for Inactive)
    1  A    between atoms: C_2  and  C_14
    2  A    between atoms: C_6  and  C_14
                            x       y       z     vdW  Elec       q    Type
                         _______ _______ _______ _____ _____    ______ ____

>  <TORSDO>
F 2

$$$$
=
 OpenBabel11062422463D

 29 34  0  0  1  0  0  0  0  0999 V2000
  186.1320  177.3630  144.9800 C   0  0  0  0  0  0  0  0  0  0  0  0
  189.9190  177.2830  147.2460 N   0  0  0  0  0  0  0  0  0  0  0  0
  188.3280  172.7160  139.5210 C   0  0  0  0  0  2  0  0  0  0  0  0
  188.2120  176.0660  144.3870 C   0  0  2  0  0  3  0  0  0  0  0  0
  190.2750  175.5120  143.1070 C   0  0  1  0  0  3  0  0  0  0  0  0
  189.3250  174.4550  141.1030 C   0  0  2  0  0  3  0  0  0  0  0  0
  187.5920  177.5530  147.0210 C   0  0  0  0  0  2  0  0  0  0  0  0
  189.0000  176.3160  145.4600 C   0  0  0  0  0  0  0  0  0  0  0  0
  190.8490  176.5850  146.5530 C   0  0  0  0  0  3  0  0  0  0  0  0
  191.6670  173.9310  141.7320 C   0  0  0  0  0  3  0  0  0  0  0  0
  190.5580  174.6520  141.9430 C   0  0  0  0  0  0  0  0  0  0  0  0
  188.1770  174.9690  141.9830 C   0  0  0  0  0  2  0  0  0  0  0  0
  190.3100  175.9780  145.4790 N   0  0  0  0  0  0  0  0  0  0  0  0
  191.6450  172.9250  140.7030 N   0  0  0  0  0  0  0  0  0  0  0  0
  186.2760  177.1270  146.4540 C   0  0  0  0  0  2  0  0  0  0  0  0
  190.3600  171.7530  139.0720 N   0  0  0  0  0  2  0  0  0  0  0  0
  189.0180  171.7340  138.6620 N   0  0  0  0  0  2  0  0  0  0  0  0
  188.8230  175.1620  143.3500 C   0  0  2  0  0  3  0  0  0  0  0  0
  189.1970  172.9690  140.7520 C   0  0  2  0  0  3  0  0  0  0  0  0
  186.9570  176.7910  144.0940 C   0  0  0  0  0  3  0  0  0  0  0  0
  190.5020  172.4800  140.2630 C   0  0  0  0  0  0  0  0  0  0  0  0
  191.0240  175.2580  144.4160 C   0  0  0  0  0  2  0  0  0  0  0  0
  188.7620  177.1040  146.5710 C   0  0  0  0  0  0  0  0  0  0  0  0
  183.9350  178.1070  145.4470 F   0  0  0  0  0  0  0  0  0  0  0  0
  184.4150  177.4980  143.3470 F   0  0  0  0  0  0  0  0  0  0  0  0
  184.9240  178.1150  144.4780 C   0  0  0  0  0  0  0  0  0  0  0  0
  185.2660  179.5630  144.1220 C   0  0  0  0  0  3  0  0  0  0  0  0
  185.9820  180.1730  145.1370 F   0  0  0  0  0  0  0  0  0  0  0  0
  185.9810  179.6250  142.9400 F   0  0  0  0  0  0  0  0  0  0  0  0
  1 15  1  0  0  0  0
  4 20  1  6  0  0  0
  4  8  1  0  0  0  0
  5 18  1  0  0  0  0
  5 22  1  1  0  0  0
  6 11  1  0  0  0  0
  6 12  1  1  0  0  0
  8 13  1  0  0  0  0
  8 23  2  0  0  0  0
  9  2  2  0  0  0  0
 10 11  2  0  0  0  0
 11  5  1  0  0  0  0
 13  9  1  0  0  0  0
 14 10  1  0  0  0  0
 15  7  1  0  0  0  0
 16 21  1  0  0  0  0
 17 16  1  0  0  0  0
 17  3  1  0  0  0  0
 18 12  1  6  0  0  0
 18  4  1  0  0  0  0
 19  3  1  6  0  0  0
 19  6  1  0  0  0  0
 20  1  2  0  0  0  0
 21 14  2  0  0  0  0
 21 19  1  0  0  0  0
 22 13  1  0  0  0  0
 23  7  1  0  0  0  0
 23  2  1  0  0  0  0
 25 26  1  0  0  0  0
 26  1  1  0  0  0  0
 26 24  1  0  0  0  0
 27 26  1  0  0  0  0
 27 28  1  0  0  0  0
 29 27  1  0  0  0  0
M  END
>  <MODEL>
4

>  <REMARK>
 VINA RESULT:      -8.6      2.961      4.954
  Name = 
  2 active torsions:
  status: ('A' for Active; 'I' for Inactive)
    1  A    between atoms: C_2  and  C_14
    2  A    between atoms: C_6  and  C_14
                            x       y       z     vdW  Elec       q    Type
                         _______ _______ _______ _____ _____    ______ ____

>  <TORSDO>
F 2

$$$$
=
 OpenBabel11062422463D

 29 34  0  0  1  0  0  0  0  0999 V2000
  192.9390  175.4590  145.4040 C   0  0  0  0  0  0  0  0  0  0  0  0
  191.5600  173.4330  141.7340 N   0  0  0  0  0  0  0  0  0  0  0  0
  186.2720  178.2800  147.3550 C   0  0  0  0  0  2  0  0  0  0  0  0
  190.5860  175.4280  144.4980 C   0  0  2  0  0  3  0  0  0  0  0  0
  188.5420  176.3440  143.4110 C   0  0  1  0  0  3  0  0  0  0  0  0
  187.5690  177.6530  145.2470 C   0  0  2  0  0  3  0  0  0  0  0  0
  192.9960  173.7330  143.5740 C   0  0  0  0  0  2  0  0  0  0  0  0
  190.7150  174.5880  143.4430 C   0  0  0  0  0  0  0  0  0  0  0  0
  190.2640  173.7480  141.4990 C   0  0  0  0  0  3  0  0  0  0  0  0
  186.0830  176.8790  143.4170 C   0  0  0  0  0  3  0  0  0  0  0  0
  187.3220  177.0020  143.9130 C   0  0  0  0  0  0  0  0  0  0  0  0
  188.9190  177.0860  145.7050 C   0  0  0  0  0  2  0  0  0  0  0  0
  189.7300  174.4320  142.5290 N   0  0  0  0  0  0  0  0  0  0  0  0
  184.9770  177.3470  144.2090 N   0  0  0  0  0  0  0  0  0  0  0  0
  193.2200  174.0370  145.0200 C   0  0  0  0  0  2  0  0  0  0  0  0
  184.2450  178.2690  146.2830 N   0  0  0  0  0  2  0  0  0  0  0  0
  184.8430  178.6150  147.5050 N   0  0  0  0  0  2  0  0  0  0  0  0
  189.1940  175.9570  144.7190 C   0  0  2  0  0  3  0  0  0  0  0  0
  186.4160  177.3010  146.1920 C   0  0  2  0  0  3  0  0  0  0  0  0
  191.7260  176.0030  145.2430 C   0  0  0  0  0  3  0  0  0  0  0  0
  185.1360  177.5310  145.4900 C   0  0  0  0  0  0  0  0  0  0  0  0
  188.4060  175.0660  142.5790 C   0  0  0  0  0  2  0  0  0  0  0  0
  191.8370  173.9460  142.9520 C   0  0  0  0  0  0  0  0  0  0  0  0
  194.9470  175.3600  146.6520 F   0  0  0  0  0  0  0  0  0  0  0  0
  193.4290  176.9030  147.2230 F   0  0  0  0  0  0  0  0  0  0  0  0
  193.9970  176.2340  146.1510 C   0  0  0  0  0  0  0  0  0  0  0  0
  194.6860  177.2630  145.2540 C   0  0  0  0  0  3  0  0  0  0  0  0
  195.1680  178.3300  145.9920 F   0  0  0  0  0  0  0  0  0  0  0  0
  195.7180  176.6830  144.5390 F   0  0  0  0  0  0  0  0  0  0  0  0
  1 26  1  0  0  0  0
  2 23  1  0  0  0  0
  3 17  1  0  0  0  0
  4 18  1  0  0  0  0
  4 20  1  6  0  0  0
  5 22  1  6  0  0  0
  5 11  1  0  0  0  0
  5 18  1  0  0  0  0
  6 12  1  1  0  0  0
  6 19  1  0  0  0  0
  7 15  1  0  0  0  0
  8  4  1  0  0  0  0
  9  2  2  0  0  0  0
  9 13  1  0  0  0  0
 10 11  2  0  0  0  0
 10 14  1  0  0  0  0
 11  6  1  0  0  0  0
 13 22  1  0  0  0  0
 13  8  1  0  0  0  0
 14 21  2  0  0  0  0
 15  1  1  0  0  0  0
 16 17  1  0  0  0  0
 18 12  1  1  0  0  0
 19  3  1  1  0  0  0
 20  1  2  0  0  0  0
 21 19  1  0  0  0  0
 21 16  1  0  0  0  0
 23  8  2  0  0  0  0
 23  7  1  0  0  0  0
 26 24  1  0  0  0  0
 26 25  1  0  0  0  0
 27 28  1  0  0  0  0
 27 26  1  0  0  0  0
 29 27  1  0  0  0  0
M  END
>  <MODEL>
5

>  <REMARK>
 VINA RESULT:      -8.6      4.077      7.314
  Name = 
  2 active torsions:
  status: ('A' for Active; 'I' for Inactive)
    1  A    between atoms: C_2  and  C_14
    2  A    between atoms: C_6  and  C_14
                            x       y       z     vdW  Elec       q    Type
                         _______ _______ _______ _____ _____    ______ ____

>  <TORSDO>
F 2

$$$$
=
 OpenBabel11062422463D

 29 34  0  0  1  0  0  0  0  0999 V2000
  185.8880  177.7810  144.5630 C   0  0  0  0  0  0  0  0  0  0  0  0
  189.3520  177.3730  147.2660 N   0  0  0  0  0  0  0  0  0  0  0  0
  188.2550  172.8620  139.4230 C   0  0  0  0  0  2  0  0  0  0  0  0
  187.8870  176.2810  144.2280 C   0  0  2  0  0  3  0  0  0  0  0  0
  190.0240  175.5120  143.2060 C   0  0  1  0  0  3  0  0  0  0  0  0
  189.2210  174.5200  141.1070 C   0  0  2  0  0  3  0  0  0  0  0  0
  187.1060  177.8610  146.7630 C   0  0  0  0  0  2  0  0  0  0  0  0
  188.5630  176.4710  145.3860 C   0  0  0  0  0  0  0  0  0  0  0  0
  190.2860  176.5780  146.6930 C   0  0  0  0  0  3  0  0  0  0  0  0
  191.4100  173.7840  142.0140 C   0  0  0  0  0  3  0  0  0  0  0  0
  190.3590  174.6120  142.0880 C   0  0  0  0  0  0  0  0  0  0  0  0
  188.0320  175.1560  141.8410 C   0  0  0  0  0  2  0  0  0  0  0  0
  189.8220  176.0090  145.5640 N   0  0  0  0  0  0  0  0  0  0  0  0
  191.4130  172.7690  140.9940 N   0  0  0  0  0  0  0  0  0  0  0  0
  185.8320  177.5550  146.0440 C   0  0  0  0  0  2  0  0  0  0  0  0
  190.2230  171.7000  139.2250 N   0  0  0  0  0  2  0  0  0  0  0  0
  188.9440  171.8050  138.6570 N   0  0  0  0  0  2  0  0  0  0  0  0
  188.5270  175.3070  143.2750 C   0  0  2  0  0  3  0  0  0  0  0  0
  188.9910  173.0490  140.7490 C   0  0  2  0  0  3  0  0  0  0  0  0
  186.7530  177.1190  143.7840 C   0  0  0  0  0  3  0  0  0  0  0  0
  190.2920  172.4290  140.4220 C   0  0  0  0  0  0  0  0  0  0  0  0
  190.5840  175.2080  144.5970 C   0  0  0  0  0  2  0  0  0  0  0  0
  188.2730  177.2950  146.4580 C   0  0  0  0  0  0  0  0  0  0  0  0
  185.3140  179.9220  143.7350 F   0  0  0  0  0  0  0  0  0  0  0  0
  183.7140  178.7180  144.7370 F   0  0  0  0  0  0  0  0  0  0  0  0
  184.8270  178.6390  143.9160 C   0  0  0  0  0  0  0  0  0  0  0  0
  184.3880  178.0740  142.5640 C   0  0  0  0  0  3  0  0  0  0  0  0
  183.0200  178.1940  142.3910 F   0  0  0  0  0  0  0  0  0  0  0  0
  185.0500  178.7050  141.5270 F   0  0  0  0  0  0  0  0  0  0  0  0
  1 15  1  0  0  0  0
  4 20  1  6  0  0  0
  4  8  1  0  0  0  0
  5 18  1  0  0  0  0
  5 22  1  1  0  0  0
  6 12  1  1  0  0  0
  6 11  1  0  0  0  0
  8 13  1  0  0  0  0
  8 23  2  0  0  0  0
  9  2  2  0  0  0  0
 10 11  2  0  0  0  0
 11  5  1  0  0  0  0
 13  9  1  0  0  0  0
 14 10  1  0  0  0  0
 15  7  1  0  0  0  0
 16 21  1  0  0  0  0
 17 16  1  0  0  0  0
 17  3  1  0  0  0  0
 18 12  1  6  0  0  0
 18  4  1  0  0  0  0
 19  3  1  6  0  0  0
 19  6  1  0  0  0  0
 20  1  2  0  0  0  0
 21 19  1  0  0  0  0
 21 14  2  0  0  0  0
 22 13  1  0  0  0  0
 23  7  1  0  0  0  0
 23  2  1  0  0  0  0
 24 26  1  0  0  0  0
 26  1  1  0  0  0  0
 26 25  1  0  0  0  0
 27 26  1  0  0  0  0
 28 27  1  0  0  0  0
 29 27  1  0  0  0  0
M  END
>  <MODEL>
6

>  <REMARK>
 VINA RESULT:      -8.2      3.105      5.110
  Name = 
  2 active torsions:
  status: ('A' for Active; 'I' for Inactive)
    1  A    between atoms: C_2  and  C_14
    2  A    between atoms: C_6  and  C_14
                            x       y       z     vdW  Elec       q    Type
                         _______ _______ _______ _____ _____    ______ ____

>  <TORSDO>
F 2

$$$$
=
 OpenBabel11062422463D

 29 34  0  0  1  0  0  0  0  0999 V2000
  191.7940  174.8740  145.0890 C   0  0  0  0  0  0  0  0  0  0  0  0
  191.1730  173.2540  141.0310 N   0  0  0  0  0  0  0  0  0  0  0  0
  185.3400  178.6710  145.4700 C   0  0  0  0  0  2  0  0  0  0  0  0
  189.7950  175.2680  143.6030 C   0  0  2  0  0  3  0  0  0  0  0  0
  188.2780  176.5510  142.1030 C   0  0  1  0  0  3  0  0  0  0  0  0
  187.0500  177.9260  143.7260 C   0  0  2  0  0  3  0  0  0  0  0  0
  192.0870  173.2390  143.2000 C   0  0  0  0  0  2  0  0  0  0  0  0
  190.0780  174.4620  142.5520 C   0  0  0  0  0  0  0  0  0  0  0  0
  190.0500  173.7880  140.4950 C   0  0  0  0  0  3  0  0  0  0  0  0
  186.0160  177.4820  141.5150 C   0  0  0  0  0  3  0  0  0  0  0  0
  187.0790  177.3800  142.3240 C   0  0  0  0  0  0  0  0  0  0  0  0
  188.1280  177.1260  144.4700 C   0  0  0  0  0  2  0  0  0  0  0  0
  189.3650  174.5070  141.4040 N   0  0  0  0  0  0  0  0  0  0  0  0
  184.8190  178.0930  142.0290 N   0  0  0  0  0  0  0  0  0  0  0  0
  191.9560  173.4430  144.6750 C   0  0  0  0  0  2  0  0  0  0  0  0
  183.6980  179.0370  143.9110 N   0  0  0  0  0  2  0  0  0  0  0  0
  183.9880  179.2300  145.2700 N   0  0  0  0  0  2  0  0  0  0  0  0
  188.4890  176.0090  143.4990 C   0  0  2  0  0  3  0  0  0  0  0  0
  185.6460  177.7290  144.3060 C   0  0  2  0  0  3  0  0  0  0  0  0
  190.7630  175.6160  144.6640 C   0  0  0  0  0  3  0  0  0  0  0  0
  184.6510  178.1960  143.3170 C   0  0  0  0  0  0  0  0  0  0  0  0
  188.1850  175.3480  141.1610 C   0  0  0  0  0  2  0  0  0  0  0  0
  191.1830  173.6650  142.3180 C   0  0  0  0  0  0  0  0  0  0  0  0
  193.5780  176.3510  145.5750 F   0  0  0  0  0  0  0  0  0  0  0  0
  193.4770  174.4180  146.7010 F   0  0  0  0  0  0  0  0  0  0  0  0
  192.7130  175.4340  146.1480 C   0  0  0  0  0  0  0  0  0  0  0  0
  191.9330  176.1150  147.2730 C   0  0  0  0  0  3  0  0  0  0  0  0
  191.5110  175.1970  148.2190 F   0  0  0  0  0  0  0  0  0  0  0  0
  192.6970  177.0970  147.8790 F   0  0  0  0  0  0  0  0  0  0  0  0
  1 26  1  0  0  0  0
  2 23  1  0  0  0  0
  4 20  1  6  0  0  0
  5 22  1  6  0  0  0
  5 11  1  0  0  0  0
  5 18  1  0  0  0  0
  6 19  1  0  0  0  0
  6 12  1  1  0  0  0
  7 15  1  0  0  0  0
  8  4  1  0  0  0  0
  9  2  2  0  0  0  0
  9 13  1  0  0  0  0
 10 14  1  0  0  0  0
 10 11  2  0  0  0  0
 11  6  1  0  0  0  0
 13  8  1  0  0  0  0
 14 21  2  0  0  0  0
 15  1  1  0  0  0  0
 16 17  1  0  0  0  0
 17  3  1  0  0  0  0
 18  4  1  0  0  0  0
 18 12  1  1  0  0  0
 19  3  1  1  0  0  0
 20  1  2  0  0  0  0
 21 16  1  0  0  0  0
 21 19  1  0  0  0  0
 22 13  1  0  0  0  0
 23  8  2  0  0  0  0
 23  7  1  0  0  0  0
 24 26  1  0  0  0  0
 26 25  1  0  0  0  0
 26 27  1  0  0  0  0
 27 29  1  0  0  0  0
 27 28  1  0  0  0  0
M  END
>  <MODEL>
7

>  <REMARK>
 VINA RESULT:      -8.0      3.544      6.950
  Name = 
  2 active torsions:
  status: ('A' for Active; 'I' for Inactive)
    1  A    between atoms: C_2  and  C_14
    2  A    between atoms: C_6  and  C_14
                            x       y       z     vdW  Elec       q    Type
                         _______ _______ _______ _____ _____    ______ ____

>  <TORSDO>
F 2

$$$$
=
 OpenBabel11062422463D

 29 34  0  0  1  0  0  0  0  0999 V2000
  191.4550  174.8780  142.3240 C   0  0  0  0  0  0  0  0  0  0  0  0
  193.2580  175.7900  146.2480 N   0  0  0  0  0  0  0  0  0  0  0  0
  184.8310  178.1200  143.6750 C   0  0  0  0  0  2  0  0  0  0  0  0
  190.3630  176.1200  144.2280 C   0  0  2  0  0  3  0  0  0  0  0  0
  188.7950  176.4690  146.1300 C   0  0  1  0  0  3  0  0  0  0  0  0
  186.6920  176.9140  144.9410 C   0  0  2  0  0  3  0  0  0  0  0  0
  193.3300  175.3140  143.9440 C   0  0  0  0  0  2  0  0  0  0  0  0
  191.3840  176.2060  145.1140 C   0  0  0  0  0  0  0  0  0  0  0  0
  192.3280  176.3510  147.0570 C   0  0  0  0  0  3  0  0  0  0  0  0
  186.9440  177.7390  147.2670 C   0  0  0  0  0  3  0  0  0  0  0  0
  187.4330  177.0210  146.2470 C   0  0  0  0  0  0  0  0  0  0  0  0
  187.7770  176.5640  143.9140 C   0  0  0  0  0  2  0  0  0  0  0  0
  191.1940  176.6260  146.3850 N   0  0  0  0  0  0  0  0  0  0  0  0
  185.7060  178.4470  147.0770 N   0  0  0  0  0  0  0  0  0  0  0  0
  192.8040  175.4900  142.5560 C   0  0  0  0  0  2  0  0  0  0  0  0
  183.9650  179.0740  145.5730 N   0  0  0  0  0  2  0  0  0  0  0  0
  183.6940  178.8960  144.2070 N   0  0  0  0  0  2  0  0  0  0  0  0
  189.0810  176.7690  144.6760 C   0  0  2  0  0  3  0  0  0  0  0  0
  185.9980  178.2490  144.6530 C   0  0  2  0  0  3  0  0  0  0  0  0
  190.3800  175.2610  143.0260 C   0  0  0  0  0  3  0  0  0  0  0  0
  185.2800  178.6860  145.8690 C   0  0  0  0  0  0  0  0  0  0  0  0
  189.9230  177.0980  146.9500 C   0  0  0  0  0  2  0  0  0  0  0  0
  192.6730  175.7120  145.0330 C   0  0  0  0  0  0  0  0  0  0  0  0
  192.2900  174.1410  140.2360 F   0  0  0  0  0  0  0  0  0  0  0  0
  190.0700  174.2030  140.5190 F   0  0  0  0  0  0  0  0  0  0  0  0
  191.2720  173.9420  141.1540 C   0  0  0  0  0  0  0  0  0  0  0  0
  191.2740  172.4770  141.5950 C   0  0  0  0  0  3  0  0  0  0  0  0
  192.0390  172.2970  142.7340 F   0  0  0  0  0  0  0  0  0  0  0  0
  189.9850  172.0270  141.8190 F   0  0  0  0  0  0  0  0  0  0  0  0
  1 15  1  0  0  0  0
  1 20  2  0  0  0  0
  2  9  2  0  0  0  0
  3 17  1  0  0  0  0
  4 20  1  1  0  0  0
  4 18  1  0  0  0  0
  4  8  1  0  0  0  0
  5 11  1  0  0  0  0
  5 22  1  1  0  0  0
  6 12  1  6  0  0  0
  6 11  1  0  0  0  0
  7 23  1  0  0  0  0
  8 13  1  0  0  0  0
 11 10  2  0  0  0  0
 13 22  1  0  0  0  0
 13  9  1  0  0  0  0
 14 10  1  0  0  0  0
 15  7  1  0  0  0  0
 16 21  1  0  0  0  0
 17 16  1  0  0  0  0
 18 12  1  6  0  0  0
 18  5  1  0  0  0  0
 19  3  1  6  0  0  0
 19  6  1  0  0  0  0
 19 21  1  0  0  0  0
 21 14  2  0  0  0  0
 23  8  2  0  0  0  0
 23  2  1  0  0  0  0
 24 26  1  0  0  0  0
 25 26  1  0  0  0  0
 26 27  1  0  0  0  0
 26  1  1  0  0  0  0
 27 29  1  0  0  0  0
 27 28  1  0  0  0  0
M  END
>  <MODEL>
8

>  <REMARK>
 VINA RESULT:      -7.9      4.083      7.832
  Name = 
  2 active torsions:
  status: ('A' for Active; 'I' for Inactive)
    1  A    between atoms: C_2  and  C_14
    2  A    between atoms: C_6  and  C_14
                            x       y       z     vdW  Elec       q    Type
                         _______ _______ _______ _____ _____    ______ ____

>  <TORSDO>
F 2

$$$$
=
 OpenBabel11062422463D

 29 34  0  0  1  0  0  0  0  0999 V2000
  186.8290  176.8520  144.4960 C   0  0  0  0  0  0  0  0  0  0  0  0
  189.7220  177.7910  147.6940 N   0  0  0  0  0  0  0  0  0  0  0  0
  190.3560  170.7460  141.9470 C   0  0  0  0  0  2  0  0  0  0  0  0
  188.9200  175.5590  145.0590 C   0  0  2  0  0  3  0  0  0  0  0  0
  191.2450  174.7230  144.7510 C   0  0  1  0  0  3  0  0  0  0  0  0
  190.9050  172.9820  143.0510 C   0  0  2  0  0  3  0  0  0  0  0  0
  187.5960  177.8250  146.6860 C   0  0  0  0  0  2  0  0  0  0  0  0
  189.3500  176.2120  146.1650 C   0  0  0  0  0  0  0  0  0  0  0  0
  190.7830  176.9540  147.6080 C   0  0  0  0  0  3  0  0  0  0  0  0
  192.9090  172.8510  144.5090 C   0  0  0  0  0  3  0  0  0  0  0  0
  191.8280  173.5320  144.1050 C   0  0  0  0  0  0  0  0  0  0  0  0
  189.5710  173.6980  143.3000 C   0  0  0  0  0  2  0  0  0  0  0  0
  190.5700  175.9820  146.7020 N   0  0  0  0  0  0  0  0  0  0  0  0
  193.1520  171.5520  143.9410 N   0  0  0  0  0  0  0  0  0  0  0  0
  186.4980  177.1500  145.9270 C   0  0  0  0  0  2  0  0  0  0  0  0
  192.3740  169.8120  142.5080 N   0  0  0  0  0  2  0  0  0  0  0  0
  191.2250  169.5710  141.7390 N   0  0  0  0  0  2  0  0  0  0  0  0
  189.7730  174.3910  144.6420 C   0  0  2  0  0  3  0  0  0  0  0  0
  190.8140  171.4620  143.2170 C   0  0  2  0  0  3  0  0  0  0  0  0
  187.8570  176.0600  144.1630 C   0  0  0  0  0  3  0  0  0  0  0  0
  192.1790  170.9130  143.3540 C   0  0  0  0  0  0  0  0  0  0  0  0
  191.5390  174.9840  146.2290 C   0  0  0  0  0  2  0  0  0  0  0  0
  188.8230  177.3200  146.8020 C   0  0  0  0  0  0  0  0  0  0  0  0
  184.5870  177.3460  143.9220 F   0  0  0  0  0  0  0  0  0  0  0  0
  185.8930  176.4180  142.3580 F   0  0  0  0  0  0  0  0  0  0  0  0
  185.8770  177.3100  143.4180 C   0  0  0  0  0  0  0  0  0  0  0  0
  186.2460  178.6960  142.8860 C   0  0  0  0  0  3  0  0  0  0  0  0
  186.1180  179.6610  143.8690 F   0  0  0  0  0  0  0  0  0  0  0  0
  187.5350  178.7040  142.3840 F   0  0  0  0  0  0  0  0  0  0  0  0
  1 15  1  0  0  0  0
  4 20  1  6  0  0  0
  4  8  1  0  0  0  0
  5 22  1  1  0  0  0
  6 19  1  0  0  0  0
  6 12  1  1  0  0  0
  6 11  1  0  0  0  0
  7 23  1  0  0  0  0
  8 13  1  0  0  0  0
  8 23  2  0  0  0  0
  9  2  2  0  0  0  0
 11 10  2  0  0  0  0
 11  5  1  0  0  0  0
 13  9  1  0  0  0  0
 14 10  1  0  0  0  0
 15  7  1  0  0  0  0
 16 21  1  0  0  0  0
 17  3  1  0  0  0  0
 17 16  1  0  0  0  0
 18 12  1  6  0  0  0
 18  5  1  0  0  0  0
 18  4  1  0  0  0  0
 19  3  1  6  0  0  0
 19 21  1  0  0  0  0
 20  1  2  0  0  0  0
 21 14  2  0  0  0  0
 22 13  1  0  0  0  0
 23  2  1  0  0  0  0
 25 26  1  0  0  0  0
 26 24  1  0  0  0  0
 26  1  1  0  0  0  0
 27 26  1  0  0  0  0
 27 28  1  0  0  0  0
 29 27  1  0  0  0  0
M  END
>  <MODEL>
9

>  <REMARK>
 VINA RESULT:      -7.5      3.285      5.040
  Name = 
  2 active torsions:
  status: ('A' for Active; 'I' for Inactive)
    1  A    between atoms: C_2  and  C_14
    2  A    between atoms: C_6  and  C_14
                            x       y       z     vdW  Elec       q    Type
                         _______ _______ _______ _____ _____    ______ ____

>  <TORSDO>
F 2

$$$$
