=
 OpenBabel11062418173D

 49 52  0  0  1  0  0  0  0  0999 V2000
  192.6220  172.2390  141.8870 C   0  0  2  0  0  3  0  0  0  0  0  0
  192.6540  171.8900  144.6840 O   0  0  0  0  0  1  0  0  0  0  0  0
  191.9020  175.9810  146.6800 C   0  0  0  0  0  0  0  0  0  0  0  0
  189.8080  177.3900  146.5770 C   0  0  0  0  0  0  0  0  0  0  0  0
  188.8330  177.9190  145.8990 N   0  0  0  0  0  0  0  0  0  0  0  0
  193.6100  173.2330  142.0350 O   0  0  0  0  0  0  0  0  0  0  0  0
  191.5750  177.8740  149.6930 O   0  0  0  0  0  0  0  0  0  0  0  0
  194.2090  173.2070  143.3260 C   0  0  1  0  0  3  0  0  0  0  0  0
  193.2730  170.9270  141.4270 C   0  0  2  0  0  3  0  0  0  0  0  0
  192.8680  175.0780  144.5460 C   0  0  1  0  0  3  0  0  0  0  0  0
  194.4600  170.7110  143.6820 C   0  0  0  0  0  3  0  0  0  0  0  0
  191.1320  175.2230  143.1630 C   0  0  0  0  0  2  0  0  0  0  0  0
  191.3010  177.4480  148.5430 C   0  0  0  0  0  0  0  0  0  0  0  0
  190.5350  176.1720  146.0720 C   0  0  0  0  0  2  0  0  0  0  0  0
  194.1360  170.2470  142.4660 C   0  0  0  0  0  3  0  0  0  0  0  0
  191.7950  174.3500  144.0250 O   0  0  0  0  0  0  0  0  0  0  0  0
  190.3020  174.4190  142.1860 C   0  0  1  0  0  3  0  0  0  0  0  0
  192.2140  176.5190  147.8640 C   0  0  0  0  0  3  0  0  0  0  0  0
  191.5780  172.6670  140.8420 C   0  0  2  0  0  3  0  0  0  0  0  0
  192.8560  175.0010  146.0690 C   0  0  0  0  0  2  0  0  0  0  0  0
  194.2130  174.5800  144.0050 C   0  0  0  0  0  2  0  0  0  0  0  0
  188.5100  177.5190  144.5610 C   0  0  0  0  0  0  0  0  0  0  0  0
  193.9830  172.0040  144.2720 C   0  0  2  0  0  3  0  0  0  0  0  0
  189.3220  177.7780  143.6300 O   0  0  0  0  0  0  0  0  0  0  0  0
  187.9700  174.9640  142.8220 C   0  0  0  0  0  2  0  0  0  0  0  0
  187.0830  176.1900  142.9710 C   0  0  0  0  0  2  0  0  0  0  0  0
  190.1180  177.8930  147.8770 N   0  0  0  0  0  2  0  0  0  0  0  0
  187.2950  176.8080  144.2770 N   0  0  0  0  0  0  0  0  0  0  0  0
  189.0680  175.2180  141.8070 C   0  0  0  0  0  2  0  0  0  0  0  0
  191.1340  174.1340  140.9450 C   0  0  0  0  0  2  0  0  0  0  0  0
  194.0300  171.1530  140.2450 O   0  0  0  0  0  0  0  0  0  0  0  0
  193.4640  171.0550  137.9590 C   0  0  0  0  0  0  0  0  0  0  0  0
  193.7910  170.4290  139.0810 C   0  0  0  0  0  3  0  0  0  0  0  0
  193.2280  170.3000  136.7740 N   0  0  0  0  0  1  0  0  0  0  0  0
  193.3550  172.4440  137.9430 O   0  0  0  0  0  0  0  0  0  0  0  0
  192.3440  173.0470  137.3030 O   0  0  0  0  0  1  0  0  0  0  0  0
  186.2810  176.6110  145.3060 C   0  0  0  0  0  2  0  0  0  0  0  0
  185.7410  177.9550  145.7760 C   0  0  2  0  0  3  0  0  0  0  0  0
  186.1560  176.8140  147.8270 O   0  0  0  0  0  1  0  0  0  0  0  0
  185.6310  177.9910  147.2910 C   0  0  0  0  0  2  0  0  0  0  0  0
  184.4210  178.3190  145.0900 C   0  0  0  0  0  2  0  0  0  0  0  0
  183.8590  178.4250  142.7700 O   0  0  0  0  0  0  0  0  0  0  0  0
  184.6080  178.8290  143.6950 C   0  0  0  0  0  0  0  0  0  0  0  0
  185.6270  179.7320  143.4160 O   0  0  0  0  0  1  0  0  0  0  0  0
  190.3840  171.7160  140.8390 C   0  0  0  0  0  2  0  0  0  0  0  0
  190.0390  171.3050  139.4210 C   0  0  0  0  0  2  0  0  0  0  0  0
  188.9550  172.1760  138.8920 C   0  0  0  0  0  0  0  0  0  0  0  0
  188.9480  172.5440  137.5530 O   0  0  0  0  0  0  0  0  0  0  0  0
  188.0280  172.5560  139.6530 O   0  0  0  0  0  1  0  0  0  0  0  0
  1  6  1  6  0  0  0
  3 18  2  0  0  0  0
  4 27  1  0  0  0  0
  5  4  2  0  0  0  0
  6  8  1  0  0  0  0
  8 21  1  1  0  0  0
  8 23  1  0  0  0  0
  9 31  1  6  0  0  0
  9  1  1  0  0  0  0
  9 15  1  0  0  0  0
 10 21  1  6  0  0  0
 10 20  1  0  0  0  0
 11 23  1  0  0  0  0
 12 16  1  0  0  0  0
 13  7  2  0  0  0  0
 14  4  1  0  0  0  0
 14  3  1  0  0  0  0
 15 11  2  0  0  0  0
 16 10  1  0  0  0  0
 17 30  1  6  0  0  0
 17 12  1  0  0  0  0
 18 13  1  0  0  0  0
 19 45  1  1  0  0  0
 19 30  1  0  0  0  0
 19  1  1  0  0  0  0
 20  3  1  0  0  0  0
 22  5  1  0  0  0  0
 23  2  1  6  0  0  0
 24 22  2  0  0  0  0
 25 26  1  0  0  0  0
 26 28  1  0  0  0  0
 27 13  1  0  0  0  0
 28 22  1  0  0  0  0
 28 37  1  0  0  0  0
 29 17  1  0  0  0  0
 29 25  1  0  0  0  0
 32 33  2  0  0  0  0
 33 31  1  0  0  0  0
 34 32  1  0  0  0  0
 35 32  1  0  0  0  0
 36 35  1  0  0  0  0
 37 38  1  0  0  0  0
 38 41  1  6  0  0  0
 38 40  1  0  0  0  0
 40 39  1  0  0  0  0
 42 43  2  0  0  0  0
 43 41  1  0  0  0  0
 44 43  1  0  0  0  0
 46 45  1  0  0  0  0
 47 46  1  0  0  0  0
 47 49  1  0  0  0  0
 48 47  2  0  0  0  0
M  END
>  <MODEL>
1

>  <REMARK>
 VINA RESULT:      -7.0      0.000      0.000
  Name = 
  11 active torsions:
  status: ('A' for Active; 'I' for Inactive)
    1  A    between atoms: C_5  and  O_22
    2  A    between atoms: C_10  and  O_21
    3  A    between atoms: C_12  and  O_21
    4  A    between atoms: C_20  and  C_24
    5  A    between atoms: C_23  and  C_31
    6  A    between atoms: C_23  and  C_33
    7  A    between atoms: C_23  and  C_49
    8  A    between atoms: C_24  and  C_38
    9  A    between atoms: C_27  and  C_38
   10  A    between atoms: C_28  and  C_49
   11  A    between atoms: C_33  and  N_44
                            x       y       z     vdW  Elec       q    Type
                         _______ _______ _______ _____ _____    ______ ____

>  <TORSDO>
F 11

$$$$
=
 OpenBabel11062418173D

 49 52  0  0  1  0  0  0  0  0999 V2000
  188.8490  175.8980  144.0460 C   0  0  2  0  0  3  0  0  0  0  0  0
  191.3820  176.7330  144.9560 O   0  0  0  0  0  1  0  0  0  0  0  0
  194.2900  173.1620  144.6770 C   0  0  0  0  0  0  0  0  0  0  0  0
  195.0940  171.9830  142.5930 C   0  0  0  0  0  0  0  0  0  0  0  0
  194.8540  171.4470  141.4330 N   0  0  0  0  0  0  0  0  0  0  0  0
  188.8950  174.8490  144.9850 O   0  0  0  0  0  0  0  0  0  0  0  0
  197.5820  171.8790  145.2140 O   0  0  0  0  0  0  0  0  0  0  0  0
  189.9190  175.0420  145.9540 C   0  0  1  0  0  3  0  0  0  0  0  0
  187.9630  177.0330  144.5800 C   0  0  2  0  0  3  0  0  0  0  0  0
  191.8300  173.5670  144.9740 C   0  0  1  0  0  3  0  0  0  0  0  0
  189.6770  177.5220  146.4160 C   0  0  0  0  0  3  0  0  0  0  0  0
  191.0790  173.3600  142.8910 C   0  0  0  0  0  2  0  0  0  0  0  0
  196.5030  172.1200  144.6160 C   0  0  0  0  0  0  0  0  0  0  0  0
  194.1640  173.0100  143.1810 C   0  0  0  0  0  2  0  0  0  0  0  0
  188.5430  177.7930  145.7520 C   0  0  0  0  0  3  0  0  0  0  0  0
  191.5130  174.2980  143.8270 O   0  0  0  0  0  0  0  0  0  0  0  0
  190.2500  174.0590  141.8360 C   0  0  1  0  0  3  0  0  0  0  0  0
  195.4120  172.8140  145.3160 C   0  0  0  0  0  3  0  0  0  0  0  0
  188.2660  175.4030  142.7110 C   0  0  2  0  0  3  0  0  0  0  0  0
  193.2410  173.9140  145.4380 C   0  0  0  0  0  2  0  0  0  0  0  0
  190.8280  173.8180  146.1070 C   0  0  0  0  0  2  0  0  0  0  0  0
  193.6200  171.6340  140.7300 C   0  0  0  0  0  0  0  0  0  0  0  0
  190.6290  176.4100  146.0860 C   0  0  2  0  0  3  0  0  0  0  0  0
  192.5630  171.1310  141.2020 O   0  0  0  0  0  0  0  0  0  0  0  0
  191.6410  173.8820  139.7940 C   0  0  0  0  0  2  0  0  0  0  0  0
  192.2880  172.8010  138.9420 C   0  0  0  0  0  2  0  0  0  0  0  0
  196.3190  171.6900  143.2660 N   0  0  0  0  0  2  0  0  0  0  0  0
  193.5690  172.4060  139.5200 N   0  0  0  0  0  0  0  0  0  0  0  0
  190.4200  173.3380  140.5110 C   0  0  0  0  0  2  0  0  0  0  0  0
  188.7880  174.0320  142.2560 C   0  0  0  0  0  2  0  0  0  0  0  0
  186.6820  176.5230  144.9240 O   0  0  0  0  0  0  0  0  0  0  0  0
  184.8190  177.8990  145.3710 C   0  0  0  0  0  0  0  0  0  0  0  0
  185.8500  177.1940  145.8170 C   0  0  0  0  0  3  0  0  0  0  0  0
  183.9750  178.5740  146.2980 N   0  0  0  0  0  1  0  0  0  0  0  0
  184.5670  177.9730  144.0020 O   0  0  0  0  0  0  0  0  0  0  0  0
  183.6840  178.8550  143.5130 O   0  0  0  0  0  1  0  0  0  0  0  0
  194.7900  172.8870  138.8850 C   0  0  0  0  0  2  0  0  0  0  0  0
  194.8860  174.4020  139.0100 C   0  0  2  0  0  3  0  0  0  0  0  0
  194.1200  175.6470  137.1270 O   0  0  0  0  0  1  0  0  0  0  0  0
  195.2460  175.0300  137.6740 C   0  0  0  0  0  2  0  0  0  0  0  0
  195.8400  174.8310  140.1290 C   0  0  0  0  0  2  0  0  0  0  0  0
  194.1050  175.9960  141.2870 O   0  0  0  0  0  0  0  0  0  0  0  0
  195.3140  175.9730  140.9410 C   0  0  0  0  0  0  0  0  0  0  0  0
  196.1540  177.0220  141.2920 O   0  0  0  0  0  1  0  0  0  0  0  0
  188.4240  176.4570  141.6190 C   0  0  0  0  0  2  0  0  0  0  0  0
  187.1600  176.5490  140.7850 C   0  0  0  0  0  2  0  0  0  0  0  0
  186.4700  177.8380  141.0570 C   0  0  0  0  0  0  0  0  0  0  0  0
  185.2600  178.1240  140.4370 O   0  0  0  0  0  0  0  0  0  0  0  0
  186.9670  178.6570  141.8720 O   0  0  0  0  0  1  0  0  0  0  0  0
  1  9  1  0  0  0  0
  1  6  1  1  0  0  0
  3 18  2  0  0  0  0
  3 20  1  0  0  0  0
  4 14  1  0  0  0  0
  4 27  1  0  0  0  0
  5  4  2  0  0  0  0
  6  8  1  0  0  0  0
  8 23  1  0  0  0  0
  8 21  1  6  0  0  0
  9 31  1  1  0  0  0
  9 15  1  0  0  0  0
 10 20  1  1  0  0  0
 10 21  1  0  0  0  0
 12 16  1  0  0  0  0
 13  7  2  0  0  0  0
 13 18  1  0  0  0  0
 14  3  1  0  0  0  0
 15 11  2  0  0  0  0
 16 10  1  0  0  0  0
 17 29  1  6  0  0  0
 17 30  1  0  0  0  0
 17 12  1  0  0  0  0
 19 45  1  6  0  0  0
 19  1  1  0  0  0  0
 22 24  2  0  0  0  0
 22  5  1  0  0  0  0
 23  2  1  6  0  0  0
 23 11  1  0  0  0  0
 25 29  1  0  0  0  0
 26 28  1  0  0  0  0
 26 25  1  0  0  0  0
 27 13  1  0  0  0  0
 28 22  1  0  0  0  0
 30 19  1  0  0  0  0
 31 33  1  0  0  0  0
 32 33  2  0  0  0  0
 32 34  1  0  0  0  0
 35 32  1  0  0  0  0
 36 35  1  0  0  0  0
 37 38  1  0  0  0  0
 37 28  1  0  0  0  0
 38 40  1  6  0  0  0
 38 41  1  0  0  0  0
 39 40  1  0  0  0  0
 41 43  1  0  0  0  0
 43 42  2  0  0  0  0
 43 44  1  0  0  0  0
 46 47  1  0  0  0  0
 46 45  1  0  0  0  0
 47 49  1  0  0  0  0
 48 47  2  0  0  0  0
M  END
>  <MODEL>
2

>  <REMARK>
 VINA RESULT:      -7.0      2.654      8.603
  Name = 
  11 active torsions:
  status: ('A' for Active; 'I' for Inactive)
    1  A    between atoms: C_5  and  O_22
    2  A    between atoms: C_10  and  O_21
    3  A    between atoms: C_12  and  O_21
    4  A    between atoms: C_20  and  C_24
    5  A    between atoms: C_23  and  C_31
    6  A    between atoms: C_23  and  C_33
    7  A    between atoms: C_23  and  C_49
    8  A    between atoms: C_24  and  C_38
    9  A    between atoms: C_27  and  C_38
   10  A    between atoms: C_28  and  C_49
   11  A    between atoms: C_33  and  N_44
                            x       y       z     vdW  Elec       q    Type
                         _______ _______ _______ _____ _____    ______ ____

>  <TORSDO>
F 11

$$$$
=
 OpenBabel11062418173D

 49 52  0  0  1  0  0  0  0  0999 V2000
  188.9710  175.9100  143.5170 C   0  0  2  0  0  3  0  0  0  0  0  0
  191.7890  175.9540  143.5160 O   0  0  0  0  0  1  0  0  0  0  0  0
  193.3180  171.8340  142.1110 C   0  0  0  0  0  0  0  0  0  0  0  0
  193.0340  170.7740  139.8360 C   0  0  0  0  0  0  0  0  0  0  0  0
  192.2880  170.4710  138.8140 N   0  0  0  0  0  0  0  0  0  0  0  0
  189.0230  174.7700  144.3430 O   0  0  0  0  0  0  0  0  0  0  0  0
  196.1030  169.7050  141.4180 O   0  0  0  0  0  0  0  0  0  0  0  0
  190.3170  174.5700  144.9000 C   0  0  1  0  0  3  0  0  0  0  0  0
  188.6650  177.1520  144.3680 C   0  0  2  0  0  3  0  0  0  0  0  0
  191.3080  172.8030  143.2620 C   0  0  1  0  0  3  0  0  0  0  0  0
  190.9470  176.9490  145.5060 C   0  0  0  0  0  3  0  0  0  0  0  0
  189.8940  173.0660  141.5670 C   0  0  0  0  0  2  0  0  0  0  0  0
  195.0020  170.2860  141.2440 C   0  0  0  0  0  0  0  0  0  0  0  0
  192.6740  171.9160  140.7490 C   0  0  0  0  0  2  0  0  0  0  0  0
  189.7840  177.5810  145.2900 C   0  0  0  0  0  3  0  0  0  0  0  0
  190.8540  173.7340  142.3250 O   0  0  0  0  0  0  0  0  0  0  0  0
  188.9980  174.0830  140.8930 C   0  0  1  0  0  3  0  0  0  0  0  0
  194.4410  171.1340  142.3050 C   0  0  0  0  0  3  0  0  0  0  0  0
  187.8710  175.7570  142.4530 C   0  0  2  0  0  3  0  0  0  0  0  0
  192.8310  172.7190  143.2170 C   0  0  0  0  0  2  0  0  0  0  0  0
  190.8430  173.1470  144.6820 C   0  0  0  0  0  2  0  0  0  0  0  0
  190.9970  171.0540  138.5940 C   0  0  0  0  0  0  0  0  0  0  0  0
  191.3860  175.6860  144.8260 C   0  0  2  0  0  3  0  0  0  0  0  0
  190.0550  170.7760  139.3870 O   0  0  0  0  0  0  0  0  0  0  0  0
  189.5390  173.8300  138.4890 C   0  0  0  0  0  2  0  0  0  0  0  0
  189.5410  172.7410  137.4270 C   0  0  0  0  0  2  0  0  0  0  0  0
  194.2750  170.0960  140.0290 N   0  0  0  0  0  2  0  0  0  0  0  0
  190.7750  171.9650  137.5060 N   0  0  0  0  0  0  0  0  0  0  0  0
  188.5170  173.5220  139.5670 C   0  0  0  0  0  2  0  0  0  0  0  0
  187.8070  174.3700  141.7950 C   0  0  0  0  0  2  0  0  0  0  0  0
  187.4760  176.9400  145.1190 O   0  0  0  0  0  0  0  0  0  0  0  0
  185.9600  178.1930  146.4190 C   0  0  0  0  0  0  0  0  0  0  0  0
  187.1820  177.7100  146.2410 C   0  0  0  0  0  3  0  0  0  0  0  0
  185.6730  178.9740  147.5760 N   0  0  0  0  0  1  0  0  0  0  0  0
  184.9650  177.9340  145.4780 O   0  0  0  0  0  0  0  0  0  0  0  0
  183.9400  178.7800  145.3110 O   0  0  0  0  0  1  0  0  0  0  0  0
  191.8060  172.2020  136.5020 C   0  0  0  0  0  2  0  0  0  0  0  0
  192.5470  173.4980  136.8060 C   0  0  2  0  0  3  0  0  0  0  0  0
  192.0150  175.7420  136.2070 O   0  0  0  0  0  1  0  0  0  0  0  0
  192.3620  174.4990  135.6770 C   0  0  0  0  0  2  0  0  0  0  0  0
  194.0240  173.2570  137.1310 C   0  0  0  0  0  2  0  0  0  0  0  0
  193.9000  174.9700  138.7930 O   0  0  0  0  0  0  0  0  0  0  0  0
  194.4540  173.9090  138.4080 C   0  0  0  0  0  0  0  0  0  0  0  0
  195.4850  173.3560  139.1580 O   0  0  0  0  0  1  0  0  0  0  0  0
  187.9550  176.8700  141.4130 C   0  0  0  0  0  2  0  0  0  0  0  0
  186.5710  177.2170  140.8960 C   0  0  0  0  0  2  0  0  0  0  0  0
  185.8070  177.9400  141.9470 C   0  0  0  0  0  0  0  0  0  0  0  0
  186.3780  179.0260  142.6010 O   0  0  0  0  0  1  0  0  0  0  0  0
  184.6320  177.5880  142.2240 O   0  0  0  0  0  0  0  0  0  0  0  0
  1  6  1  1  0  0  0
  1  9  1  0  0  0  0
  3 18  2  0  0  0  0
  3 20  1  0  0  0  0
  4 27  1  0  0  0  0
  4 14  1  0  0  0  0
  5  4  2  0  0  0  0
  6  8  1  0  0  0  0
  8 21  1  6  0  0  0
  9 31  1  1  0  0  0
  9 15  1  0  0  0  0
 10 20  1  1  0  0  0
 10 21  1  0  0  0  0
 12 16  1  0  0  0  0
 13  7  2  0  0  0  0
 13 18  1  0  0  0  0
 14  3  1  0  0  0  0
 15 11  2  0  0  0  0
 16 10  1  0  0  0  0
 17 29  1  6  0  0  0
 17 12  1  0  0  0  0
 17 30  1  0  0  0  0
 19 45  1  6  0  0  0
 19  1  1  0  0  0  0
 22  5  1  0  0  0  0
 22 24  2  0  0  0  0
 23  2  1  6  0  0  0
 23  8  1  0  0  0  0
 23 11  1  0  0  0  0
 25 29  1  0  0  0  0
 26 28  1  0  0  0  0
 26 25  1  0  0  0  0
 27 13  1  0  0  0  0
 28 22  1  0  0  0  0
 30 19  1  0  0  0  0
 31 33  1  0  0  0  0
 32 34  1  0  0  0  0
 33 32  2  0  0  0  0
 35 32  1  0  0  0  0
 36 35  1  0  0  0  0
 37 38  1  0  0  0  0
 37 28  1  0  0  0  0
 38 40  1  6  0  0  0
 38 41  1  0  0  0  0
 40 39  1  0  0  0  0
 41 43  1  0  0  0  0
 43 42  2  0  0  0  0
 43 44  1  0  0  0  0
 46 45  1  0  0  0  0
 46 47  1  0  0  0  0
 47 49  2  0  0  0  0
 47 48  1  0  0  0  0
M  END
>  <MODEL>
3

>  <REMARK>
 VINA RESULT:      -6.9      2.310      9.052
  Name = 
  11 active torsions:
  status: ('A' for Active; 'I' for Inactive)
    1  A    between atoms: C_5  and  O_22
    2  A    between atoms: C_10  and  O_21
    3  A    between atoms: C_12  and  O_21
    4  A    between atoms: C_20  and  C_24
    5  A    between atoms: C_23  and  C_31
    6  A    between atoms: C_23  and  C_33
    7  A    between atoms: C_23  and  C_49
    8  A    between atoms: C_24  and  C_38
    9  A    between atoms: C_27  and  C_38
   10  A    between atoms: C_28  and  C_49
   11  A    between atoms: C_33  and  N_44
                            x       y       z     vdW  Elec       q    Type
                         _______ _______ _______ _____ _____    ______ ____

>  <TORSDO>
F 11

$$$$
=
 OpenBabel11062418173D

 49 52  0  0  1  0  0  0  0  0999 V2000
  192.6490  172.0870  141.8080 C   0  0  2  0  0  3  0  0  0  0  0  0
  192.6430  171.7520  144.6070 O   0  0  0  0  0  1  0  0  0  0  0  0
  191.9220  175.8640  146.5730 C   0  0  0  0  0  0  0  0  0  0  0  0
  189.8480  177.2990  146.4380 C   0  0  0  0  0  0  0  0  0  0  0  0
  188.8880  177.8370  145.7450 N   0  0  0  0  0  0  0  0  0  0  0  0
  193.6480  173.0690  141.9620 O   0  0  0  0  0  0  0  0  0  0  0  0
  191.5850  177.7760  149.5720 O   0  0  0  0  0  0  0  0  0  0  0  0
  194.2320  173.0410  143.2600 C   0  0  1  0  0  3  0  0  0  0  0  0
  193.2880  170.7640  141.3620 C   0  0  2  0  0  3  0  0  0  0  0  0
  192.9010  174.9360  144.4550 C   0  0  1  0  0  3  0  0  0  0  0  0
  194.4460  170.5440  143.6330 C   0  0  0  0  0  3  0  0  0  0  0  0
  191.1840  175.0960  143.0510 C   0  0  0  0  0  2  0  0  0  0  0  0
  191.3180  177.3480  148.4210 C   0  0  0  0  0  0  0  0  0  0  0  0
  190.5640  176.0690  145.9480 C   0  0  0  0  0  2  0  0  0  0  0  0
  194.1300  170.0780  142.4150 C   0  0  0  0  0  3  0  0  0  0  0  0
  191.8250  174.2200  143.9250 O   0  0  0  0  0  0  0  0  0  0  0  0
  190.3550  174.2990  142.0680 C   0  0  1  0  0  3  0  0  0  0  0  0
  192.2280  176.4030  147.7580 C   0  0  0  0  0  3  0  0  0  0  0  0
  191.6230  172.5230  140.7480 C   0  0  2  0  0  3  0  0  0  0  0  0
  192.8710  174.8680  145.9790 C   0  0  0  0  0  2  0  0  0  0  0  0
  194.2460  174.4190  143.9320 C   0  0  0  0  0  2  0  0  0  0  0  0
  188.5760  177.4340  144.4060 C   0  0  0  0  0  0  0  0  0  0  0  0
  193.9790  171.8470  144.2100 C   0  0  2  0  0  3  0  0  0  0  0  0
  189.4020  177.6770  143.4840 O   0  0  0  0  0  0  0  0  0  0  0  0
  188.0230  174.8770  142.6740 C   0  0  0  0  0  2  0  0  0  0  0  0
  187.1500  176.1160  142.8060 C   0  0  0  0  0  2  0  0  0  0  0  0
  190.1490  177.8050  147.7390 N   0  0  0  0  0  2  0  0  0  0  0  0
  187.3550  176.7370  144.1110 N   0  0  0  0  0  0  0  0  0  0  0  0
  189.1360  175.1120  141.6700 C   0  0  0  0  0  2  0  0  0  0  0  0
  191.1980  173.9960  140.8390 C   0  0  0  0  0  2  0  0  0  0  0  0
  194.0620  170.9740  140.1890 O   0  0  0  0  0  0  0  0  0  0  0  0
  196.2970  171.6350  139.8310 C   0  0  0  0  0  0  0  0  0  0  0  0
  195.4260  170.6920  140.1600 C   0  0  0  0  0  3  0  0  0  0  0  0
  197.6890  171.3310  139.8120 N   0  0  0  0  0  1  0  0  0  0  0  0
  195.8500  172.9150  139.5090 O   0  0  0  0  0  0  0  0  0  0  0  0
  196.3280  173.9910  140.1470 O   0  0  0  0  0  1  0  0  0  0  0  0
  186.3270  176.5590  145.1300 C   0  0  0  0  0  2  0  0  0  0  0  0
  185.7830  177.9120  145.5690 C   0  0  2  0  0  3  0  0  0  0  0  0
  186.2440  176.8350  147.6450 O   0  0  0  0  0  1  0  0  0  0  0  0
  185.6980  177.9900  147.0850 C   0  0  0  0  0  2  0  0  0  0  0  0
  184.4480  178.2450  144.8960 C   0  0  0  0  0  2  0  0  0  0  0  0
  185.5420  179.4820  143.1680 O   0  0  0  0  0  1  0  0  0  0  0  0
  184.6060  178.7020  143.4790 C   0  0  0  0  0  0  0  0  0  0  0  0
  183.7040  178.2830  142.5090 O   0  0  0  0  0  0  0  0  0  0  0  0
  190.4170  171.5880  140.7360 C   0  0  0  0  0  2  0  0  0  0  0  0
  190.0860  171.1690  139.3160 C   0  0  0  0  0  2  0  0  0  0  0  0
  189.1300  172.1370  138.7150 C   0  0  0  0  0  0  0  0  0  0  0  0
  187.9550  172.4610  139.3830 O   0  0  0  0  0  1  0  0  0  0  0  0
  189.3990  172.6850  137.6160 O   0  0  0  0  0  0  0  0  0  0  0  0
  1  6  1  6  0  0  0
  3 18  2  0  0  0  0
  4 27  1  0  0  0  0
  5  4  2  0  0  0  0
  6  8  1  0  0  0  0
  8 21  1  1  0  0  0
  8 23  1  0  0  0  0
  9 31  1  6  0  0  0
  9  1  1  0  0  0  0
  9 15  1  0  0  0  0
 10 21  1  6  0  0  0
 10 20  1  0  0  0  0
 11 23  1  0  0  0  0
 12 16  1  0  0  0  0
 13  7  2  0  0  0  0
 14  4  1  0  0  0  0
 14  3  1  0  0  0  0
 15 11  2  0  0  0  0
 16 10  1  0  0  0  0
 17 30  1  6  0  0  0
 17 12  1  0  0  0  0
 18 13  1  0  0  0  0
 19 45  1  1  0  0  0
 19 30  1  0  0  0  0
 19  1  1  0  0  0  0
 20  3  1  0  0  0  0
 22  5  1  0  0  0  0
 23  2  1  6  0  0  0
 24 22  2  0  0  0  0
 25 26  1  0  0  0  0
 26 28  1  0  0  0  0
 27 13  1  0  0  0  0
 28 22  1  0  0  0  0
 28 37  1  0  0  0  0
 29 17  1  0  0  0  0
 29 25  1  0  0  0  0
 32 33  2  0  0  0  0
 33 31  1  0  0  0  0
 34 32  1  0  0  0  0
 35 32  1  0  0  0  0
 35 36  1  0  0  0  0
 37 38  1  0  0  0  0
 38 41  1  6  0  0  0
 38 40  1  0  0  0  0
 40 39  1  0  0  0  0
 42 43  1  0  0  0  0
 43 41  1  0  0  0  0
 44 43  2  0  0  0  0
 46 45  1  0  0  0  0
 47 46  1  0  0  0  0
 47 48  1  0  0  0  0
 49 47  2  0  0  0  0
M  END
>  <MODEL>
4

>  <REMARK>
 VINA RESULT:      -6.9      1.132      1.444
  Name = 
  11 active torsions:
  status: ('A' for Active; 'I' for Inactive)
    1  A    between atoms: C_5  and  O_22
    2  A    between atoms: C_10  and  O_21
    3  A    between atoms: C_12  and  O_21
    4  A    between atoms: C_20  and  C_24
    5  A    between atoms: C_23  and  C_31
    6  A    between atoms: C_23  and  C_33
    7  A    between atoms: C_23  and  C_49
    8  A    between atoms: C_24  and  C_38
    9  A    between atoms: C_27  and  C_38
   10  A    between atoms: C_28  and  C_49
   11  A    between atoms: C_33  and  N_44
                            x       y       z     vdW  Elec       q    Type
                         _______ _______ _______ _____ _____    ______ ____

>  <TORSDO>
F 11

$$$$
=
 OpenBabel11062418173D

 49 52  0  0  1  0  0  0  0  0999 V2000
  192.3840  171.8020  141.4110 C   0  0  2  0  0  3  0  0  0  0  0  0
  192.2910  171.4500  144.2060 O   0  0  0  0  0  1  0  0  0  0  0  0
  191.7510  175.5810  146.1870 C   0  0  0  0  0  0  0  0  0  0  0  0
  189.7640  177.1300  146.0140 C   0  0  0  0  0  0  0  0  0  0  0  0
  188.8520  177.7250  145.3030 N   0  0  0  0  0  0  0  0  0  0  0  0
  193.4320  172.7260  141.5970 O   0  0  0  0  0  0  0  0  0  0  0  0
  191.4470  177.4900  149.1930 O   0  0  0  0  0  0  0  0  0  0  0  0
  193.9810  172.6580  142.9080 C   0  0  1  0  0  3  0  0  0  0  0  0
  192.9590  170.4490  140.9700 C   0  0  2  0  0  3  0  0  0  0  0  0
  192.7290  174.6150  144.0850 C   0  0  1  0  0  3  0  0  0  0  0  0
  194.0480  170.1500  143.2650 C   0  0  0  0  0  3  0  0  0  0  0  0
  191.0580  174.8800  142.6420 C   0  0  0  0  0  2  0  0  0  0  0  0
  191.1850  177.0840  148.0320 C   0  0  0  0  0  0  0  0  0  0  0  0
  190.4230  175.8660  145.5310 C   0  0  0  0  0  2  0  0  0  0  0  0
  193.7360  169.7110  142.0370 C   0  0  0  0  0  3  0  0  0  0  0  0
  191.6280  173.9640  143.5240 O   0  0  0  0  0  0  0  0  0  0  0  0
  190.2100  174.1370  141.6330 C   0  0  1  0  0  3  0  0  0  0  0  0
  192.0570  176.0950  147.3830 C   0  0  0  0  0  3  0  0  0  0  0  0
  191.4100  172.3020  140.3300 C   0  0  2  0  0  3  0  0  0  0  0  0
  192.6570  174.5380  145.6070 C   0  0  0  0  0  2  0  0  0  0  0  0
  194.0550  174.0270  143.5910 C   0  0  0  0  0  2  0  0  0  0  0  0
  188.5510  177.3500  143.9530 C   0  0  0  0  0  0  0  0  0  0  0  0
  193.6390  171.4730  143.8420 C   0  0  2  0  0  3  0  0  0  0  0  0
  189.4120  177.5530  143.0530 O   0  0  0  0  0  0  0  0  0  0  0  0
  187.9000  174.8390  142.1880 C   0  0  0  0  0  2  0  0  0  0  0  0
  187.0940  176.1240  142.3090 C   0  0  0  0  0  2  0  0  0  0  0  0
  190.0600  177.6100  147.3260 N   0  0  0  0  0  2  0  0  0  0  0  0
  187.3010  176.7240  143.6230 N   0  0  0  0  0  0  0  0  0  0  0  0
  189.0480  175.0190  141.2130 C   0  0  0  0  0  2  0  0  0  0  0  0
  191.0650  173.7950  140.4220 C   0  0  0  0  0  2  0  0  0  0  0  0
  193.7730  170.6240  139.8170 O   0  0  0  0  0  0  0  0  0  0  0  0
  193.3350  170.2390  137.5320 C   0  0  0  0  0  0  0  0  0  0  0  0
  193.6740  169.7670  138.7230 C   0  0  0  0  0  3  0  0  0  0  0  0
  193.2440  169.3500  136.4220 N   0  0  0  0  0  1  0  0  0  0  0  0
  193.0710  171.5980  137.3710 O   0  0  0  0  0  0  0  0  0  0  0  0
  192.5290  172.0640  136.2370 O   0  0  0  0  0  1  0  0  0  0  0  0
  186.2400  176.5960  144.6150 C   0  0  0  0  0  2  0  0  0  0  0  0
  185.2570  177.7530  144.4860 C   0  0  2  0  0  3  0  0  0  0  0  0
  183.7920  178.2920  142.6850 O   0  0  0  0  0  1  0  0  0  0  0  0
  185.1390  178.1970  143.0370 C   0  0  0  0  0  2  0  0  0  0  0  0
  185.6030  178.9140  145.4220 C   0  0  0  0  0  2  0  0  0  0  0  0
  184.3110  178.2690  147.3260 O   0  0  0  0  0  0  0  0  0  0  0  0
  185.4440  178.5650  146.8690 C   0  0  0  0  0  0  0  0  0  0  0  0
  186.5460  178.5920  147.7160 O   0  0  0  0  0  1  0  0  0  0  0  0
  190.1550  171.4350  140.2820 C   0  0  0  0  0  2  0  0  0  0  0  0
  189.4900  171.5430  138.9230 C   0  0  0  0  0  2  0  0  0  0  0  0
  189.7900  170.3300  138.1170 C   0  0  0  0  0  0  0  0  0  0  0  0
  189.7080  170.3760  136.7300 O   0  0  0  0  0  0  0  0  0  0  0  0
  190.1470  169.2680  138.6890 O   0  0  0  0  0  1  0  0  0  0  0  0
  1  6  1  6  0  0  0
  3 18  2  0  0  0  0
  4 27  1  0  0  0  0
  5  4  2  0  0  0  0
  6  8  1  0  0  0  0
  8 21  1  1  0  0  0
  8 23  1  0  0  0  0
  9 31  1  6  0  0  0
  9  1  1  0  0  0  0
  9 15  1  0  0  0  0
 10 21  1  6  0  0  0
 10 20  1  0  0  0  0
 11 23  1  0  0  0  0
 12 16  1  0  0  0  0
 13  7  2  0  0  0  0
 14  4  1  0  0  0  0
 14  3  1  0  0  0  0
 15 11  2  0  0  0  0
 16 10  1  0  0  0  0
 17 30  1  6  0  0  0
 17 12  1  0  0  0  0
 18 13  1  0  0  0  0
 19 45  1  1  0  0  0
 19 30  1  0  0  0  0
 19  1  1  0  0  0  0
 20  3  1  0  0  0  0
 22  5  1  0  0  0  0
 23  2  1  6  0  0  0
 24 22  2  0  0  0  0
 25 26  1  0  0  0  0
 26 28  1  0  0  0  0
 27 13  1  0  0  0  0
 28 22  1  0  0  0  0
 28 37  1  0  0  0  0
 29 17  1  0  0  0  0
 29 25  1  0  0  0  0
 32 33  2  0  0  0  0
 33 31  1  0  0  0  0
 34 32  1  0  0  0  0
 35 32  1  0  0  0  0
 36 35  1  0  0  0  0
 38 40  1  6  0  0  0
 38 37  1  0  0  0  0
 38 41  1  0  0  0  0
 39 40  1  0  0  0  0
 41 43  1  0  0  0  0
 43 42  2  0  0  0  0
 43 44  1  0  0  0  0
 46 45  1  0  0  0  0
 47 49  1  0  0  0  0
 47 46  1  0  0  0  0
 48 47  2  0  0  0  0
M  END
>  <MODEL>
5

>  <REMARK>
 VINA RESULT:      -6.8      1.084      1.791
  Name = 
  11 active torsions:
  status: ('A' for Active; 'I' for Inactive)
    1  A    between atoms: C_5  and  O_22
    2  A    between atoms: C_10  and  O_21
    3  A    between atoms: C_12  and  O_21
    4  A    between atoms: C_20  and  C_24
    5  A    between atoms: C_23  and  C_31
    6  A    between atoms: C_23  and  C_33
    7  A    between atoms: C_23  and  C_49
    8  A    between atoms: C_24  and  C_38
    9  A    between atoms: C_27  and  C_38
   10  A    between atoms: C_28  and  C_49
   11  A    between atoms: C_33  and  N_44
                            x       y       z     vdW  Elec       q    Type
                         _______ _______ _______ _____ _____    ______ ____

>  <TORSDO>
F 11

$$$$
=
 OpenBabel11062418173D

 49 52  0  0  1  0  0  0  0  0999 V2000
  188.8070  175.1800  142.4140 C   0  0  2  0  0  3  0  0  0  0  0  0
  191.2390  176.5860  142.6430 O   0  0  0  0  0  1  0  0  0  0  0  0
  194.1940  174.0140  145.0810 C   0  0  0  0  0  0  0  0  0  0  0  0
  195.1950  171.7850  144.4400 C   0  0  0  0  0  0  0  0  0  0  0  0
  195.0660  170.5830  143.9610 N   0  0  0  0  0  0  0  0  0  0  0  0
  188.7780  175.0700  143.8180 O   0  0  0  0  0  0  0  0  0  0  0  0
  197.4360  173.6840  146.5480 O   0  0  0  0  0  0  0  0  0  0  0  0
  189.7080  175.9470  144.4440 C   0  0  1  0  0  3  0  0  0  0  0  0
  187.8660  176.3070  141.9630 C   0  0  2  0  0  3  0  0  0  0  0  0
  191.7130  174.3400  144.8700 C   0  0  1  0  0  3  0  0  0  0  0  0
  189.4010  178.0400  143.0500 C   0  0  0  0  0  3  0  0  0  0  0  0
  191.1570  172.7070  143.4670 C   0  0  0  0  0  2  0  0  0  0  0  0
  196.4130  173.3730  145.8870 C   0  0  0  0  0  0  0  0  0  0  0  0
  194.2050  172.8670  144.1000 C   0  0  0  0  0  2  0  0  0  0  0  0
  188.3300  177.7020  142.3170 C   0  0  0  0  0  3  0  0  0  0  0  0
  191.4950  174.0580  143.5190 O   0  0  0  0  0  0  0  0  0  0  0  0
  190.4200  172.4290  142.1750 C   0  0  1  0  0  3  0  0  0  0  0  0
  195.2570  174.2790  145.8480 C   0  0  0  0  0  3  0  0  0  0  0  0
  188.3520  173.8640  141.7600 C   0  0  2  0  0  3  0  0  0  0  0  0
  193.0740  175.0080  145.0480 C   0  0  0  0  0  2  0  0  0  0  0  0
  190.6100  175.2300  145.4540 C   0  0  0  0  0  2  0  0  0  0  0  0
  193.8990  170.1500  143.2520 C   0  0  0  0  0  0  0  0  0  0  0  0
  190.3890  177.0770  143.6360 C   0  0  2  0  0  3  0  0  0  0  0  0
  192.8080  170.0370  143.8770 O   0  0  0  0  0  0  0  0  0  0  0  0
  191.9920  170.9940  140.9080 C   0  0  0  0  0  2  0  0  0  0  0  0
  192.7240  169.6720  141.0790 C   0  0  0  0  0  2  0  0  0  0  0  0
  196.3560  172.1200  145.2010 N   0  0  0  0  0  2  0  0  0  0  0  0
  193.9510  169.8730  141.8440 N   0  0  0  0  0  0  0  0  0  0  0  0
  190.7160  171.0090  141.7280 C   0  0  0  0  0  2  0  0  0  0  0  0
  188.9260  172.5960  142.4100 C   0  0  0  0  0  2  0  0  0  0  0  0
  186.5630  176.0850  142.4870 O   0  0  0  0  0  0  0  0  0  0  0  0
  185.2910  177.4330  143.9450 C   0  0  0  0  0  0  0  0  0  0  0  0
  185.6840  177.1410  142.7130 C   0  0  0  0  0  3  0  0  0  0  0  0
  184.3950  178.5200  144.1600 N   0  0  0  0  0  1  0  0  0  0  0  0
  185.7570  176.6790  145.0210 O   0  0  0  0  0  0  0  0  0  0  0  0
  185.1210  176.7000  146.2010 O   0  0  0  0  0  1  0  0  0  0  0  0
  195.2200  169.8690  141.1260 C   0  0  0  0  0  2  0  0  0  0  0  0
  195.4420  171.2120  140.4420 C   0  0  2  0  0  3  0  0  0  0  0  0
  195.3540  169.7010  138.6010 O   0  0  0  0  0  1  0  0  0  0  0  0
  195.4240  171.0550  138.9310 C   0  0  0  0  0  2  0  0  0  0  0  0
  196.7110  171.9110  140.9380 C   0  0  0  0  0  2  0  0  0  0  0  0
  195.6530  174.0380  140.6820 O   0  0  0  0  0  0  0  0  0  0  0  0
  196.4800  173.3390  141.3220 C   0  0  0  0  0  0  0  0  0  0  0  0
  197.1980  173.9020  142.3700 O   0  0  0  0  0  1  0  0  0  0  0  0
  188.5990  173.8870  140.2540 C   0  0  0  0  0  2  0  0  0  0  0  0
  188.0320  172.6380  139.6060 C   0  0  0  0  0  2  0  0  0  0  0  0
  188.8620  172.2590  138.4310 C   0  0  0  0  0  0  0  0  0  0  0  0
  189.4910  171.0200  138.3930 O   0  0  0  0  0  1  0  0  0  0  0  0
  188.9700  173.0480  137.4580 O   0  0  0  0  0  0  0  0  0  0  0  0
  1  6  1  1  0  0  0
  3 18  2  0  0  0  0
  4 27  1  0  0  0  0
  5  4  2  0  0  0  0
  6  8  1  0  0  0  0
  8 21  1  6  0  0  0
  9 15  1  0  0  0  0
  9  1  1  0  0  0  0
  9 31  1  1  0  0  0
 10 20  1  6  0  0  0
 10 21  1  0  0  0  0
 11 23  1  0  0  0  0
 12 16  1  0  0  0  0
 13  7  2  0  0  0  0
 14  4  1  0  0  0  0
 14  3  1  0  0  0  0
 15 11  2  0  0  0  0
 16 10  1  0  0  0  0
 17 29  1  1  0  0  0
 17 30  1  0  0  0  0
 17 12  1  0  0  0  0
 18 13  1  0  0  0  0
 19 45  1  6  0  0  0
 19 30  1  0  0  0  0
 19  1  1  0  0  0  0
 20  3  1  0  0  0  0
 22 24  2  0  0  0  0
 22  5  1  0  0  0  0
 23  2  1  6  0  0  0
 23  8  1  0  0  0  0
 25 26  1  0  0  0  0
 25 29  1  0  0  0  0
 26 28  1  0  0  0  0
 27 13  1  0  0  0  0
 28 22  1  0  0  0  0
 31 33  1  0  0  0  0
 32 34  1  0  0  0  0
 32 35  1  0  0  0  0
 33 32  2  0  0  0  0
 35 36  1  0  0  0  0
 37 28  1  0  0  0  0
 38 40  1  6  0  0  0
 38 41  1  0  0  0  0
 38 37  1  0  0  0  0
 39 40  1  0  0  0  0
 41 43  1  0  0  0  0
 42 43  2  0  0  0  0
 43 44  1  0  0  0  0
 46 45  1  0  0  0  0
 47 46  1  0  0  0  0
 48 47  1  0  0  0  0
 49 47  2  0  0  0  0
M  END
>  <MODEL>
6

>  <REMARK>
 VINA RESULT:      -6.7      2.776      8.497
  Name = 
  11 active torsions:
  status: ('A' for Active; 'I' for Inactive)
    1  A    between atoms: C_5  and  O_22
    2  A    between atoms: C_10  and  O_21
    3  A    between atoms: C_12  and  O_21
    4  A    between atoms: C_20  and  C_24
    5  A    between atoms: C_23  and  C_31
    6  A    between atoms: C_23  and  C_33
    7  A    between atoms: C_23  and  C_49
    8  A    between atoms: C_24  and  C_38
    9  A    between atoms: C_27  and  C_38
   10  A    between atoms: C_28  and  C_49
   11  A    between atoms: C_33  and  N_44
                            x       y       z     vdW  Elec       q    Type
                         _______ _______ _______ _____ _____    ______ ____

>  <TORSDO>
F 11

$$$$
=
 OpenBabel11062418173D

 49 52  0  0  1  0  0  0  0  0999 V2000
  188.9510  175.8970  143.6250 C   0  0  2  0  0  3  0  0  0  0  0  0
  191.7680  175.8920  143.7090 O   0  0  0  0  0  1  0  0  0  0  0  0
  193.2680  171.7400  142.3680 C   0  0  0  0  0  0  0  0  0  0  0  0
  193.0340  170.6740  140.0900 C   0  0  0  0  0  0  0  0  0  0  0  0
  192.3140  170.3790  139.0480 N   0  0  0  0  0  0  0  0  0  0  0  0
  188.9580  174.7590  144.4560 O   0  0  0  0  0  0  0  0  0  0  0  0
  196.0340  169.5590  141.7690 O   0  0  0  0  0  0  0  0  0  0  0  0
  190.2310  174.5400  145.0540 C   0  0  1  0  0  3  0  0  0  0  0  0
  188.6410  177.1480  144.4600 C   0  0  2  0  0  3  0  0  0  0  0  0
  191.2400  172.7480  143.4540 C   0  0  1  0  0  3  0  0  0  0  0  0
  190.8830  176.9100  145.6680 C   0  0  0  0  0  3  0  0  0  0  0  0
  189.8830  173.0280  141.7150 C   0  0  0  0  0  2  0  0  0  0  0  0
  194.9500  170.1590  141.5600 C   0  0  0  0  0  0  0  0  0  0  0  0
  192.6670  171.8260  140.9870 C   0  0  0  0  0  2  0  0  0  0  0  0
  189.7390  177.5620  145.4140 C   0  0  0  0  0  3  0  0  0  0  0  0
  190.8320  173.6820  142.4990 O   0  0  0  0  0  0  0  0  0  0  0  0
  189.0260  174.0570  141.0100 C   0  0  1  0  0  3  0  0  0  0  0  0
  194.3710  171.0210  142.5990 C   0  0  0  0  0  3  0  0  0  0  0  0
  187.8810  175.7570  142.5280 C   0  0  2  0  0  3  0  0  0  0  0  0
  192.7620  172.6380  143.4550 C   0  0  0  0  0  2  0  0  0  0  0  0
  190.7380  173.1070  144.8570 C   0  0  0  0  0  2  0  0  0  0  0  0
  191.0410  170.9830  138.7860 C   0  0  0  0  0  0  0  0  0  0  0  0
  191.3210  175.6370  145.0070 C   0  0  2  0  0  3  0  0  0  0  0  0
  190.0710  170.7250  139.5500 O   0  0  0  0  0  0  0  0  0  0  0  0
  189.6360  173.7840  138.6250 C   0  0  0  0  0  2  0  0  0  0  0  0
  189.6510  172.6900  137.5680 C   0  0  0  0  0  2  0  0  0  0  0  0
  194.2570  169.9750  140.3230 N   0  0  0  0  0  2  0  0  0  0  0  0
  190.8680  171.8930  137.6880 N   0  0  0  0  0  0  0  0  0  0  0  0
  188.5760  173.4980  139.6720 C   0  0  0  0  0  2  0  0  0  0  0  0
  187.8140  174.3690  141.8750 C   0  0  0  0  0  2  0  0  0  0  0  0
  187.4270  176.9600  145.1760 O   0  0  0  0  0  0  0  0  0  0  0  0
  186.0790  177.7410  146.9460 C   0  0  0  0  0  0  0  0  0  0  0  0
  187.2780  177.4140  146.4830 C   0  0  0  0  0  3  0  0  0  0  0  0
  185.9440  178.1980  148.2890 N   0  0  0  0  0  1  0  0  0  0  0  0
  184.9610  177.6330  146.1210 O   0  0  0  0  0  0  0  0  0  0  0  0
  184.0670  178.6270  146.0430 O   0  0  0  0  0  1  0  0  0  0  0  0
  191.9330  172.1070  136.7150 C   0  0  0  0  0  2  0  0  0  0  0  0
  191.3580  172.1360  135.3040 C   0  0  2  0  0  3  0  0  0  0  0  0
  192.2410  169.9280  135.4600 O   0  0  0  0  0  1  0  0  0  0  0  0
  191.6520  170.8340  134.5780 C   0  0  0  0  0  2  0  0  0  0  0  0
  191.8280  173.3600  134.5130 C   0  0  0  0  0  2  0  0  0  0  0  0
  193.5870  174.5770  135.5790 O   0  0  0  0  0  0  0  0  0  0  0  0
  192.3490  174.4570  135.3890 C   0  0  0  0  0  0  0  0  0  0  0  0
  191.4650  175.3280  136.0130 O   0  0  0  0  0  1  0  0  0  0  0  0
  188.0160  176.8640  141.4870 C   0  0  0  0  0  2  0  0  0  0  0  0
  186.7210  177.0230  140.7130 C   0  0  0  0  0  2  0  0  0  0  0  0
  185.9570  178.1840  141.2410 C   0  0  0  0  0  0  0  0  0  0  0  0
  184.7950  178.6030  140.6030 O   0  0  0  0  0  0  0  0  0  0  0  0
  186.3470  178.7700  142.2840 O   0  0  0  0  0  1  0  0  0  0  0  0
  1  6  1  1  0  0  0
  1  9  1  0  0  0  0
  3 18  2  0  0  0  0
  3 20  1  0  0  0  0
  4 27  1  0  0  0  0
  4 14  1  0  0  0  0
  5  4  2  0  0  0  0
  6  8  1  0  0  0  0
  8 21  1  6  0  0  0
  9 31  1  1  0  0  0
  9 15  1  0  0  0  0
 10 20  1  1  0  0  0
 10 21  1  0  0  0  0
 12 16  1  0  0  0  0
 13  7  2  0  0  0  0
 13 18  1  0  0  0  0
 14  3  1  0  0  0  0
 15 11  2  0  0  0  0
 16 10  1  0  0  0  0
 17 29  1  6  0  0  0
 17 12  1  0  0  0  0
 17 30  1  0  0  0  0
 19 45  1  6  0  0  0
 19  1  1  0  0  0  0
 22  5  1  0  0  0  0
 22 24  2  0  0  0  0
 23  2  1  6  0  0  0
 23  8  1  0  0  0  0
 23 11  1  0  0  0  0
 25 29  1  0  0  0  0
 26 28  1  0  0  0  0
 26 25  1  0  0  0  0
 27 13  1  0  0  0  0
 28 22  1  0  0  0  0
 30 19  1  0  0  0  0
 31 33  1  0  0  0  0
 32 34  1  0  0  0  0
 33 32  2  0  0  0  0
 35 32  1  0  0  0  0
 36 35  1  0  0  0  0
 37 28  1  0  0  0  0
 38 41  1  6  0  0  0
 38 37  1  0  0  0  0
 40 38  1  0  0  0  0
 40 39  1  0  0  0  0
 41 43  1  0  0  0  0
 43 42  2  0  0  0  0
 43 44  1  0  0  0  0
 46 47  1  0  0  0  0
 46 45  1  0  0  0  0
 47 49  1  0  0  0  0
 48 47  2  0  0  0  0
M  END
>  <MODEL>
7

>  <REMARK>
 VINA RESULT:      -6.3      2.355      9.195
  Name = 
  11 active torsions:
  status: ('A' for Active; 'I' for Inactive)
    1  A    between atoms: C_5  and  O_22
    2  A    between atoms: C_10  and  O_21
    3  A    between atoms: C_12  and  O_21
    4  A    between atoms: C_20  and  C_24
    5  A    between atoms: C_23  and  C_31
    6  A    between atoms: C_23  and  C_33
    7  A    between atoms: C_23  and  C_49
    8  A    between atoms: C_24  and  C_38
    9  A    between atoms: C_27  and  C_38
   10  A    between atoms: C_28  and  C_49
   11  A    between atoms: C_33  and  N_44
                            x       y       z     vdW  Elec       q    Type
                         _______ _______ _______ _____ _____    ______ ____

>  <TORSDO>
F 11

$$$$
=
 OpenBabel11062418173D

 49 52  0  0  1  0  0  0  0  0999 V2000
  190.1260  174.1980  142.9180 C   0  0  2  0  0  3  0  0  0  0  0  0
  190.3500  171.6290  141.7800 O   0  0  0  0  0  1  0  0  0  0  0  0
  194.6560  171.0900  140.2120 C   0  0  0  0  0  0  0  0  0  0  0  0
  196.7920  171.0100  141.5580 C   0  0  0  0  0  0  0  0  0  0  0  0
  197.5520  171.4810  142.5020 N   0  0  0  0  0  0  0  0  0  0  0  0
  190.5920  174.7390  141.7030 O   0  0  0  0  0  0  0  0  0  0  0  0
  197.0450  169.0130  138.5560 O   0  0  0  0  0  0  0  0  0  0  0  0
  190.5560  173.7890  140.6440 C   0  0  1  0  0  3  0  0  0  0  0  0
  188.6000  174.3450  142.9980 C   0  0  2  0  0  3  0  0  0  0  0  0
  193.0240  172.9530  140.6290 C   0  0  1  0  0  3  0  0  0  0  0  0
  188.3270  172.6690  141.0850 C   0  0  0  0  0  3  0  0  0  0  0  0
  193.6460  173.6610  142.6430 C   0  0  0  0  0  2  0  0  0  0  0  0
  196.5680  169.7830  139.4270 C   0  0  0  0  0  0  0  0  0  0  0  0
  195.3060  171.2530  141.5640 C   0  0  0  0  0  2  0  0  0  0  0  0
  187.8260  173.4670  142.0400 C   0  0  0  0  0  3  0  0  0  0  0  0
  192.7570  172.8070  141.9920 O   0  0  0  0  0  0  0  0  0  0  0  0
  193.1170  173.9670  144.0270 C   0  0  1  0  0  3  0  0  0  0  0  0
  195.2200  170.3420  139.2590 C   0  0  0  0  0  3  0  0  0  0  0  0
  190.7580  174.9330  144.1130 C   0  0  2  0  0  3  0  0  0  0  0  0
  193.2580  171.5840  139.9970 C   0  0  0  0  0  2  0  0  0  0  0  0
  191.8910  173.6820  139.8980 C   0  0  0  0  0  2  0  0  0  0  0  0
  197.0840  172.4090  143.4870 C   0  0  0  0  0  0  0  0  0  0  0  0
  189.7860  172.4570  140.8090 C   0  0  2  0  0  3  0  0  0  0  0  0
  196.7730  173.5790  143.1300 O   0  0  0  0  0  0  0  0  0  0  0  0
  194.7430  172.8540  145.5290 C   0  0  0  0  0  2  0  0  0  0  0  0
  196.2370  172.8750  145.8110 C   0  0  0  0  0  2  0  0  0  0  0  0
  197.3500  170.1460  140.5670 N   0  0  0  0  0  2  0  0  0  0  0  0
  196.9400  172.0160  144.8610 N   0  0  0  0  0  0  0  0  0  0  0  0
  194.2860  174.1890  144.9700 C   0  0  0  0  0  2  0  0  0  0  0  0
  192.2590  175.2220  143.9650 C   0  0  0  0  0  2  0  0  0  0  0  0
  188.2360  175.7060  142.8060 O   0  0  0  0  0  0  0  0  0  0  0  0
  186.4240  177.2150  142.8240 C   0  0  0  0  0  0  0  0  0  0  0  0
  186.9460  176.0630  142.4230 C   0  0  0  0  0  3  0  0  0  0  0  0
  185.1050  177.5690  142.4180 N   0  0  0  0  0  1  0  0  0  0  0  0
  187.1660  178.0700  143.6360 O   0  0  0  0  0  0  0  0  0  0  0  0
  186.6600  178.5400  144.7840 O   0  0  0  0  0  1  0  0  0  0  0  0
  197.4130  170.7170  145.3250 C   0  0  0  0  0  2  0  0  0  0  0  0
  196.2320  169.8350  145.7100 C   0  0  2  0  0  3  0  0  0  0  0  0
  195.2410  168.8420  147.6370 O   0  0  0  0  0  1  0  0  0  0  0  0
  196.4660  169.1860  147.0640 C   0  0  0  0  0  2  0  0  0  0  0  0
  195.8990  168.8080  144.6240 C   0  0  0  0  0  2  0  0  0  0  0  0
  193.6350  169.5490  144.8180 O   0  0  0  0  0  1  0  0  0  0  0  0
  194.4780  168.8890  144.1590 C   0  0  0  0  0  0  0  0  0  0  0  0
  194.0830  168.2140  143.0110 O   0  0  0  0  0  0  0  0  0  0  0  0
  190.4480  174.2150  145.4230 C   0  0  0  0  0  2  0  0  0  0  0  0
  190.3610  175.2100  146.5640 C   0  0  0  0  0  2  0  0  0  0  0  0
  189.3030  176.2160  146.2760 C   0  0  0  0  0  0  0  0  0  0  0  0
  189.6470  177.5420  146.0450 O   0  0  0  0  0  0  0  0  0  0  0  0
  188.0990  175.8600  146.2120 O   0  0  0  0  0  1  0  0  0  0  0  0
  1  6  1  6  0  0  0
  1  9  1  0  0  0  0
  1 19  1  0  0  0  0
  3 14  1  0  0  0  0
  4 14  1  0  0  0  0
  4  5  2  0  0  0  0
  5 22  1  0  0  0  0
  7 13  2  0  0  0  0
  8 21  1  1  0  0  0
  8 23  1  0  0  0  0
  8  6  1  0  0  0  0
  9 31  1  6  0  0  0
 10 21  1  6  0  0  0
 10 16  1  0  0  0  0
 11 15  2  0  0  0  0
 13 27  1  0  0  0  0
 15  9  1  0  0  0  0
 16 12  1  0  0  0  0
 17 12  1  6  0  0  0
 17 29  1  0  0  0  0
 18 13  1  0  0  0  0
 18  3  2  0  0  0  0
 19 45  1  1  0  0  0
 20  3  1  0  0  0  0
 20 10  1  0  0  0  0
 22 28  1  0  0  0  0
 23 11  1  0  0  0  0
 23  2  1  1  0  0  0
 24 22  2  0  0  0  0
 25 26  1  0  0  0  0
 27  4  1  0  0  0  0
 28 37  1  0  0  0  0
 28 26  1  0  0  0  0
 29 25  1  0  0  0  0
 30 17  1  0  0  0  0
 30 19  1  0  0  0  0
 32 35  1  0  0  0  0
 33 31  1  0  0  0  0
 33 32  2  0  0  0  0
 34 32  1  0  0  0  0
 35 36  1  0  0  0  0
 37 38  1  0  0  0  0
 38 41  1  6  0  0  0
 38 40  1  0  0  0  0
 40 39  1  0  0  0  0
 43 41  1  0  0  0  0
 43 42  1  0  0  0  0
 44 43  2  0  0  0  0
 45 46  1  0  0  0  0
 47 46  1  0  0  0  0
 48 47  2  0  0  0  0
 49 47  1  0  0  0  0
M  END
>  <MODEL>
8

>  <REMARK>
 VINA RESULT:      -6.3      2.933      9.432
  Name = 
  11 active torsions:
  status: ('A' for Active; 'I' for Inactive)
    1  A    between atoms: C_5  and  O_22
    2  A    between atoms: C_10  and  O_21
    3  A    between atoms: C_12  and  O_21
    4  A    between atoms: C_20  and  C_24
    5  A    between atoms: C_23  and  C_31
    6  A    between atoms: C_23  and  C_33
    7  A    between atoms: C_23  and  C_49
    8  A    between atoms: C_24  and  C_38
    9  A    between atoms: C_27  and  C_38
   10  A    between atoms: C_28  and  C_49
   11  A    between atoms: C_33  and  N_44
                            x       y       z     vdW  Elec       q    Type
                         _______ _______ _______ _____ _____    ______ ____

>  <TORSDO>
F 11

$$$$
=
 OpenBabel11062418173D

 49 52  0  0  1  0  0  0  0  0999 V2000
  194.2260  171.5670  143.7050 C   0  0  2  0  0  3  0  0  0  0  0  0
  194.8080  172.6930  141.1880 O   0  0  0  0  0  1  0  0  0  0  0  0
  190.9230  172.8170  138.7030 C   0  0  0  0  0  0  0  0  0  0  0  0
  188.8380  174.1670  139.1600 C   0  0  0  0  0  0  0  0  0  0  0  0
  187.9290  174.6000  139.9830 N   0  0  0  0  0  0  0  0  0  0  0  0
  193.6840  170.4490  143.0410 O   0  0  0  0  0  0  0  0  0  0  0  0
  189.3180  173.6360  135.6170 O   0  0  0  0  0  0  0  0  0  0  0  0
  194.0440  170.4160  141.6650 C   0  0  1  0  0  3  0  0  0  0  0  0
  195.6390  171.2370  144.2060 C   0  0  2  0  0  3  0  0  0  0  0  0
  191.9260  171.4580  140.5620 C   0  0  1  0  0  3  0  0  0  0  0  0
  196.4770  171.1100  141.7920 C   0  0  0  0  0  3  0  0  0  0  0  0
  191.0290  172.4120  142.3590 C   0  0  0  0  0  2  0  0  0  0  0  0
  189.5090  173.5790  136.8580 C   0  0  0  0  0  0  0  0  0  0  0  0
  190.1880  173.7240  139.6580 C   0  0  0  0  0  2  0  0  0  0  0  0
  196.6790  171.0840  143.1180 C   0  0  0  0  0  3  0  0  0  0  0  0
  192.1570  172.4280  141.5400 O   0  0  0  0  0  0  0  0  0  0  0  0
  191.3790  173.0230  143.6980 C   0  0  1  0  0  3  0  0  0  0  0  0
  190.6460  172.8180  137.3950 C   0  0  0  0  0  3  0  0  0  0  0  0
  193.3520  171.9550  144.9110 C   0  0  2  0  0  3  0  0  0  0  0  0
  192.1280  172.0610  139.1750 C   0  0  0  0  0  2  0  0  0  0  0  0
  192.8350  170.2360  140.7400 C   0  0  0  0  0  2  0  0  0  0  0  0
  188.0610  174.5070  141.4070 C   0  0  0  0  0  0  0  0  0  0  0  0
  195.1570  171.3430  141.1210 C   0  0  2  0  0  3  0  0  0  0  0  0
  188.0390  173.3690  141.9520 O   0  0  0  0  0  0  0  0  0  0  0  0
  190.0720  175.1270  143.7340 C   0  0  0  0  0  2  0  0  0  0  0  0
  188.6230  175.5740  143.6150 C   0  0  0  0  0  2  0  0  0  0  0  0
  188.6020  174.2250  137.7530 N   0  0  0  0  0  2  0  0  0  0  0  0
  188.2450  175.6840  142.2090 N   0  0  0  0  0  0  0  0  0  0  0  0
  190.1510  173.7100  144.2680 C   0  0  0  0  0  2  0  0  0  0  0  0
  191.8410  171.9220  144.6410 C   0  0  0  0  0  2  0  0  0  0  0  0
  195.6050  170.0630  145.0070 O   0  0  0  0  0  0  0  0  0  0  0  0
  196.4830  168.8300  146.8150 C   0  0  0  0  0  0  0  0  0  0  0  0
  196.6520  169.7400  145.8660 C   0  0  0  0  0  3  0  0  0  0  0  0
  197.5670  168.5070  147.6810 N   0  0  0  0  0  1  0  0  0  0  0  0
  195.2510  168.1940  146.9590 O   0  0  0  0  0  0  0  0  0  0  0  0
  194.4030  168.5510  147.9330 O   0  0  0  0  0  1  0  0  0  0  0  0
  188.1450  177.0160  141.6230 C   0  0  0  0  0  2  0  0  0  0  0  0
  186.7240  177.5460  141.7630 C   0  0  2  0  0  3  0  0  0  0  0  0
  184.7420  177.9730  140.5110 O   0  0  0  0  0  1  0  0  0  0  0  0
  186.1270  177.8520  140.4000 C   0  0  0  0  0  2  0  0  0  0  0  0
  186.6450  178.7450  142.7130 C   0  0  0  0  0  2  0  0  0  0  0  0
  185.9420  179.2760  144.9340 O   0  0  0  0  0  1  0  0  0  0  0  0
  186.0050  178.4110  144.0250 C   0  0  0  0  0  0  0  0  0  0  0  0
  185.5020  177.1350  144.2470 O   0  0  0  0  0  0  0  0  0  0  0  0
  193.7910  173.2930  145.4970 C   0  0  0  0  0  2  0  0  0  0  0  0
  194.4010  174.1690  144.4190 C   0  0  0  0  0  2  0  0  0  0  0  0
  194.1630  175.6020  144.7390 C   0  0  0  0  0  0  0  0  0  0  0  0
  194.9340  176.2380  145.7040 O   0  0  0  0  0  1  0  0  0  0  0  0
  193.2820  176.2470  144.1140 O   0  0  0  0  0  0  0  0  0  0  0  0
  1  6  1  1  0  0  0
  1  9  1  0  0  0  0
  1 19  1  0  0  0  0
  3 20  1  0  0  0  0
  3 14  1  0  0  0  0
  4 14  1  0  0  0  0
  4  5  2  0  0  0  0
  5 22  1  0  0  0  0
  7 13  2  0  0  0  0
  8 21  1  6  0  0  0
  8  6  1  0  0  0  0
  9 31  1  6  0  0  0
 10 20  1  6  0  0  0
 10 21  1  0  0  0  0
 10 16  1  0  0  0  0
 11 15  2  0  0  0  0
 13 18  1  0  0  0  0
 13 27  1  0  0  0  0
 15  9  1  0  0  0  0
 16 12  1  0  0  0  0
 17 12  1  6  0  0  0
 17 29  1  0  0  0  0
 17 30  1  0  0  0  0
 18  3  2  0  0  0  0
 19 45  1  6  0  0  0
 22 24  2  0  0  0  0
 22 28  1  0  0  0  0
 23  2  1  1  0  0  0
 23  8  1  0  0  0  0
 23 11  1  0  0  0  0
 25 29  1  0  0  0  0
 26 25  1  0  0  0  0
 27  4  1  0  0  0  0
 28 26  1  0  0  0  0
 30 19  1  0  0  0  0
 31 33  1  0  0  0  0
 32 35  1  0  0  0  0
 32 34  1  0  0  0  0
 33 32  2  0  0  0  0
 35 36  1  0  0  0  0
 37 38  1  0  0  0  0
 37 28  1  0  0  0  0
 38 40  1  6  0  0  0
 38 41  1  0  0  0  0
 40 39  1  0  0  0  0
 41 43  1  0  0  0  0
 43 44  2  0  0  0  0
 43 42  1  0  0  0  0
 46 47  1  0  0  0  0
 46 45  1  0  0  0  0
 47 48  1  0  0  0  0
 49 47  2  0  0  0  0
M  END
>  <MODEL>
9

>  <REMARK>
 VINA RESULT:      -6.2      3.060      6.776
  Name = 
  11 active torsions:
  status: ('A' for Active; 'I' for Inactive)
    1  A    between atoms: C_5  and  O_22
    2  A    between atoms: C_10  and  O_21
    3  A    between atoms: C_12  and  O_21
    4  A    between atoms: C_20  and  C_24
    5  A    between atoms: C_23  and  C_31
    6  A    between atoms: C_23  and  C_33
    7  A    between atoms: C_23  and  C_49
    8  A    between atoms: C_24  and  C_38
    9  A    between atoms: C_27  and  C_38
   10  A    between atoms: C_28  and  C_49
   11  A    between atoms: C_33  and  N_44
                            x       y       z     vdW  Elec       q    Type
                         _______ _______ _______ _____ _____    ______ ____

>  <TORSDO>
F 11

$$$$
