=
 OpenBabel11072408463D

 36 38  0  0  1  0  0  0  0  0999 V2000
  189.0540  174.5820  142.1960 C   0  0  0  0  0  0  0  0  0  0  0  0
  188.0600  175.2470  141.4240 N   0  0  0  0  0  0  0  0  0  0  0  0
  189.1010  176.5570  146.0910 O   0  0  0  0  0  0  0  0  0  0  0  0
  189.8390  174.8750  144.6390 N   0  0  0  0  0  2  0  0  0  0  0  0
  187.5240  176.1020  142.2390 C   0  0  0  0  0  0  0  0  0  0  0  0
  189.8800  173.6210  141.7270 C   0  0  0  0  0  0  0  0  0  0  0  0
  189.8240  175.5450  145.9020 C   0  0  0  0  0  0  0  0  0  0  0  0
  188.0730  176.0910  143.5580 N   0  0  0  0  0  0  0  0  0  0  0  0
  188.9860  175.1800  143.5290 C   0  0  0  0  0  0  0  0  0  0  0  0
  190.8000  172.8980  142.6290 C   0  0  0  0  0  0  0  0  0  0  0  0
  190.3730  171.9440  143.3380 O   0  0  0  0  0  0  0  0  0  0  0  0
  192.1540  173.2380  142.6450 O   0  0  0  0  0  0  0  0  0  0  0  0
  192.5980  174.5590  142.3770 C   0  0  0  0  0  1  0  0  0  0  0  0
  190.7070  173.8100  139.5030 O   0  0  0  0  0  0  0  0  0  0  0  0
  189.8910  173.2500  140.2870 C   0  0  0  0  0  0  0  0  0  0  0  0
  187.9280  172.6670  139.0810 O   0  0  0  0  0  1  0  0  0  0  0  0
  189.0060  172.2980  139.7830 O   0  0  0  0  0  0  0  0  0  0  0  0
  186.3900  176.9980  141.8480 C   0  0  2  0  0  3  0  0  0  0  0  0
  186.2650  177.0070  140.4550 O   0  0  0  0  0  0  0  0  0  0  0  0
  185.2830  177.9640  140.1890 C   0  0  0  0  0  1  0  0  0  0  0  0
  187.9620  178.6950  142.5170 O   0  0  0  0  0  1  0  0  0  0  0  0
  186.5990  178.4210  142.3780 C   0  0  2  0  0  3  0  0  0  0  0  0
  183.6180  178.4960  142.9480 O   0  0  0  0  0  0  0  0  0  0  0  0
  185.7160  178.9330  147.1180 O   0  0  0  0  0  0  0  0  0  0  0  0
  186.5160  178.7300  144.8640 C   0  0  0  0  0  3  0  0  0  0  0  0
  184.4590  178.6110  143.8780 C   0  0  0  0  0  0  0  0  0  0  0  0
  185.4760  178.8270  145.8870 C   0  0  0  0  0  0  0  0  0  0  0  0
  185.9050  178.6190  143.6930 C   0  0  0  0  0  0  0  0  0  0  0  0
  184.1040  178.7630  145.3110 C   0  0  0  0  0  2  0  0  0  0  0  0
  190.7090  175.0590  146.9970 C   0  0  0  0  0  2  0  0  0  0  0  0
  192.7450  176.5190  146.9220 C   0  0  0  0  0  3  0  0  0  0  0  0
  194.8380  175.6960  146.0210 C   0  0  0  0  0  3  0  0  0  0  0  0
  194.2370  174.4620  145.7540 C   0  0  0  0  0  3  0  0  0  0  0  0
  192.8910  174.2550  146.0700 C   0  0  0  0  0  3  0  0  0  0  0  0
  194.0920  176.7250  146.6060 C   0  0  0  0  0  3  0  0  0  0  0  0
  192.1420  175.2850  146.6510 C   0  0  0  0  0  0  0  0  0  0  0  0
  1  9  1  0  0  0  0
  2  1  1  0  0  0  0
  2  5  2  0  0  0  0
  4  7  1  0  0  0  0
  5  8  1  0  0  0  0
  6  1  2  0  0  0  0
  6 10  1  0  0  0  0
  7  3  2  0  0  0  0
  7 30  1  0  0  0  0
  9  8  2  0  0  0  0
  9  4  1  0  0  0  0
 10 12  1  0  0  0  0
 10 11  2  0  0  0  0
 13 12  1  0  0  0  0
 14 15  2  0  0  0  0
 15  6  1  0  0  0  0
 16 17  1  0  0  0  0
 17 15  1  0  0  0  0
 18 19  1  6  0  0  0
 18  5  1  0  0  0  0
 18 22  1  0  0  0  0
 20 19  1  0  0  0  0
 22 21  1  1  0  0  0
 22 28  1  0  0  0  0
 23 26  2  0  0  0  0
 25 27  1  0  0  0  0
 26 29  1  0  0  0  0
 27 24  2  0  0  0  0
 28 26  1  0  0  0  0
 28 25  2  0  0  0  0
 29 27  1  0  0  0  0
 32 35  1  0  0  0  0
 33 32  2  0  0  0  0
 33 34  1  0  0  0  0
 34 36  2  0  0  0  0
 35 31  2  0  0  0  0
 36 31  1  0  0  0  0
 36 30  1  0  0  0  0
M  END
>  <MODEL>
1

>  <REMARK>
 VINA RESULT:      -7.4      0.000      0.000
  Name = 
  10 active torsions:
  status: ('A' for Active; 'I' for Inactive)
    1  A    between atoms: C_3  and  O_8
    2  A    between atoms: C_3  and  C_25
    3  A    between atoms: O_11  and  C_15
    4  A    between atoms: C_15  and  C_22
    5  A    between atoms: C_15  and  C_30
    6  A    between atoms: C_20  and  C_29
    7  A    between atoms: C_20  and  C_32
    8  A    between atoms: C_25  and  C_35
    9  A    between atoms: O_27  and  C_35
   10  A    between atoms: C_28  and  C_30
                            x       y       z     vdW  Elec       q    Type
                         _______ _______ _______ _____ _____    ______ ____

>  <TORSDO>
F 10

$$$$
=
 OpenBabel11072408463D

 36 38  0  0  1  0  0  0  0  0999 V2000
  190.8220  174.4900  141.8630 C   0  0  0  0  0  0  0  0  0  0  0  0
  192.2120  174.3620  142.1390 N   0  0  0  0  0  0  0  0  0  0  0  0
  189.4740  178.0520  144.0010 O   0  0  0  0  0  0  0  0  0  0  0  0
  189.0740  176.2670  142.5390 N   0  0  0  0  0  2  0  0  0  0  0  0
  192.5100  175.4140  142.8380 C   0  0  0  0  0  0  0  0  0  0  0  0
  190.0860  173.5890  141.1760 C   0  0  0  0  0  0  0  0  0  0  0  0
  188.6710  177.4400  143.2510 C   0  0  0  0  0  0  0  0  0  0  0  0
  191.4130  176.2960  143.0800 N   0  0  0  0  0  0  0  0  0  0  0  0
  190.4060  175.7420  142.4950 C   0  0  0  0  0  0  0  0  0  0  0  0
  188.6750  173.8600  140.8300 C   0  0  0  0  0  0  0  0  0  0  0  0
  187.7480  173.4310  141.5730 O   0  0  0  0  0  0  0  0  0  0  0  0
  188.3790  174.6400  139.7110 O   0  0  0  0  0  0  0  0  0  0  0  0
  188.2640  174.0750  138.4140 C   0  0  0  0  0  1  0  0  0  0  0  0
  191.3100  172.2320  139.6500 O   0  0  0  0  0  0  0  0  0  0  0  0
  190.6680  172.2930  140.7350 C   0  0  0  0  0  0  0  0  0  0  0  0
  190.0210  171.1980  142.7430 O   0  0  0  0  0  1  0  0  0  0  0  0
  190.5070  171.1370  141.4980 O   0  0  0  0  0  0  0  0  0  0  0  0
  193.8990  175.7080  143.3130 C   0  0  2  0  0  3  0  0  0  0  0  0
  194.8090  175.4340  142.2850 O   0  0  0  0  0  0  0  0  0  0  0  0
  195.9730  176.1150  142.6470 C   0  0  0  0  0  1  0  0  0  0  0  0
  194.0570  173.5280  144.3240 O   0  0  0  0  0  1  0  0  0  0  0  0
  194.2410  174.8920  144.5650 C   0  0  2  0  0  3  0  0  0  0  0  0
  194.5440  177.3630  146.3030 O   0  0  0  0  0  0  0  0  0  0  0  0
  190.7270  175.1550  147.8950 O   0  0  0  0  0  0  0  0  0  0  0  0
  192.3230  174.6860  146.1640 C   0  0  0  0  0  3  0  0  0  0  0  0
  193.6080  176.5440  146.4980 C   0  0  0  0  0  0  0  0  0  0  0  0
  191.7700  175.4720  147.2660 C   0  0  0  0  0  0  0  0  0  0  0  0
  193.4050  175.3180  145.7350 C   0  0  0  0  0  0  0  0  0  0  0  0
  192.5660  176.6990  147.5440 C   0  0  0  0  0  2  0  0  0  0  0  0
  187.2650  177.9190  143.1330 C   0  0  0  0  0  2  0  0  0  0  0  0
  185.9790  179.0930  144.9340 C   0  0  0  0  0  3  0  0  0  0  0  0
  185.3380  177.9390  146.9650 C   0  0  0  0  0  3  0  0  0  0  0  0
  185.9560  176.7750  146.4990 C   0  0  0  0  0  3  0  0  0  0  0  0
  186.5870  176.7690  145.2510 C   0  0  0  0  0  3  0  0  0  0  0  0
  185.3480  179.0980  146.1820 C   0  0  0  0  0  3  0  0  0  0  0  0
  186.6020  177.9300  144.4680 C   0  0  0  0  0  0  0  0  0  0  0  0
  1  2  1  0  0  0  0
  1  9  1  0  0  0  0
  2  5  2  0  0  0  0
  4  7  1  0  0  0  0
  5  8  1  0  0  0  0
  5 18  1  0  0  0  0
  6  1  2  0  0  0  0
  7  3  2  0  0  0  0
  9  4  1  0  0  0  0
  9  8  2  0  0  0  0
 10  6  1  0  0  0  0
 10 11  2  0  0  0  0
 12 10  1  0  0  0  0
 13 12  1  0  0  0  0
 14 15  2  0  0  0  0
 15  6  1  0  0  0  0
 15 17  1  0  0  0  0
 17 16  1  0  0  0  0
 18 19  1  6  0  0  0
 18 22  1  0  0  0  0
 19 20  1  0  0  0  0
 22 21  1  6  0  0  0
 22 28  1  0  0  0  0
 23 26  2  0  0  0  0
 25 27  1  0  0  0  0
 26 29  1  0  0  0  0
 27 29  1  0  0  0  0
 27 24  2  0  0  0  0
 28 25  2  0  0  0  0
 28 26  1  0  0  0  0
 30  7  1  0  0  0  0
 30 36  1  0  0  0  0
 31 35  1  0  0  0  0
 33 32  1  0  0  0  0
 34 33  2  0  0  0  0
 35 32  2  0  0  0  0
 36 31  2  0  0  0  0
 36 34  1  0  0  0  0
M  END
>  <MODEL>
2

>  <REMARK>
 VINA RESULT:      -7.3      2.162      6.587
  Name = 
  10 active torsions:
  status: ('A' for Active; 'I' for Inactive)
    1  A    between atoms: C_3  and  O_8
    2  A    between atoms: C_3  and  C_25
    3  A    between atoms: O_11  and  C_15
    4  A    between atoms: C_15  and  C_22
    5  A    between atoms: C_15  and  C_30
    6  A    between atoms: C_20  and  C_29
    7  A    between atoms: C_20  and  C_32
    8  A    between atoms: C_25  and  C_35
    9  A    between atoms: O_27  and  C_35
   10  A    between atoms: C_28  and  C_30
                            x       y       z     vdW  Elec       q    Type
                         _______ _______ _______ _____ _____    ______ ____

>  <TORSDO>
F 10

$$$$
=
 OpenBabel11072408463D

 36 38  0  0  1  0  0  0  0  0999 V2000
  190.4530  174.2350  142.7740 C   0  0  0  0  0  0  0  0  0  0  0  0
  191.7640  174.0740  143.3020 N   0  0  0  0  0  0  0  0  0  0  0  0
  188.8930  177.9430  144.4760 O   0  0  0  0  0  0  0  0  0  0  0  0
  188.6880  176.1010  143.0450 N   0  0  0  0  0  2  0  0  0  0  0  0
  191.9750  175.1500  143.9970 C   0  0  0  0  0  0  0  0  0  0  0  0
  189.8140  173.3260  142.0040 C   0  0  0  0  0  0  0  0  0  0  0  0
  188.2120  177.3200  143.6200 C   0  0  0  0  0  0  0  0  0  0  0  0
  190.8910  176.0790  143.9990 N   0  0  0  0  0  0  0  0  0  0  0  0
  189.9830  175.5300  143.2650 C   0  0  0  0  0  0  0  0  0  0  0  0
  188.5010  173.6250  141.3980 C   0  0  0  0  0  0  0  0  0  0  0  0
  187.4430  173.1860  141.9300 O   0  0  0  0  0  0  0  0  0  0  0  0
  188.4360  174.4430  140.2690 O   0  0  0  0  0  0  0  0  0  0  0  0
  188.5480  173.9180  138.9550 C   0  0  0  0  0  1  0  0  0  0  0  0
  190.2450  171.0510  142.5600 O   0  0  0  0  0  0  0  0  0  0  0  0
  190.4110  171.9910  141.7340 C   0  0  0  0  0  0  0  0  0  0  0  0
  190.6370  171.1170  139.5350 O   0  0  0  0  0  1  0  0  0  0  0  0
  191.1650  171.7600  140.5830 O   0  0  0  0  0  0  0  0  0  0  0  0
  193.2680  175.4210  144.7030 C   0  0  2  0  0  3  0  0  0  0  0  0
  193.0230  176.2040  145.8370 O   0  0  0  0  0  0  0  0  0  0  0  0
  192.6690  175.2900  146.8320 C   0  0  0  0  0  1  0  0  0  0  0  0
  193.7220  176.2800  142.4990 O   0  0  0  0  0  1  0  0  0  0  0  0
  194.2690  176.1200  143.7750 C   0  0  2  0  0  3  0  0  0  0  0  0
  197.0610  177.1630  143.1950 O   0  0  0  0  0  0  0  0  0  0  0  0
  197.5630  172.5670  143.9740 O   0  0  0  0  0  0  0  0  0  0  0  0
  195.6770  174.0510  143.9180 C   0  0  0  0  0  3  0  0  0  0  0  0
  196.8610  175.9430  143.4280 C   0  0  0  0  0  0  0  0  0  0  0  0
  197.0970  173.7230  143.8000 C   0  0  0  0  0  0  0  0  0  0  0  0
  195.5530  175.3500  143.6840 C   0  0  0  0  0  0  0  0  0  0  0  0
  197.9300  174.9130  143.4730 C   0  0  0  0  0  2  0  0  0  0  0  0
  186.8720  177.8390  143.2280 C   0  0  0  0  0  2  0  0  0  0  0  0
  185.9560  176.8360  145.3340 C   0  0  0  0  0  3  0  0  0  0  0  0
  184.2720  177.9920  146.6370 C   0  0  0  0  0  3  0  0  0  0  0  0
  184.2820  179.0440  145.7160 C   0  0  0  0  0  3  0  0  0  0  0  0
  185.1270  178.9930  144.6040 C   0  0  0  0  0  3  0  0  0  0  0  0
  185.1100  176.8880  146.4470 C   0  0  0  0  0  3  0  0  0  0  0  0
  185.9630  177.8870  144.4100 C   0  0  0  0  0  0  0  0  0  0  0  0
  1  9  1  0  0  0  0
  1  2  1  0  0  0  0
  2  5  2  0  0  0  0
  4  9  1  0  0  0  0
  4  7  1  0  0  0  0
  5  8  1  0  0  0  0
  5 18  1  0  0  0  0
  6  1  2  0  0  0  0
  7  3  2  0  0  0  0
  9  8  2  0  0  0  0
 10 11  2  0  0  0  0
 10  6  1  0  0  0  0
 12 10  1  0  0  0  0
 13 12  1  0  0  0  0
 15  6  1  0  0  0  0
 15 14  2  0  0  0  0
 16 17  1  0  0  0  0
 17 15  1  0  0  0  0
 18 19  1  1  0  0  0
 19 20  1  0  0  0  0
 22 21  1  6  0  0  0
 22 18  1  0  0  0  0
 23 26  2  0  0  0  0
 26 29  1  0  0  0  0
 26 28  1  0  0  0  0
 27 25  1  0  0  0  0
 27 24  2  0  0  0  0
 28 22  1  0  0  0  0
 28 25  2  0  0  0  0
 29 27  1  0  0  0  0
 30  7  1  0  0  0  0
 30 36  1  0  0  0  0
 31 35  1  0  0  0  0
 33 32  1  0  0  0  0
 34 33  2  0  0  0  0
 35 32  2  0  0  0  0
 36 34  1  0  0  0  0
 36 31  2  0  0  0  0
M  END
>  <MODEL>
3

>  <REMARK>
 VINA RESULT:      -7.1      2.525      7.787
  Name = 
  10 active torsions:
  status: ('A' for Active; 'I' for Inactive)
    1  A    between atoms: C_3  and  O_8
    2  A    between atoms: C_3  and  C_25
    3  A    between atoms: O_11  and  C_15
    4  A    between atoms: C_15  and  C_22
    5  A    between atoms: C_15  and  C_30
    6  A    between atoms: C_20  and  C_29
    7  A    between atoms: C_20  and  C_32
    8  A    between atoms: C_25  and  C_35
    9  A    between atoms: O_27  and  C_35
   10  A    between atoms: C_28  and  C_30
                            x       y       z     vdW  Elec       q    Type
                         _______ _______ _______ _____ _____    ______ ____

>  <TORSDO>
F 10

$$$$
=
 OpenBabel11072408463D

 36 38  0  0  1  0  0  0  0  0999 V2000
  190.7120  174.5480  141.8620 C   0  0  0  0  0  0  0  0  0  0  0  0
  192.1020  174.5200  142.1660 N   0  0  0  0  0  0  0  0  0  0  0  0
  189.0380  177.9100  144.0920 O   0  0  0  0  0  0  0  0  0  0  0  0
  188.8140  176.1550  142.5580 N   0  0  0  0  0  2  0  0  0  0  0  0
  192.2990  175.5660  142.9090 C   0  0  0  0  0  0  0  0  0  0  0  0
  190.0650  173.6190  141.1250 C   0  0  0  0  0  0  0  0  0  0  0  0
  188.3020  177.2650  143.3010 C   0  0  0  0  0  0  0  0  0  0  0  0
  191.1310  176.3490  143.1570 N   0  0  0  0  0  0  0  0  0  0  0  0
  190.1840  175.7390  142.5280 C   0  0  0  0  0  0  0  0  0  0  0  0
  188.6450  173.7890  140.7550 C   0  0  0  0  0  0  0  0  0  0  0  0
  187.7410  173.2340  141.4400 O   0  0  0  0  0  0  0  0  0  0  0  0
  188.3090  174.6150  139.6810 O   0  0  0  0  0  0  0  0  0  0  0  0
  188.2890  174.1350  138.3450 C   0  0  0  0  0  1  0  0  0  0  0  0
  191.4260  172.4200  139.5820 O   0  0  0  0  0  0  0  0  0  0  0  0
  190.7580  172.3900  140.6530 C   0  0  0  0  0  0  0  0  0  0  0  0
  191.2020  171.0940  142.5950 O   0  0  0  0  0  1  0  0  0  0  0  0
  190.6740  171.1970  141.3700 O   0  0  0  0  0  0  0  0  0  0  0  0
  193.6500  175.9510  143.4280 C   0  0  2  0  0  3  0  0  0  0  0  0
  194.6300  175.1950  142.7770 O   0  0  0  0  0  0  0  0  0  0  0  0
  195.3980  176.1300  142.0780 C   0  0  0  0  0  1  0  0  0  0  0  0
  194.4250  176.8130  145.5390 O   0  0  0  0  0  1  0  0  0  0  0  0
  193.7380  175.7510  144.9460 C   0  0  2  0  0  3  0  0  0  0  0  0
  192.5310  172.9680  145.0760 O   0  0  0  0  0  0  0  0  0  0  0  0
  197.0990  172.4110  145.9720 O   0  0  0  0  0  0  0  0  0  0  0  0
  195.7090  174.3170  145.5260 C   0  0  0  0  0  3  0  0  0  0  0  0
  193.7560  173.1540  145.2940 C   0  0  0  0  0  0  0  0  0  0  0  0
  195.9610  172.8910  145.7310 C   0  0  0  0  0  0  0  0  0  0  0  0
  194.4130  174.4560  145.2850 C   0  0  0  0  0  0  0  0  0  0  0  0
  194.7250  172.0710  145.6020 C   0  0  0  0  0  2  0  0  0  0  0  0
  186.8660  177.6350  143.1660 C   0  0  0  0  0  2  0  0  0  0  0  0
  185.8740  179.0960  144.9430 C   0  0  0  0  0  3  0  0  0  0  0  0
  185.0560  178.1550  147.0200 C   0  0  0  0  0  3  0  0  0  0  0  0
  185.4220  176.8780  146.5850 C   0  0  0  0  0  3  0  0  0  0  0  0
  186.0140  176.7090  145.3300 C   0  0  0  0  0  3  0  0  0  0  0  0
  185.2810  179.2640  146.1990 C   0  0  0  0  0  3  0  0  0  0  0  0
  186.2440  177.8180  144.5080 C   0  0  0  0  0  0  0  0  0  0  0  0
  1  2  1  0  0  0  0
  1  9  1  0  0  0  0
  2  5  2  0  0  0  0
  4  7  1  0  0  0  0
  5  8  1  0  0  0  0
  5 18  1  0  0  0  0
  6  1  2  0  0  0  0
  7  3  2  0  0  0  0
  9  4  1  0  0  0  0
  9  8  2  0  0  0  0
 10  6  1  0  0  0  0
 10 11  2  0  0  0  0
 12 10  1  0  0  0  0
 13 12  1  0  0  0  0
 14 15  2  0  0  0  0
 15  6  1  0  0  0  0
 15 17  1  0  0  0  0
 17 16  1  0  0  0  0
 18 19  1  6  0  0  0
 18 22  1  0  0  0  0
 20 19  1  0  0  0  0
 22 28  1  0  0  0  0
 22 21  1  1  0  0  0
 23 26  2  0  0  0  0
 25 27  1  0  0  0  0
 26 29  1  0  0  0  0
 27 24  2  0  0  0  0
 28 26  1  0  0  0  0
 28 25  2  0  0  0  0
 29 27  1  0  0  0  0
 30  7  1  0  0  0  0
 30 36  1  0  0  0  0
 31 35  1  0  0  0  0
 33 32  1  0  0  0  0
 34 33  2  0  0  0  0
 35 32  2  0  0  0  0
 36 31  2  0  0  0  0
 36 34  1  0  0  0  0
M  END
>  <MODEL>
4

>  <REMARK>
 VINA RESULT:      -7.0      2.280      7.328
  Name = 
  10 active torsions:
  status: ('A' for Active; 'I' for Inactive)
    1  A    between atoms: C_3  and  O_8
    2  A    between atoms: C_3  and  C_25
    3  A    between atoms: O_11  and  C_15
    4  A    between atoms: C_15  and  C_22
    5  A    between atoms: C_15  and  C_30
    6  A    between atoms: C_20  and  C_29
    7  A    between atoms: C_20  and  C_32
    8  A    between atoms: C_25  and  C_35
    9  A    between atoms: O_27  and  C_35
   10  A    between atoms: C_28  and  C_30
                            x       y       z     vdW  Elec       q    Type
                         _______ _______ _______ _____ _____    ______ ____

>  <TORSDO>
F 10

$$$$
=
 OpenBabel11072408463D

 36 38  0  0  1  0  0  0  0  0999 V2000
  191.3850  175.8280  144.9390 C   0  0  0  0  0  0  0  0  0  0  0  0
  190.0270  175.9990  144.5530 N   0  0  0  0  0  0  0  0  0  0  0  0
  193.5510  174.6840  141.3220 O   0  0  0  0  0  0  0  0  0  0  0  0
  193.5130  175.2480  143.5940 N   0  0  0  0  0  2  0  0  0  0  0  0
  190.0240  175.8310  143.2660 C   0  0  0  0  0  0  0  0  0  0  0  0
  191.8400  175.8920  146.2100 C   0  0  0  0  0  0  0  0  0  0  0  0
  194.1880  174.8780  142.3900 C   0  0  0  0  0  0  0  0  0  0  0  0
  191.3050  175.5500  142.7000 N   0  0  0  0  0  0  0  0  0  0  0  0
  192.1170  175.5500  143.7030 C   0  0  0  0  0  0  0  0  0  0  0  0
  193.2850  175.8230  146.5090 C   0  0  0  0  0  0  0  0  0  0  0  0
  193.8790  174.7080  146.5070 O   0  0  0  0  0  0  0  0  0  0  0  0
  193.9970  177.0020  146.7360 O   0  0  0  0  0  0  0  0  0  0  0  0
  194.8740  177.5460  145.7610 C   0  0  0  0  0  1  0  0  0  0  0  0
  190.2000  175.0580  147.7200 O   0  0  0  0  0  0  0  0  0  0  0  0
  190.9040  176.0400  147.3560 C   0  0  0  0  0  0  0  0  0  0  0  0
  191.5680  177.5390  149.0770 O   0  0  0  0  0  1  0  0  0  0  0  0
  190.7820  177.2530  148.0330 O   0  0  0  0  0  0  0  0  0  0  0  0
  188.7890  175.9670  142.4300 C   0  0  2  0  0  3  0  0  0  0  0  0
  188.9030  175.1550  141.2970 O   0  0  0  0  0  0  0  0  0  0  0  0
  188.1820  174.0010  141.6090 C   0  0  0  0  0  1  0  0  0  0  0  0
  189.6450  178.2180  142.3930 O   0  0  0  0  0  1  0  0  0  0  0  0
  188.5540  177.4270  142.0240 C   0  0  2  0  0  3  0  0  0  0  0  0
  185.8940  178.0310  140.6900 O   0  0  0  0  0  0  0  0  0  0  0  0
  185.2670  178.9540  145.2440 O   0  0  0  0  0  0  0  0  0  0  0  0
  187.1390  178.2140  143.9360 C   0  0  0  0  0  3  0  0  0  0  0  0
  186.0520  178.2010  141.9270 C   0  0  0  0  0  0  0  0  0  0  0  0
  185.7560  178.6500  144.1250 C   0  0  0  0  0  0  0  0  0  0  0  0
  187.3000  177.9680  142.6440 C   0  0  0  0  0  0  0  0  0  0  0  0
  184.9890  178.6730  142.8490 C   0  0  0  0  0  2  0  0  0  0  0  0
  195.6640  174.6800  142.4110 C   0  0  0  0  0  2  0  0  0  0  0  0
  196.8260  174.5180  144.6250 C   0  0  0  0  0  3  0  0  0  0  0  0
  196.8150  172.4530  145.8920 C   0  0  0  0  0  3  0  0  0  0  0  0
  196.0590  171.8410  144.8880 C   0  0  0  0  0  3  0  0  0  0  0  0
  195.6860  172.5660  143.7530 C   0  0  0  0  0  3  0  0  0  0  0  0
  197.1990  173.7920  145.7610 C   0  0  0  0  0  3  0  0  0  0  0  0
  196.0720  173.9050  143.6180 C   0  0  0  0  0  0  0  0  0  0  0  0
  1  6  2  0  0  0  0
  2  1  1  0  0  0  0
  3  7  2  0  0  0  0
  4  9  1  0  0  0  0
  5  2  2  0  0  0  0
  6 10  1  0  0  0  0
  6 15  1  0  0  0  0
  7 30  1  0  0  0  0
  7  4  1  0  0  0  0
  8  5  1  0  0  0  0
  8  9  2  0  0  0  0
  9  1  1  0  0  0  0
 10 12  1  0  0  0  0
 11 10  2  0  0  0  0
 13 12  1  0  0  0  0
 15 14  2  0  0  0  0
 15 17  1  0  0  0  0
 17 16  1  0  0  0  0
 18 19  1  6  0  0  0
 18  5  1  0  0  0  0
 19 20  1  0  0  0  0
 22 21  1  1  0  0  0
 22 18  1  0  0  0  0
 22 28  1  0  0  0  0
 23 26  2  0  0  0  0
 25 27  1  0  0  0  0
 26 28  1  0  0  0  0
 26 29  1  0  0  0  0
 27 24  2  0  0  0  0
 28 25  2  0  0  0  0
 29 27  1  0  0  0  0
 30 36  1  0  0  0  0
 31 35  1  0  0  0  0
 33 32  1  0  0  0  0
 34 33  2  0  0  0  0
 35 32  2  0  0  0  0
 36 34  1  0  0  0  0
 36 31  2  0  0  0  0
M  END
>  <MODEL>
5

>  <REMARK>
 VINA RESULT:      -7.0      2.412      5.018
  Name = 
  10 active torsions:
  status: ('A' for Active; 'I' for Inactive)
    1  A    between atoms: C_3  and  O_8
    2  A    between atoms: C_3  and  C_25
    3  A    between atoms: O_11  and  C_15
    4  A    between atoms: C_15  and  C_22
    5  A    between atoms: C_15  and  C_30
    6  A    between atoms: C_20  and  C_29
    7  A    between atoms: C_20  and  C_32
    8  A    between atoms: C_25  and  C_35
    9  A    between atoms: O_27  and  C_35
   10  A    between atoms: C_28  and  C_30
                            x       y       z     vdW  Elec       q    Type
                         _______ _______ _______ _____ _____    ______ ____

>  <TORSDO>
F 10

$$$$
=
 OpenBabel11072408463D

 36 38  0  0  1  0  0  0  0  0999 V2000
  190.4400  175.8190  142.7840 C   0  0  0  0  0  0  0  0  0  0  0  0
  190.7060  174.5680  142.1600 N   0  0  0  0  0  0  0  0  0  0  0  0
  186.3200  176.8460  141.7610 O   0  0  0  0  0  0  0  0  0  0  0  0
  188.3150  177.2820  142.9060 N   0  0  0  0  0  2  0  0  0  0  0  0
  189.5760  174.2180  141.6250 C   0  0  0  0  0  0  0  0  0  0  0  0
  191.3550  176.5620  143.4440 C   0  0  0  0  0  0  0  0  0  0  0  0
  186.9630  177.5830  142.5520 C   0  0  0  0  0  0  0  0  0  0  0  0
  188.5090  175.1450  141.8290 N   0  0  0  0  0  0  0  0  0  0  0  0
  189.0280  176.1000  142.5240 C   0  0  0  0  0  0  0  0  0  0  0  0
  190.9660  177.7900  144.1670 C   0  0  0  0  0  0  0  0  0  0  0  0
  191.2330  178.9240  143.6790 O   0  0  0  0  0  0  0  0  0  0  0  0
  190.2510  177.6870  145.3620 O   0  0  0  0  0  0  0  0  0  0  0  0
  190.5940  176.7390  146.3610 C   0  0  0  0  0  1  0  0  0  0  0  0
  193.5390  176.4640  142.5010 O   0  0  0  0  0  0  0  0  0  0  0  0
  192.7900  176.1700  143.4730 C   0  0  0  0  0  0  0  0  0  0  0  0
  194.1350  176.0720  145.4300 O   0  0  0  0  0  1  0  0  0  0  0  0
  193.3220  175.4690  144.5550 O   0  0  0  0  0  0  0  0  0  0  0  0
  189.3900  172.9260  140.8920 C   0  0  2  0  0  3  0  0  0  0  0  0
  188.2390  173.0030  140.1010 O   0  0  0  0  0  0  0  0  0  0  0  0
  188.6760  172.7210  138.8050 C   0  0  0  0  0  1  0  0  0  0  0  0
  188.8990  172.1880  143.1320 O   0  0  0  0  0  1  0  0  0  0  0  0
  189.2940  171.7460  141.8670 C   0  0  2  0  0  3  0  0  0  0  0  0
  190.5630  169.8530  139.8610 O   0  0  0  0  0  0  0  0  0  0  0  0
  193.6500  170.2380  143.3670 O   0  0  0  0  0  0  0  0  0  0  0  0
  191.4660  171.1470  142.9640 C   0  0  0  0  0  3  0  0  0  0  0  0
  191.1480  170.1450  140.9360 C   0  0  0  0  0  0  0  0  0  0  0  0
  192.6330  170.3310  142.6330 C   0  0  0  0  0  0  0  0  0  0  0  0
  190.6010  171.0180  141.9680 C   0  0  0  0  0  0  0  0  0  0  0  0
  192.4890  169.6400  141.3220 C   0  0  0  0  0  2  0  0  0  0  0  0
  186.3210  178.8120  143.0970 C   0  0  0  0  0  2  0  0  0  0  0  0
  184.5210  178.9030  144.8390 C   0  0  0  0  0  3  0  0  0  0  0  0
  184.9250  178.1120  147.0930 C   0  0  0  0  0  3  0  0  0  0  0  0
  186.2370  177.7820  146.7420 C   0  0  0  0  0  3  0  0  0  0  0  0
  186.6930  178.0120  145.4410 C   0  0  0  0  0  3  0  0  0  0  0  0
  184.0660  178.6720  146.1410 C   0  0  0  0  0  3  0  0  0  0  0  0
  185.8360  178.5760  144.4880 C   0  0  0  0  0  0  0  0  0  0  0  0
  1  6  2  0  0  0  0
  2  1  1  0  0  0  0
  3  7  2  0  0  0  0
  5  8  1  0  0  0  0
  5  2  2  0  0  0  0
  6 15  1  0  0  0  0
  6 10  1  0  0  0  0
  7  4  1  0  0  0  0
  7 30  1  0  0  0  0
  8  9  2  0  0  0  0
  9  1  1  0  0  0  0
  9  4  1  0  0  0  0
 10 12  1  0  0  0  0
 11 10  2  0  0  0  0
 12 13  1  0  0  0  0
 14 15  2  0  0  0  0
 15 17  1  0  0  0  0
 17 16  1  0  0  0  0
 18 19  1  1  0  0  0
 18  5  1  0  0  0  0
 18 22  1  0  0  0  0
 20 19  1  0  0  0  0
 22 28  1  0  0  0  0
 22 21  1  1  0  0  0
 23 26  2  0  0  0  0
 26 29  1  0  0  0  0
 26 28  1  0  0  0  0
 27 25  1  0  0  0  0
 27 24  2  0  0  0  0
 28 25  2  0  0  0  0
 29 27  1  0  0  0  0
 30 36  1  0  0  0  0
 31 35  1  0  0  0  0
 33 32  1  0  0  0  0
 34 33  2  0  0  0  0
 35 32  2  0  0  0  0
 36 31  2  0  0  0  0
 36 34  1  0  0  0  0
M  END
>  <MODEL>
6

>  <REMARK>
 VINA RESULT:      -6.8      2.236      7.473
  Name = 
  10 active torsions:
  status: ('A' for Active; 'I' for Inactive)
    1  A    between atoms: C_3  and  O_8
    2  A    between atoms: C_3  and  C_25
    3  A    between atoms: O_11  and  C_15
    4  A    between atoms: C_15  and  C_22
    5  A    between atoms: C_15  and  C_30
    6  A    between atoms: C_20  and  C_29
    7  A    between atoms: C_20  and  C_32
    8  A    between atoms: C_25  and  C_35
    9  A    between atoms: O_27  and  C_35
   10  A    between atoms: C_28  and  C_30
                            x       y       z     vdW  Elec       q    Type
                         _______ _______ _______ _____ _____    ______ ____

>  <TORSDO>
F 10

$$$$
=
 OpenBabel11072408463D

 36 38  0  0  1  0  0  0  0  0999 V2000
  189.2900  175.6610  142.7220 C   0  0  0  0  0  0  0  0  0  0  0  0
  189.6730  174.7820  141.6710 N   0  0  0  0  0  0  0  0  0  0  0  0
  185.7830  177.8330  141.2880 O   0  0  0  0  0  0  0  0  0  0  0  0
  187.3240  177.3170  142.9730 N   0  0  0  0  0  2  0  0  0  0  0  0
  188.7580  174.9340  140.7630 C   0  0  0  0  0  0  0  0  0  0  0  0
  189.9840  175.8420  143.8670 C   0  0  0  0  0  0  0  0  0  0  0  0
  186.1770  178.0060  142.4700 C   0  0  0  0  0  0  0  0  0  0  0  0
  187.7350  175.8720  141.1000 N   0  0  0  0  0  0  0  0  0  0  0  0
  188.0550  176.3040  142.2730 C   0  0  0  0  0  0  0  0  0  0  0  0
  189.4520  176.6830  144.9590 C   0  0  0  0  0  0  0  0  0  0  0  0
  189.8090  177.8900  145.0610 O   0  0  0  0  0  0  0  0  0  0  0  0
  188.5090  176.1500  145.8400 O   0  0  0  0  0  0  0  0  0  0  0  0
  188.8890  175.3550  146.9530 C   0  0  0  0  0  1  0  0  0  0  0  0
  192.3630  175.8250  143.7780 O   0  0  0  0  0  0  0  0  0  0  0  0
  191.3090  175.1980  144.0750 C   0  0  0  0  0  0  0  0  0  0  0  0
  191.8000  172.8880  143.8070 O   0  0  0  0  0  1  0  0  0  0  0  0
  191.4070  173.9040  144.5850 O   0  0  0  0  0  0  0  0  0  0  0  0
  188.7460  174.1560  139.4830 C   0  0  2  0  0  3  0  0  0  0  0  0
  187.8220  174.7280  138.6010 O   0  0  0  0  0  0  0  0  0  0  0  0
  188.3600  174.5120  137.3300 C   0  0  0  0  0  1  0  0  0  0  0  0
  187.7620  172.5330  140.9650 O   0  0  0  0  0  1  0  0  0  0  0  0
  188.4060  172.6820  139.7340 C   0  0  2  0  0  3  0  0  0  0  0  0
  189.7650  171.4270  137.3270 O   0  0  0  0  0  0  0  0  0  0  0  0
  192.4410  170.3180  141.0130 O   0  0  0  0  0  0  0  0  0  0  0  0
  190.3880  171.5330  140.7500 C   0  0  0  0  0  3  0  0  0  0  0  0
  190.2400  171.2890  138.4840 C   0  0  0  0  0  0  0  0  0  0  0  0
  191.5250  170.7520  140.2670 C   0  0  0  0  0  0  0  0  0  0  0  0
  189.6380  171.8280  139.6980 C   0  0  0  0  0  0  0  0  0  0  0  0
  191.4880  170.5470  138.7930 C   0  0  0  0  0  2  0  0  0  0  0  0
  185.4630  178.9750  143.3470 C   0  0  0  0  0  2  0  0  0  0  0  0
  185.1890  177.2020  145.0970 C   0  0  0  0  0  3  0  0  0  0  0  0
  185.6120  177.6790  147.4340 C   0  0  0  0  0  3  0  0  0  0  0  0
  185.9330  179.0000  147.1060 C   0  0  0  0  0  3  0  0  0  0  0  0
  185.8820  179.4230  145.7750 C   0  0  0  0  0  3  0  0  0  0  0  0
  185.2410  176.7800  146.4300 C   0  0  0  0  0  3  0  0  0  0  0  0
  185.5070  178.5250  144.7690 C   0  0  0  0  0  0  0  0  0  0  0  0
  1  6  2  0  0  0  0
  2  1  1  0  0  0  0
  3  7  2  0  0  0  0
  5  8  1  0  0  0  0
  5  2  2  0  0  0  0
  6 15  1  0  0  0  0
  6 10  1  0  0  0  0
  7  4  1  0  0  0  0
  7 30  1  0  0  0  0
  8  9  2  0  0  0  0
  9  1  1  0  0  0  0
  9  4  1  0  0  0  0
 10 11  2  0  0  0  0
 10 12  1  0  0  0  0
 12 13  1  0  0  0  0
 14 15  2  0  0  0  0
 15 17  1  0  0  0  0
 16 17  1  0  0  0  0
 18 19  1  6  0  0  0
 18 22  1  0  0  0  0
 18  5  1  0  0  0  0
 20 19  1  0  0  0  0
 22 21  1  1  0  0  0
 23 26  2  0  0  0  0
 26 29  1  0  0  0  0
 26 28  1  0  0  0  0
 27 25  1  0  0  0  0
 27 24  2  0  0  0  0
 28 22  1  0  0  0  0
 28 25  2  0  0  0  0
 29 27  1  0  0  0  0
 30 36  1  0  0  0  0
 31 35  1  0  0  0  0
 33 32  1  0  0  0  0
 34 33  2  0  0  0  0
 35 32  2  0  0  0  0
 36 31  2  0  0  0  0
 36 34  1  0  0  0  0
M  END
>  <MODEL>
7

>  <REMARK>
 VINA RESULT:      -6.8      2.221      7.183
  Name = 
  10 active torsions:
  status: ('A' for Active; 'I' for Inactive)
    1  A    between atoms: C_3  and  O_8
    2  A    between atoms: C_3  and  C_25
    3  A    between atoms: O_11  and  C_15
    4  A    between atoms: C_15  and  C_22
    5  A    between atoms: C_15  and  C_30
    6  A    between atoms: C_20  and  C_29
    7  A    between atoms: C_20  and  C_32
    8  A    between atoms: C_25  and  C_35
    9  A    between atoms: O_27  and  C_35
   10  A    between atoms: C_28  and  C_30
                            x       y       z     vdW  Elec       q    Type
                         _______ _______ _______ _____ _____    ______ ____

>  <TORSDO>
F 10

$$$$
=
 OpenBabel11072408463D

 36 38  0  0  1  0  0  0  0  0999 V2000
  189.6010  175.1130  143.0640 C   0  0  0  0  0  0  0  0  0  0  0  0
  190.6770  174.2720  142.6650 N   0  0  0  0  0  0  0  0  0  0  0  0
  190.4960  176.3950  147.1430 O   0  0  0  0  0  0  0  0  0  0  0  0
  189.1590  176.4630  145.2220 N   0  0  0  0  0  2  0  0  0  0  0  0
  191.5160  174.3160  143.6540 C   0  0  0  0  0  0  0  0  0  0  0  0
  188.4850  175.3360  142.3360 C   0  0  0  0  0  0  0  0  0  0  0  0
  189.4870  176.8630  146.5540 C   0  0  0  0  0  0  0  0  0  0  0  0
  191.1080  175.1440  144.7440 N   0  0  0  0  0  0  0  0  0  0  0  0
  189.9630  175.6200  144.3880 C   0  0  0  0  0  0  0  0  0  0  0  0
  187.4720  176.3200  142.7700 C   0  0  0  0  0  0  0  0  0  0  0  0
  186.3570  175.9260  143.2140 O   0  0  0  0  0  0  0  0  0  0  0  0
  187.7790  177.6810  142.7410 O   0  0  0  0  0  0  0  0  0  0  0  0
  188.5400  178.2550  141.6900 C   0  0  0  0  0  1  0  0  0  0  0  0
  188.1150  175.2460  139.9860 O   0  0  0  0  0  0  0  0  0  0  0  0
  188.2350  174.6030  141.0660 C   0  0  0  0  0  0  0  0  0  0  0  0
  188.0920  172.5420  139.8910 O   0  0  0  0  0  1  0  0  0  0  0  0
  188.1190  173.2140  141.0480 O   0  0  0  0  0  0  0  0  0  0  0  0
  192.8290  173.5970  143.6390 C   0  0  2  0  0  3  0  0  0  0  0  0
  192.9190  172.7700  144.7630 O   0  0  0  0  0  0  0  0  0  0  0  0
  192.4870  171.5170  144.3220 C   0  0  0  0  0  1  0  0  0  0  0  0
  194.3360  174.8980  142.2840 O   0  0  0  0  0  1  0  0  0  0  0  0
  194.0010  174.5850  143.6040 C   0  0  2  0  0  3  0  0  0  0  0  0
  195.0980  175.3440  146.3310 O   0  0  0  0  0  0  0  0  0  0  0  0
  197.8320  171.8620  144.7910 O   0  0  0  0  0  0  0  0  0  0  0  0
  195.9550  173.0390  143.8670 C   0  0  0  0  0  3  0  0  0  0  0  0
  195.6380  174.4380  145.6450 C   0  0  0  0  0  0  0  0  0  0  0  0
  196.9580  172.7610  144.8940 C   0  0  0  0  0  0  0  0  0  0  0  0
  195.2000  174.0320  144.3150 C   0  0  0  0  0  0  0  0  0  0  0  0
  196.8140  173.6460  146.0830 C   0  0  0  0  0  2  0  0  0  0  0  0
  188.5960  177.8180  147.2710 C   0  0  0  0  0  2  0  0  0  0  0  0
  186.8180  178.7930  145.7990 C   0  0  0  0  0  3  0  0  0  0  0  0
  184.6540  177.7260  145.5810 C   0  0  0  0  0  3  0  0  0  0  0  0
  185.0600  176.7230  146.4670 C   0  0  0  0  0  3  0  0  0  0  0  0
  186.3440  176.7540  147.0200 C   0  0  0  0  0  3  0  0  0  0  0  0
  185.5340  178.7600  145.2460 C   0  0  0  0  0  3  0  0  0  0  0  0
  187.2240  177.7910  146.6890 C   0  0  0  0  0  0  0  0  0  0  0  0
  1  9  1  0  0  0  0
  2  1  1  0  0  0  0
  2  5  2  0  0  0  0
  4  7  1  0  0  0  0
  5  8  1  0  0  0  0
  6 10  1  0  0  0  0
  6  1  2  0  0  0  0
  7  3  2  0  0  0  0
  7 30  1  0  0  0  0
  9  8  2  0  0  0  0
  9  4  1  0  0  0  0
 10 11  2  0  0  0  0
 12 10  1  0  0  0  0
 13 12  1  0  0  0  0
 14 15  2  0  0  0  0
 15  6  1  0  0  0  0
 16 17  1  0  0  0  0
 17 15  1  0  0  0  0
 18  5  1  0  0  0  0
 18 19  1  1  0  0  0
 20 19  1  0  0  0  0
 22 21  1  6  0  0  0
 22 18  1  0  0  0  0
 22 28  1  0  0  0  0
 24 27  2  0  0  0  0
 25 28  2  0  0  0  0
 25 27  1  0  0  0  0
 26 29  1  0  0  0  0
 26 23  2  0  0  0  0
 27 29  1  0  0  0  0
 28 26  1  0  0  0  0
 31 36  1  0  0  0  0
 32 33  2  0  0  0  0
 33 34  1  0  0  0  0
 35 32  1  0  0  0  0
 35 31  2  0  0  0  0
 36 34  2  0  0  0  0
 36 30  1  0  0  0  0
M  END
>  <MODEL>
8

>  <REMARK>
 VINA RESULT:      -6.7      2.358      7.593
  Name = 
  10 active torsions:
  status: ('A' for Active; 'I' for Inactive)
    1  A    between atoms: C_3  and  O_8
    2  A    between atoms: C_3  and  C_25
    3  A    between atoms: O_11  and  C_15
    4  A    between atoms: C_15  and  C_22
    5  A    between atoms: C_15  and  C_30
    6  A    between atoms: C_20  and  C_29
    7  A    between atoms: C_20  and  C_32
    8  A    between atoms: C_25  and  C_35
    9  A    between atoms: O_27  and  C_35
   10  A    between atoms: C_28  and  C_30
                            x       y       z     vdW  Elec       q    Type
                         _______ _______ _______ _____ _____    ______ ____

>  <TORSDO>
F 10

$$$$
=
 OpenBabel11072408463D

 36 38  0  0  1  0  0  0  0  0999 V2000
  190.5960  175.5440  142.8620 C   0  0  0  0  0  0  0  0  0  0  0  0
  190.8570  174.2780  142.2670 N   0  0  0  0  0  0  0  0  0  0  0  0
  186.5750  176.6860  141.5970 O   0  0  0  0  0  0  0  0  0  0  0  0
  188.5150  177.0730  142.8490 N   0  0  0  0  0  2  0  0  0  0  0  0
  189.7490  173.9570  141.6720 C   0  0  0  0  0  0  0  0  0  0  0  0
  191.4960  176.2660  143.5660 C   0  0  0  0  0  0  0  0  0  0  0  0
  187.1950  177.4120  142.4160 C   0  0  0  0  0  0  0  0  0  0  0  0
  188.7020  174.9190  141.8060 N   0  0  0  0  0  0  0  0  0  0  0  0
  189.2110  175.8660  142.5200 C   0  0  0  0  0  0  0  0  0  0  0  0
  191.1050  177.5140  144.2530 C   0  0  0  0  0  0  0  0  0  0  0  0
  191.4200  178.6330  143.7600 O   0  0  0  0  0  0  0  0  0  0  0  0
  190.3380  177.4460  145.4170 O   0  0  0  0  0  0  0  0  0  0  0  0
  190.8050  176.7860  146.5840 C   0  0  0  0  0  1  0  0  0  0  0  0
  193.7330  176.1180  142.7640 O   0  0  0  0  0  0  0  0  0  0  0  0
  192.9130  175.8300  143.6800 C   0  0  0  0  0  0  0  0  0  0  0  0
  192.6190  174.0900  145.2730 O   0  0  0  0  0  1  0  0  0  0  0  0
  193.3530  175.0950  144.7810 O   0  0  0  0  0  0  0  0  0  0  0  0
  189.5640  172.6630  140.9420 C   0  0  2  0  0  3  0  0  0  0  0  0
  190.7390  171.9080  141.0300 O   0  0  0  0  0  0  0  0  0  0  0  0
  190.4450  170.8920  141.9410 C   0  0  0  0  0  1  0  0  0  0  0  0
  187.8270  172.6550  139.2740 O   0  0  0  0  0  1  0  0  0  0  0  0
  189.1870  172.9020  139.4750 C   0  0  2  0  0  3  0  0  0  0  0  0
  191.8570  173.5260  138.1720 O   0  0  0  0  0  0  0  0  0  0  0  0
  190.8160  169.1380  136.8910 O   0  0  0  0  0  0  0  0  0  0  0  0
  189.6950  170.7970  138.2150 C   0  0  0  0  0  3  0  0  0  0  0  0
  191.2950  172.4130  137.9990 C   0  0  0  0  0  0  0  0  0  0  0  0
  190.7860  170.2970  137.3790 C   0  0  0  0  0  0  0  0  0  0  0  0
  190.0010  172.0400  138.5580 C   0  0  0  0  0  0  0  0  0  0  0  0
  191.8650  171.3060  137.1900 C   0  0  0  0  0  2  0  0  0  0  0  0
  186.5620  178.6660  142.9120 C   0  0  0  0  0  2  0  0  0  0  0  0
  186.1600  177.3220  144.9880 C   0  0  0  0  0  3  0  0  0  0  0  0
  184.4330  177.9500  146.5660 C   0  0  0  0  0  3  0  0  0  0  0  0
  184.0930  179.0410  145.7600 C   0  0  0  0  0  3  0  0  0  0  0  0
  184.7860  179.2730  144.5680 C   0  0  0  0  0  3  0  0  0  0  0  0
  185.4670  177.0910  146.1810 C   0  0  0  0  0  3  0  0  0  0  0  0
  185.8180  178.4110  144.1790 C   0  0  0  0  0  0  0  0  0  0  0  0
  1  6  2  0  0  0  0
  2  1  1  0  0  0  0
  3  7  2  0  0  0  0
  5  8  1  0  0  0  0
  5  2  2  0  0  0  0
  6 15  1  0  0  0  0
  6 10  1  0  0  0  0
  7  4  1  0  0  0  0
  7 30  1  0  0  0  0
  8  9  2  0  0  0  0
  9  4  1  0  0  0  0
  9  1  1  0  0  0  0
 10 12  1  0  0  0  0
 11 10  2  0  0  0  0
 12 13  1  0  0  0  0
 14 15  2  0  0  0  0
 15 17  1  0  0  0  0
 17 16  1  0  0  0  0
 18 19  1  6  0  0  0
 18  5  1  0  0  0  0
 19 20  1  0  0  0  0
 22 21  1  1  0  0  0
 22 18  1  0  0  0  0
 24 27  2  0  0  0  0
 25 28  2  0  0  0  0
 26 23  2  0  0  0  0
 26 28  1  0  0  0  0
 27 25  1  0  0  0  0
 28 22  1  0  0  0  0
 29 27  1  0  0  0  0
 29 26  1  0  0  0  0
 30 36  1  0  0  0  0
 31 35  1  0  0  0  0
 33 32  1  0  0  0  0
 34 33  2  0  0  0  0
 35 32  2  0  0  0  0
 36 34  1  0  0  0  0
 36 31  2  0  0  0  0
M  END
>  <MODEL>
9

>  <REMARK>
 VINA RESULT:      -6.7      2.268      7.848
  Name = 
  10 active torsions:
  status: ('A' for Active; 'I' for Inactive)
    1  A    between atoms: C_3  and  O_8
    2  A    between atoms: C_3  and  C_25
    3  A    between atoms: O_11  and  C_15
    4  A    between atoms: C_15  and  C_22
    5  A    between atoms: C_15  and  C_30
    6  A    between atoms: C_20  and  C_29
    7  A    between atoms: C_20  and  C_32
    8  A    between atoms: C_25  and  C_35
    9  A    between atoms: O_27  and  C_35
   10  A    between atoms: C_28  and  C_30
                            x       y       z     vdW  Elec       q    Type
                         _______ _______ _______ _____ _____    ______ ____

>  <TORSDO>
F 10

$$$$
