=
 OpenBabel11062420553D

 31 36  0  0  1  0  0  0  0  0999 V2000
  191.6850  173.4680  142.4970 C   0  0  1  0  0  3  0  0  0  0  0  0
  190.0010  174.8930  142.6770 N   0  0  0  0  0  0  0  0  0  0  0  0
  190.1420  173.8030  140.5390 C   0  0  0  0  0  0  0  0  0  0  0  0
  190.7530  173.9780  143.5540 C   0  0  2  0  0  3  0  0  0  0  0  0
  190.9500  174.4440  141.6400 C   0  0  2  0  0  3  0  0  0  0  0  0
  191.2910  171.9360  139.6340 O   0  0  0  0  0  0  0  0  0  0  0  0
  188.0270  174.7410  141.3920 C   0  0  0  0  0  3  0  0  0  0  0  0
  191.5580  174.7720  144.5750 C   0  0  0  0  0  2  0  0  0  0  0  0
  193.0170  174.5580  144.2220 C   0  0  1  0  0  3  0  0  0  0  0  0
  193.0710  174.0040  142.8090 C   0  0  0  0  0  2  0  0  0  0  0  0
  188.8430  174.0050  140.3960 C   0  0  0  0  0  0  0  0  0  0  0  0
  189.5060  172.8640  138.4130 N   0  0  0  0  0  0  0  0  0  0  0  0
  192.0070  172.9100  138.9060 C   0  0  0  0  0  2  0  0  0  0  0  0
  190.6100  173.1260  139.3280 C   0  0  1  0  0  0  0  0  0  0  0  0
  188.6120  175.1770  142.5190 C   0  0  0  0  0  0  0  0  0  0  0  0
  188.3390  173.4280  139.1130 C   0  0  0  0  0  3  0  0  0  0  0  0
  186.5280  176.8750  145.8940 C   0  0  0  0  0  2  0  0  0  0  0  0
  187.3150  177.1490  143.5250 C   0  0  0  0  0  0  0  0  0  0  0  0
  186.0840  179.0210  144.6660 C   0  0  0  0  0  2  0  0  0  0  0  0
  187.8890  175.8350  143.5700 N   0  0  0  0  0  2  0  0  0  0  0  0
  184.6350  178.3540  146.5930 C   0  0  0  0  0  2  0  0  0  0  0  0
  185.1100  176.9110  146.4570 C   0  0  0  0  0  2  0  0  0  0  0  0
  187.4400  177.8680  142.4950 O   0  0  0  0  0  0  0  0  0  0  0  0
  184.6680  179.0470  145.2330 C   0  0  0  0  0  2  0  0  0  0  0  0
  186.5890  177.6490  144.6560 N   0  0  0  0  0  0  0  0  0  0  0  0
  193.8140  175.7790  144.3750 N   0  0  0  0  0  2  0  0  0  0  0  0
  193.1780  176.7060  145.3090 C   0  0  0  0  0  2  0  0  0  0  0  0
  194.7330  175.6770  146.7850 F   0  0  0  0  0  0  0  0  0  0  0  0
  194.8840  177.8960  146.4310 F   0  0  0  0  0  0  0  0  0  0  0  0
  194.0100  176.8370  146.5730 C   0  0  0  0  0  0  0  0  0  0  0  0
  193.1850  177.0730  147.6580 F   0  0  0  0  0  0  0  0  0  0  0  0
  1 10  1  1  0  0  0
  1  4  1  0  0  0  0
  2  4  1  0  0  0  0
  4  8  1  1  0  0  0
  5  3  1  6  0  0  0
  5  1  1  0  0  0  0
  5  2  1  0  0  0  0
  7 15  2  0  0  0  0
  9 26  1  6  0  0  0
  9  8  1  0  0  0  0
 10  9  1  0  0  0  0
 11  3  2  0  0  0  0
 11  7  1  0  0  0  0
 12 16  2  0  0  0  0
 12 14  1  0  0  0  0
 13  6  1  0  0  0  0
 14 13  1  6  0  0  0
 14  6  1  0  0  0  0
 14  3  1  0  0  0  0
 15  2  1  0  0  0  0
 15 20  1  0  0  0  0
 16 11  1  0  0  0  0
 17 22  1  0  0  0  0
 18 20  1  0  0  0  0
 18 25  1  0  0  0  0
 19 24  1  0  0  0  0
 22 21  1  0  0  0  0
 23 18  2  0  0  0  0
 24 21  1  0  0  0  0
 25 19  1  0  0  0  0
 25 17  1  0  0  0  0
 26 27  1  0  0  0  0
 27 30  1  0  0  0  0
 29 30  1  0  0  0  0
 30 28  1  0  0  0  0
 30 31  1  0  0  0  0
M  END
>  <MODEL>
1

>  <REMARK>
 VINA RESULT:      -7.7      0.000      0.000
  Name = 
  4 active torsions:
  status: ('A' for Active; 'I' for Inactive)
    1  A    between atoms: N_9  and  C_17
    2  A    between atoms: N_9  and  C_23
    3  A    between atoms: N_12  and  C_30
    4  A    between atoms: C_16  and  C_17
                            x       y       z     vdW  Elec       q    Type
                         _______ _______ _______ _____ _____    ______ ____

>  <TORSDO>
F 4

$$$$
=
 OpenBabel11062420553D

 31 36  0  0  1  0  0  0  0  0999 V2000
  192.1250  174.7510  142.6220 C   0  0  1  0  0  3  0  0  0  0  0  0
  190.5420  175.4270  144.0130 N   0  0  0  0  0  0  0  0  0  0  0  0
  192.7320  175.3150  144.9980 C   0  0  0  0  0  0  0  0  0  0  0  0
  190.8410  175.5220  142.5730 C   0  0  2  0  0  3  0  0  0  0  0  0
  191.7730  174.6150  144.0660 C   0  0  2  0  0  3  0  0  0  0  0  0
  194.9610  175.1110  144.2120 O   0  0  0  0  0  0  0  0  0  0  0  0
  190.9630  176.7720  145.9060 C   0  0  0  0  0  3  0  0  0  0  0  0
  189.8210  174.7250  141.7710 C   0  0  0  0  0  2  0  0  0  0  0  0
  190.5780  173.5570  141.1680 C   0  0  1  0  0  3  0  0  0  0  0  0
  191.8940  173.4280  141.9140 C   0  0  0  0  0  2  0  0  0  0  0  0
  192.3420  176.2280  145.8710 C   0  0  0  0  0  0  0  0  0  0  0  0
  194.6050  175.7580  146.4460 N   0  0  0  0  0  0  0  0  0  0  0  0
  194.9020  173.8320  144.8040 C   0  0  0  0  0  2  0  0  0  0  0  0
  194.1170  174.9670  145.3250 C   0  0  1  0  0  0  0  0  0  0  0  0
  190.0780  176.3670  144.9810 C   0  0  0  0  0  0  0  0  0  0  0  0
  193.4500  176.5990  146.8030 C   0  0  0  0  0  3  0  0  0  0  0  0
  186.1650  178.0870  144.3980 C   0  0  0  0  0  2  0  0  0  0  0  0
  187.6530  176.6110  145.7820 C   0  0  0  0  0  0  0  0  0  0  0  0
  185.2360  176.8990  146.4070 C   0  0  0  0  0  2  0  0  0  0  0  0
  188.7450  176.8900  144.8940 N   0  0  0  0  0  2  0  0  0  0  0  0
  184.1310  178.9740  145.5540 C   0  0  0  0  0  2  0  0  0  0  0  0
  185.4030  179.3480  144.7990 C   0  0  0  0  0  2  0  0  0  0  0  0
  187.8020  175.8140  146.7480 O   0  0  0  0  0  0  0  0  0  0  0  0
  184.4780  178.1630  146.7990 C   0  0  0  0  0  2  0  0  0  0  0  0
  186.3850  177.2470  145.5740 N   0  0  0  0  0  0  0  0  0  0  0  0
  189.7980  172.3150  141.1900 N   0  0  0  0  0  2  0  0  0  0  0  0
  190.2100  171.4190  140.1110 C   0  0  0  0  0  2  0  0  0  0  0  0
  190.0370  172.5510  138.0270 F   0  0  0  0  0  0  0  0  0  0  0  0
  189.1810  170.4760  138.2040 F   0  0  0  0  0  0  0  0  0  0  0  0
  189.3770  171.6710  138.8660 C   0  0  0  0  0  0  0  0  0  0  0  0
  188.1490  172.2010  139.2190 F   0  0  0  0  0  0  0  0  0  0  0  0
  1 10  1  6  0  0  0
  1  5  1  0  0  0  0
  2  5  1  0  0  0  0
  2 15  1  0  0  0  0
  3 14  1  0  0  0  0
  3 11  2  0  0  0  0
  4  8  1  6  0  0  0
  4  1  1  0  0  0  0
  4  2  1  0  0  0  0
  5  3  1  1  0  0  0
  6 13  1  0  0  0  0
  6 14  1  0  0  0  0
  9 26  1  1  0  0  0
  9  8  1  0  0  0  0
  9 10  1  0  0  0  0
 11  7  1  0  0  0  0
 11 16  1  0  0  0  0
 12 16  2  0  0  0  0
 14 13  1  1  0  0  0
 14 12  1  0  0  0  0
 15  7  2  0  0  0  0
 17 22  1  0  0  0  0
 17 25  1  0  0  0  0
 18 23  2  0  0  0  0
 19 24  1  0  0  0  0
 20 15  1  0  0  0  0
 20 18  1  0  0  0  0
 21 24  1  0  0  0  0
 22 21  1  0  0  0  0
 25 18  1  0  0  0  0
 25 19  1  0  0  0  0
 27 26  1  0  0  0  0
 28 30  1  0  0  0  0
 29 30  1  0  0  0  0
 30 31  1  0  0  0  0
 30 27  1  0  0  0  0
M  END
>  <MODEL>
2

>  <REMARK>
 VINA RESULT:      -7.6      3.923      6.089
  Name = 
  4 active torsions:
  status: ('A' for Active; 'I' for Inactive)
    1  A    between atoms: N_9  and  C_17
    2  A    between atoms: N_9  and  C_23
    3  A    between atoms: N_12  and  C_30
    4  A    between atoms: C_16  and  C_17
                            x       y       z     vdW  Elec       q    Type
                         _______ _______ _______ _____ _____    ______ ____

>  <TORSDO>
F 4

$$$$
=
 OpenBabel11062420553D

 31 36  0  0  1  0  0  0  0  0999 V2000
  192.1030  174.5530  142.6750 C   0  0  1  0  0  3  0  0  0  0  0  0
  190.5550  175.3250  144.0560 N   0  0  0  0  0  0  0  0  0  0  0  0
  192.7650  175.2500  145.0000 C   0  0  0  0  0  0  0  0  0  0  0  0
  190.8250  175.3330  142.6060 C   0  0  2  0  0  3  0  0  0  0  0  0
  191.7800  174.5060  144.1320 C   0  0  2  0  0  3  0  0  0  0  0  0
  194.9750  174.9790  144.1830 O   0  0  0  0  0  0  0  0  0  0  0  0
  191.0270  176.7750  145.8570 C   0  0  0  0  0  3  0  0  0  0  0  0
  189.7810  174.5000  141.8740 C   0  0  0  0  0  2  0  0  0  0  0  0
  190.5160  173.2910  141.3260 C   0  0  1  0  0  3  0  0  0  0  0  0
  191.8460  173.1930  142.0510 C   0  0  0  0  0  2  0  0  0  0  0  0
  192.4010  176.2160  145.8260 C   0  0  0  0  0  0  0  0  0  0  0  0
  194.6710  175.7590  146.3820 N   0  0  0  0  0  0  0  0  0  0  0  0
  194.9170  173.7370  144.8500 C   0  0  0  0  0  2  0  0  0  0  0  0
  194.1520  174.9080  145.3190 C   0  0  1  0  0  0  0  0  0  0  0  0
  190.1200  176.3250  144.9760 C   0  0  0  0  0  0  0  0  0  0  0  0
  193.5300  176.6300  146.7120 C   0  0  0  0  0  3  0  0  0  0  0  0
  186.2160  178.0630  144.3820 C   0  0  0  0  0  2  0  0  0  0  0  0
  187.6960  176.5870  145.7740 C   0  0  0  0  0  0  0  0  0  0  0  0
  185.2790  176.8900  146.3960 C   0  0  0  0  0  2  0  0  0  0  0  0
  188.7900  176.8550  144.8850 N   0  0  0  0  0  2  0  0  0  0  0  0
  184.1870  178.9680  145.5320 C   0  0  0  0  0  2  0  0  0  0  0  0
  185.4610  179.3310  144.7760 C   0  0  0  0  0  2  0  0  0  0  0  0
  187.8390  175.7930  146.7440 O   0  0  0  0  0  0  0  0  0  0  0  0
  184.5290  178.1610  146.7820 C   0  0  0  0  0  2  0  0  0  0  0  0
  186.4310  177.2280  145.5620 N   0  0  0  0  0  0  0  0  0  0  0  0
  189.7260  172.0600  141.4370 N   0  0  0  0  0  2  0  0  0  0  0  0
  190.4300  171.0560  142.2320 C   0  0  0  0  0  2  0  0  0  0  0  0
  190.3750  170.0640  140.0720 F   0  0  0  0  0  0  0  0  0  0  0  0
  192.2390  169.8410  141.3170 F   0  0  0  0  0  0  0  0  0  0  0  0
  190.8600  169.8920  141.3560 C   0  0  0  0  0  0  0  0  0  0  0  0
  190.3760  168.7050  141.8790 F   0  0  0  0  0  0  0  0  0  0  0  0
  1 10  1  6  0  0  0
  1  5  1  0  0  0  0
  2  5  1  0  0  0  0
  2 15  1  0  0  0  0
  3 14  1  0  0  0  0
  3 11  2  0  0  0  0
  4  8  1  6  0  0  0
  4  1  1  0  0  0  0
  4  2  1  0  0  0  0
  5  3  1  1  0  0  0
  6 13  1  0  0  0  0
  6 14  1  0  0  0  0
  9 26  1  1  0  0  0
  9  8  1  0  0  0  0
  9 10  1  0  0  0  0
 11  7  1  0  0  0  0
 11 16  1  0  0  0  0
 12 16  2  0  0  0  0
 14 13  1  1  0  0  0
 14 12  1  0  0  0  0
 15  7  2  0  0  0  0
 17 22  1  0  0  0  0
 17 25  1  0  0  0  0
 18 23  2  0  0  0  0
 19 24  1  0  0  0  0
 20 15  1  0  0  0  0
 20 18  1  0  0  0  0
 21 24  1  0  0  0  0
 22 21  1  0  0  0  0
 25 18  1  0  0  0  0
 25 19  1  0  0  0  0
 26 27  1  0  0  0  0
 28 30  1  0  0  0  0
 29 30  1  0  0  0  0
 30 31  1  0  0  0  0
 30 27  1  0  0  0  0
M  END
>  <MODEL>
3

>  <REMARK>
 VINA RESULT:      -7.6      3.573      5.768
  Name = 
  4 active torsions:
  status: ('A' for Active; 'I' for Inactive)
    1  A    between atoms: N_9  and  C_17
    2  A    between atoms: N_9  and  C_23
    3  A    between atoms: N_12  and  C_30
    4  A    between atoms: C_16  and  C_17
                            x       y       z     vdW  Elec       q    Type
                         _______ _______ _______ _____ _____    ______ ____

>  <TORSDO>
F 4

$$$$
=
 OpenBabel11062420553D

 31 36  0  0  1  0  0  0  0  0999 V2000
  188.6610  178.0130  144.3710 C   0  0  1  0  0  3  0  0  0  0  0  0
  188.1720  176.4220  142.9130 N   0  0  0  0  0  0  0  0  0  0  0  0
  186.2820  177.7400  143.5990 C   0  0  0  0  0  0  0  0  0  0  0  0
  189.3100  177.3070  143.2200 C   0  0  2  0  0  3  0  0  0  0  0  0
  187.5440  177.0670  144.0820 C   0  0  2  0  0  3  0  0  0  0  0  0
  185.9410  179.7940  144.7360 O   0  0  0  0  0  0  0  0  0  0  0  0
  186.3160  176.5190  141.4570 C   0  0  0  0  0  3  0  0  0  0  0  0
  190.4840  176.4910  143.7440 C   0  0  0  0  0  2  0  0  0  0  0  0
  190.6520  176.8810  145.2000 C   0  0  1  0  0  3  0  0  0  0  0  0
  189.3790  177.5830  145.6380 C   0  0  0  0  0  2  0  0  0  0  0  0
  185.7010  177.4300  142.4520 C   0  0  0  0  0  0  0  0  0  0  0  0
  184.1360  178.8330  143.5730 N   0  0  0  0  0  0  0  0  0  0  0  0
  185.4290  178.9760  145.7650 C   0  0  0  0  0  2  0  0  0  0  0  0
  185.3460  178.5830  144.3450 C   0  0  1  0  0  0  0  0  0  0  0  0
  187.5420  176.0240  141.6960 C   0  0  0  0  0  0  0  0  0  0  0  0
  184.3660  178.0890  142.3230 C   0  0  0  0  0  3  0  0  0  0  0  0
  189.6100  173.7910  138.6390 C   0  0  0  0  0  2  0  0  0  0  0  0
  188.8980  173.9470  141.0420 C   0  0  0  0  0  0  0  0  0  0  0  0
  190.2840  171.9990  140.2650 C   0  0  0  0  0  2  0  0  0  0  0  0
  188.2440  175.1930  140.7610 N   0  0  0  0  0  2  0  0  0  0  0  0
  190.1800  171.4970  137.8170 C   0  0  0  0  0  2  0  0  0  0  0  0
  189.2920  172.7190  137.5990 C   0  0  0  0  0  2  0  0  0  0  0  0
  188.9180  173.4850  142.2160 O   0  0  0  0  0  0  0  0  0  0  0  0
  189.9640  170.9360  139.2200 C   0  0  0  0  0  2  0  0  0  0  0  0
  189.5290  173.2180  139.9810 N   0  0  0  0  0  0  0  0  0  0  0  0
  190.9790  175.7320  146.0520 N   0  0  0  0  0  2  0  0  0  0  0  0
  190.1800  175.7440  147.2760 C   0  0  0  0  0  2  0  0  0  0  0  0
  189.3160  173.7940  146.2240 F   0  0  0  0  0  0  0  0  0  0  0  0
  188.8170  174.1660  148.3880 F   0  0  0  0  0  0  0  0  0  0  0  0
  189.0230  174.7670  147.1620 C   0  0  0  0  0  0  0  0  0  0  0  0
  187.8730  175.4390  146.7880 F   0  0  0  0  0  0  0  0  0  0  0  0
  1 10  1  1  0  0  0
  2  4  1  0  0  0  0
  2  5  1  0  0  0  0
  3 14  1  0  0  0  0
  4  8  1  1  0  0  0
  4  1  1  0  0  0  0
  5  3  1  6  0  0  0
  5  1  1  0  0  0  0
  6 13  1  0  0  0  0
  7 15  2  0  0  0  0
  7 11  1  0  0  0  0
  8  9  1  0  0  0  0
  9 10  1  0  0  0  0
  9 26  1  1  0  0  0
 11  3  2  0  0  0  0
 12 14  1  0  0  0  0
 14  6  1  0  0  0  0
 14 13  1  1  0  0  0
 15  2  1  0  0  0  0
 16 11  1  0  0  0  0
 16 12  2  0  0  0  0
 17 25  1  0  0  0  0
 18 23  2  0  0  0  0
 20 18  1  0  0  0  0
 20 15  1  0  0  0  0
 21 24  1  0  0  0  0
 22 21  1  0  0  0  0
 22 17  1  0  0  0  0
 24 19  1  0  0  0  0
 25 19  1  0  0  0  0
 25 18  1  0  0  0  0
 26 27  1  0  0  0  0
 28 30  1  0  0  0  0
 30 27  1  0  0  0  0
 30 29  1  0  0  0  0
 31 30  1  0  0  0  0
M  END
>  <MODEL>
4

>  <REMARK>
 VINA RESULT:      -7.6      2.892      6.947
  Name = 
  4 active torsions:
  status: ('A' for Active; 'I' for Inactive)
    1  A    between atoms: N_9  and  C_17
    2  A    between atoms: N_9  and  C_23
    3  A    between atoms: N_12  and  C_30
    4  A    between atoms: C_16  and  C_17
                            x       y       z     vdW  Elec       q    Type
                         _______ _______ _______ _____ _____    ______ ____

>  <TORSDO>
F 4

$$$$
=
 OpenBabel11062420553D

 31 36  0  0  1  0  0  0  0  0999 V2000
  188.9010  177.9070  145.0880 C   0  0  1  0  0  3  0  0  0  0  0  0
  188.3090  176.3340  143.6480 N   0  0  0  0  0  0  0  0  0  0  0  0
  186.4650  177.5890  144.5450 C   0  0  0  0  0  0  0  0  0  0  0  0
  189.4510  177.2410  143.8640 C   0  0  2  0  0  3  0  0  0  0  0  0
  187.7830  176.9390  144.8870 C   0  0  2  0  0  3  0  0  0  0  0  0
  186.1890  179.6100  145.7560 O   0  0  0  0  0  0  0  0  0  0  0  0
  186.3190  176.4130  142.3820 C   0  0  0  0  0  3  0  0  0  0  0  0
  190.6890  176.4440  144.2520 C   0  0  0  0  0  2  0  0  0  0  0  0
  190.9890  176.8080  145.6940 C   0  0  1  0  0  3  0  0  0  0  0  0
  189.7490  177.4690  146.2690 C   0  0  0  0  0  2  0  0  0  0  0  0
  185.7820  177.2880  143.4530 C   0  0  0  0  0  0  0  0  0  0  0  0
  184.3010  178.6270  144.7520 N   0  0  0  0  0  0  0  0  0  0  0  0
  185.7990  178.7580  146.8110 C   0  0  0  0  0  2  0  0  0  0  0  0
  185.5860  178.3930  145.3970 C   0  0  1  0  0  0  0  0  0  0  0  0
  187.5720  175.9450  142.4900 C   0  0  0  0  0  0  0  0  0  0  0  0
  184.4260  177.9150  143.4690 C   0  0  0  0  0  3  0  0  0  0  0  0
  189.3510  173.8110  139.1890 C   0  0  0  0  0  2  0  0  0  0  0  0
  189.0050  173.9810  141.6710 C   0  0  0  0  0  0  0  0  0  0  0  0
  190.4360  172.1440  140.7230 C   0  0  0  0  0  2  0  0  0  0  0  0
  188.1990  175.1520  141.4720 N   0  0  0  0  0  2  0  0  0  0  0  0
  190.0060  171.5540  138.3310 C   0  0  0  0  0  2  0  0  0  0  0  0
  188.9820  172.6810  138.2320 C   0  0  0  0  0  2  0  0  0  0  0  0
  189.2490  173.5620  142.8360 O   0  0  0  0  0  0  0  0  0  0  0  0
  190.0630  171.0220  139.7610 C   0  0  0  0  0  2  0  0  0  0  0  0
  189.5330  173.2780  140.5380 N   0  0  0  0  0  0  0  0  0  0  0  0
  191.4240  175.6510  146.4830 N   0  0  0  0  0  2  0  0  0  0  0  0
  192.6640  175.0890  145.9500 C   0  0  0  0  0  2  0  0  0  0  0  0
  193.5330  176.8610  147.2760 F   0  0  0  0  0  0  0  0  0  0  0  0
  194.9500  175.2860  146.5130 F   0  0  0  0  0  0  0  0  0  0  0  0
  193.8270  176.0300  146.2100 C   0  0  0  0  0  0  0  0  0  0  0  0
  194.0790  176.7930  145.0840 F   0  0  0  0  0  0  0  0  0  0  0  0
  1 10  1  1  0  0  0
  2  4  1  0  0  0  0
  2  5  1  0  0  0  0
  3 14  1  0  0  0  0
  4  8  1  1  0  0  0
  4  1  1  0  0  0  0
  5  3  1  6  0  0  0
  5  1  1  0  0  0  0
  6 13  1  0  0  0  0
  7 15  2  0  0  0  0
  7 11  1  0  0  0  0
  8  9  1  0  0  0  0
  9 10  1  0  0  0  0
  9 26  1  1  0  0  0
 11 16  1  0  0  0  0
 11  3  2  0  0  0  0
 12 14  1  0  0  0  0
 14  6  1  0  0  0  0
 14 13  1  1  0  0  0
 15  2  1  0  0  0  0
 16 12  2  0  0  0  0
 17 25  1  0  0  0  0
 18 23  2  0  0  0  0
 20 18  1  0  0  0  0
 20 15  1  0  0  0  0
 21 24  1  0  0  0  0
 22 21  1  0  0  0  0
 22 17  1  0  0  0  0
 24 19  1  0  0  0  0
 25 19  1  0  0  0  0
 25 18  1  0  0  0  0
 27 30  1  0  0  0  0
 27 26  1  0  0  0  0
 30 29  1  0  0  0  0
 30 28  1  0  0  0  0
 31 30  1  0  0  0  0
M  END
>  <MODEL>
5

>  <REMARK>
 VINA RESULT:      -7.4      2.054      6.586
  Name = 
  4 active torsions:
  status: ('A' for Active; 'I' for Inactive)
    1  A    between atoms: N_9  and  C_17
    2  A    between atoms: N_9  and  C_23
    3  A    between atoms: N_12  and  C_30
    4  A    between atoms: C_16  and  C_17
                            x       y       z     vdW  Elec       q    Type
                         _______ _______ _______ _____ _____    ______ ____

>  <TORSDO>
F 4

$$$$
=
 OpenBabel11062420553D

 31 36  0  0  1  0  0  0  0  0999 V2000
  192.0690  175.2620  142.3450 C   0  0  1  0  0  3  0  0  0  0  0  0
  190.7670  175.3370  144.1320 N   0  0  0  0  0  0  0  0  0  0  0  0
  193.1190  175.3310  144.6300 C   0  0  0  0  0  0  0  0  0  0  0  0
  190.7340  175.8170  142.7390 C   0  0  2  0  0  3  0  0  0  0  0  0
  192.0560  174.7340  143.7400 C   0  0  2  0  0  3  0  0  0  0  0  0
  195.1320  175.6640  143.4210 O   0  0  0  0  0  0  0  0  0  0  0  0
  191.4510  176.2410  146.2020 C   0  0  0  0  0  3  0  0  0  0  0  0
  189.6500  175.0870  141.9570 C   0  0  0  0  0  2  0  0  0  0  0  0
  190.3720  174.2260  140.9380 C   0  0  1  0  0  3  0  0  0  0  0  0
  191.8250  174.1270  141.3670 C   0  0  0  0  0  2  0  0  0  0  0  0
  192.8380  175.9390  145.7700 C   0  0  0  0  0  0  0  0  0  0  0  0
  195.2080  175.6990  145.7720 N   0  0  0  0  0  0  0  0  0  0  0  0
  195.3320  174.2870  143.6530 C   0  0  0  0  0  2  0  0  0  0  0  0
  194.5690  175.1310  144.5920 C   0  0  1  0  0  0  0  0  0  0  0  0
  190.4320  175.9370  145.3830 C   0  0  0  0  0  0  0  0  0  0  0  0
  194.0780  176.2420  146.5460 C   0  0  0  0  0  3  0  0  0  0  0  0
  186.2280  176.6170  146.0730 C   0  0  0  0  0  2  0  0  0  0  0  0
  188.6000  177.2120  146.6470 C   0  0  0  0  0  0  0  0  0  0  0  0
  186.6960  178.3330  147.8460 C   0  0  0  0  0  2  0  0  0  0  0  0
  189.0660  176.2550  145.6850 N   0  0  0  0  0  2  0  0  0  0  0  0
  184.5040  178.3380  146.6420 C   0  0  0  0  0  2  0  0  0  0  0  0
  185.1110  177.5000  145.5210 C   0  0  0  0  0  2  0  0  0  0  0  0
  189.4190  177.8610  147.3530 O   0  0  0  0  0  0  0  0  0  0  0  0
  185.5780  179.2080  147.2880 C   0  0  0  0  0  2  0  0  0  0  0  0
  187.1930  177.4370  146.8030 N   0  0  0  0  0  0  0  0  0  0  0  0
  189.7450  172.9100  140.7750 N   0  0  0  0  0  2  0  0  0  0  0  0
  190.6900  171.8380  141.0840 C   0  0  0  0  0  2  0  0  0  0  0  0
  190.2730  169.7630  142.1680 F   0  0  0  0  0  0  0  0  0  0  0  0
  191.2030  171.4350  143.3560 F   0  0  0  0  0  0  0  0  0  0  0  0
  190.2880  171.1320  142.3670 C   0  0  0  0  0  0  0  0  0  0  0  0
  189.0330  171.5560  142.7660 F   0  0  0  0  0  0  0  0  0  0  0  0
  1 10  1  6  0  0  0
  1  4  1  0  0  0  0
  1  5  1  0  0  0  0
  2 15  1  0  0  0  0
  3 11  2  0  0  0  0
  4  8  1  6  0  0  0
  4  2  1  0  0  0  0
  5  2  1  0  0  0  0
  5  3  1  1  0  0  0
  6 13  1  0  0  0  0
  6 14  1  0  0  0  0
  9 26  1  1  0  0  0
  9 10  1  0  0  0  0
  9  8  1  0  0  0  0
 11  7  1  0  0  0  0
 11 16  1  0  0  0  0
 12 16  2  0  0  0  0
 14 13  1  1  0  0  0
 14  3  1  0  0  0  0
 14 12  1  0  0  0  0
 15 20  1  0  0  0  0
 15  7  2  0  0  0  0
 17 25  1  0  0  0  0
 18 25  1  0  0  0  0
 18 23  2  0  0  0  0
 20 18  1  0  0  0  0
 21 24  1  0  0  0  0
 22 17  1  0  0  0  0
 22 21  1  0  0  0  0
 24 19  1  0  0  0  0
 25 19  1  0  0  0  0
 26 27  1  0  0  0  0
 27 30  1  0  0  0  0
 28 30  1  0  0  0  0
 30 31  1  0  0  0  0
 30 29  1  0  0  0  0
M  END
>  <MODEL>
6

>  <REMARK>
 VINA RESULT:      -7.3      3.270      5.448
  Name = 
  4 active torsions:
  status: ('A' for Active; 'I' for Inactive)
    1  A    between atoms: N_9  and  C_17
    2  A    between atoms: N_9  and  C_23
    3  A    between atoms: N_12  and  C_30
    4  A    between atoms: C_16  and  C_17
                            x       y       z     vdW  Elec       q    Type
                         _______ _______ _______ _____ _____    ______ ____

>  <TORSDO>
F 4

$$$$
=
 OpenBabel11062420553D

 31 36  0  0  1  0  0  0  0  0999 V2000
  191.8310  175.0220  142.4170 C   0  0  1  0  0  3  0  0  0  0  0  0
  190.6430  175.3560  144.2550 N   0  0  0  0  0  0  0  0  0  0  0  0
  193.0100  175.1750  144.6330 C   0  0  0  0  0  0  0  0  0  0  0  0
  190.5730  175.7250  142.8290 C   0  0  2  0  0  3  0  0  0  0  0  0
  191.8510  174.6090  143.8510 C   0  0  2  0  0  3  0  0  0  0  0  0
  194.9730  175.2260  143.3020 O   0  0  0  0  0  0  0  0  0  0  0  0
  191.5210  176.3540  146.2050 C   0  0  0  0  0  3  0  0  0  0  0  0
  189.3870  175.0380  142.1660 C   0  0  0  0  0  2  0  0  0  0  0  0
  189.9720  174.0360  141.1880 C   0  0  1  0  0  3  0  0  0  0  0  0
  191.4330  173.8390  141.5510 C   0  0  0  0  0  2  0  0  0  0  0  0
  192.8490  175.8940  145.7310 C   0  0  0  0  0  0  0  0  0  0  0  0
  195.1850  175.4400  145.6360 N   0  0  0  0  0  0  0  0  0  0  0  0
  195.0660  173.8600  143.6390 C   0  0  0  0  0  2  0  0  0  0  0  0
  194.4330  174.8410  144.5400 C   0  0  1  0  0  0  0  0  0  0  0  0
  190.4340  176.0810  145.4650 C   0  0  0  0  0  0  0  0  0  0  0  0
  194.1530  176.1440  146.4170 C   0  0  0  0  0  3  0  0  0  0  0  0
  186.5110  177.2820  146.8000 C   0  0  0  0  0  2  0  0  0  0  0  0
  188.3460  177.5280  145.1030 C   0  0  0  0  0  0  0  0  0  0  0  0
  186.2650  178.9250  144.9160 C   0  0  0  0  0  2  0  0  0  0  0  0
  189.1200  176.5450  145.8070 N   0  0  0  0  0  2  0  0  0  0  0  0
  184.2360  178.0120  146.0590 C   0  0  0  0  0  2  0  0  0  0  0  0
  185.0600  176.8500  146.6050 C   0  0  0  0  0  2  0  0  0  0  0  0
  188.8160  178.1030  144.0830 O   0  0  0  0  0  0  0  0  0  0  0  0
  184.8160  178.4870  144.7290 C   0  0  0  0  0  2  0  0  0  0  0  0
  187.0280  177.8560  145.5590 N   0  0  0  0  0  0  0  0  0  0  0  0
  189.2250  172.7740  141.1670 N   0  0  0  0  0  2  0  0  0  0  0  0
  188.8110  172.4330  139.8070 C   0  0  0  0  0  2  0  0  0  0  0  0
  190.5540  170.8450  140.1140 F   0  0  0  0  0  0  0  0  0  0  0  0
  189.1980  170.6310  138.3290 F   0  0  0  0  0  0  0  0  0  0  0  0
  189.8440  171.5350  139.1490 C   0  0  0  0  0  0  0  0  0  0  0  0
  190.7140  172.2950  138.3880 F   0  0  0  0  0  0  0  0  0  0  0  0
  1 10  1  6  0  0  0
  1  4  1  0  0  0  0
  1  5  1  0  0  0  0
  2 15  1  0  0  0  0
  3 11  2  0  0  0  0
  4  8  1  6  0  0  0
  4  2  1  0  0  0  0
  5  2  1  0  0  0  0
  5  3  1  1  0  0  0
  6 13  1  0  0  0  0
  6 14  1  0  0  0  0
  9 26  1  1  0  0  0
  9 10  1  0  0  0  0
  9  8  1  0  0  0  0
 11  7  1  0  0  0  0
 11 16  1  0  0  0  0
 12 16  2  0  0  0  0
 14 13  1  1  0  0  0
 14  3  1  0  0  0  0
 14 12  1  0  0  0  0
 15 20  1  0  0  0  0
 15  7  2  0  0  0  0
 18 25  1  0  0  0  0
 18 20  1  0  0  0  0
 19 25  1  0  0  0  0
 21 22  1  0  0  0  0
 22 17  1  0  0  0  0
 23 18  2  0  0  0  0
 24 19  1  0  0  0  0
 24 21  1  0  0  0  0
 25 17  1  0  0  0  0
 27 26  1  0  0  0  0
 29 30  1  0  0  0  0
 30 27  1  0  0  0  0
 30 28  1  0  0  0  0
 31 30  1  0  0  0  0
M  END
>  <MODEL>
7

>  <REMARK>
 VINA RESULT:      -7.3      3.637      5.828
  Name = 
  4 active torsions:
  status: ('A' for Active; 'I' for Inactive)
    1  A    between atoms: N_9  and  C_17
    2  A    between atoms: N_9  and  C_23
    3  A    between atoms: N_12  and  C_30
    4  A    between atoms: C_16  and  C_17
                            x       y       z     vdW  Elec       q    Type
                         _______ _______ _______ _____ _____    ______ ____

>  <TORSDO>
F 4

$$$$
=
 OpenBabel11062420553D

 31 36  0  0  1  0  0  0  0  0999 V2000
  186.0570  176.7570  143.3870 C   0  0  1  0  0  3  0  0  0  0  0  0
  188.0920  176.9090  144.2440 N   0  0  0  0  0  0  0  0  0  0  0  0
  186.3820  177.9370  145.5850 C   0  0  0  0  0  0  0  0  0  0  0  0
  187.3250  175.9590  143.4180 C   0  0  2  0  0  3  0  0  0  0  0  0
  186.8700  177.7320  144.1720 C   0  0  2  0  0  3  0  0  0  0  0  0
  184.0120  177.9090  145.6650 O   0  0  0  0  0  0  0  0  0  0  0  0
  188.5150  177.1630  146.5520 C   0  0  0  0  0  3  0  0  0  0  0  0
  187.9030  175.9010  142.0100 C   0  0  0  0  0  2  0  0  0  0  0  0
  186.8530  176.5070  141.0980 C   0  0  1  0  0  3  0  0  0  0  0  0
  185.8720  177.2700  141.9700 C   0  0  0  0  0  2  0  0  0  0  0  0
  187.1550  177.7500  146.6410 C   0  0  0  0  0  0  0  0  0  0  0  0
  185.1940  178.7970  147.4950 N   0  0  0  0  0  0  0  0  0  0  0  0
  184.1230  179.2450  145.2260 C   0  0  0  0  0  2  0  0  0  0  0  0
  185.1670  178.6080  146.0510 C   0  0  1  0  0  0  0  0  0  0  0  0
  188.9690  176.7500  145.3580 C   0  0  0  0  0  0  0  0  0  0  0  0
  186.4910  178.2250  147.8930 C   0  0  0  0  0  3  0  0  0  0  0  0
  192.6370  174.5120  144.9640 C   0  0  0  0  0  2  0  0  0  0  0  0
  191.4120  176.6700  144.5780 C   0  0  0  0  0  0  0  0  0  0  0  0
  193.7930  176.4210  143.8110 C   0  0  0  0  0  2  0  0  0  0  0  0
  190.2400  176.1080  145.1870 N   0  0  0  0  0  2  0  0  0  0  0  0
  195.1340  174.6630  144.9820 C   0  0  0  0  0  2  0  0  0  0  0  0
  193.9010  174.2440  145.7770 C   0  0  0  0  0  2  0  0  0  0  0  0
  191.3870  177.8380  144.1000 O   0  0  0  0  0  0  0  0  0  0  0  0
  195.0520  176.1460  144.6280 C   0  0  0  0  0  2  0  0  0  0  0  0
  192.6210  175.9030  144.5160 N   0  0  0  0  0  0  0  0  0  0  0  0
  187.4420  177.3480  140.0500 N   0  0  0  0  0  2  0  0  0  0  0  0
  186.5080  177.5290  138.9390 C   0  0  0  0  0  2  0  0  0  0  0  0
  187.3020  176.8880  136.7910 F   0  0  0  0  0  0  0  0  0  0  0  0
  187.4310  175.4030  138.4800 F   0  0  0  0  0  0  0  0  0  0  0  0
  186.6680  176.4110  137.9240 C   0  0  0  0  0  0  0  0  0  0  0  0
  185.4270  175.9040  137.5820 F   0  0  0  0  0  0  0  0  0  0  0  0
  1 10  1  6  0  0  0
  1  4  1  0  0  0  0
  1  5  1  0  0  0  0
  2 15  1  0  0  0  0
  3 14  1  0  0  0  0
  3 11  2  0  0  0  0
  4  8  1  6  0  0  0
  4  2  1  0  0  0  0
  5  2  1  0  0  0  0
  5  3  1  1  0  0  0
  6 14  1  0  0  0  0
  7 11  1  0  0  0  0
  9 26  1  6  0  0  0
  9 10  1  0  0  0  0
  9  8  1  0  0  0  0
 11 16  1  0  0  0  0
 12 16  2  0  0  0  0
 13  6  1  0  0  0  0
 14 13  1  6  0  0  0
 14 12  1  0  0  0  0
 15  7  2  0  0  0  0
 17 22  1  0  0  0  0
 18 20  1  0  0  0  0
 19 25  1  0  0  0  0
 19 24  1  0  0  0  0
 20 15  1  0  0  0  0
 21 22  1  0  0  0  0
 23 18  2  0  0  0  0
 24 21  1  0  0  0  0
 25 18  1  0  0  0  0
 25 17  1  0  0  0  0
 27 26  1  0  0  0  0
 28 30  1  0  0  0  0
 30 29  1  0  0  0  0
 30 27  1  0  0  0  0
 31 30  1  0  0  0  0
M  END
>  <MODEL>
8

>  <REMARK>
 VINA RESULT:      -7.1      4.482      8.520
  Name = 
  4 active torsions:
  status: ('A' for Active; 'I' for Inactive)
    1  A    between atoms: N_9  and  C_17
    2  A    between atoms: N_9  and  C_23
    3  A    between atoms: N_12  and  C_30
    4  A    between atoms: C_16  and  C_17
                            x       y       z     vdW  Elec       q    Type
                         _______ _______ _______ _____ _____    ______ ____

>  <TORSDO>
F 4

$$$$
=
 OpenBabel11062420553D

 31 36  0  0  1  0  0  0  0  0999 V2000
  191.2290  173.4490  144.5510 C   0  0  1  0  0  3  0  0  0  0  0  0
  189.7750  174.8040  143.5760 N   0  0  0  0  0  0  0  0  0  0  0  0
  190.9170  173.3310  142.0580 C   0  0  0  0  0  0  0  0  0  0  0  0
  189.9220  174.1100  144.8690 C   0  0  2  0  0  3  0  0  0  0  0  0
  191.0910  174.2080  143.2730 C   0  0  2  0  0  3  0  0  0  0  0  0
  192.2540  171.3790  142.2350 O   0  0  0  0  0  0  0  0  0  0  0  0
  188.7220  174.3170  141.5210 C   0  0  0  0  0  3  0  0  0  0  0  0
  190.1420  175.1220  145.9860 C   0  0  0  0  0  2  0  0  0  0  0  0
  191.5630  174.9100  146.4720 C   0  0  1  0  0  3  0  0  0  0  0  0
  192.2940  174.0980  145.4170 C   0  0  0  0  0  2  0  0  0  0  0  0
  189.8850  173.4420  141.2380 C   0  0  0  0  0  0  0  0  0  0  0  0
  191.3950  171.9730  140.1260 N   0  0  0  0  0  0  0  0  0  0  0  0
  193.2960  172.2270  141.8050 C   0  0  0  0  0  2  0  0  0  0  0  0
  191.8940  172.4560  141.4070 C   0  0  1  0  0  0  0  0  0  0  0  0
  188.6780  174.9880  142.6830 C   0  0  0  0  0  0  0  0  0  0  0  0
  190.0700  172.6060  140.0130 C   0  0  0  0  0  3  0  0  0  0  0  0
  185.1060  177.1650  143.7400 C   0  0  0  0  0  2  0  0  0  0  0  0
  187.6140  177.0460  143.7860 C   0  0  0  0  0  0  0  0  0  0  0  0
  186.4270  178.9720  144.8800 C   0  0  0  0  0  2  0  0  0  0  0  0
  187.5630  175.8020  143.0730 N   0  0  0  0  0  2  0  0  0  0  0  0
  184.1170  179.4430  144.0430 C   0  0  0  0  0  2  0  0  0  0  0  0
  184.1950  178.2260  143.1270 C   0  0  0  0  0  2  0  0  0  0  0  0
  188.7210  177.5230  144.1610 O   0  0  0  0  0  0  0  0  0  0  0  0
  185.5110  180.0250  144.2630 C   0  0  0  0  0  2  0  0  0  0  0  0
  186.4020  177.7560  144.0700 N   0  0  0  0  0  0  0  0  0  0  0  0
  192.2430  176.1740  146.7760 N   0  0  0  0  0  2  0  0  0  0  0  0
  193.0490  176.6210  145.6420 C   0  0  0  0  0  2  0  0  0  0  0  0
  194.9410  175.6690  146.7230 F   0  0  0  0  0  0  0  0  0  0  0  0
  195.2720  176.9930  144.9320 F   0  0  0  0  0  0  0  0  0  0  0  0
  194.4980  176.7990  146.0590 C   0  0  0  0  0  0  0  0  0  0  0  0
  194.6190  177.9000  146.8870 F   0  0  0  0  0  0  0  0  0  0  0  0
  1  4  1  0  0  0  0
  1 10  1  1  0  0  0
  2  4  1  0  0  0  0
  4  8  1  1  0  0  0
  5  3  1  6  0  0  0
  5  2  1  0  0  0  0
  5  1  1  0  0  0  0
  7 15  2  0  0  0  0
  8  9  1  0  0  0  0
  9 26  1  6  0  0  0
 10  9  1  0  0  0  0
 11  7  1  0  0  0  0
 11  3  2  0  0  0  0
 12 14  1  0  0  0  0
 13  6  1  0  0  0  0
 14 13  1  6  0  0  0
 14  3  1  0  0  0  0
 14  6  1  0  0  0  0
 15 20  1  0  0  0  0
 15  2  1  0  0  0  0
 16 12  2  0  0  0  0
 16 11  1  0  0  0  0
 17 25  1  0  0  0  0
 18 25  1  0  0  0  0
 18 23  2  0  0  0  0
 20 18  1  0  0  0  0
 21 24  1  0  0  0  0
 22 17  1  0  0  0  0
 22 21  1  0  0  0  0
 24 19  1  0  0  0  0
 25 19  1  0  0  0  0
 27 30  1  0  0  0  0
 27 26  1  0  0  0  0
 29 30  1  0  0  0  0
 30 28  1  0  0  0  0
 30 31  1  0  0  0  0
M  END
>  <MODEL>
9

>  <REMARK>
 VINA RESULT:      -7.0      1.603      2.002
  Name = 
  4 active torsions:
  status: ('A' for Active; 'I' for Inactive)
    1  A    between atoms: N_9  and  C_17
    2  A    between atoms: N_9  and  C_23
    3  A    between atoms: N_12  and  C_30
    4  A    between atoms: C_16  and  C_17
                            x       y       z     vdW  Elec       q    Type
                         _______ _______ _______ _____ _____    ______ ____

>  <TORSDO>
F 4

$$$$
