=
 OpenBabel11062423123D

 28 33  0  0  1  0  0  0  0  0999 V2000
  185.9300  178.8490  146.0940 C   0  0  2  0  0  3  0  0  0  0  0  0
  189.7800  175.0700  141.8520 N   0  0  0  0  0  1  0  0  0  0  0  0
  188.6650  175.9450  141.9790 C   0  0  0  0  0  0  0  0  0  0  0  0
  186.4980  178.7940  147.5090 C   0  0  0  0  0  2  0  0  0  0  0  0
  186.8820  177.0590  141.5930 C   0  0  0  0  0  0  0  0  0  0  0  0
  187.8350  176.1770  141.0040 N   0  0  0  0  0  0  0  0  0  0  0  0
  184.3630  179.6180  143.9240 C   0  0  0  0  0  2  0  0  0  0  0  0
  188.9270  176.7800  144.5540 C   0  0  1  0  0  3  0  0  0  0  0  0
  184.5300  178.2440  146.0850 C   0  0  0  0  0  2  0  0  0  0  0  0
  186.8090  178.1670  145.0570 C   0  0  0  0  0  0  0  0  0  0  0  0
  188.0050  177.4440  145.5040 N   0  0  0  0  0  0  0  0  0  0  0  0
  184.9510  178.4520  141.8100 C   0  0  0  0  0  3  0  0  0  0  0  0
  188.4370  177.5370  146.8440 N   0  0  0  0  0  2  0  0  0  0  0  0
  185.2690  178.6940  143.1690 C   0  0  0  0  0  0  0  0  0  0  0  0
  188.2780  176.6500  143.2090 C   0  0  0  0  0  0  0  0  0  0  0  0
  186.4300  178.0930  143.7490 C   0  0  0  0  0  0  0  0  0  0  0  0
  185.7550  177.6220  141.0060 C   0  0  0  0  0  3  0  0  0  0  0  0
  187.2810  177.5140  147.7270 C   0  0  0  0  0  2  0  0  0  0  0  0
  183.6140  178.8970  145.0440 C   0  0  0  0  0  2  0  0  0  0  0  0
  187.1930  177.3020  142.8980 C   0  0  0  0  0  0  0  0  0  0  0  0
  191.2080  176.9660  143.4850 C   0  0  0  0  0  2  0  0  0  0  0  0
  190.2140  177.6100  144.4330 C   0  0  2  0  0  3  0  0  0  0  0  0
  191.4780  176.9230  144.9740 C   0  0  1  0  0  3  0  0  0  0  0  0
  191.2840  175.4900  145.4640 C   0  0  0  0  0  2  0  0  0  0  0  0
  192.1370  175.2270  146.6960 C   0  0  0  0  0  2  0  0  0  0  0  0
  191.3100  175.3300  147.9670 C   0  0  0  0  0  3  0  0  0  0  0  0
  191.3230  176.6480  148.4200 O   0  0  0  0  0  1  0  0  0  0  0  0
  189.9940  174.9430  147.7100 O   0  0  0  0  0  1  0  0  0  0  0  0
  1  9  1  1  0  0  0
  1  4  1  0  0  0  0
  2  3  1  0  0  0  0
  3 15  1  0  0  0  0
  4 18  1  0  0  0  0
  5 20  1  0  0  0  0
  6  5  1  0  0  0  0
  6  3  2  0  0  0  0
  7 19  1  0  0  0  0
  8 15  1  6  0  0  0
  8 11  1  0  0  0  0
 10 11  1  0  0  0  0
 10  1  1  0  0  0  0
 11 13  1  0  0  0  0
 12 14  2  0  0  0  0
 13 18  1  0  0  0  0
 14 16  1  0  0  0  0
 14  7  1  0  0  0  0
 16 10  2  0  0  0  0
 17  5  2  0  0  0  0
 17 12  1  0  0  0  0
 19  9  1  0  0  0  0
 20 15  2  0  0  0  0
 20 16  1  0  0  0  0
 21 23  1  0  0  0  0
 22 21  1  6  0  0  0
 22  8  1  0  0  0  0
 22 23  1  0  0  0  0
 23 24  1  1  0  0  0
 24 25  1  0  0  0  0
 25 26  1  0  0  0  0
 26 27  1  0  0  0  0
 28 26  1  0  0  0  0
M  END
>  <MODEL>
1

>  <REMARK>
 VINA RESULT:      -8.0      0.000      0.000
  Name = 
  4 active torsions:
  status: ('A' for Active; 'I' for Inactive)
    1  A    between atoms: C_7  and  C_11
    2  A    between atoms: C_8  and  C_14
    3  A    between atoms: C_8  and  C_22
    4  A    between atoms: C_14  and  C_18
                            x       y       z     vdW  Elec       q    Type
                         _______ _______ _______ _____ _____    ______ ____

>  <TORSDO>
F 4

$$$$
=
 OpenBabel11062423123D

 28 33  0  0  1  0  0  0  0  0999 V2000
  186.0770  178.7320  146.2720 C   0  0  2  0  0  3  0  0  0  0  0  0
  189.6300  175.1530  141.6150 N   0  0  0  0  0  1  0  0  0  0  0  0
  188.5130  176.0000  141.8610 C   0  0  0  0  0  0  0  0  0  0  0  0
  186.7630  178.6510  147.6310 C   0  0  0  0  0  2  0  0  0  0  0  0
  186.6820  177.0840  141.6570 C   0  0  0  0  0  0  0  0  0  0  0  0
  187.6000  176.2400  140.9660 N   0  0  0  0  0  0  0  0  0  0  0  0
  184.3190  179.5230  144.2630 C   0  0  0  0  0  2  0  0  0  0  0  0
  188.9740  176.7710  144.4280 C   0  0  1  0  0  3  0  0  0  0  0  0
  184.6930  178.0950  146.3620 C   0  0  0  0  0  2  0  0  0  0  0  0
  186.8790  178.0970  145.1450 C   0  0  0  0  0  0  0  0  0  0  0  0
  188.1230  177.3890  145.4700 N   0  0  0  0  0  0  0  0  0  0  0  0
  184.7490  178.4280  142.0750 C   0  0  0  0  0  3  0  0  0  0  0  0
  188.6640  177.4560  146.7710 N   0  0  0  0  0  2  0  0  0  0  0  0
  185.1750  178.6400  143.4080 C   0  0  0  0  0  0  0  0  0  0  0  0
  188.2170  176.6630  143.1390 C   0  0  0  0  0  0  0  0  0  0  0  0
  186.3930  178.0490  143.8720 C   0  0  0  0  0  0  0  0  0  0  0  0
  185.4990  177.6380  141.1830 C   0  0  0  0  0  3  0  0  0  0  0  0
  187.5870  177.3830  147.7460 C   0  0  0  0  0  2  0  0  0  0  0  0
  183.6810  178.7560  145.4210 C   0  0  0  0  0  2  0  0  0  0  0  0
  187.0970  177.2990  142.9380 C   0  0  0  0  0  0  0  0  0  0  0  0
  191.2560  176.9280  143.3560 C   0  0  0  0  0  2  0  0  0  0  0  0
  190.2300  177.6320  144.2230 C   0  0  2  0  0  3  0  0  0  0  0  0
  191.5140  177.0580  144.8420 C   0  0  1  0  0  3  0  0  0  0  0  0
  191.3710  175.6810  145.4850 C   0  0  0  0  0  2  0  0  0  0  0  0
  192.4150  175.4880  146.5740 C   0  0  0  0  0  2  0  0  0  0  0  0
  193.7550  176.0740  146.1580 C   0  0  0  0  0  3  0  0  0  0  0  0
  194.1050  177.0970  147.0380 O   0  0  0  0  0  1  0  0  0  0  0  0
  194.7370  175.0840  146.1870 O   0  0  0  0  0  1  0  0  0  0  0  0
  1  9  1  1  0  0  0
  1  4  1  0  0  0  0
  2  3  1  0  0  0  0
  3 15  1  0  0  0  0
  4 18  1  0  0  0  0
  5 20  1  0  0  0  0
  6  5  1  0  0  0  0
  6  3  2  0  0  0  0
  7 19  1  0  0  0  0
  8 15  1  6  0  0  0
  8 11  1  0  0  0  0
 10 11  1  0  0  0  0
 10  1  1  0  0  0  0
 11 13  1  0  0  0  0
 12 14  2  0  0  0  0
 13 18  1  0  0  0  0
 14 16  1  0  0  0  0
 14  7  1  0  0  0  0
 16 10  2  0  0  0  0
 17  5  2  0  0  0  0
 17 12  1  0  0  0  0
 19  9  1  0  0  0  0
 20 15  2  0  0  0  0
 20 16  1  0  0  0  0
 21 23  1  0  0  0  0
 22 21  1  6  0  0  0
 22  8  1  0  0  0  0
 22 23  1  0  0  0  0
 23 24  1  1  0  0  0
 24 25  1  0  0  0  0
 26 28  1  0  0  0  0
 26 25  1  0  0  0  0
 26 27  1  0  0  0  0
M  END
>  <MODEL>
2

>  <REMARK>
 VINA RESULT:      -7.8      1.145      1.284
  Name = 
  4 active torsions:
  status: ('A' for Active; 'I' for Inactive)
    1  A    between atoms: C_7  and  C_11
    2  A    between atoms: C_8  and  C_14
    3  A    between atoms: C_8  and  C_22
    4  A    between atoms: C_14  and  C_18
                            x       y       z     vdW  Elec       q    Type
                         _______ _______ _______ _____ _____    ______ ____

>  <TORSDO>
F 4

$$$$
=
 OpenBabel11062423123D

 28 33  0  0  1  0  0  0  0  0999 V2000
  186.2510  178.2320  146.0590 C   0  0  2  0  0  3  0  0  0  0  0  0
  189.4570  174.3990  141.3540 N   0  0  0  0  0  1  0  0  0  0  0  0
  188.5170  175.4400  141.5960 C   0  0  0  0  0  0  0  0  0  0  0  0
  186.7630  177.8880  147.4540 C   0  0  0  0  0  2  0  0  0  0  0  0
  186.9760  176.9030  141.3600 C   0  0  0  0  0  0  0  0  0  0  0  0
  187.7690  175.9460  140.6600 N   0  0  0  0  0  0  0  0  0  0  0  0
  184.9060  179.5520  144.0100 C   0  0  0  0  0  2  0  0  0  0  0  0
  188.8610  175.8680  144.2600 C   0  0  1  0  0  3  0  0  0  0  0  0
  184.7650  177.9000  145.9670 C   0  0  0  0  0  2  0  0  0  0  0  0
  187.0180  177.5420  144.9410 C   0  0  0  0  0  0  0  0  0  0  0  0
  188.0510  176.5600  145.2890 N   0  0  0  0  0  0  0  0  0  0  0  0
  185.3260  178.5860  141.7590 C   0  0  0  0  0  3  0  0  0  0  0  0
  188.4590  176.3960  146.6300 N   0  0  0  0  0  2  0  0  0  0  0  0
  185.6470  178.5850  143.1380 C   0  0  0  0  0  0  0  0  0  0  0  0
  188.2330  176.0370  142.9090 C   0  0  0  0  0  0  0  0  0  0  0  0
  186.6650  177.7100  143.6340 C   0  0  0  0  0  0  0  0  0  0  0  0
  185.9860  177.7350  140.8520 C   0  0  0  0  0  3  0  0  0  0  0  0
  187.2950  176.4690  147.5000 C   0  0  0  0  0  2  0  0  0  0  0  0
  184.0100  178.8400  145.0230 C   0  0  0  0  0  2  0  0  0  0  0  0
  187.2930  176.9120  142.6860 C   0  0  0  0  0  0  0  0  0  0  0  0
  191.2140  175.6520  143.3680 C   0  0  0  0  0  2  0  0  0  0  0  0
  190.2800  176.4560  144.2520 C   0  0  2  0  0  3  0  0  0  0  0  0
  191.3560  175.5520  144.8720 C   0  0  1  0  0  3  0  0  0  0  0  0
  190.8750  174.1740  145.3170 C   0  0  0  0  0  2  0  0  0  0  0  0
  191.6930  173.0800  144.6470 C   0  0  0  0  0  2  0  0  0  0  0  0
  190.8050  171.9340  144.1900 C   0  0  0  0  0  3  0  0  0  0  0  0
  189.4730  172.3460  144.2110 O   0  0  0  0  0  1  0  0  0  0  0  0
  191.1500  171.5530  142.8930 O   0  0  0  0  0  1  0  0  0  0  0  0
  1  9  1  1  0  0  0
  1  4  1  0  0  0  0
  2  3  1  0  0  0  0
  3 15  1  0  0  0  0
  4 18  1  0  0  0  0
  5 20  1  0  0  0  0
  6  5  1  0  0  0  0
  6  3  2  0  0  0  0
  7 19  1  0  0  0  0
  8 15  1  6  0  0  0
  8 11  1  0  0  0  0
 10 11  1  0  0  0  0
 10  1  1  0  0  0  0
 11 13  1  0  0  0  0
 12 14  2  0  0  0  0
 13 18  1  0  0  0  0
 14 16  1  0  0  0  0
 14  7  1  0  0  0  0
 16 10  2  0  0  0  0
 17  5  2  0  0  0  0
 17 12  1  0  0  0  0
 19  9  1  0  0  0  0
 20 15  2  0  0  0  0
 20 16  1  0  0  0  0
 21 23  1  0  0  0  0
 22 21  1  6  0  0  0
 22  8  1  0  0  0  0
 22 23  1  0  0  0  0
 23 24  1  1  0  0  0
 25 24  1  0  0  0  0
 26 27  1  0  0  0  0
 26 25  1  0  0  0  0
 28 26  1  0  0  0  0
M  END
>  <MODEL>
3

>  <REMARK>
 VINA RESULT:      -7.7      1.802      2.131
  Name = 
  4 active torsions:
  status: ('A' for Active; 'I' for Inactive)
    1  A    between atoms: C_7  and  C_11
    2  A    between atoms: C_8  and  C_14
    3  A    between atoms: C_8  and  C_22
    4  A    between atoms: C_14  and  C_18
                            x       y       z     vdW  Elec       q    Type
                         _______ _______ _______ _____ _____    ______ ____

>  <TORSDO>
F 4

$$$$
=
 OpenBabel11062423123D

 28 33  0  0  1  0  0  0  0  0999 V2000
  185.7050  177.7970  142.4800 C   0  0  2  0  0  3  0  0  0  0  0  0
  191.0100  173.8010  144.2120 N   0  0  0  0  0  1  0  0  0  0  0  0
  189.9270  174.6000  144.6740 C   0  0  0  0  0  0  0  0  0  0  0  0
  185.5580  177.8460  140.9630 C   0  0  0  0  0  2  0  0  0  0  0  0
  188.5970  175.7310  145.9080 C   0  0  0  0  0  0  0  0  0  0  0  0
  189.7570  174.9020  145.9280 N   0  0  0  0  0  0  0  0  0  0  0  0
  185.1420  178.1530  145.1840 C   0  0  0  0  0  2  0  0  0  0  0  0
  188.6120  175.1190  142.3500 C   0  0  1  0  0  3  0  0  0  0  0  0
  186.0100  179.1960  143.0060 C   0  0  0  0  0  2  0  0  0  0  0  0
  186.7600  176.8100  142.9590 C   0  0  0  0  0  0  0  0  0  0  0  0
  187.5860  176.1160  141.9660 N   0  0  0  0  0  0  0  0  0  0  0  0
  186.8380  177.1460  146.6950 C   0  0  0  0  0  3  0  0  0  0  0  0
  187.2860  176.2160  140.5910 N   0  0  0  0  0  2  0  0  0  0  0  0
  186.3690  177.3150  145.3690 C   0  0  0  0  0  0  0  0  0  0  0  0
  188.9050  175.2190  143.8170 C   0  0  0  0  0  0  0  0  0  0  0  0
  187.0440  176.6690  144.2850 C   0  0  0  0  0  0  0  0  0  0  0  0
  187.9670  176.3540  146.9780 C   0  0  0  0  0  3  0  0  0  0  0  0
  186.8870  177.5810  140.2820 C   0  0  0  0  0  2  0  0  0  0  0  0
  185.4360  179.4360  144.4060 C   0  0  0  0  0  2  0  0  0  0  0  0
  188.1370  175.8850  144.6330 C   0  0  0  0  0  0  0  0  0  0  0  0
  189.1350  172.6480  142.3320 C   0  0  0  0  0  2  0  0  0  0  0  0
  188.0990  173.7100  142.0160 C   0  0  2  0  0  3  0  0  0  0  0  0
  188.8580  172.9990  140.8860 C   0  0  1  0  0  3  0  0  0  0  0  0
  190.0610  173.7560  140.3280 C   0  0  0  0  0  2  0  0  0  0  0  0
  190.0950  173.6590  138.8100 C   0  0  0  0  0  2  0  0  0  0  0  0
  188.7320  173.2790  138.2540 C   0  0  0  0  0  3  0  0  0  0  0  0
  188.1040  174.4190  137.7540 O   0  0  0  0  0  1  0  0  0  0  0  0
  188.8810  172.3460  137.2270 O   0  0  0  0  0  1  0  0  0  0  0  0
  1  4  1  6  0  0  0
  1 10  1  0  0  0  0
  1  9  1  0  0  0  0
  2  3  1  0  0  0  0
  3  6  2  0  0  0  0
  5  6  1  0  0  0  0
  5 17  2  0  0  0  0
  7 14  1  0  0  0  0
  8 15  1  1  0  0  0
  9 19  1  0  0  0  0
 10 16  2  0  0  0  0
 11  8  1  0  0  0  0
 11 10  1  0  0  0  0
 12 17  1  0  0  0  0
 13 11  1  0  0  0  0
 14 12  2  0  0  0  0
 15 20  2  0  0  0  0
 15  3  1  0  0  0  0
 16 20  1  0  0  0  0
 16 14  1  0  0  0  0
 18 13  1  0  0  0  0
 18  4  1  0  0  0  0
 19  7  1  0  0  0  0
 20  5  1  0  0  0  0
 22 21  1  1  0  0  0
 22  8  1  0  0  0  0
 23 24  1  1  0  0  0
 23 22  1  0  0  0  0
 23 21  1  0  0  0  0
 25 24  1  0  0  0  0
 26 25  1  0  0  0  0
 27 26  1  0  0  0  0
 28 26  1  0  0  0  0
M  END
>  <MODEL>
4

>  <REMARK>
 VINA RESULT:      -7.6      3.487      5.699
  Name = 
  4 active torsions:
  status: ('A' for Active; 'I' for Inactive)
    1  A    between atoms: C_7  and  C_11
    2  A    between atoms: C_8  and  C_14
    3  A    between atoms: C_8  and  C_22
    4  A    between atoms: C_14  and  C_18
                            x       y       z     vdW  Elec       q    Type
                         _______ _______ _______ _____ _____    ______ ____

>  <TORSDO>
F 4

$$$$
=
 OpenBabel11062423123D

 28 33  0  0  1  0  0  0  0  0999 V2000
  185.7170  177.9930  142.6870 C   0  0  2  0  0  3  0  0  0  0  0  0
  190.7990  174.6090  145.8220 N   0  0  0  0  0  1  0  0  0  0  0  0
  189.5530  175.2800  145.9700 C   0  0  0  0  0  0  0  0  0  0  0  0
  185.9610  178.0300  141.1820 C   0  0  0  0  0  2  0  0  0  0  0  0
  187.8350  176.2510  146.7920 C   0  0  0  0  0  0  0  0  0  0  0  0
  189.0340  175.5570  147.1300 N   0  0  0  0  0  0  0  0  0  0  0  0
  184.4410  178.2750  145.1450 C   0  0  0  0  0  2  0  0  0  0  0  0
  188.8320  175.6570  143.3740 C   0  0  1  0  0  3  0  0  0  0  0  0
  185.7230  179.4160  143.2370 C   0  0  0  0  0  2  0  0  0  0  0  0
  186.7130  177.1280  143.4450 C   0  0  0  0  0  0  0  0  0  0  0  0
  187.8380  176.5340  142.7140 N   0  0  0  0  0  0  0  0  0  0  0  0
  185.7900  177.4590  147.0660 C   0  0  0  0  0  3  0  0  0  0  0  0
  187.8940  176.6050  141.3060 N   0  0  0  0  0  2  0  0  0  0  0  0
  185.6630  177.5780  145.6610 C   0  0  0  0  0  0  0  0  0  0  0  0
  188.7260  175.7840  144.8640 C   0  0  0  0  0  0  0  0  0  0  0  0
  186.6610  177.0160  144.8030 C   0  0  0  0  0  0  0  0  0  0  0  0
  186.8870  176.7960  147.6490 C   0  0  0  0  0  3  0  0  0  0  0  0
  187.4410  177.9180  140.8710 C   0  0  0  0  0  2  0  0  0  0  0  0
  184.7850  179.5850  144.4370 C   0  0  0  0  0  2  0  0  0  0  0  0
  187.7060  176.3570  145.4390 C   0  0  0  0  0  0  0  0  0  0  0  0
  189.6470  173.2690  143.4980 C   0  0  0  0  0  2  0  0  0  0  0  0
  188.5800  174.2000  142.9560 C   0  0  2  0  0  3  0  0  0  0  0  0
  189.6430  173.6030  142.0220 C   0  0  1  0  0  3  0  0  0  0  0  0
  190.8350  174.5100  141.7230 C   0  0  0  0  0  2  0  0  0  0  0  0
  192.0830  174.0010  142.4280 C   0  0  0  0  0  2  0  0  0  0  0  0
  193.0020  175.1490  142.8110 C   0  0  0  0  0  3  0  0  0  0  0  0
  192.2400  176.2930  143.0420 O   0  0  0  0  0  1  0  0  0  0  0  0
  193.7110  174.8250  143.9690 O   0  0  0  0  0  1  0  0  0  0  0  0
  1  4  1  6  0  0  0
  1  9  1  0  0  0  0
  1 10  1  0  0  0  0
  2  3  1  0  0  0  0
  3  6  2  0  0  0  0
  5  6  1  0  0  0  0
  5 17  2  0  0  0  0
  7 14  1  0  0  0  0
  8 15  1  1  0  0  0
  9 19  1  0  0  0  0
 10 16  2  0  0  0  0
 11  8  1  0  0  0  0
 11 10  1  0  0  0  0
 12 17  1  0  0  0  0
 13 11  1  0  0  0  0
 14 12  2  0  0  0  0
 15 20  2  0  0  0  0
 15  3  1  0  0  0  0
 16 20  1  0  0  0  0
 16 14  1  0  0  0  0
 18  4  1  0  0  0  0
 18 13  1  0  0  0  0
 19  7  1  0  0  0  0
 20  5  1  0  0  0  0
 22  8  1  0  0  0  0
 22 21  1  1  0  0  0
 23 24  1  1  0  0  0
 23 22  1  0  0  0  0
 23 21  1  0  0  0  0
 24 25  1  0  0  0  0
 25 26  1  0  0  0  0
 26 27  1  0  0  0  0
 26 28  1  0  0  0  0
M  END
>  <MODEL>
5

>  <REMARK>
 VINA RESULT:      -7.6      2.295      4.393
  Name = 
  4 active torsions:
  status: ('A' for Active; 'I' for Inactive)
    1  A    between atoms: C_7  and  C_11
    2  A    between atoms: C_8  and  C_14
    3  A    between atoms: C_8  and  C_22
    4  A    between atoms: C_14  and  C_18
                            x       y       z     vdW  Elec       q    Type
                         _______ _______ _______ _____ _____    ______ ____

>  <TORSDO>
F 4

$$$$
=
 OpenBabel11062423123D

 28 33  0  0  1  0  0  0  0  0999 V2000
  188.8560  177.2500  146.3990 C   0  0  2  0  0  3  0  0  0  0  0  0
  191.9400  173.4140  141.6160 N   0  0  0  0  0  1  0  0  0  0  0  0
  190.7730  174.1410  141.9820 C   0  0  0  0  0  0  0  0  0  0  0  0
  189.8020  177.4900  147.5710 C   0  0  0  0  0  2  0  0  0  0  0  0
  188.7880  174.9330  142.0400 C   0  0  0  0  0  0  0  0  0  0  0  0
  189.6740  174.1070  141.2870 N   0  0  0  0  0  0  0  0  0  0  0  0
  186.6300  177.4590  144.7400 C   0  0  0  0  0  2  0  0  0  0  0  0
  191.6050  175.3900  144.2500 C   0  0  1  0  0  3  0  0  0  0  0  0
  187.6380  176.4680  146.8810 C   0  0  0  0  0  2  0  0  0  0  0  0
  189.5100  176.5410  145.2220 C   0  0  0  0  0  0  0  0  0  0  0  0
  190.8890  176.0630  145.3590 N   0  0  0  0  0  0  0  0  0  0  0  0
  186.7870  176.0710  142.6840 C   0  0  0  0  0  3  0  0  0  0  0  0
  191.6610  176.4180  146.4860 N   0  0  0  0  0  2  0  0  0  0  0  0
  187.4300  176.5600  143.8480 C   0  0  0  0  0  0  0  0  0  0  0  0
  190.6340  174.9690  143.1890 C   0  0  0  0  0  0  0  0  0  0  0  0
  188.7940  176.2160  144.1080 C   0  0  0  0  0  0  0  0  0  0  0  0
  187.4610  175.2430  141.7670 C   0  0  0  0  0  3  0  0  0  0  0  0
  190.8250  176.3750  147.6760 C   0  0  0  0  0  2  0  0  0  0  0  0
  186.3660  176.8250  146.1050 C   0  0  0  0  0  2  0  0  0  0  0  0
  189.4090  175.4140  143.1550 C   0  0  0  0  0  0  0  0  0  0  0  0
  193.5990  175.6430  142.7210 C   0  0  0  0  0  2  0  0  0  0  0  0
  192.6400  176.3560  143.6550 C   0  0  2  0  0  3  0  0  0  0  0  0
  194.0920  176.0880  144.0810 C   0  0  1  0  0  3  0  0  0  0  0  0
  194.3010  174.8530  144.9530 C   0  0  0  0  0  2  0  0  0  0  0  0
  195.5550  175.0030  145.8010 C   0  0  0  0  0  2  0  0  0  0  0  0
  196.5930  173.9550  145.4340 C   0  0  0  0  0  3  0  0  0  0  0  0
  197.5950  174.5480  144.6660 O   0  0  0  0  0  1  0  0  0  0  0  0
  197.1560  173.4170  146.5920 O   0  0  0  0  0  1  0  0  0  0  0  0
  1  9  1  1  0  0  0
  1  4  1  0  0  0  0
  2  3  1  0  0  0  0
  3 15  1  0  0  0  0
  4 18  1  0  0  0  0
  5 20  1  0  0  0  0
  6  3  2  0  0  0  0
  6  5  1  0  0  0  0
  7 19  1  0  0  0  0
  8 15  1  6  0  0  0
  8 11  1  0  0  0  0
 10 11  1  0  0  0  0
 10  1  1  0  0  0  0
 11 13  1  0  0  0  0
 12 14  2  0  0  0  0
 13 18  1  0  0  0  0
 14 16  1  0  0  0  0
 14  7  1  0  0  0  0
 16 10  2  0  0  0  0
 17  5  2  0  0  0  0
 17 12  1  0  0  0  0
 19  9  1  0  0  0  0
 20 15  2  0  0  0  0
 20 16  1  0  0  0  0
 21 23  1  0  0  0  0
 22 21  1  6  0  0  0
 22 23  1  0  0  0  0
 22  8  1  0  0  0  0
 23 24  1  1  0  0  0
 24 25  1  0  0  0  0
 26 25  1  0  0  0  0
 26 28  1  0  0  0  0
 27 26  1  0  0  0  0
M  END
>  <MODEL>
6

>  <REMARK>
 VINA RESULT:      -6.9      2.921      3.768
  Name = 
  4 active torsions:
  status: ('A' for Active; 'I' for Inactive)
    1  A    between atoms: C_7  and  C_11
    2  A    between atoms: C_8  and  C_14
    3  A    between atoms: C_8  and  C_22
    4  A    between atoms: C_14  and  C_18
                            x       y       z     vdW  Elec       q    Type
                         _______ _______ _______ _____ _____    ______ ____

>  <TORSDO>
F 4

$$$$
=
 OpenBabel11062423123D

 28 33  0  0  1  0  0  0  0  0999 V2000
  189.7850  175.1360  144.4660 C   0  0  2  0  0  3  0  0  0  0  0  0
  183.8640  177.9160  142.3880 N   0  0  0  0  0  1  0  0  0  0  0  0
  184.7690  177.7240  143.4690 C   0  0  0  0  0  0  0  0  0  0  0  0
  190.4880  174.4610  143.2930 C   0  0  0  0  0  2  0  0  0  0  0  0
  185.6470  177.6560  145.4170 C   0  0  0  0  0  0  0  0  0  0  0  0
  184.4890  178.0660  144.6920 N   0  0  0  0  0  0  0  0  0  0  0  0
  189.3370  176.1790  147.0080 C   0  0  0  0  0  2  0  0  0  0  0  0
  186.8950  176.5990  142.1990 C   0  0  1  0  0  3  0  0  0  0  0  0
  189.4400  174.0900  145.5220 C   0  0  0  0  0  2  0  0  0  0  0  0
  188.5400  175.9130  144.0650 C   0  0  0  0  0  0  0  0  0  0  0  0
  188.0790  175.8470  142.6740 N   0  0  0  0  0  0  0  0  0  0  0  0
  187.1140  177.2600  147.2630 C   0  0  0  0  0  3  0  0  0  0  0  0
  188.8750  175.2310  141.6850 N   0  0  0  0  0  2  0  0  0  0  0  0
  188.0540  176.6530  146.3960 C   0  0  0  0  0  0  0  0  0  0  0  0
  186.0890  177.0860  143.3650 C   0  0  0  0  0  0  0  0  0  0  0  0
  187.7720  176.5460  144.9970 C   0  0  0  0  0  0  0  0  0  0  0  0
  185.8910  177.7650  146.7800 C   0  0  0  0  0  3  0  0  0  0  0  0
  189.4880  174.0330  142.2370 C   0  0  0  0  0  2  0  0  0  0  0  0
  189.4740  174.6580  146.9440 C   0  0  0  0  0  2  0  0  0  0  0  0
  186.5590  177.0810  144.5810 C   0  0  0  0  0  0  0  0  0  0  0  0
  186.2210  178.3770  140.5360 C   0  0  0  0  0  2  0  0  0  0  0  0
  187.3590  177.7940  141.3520 C   0  0  2  0  0  3  0  0  0  0  0  0
  187.2920  177.5720  139.8330 C   0  0  1  0  0  3  0  0  0  0  0  0
  186.6920  176.2400  139.3920 C   0  0  0  0  0  2  0  0  0  0  0  0
  186.6860  176.1320  137.8740 C   0  0  0  0  0  2  0  0  0  0  0  0
  187.4700  174.9160  137.4080 C   0  0  0  0  0  3  0  0  0  0  0  0
  188.3300  175.2890  136.3770 O   0  0  0  0  0  1  0  0  0  0  0  0
  188.2170  174.3980  138.4670 O   0  0  0  0  0  1  0  0  0  0  0  0
  1  4  1  6  0  0  0
  1  9  1  0  0  0  0
  2  3  1  0  0  0  0
  3  6  2  0  0  0  0
  5 17  2  0  0  0  0
  6  5  1  0  0  0  0
  8 11  1  0  0  0  0
  8 15  1  1  0  0  0
  9 19  1  0  0  0  0
 10  1  1  0  0  0  0
 10 16  2  0  0  0  0
 11 10  1  0  0  0  0
 13 18  1  0  0  0  0
 13 11  1  0  0  0  0
 14  7  1  0  0  0  0
 14 12  2  0  0  0  0
 15  3  1  0  0  0  0
 15 20  2  0  0  0  0
 16 14  1  0  0  0  0
 17 12  1  0  0  0  0
 18  4  1  0  0  0  0
 19  7  1  0  0  0  0
 20 16  1  0  0  0  0
 20  5  1  0  0  0  0
 22 21  1  6  0  0  0
 22  8  1  0  0  0  0
 23 24  1  1  0  0  0
 23 21  1  0  0  0  0
 23 22  1  0  0  0  0
 25 24  1  0  0  0  0
 26 25  1  0  0  0  0
 26 28  1  0  0  0  0
 27 26  1  0  0  0  0
M  END
>  <MODEL>
7

>  <REMARK>
 VINA RESULT:      -6.7      3.527      6.508
  Name = 
  4 active torsions:
  status: ('A' for Active; 'I' for Inactive)
    1  A    between atoms: C_7  and  C_11
    2  A    between atoms: C_8  and  C_14
    3  A    between atoms: C_8  and  C_22
    4  A    between atoms: C_14  and  C_18
                            x       y       z     vdW  Elec       q    Type
                         _______ _______ _______ _____ _____    ______ ____

>  <TORSDO>
F 4

$$$$
=
 OpenBabel11062423123D

 28 33  0  0  1  0  0  0  0  0999 V2000
  190.4030  172.8370  142.2650 C   0  0  2  0  0  3  0  0  0  0  0  0
  188.2760  177.5480  146.7810 N   0  0  0  0  0  1  0  0  0  0  0  0
  189.3300  176.6800  146.3800 C   0  0  0  0  0  0  0  0  0  0  0  0
  189.3460  172.6290  141.1860 C   0  0  0  0  0  2  0  0  0  0  0  0
  191.1310  175.5280  146.3400 C   0  0  0  0  0  0  0  0  0  0  0  0
  190.3940  176.4810  147.1030 N   0  0  0  0  0  0  0  0  0  0  0  0
  192.8240  172.6770  143.6320 C   0  0  0  0  0  2  0  0  0  0  0  0
  188.4180  175.7990  143.9740 C   0  0  1  0  0  3  0  0  0  0  0  0
  190.6030  171.5370  143.0380 C   0  0  0  0  0  2  0  0  0  0  0  0
  190.0830  173.9770  143.2210 C   0  0  0  0  0  0  0  0  0  0  0  0
  188.7920  174.6620  143.1020 N   0  0  0  0  0  0  0  0  0  0  0  0
  192.8710  174.0060  145.7310 C   0  0  0  0  0  3  0  0  0  0  0  0
  187.9410  174.3990  142.0070 N   0  0  0  0  0  2  0  0  0  0  0  0
  192.1680  173.6610  144.5510 C   0  0  0  0  0  0  0  0  0  0  0  0
  189.3420  175.8720  145.1520 C   0  0  0  0  0  0  0  0  0  0  0  0
  190.9060  174.2730  144.2670 C   0  0  0  0  0  0  0  0  0  0  0  0
  192.3540  174.9430  146.6460 C   0  0  0  0  0  3  0  0  0  0  0  0
  187.9650  172.9750  141.7090 C   0  0  0  0  0  2  0  0  0  0  0  0
  192.0400  171.3680  143.5420 C   0  0  0  0  0  2  0  0  0  0  0  0
  190.4610  175.2040  145.1970 C   0  0  0  0  0  0  0  0  0  0  0  0
  187.9330  178.2780  143.9430 C   0  0  0  0  0  2  0  0  0  0  0  0
  188.4990  177.1040  143.1670 C   0  0  2  0  0  3  0  0  0  0  0  0
  187.1410  177.7110  142.7840 C   0  0  1  0  0  3  0  0  0  0  0  0
  185.9190  176.9820  143.3380 C   0  0  0  0  0  2  0  0  0  0  0  0
  184.6520  177.7770  143.0630 C   0  0  0  0  0  2  0  0  0  0  0  0
  184.2200  178.5610  144.2910 C   0  0  0  0  0  3  0  0  0  0  0  0
  184.6190  177.8770  145.4390 O   0  0  0  0  0  1  0  0  0  0  0  0
  184.8070  179.8260  144.2790 O   0  0  0  0  0  1  0  0  0  0  0  0
  1  4  1  6  0  0  0
  1  9  1  0  0  0  0
  1 10  1  0  0  0  0
  3  2  1  0  0  0  0
  3  6  2  0  0  0  0
  4 18  1  0  0  0  0
  5 17  2  0  0  0  0
  5  6  1  0  0  0  0
  7 14  1  0  0  0  0
  8 15  1  1  0  0  0
  9 19  1  0  0  0  0
 10 16  2  0  0  0  0
 11 10  1  0  0  0  0
 11  8  1  0  0  0  0
 12 17  1  0  0  0  0
 13 11  1  0  0  0  0
 14 12  2  0  0  0  0
 15 20  2  0  0  0  0
 15  3  1  0  0  0  0
 16 14  1  0  0  0  0
 16 20  1  0  0  0  0
 18 13  1  0  0  0  0
 19  7  1  0  0  0  0
 20  5  1  0  0  0  0
 22 21  1  1  0  0  0
 22  8  1  0  0  0  0
 23 22  1  0  0  0  0
 23 24  1  1  0  0  0
 23 21  1  0  0  0  0
 25 24  1  0  0  0  0
 25 26  1  0  0  0  0
 26 27  1  0  0  0  0
 28 26  1  0  0  0  0
M  END
>  <MODEL>
8

>  <REMARK>
 VINA RESULT:      -6.7      2.933      7.163
  Name = 
  4 active torsions:
  status: ('A' for Active; 'I' for Inactive)
    1  A    between atoms: C_7  and  C_11
    2  A    between atoms: C_8  and  C_14
    3  A    between atoms: C_8  and  C_22
    4  A    between atoms: C_14  and  C_18
                            x       y       z     vdW  Elec       q    Type
                         _______ _______ _______ _____ _____    ______ ____

>  <TORSDO>
F 4

$$$$
=
 OpenBabel11062423123D

 28 33  0  0  1  0  0  0  0  0999 V2000
  190.3750  172.4610  141.8040 C   0  0  2  0  0  3  0  0  0  0  0  0
  190.5450  176.5540  147.3110 N   0  0  0  0  0  1  0  0  0  0  0  0
  191.2470  175.6050  146.5170 C   0  0  0  0  0  0  0  0  0  0  0  0
  189.0590  172.6430  141.0550 C   0  0  0  0  0  2  0  0  0  0  0  0
  192.6830  174.1850  145.8140 C   0  0  0  0  0  0  0  0  0  0  0  0
  192.3890  175.0940  146.8730 N   0  0  0  0  0  0  0  0  0  0  0  0
  192.9690  171.6330  142.3890 C   0  0  0  0  0  2  0  0  0  0  0  0
  189.5850  175.3560  144.3790 C   0  0  1  0  0  3  0  0  0  0  0  0
  190.4770  171.0260  142.3120 C   0  0  0  0  0  2  0  0  0  0  0  0
  190.5650  173.4430  142.9510 C   0  0  0  0  0  0  0  0  0  0  0  0
  189.4670  174.3520  143.2960 N   0  0  0  0  0  0  0  0  0  0  0  0
  193.8360  172.5230  144.5410 C   0  0  0  0  0  3  0  0  0  0  0  0
  188.3300  174.4480  142.4660 N   0  0  0  0  0  2  0  0  0  0  0  0
  192.7990  172.5290  143.5770 C   0  0  0  0  0  0  0  0  0  0  0  0
  190.7700  175.0480  145.2430 C   0  0  0  0  0  0  0  0  0  0  0  0
  191.6710  173.3930  143.7470 C   0  0  0  0  0  0  0  0  0  0  0  0
  193.7850  173.3500  145.6790 C   0  0  0  0  0  3  0  0  0  0  0  0
  187.9660  173.1220  141.9910 C   0  0  0  0  0  2  0  0  0  0  0  0
  191.9220  170.5200  142.3570 C   0  0  0  0  0  2  0  0  0  0  0  0
  191.6900  174.1990  144.8790 C   0  0  0  0  0  0  0  0  0  0  0  0
  189.5670  177.8470  144.7960 C   0  0  0  0  0  2  0  0  0  0  0  0
  189.7400  176.7530  143.7590 C   0  0  2  0  0  3  0  0  0  0  0  0
  188.4680  177.6140  143.7820 C   0  0  1  0  0  3  0  0  0  0  0  0
  187.2700  176.9920  144.4950 C   0  0  0  0  0  2  0  0  0  0  0  0
  186.6340  177.9960  145.4450 C   0  0  0  0  0  2  0  0  0  0  0  0
  186.2410  177.3350  146.7570 C   0  0  0  0  0  3  0  0  0  0  0  0
  184.9690  176.7800  146.6310 O   0  0  0  0  0  1  0  0  0  0  0  0
  187.1550  176.3300  147.0750 O   0  0  0  0  0  1  0  0  0  0  0  0
  1  4  1  1  0  0  0
  1  9  1  0  0  0  0
  1 10  1  0  0  0  0
  3  6  2  0  0  0  0
  3  2  1  0  0  0  0
  4 18  1  0  0  0  0
  5  6  1  0  0  0  0
  7 14  1  0  0  0  0
  8 15  1  6  0  0  0
  9 19  1  0  0  0  0
 10 11  1  0  0  0  0
 10 16  2  0  0  0  0
 11  8  1  0  0  0  0
 12 17  1  0  0  0  0
 13 11  1  0  0  0  0
 14 16  1  0  0  0  0
 14 12  2  0  0  0  0
 15  3  1  0  0  0  0
 16 20  1  0  0  0  0
 17  5  2  0  0  0  0
 18 13  1  0  0  0  0
 19  7  1  0  0  0  0
 20 15  2  0  0  0  0
 20  5  1  0  0  0  0
 22 23  1  0  0  0  0
 22  8  1  0  0  0  0
 22 21  1  1  0  0  0
 23 24  1  1  0  0  0
 23 21  1  0  0  0  0
 24 25  1  0  0  0  0
 25 26  1  0  0  0  0
 26 28  1  0  0  0  0
 27 26  1  0  0  0  0
M  END
>  <MODEL>
9

>  <REMARK>
 VINA RESULT:      -6.5      3.098      7.195
  Name = 
  4 active torsions:
  status: ('A' for Active; 'I' for Inactive)
    1  A    between atoms: C_7  and  C_11
    2  A    between atoms: C_8  and  C_14
    3  A    between atoms: C_8  and  C_22
    4  A    between atoms: C_14  and  C_18
                            x       y       z     vdW  Elec       q    Type
                         _______ _______ _______ _____ _____    ______ ____

>  <TORSDO>
F 4

$$$$
