=
 OpenBabel11062423093D

 28 31  0  0  1  0  0  0  0  0999 V2000
  190.6110  177.8610  144.9060 C   0  0  1  0  0  3  0  0  0  0  0  0
  190.4060  176.8570  146.0480 C   0  0  0  0  0  2  0  0  0  0  0  0
  192.4910  176.2880  144.2500 C   0  0  0  0  0  2  0  0  0  0  0  0
  192.6790  175.8110  145.7000 C   0  0  2  0  0  3  0  0  0  0  0  0
  191.9670  177.7230  144.1930 C   0  0  0  0  0  2  0  0  0  0  0  0
  191.5000  175.6350  147.7840 O   0  0  0  0  0  1  0  0  0  0  0  0
  191.7340  176.4890  146.7050 C   0  0  2  0  0  3  0  0  0  0  0  0
  189.4830  177.7580  143.9310 C   0  0  0  0  0  0  0  0  0  0  0  0
  188.3610  177.8550  142.1740 C   0  0  0  0  0  0  0  0  0  0  0  0
  189.6270  177.9890  142.6070 N   0  0  0  0  0  0  0  0  0  0  0  0
  187.5060  177.5600  143.1690 N   0  0  0  0  0  0  0  0  0  0  0  0
  188.0210  178.0010  140.9710 O   0  0  0  0  0  0  0  0  0  0  0  0
  188.2040  177.5210  144.2900 N   0  0  0  0  0  2  0  0  0  0  0  0
  185.9850  179.0590  145.4150 C   0  0  1  0  0  3  0  0  0  0  0  0
  185.6030  176.7800  145.5660 C   0  0  0  0  0  2  0  0  0  0  0  0
  185.4270  179.7640  144.1960 C   0  0  0  0  0  2  0  0  0  0  0  0
  185.4660  176.3970  144.0830 C   0  0  0  0  0  2  0  0  0  0  0  0
  185.3140  179.1170  146.7690 C   0  0  0  0  0  2  0  0  0  0  0  0
  186.0460  177.4270  143.0740 C   0  0  1  0  0  3  0  0  0  0  0  0
  184.8760  178.0850  145.7550 C   0  0  1  0  0  3  0  0  0  0  0  0
  185.2920  178.7890  142.9940 C   0  0  0  0  0  2  0  0  0  0  0  0
  194.4970  177.0300  146.6630 O   0  0  0  0  0  0  0  0  0  0  0  0
  194.1020  175.9560  146.1310 C   0  0  0  0  0  0  0  0  0  0  0  0
  195.9710  174.9090  145.0810 C   0  0  0  0  0  3  0  0  0  0  0  0
  195.0020  174.8620  145.9370 N   0  0  0  0  0  0  0  0  0  0  0  0
  196.8930  173.7470  144.9070 C   0  0  0  0  0  2  0  0  0  0  0  0
  196.6390  171.4530  145.8620 C   0  0  0  0  0  1  0  0  0  0  0  0
  196.9600  172.9040  146.1710 C   0  0  0  0  0  2  0  0  0  0  0  0
  1  8  1  6  0  0  0
  1  2  1  0  0  0  0
  2  7  1  0  0  0  0
  3  4  1  0  0  0  0
  4 23  1  1  0  0  0
  4  7  1  0  0  0  0
  5  3  1  0  0  0  0
  5  1  1  0  0  0  0
  7  6  1  1  0  0  0
  8 13  1  0  0  0  0
  9 10  1  0  0  0  0
  9 11  1  0  0  0  0
 10  8  2  0  0  0  0
 11 13  1  0  0  0  0
 12  9  2  0  0  0  0
 14 16  1  6  0  0  0
 14 20  1  0  0  0  0
 14 18  1  0  0  0  0
 17 15  1  0  0  0  0
 19 21  1  1  0  0  0
 19 11  1  0  0  0  0
 19 17  1  0  0  0  0
 20 15  1  1  0  0  0
 20 18  1  0  0  0  0
 21 16  1  0  0  0  0
 23 22  2  0  0  0  0
 24 25  2  0  0  0  0
 25 23  1  0  0  0  0
 26 24  1  0  0  0  0
 26 28  1  0  0  0  0
 27 28  1  0  0  0  0
M  END
>  <MODEL>
1

>  <REMARK>
 VINA RESULT:      -7.8      0.000      0.000
  Name = 
  6 active torsions:
  status: ('A' for Active; 'I' for Inactive)
    1  A    between atoms: C_4  and  C_6
    2  A    between atoms: C_7  and  C_16
    3  A    between atoms: C_7  and  C_21
    4  A    between atoms: N_11  and  C_14
    5  A    between atoms: C_18  and  N_22
    6  A    between atoms: C_18  and  C_23
                            x       y       z     vdW  Elec       q    Type
                         _______ _______ _______ _____ _____    ______ ____

>  <TORSDO>
F 6

$$$$
=
 OpenBabel11062423093D

 28 31  0  0  1  0  0  0  0  0999 V2000
  188.5670  177.5920  142.6250 C   0  0  1  0  0  3  0  0  0  0  0  0
  187.7120  177.6700  141.3520 C   0  0  0  0  0  2  0  0  0  0  0  0
  186.4510  176.6240  143.6370 C   0  0  0  0  0  2  0  0  0  0  0  0
  185.5560  177.3740  142.6360 C   0  0  2  0  0  3  0  0  0  0  0  0
  187.7480  177.3830  143.9110 C   0  0  0  0  0  2  0  0  0  0  0  0
  185.6160  178.3830  140.4580 O   0  0  0  0  0  1  0  0  0  0  0  0
  186.3350  178.2580  141.6480 C   0  0  2  0  0  3  0  0  0  0  0  0
  189.6050  176.5270  142.4750 C   0  0  0  0  0  0  0  0  0  0  0  0
  190.5340  174.6980  142.0930 C   0  0  0  0  0  0  0  0  0  0  0  0
  189.3450  175.3100  141.9480 N   0  0  0  0  0  0  0  0  0  0  0  0
  191.4550  175.4920  142.6660 N   0  0  0  0  0  0  0  0  0  0  0  0
  190.7490  173.5100  141.7370 O   0  0  0  0  0  0  0  0  0  0  0  0
  190.8690  176.6450  142.9330 N   0  0  0  0  0  2  0  0  0  0  0  0
  191.7600  174.8480  145.6820 C   0  0  1  0  0  3  0  0  0  0  0  0
  193.0270  176.7050  145.1230 C   0  0  0  0  0  2  0  0  0  0  0  0
  192.1880  173.5250  145.0800 C   0  0  0  0  0  2  0  0  0  0  0  0
  193.5850  176.2880  143.7510 C   0  0  0  0  0  2  0  0  0  0  0  0
  192.0810  175.2370  147.1080 C   0  0  0  0  0  2  0  0  0  0  0  0
  192.8250  175.1290  143.0490 C   0  0  1  0  0  3  0  0  0  0  0  0
  193.0910  175.4930  146.0130 C   0  0  1  0  0  3  0  0  0  0  0  0
  192.9400  173.7350  143.7370 C   0  0  0  0  0  2  0  0  0  0  0  0
  183.3790  178.3480  142.8130 O   0  0  0  0  0  0  0  0  0  0  0  0
  184.5090  178.1690  143.3450 C   0  0  0  0  0  0  0  0  0  0  0  0
  184.3530  178.1890  145.7260 C   0  0  0  0  0  3  0  0  0  0  0  0
  184.8050  178.7150  144.6330 N   0  0  0  0  0  0  0  0  0  0  0  0
  184.6830  178.7860  147.0540 C   0  0  0  0  0  2  0  0  0  0  0  0
  186.3070  176.9190  147.4010 C   0  0  0  0  0  1  0  0  0  0  0  0
  186.0960  178.4190  147.4860 C   0  0  0  0  0  2  0  0  0  0  0  0
  1  8  1  6  0  0  0
  1  5  1  0  0  0  0
  2  7  1  0  0  0  0
  2  1  1  0  0  0  0
  3  5  1  0  0  0  0
  4 23  1  1  0  0  0
  4  3  1  0  0  0  0
  7  6  1  6  0  0  0
  7  4  1  0  0  0  0
  8 13  1  0  0  0  0
  9 11  1  0  0  0  0
 10  9  1  0  0  0  0
 10  8  2  0  0  0  0
 11 13  1  0  0  0  0
 12  9  2  0  0  0  0
 14 16  1  1  0  0  0
 14 20  1  0  0  0  0
 14 18  1  0  0  0  0
 17 15  1  0  0  0  0
 19 11  1  1  0  0  0
 19 21  1  0  0  0  0
 19 17  1  0  0  0  0
 20 15  1  6  0  0  0
 20 18  1  0  0  0  0
 21 16  1  0  0  0  0
 22 23  2  0  0  0  0
 23 25  1  0  0  0  0
 24 26  1  0  0  0  0
 25 24  2  0  0  0  0
 26 28  1  0  0  0  0
 27 28  1  0  0  0  0
M  END
>  <MODEL>
2

>  <REMARK>
 VINA RESULT:      -7.5      3.021      8.245
  Name = 
  6 active torsions:
  status: ('A' for Active; 'I' for Inactive)
    1  A    between atoms: C_4  and  C_6
    2  A    between atoms: C_7  and  C_16
    3  A    between atoms: C_7  and  C_21
    4  A    between atoms: N_11  and  C_14
    5  A    between atoms: C_18  and  N_22
    6  A    between atoms: C_18  and  C_23
                            x       y       z     vdW  Elec       q    Type
                         _______ _______ _______ _____ _____    ______ ____

>  <TORSDO>
F 6

$$$$
=
 OpenBabel11062423093D

 28 31  0  0  1  0  0  0  0  0999 V2000
  189.4210  177.2900  143.9460 C   0  0  1  0  0  3  0  0  0  0  0  0
  189.2170  177.2380  142.4250 C   0  0  0  0  0  2  0  0  0  0  0  0
  187.0550  176.3750  144.0000 C   0  0  0  0  0  2  0  0  0  0  0  0
  186.7100  177.0150  142.6460 C   0  0  2  0  0  3  0  0  0  0  0  0
  188.1140  177.1800  144.7510 C   0  0  0  0  0  2  0  0  0  0  0  0
  187.7460  177.8280  140.6390 O   0  0  0  0  0  1  0  0  0  0  0  0
  187.8640  177.8240  142.0290 C   0  0  2  0  0  3  0  0  0  0  0  0
  190.3950  176.2370  144.3630 C   0  0  0  0  0  0  0  0  0  0  0  0
  191.3060  174.3860  144.6800 C   0  0  0  0  0  0  0  0  0  0  0  0
  190.2650  174.9340  144.0270 N   0  0  0  0  0  0  0  0  0  0  0  0
  192.0210  175.2960  145.3630 N   0  0  0  0  0  0  0  0  0  0  0  0
  191.5680  173.1560  144.6550 O   0  0  0  0  0  0  0  0  0  0  0  0
  191.4380  176.4680  145.1890 N   0  0  0  0  0  2  0  0  0  0  0  0
  194.6780  176.5010  144.3170 C   0  0  1  0  0  3  0  0  0  0  0  0
  194.8260  174.1920  144.4200 C   0  0  0  0  0  2  0  0  0  0  0  0
  194.5510  177.2350  145.6370 C   0  0  0  0  0  2  0  0  0  0  0  0
  194.0860  173.9000  145.7360 C   0  0  0  0  0  2  0  0  0  0  0  0
  195.9820  176.4080  143.5580 C   0  0  0  0  0  2  0  0  0  0  0  0
  193.1650  175.0430  146.2490 C   0  0  1  0  0  3  0  0  0  0  0  0
  195.6770  175.4130  144.6530 C   0  0  1  0  0  3  0  0  0  0  0  0
  193.8970  176.3350  146.7210 C   0  0  0  0  0  2  0  0  0  0  0  0
  185.0870  178.5320  141.7580 O   0  0  0  0  0  0  0  0  0  0  0  0
  185.4750  177.8500  142.7470 C   0  0  0  0  0  0  0  0  0  0  0  0
  184.5690  178.9350  144.6690 C   0  0  0  0  0  3  0  0  0  0  0  0
  184.7400  177.8570  143.9740 N   0  0  0  0  0  0  0  0  0  0  0  0
  183.7940  178.9060  145.9450 C   0  0  0  0  0  2  0  0  0  0  0  0
  185.9050  178.9440  147.2810 C   0  0  0  0  0  1  0  0  0  0  0  0
  184.5860  178.2280  147.0540 C   0  0  0  0  0  2  0  0  0  0  0  0
  1  8  1  1  0  0  0
  1  5  1  0  0  0  0
  2  1  1  0  0  0  0
  3  5  1  0  0  0  0
  4 23  1  1  0  0  0
  4  3  1  0  0  0  0
  7  6  1  6  0  0  0
  7  2  1  0  0  0  0
  7  4  1  0  0  0  0
  8 13  1  0  0  0  0
  9 11  1  0  0  0  0
 10  8  2  0  0  0  0
 10  9  1  0  0  0  0
 12  9  2  0  0  0  0
 13 11  1  0  0  0  0
 14 18  1  6  0  0  0
 14 20  1  0  0  0  0
 14 16  1  0  0  0  0
 15 20  1  0  0  0  0
 15 17  1  0  0  0  0
 16 21  1  0  0  0  0
 17 19  1  0  0  0  0
 19 11  1  6  0  0  0
 19 21  1  0  0  0  0
 20 18  1  6  0  0  0
 22 23  2  0  0  0  0
 23 25  1  0  0  0  0
 24 26  1  0  0  0  0
 25 24  2  0  0  0  0
 26 28  1  0  0  0  0
 28 27  1  0  0  0  0
M  END
>  <MODEL>
3

>  <REMARK>
 VINA RESULT:      -7.3      2.299      8.750
  Name = 
  6 active torsions:
  status: ('A' for Active; 'I' for Inactive)
    1  A    between atoms: C_4  and  C_6
    2  A    between atoms: C_7  and  C_16
    3  A    between atoms: C_7  and  C_21
    4  A    between atoms: N_11  and  C_14
    5  A    between atoms: C_18  and  N_22
    6  A    between atoms: C_18  and  C_23
                            x       y       z     vdW  Elec       q    Type
                         _______ _______ _______ _____ _____    ______ ____

>  <TORSDO>
F 6

$$$$
=
 OpenBabel11062423093D

 28 31  0  0  1  0  0  0  0  0999 V2000
  187.7570  176.1170  146.2830 C   0  0  1  0  0  3  0  0  0  0  0  0
  186.9040  176.9690  147.2330 C   0  0  0  0  0  2  0  0  0  0  0  0
  187.3420  178.0290  144.6670 C   0  0  0  0  0  2  0  0  0  0  0  0
  186.0160  178.4000  145.3510 C   0  0  2  0  0  3  0  0  0  0  0  0
  187.6500  176.5390  144.8070 C   0  0  0  0  0  2  0  0  0  0  0  0
  184.8660  178.1940  147.4480 O   0  0  0  0  0  1  0  0  0  0  0  0
  185.6510  177.4900  146.5350 C   0  0  2  0  0  3  0  0  0  0  0  0
  189.1800  176.1200  146.7370 C   0  0  0  0  0  0  0  0  0  0  0  0
  190.9790  176.6850  147.6310 C   0  0  0  0  0  0  0  0  0  0  0  0
  189.6830  177.0420  147.5880 N   0  0  0  0  0  0  0  0  0  0  0  0
  191.2450  175.6160  146.8610 N   0  0  0  0  0  0  0  0  0  0  0  0
  191.8430  177.2960  148.3130 O   0  0  0  0  0  0  0  0  0  0  0  0
  190.1160  175.2650  146.2710 N   0  0  0  0  0  2  0  0  0  0  0  0
  192.5330  176.5460  144.2000 C   0  0  1  0  0  3  0  0  0  0  0  0
  192.1150  174.2690  144.1400 C   0  0  0  0  0  2  0  0  0  0  0  0
  193.5810  177.0200  145.1860 C   0  0  0  0  0  2  0  0  0  0  0  0
  192.4990  173.8530  145.5700 C   0  0  0  0  0  2  0  0  0  0  0  0
  192.8170  176.3880  142.7230 C   0  0  0  0  0  2  0  0  0  0  0  0
  192.5580  175.0100  146.6060 C   0  0  1  0  0  3  0  0  0  0  0  0
  193.1470  175.2630  143.6770 C   0  0  1  0  0  3  0  0  0  0  0  0
  193.7010  176.0470  146.3920 C   0  0  0  0  0  2  0  0  0  0  0  0
  183.8150  179.0270  144.6550 O   0  0  0  0  0  0  0  0  0  0  0  0
  184.8990  178.4530  144.3600 C   0  0  0  0  0  0  0  0  0  0  0  0
  185.3720  178.5440  142.0230 C   0  0  0  0  0  3  0  0  0  0  0  0
  185.0810  177.8500  143.0750 N   0  0  0  0  0  0  0  0  0  0  0  0
  185.5550  177.8810  140.6970 C   0  0  0  0  0  2  0  0  0  0  0  0
  187.9930  177.9310  141.2450 C   0  0  0  0  0  1  0  0  0  0  0  0
  186.8660  177.1100  140.6450 C   0  0  0  0  0  2  0  0  0  0  0  0
  1  8  1  1  0  0  0
  1  2  1  0  0  0  0
  3  5  1  0  0  0  0
  3  4  1  0  0  0  0
  4 23  1  6  0  0  0
  4  7  1  0  0  0  0
  5  1  1  0  0  0  0
  7  2  1  0  0  0  0
  7  6  1  1  0  0  0
  8 10  2  0  0  0  0
  9 12  2  0  0  0  0
 10  9  1  0  0  0  0
 11  9  1  0  0  0  0
 13  8  1  0  0  0  0
 13 11  1  0  0  0  0
 14 18  1  6  0  0  0
 14 16  1  0  0  0  0
 15 17  1  0  0  0  0
 16 21  1  0  0  0  0
 19 17  1  6  0  0  0
 19 11  1  0  0  0  0
 20 18  1  6  0  0  0
 20 15  1  0  0  0  0
 20 14  1  0  0  0  0
 21 19  1  0  0  0  0
 23 22  2  0  0  0  0
 24 25  2  0  0  0  0
 25 23  1  0  0  0  0
 26 24  1  0  0  0  0
 28 26  1  0  0  0  0
 28 27  1  0  0  0  0
M  END
>  <MODEL>
4

>  <REMARK>
 VINA RESULT:      -7.3      2.704      8.168
  Name = 
  6 active torsions:
  status: ('A' for Active; 'I' for Inactive)
    1  A    between atoms: C_4  and  C_6
    2  A    between atoms: C_7  and  C_16
    3  A    between atoms: C_7  and  C_21
    4  A    between atoms: N_11  and  C_14
    5  A    between atoms: C_18  and  N_22
    6  A    between atoms: C_18  and  C_23
                            x       y       z     vdW  Elec       q    Type
                         _______ _______ _______ _____ _____    ______ ____

>  <TORSDO>
F 6

$$$$
=
 OpenBabel11062423093D

 28 31  0  0  1  0  0  0  0  0999 V2000
  186.6870  176.9050  145.0380 C   0  0  1  0  0  3  0  0  0  0  0  0
  186.3880  178.4100  145.0760 C   0  0  0  0  0  2  0  0  0  0  0  0
  187.1180  177.3500  142.5770 C   0  0  0  0  0  2  0  0  0  0  0  0
  186.1610  178.5530  142.5640 C   0  0  2  0  0  3  0  0  0  0  0  0
  186.7030  176.3110  143.6180 C   0  0  0  0  0  2  0  0  0  0  0  0
  185.1730  180.1790  144.0290 O   0  0  0  0  0  1  0  0  0  0  0  0
  185.4830  178.8230  143.9180 C   0  0  2  0  0  3  0  0  0  0  0  0
  187.9720  176.6240  145.7480 C   0  0  0  0  0  0  0  0  0  0  0  0
  189.6510  176.8260  146.9700 C   0  0  0  0  0  0  0  0  0  0  0  0
  188.4870  177.4400  146.6950 N   0  0  0  0  0  0  0  0  0  0  0  0
  189.8290  175.7100  146.2420 N   0  0  0  0  0  0  0  0  0  0  0  0
  190.4800  177.2600  147.8120 O   0  0  0  0  0  0  0  0  0  0  0  0
  188.7820  175.5870  145.4470 N   0  0  0  0  0  2  0  0  0  0  0  0
  191.7960  176.3640  143.9390 C   0  0  1  0  0  3  0  0  0  0  0  0
  190.9420  174.2270  143.6850 C   0  0  0  0  0  2  0  0  0  0  0  0
  192.6960  176.6010  145.1350 C   0  0  0  0  0  2  0  0  0  0  0  0
  190.9320  173.7300  145.1410 C   0  0  0  0  0  2  0  0  0  0  0  0
  192.3370  176.1600  142.5410 C   0  0  0  0  0  2  0  0  0  0  0  0
  191.0140  174.8420  146.2230 C   0  0  1  0  0  3  0  0  0  0  0  0
  192.2280  174.9840  143.4850 C   0  0  1  0  0  3  0  0  0  0  0  0
  192.3650  175.6170  146.2910 C   0  0  0  0  0  2  0  0  0  0  0  0
  185.4940  178.4460  140.2700 O   0  0  0  0  0  0  0  0  0  0  0  0
  185.1410  178.4140  141.4810 C   0  0  0  0  0  0  0  0  0  0  0  0
  182.8220  178.2220  140.9550 C   0  0  0  0  0  3  0  0  0  0  0  0
  183.7670  178.2390  141.8380 N   0  0  0  0  0  0  0  0  0  0  0  0
  181.3980  178.0360  141.3640 C   0  0  0  0  0  2  0  0  0  0  0  0
  180.0980  180.0540  140.6710 C   0  0  0  0  0  1  0  0  0  0  0  0
  180.7830  179.3480  141.8270 C   0  0  0  0  0  2  0  0  0  0  0  0
  1  2  1  0  0  0  0
  1  8  1  6  0  0  0
  3  5  1  0  0  0  0
  4 23  1  6  0  0  0
  4  3  1  0  0  0  0
  4  7  1  0  0  0  0
  5  1  1  0  0  0  0
  7  6  1  1  0  0  0
  7  2  1  0  0  0  0
  8 10  2  0  0  0  0
  9 12  2  0  0  0  0
 10  9  1  0  0  0  0
 11  9  1  0  0  0  0
 13  8  1  0  0  0  0
 13 11  1  0  0  0  0
 14 18  1  6  0  0  0
 14 16  1  0  0  0  0
 15 17  1  0  0  0  0
 16 21  1  0  0  0  0
 19 17  1  6  0  0  0
 19 11  1  0  0  0  0
 19 21  1  0  0  0  0
 20 18  1  6  0  0  0
 20 15  1  0  0  0  0
 20 14  1  0  0  0  0
 22 23  2  0  0  0  0
 23 25  1  0  0  0  0
 24 26  1  0  0  0  0
 24 25  2  0  0  0  0
 26 28  1  0  0  0  0
 27 28  1  0  0  0  0
M  END
>  <MODEL>
5

>  <REMARK>
 VINA RESULT:      -7.2      2.845      9.276
  Name = 
  6 active torsions:
  status: ('A' for Active; 'I' for Inactive)
    1  A    between atoms: C_4  and  C_6
    2  A    between atoms: C_7  and  C_16
    3  A    between atoms: C_7  and  C_21
    4  A    between atoms: N_11  and  C_14
    5  A    between atoms: C_18  and  N_22
    6  A    between atoms: C_18  and  C_23
                            x       y       z     vdW  Elec       q    Type
                         _______ _______ _______ _____ _____    ______ ____

>  <TORSDO>
F 6

$$$$
=
 OpenBabel11062423093D

 28 31  0  0  1  0  0  0  0  0999 V2000
  189.1660  177.9080  143.3610 C   0  0  1  0  0  3  0  0  0  0  0  0
  188.5530  177.9330  141.9540 C   0  0  0  0  0  2  0  0  0  0  0  0
  187.1770  176.4210  143.8840 C   0  0  0  0  0  2  0  0  0  0  0  0
  186.3280  177.0640  142.7750 C   0  0  2  0  0  3  0  0  0  0  0  0
  188.2020  177.4040  144.4490 C   0  0  0  0  0  2  0  0  0  0  0  0
  186.5410  178.2760  140.7150 O   0  0  0  0  0  1  0  0  0  0  0  0
  187.0490  178.1860  142.0110 C   0  0  2  0  0  3  0  0  0  0  0  0
  190.4270  177.1060  143.3520 C   0  0  0  0  0  0  0  0  0  0  0  0
  192.3730  176.4680  142.9500 C   0  0  0  0  0  0  0  0  0  0  0  0
  191.5710  177.5340  142.7730 N   0  0  0  0  0  0  0  0  0  0  0  0
  191.7570  175.4630  143.5960 N   0  0  0  0  0  0  0  0  0  0  0  0
  193.5630  176.4230  142.5440 O   0  0  0  0  0  0  0  0  0  0  0  0
  190.5160  175.8480  143.8330 N   0  0  0  0  0  2  0  0  0  0  0  0
  190.0020  173.1570  142.4980 C   0  0  1  0  0  3  0  0  0  0  0  0
  190.1030  173.0620  144.8100 C   0  0  0  0  0  2  0  0  0  0  0  0
  191.2920  172.8930  141.7490 C   0  0  0  0  0  2  0  0  0  0  0  0
  191.5760  173.4220  145.0640 C   0  0  0  0  0  2  0  0  0  0  0  0
  188.9170  172.1140  142.6450 C   0  0  0  0  0  2  0  0  0  0  0  0
  192.3000  174.1290  143.8840 C   0  0  1  0  0  3  0  0  0  0  0  0
  190.0710  172.1400  143.6190 C   0  0  1  0  0  3  0  0  0  0  0  0
  192.5300  173.2540  142.6150 C   0  0  0  0  0  2  0  0  0  0  0  0
  184.1100  177.9230  142.5260 O   0  0  0  0  0  0  0  0  0  0  0  0
  185.0210  177.5470  143.3140 C   0  0  0  0  0  0  0  0  0  0  0  0
  184.7570  178.6720  145.4020 C   0  0  0  0  0  3  0  0  0  0  0  0
  184.8180  177.5680  144.7300 N   0  0  0  0  0  0  0  0  0  0  0  0
  184.5430  178.6570  146.8790 C   0  0  0  0  0  2  0  0  0  0  0  0
  186.3200  177.0700  147.6300 C   0  0  0  0  0  1  0  0  0  0  0  0
  185.8620  178.5170  147.6250 C   0  0  0  0  0  2  0  0  0  0  0  0
  1  8  1  6  0  0  0
  1  5  1  0  0  0  0
  2  7  1  0  0  0  0
  2  1  1  0  0  0  0
  3  5  1  0  0  0  0
  4 23  1  1  0  0  0
  4  3  1  0  0  0  0
  7  6  1  6  0  0  0
  7  4  1  0  0  0  0
  8 13  1  0  0  0  0
  9 11  1  0  0  0  0
 10  9  1  0  0  0  0
 10  8  2  0  0  0  0
 11 13  1  0  0  0  0
 11 19  1  0  0  0  0
 12  9  2  0  0  0  0
 14 16  1  6  0  0  0
 14 18  1  0  0  0  0
 14 20  1  0  0  0  0
 15 17  1  0  0  0  0
 16 21  1  0  0  0  0
 19 21  1  6  0  0  0
 19 17  1  0  0  0  0
 20 18  1  1  0  0  0
 20 15  1  0  0  0  0
 22 23  2  0  0  0  0
 23 25  1  0  0  0  0
 24 26  1  0  0  0  0
 25 24  2  0  0  0  0
 26 28  1  0  0  0  0
 28 27  1  0  0  0  0
M  END
>  <MODEL>
6

>  <REMARK>
 VINA RESULT:      -6.9      2.975      8.011
  Name = 
  6 active torsions:
  status: ('A' for Active; 'I' for Inactive)
    1  A    between atoms: C_4  and  C_6
    2  A    between atoms: C_7  and  C_16
    3  A    between atoms: C_7  and  C_21
    4  A    between atoms: N_11  and  C_14
    5  A    between atoms: C_18  and  N_22
    6  A    between atoms: C_18  and  C_23
                            x       y       z     vdW  Elec       q    Type
                         _______ _______ _______ _____ _____    ______ ____

>  <TORSDO>
F 6

$$$$
=
 OpenBabel11062423093D

 28 31  0  0  1  0  0  0  0  0999 V2000
  190.0730  175.3830  144.0940 C   0  0  1  0  0  3  0  0  0  0  0  0
  190.1990  174.8600  145.5320 C   0  0  0  0  0  2  0  0  0  0  0  0
  189.1970  177.4700  145.2420 C   0  0  0  0  0  2  0  0  0  0  0  0
  188.6930  176.6670  146.4520 C   0  0  2  0  0  3  0  0  0  0  0  0
  189.1820  176.6310  143.9640 C   0  0  0  0  0  2  0  0  0  0  0  0
  189.0600  174.5980  147.6140 O   0  0  0  0  0  1  0  0  0  0  0  0
  188.9380  175.1530  146.3400 C   0  0  2  0  0  3  0  0  0  0  0  0
  191.4310  175.6340  143.5240 C   0  0  0  0  0  0  0  0  0  0  0  0
  193.0610  175.6820  142.2220 C   0  0  0  0  0  0  0  0  0  0  0  0
  191.7510  175.3780  142.2360 N   0  0  0  0  0  0  0  0  0  0  0  0
  193.5050  176.0990  143.4210 N   0  0  0  0  0  0  0  0  0  0  0  0
  193.7860  175.5770  141.1980 O   0  0  0  0  0  0  0  0  0  0  0  0
  192.4850  176.0490  144.2580 N   0  0  0  0  0  2  0  0  0  0  0  0
  195.0780  173.7030  144.5980 C   0  0  1  0  0  3  0  0  0  0  0  0
  194.8650  175.3810  146.1790 C   0  0  0  0  0  2  0  0  0  0  0  0
  195.9310  174.0130  143.3850 C   0  0  0  0  0  2  0  0  0  0  0  0
  195.0750  176.6380  145.3170 C   0  0  0  0  0  2  0  0  0  0  0  0
  195.5810  172.8710  145.7570 C   0  0  0  0  0  2  0  0  0  0  0  0
  194.8880  176.4330  143.7880 C   0  0  1  0  0  3  0  0  0  0  0  0
  195.8650  174.3550  145.7160 C   0  0  1  0  0  3  0  0  0  0  0  0
  195.9580  175.5390  143.0930 C   0  0  0  0  0  2  0  0  0  0  0  0
  186.6710  176.4140  147.7040 O   0  0  0  0  0  0  0  0  0  0  0  0
  187.2510  176.9510  146.7210 C   0  0  0  0  0  0  0  0  0  0  0  0
  185.2900  177.6860  145.5770 C   0  0  0  0  0  3  0  0  0  0  0  0
  186.5450  177.8420  145.8530 N   0  0  0  0  0  0  0  0  0  0  0  0
  184.5850  178.6370  144.6680 C   0  0  0  0  0  2  0  0  0  0  0  0
  186.0190  179.0180  142.6580 C   0  0  0  0  0  1  0  0  0  0  0  0
  185.5670  179.5830  143.9920 C   0  0  0  0  0  2  0  0  0  0  0  0
  1  8  1  1  0  0  0
  1  2  1  0  0  0  0
  2  7  1  0  0  0  0
  3  4  1  0  0  0  0
  4 23  1  6  0  0  0
  5  1  1  0  0  0  0
  5  3  1  0  0  0  0
  7  4  1  0  0  0  0
  7  6  1  1  0  0  0
  8 13  1  0  0  0  0
  9 10  1  0  0  0  0
  9 11  1  0  0  0  0
 10  8  2  0  0  0  0
 11 19  1  0  0  0  0
 11 13  1  0  0  0  0
 12  9  2  0  0  0  0
 14 16  1  6  0  0  0
 14 20  1  0  0  0  0
 14 18  1  0  0  0  0
 17 15  1  0  0  0  0
 19 21  1  1  0  0  0
 19 17  1  0  0  0  0
 20 18  1  1  0  0  0
 20 15  1  0  0  0  0
 21 16  1  0  0  0  0
 23 22  2  0  0  0  0
 24 25  2  0  0  0  0
 25 23  1  0  0  0  0
 26 24  1  0  0  0  0
 27 28  1  0  0  0  0
 28 26  1  0  0  0  0
M  END
>  <MODEL>
7

>  <REMARK>
 VINA RESULT:      -6.9      2.446      8.415
  Name = 
  6 active torsions:
  status: ('A' for Active; 'I' for Inactive)
    1  A    between atoms: C_4  and  C_6
    2  A    between atoms: C_7  and  C_16
    3  A    between atoms: C_7  and  C_21
    4  A    between atoms: N_11  and  C_14
    5  A    between atoms: C_18  and  N_22
    6  A    between atoms: C_18  and  C_23
                            x       y       z     vdW  Elec       q    Type
                         _______ _______ _______ _____ _____    ______ ____

>  <TORSDO>
F 6

$$$$
=
 OpenBabel11062423093D

 28 31  0  0  1  0  0  0  0  0999 V2000
  191.2180  177.2100  143.1910 C   0  0  1  0  0  3  0  0  0  0  0  0
  190.4000  176.0030  142.7100 C   0  0  0  0  0  2  0  0  0  0  0  0
  189.1770  177.6480  144.6340 C   0  0  0  0  0  2  0  0  0  0  0  0
  188.2450  176.9390  143.6370 C   0  0  2  0  0  3  0  0  0  0  0  0
  190.3840  178.2690  143.9320 C   0  0  0  0  0  2  0  0  0  0  0  0
  188.2730  175.3000  141.8840 O   0  0  0  0  0  1  0  0  0  0  0  0
  188.9630  176.4030  142.3880 C   0  0  2  0  0  3  0  0  0  0  0  0
  192.3610  176.7450  144.0350 C   0  0  0  0  0  0  0  0  0  0  0  0
  193.6050  176.3880  145.6720 C   0  0  0  0  0  0  0  0  0  0  0  0
  192.3770  176.8540  145.3830 N   0  0  0  0  0  0  0  0  0  0  0  0
  194.2870  176.0170  144.5740 N   0  0  0  0  0  0  0  0  0  0  0  0
  194.0610  176.3180  146.8430 O   0  0  0  0  0  0  0  0  0  0  0  0
  193.5160  176.2630  143.5300 N   0  0  0  0  0  2  0  0  0  0  0  0
  194.5740  173.2090  143.2980 C   0  0  1  0  0  3  0  0  0  0  0  0
  195.2720  173.1640  145.5050 C   0  0  0  0  0  2  0  0  0  0  0  0
  195.4100  174.0280  142.3350 C   0  0  0  0  0  2  0  0  0  0  0  0
  196.0150  174.5070  145.6150 C   0  0  0  0  0  2  0  0  0  0  0  0
  194.6740  171.7020  143.3850 C   0  0  0  0  0  2  0  0  0  0  0  0
  195.6760  175.5450  144.5100 C   0  0  1  0  0  3  0  0  0  0  0  0
  195.6330  172.5670  144.1720 C   0  0  1  0  0  3  0  0  0  0  0  0
  196.1510  175.1780  143.0720 C   0  0  0  0  0  2  0  0  0  0  0  0
  187.1880  178.5630  142.2340 O   0  0  0  0  0  0  0  0  0  0  0  0
  187.1020  177.8220  143.2520 C   0  0  0  0  0  0  0  0  0  0  0  0
  185.5120  178.8470  144.7060 C   0  0  0  0  0  3  0  0  0  0  0  0
  185.9140  177.8080  144.0480 N   0  0  0  0  0  0  0  0  0  0  0  0
  184.2660  178.7980  145.5260 C   0  0  0  0  0  2  0  0  0  0  0  0
  185.8230  179.0420  147.4650 C   0  0  0  0  0  1  0  0  0  0  0  0
  184.5650  178.3640  146.9540 C   0  0  0  0  0  2  0  0  0  0  0  0
  1  5  1  0  0  0  0
  1  8  1  1  0  0  0
  2  1  1  0  0  0  0
  4 23  1  6  0  0  0
  4  3  1  0  0  0  0
  5  3  1  0  0  0  0
  7  6  1  1  0  0  0
  7  2  1  0  0  0  0
  7  4  1  0  0  0  0
  8 10  2  0  0  0  0
  9 12  2  0  0  0  0
 10  9  1  0  0  0  0
 11  9  1  0  0  0  0
 13  8  1  0  0  0  0
 13 11  1  0  0  0  0
 14 16  1  6  0  0  0
 14 18  1  0  0  0  0
 14 20  1  0  0  0  0
 15 17  1  0  0  0  0
 16 21  1  0  0  0  0
 19 21  1  6  0  0  0
 19 11  1  0  0  0  0
 19 17  1  0  0  0  0
 20 18  1  1  0  0  0
 20 15  1  0  0  0  0
 22 23  2  0  0  0  0
 23 25  1  0  0  0  0
 24 26  1  0  0  0  0
 25 24  2  0  0  0  0
 26 28  1  0  0  0  0
 28 27  1  0  0  0  0
M  END
>  <MODEL>
8

>  <REMARK>
 VINA RESULT:      -6.8      1.873      8.979
  Name = 
  6 active torsions:
  status: ('A' for Active; 'I' for Inactive)
    1  A    between atoms: C_4  and  C_6
    2  A    between atoms: C_7  and  C_16
    3  A    between atoms: C_7  and  C_21
    4  A    between atoms: N_11  and  C_14
    5  A    between atoms: C_18  and  N_22
    6  A    between atoms: C_18  and  C_23
                            x       y       z     vdW  Elec       q    Type
                         _______ _______ _______ _____ _____    ______ ____

>  <TORSDO>
F 6

$$$$
=
 OpenBabel11062423093D

 28 31  0  0  1  0  0  0  0  0999 V2000
  192.4700  175.2170  146.2200 C   0  0  1  0  0  3  0  0  0  0  0  0
  192.2960  176.4410  147.1300 C   0  0  0  0  0  2  0  0  0  0  0  0
  190.4710  176.2020  145.0050 C   0  0  0  0  0  2  0  0  0  0  0  0
  189.9620  176.8960  146.2790 C   0  0  2  0  0  3  0  0  0  0  0  0
  191.2480  174.9270  145.3310 C   0  0  0  0  0  2  0  0  0  0  0  0
  190.7260  177.7110  148.4040 O   0  0  0  0  0  1  0  0  0  0  0  0
  190.8330  176.6380  147.5190 C   0  0  2  0  0  3  0  0  0  0  0  0
  193.7060  175.3690  145.3950 C   0  0  0  0  0  0  0  0  0  0  0  0
  195.0150  175.8820  143.8520 C   0  0  0  0  0  0  0  0  0  0  0  0
  193.7560  176.1120  144.2670 N   0  0  0  0  0  0  0  0  0  0  0  0
  195.6850  175.0580  144.6750 N   0  0  0  0  0  0  0  0  0  0  0  0
  195.5000  176.3800  142.8030 O   0  0  0  0  0  0  0  0  0  0  0  0
  194.8570  174.7080  145.6430 N   0  0  0  0  0  2  0  0  0  0  0  0
  195.7490  172.0250  144.0450 C   0  0  1  0  0  3  0  0  0  0  0  0
  196.8140  172.4510  146.0560 C   0  0  0  0  0  2  0  0  0  0  0  0
  196.4080  172.5720  142.7960 C   0  0  0  0  0  2  0  0  0  0  0  0
  197.5650  173.7540  145.7310 C   0  0  0  0  0  2  0  0  0  0  0  0
  195.8620  170.5740  144.4570 C   0  0  0  0  0  2  0  0  0  0  0  0
  197.0430  174.5290  144.4890 C   0  0  1  0  0  3  0  0  0  0  0  0
  196.9410  171.5550  144.8530 C   0  0  1  0  0  3  0  0  0  0  0  0
  197.2640  173.8290  143.1150 C   0  0  0  0  0  2  0  0  0  0  0  0
  188.2550  175.4480  147.1210 O   0  0  0  0  0  0  0  0  0  0  0  0
  188.5370  176.5370  146.5500 C   0  0  0  0  0  0  0  0  0  0  0  0
  186.7050  177.9920  147.0190 C   0  0  0  0  0  3  0  0  0  0  0  0
  187.5040  177.4470  146.1600 N   0  0  0  0  0  0  0  0  0  0  0  0
  185.6380  178.9380  146.5760 C   0  0  0  0  0  2  0  0  0  0  0  0
  185.4000  179.8720  144.2710 C   0  0  0  0  0  1  0  0  0  0  0  0
  185.2040  178.6480  145.1470 C   0  0  0  0  0  2  0  0  0  0  0  0
  1  8  1  6  0  0  0
  1  2  1  0  0  0  0
  2  7  1  0  0  0  0
  3  5  1  0  0  0  0
  3  4  1  0  0  0  0
  4 23  1  1  0  0  0
  4  7  1  0  0  0  0
  5  1  1  0  0  0  0
  7  6  1  1  0  0  0
  8 13  1  0  0  0  0
  9 10  1  0  0  0  0
  9 11  1  0  0  0  0
 10  8  2  0  0  0  0
 11 13  1  0  0  0  0
 12  9  2  0  0  0  0
 14 16  1  6  0  0  0
 14 18  1  0  0  0  0
 14 20  1  0  0  0  0
 16 21  1  0  0  0  0
 17 15  1  0  0  0  0
 19 21  1  6  0  0  0
 19 11  1  0  0  0  0
 19 17  1  0  0  0  0
 20 18  1  1  0  0  0
 20 15  1  0  0  0  0
 23 22  2  0  0  0  0
 25 23  1  0  0  0  0
 25 24  2  0  0  0  0
 26 24  1  0  0  0  0
 27 28  1  0  0  0  0
 28 26  1  0  0  0  0
M  END
>  <MODEL>
9

>  <REMARK>
 VINA RESULT:      -6.7      2.356      9.261
  Name = 
  6 active torsions:
  status: ('A' for Active; 'I' for Inactive)
    1  A    between atoms: C_4  and  C_6
    2  A    between atoms: C_7  and  C_16
    3  A    between atoms: C_7  and  C_21
    4  A    between atoms: N_11  and  C_14
    5  A    between atoms: C_18  and  N_22
    6  A    between atoms: C_18  and  C_23
                            x       y       z     vdW  Elec       q    Type
                         _______ _______ _______ _____ _____    ______ ____

>  <TORSDO>
F 6

$$$$
