=
 OpenBabel11062418393D

 55 61  0  0  1  0  0  0  0  0999 V2000
  188.6970  177.1680  144.1450 C   0  0  1  0  0  3  0  0  0  0  0  0
  186.7390  177.0420  142.7220 N   0  0  0  0  0  0  0  0  0  0  0  0
  189.0580  176.2940  142.9730 C   0  0  0  0  0  2  0  0  0  0  0  0
  187.7820  176.1840  142.1500 C   0  0  1  0  0  3  0  0  0  0  0  0
  187.4190  177.8890  143.7010 C   0  0  1  0  0  3  0  0  0  0  0  0
  185.4940  176.4130  145.9390 O   0  0  0  0  0  1  0  0  0  0  0  0
  184.1680  178.3020  145.4020 C   0  0  0  0  0  2  0  0  0  0  0  0
  184.5710  179.6550  144.8610 C   0  0  0  0  0  2  0  0  0  0  0  0
  186.4930  178.2930  144.8620 C   0  0  1  0  0  3  0  0  0  0  0  0
  186.0170  179.6620  144.6760 N   0  0  0  0  0  2  0  0  0  0  0  0
  185.2810  177.3910  144.9680 C   0  0  1  0  0  3  0  0  0  0  0  0
  186.8750  177.5190  140.4430 O   0  0  0  0  0  1  0  0  0  0  0  0
  186.2820  177.9070  141.6440 C   0  0  0  0  0  2  0  0  0  0  0  0
  188.4860  176.2700  145.3620 C   0  0  0  0  0  2  0  0  0  0  0  0
  190.3650  177.6060  145.9770 O   0  0  0  0  0  1  0  0  0  0  0  0
  189.4580  176.6580  146.4590 C   0  0  2  0  0  3  0  0  0  0  0  0
  190.2040  175.4240  146.9280 C   0  0  0  0  0  2  0  0  0  0  0  0
  190.3410  174.4210  145.7930 C   0  0  0  0  0  2  0  0  0  0  0  0
  193.7060  174.8770  144.7520 N   0  0  0  0  0  0  0  0  0  0  0  0
  192.4580  173.1000  145.2070 C   0  0  0  0  0  3  0  0  0  0  0  0
  191.7620  174.3090  145.3580 C   0  0  0  0  0  0  0  0  0  0  0  0
  192.5620  175.3840  145.1570 N   0  0  0  0  0  0  0  0  0  0  0  0
  197.3290  174.0610  145.3820 C   0  0  0  0  0  1  0  0  0  0  0  0
  195.4010  176.4950  145.1350 O   0  0  0  0  0  0  0  0  0  0  0  0
  195.8700  174.0960  145.0840 C   0  0  0  0  0  0  0  0  0  0  0  0
  195.0550  173.0310  144.9830 C   0  0  0  0  0  0  0  0  0  0  0  0
  195.0360  175.3000  144.9770 C   0  0  0  0  0  0  0  0  0  0  0  0
  193.6950  173.5590  144.8010 C   0  0  0  0  0  0  0  0  0  0  0  0
  195.6820  170.9170  143.8510 C   0  0  0  0  0  1  0  0  0  0  0  0
  195.4510  171.6020  145.1850 C   0  0  2  0  0  3  0  0  0  0  0  0
  194.4240  170.8980  145.9320 N   0  0  0  0  0  1  0  0  0  0  0  0
  187.3500  174.8490  141.9720 O   0  0  0  0  0  0  0  0  0  0  0  0
  188.4390  174.0590  141.5610 C   0  0  0  0  0  2  0  0  0  0  0  0
  188.2670  172.6320  142.0560 C   0  0  0  0  0  2  0  0  0  0  0  0
  189.5150  172.1440  142.7720 C   0  0  0  0  0  2  0  0  0  0  0  0
  190.1040  171.1020  142.0480 O   0  0  0  0  0  0  0  0  0  0  0  0
  190.8170  171.7230  141.0190 C   0  0  2  0  0  3  0  0  0  0  0  0
  190.4290  171.1160  139.7030 C   0  0  0  0  0  0  0  0  0  0  0  0
  190.5910  169.8010  139.5190 C   0  0  0  0  0  3  0  0  0  0  0  0
  190.0000  171.4100  137.2520 C   0  0  1  0  0  3  0  0  0  0  0  0
  190.1870  169.1650  138.2510 C   0  0  0  0  0  3  0  0  0  0  0  0
  189.7180  171.9430  138.6590 C   0  0  0  0  0  2  0  0  0  0  0  0
  189.8640  169.9140  137.1940 C   0  0  0  0  0  3  0  0  0  0  0  0
  189.1500  172.0020  136.3360 F   0  0  0  0  0  0  0  0  0  0  0  0
  192.3230  171.5850  141.2770 C   0  0  2  0  0  3  0  0  0  0  0  0
  192.5490  170.8820  142.4650 O   0  0  0  0  0  1  0  0  0  0  0  0
  194.2860  175.3470  141.3680 C   0  0  0  0  0  0  0  0  0  0  0  0
  192.2840  174.1200  141.3960 C   0  0  0  0  0  3  0  0  0  0  0  0
  192.9300  175.3230  141.4170 N   0  0  0  0  0  0  0  0  0  0  0  0
  196.3200  176.0890  141.2890 C   0  0  0  0  0  3  0  0  0  0  0  0
  194.4200  172.9590  141.2740 C   0  0  0  0  0  3  0  0  0  0  0  0
  193.0170  172.9120  141.3270 C   0  0  0  0  0  0  0  0  0  0  0  0
  195.0930  176.5030  141.3650 N   0  0  0  0  0  0  0  0  0  0  0  0
  196.4540  174.5840  141.2350 C   0  0  0  0  0  2  0  0  0  0  0  0
  195.0260  174.2080  141.2960 C   0  0  0  0  0  0  0  0  0  0  0  0
  1 14  1  1  0  0  0
  3  1  1  0  0  0  0
  4 32  1  1  0  0  0
  4  2  1  0  0  0  0
  4  3  1  0  0  0  0
  5  2  1  6  0  0  0
  5  1  1  0  0  0  0
  5  9  1  0  0  0  0
  8  7  1  0  0  0  0
  9 10  1  6  0  0  0
  9 11  1  0  0  0  0
 10  8  1  0  0  0  0
 11  7  1  0  0  0  0
 11  6  1  1  0  0  0
 12 13  1  0  0  0  0
 13  2  1  0  0  0  0
 14 16  1  0  0  0  0
 16 15  1  6  0  0  0
 16 17  1  0  0  0  0
 18 17  1  0  0  0  0
 19 28  1  0  0  0  0
 19 27  1  0  0  0  0
 19 22  1  0  0  0  0
 20 21  1  0  0  0  0
 21 18  1  0  0  0  0
 22 21  2  0  0  0  0
 25 23  1  0  0  0  0
 26 25  2  0  0  0  0
 26 30  1  0  0  0  0
 27 25  1  0  0  0  0
 27 24  2  0  0  0  0
 28 26  1  0  0  0  0
 28 20  2  0  0  0  0
 30 29  1  6  0  0  0
 30 31  1  0  0  0  0
 33 32  1  0  0  0  0
 33 34  1  0  0  0  0
 34 35  1  0  0  0  0
 36 35  1  0  0  0  0
 37 45  1  0  0  0  0
 37 36  1  1  0  0  0
 38 37  1  0  0  0  0
 39 38  2  0  0  0  0
 40 44  1  6  0  0  0
 40 42  1  0  0  0  0
 41 39  1  0  0  0  0
 42 38  1  0  0  0  0
 43 40  1  0  0  0  0
 43 41  2  0  0  0  0
 45 52  1  0  0  0  0
 45 46  1  1  0  0  0
 47 49  2  0  0  0  0
 48 49  1  0  0  0  0
 50 53  2  0  0  0  0
 51 55  2  0  0  0  0
 51 52  1  0  0  0  0
 52 48  2  0  0  0  0
 53 47  1  0  0  0  0
 54 50  1  0  0  0  0
 54 55  1  0  0  0  0
 55 47  1  0  0  0  0
M  END
>  <MODEL>
1

>  <REMARK>
 VINA RESULT:      -6.9      0.000      0.000
  Name = 
  17 active torsions:
  status: ('A' for Active; 'I' for Inactive)
    1  A    between atoms: C_3  and  C_39
    2  A    between atoms: C_3  and  C_42
    3  A    between atoms: C_4  and  C_18
    4  A    between atoms: N_7  and  C_51
    5  A    between atoms: C_8  and  C_39
    6  A    between atoms: C_10  and  C_18
    7  A    between atoms: C_10  and  C_53
    8  A    between atoms: C_11  and  O_34
    9  A    between atoms: C_11  and  C_35
   10  A    between atoms: C_20  and  O_34
   11  A    between atoms: C_21  and  C_48
   12  A    between atoms: O_22  and  C_36
   13  A    between atoms: O_22  and  C_39
   14  A    between atoms: C_24  and  C_44
   15  A    between atoms: C_33  and  C_54
   16  A    between atoms: C_35  and  C_36
   17  A    between atoms: C_48  and  C_53
                            x       y       z     vdW  Elec       q    Type
                         _______ _______ _______ _____ _____    ______ ____

>  <TORSDO>
F 17

$$$$
=
 OpenBabel11062418393D

 55 61  0  0  1  0  0  0  0  0999 V2000
  194.2000  174.5850  145.2780 C   0  0  1  0  0  3  0  0  0  0  0  0
  194.6040  173.1560  143.3620 N   0  0  0  0  0  0  0  0  0  0  0  0
  193.9280  173.1690  145.7160 C   0  0  0  0  0  2  0  0  0  0  0  0
  194.1220  172.3210  144.4670 C   0  0  1  0  0  3  0  0  0  0  0  0
  194.9820  174.4320  143.9680 C   0  0  1  0  0  3  0  0  0  0  0  0
  192.9610  175.3170  141.5130 O   0  0  0  0  0  1  0  0  0  0  0  0
  195.0380  176.0830  140.6660 C   0  0  0  0  0  2  0  0  0  0  0  0
  196.3010  176.4850  141.3940 C   0  0  0  0  0  2  0  0  0  0  0  0
  194.8090  175.6120  142.9950 C   0  0  1  0  0  3  0  0  0  0  0  0
  196.0770  176.3180  142.8250 N   0  0  0  0  0  2  0  0  0  0  0  0
  194.3430  175.1610  141.6260 C   0  0  1  0  0  3  0  0  0  0  0  0
  196.9160  172.9820  143.6190 O   0  0  0  0  0  1  0  0  0  0  0  0
  195.8250  172.5290  142.8760 C   0  0  0  0  0  2  0  0  0  0  0  0
  192.8600  175.2930  145.0960 C   0  0  0  0  0  2  0  0  0  0  0  0
  193.9360  176.5670  146.8020 O   0  0  0  0  0  1  0  0  0  0  0  0
  192.7340  176.4160  146.1060 C   0  0  2  0  0  3  0  0  0  0  0  0
  191.6140  176.0950  147.0770 C   0  0  0  0  0  2  0  0  0  0  0  0
  190.4780  175.3790  146.3620 C   0  0  0  0  0  2  0  0  0  0  0  0
  188.6370  177.6820  144.3830 N   0  0  0  0  0  0  0  0  0  0  0  0
  188.3700  176.8350  146.4170 C   0  0  0  0  0  3  0  0  0  0  0  0
  189.5240  176.3600  145.7750 C   0  0  0  0  0  0  0  0  0  0  0  0
  189.6250  176.8230  144.5050 N   0  0  0  0  0  0  0  0  0  0  0  0
  185.2760  178.6230  142.9660 C   0  0  0  0  0  1  0  0  0  0  0  0
  188.1830  177.9540  142.0690 O   0  0  0  0  0  0  0  0  0  0  0  0
  186.4770  178.2970  143.7860 C   0  0  0  0  0  0  0  0  0  0  0  0
  186.5000  178.1030  145.1160 C   0  0  0  0  0  0  0  0  0  0  0  0
  187.8200  178.0020  143.2740 C   0  0  0  0  0  0  0  0  0  0  0  0
  187.8690  177.6900  145.4560 C   0  0  0  0  0  0  0  0  0  0  0  0
  185.6160  178.9760  147.2610 C   0  0  0  0  0  1  0  0  0  0  0  0
  185.3140  178.1430  146.0290 C   0  0  2  0  0  3  0  0  0  0  0  0
  184.9380  176.7980  146.4210 N   0  0  0  0  0  1  0  0  0  0  0  0
  192.9720  171.5730  144.1210 O   0  0  0  0  0  0  0  0  0  0  0  0
  193.2760  170.2010  144.1800 C   0  0  0  0  0  2  0  0  0  0  0  0
  192.5110  169.4490  143.1030 C   0  0  0  0  0  2  0  0  0  0  0  0
  192.7210  170.0790  141.7360 C   0  0  0  0  0  2  0  0  0  0  0  0
  191.4990  170.5240  141.2230 O   0  0  0  0  0  0  0  0  0  0  0  0
  191.7230  171.8450  140.8250 C   0  0  2  0  0  3  0  0  0  0  0  0
  190.6300  172.7220  141.3590 C   0  0  0  0  0  0  0  0  0  0  0  0
  190.3210  172.6600  142.6590 C   0  0  0  0  0  3  0  0  0  0  0  0
  188.5600  174.0690  140.9270 C   0  0  1  0  0  3  0  0  0  0  0  0
  189.2760  173.5340  143.2240 C   0  0  0  0  0  3  0  0  0  0  0  0
  189.9950  173.7740  140.4800 C   0  0  0  0  0  2  0  0  0  0  0  0
  188.4730  174.2350  142.4190 C   0  0  0  0  0  3  0  0  0  0  0  0
  188.0840  175.2010  140.2930 F   0  0  0  0  0  0  0  0  0  0  0  0
  191.8020  171.9170  139.2940 C   0  0  2  0  0  3  0  0  0  0  0  0
  191.6460  170.6430  138.7400 O   0  0  0  0  0  1  0  0  0  0  0  0
  195.4330  173.6800  137.9830 C   0  0  0  0  0  0  0  0  0  0  0  0
  194.3370  172.0010  139.2040 C   0  0  0  0  0  3  0  0  0  0  0  0
  195.4970  172.5830  138.7800 N   0  0  0  0  0  0  0  0  0  0  0  0
  196.0420  175.3820  136.7880 C   0  0  0  0  0  3  0  0  0  0  0  0
  193.0390  173.6680  137.9950 C   0  0  0  0  0  3  0  0  0  0  0  0
  193.0840  172.5300  138.8170 C   0  0  0  0  0  0  0  0  0  0  0  0
  196.5360  174.4010  137.4790 N   0  0  0  0  0  0  0  0  0  0  0  0
  194.5310  175.4100  136.7610 C   0  0  0  0  0  2  0  0  0  0  0  0
  194.2480  174.2220  137.5940 C   0  0  0  0  0  0  0  0  0  0  0  0
  1 14  1  6  0  0  0
  1  3  1  0  0  0  0
  2  4  1  0  0  0  0
  4 32  1  6  0  0  0
  4  3  1  0  0  0  0
  5  2  1  6  0  0  0
  5  1  1  0  0  0  0
  7  8  1  0  0  0  0
  7 11  1  0  0  0  0
  8 10  1  0  0  0  0
  9 10  1  6  0  0  0
  9  5  1  0  0  0  0
 11  6  1  1  0  0  0
 11  9  1  0  0  0  0
 13  2  1  0  0  0  0
 13 12  1  0  0  0  0
 14 16  1  0  0  0  0
 16 15  1  1  0  0  0
 16 17  1  0  0  0  0
 18 17  1  0  0  0  0
 19 22  1  0  0  0  0
 19 28  1  0  0  0  0
 21 18  1  0  0  0  0
 21 20  1  0  0  0  0
 22 21  2  0  0  0  0
 23 25  1  0  0  0  0
 24 27  2  0  0  0  0
 25 26  2  0  0  0  0
 26 28  1  0  0  0  0
 26 30  1  0  0  0  0
 27 25  1  0  0  0  0
 27 19  1  0  0  0  0
 28 20  2  0  0  0  0
 30 31  1  0  0  0  0
 30 29  1  1  0  0  0
 32 33  1  0  0  0  0
 34 33  1  0  0  0  0
 35 34  1  0  0  0  0
 36 35  1  0  0  0  0
 37 36  1  6  0  0  0
 37 38  1  0  0  0  0
 38 39  2  0  0  0  0
 39 41  1  0  0  0  0
 40 44  1  6  0  0  0
 40 43  1  0  0  0  0
 42 40  1  0  0  0  0
 42 38  1  0  0  0  0
 43 41  2  0  0  0  0
 45 46  1  6  0  0  0
 45 37  1  0  0  0  0
 47 49  2  0  0  0  0
 49 48  1  0  0  0  0
 50 53  2  0  0  0  0
 51 52  1  0  0  0  0
 52 48  2  0  0  0  0
 52 45  1  0  0  0  0
 53 47  1  0  0  0  0
 54 50  1  0  0  0  0
 54 55  1  0  0  0  0
 55 47  1  0  0  0  0
 55 51  2  0  0  0  0
M  END
>  <MODEL>
2

>  <REMARK>
 VINA RESULT:      -6.7      2.478      7.184
  Name = 
  17 active torsions:
  status: ('A' for Active; 'I' for Inactive)
    1  A    between atoms: C_3  and  C_39
    2  A    between atoms: C_3  and  C_42
    3  A    between atoms: C_4  and  C_18
    4  A    between atoms: N_7  and  C_51
    5  A    between atoms: C_8  and  C_39
    6  A    between atoms: C_10  and  C_18
    7  A    between atoms: C_10  and  C_53
    8  A    between atoms: C_11  and  O_34
    9  A    between atoms: C_11  and  C_35
   10  A    between atoms: C_20  and  O_34
   11  A    between atoms: C_21  and  C_48
   12  A    between atoms: O_22  and  C_36
   13  A    between atoms: O_22  and  C_39
   14  A    between atoms: C_24  and  C_44
   15  A    between atoms: C_33  and  C_54
   16  A    between atoms: C_35  and  C_36
   17  A    between atoms: C_48  and  C_53
                            x       y       z     vdW  Elec       q    Type
                         _______ _______ _______ _____ _____    ______ ____

>  <TORSDO>
F 17

$$$$
=
 OpenBabel11062418393D

 55 61  0  0  1  0  0  0  0  0999 V2000
  194.0230  173.9810  145.5190 C   0  0  1  0  0  3  0  0  0  0  0  0
  195.8040  173.2050  144.0690 N   0  0  0  0  0  0  0  0  0  0  0  0
  194.1810  172.5040  145.7650 C   0  0  0  0  0  2  0  0  0  0  0  0
  195.2530  172.0490  144.7840 C   0  0  1  0  0  3  0  0  0  0  0  0
  195.3050  174.3820  144.7800 C   0  0  1  0  0  3  0  0  0  0  0  0
  193.9300  175.0670  141.8590 O   0  0  0  0  0  1  0  0  0  0  0  0
  195.9080  176.3650  141.7250 C   0  0  0  0  0  2  0  0  0  0  0  0
  196.7670  176.9520  142.8220 C   0  0  0  0  0  2  0  0  0  0  0  0
  195.1370  175.5950  143.8480 C   0  0  1  0  0  3  0  0  0  0  0  0
  196.1860  176.5800  144.1060 N   0  0  0  0  0  2  0  0  0  0  0  0
  195.2130  175.2090  142.3860 C   0  0  1  0  0  3  0  0  0  0  0  0
  197.5790  173.7880  145.4640 O   0  0  0  0  0  1  0  0  0  0  0  0
  197.2450  173.1600  144.2640 C   0  0  0  0  0  2  0  0  0  0  0  0
  192.7610  174.1930  144.6870 C   0  0  0  0  0  2  0  0  0  0  0  0
  190.4520  173.6040  144.8010 O   0  0  0  0  0  1  0  0  0  0  0  0
  191.5360  174.0400  145.5670 C   0  0  2  0  0  3  0  0  0  0  0  0
  191.2090  175.3750  146.2080 C   0  0  0  0  0  2  0  0  0  0  0  0
  190.6420  176.3380  145.1760 C   0  0  0  0  0  2  0  0  0  0  0  0
  187.2470  176.4520  146.2100 N   0  0  0  0  0  0  0  0  0  0  0  0
  188.2860  176.8010  144.2810 C   0  0  0  0  0  3  0  0  0  0  0  0
  189.1630  176.4530  145.3180 C   0  0  0  0  0  0  0  0  0  0  0  0
  188.5220  176.3250  146.5060 N   0  0  0  0  0  0  0  0  0  0  0  0
  184.0520  178.4460  146.2920 C   0  0  0  0  0  1  0  0  0  0  0  0
  186.0920  177.0580  148.1940 O   0  0  0  0  0  0  0  0  0  0  0  0
  185.2770  177.6630  145.9690 C   0  0  0  0  0  0  0  0  0  0  0  0
  185.8200  177.5060  144.7490 C   0  0  0  0  0  0  0  0  0  0  0  0
  186.1820  177.0310  146.9380 C   0  0  0  0  0  0  0  0  0  0  0  0
  187.0730  176.7620  144.9390 C   0  0  0  0  0  0  0  0  0  0  0  0
  185.5970  177.2110  142.2980 C   0  0  0  0  0  1  0  0  0  0  0  0
  185.3160  178.1190  143.4800 C   0  0  2  0  0  3  0  0  0  0  0  0
  185.9360  179.4140  143.2680 N   0  0  0  0  0  1  0  0  0  0  0  0
  194.8080  171.0300  143.9090 O   0  0  0  0  0  0  0  0  0  0  0  0
  194.0680  170.0820  144.6380 C   0  0  0  0  0  2  0  0  0  0  0  0
  192.8920  169.5880  143.8120 C   0  0  0  0  0  2  0  0  0  0  0  0
  191.9660  170.7320  143.4310 C   0  0  0  0  0  2  0  0  0  0  0  0
  191.5430  170.5830  142.1070 O   0  0  0  0  0  0  0  0  0  0  0  0
  191.7990  171.8140  141.4960 C   0  0  2  0  0  3  0  0  0  0  0  0
  190.5540  172.6490  141.5090 C   0  0  0  0  0  0  0  0  0  0  0  0
  190.6570  173.9760  141.3750 C   0  0  0  0  0  3  0  0  0  0  0  0
  188.1500  172.9000  142.1720 C   0  0  1  0  0  3  0  0  0  0  0  0
  189.4510  174.8240  141.3480 C   0  0  0  0  0  3  0  0  0  0  0  0
  189.1930  171.9940  141.5130 C   0  0  0  0  0  2  0  0  0  0  0  0
  188.2600  174.3150  141.6770 C   0  0  0  0  0  3  0  0  0  0  0  0
  186.8770  172.4130  141.9410 F   0  0  0  0  0  0  0  0  0  0  0  0
  192.3050  171.5850  140.0650 C   0  0  2  0  0  3  0  0  0  0  0  0
  192.3470  170.2160  139.7790 O   0  0  0  0  0  1  0  0  0  0  0  0
  196.1110  173.3550  139.4400 C   0  0  0  0  0  0  0  0  0  0  0  0
  194.7960  171.7430  140.5270 C   0  0  0  0  0  3  0  0  0  0  0  0
  196.0120  172.3270  140.3210 N   0  0  0  0  0  0  0  0  0  0  0  0
  196.9460  174.9760  138.2680 C   0  0  0  0  0  3  0  0  0  0  0  0
  193.7750  173.2670  138.9270 C   0  0  0  0  0  3  0  0  0  0  0  0
  193.6520  172.1990  139.8320 C   0  0  0  0  0  0  0  0  0  0  0  0
  197.2880  174.0690  139.1320 N   0  0  0  0  0  0  0  0  0  0  0  0
  195.4780  174.9520  137.9080 C   0  0  0  0  0  2  0  0  0  0  0  0
  195.0350  173.8260  138.7560 C   0  0  0  0  0  0  0  0  0  0  0  0
  1 14  1  6  0  0  0
  1  3  1  0  0  0  0
  2 13  1  0  0  0  0
  2  4  1  0  0  0  0
  4 32  1  6  0  0  0
  4  3  1  0  0  0  0
  5  2  1  6  0  0  0
  5  1  1  0  0  0  0
  7 11  1  0  0  0  0
  7  8  1  0  0  0  0
  8 10  1  0  0  0  0
  9 10  1  1  0  0  0
  9  5  1  0  0  0  0
 11  6  1  6  0  0  0
 11  9  1  0  0  0  0
 13 12  1  0  0  0  0
 14 16  1  0  0  0  0
 16 15  1  6  0  0  0
 16 17  1  0  0  0  0
 18 21  1  0  0  0  0
 18 17  1  0  0  0  0
 19 22  1  0  0  0  0
 19 27  1  0  0  0  0
 20 28  2  0  0  0  0
 20 21  1  0  0  0  0
 21 22  2  0  0  0  0
 25 23  1  0  0  0  0
 25 27  1  0  0  0  0
 26 28  1  0  0  0  0
 26 25  2  0  0  0  0
 27 24  2  0  0  0  0
 28 19  1  0  0  0  0
 30 29  1  6  0  0  0
 30 26  1  0  0  0  0
 31 30  1  0  0  0  0
 32 33  1  0  0  0  0
 34 33  1  0  0  0  0
 35 34  1  0  0  0  0
 36 35  1  0  0  0  0
 37 38  1  0  0  0  0
 37 36  1  6  0  0  0
 38 42  1  0  0  0  0
 39 38  2  0  0  0  0
 40 44  1  6  0  0  0
 41 39  1  0  0  0  0
 41 43  2  0  0  0  0
 42 40  1  0  0  0  0
 43 40  1  0  0  0  0
 45 46  1  1  0  0  0
 45 37  1  0  0  0  0
 47 49  2  0  0  0  0
 49 48  1  0  0  0  0
 50 53  2  0  0  0  0
 51 52  1  0  0  0  0
 52 45  1  0  0  0  0
 52 48  2  0  0  0  0
 53 47  1  0  0  0  0
 54 50  1  0  0  0  0
 54 55  1  0  0  0  0
 55 51  2  0  0  0  0
 55 47  1  0  0  0  0
M  END
>  <MODEL>
3

>  <REMARK>
 VINA RESULT:      -6.7      2.433      7.508
  Name = 
  17 active torsions:
  status: ('A' for Active; 'I' for Inactive)
    1  A    between atoms: C_3  and  C_39
    2  A    between atoms: C_3  and  C_42
    3  A    between atoms: C_4  and  C_18
    4  A    between atoms: N_7  and  C_51
    5  A    between atoms: C_8  and  C_39
    6  A    between atoms: C_10  and  C_18
    7  A    between atoms: C_10  and  C_53
    8  A    between atoms: C_11  and  O_34
    9  A    between atoms: C_11  and  C_35
   10  A    between atoms: C_20  and  O_34
   11  A    between atoms: C_21  and  C_48
   12  A    between atoms: O_22  and  C_36
   13  A    between atoms: O_22  and  C_39
   14  A    between atoms: C_24  and  C_44
   15  A    between atoms: C_33  and  C_54
   16  A    between atoms: C_35  and  C_36
   17  A    between atoms: C_48  and  C_53
                            x       y       z     vdW  Elec       q    Type
                         _______ _______ _______ _____ _____    ______ ____

>  <TORSDO>
F 17

$$$$
=
 OpenBabel11062418393D

 55 61  0  0  1  0  0  0  0  0999 V2000
  189.4820  176.8210  144.4870 C   0  0  1  0  0  3  0  0  0  0  0  0
  187.6480  177.1130  142.9290 N   0  0  0  0  0  0  0  0  0  0  0  0
  190.0330  176.5840  143.1050 C   0  0  0  0  0  2  0  0  0  0  0  0
  188.8350  176.7050  142.1720 C   0  0  1  0  0  3  0  0  0  0  0  0
  188.1390  177.5210  144.2450 C   0  0  1  0  0  3  0  0  0  0  0  0
  184.8590  177.5940  144.5970 O   0  0  0  0  0  1  0  0  0  0  0  0
  185.5410  178.5190  146.6700 C   0  0  0  0  0  2  0  0  0  0  0  0
  186.8340  178.3510  147.4360 C   0  0  0  0  0  2  0  0  0  0  0  0
  187.1000  177.2800  145.3540 C   0  0  1  0  0  3  0  0  0  0  0  0
  187.7090  177.4730  146.6680 N   0  0  0  0  0  2  0  0  0  0  0  0
  185.9200  178.2240  145.2470 C   0  0  1  0  0  3  0  0  0  0  0  0
  186.2880  177.9380  141.2230 O   0  0  0  0  0  1  0  0  0  0  0  0
  187.1310  178.3050  142.2720 C   0  0  0  0  0  2  0  0  0  0  0  0
  189.3350  175.4680  145.1790 C   0  0  0  0  0  2  0  0  0  0  0  0
  189.8960  174.9140  147.4310 O   0  0  0  0  0  1  0  0  0  0  0  0
  190.4410  175.2940  146.2020 C   0  0  2  0  0  3  0  0  0  0  0  0
  191.1930  176.6020  146.3550 C   0  0  0  0  0  2  0  0  0  0  0  0
  192.4810  176.3880  147.1350 C   0  0  0  0  0  2  0  0  0  0  0  0
  195.4430  175.2680  145.5290 N   0  0  0  0  0  0  0  0  0  0  0  0
  193.6440  176.3770  144.8520 C   0  0  0  0  0  3  0  0  0  0  0  0
  193.6050  176.0530  146.2160 C   0  0  0  0  0  0  0  0  0  0  0  0
  194.6710  175.3050  146.5920 N   0  0  0  0  0  0  0  0  0  0  0  0
  196.9220  173.3820  142.6220 C   0  0  0  0  0  1  0  0  0  0  0  0
  196.8890  173.3960  145.7380 O   0  0  0  0  0  0  0  0  0  0  0  0
  196.2370  174.3100  143.5650 C   0  0  0  0  0  0  0  0  0  0  0  0
  195.3700  175.2820  143.2320 C   0  0  0  0  0  0  0  0  0  0  0  0
  196.2840  174.2460  145.0310 C   0  0  0  0  0  0  0  0  0  0  0  0
  194.8670  175.8480  144.4930 C   0  0  0  0  0  0  0  0  0  0  0  0
  195.7600  176.6760  141.2200 C   0  0  0  0  0  1  0  0  0  0  0  0
  194.8960  175.5980  141.8470 C   0  0  2  0  0  3  0  0  0  0  0  0
  193.5110  176.0280  141.8770 N   0  0  0  0  0  1  0  0  0  0  0  0
  188.6140  175.5400  141.4000 O   0  0  0  0  0  0  0  0  0  0  0  0
  187.7590  174.6730  142.1030 C   0  0  0  0  0  2  0  0  0  0  0  0
  188.0540  173.2290  141.7270 C   0  0  0  0  0  2  0  0  0  0  0  0
  188.8960  172.5440  142.7900 C   0  0  0  0  0  2  0  0  0  0  0  0
  189.8630  171.7340  142.1840 O   0  0  0  0  0  0  0  0  0  0  0  0
  190.2130  172.3950  141.0030 C   0  0  2  0  0  3  0  0  0  0  0  0
  190.2100  171.4200  139.8640 C   0  0  0  0  0  0  0  0  0  0  0  0
  190.6810  170.1840  140.0620 C   0  0  0  0  0  3  0  0  0  0  0  0
  190.1810  171.0170  137.3900 C   0  0  1  0  0  3  0  0  0  0  0  0
  190.6600  169.1890  138.9730 C   0  0  0  0  0  3  0  0  0  0  0  0
  189.5400  171.7740  138.5570 C   0  0  0  0  0  2  0  0  0  0  0  0
  190.3810  169.5640  137.7220 C   0  0  0  0  0  3  0  0  0  0  0  0
  189.4050  171.1430  136.2530 F   0  0  0  0  0  0  0  0  0  0  0  0
  191.5860  173.0580  141.1700 C   0  0  2  0  0  3  0  0  0  0  0  0
  192.3720  172.8390  140.0350 O   0  0  0  0  0  1  0  0  0  0  0  0
  193.6640  171.7240  144.6230 C   0  0  0  0  0  0  0  0  0  0  0  0
  192.1620  173.2350  143.6360 C   0  0  0  0  0  3  0  0  0  0  0  0
  192.8430  172.7980  144.7360 N   0  0  0  0  0  0  0  0  0  0  0  0
  195.0920  170.1740  145.1280 C   0  0  0  0  0  3  0  0  0  0  0  0
  193.1640  171.4670  142.2960 C   0  0  0  0  0  3  0  0  0  0  0  0
  192.3070  172.5760  142.3930 C   0  0  0  0  0  0  0  0  0  0  0  0
  194.4430  171.1650  145.6570 N   0  0  0  0  0  0  0  0  0  0  0  0
  194.8020  169.9700  143.6580 C   0  0  0  0  0  2  0  0  0  0  0  0
  193.8340  171.0660  143.4450 C   0  0  0  0  0  0  0  0  0  0  0  0
  1 14  1  6  0  0  0
  3  1  1  0  0  0  0
  4 32  1  1  0  0  0
  4  2  1  0  0  0  0
  4  3  1  0  0  0  0
  5  2  1  6  0  0  0
  5  1  1  0  0  0  0
  5  9  1  0  0  0  0
  7  8  1  0  0  0  0
  9 10  1  1  0  0  0
 10  8  1  0  0  0  0
 11  6  1  6  0  0  0
 11  9  1  0  0  0  0
 11  7  1  0  0  0  0
 12 13  1  0  0  0  0
 13  2  1  0  0  0  0
 14 16  1  0  0  0  0
 16 17  1  0  0  0  0
 16 15  1  1  0  0  0
 17 18  1  0  0  0  0
 19 22  1  0  0  0  0
 20 21  1  0  0  0  0
 21 22  2  0  0  0  0
 21 18  1  0  0  0  0
 23 25  1  0  0  0  0
 25 27  1  0  0  0  0
 26 25  2  0  0  0  0
 26 28  1  0  0  0  0
 27 19  1  0  0  0  0
 27 24  2  0  0  0  0
 28 20  2  0  0  0  0
 28 19  1  0  0  0  0
 30 29  1  1  0  0  0
 30 31  1  0  0  0  0
 30 26  1  0  0  0  0
 32 33  1  0  0  0  0
 34 33  1  0  0  0  0
 34 35  1  0  0  0  0
 36 35  1  0  0  0  0
 37 45  1  0  0  0  0
 37 36  1  1  0  0  0
 38 39  2  0  0  0  0
 38 37  1  0  0  0  0
 40 44  1  6  0  0  0
 40 43  1  0  0  0  0
 40 42  1  0  0  0  0
 41 39  1  0  0  0  0
 42 38  1  0  0  0  0
 43 41  2  0  0  0  0
 45 46  1  6  0  0  0
 45 52  1  0  0  0  0
 47 49  2  0  0  0  0
 47 53  1  0  0  0  0
 48 49  1  0  0  0  0
 50 53  2  0  0  0  0
 51 52  1  0  0  0  0
 51 55  2  0  0  0  0
 52 48  2  0  0  0  0
 54 50  1  0  0  0  0
 55 54  1  0  0  0  0
 55 47  1  0  0  0  0
M  END
>  <MODEL>
4

>  <REMARK>
 VINA RESULT:      -6.6      1.578      2.925
  Name = 
  17 active torsions:
  status: ('A' for Active; 'I' for Inactive)
    1  A    between atoms: C_3  and  C_39
    2  A    between atoms: C_3  and  C_42
    3  A    between atoms: C_4  and  C_18
    4  A    between atoms: N_7  and  C_51
    5  A    between atoms: C_8  and  C_39
    6  A    between atoms: C_10  and  C_18
    7  A    between atoms: C_10  and  C_53
    8  A    between atoms: C_11  and  O_34
    9  A    between atoms: C_11  and  C_35
   10  A    between atoms: C_20  and  O_34
   11  A    between atoms: C_21  and  C_48
   12  A    between atoms: O_22  and  C_36
   13  A    between atoms: O_22  and  C_39
   14  A    between atoms: C_24  and  C_44
   15  A    between atoms: C_33  and  C_54
   16  A    between atoms: C_35  and  C_36
   17  A    between atoms: C_48  and  C_53
                            x       y       z     vdW  Elec       q    Type
                         _______ _______ _______ _____ _____    ______ ____

>  <TORSDO>
F 17

$$$$
=
 OpenBabel11062418393D

 55 61  0  0  1  0  0  0  0  0999 V2000
  192.6860  172.7560  139.4540 C   0  0  1  0  0  3  0  0  0  0  0  0
  190.5350  171.9500  140.2280 N   0  0  0  0  0  0  0  0  0  0  0  0
  192.1220  173.8100  140.3690 C   0  0  0  0  0  2  0  0  0  0  0  0
  190.7460  173.2970  140.7690 C   0  0  1  0  0  3  0  0  0  0  0  0
  191.8440  171.5090  139.7480 C   0  0  1  0  0  3  0  0  0  0  0  0
  190.0030  171.1490  137.0330 O   0  0  0  0  0  1  0  0  0  0  0  0
  190.2270  168.8890  137.7110 C   0  0  0  0  0  2  0  0  0  0  0  0
  191.3000  168.2200  138.5380 C   0  0  0  0  0  2  0  0  0  0  0  0
  191.7300  170.5360  138.5610 C   0  0  1  0  0  3  0  0  0  0  0  0
  192.2790  169.2310  138.9230 N   0  0  0  0  0  2  0  0  0  0  0  0
  190.2940  170.3310  138.1250 C   0  0  1  0  0  3  0  0  0  0  0  0
  191.3280  170.7800  142.0830 O   0  0  0  0  0  1  0  0  0  0  0  0
  190.1810  171.1040  141.3580 C   0  0  0  0  0  2  0  0  0  0  0  0
  192.5440  173.2480  138.0160 C   0  0  0  0  0  2  0  0  0  0  0  0
  192.6230  175.3870  136.9610 O   0  0  0  0  0  1  0  0  0  0  0  0
  193.3090  174.5460  137.8410 C   0  0  2  0  0  3  0  0  0  0  0  0
  194.6910  174.2440  137.2930 C   0  0  0  0  0  2  0  0  0  0  0  0
  195.7500  175.0190  138.0610 C   0  0  0  0  0  2  0  0  0  0  0  0
  195.9660  173.3280  141.1760 N   0  0  0  0  0  0  0  0  0  0  0  0
  195.6610  175.4460  140.5860 C   0  0  0  0  0  3  0  0  0  0  0  0
  195.7910  174.5860  139.4860 C   0  0  0  0  0  0  0  0  0  0  0  0
  196.0590  173.3120  139.8650 N   0  0  0  0  0  0  0  0  0  0  0  0
  197.5870  173.1940  144.5740 C   0  0  0  0  0  1  0  0  0  0  0  0
  197.1660  171.4610  142.0190 O   0  0  0  0  0  0  0  0  0  0  0  0
  196.8410  173.5040  143.3230 C   0  0  0  0  0  0  0  0  0  0  0  0
  196.2890  174.6870  143.0010 C   0  0  0  0  0  0  0  0  0  0  0  0
  196.6850  172.6170  142.1640 C   0  0  0  0  0  0  0  0  0  0  0  0
  195.7710  174.5510  141.6320 C   0  0  0  0  0  0  0  0  0  0  0  0
  194.9570  176.4990  144.0450 C   0  0  0  0  0  1  0  0  0  0  0  0
  196.3490  175.9360  143.8250 C   0  0  2  0  0  3  0  0  0  0  0  0
  197.1860  176.9260  143.1740 N   0  0  0  0  0  1  0  0  0  0  0  0
  189.7010  174.1890  140.4310 O   0  0  0  0  0  0  0  0  0  0  0  0
  188.9550  174.4890  141.5840 C   0  0  0  0  0  2  0  0  0  0  0  0
  187.8640  175.4950  141.2550 C   0  0  0  0  0  2  0  0  0  0  0  0
  187.0920  175.8980  142.5000 C   0  0  0  0  0  2  0  0  0  0  0  0
  187.5800  177.1120  142.9930 O   0  0  0  0  0  0  0  0  0  0  0  0
  188.0460  176.8300  144.2800 C   0  0  2  0  0  3  0  0  0  0  0  0
  187.0420  177.2990  145.2910 C   0  0  0  0  0  0  0  0  0  0  0  0
  187.1230  176.8490  146.5480 C   0  0  0  0  0  3  0  0  0  0  0  0
  184.7770  178.2560  145.7740 C   0  0  1  0  0  3  0  0  0  0  0  0
  186.1740  177.3180  147.5750 C   0  0  0  0  0  3  0  0  0  0  0  0
  186.0530  178.3850  144.9380 C   0  0  0  0  0  2  0  0  0  0  0  0
  185.0920  178.0190  147.2250 C   0  0  0  0  0  3  0  0  0  0  0  0
  183.9970  179.3890  145.6360 F   0  0  0  0  0  0  0  0  0  0  0  0
  189.4110  177.4970  144.4940 C   0  0  2  0  0  3  0  0  0  0  0  0
  189.8440  178.1040  143.3110 O   0  0  0  0  0  1  0  0  0  0  0  0
  192.3800  174.7940  145.8680 C   0  0  0  0  0  0  0  0  0  0  0  0
  190.9590  176.6120  146.3000 C   0  0  0  0  0  3  0  0  0  0  0  0
  191.9190  175.7400  146.7250 N   0  0  0  0  0  0  0  0  0  0  0  0
  193.5340  173.1460  145.0640 C   0  0  0  0  0  3  0  0  0  0  0  0
  190.9400  175.5480  144.1110 C   0  0  0  0  0  3  0  0  0  0  0  0
  190.4470  176.5310  144.9840 C   0  0  0  0  0  0  0  0  0  0  0  0
  193.3770  173.8370  146.1510 N   0  0  0  0  0  0  0  0  0  0  0  0
  192.6380  173.5820  143.9280 C   0  0  0  0  0  2  0  0  0  0  0  0
  191.9180  174.6880  144.5940 C   0  0  0  0  0  0  0  0  0  0  0  0
  1 14  1  6  0  0  0
  1  5  1  0  0  0  0
  1  3  1  0  0  0  0
  2  4  1  0  0  0  0
  2 13  1  0  0  0  0
  3  4  1  0  0  0  0
  4 32  1  6  0  0  0
  5  2  1  6  0  0  0
  7 11  1  0  0  0  0
  7  8  1  0  0  0  0
  8 10  1  0  0  0  0
  9 10  1  1  0  0  0
  9  5  1  0  0  0  0
 11  6  1  6  0  0  0
 11  9  1  0  0  0  0
 13 12  1  0  0  0  0
 16 15  1  6  0  0  0
 16 14  1  0  0  0  0
 17 16  1  0  0  0  0
 17 18  1  0  0  0  0
 18 21  1  0  0  0  0
 19 28  1  0  0  0  0
 19 27  1  0  0  0  0
 20 28  2  0  0  0  0
 21 22  2  0  0  0  0
 21 20  1  0  0  0  0
 22 19  1  0  0  0  0
 24 27  2  0  0  0  0
 25 23  1  0  0  0  0
 26 25  2  0  0  0  0
 26 30  1  0  0  0  0
 27 25  1  0  0  0  0
 28 26  1  0  0  0  0
 30 29  1  6  0  0  0
 31 30  1  0  0  0  0
 32 33  1  0  0  0  0
 34 33  1  0  0  0  0
 34 35  1  0  0  0  0
 35 36  1  0  0  0  0
 37 36  1  6  0  0  0
 37 45  1  0  0  0  0
 37 38  1  0  0  0  0
 38 39  2  0  0  0  0
 39 41  1  0  0  0  0
 40 44  1  1  0  0  0
 40 43  1  0  0  0  0
 42 38  1  0  0  0  0
 42 40  1  0  0  0  0
 43 41  2  0  0  0  0
 45 46  1  6  0  0  0
 45 52  1  0  0  0  0
 47 53  1  0  0  0  0
 47 49  2  0  0  0  0
 48 49  1  0  0  0  0
 50 53  2  0  0  0  0
 51 55  2  0  0  0  0
 51 52  1  0  0  0  0
 52 48  2  0  0  0  0
 54 55  1  0  0  0  0
 54 50  1  0  0  0  0
 55 47  1  0  0  0  0
M  END
>  <MODEL>
5

>  <REMARK>
 VINA RESULT:      -6.6      3.063      8.058
  Name = 
  17 active torsions:
  status: ('A' for Active; 'I' for Inactive)
    1  A    between atoms: C_3  and  C_39
    2  A    between atoms: C_3  and  C_42
    3  A    between atoms: C_4  and  C_18
    4  A    between atoms: N_7  and  C_51
    5  A    between atoms: C_8  and  C_39
    6  A    between atoms: C_10  and  C_18
    7  A    between atoms: C_10  and  C_53
    8  A    between atoms: C_11  and  O_34
    9  A    between atoms: C_11  and  C_35
   10  A    between atoms: C_20  and  O_34
   11  A    between atoms: C_21  and  C_48
   12  A    between atoms: O_22  and  C_36
   13  A    between atoms: O_22  and  C_39
   14  A    between atoms: C_24  and  C_44
   15  A    between atoms: C_33  and  C_54
   16  A    between atoms: C_35  and  C_36
   17  A    between atoms: C_48  and  C_53
                            x       y       z     vdW  Elec       q    Type
                         _______ _______ _______ _____ _____    ______ ____

>  <TORSDO>
F 17

$$$$
=
 OpenBabel11062418393D

 55 61  0  0  1  0  0  0  0  0999 V2000
  192.8910  173.6280  144.8750 C   0  0  1  0  0  3  0  0  0  0  0  0
  192.9470  176.0500  144.7880 N   0  0  0  0  0  0  0  0  0  0  0  0
  193.7010  174.0090  143.6640 C   0  0  0  0  0  2  0  0  0  0  0  0
  193.6460  175.5290  143.6080 C   0  0  1  0  0  3  0  0  0  0  0  0
  192.8200  174.9170  145.7030 C   0  0  1  0  0  3  0  0  0  0  0  0
  189.5920  175.4980  145.3340 O   0  0  0  0  0  1  0  0  0  0  0  0
  190.0210  176.6770  147.3450 C   0  0  0  0  0  2  0  0  0  0  0  0
  191.0990  176.4750  148.3850 C   0  0  0  0  0  2  0  0  0  0  0  0
  191.5650  175.0230  146.5890 C   0  0  1  0  0  3  0  0  0  0  0  0
  191.9420  175.3630  147.9590 N   0  0  0  0  0  2  0  0  0  0  0  0
  190.6040  176.0840  146.0950 C   0  0  1  0  0  3  0  0  0  0  0  0
  194.7890  176.3370  146.1890 O   0  0  0  0  0  1  0  0  0  0  0  0
  193.8480  177.0090  145.4090 C   0  0  0  0  0  2  0  0  0  0  0  0
  191.5230  173.1450  144.4010 C   0  0  0  0  0  2  0  0  0  0  0  0
  192.8070  171.1400  144.5540 O   0  0  0  0  0  1  0  0  0  0  0  0
  191.5340  171.6360  144.2590 C   0  0  2  0  0  3  0  0  0  0  0  0
  191.1530  171.2620  142.8390 C   0  0  0  0  0  2  0  0  0  0  0  0
  192.3920  171.1630  141.9630 C   0  0  0  0  0  2  0  0  0  0  0  0
  192.2470  173.3560  139.1740 N   0  0  0  0  0  0  0  0  0  0  0  0
  191.5190  171.2950  139.5580 C   0  0  0  0  0  3  0  0  0  0  0  0
  192.1760  171.8570  140.6630 C   0  0  0  0  0  0  0  0  0  0  0  0
  192.6850  173.0810  140.3830 N   0  0  0  0  0  0  0  0  0  0  0  0
  192.8780  173.7980  135.4870 C   0  0  0  0  0  1  0  0  0  0  0  0
  193.6610  175.0210  138.2430 O   0  0  0  0  0  0  0  0  0  0  0  0
  192.4330  173.4230  136.8580 C   0  0  0  0  0  0  0  0  0  0  0  0
  191.6730  172.3620  137.1830 C   0  0  0  0  0  0  0  0  0  0  0  0
  192.8510  174.0650  138.1100 C   0  0  0  0  0  0  0  0  0  0  0  0
  191.5980  172.3330  138.6510 C   0  0  0  0  0  0  0  0  0  0  0  0
  189.6910  171.0380  136.5040 C   0  0  0  0  0  1  0  0  0  0  0  0
  191.1540  171.3310  136.2310 C   0  0  2  0  0  3  0  0  0  0  0  0
  191.9320  170.1100  136.3410 N   0  0  0  0  0  1  0  0  0  0  0  0
  193.1080  176.0210  142.3960 O   0  0  0  0  0  0  0  0  0  0  0  0
  191.7120  176.1410  142.5220 C   0  0  0  0  0  2  0  0  0  0  0  0
  191.3210  177.6070  142.6270 C   0  0  0  0  0  2  0  0  0  0  0  0
  189.8370  177.7610  142.9150 C   0  0  0  0  0  2  0  0  0  0  0  0
  189.0910  177.4070  141.7860 O   0  0  0  0  0  0  0  0  0  0  0  0
  188.0960  176.5440  142.2540 C   0  0  2  0  0  3  0  0  0  0  0  0
  188.1160  175.2740  141.4570 C   0  0  0  0  0  0  0  0  0  0  0  0
  188.2630  174.1070  142.0940 C   0  0  0  0  0  3  0  0  0  0  0  0
  188.5060  174.1290  139.2620 C   0  0  1  0  0  3  0  0  0  0  0  0
  188.2520  172.8370  141.3450 C   0  0  0  0  0  3  0  0  0  0  0  0
  187.8170  175.2960  139.9770 C   0  0  0  0  0  2  0  0  0  0  0  0
  188.3200  172.8390  140.0110 C   0  0  0  0  0  3  0  0  0  0  0  0
  188.0220  174.0060  137.9730 F   0  0  0  0  0  0  0  0  0  0  0  0
  186.7300  177.2380  142.1680 C   0  0  2  0  0  3  0  0  0  0  0  0
  186.7770  178.2890  141.2470 O   0  0  0  0  0  1  0  0  0  0  0  0
  185.4470  178.6960  145.9420 C   0  0  0  0  0  0  0  0  0  0  0  0
  185.5710  178.9730  143.6140 C   0  0  0  0  0  3  0  0  0  0  0  0
  185.1720  179.4330  144.8360 N   0  0  0  0  0  0  0  0  0  0  0  0
  185.5740  178.0850  148.0170 C   0  0  0  0  0  3  0  0  0  0  0  0
  186.5400  176.9990  144.6570 C   0  0  0  0  0  3  0  0  0  0  0  0
  186.2620  177.7440  143.4990 C   0  0  0  0  0  0  0  0  0  0  0  0
  185.1160  179.0420  147.2690 N   0  0  0  0  0  0  0  0  0  0  0  0
  186.2680  176.9860  147.2460 C   0  0  0  0  0  2  0  0  0  0  0  0
  186.1130  177.5130  145.8740 C   0  0  0  0  0  0  0  0  0  0  0  0
  1 14  1  6  0  0  0
  1  5  1  0  0  0  0
  2 13  1  0  0  0  0
  3  1  1  0  0  0  0
  4 32  1  6  0  0  0
  4  3  1  0  0  0  0
  4  2  1  0  0  0  0
  5  2  1  6  0  0  0
  5  9  1  0  0  0  0
  7  8  1  0  0  0  0
  9 10  1  1  0  0  0
 10  8  1  0  0  0  0
 11  6  1  6  0  0  0
 11  9  1  0  0  0  0
 11  7  1  0  0  0  0
 13 12  1  0  0  0  0
 16 14  1  0  0  0  0
 16 15  1  6  0  0  0
 17 16  1  0  0  0  0
 18 17  1  0  0  0  0
 19 22  1  0  0  0  0
 20 21  1  0  0  0  0
 21 18  1  0  0  0  0
 22 21  2  0  0  0  0
 23 25  1  0  0  0  0
 25 26  2  0  0  0  0
 25 27  1  0  0  0  0
 26 28  1  0  0  0  0
 27 24  2  0  0  0  0
 27 19  1  0  0  0  0
 28 19  1  0  0  0  0
 28 20  2  0  0  0  0
 30 31  1  0  0  0  0
 30 29  1  1  0  0  0
 30 26  1  0  0  0  0
 32 33  1  0  0  0  0
 33 34  1  0  0  0  0
 34 35  1  0  0  0  0
 36 35  1  0  0  0  0
 37 36  1  6  0  0  0
 38 39  2  0  0  0  0
 38 37  1  0  0  0  0
 40 44  1  6  0  0  0
 40 42  1  0  0  0  0
 40 43  1  0  0  0  0
 41 39  1  0  0  0  0
 42 38  1  0  0  0  0
 43 41  2  0  0  0  0
 45 46  1  6  0  0  0
 45 37  1  0  0  0  0
 45 52  1  0  0  0  0
 47 53  1  0  0  0  0
 48 49  1  0  0  0  0
 49 47  2  0  0  0  0
 51 55  2  0  0  0  0
 52 48  2  0  0  0  0
 52 51  1  0  0  0  0
 53 50  2  0  0  0  0
 54 50  1  0  0  0  0
 55 47  1  0  0  0  0
 55 54  1  0  0  0  0
M  END
>  <MODEL>
6

>  <REMARK>
 VINA RESULT:      -6.5      2.342      7.502
  Name = 
  17 active torsions:
  status: ('A' for Active; 'I' for Inactive)
    1  A    between atoms: C_3  and  C_39
    2  A    between atoms: C_3  and  C_42
    3  A    between atoms: C_4  and  C_18
    4  A    between atoms: N_7  and  C_51
    5  A    between atoms: C_8  and  C_39
    6  A    between atoms: C_10  and  C_18
    7  A    between atoms: C_10  and  C_53
    8  A    between atoms: C_11  and  O_34
    9  A    between atoms: C_11  and  C_35
   10  A    between atoms: C_20  and  O_34
   11  A    between atoms: C_21  and  C_48
   12  A    between atoms: O_22  and  C_36
   13  A    between atoms: O_22  and  C_39
   14  A    between atoms: C_24  and  C_44
   15  A    between atoms: C_33  and  C_54
   16  A    between atoms: C_35  and  C_36
   17  A    between atoms: C_48  and  C_53
                            x       y       z     vdW  Elec       q    Type
                         _______ _______ _______ _____ _____    ______ ____

>  <TORSDO>
F 17

$$$$
=
 OpenBabel11062418393D

 55 61  0  0  1  0  0  0  0  0999 V2000
  189.0430  177.1480  144.5690 C   0  0  1  0  0  3  0  0  0  0  0  0
  187.3570  177.2680  142.8320 N   0  0  0  0  0  0  0  0  0  0  0  0
  189.7350  176.8680  143.2610 C   0  0  0  0  0  2  0  0  0  0  0  0
  188.6300  176.8810  142.2150 C   0  0  1  0  0  3  0  0  0  0  0  0
  187.7010  177.7670  144.1630 C   0  0  1  0  0  3  0  0  0  0  0  0
  184.4540  178.3120  144.4010 O   0  0  0  0  0  1  0  0  0  0  0  0
  185.1410  178.7940  146.6170 C   0  0  0  0  0  2  0  0  0  0  0  0
  186.3430  178.3070  147.3940 C   0  0  0  0  0  2  0  0  0  0  0  0
  186.5700  177.5330  145.1810 C   0  0  1  0  0  3  0  0  0  0  0  0
  187.1200  177.4260  146.5310 N   0  0  0  0  0  2  0  0  0  0  0  0
  185.5580  178.6590  145.1810 C   0  0  1  0  0  3  0  0  0  0  0  0
  185.8680  177.9630  141.1770 O   0  0  0  0  0  1  0  0  0  0  0  0
  186.8540  178.3970  142.0630 C   0  0  0  0  0  2  0  0  0  0  0  0
  188.8910  175.8280  145.3200 C   0  0  0  0  0  2  0  0  0  0  0  0
  189.9180  174.7990  147.2120 O   0  0  0  0  0  1  0  0  0  0  0  0
  190.1880  175.4890  146.0280 C   0  0  2  0  0  3  0  0  0  0  0  0
  190.9400  176.7700  146.3390 C   0  0  0  0  0  2  0  0  0  0  0  0
  192.2090  176.4670  147.1190 C   0  0  0  0  0  2  0  0  0  0  0  0
  195.2940  175.8010  145.4910 N   0  0  0  0  0  0  0  0  0  0  0  0
  193.3910  176.7530  144.8630 C   0  0  0  0  0  3  0  0  0  0  0  0
  193.3730  176.3260  146.1990 C   0  0  0  0  0  0  0  0  0  0  0  0
  194.5110  175.6730  146.5390 N   0  0  0  0  0  0  0  0  0  0  0  0
  197.0020  174.3100  142.4820 C   0  0  0  0  0  1  0  0  0  0  0  0
  196.9340  174.0870  145.5890 O   0  0  0  0  0  0  0  0  0  0  0  0
  196.2090  175.0840  143.4770 C   0  0  0  0  0  0  0  0  0  0  0  0
  195.2430  175.9780  143.2000 C   0  0  0  0  0  0  0  0  0  0  0  0
  196.2480  174.9170  144.9350 C   0  0  0  0  0  0  0  0  0  0  0  0
  194.6680  176.3890  144.4890 C   0  0  0  0  0  0  0  0  0  0  0  0
  193.9700  175.1970  141.2220 C   0  0  0  0  0  1  0  0  0  0  0  0
  194.7530  176.3430  141.8340 C   0  0  2  0  0  3  0  0  0  0  0  0
  195.8710  176.6920  140.9770 N   0  0  0  0  0  1  0  0  0  0  0  0
  188.5370  175.6680  141.4920 O   0  0  0  0  0  0  0  0  0  0  0  0
  187.6080  174.8210  142.1230 C   0  0  0  0  0  2  0  0  0  0  0  0
  187.7590  173.4000  141.6050 C   0  0  0  0  0  2  0  0  0  0  0  0
  188.6760  172.5820  142.4990 C   0  0  0  0  0  2  0  0  0  0  0  0
  189.9900  172.6500  142.0240 O   0  0  0  0  0  0  0  0  0  0  0  0
  190.5530  171.4030  142.3130 C   0  0  2  0  0  3  0  0  0  0  0  0
  191.6720  171.5740  143.2970 C   0  0  0  0  0  0  0  0  0  0  0  0
  192.1530  172.8000  143.5300 C   0  0  0  0  0  3  0  0  0  0  0  0
  193.6100  170.5740  144.5310 C   0  0  1  0  0  3  0  0  0  0  0  0
  193.2280  173.0090  144.5180 C   0  0  0  0  0  3  0  0  0  0  0  0
  192.1420  170.4060  144.1300 C   0  0  0  0  0  2  0  0  0  0  0  0
  193.8880  171.9650  145.0280 C   0  0  0  0  0  3  0  0  0  0  0  0
  193.9530  169.6460  145.4960 F   0  0  0  0  0  0  0  0  0  0  0  0
  191.0430  170.7450  141.0160 C   0  0  2  0  0  3  0  0  0  0  0  0
  192.3640  170.3100  141.1610 O   0  0  0  0  0  1  0  0  0  0  0  0
  190.7460  173.3040  137.6420 C   0  0  0  0  0  0  0  0  0  0  0  0
  189.7760  171.6680  139.0190 C   0  0  0  0  0  3  0  0  0  0  0  0
  189.6980  172.4920  137.9330 N   0  0  0  0  0  0  0  0  0  0  0  0
  191.9910  174.7580  136.6260 C   0  0  0  0  0  3  0  0  0  0  0  0
  192.0070  172.5070  139.5140 C   0  0  0  0  0  3  0  0  0  0  0  0
  190.9320  171.6610  139.8340 C   0  0  0  0  0  0  0  0  0  0  0  0
  190.8250  174.1940  136.5510 N   0  0  0  0  0  0  0  0  0  0  0  0
  192.8210  174.2890  137.8000 C   0  0  0  0  0  2  0  0  0  0  0  0
  191.8760  173.3230  138.3980 C   0  0  0  0  0  0  0  0  0  0  0  0
  1 14  1  6  0  0  0
  3  1  1  0  0  0  0
  4 32  1  1  0  0  0
  4  2  1  0  0  0  0
  4  3  1  0  0  0  0
  5  2  1  6  0  0  0
  5  1  1  0  0  0  0
  5  9  1  0  0  0  0
  7  8  1  0  0  0  0
  9 10  1  1  0  0  0
 10  8  1  0  0  0  0
 11  6  1  6  0  0  0
 11  9  1  0  0  0  0
 11  7  1  0  0  0  0
 12 13  1  0  0  0  0
 13  2  1  0  0  0  0
 14 16  1  0  0  0  0
 16 17  1  0  0  0  0
 16 15  1  1  0  0  0
 17 18  1  0  0  0  0
 19 22  1  0  0  0  0
 20 21  1  0  0  0  0
 21 22  2  0  0  0  0
 21 18  1  0  0  0  0
 23 25  1  0  0  0  0
 25 27  1  0  0  0  0
 26 25  2  0  0  0  0
 26 28  1  0  0  0  0
 27 19  1  0  0  0  0
 27 24  2  0  0  0  0
 28 20  2  0  0  0  0
 28 19  1  0  0  0  0
 30 29  1  6  0  0  0
 30 26  1  0  0  0  0
 31 30  1  0  0  0  0
 32 33  1  0  0  0  0
 34 33  1  0  0  0  0
 34 35  1  0  0  0  0
 36 35  1  0  0  0  0
 37 36  1  6  0  0  0
 37 38  1  0  0  0  0
 38 39  2  0  0  0  0
 38 42  1  0  0  0  0
 39 41  1  0  0  0  0
 40 43  1  0  0  0  0
 40 44  1  1  0  0  0
 41 43  2  0  0  0  0
 42 40  1  0  0  0  0
 45 46  1  1  0  0  0
 45 37  1  0  0  0  0
 47 49  2  0  0  0  0
 47 55  1  0  0  0  0
 48 52  2  0  0  0  0
 49 48  1  0  0  0  0
 50 54  1  0  0  0  0
 51 52  1  0  0  0  0
 52 45  1  0  0  0  0
 53 50  2  0  0  0  0
 53 47  1  0  0  0  0
 54 55  1  0  0  0  0
 55 51  2  0  0  0  0
M  END
>  <MODEL>
7

>  <REMARK>
 VINA RESULT:      -6.5      2.506      4.066
  Name = 
  17 active torsions:
  status: ('A' for Active; 'I' for Inactive)
    1  A    between atoms: C_3  and  C_39
    2  A    between atoms: C_3  and  C_42
    3  A    between atoms: C_4  and  C_18
    4  A    between atoms: N_7  and  C_51
    5  A    between atoms: C_8  and  C_39
    6  A    between atoms: C_10  and  C_18
    7  A    between atoms: C_10  and  C_53
    8  A    between atoms: C_11  and  O_34
    9  A    between atoms: C_11  and  C_35
   10  A    between atoms: C_20  and  O_34
   11  A    between atoms: C_21  and  C_48
   12  A    between atoms: O_22  and  C_36
   13  A    between atoms: O_22  and  C_39
   14  A    between atoms: C_24  and  C_44
   15  A    between atoms: C_33  and  C_54
   16  A    between atoms: C_35  and  C_36
   17  A    between atoms: C_48  and  C_53
                            x       y       z     vdW  Elec       q    Type
                         _______ _______ _______ _____ _____    ______ ____

>  <TORSDO>
F 17

$$$$
=
 OpenBabel11062418393D

 55 61  0  0  1  0  0  0  0  0999 V2000
  192.4980  174.3910  141.1330 C   0  0  1  0  0  3  0  0  0  0  0  0
  194.2080  174.0420  139.4500 N   0  0  0  0  0  0  0  0  0  0  0  0
  193.6180  175.3510  141.4350 C   0  0  0  0  0  2  0  0  0  0  0  0
  194.6940  175.0460  140.4030 C   0  0  1  0  0  3  0  0  0  0  0  0
  192.7700  173.9300  139.6960 C   0  0  1  0  0  3  0  0  0  0  0  0
  193.2710  171.5570  137.4570 O   0  0  0  0  0  1  0  0  0  0  0  0
  190.9190  171.4230  137.7170 C   0  0  0  0  0  2  0  0  0  0  0  0
  190.0420  171.8160  138.8830 C   0  0  0  0  0  2  0  0  0  0  0  0
  192.2340  172.5230  139.3770 C   0  0  1  0  0  3  0  0  0  0  0  0
  190.8950  172.3550  139.9360 N   0  0  0  0  0  2  0  0  0  0  0  0
  192.1500  172.2670  137.8870 C   0  0  1  0  0  3  0  0  0  0  0  0
  195.6500  174.3210  137.6390 O   0  0  0  0  0  1  0  0  0  0  0  0
  194.3760  174.6180  138.1240 C   0  0  0  0  0  2  0  0  0  0  0  0
  192.5600  173.2520  142.1480 C   0  0  0  0  0  2  0  0  0  0  0  0
  191.2270  172.3880  143.9280 O   0  0  0  0  0  1  0  0  0  0  0  0
  191.6680  173.5720  143.3310 C   0  0  2  0  0  3  0  0  0  0  0  0
  190.4760  174.3830  142.8560 C   0  0  0  0  0  2  0  0  0  0  0  0
  189.3360  174.2920  143.8590 C   0  0  0  0  0  2  0  0  0  0  0  0
  187.8660  177.5070  143.5260 N   0  0  0  0  0  0  0  0  0  0  0  0
  188.1230  176.0950  145.2170 C   0  0  0  0  0  3  0  0  0  0  0  0
  188.6670  175.6130  144.0170 C   0  0  0  0  0  0  0  0  0  0  0  0
  188.4270  176.4510  142.9790 N   0  0  0  0  0  0  0  0  0  0  0  0
  184.8310  179.6540  144.1340 C   0  0  0  0  0  1  0  0  0  0  0  0
  186.6790  178.6680  141.8280 O   0  0  0  0  0  0  0  0  0  0  0  0
  186.0420  178.7870  144.1850 C   0  0  0  0  0  0  0  0  0  0  0  0
  186.5100  178.1430  145.2690 C   0  0  0  0  0  0  0  0  0  0  0  0
  186.8630  178.3780  143.0400 C   0  0  0  0  0  0  0  0  0  0  0  0
  187.6430  177.3240  144.8130 C   0  0  0  0  0  0  0  0  0  0  0  0
  186.8850  178.5870  147.6780 C   0  0  0  0  0  1  0  0  0  0  0  0
  185.8840  178.1430  146.6280 C   0  0  2  0  0  3  0  0  0  0  0  0
  185.3830  176.8190  146.9500 N   0  0  0  0  0  1  0  0  0  0  0  0
  195.9340  174.6880  140.9830 O   0  0  0  0  0  0  0  0  0  0  0  0
  196.7320  175.8380  141.1210 C   0  0  0  0  0  2  0  0  0  0  0  0
  197.2090  175.9750  142.5570 C   0  0  0  0  0  2  0  0  0  0  0  0
  196.2040  176.7410  143.4010 C   0  0  0  0  0  2  0  0  0  0  0  0
  196.1730  176.2180  144.6980 O   0  0  0  0  0  0  0  0  0  0  0  0
  195.2190  175.1960  144.6620 C   0  0  2  0  0  3  0  0  0  0  0  0
  193.9520  175.6710  145.3090 C   0  0  0  0  0  0  0  0  0  0  0  0
  193.5560  175.1080  146.4570 C   0  0  0  0  0  3  0  0  0  0  0  0
  191.7230  176.7930  145.0850 C   0  0  1  0  0  3  0  0  0  0  0  0
  192.3340  175.5740  147.1380 C   0  0  0  0  0  3  0  0  0  0  0  0
  193.2180  176.8710  144.7630 C   0  0  0  0  0  2  0  0  0  0  0  0
  191.4890  176.4030  146.5180 C   0  0  0  0  0  3  0  0  0  0  0  0
  191.1100  178.0030  144.8150 F   0  0  0  0  0  0  0  0  0  0  0  0
  195.7730  173.9490  145.3630 C   0  0  2  0  0  3  0  0  0  0  0  0
  197.1520  174.0750  145.5590 O   0  0  0  0  0  1  0  0  0  0  0  0
  194.8970  170.4090  143.1920 C   0  0  0  0  0  0  0  0  0  0  0  0
  196.1220  172.4020  143.3800 C   0  0  0  0  0  3  0  0  0  0  0  0
  195.8240  171.2630  142.6900 N   0  0  0  0  0  0  0  0  0  0  0  0
  193.5660  168.7090  143.3790 C   0  0  0  0  0  3  0  0  0  0  0  0
  194.5160  171.7950  145.1060 C   0  0  0  0  0  3  0  0  0  0  0  0
  195.4760  172.6900  144.6050 C   0  0  0  0  0  0  0  0  0  0  0  0
  194.4700  169.2050  142.5920 N   0  0  0  0  0  0  0  0  0  0  0  0
  193.2980  169.5480  144.6070 C   0  0  0  0  0  2  0  0  0  0  0  0
  194.2500  170.6520  144.3630 C   0  0  0  0  0  0  0  0  0  0  0  0
  1  3  1  0  0  0  0
  1 14  1  1  0  0  0
  2  4  1  0  0  0  0
  4 32  1  1  0  0  0
  4  3  1  0  0  0  0
  5  2  1  1  0  0  0
  5  1  1  0  0  0  0
  7 11  1  0  0  0  0
  7  8  1  0  0  0  0
  8 10  1  0  0  0  0
  9  5  1  0  0  0  0
  9 10  1  6  0  0  0
 11  6  1  1  0  0  0
 11  9  1  0  0  0  0
 12 13  1  0  0  0  0
 13  2  1  0  0  0  0
 14 16  1  0  0  0  0
 16 15  1  6  0  0  0
 17 16  1  0  0  0  0
 17 18  1  0  0  0  0
 18 21  1  0  0  0  0
 19 28  1  0  0  0  0
 21 20  1  0  0  0  0
 22 19  1  0  0  0  0
 22 21  2  0  0  0  0
 23 25  1  0  0  0  0
 24 27  2  0  0  0  0
 25 26  2  0  0  0  0
 26 30  1  0  0  0  0
 27 19  1  0  0  0  0
 27 25  1  0  0  0  0
 28 20  2  0  0  0  0
 28 26  1  0  0  0  0
 30 31  1  0  0  0  0
 30 29  1  1  0  0  0
 32 33  1  0  0  0  0
 33 34  1  0  0  0  0
 34 35  1  0  0  0  0
 35 36  1  0  0  0  0
 37 36  1  1  0  0  0
 37 38  1  0  0  0  0
 37 45  1  0  0  0  0
 38 39  2  0  0  0  0
 39 41  1  0  0  0  0
 40 44  1  1  0  0  0
 40 43  1  0  0  0  0
 42 40  1  0  0  0  0
 42 38  1  0  0  0  0
 43 41  2  0  0  0  0
 45 46  1  6  0  0  0
 47 55  1  0  0  0  0
 48 52  2  0  0  0  0
 49 47  2  0  0  0  0
 49 48  1  0  0  0  0
 50 54  1  0  0  0  0
 52 51  1  0  0  0  0
 52 45  1  0  0  0  0
 53 47  1  0  0  0  0
 53 50  2  0  0  0  0
 55 54  1  0  0  0  0
 55 51  2  0  0  0  0
M  END
>  <MODEL>
8

>  <REMARK>
 VINA RESULT:      -6.4      2.729      8.440
  Name = 
  17 active torsions:
  status: ('A' for Active; 'I' for Inactive)
    1  A    between atoms: C_3  and  C_39
    2  A    between atoms: C_3  and  C_42
    3  A    between atoms: C_4  and  C_18
    4  A    between atoms: N_7  and  C_51
    5  A    between atoms: C_8  and  C_39
    6  A    between atoms: C_10  and  C_18
    7  A    between atoms: C_10  and  C_53
    8  A    between atoms: C_11  and  O_34
    9  A    between atoms: C_11  and  C_35
   10  A    between atoms: C_20  and  O_34
   11  A    between atoms: C_21  and  C_48
   12  A    between atoms: O_22  and  C_36
   13  A    between atoms: O_22  and  C_39
   14  A    between atoms: C_24  and  C_44
   15  A    between atoms: C_33  and  C_54
   16  A    between atoms: C_35  and  C_36
   17  A    between atoms: C_48  and  C_53
                            x       y       z     vdW  Elec       q    Type
                         _______ _______ _______ _____ _____    ______ ____

>  <TORSDO>
F 17

$$$$
=
 OpenBabel11062418393D

 55 61  0  0  1  0  0  0  0  0999 V2000
  192.7880  172.7870  140.4460 C   0  0  1  0  0  3  0  0  0  0  0  0
  191.0100  171.3110  139.7110 N   0  0  0  0  0  0  0  0  0  0  0  0
  191.7380  172.7860  141.5260 C   0  0  0  0  0  2  0  0  0  0  0  0
  190.6140  171.9090  140.9900 C   0  0  1  0  0  3  0  0  0  0  0  0
  192.4450  171.5660  139.5830 C   0  0  1  0  0  3  0  0  0  0  0  0
  191.4760  173.1570  136.8590 O   0  0  0  0  0  1  0  0  0  0  0  0
  192.1260  171.0710  135.9390 C   0  0  0  0  0  2  0  0  0  0  0  0
  193.1080  170.0420  136.4510 C   0  0  0  0  0  2  0  0  0  0  0  0
  192.8840  171.6960  138.1140 C   0  0  1  0  0  3  0  0  0  0  0  0
  193.6580  170.5220  137.7130 N   0  0  0  0  0  2  0  0  0  0  0  0
  191.7040  171.8170  137.1720 C   0  0  1  0  0  3  0  0  0  0  0  0
  190.1410  169.3660  138.7620 O   0  0  0  0  0  1  0  0  0  0  0  0
  190.8380  169.8740  139.8580 C   0  0  0  0  0  2  0  0  0  0  0  0
  192.6860  174.1060  139.6840 C   0  0  0  0  0  2  0  0  0  0  0  0
  195.0120  174.2390  139.1700 O   0  0  0  0  0  1  0  0  0  0  0  0
  193.9740  174.8890  139.8430 C   0  0  2  0  0  3  0  0  0  0  0  0
  194.3120  175.0070  141.3170 C   0  0  0  0  0  2  0  0  0  0  0  0
  195.8180  175.0580  141.5160 C   0  0  0  0  0  2  0  0  0  0  0  0
  197.0690  173.0640  144.1760 N   0  0  0  0  0  0  0  0  0  0  0  0
  196.1200  172.6120  142.2220 C   0  0  0  0  0  3  0  0  0  0  0  0
  196.2620  173.9880  142.4550 C   0  0  0  0  0  0  0  0  0  0  0  0
  196.7660  174.2460  143.6860 N   0  0  0  0  0  0  0  0  0  0  0  0
  196.3860  170.2470  146.5830 C   0  0  0  0  0  1  0  0  0  0  0  0
  197.1840  173.2590  146.5400 O   0  0  0  0  0  0  0  0  0  0  0  0
  196.6270  171.1540  145.4260 C   0  0  0  0  0  0  0  0  0  0  0  0
  196.4170  170.8610  144.1310 C   0  0  0  0  0  0  0  0  0  0  0  0
  197.0120  172.5690  145.5000 C   0  0  0  0  0  0  0  0  0  0  0  0
  196.6780  172.0930  143.3730 C   0  0  0  0  0  0  0  0  0  0  0  0
  196.6350  169.1260  142.3730 C   0  0  0  0  0  1  0  0  0  0  0  0
  195.8650  169.5740  143.6020 C   0  0  2  0  0  3  0  0  0  0  0  0
  194.4590  169.7270  143.2760 N   0  0  0  0  0  1  0  0  0  0  0  0
  189.3730  172.5840  140.9140 O   0  0  0  0  0  0  0  0  0  0  0  0
  188.8600  172.7600  142.2110 C   0  0  0  0  0  2  0  0  0  0  0  0
  188.2460  174.1440  142.3480 C   0  0  0  0  0  2  0  0  0  0  0  0
  189.1600  175.0770  143.1250 C   0  0  0  0  0  2  0  0  0  0  0  0
  189.1680  174.7200  144.4770 O   0  0  0  0  0  0  0  0  0  0  0  0
  189.7980  175.7800  145.1360 C   0  0  2  0  0  3  0  0  0  0  0  0
  191.2500  175.4580  145.3280 C   0  0  0  0  0  0  0  0  0  0  0  0
  192.0720  176.4060  145.7920 C   0  0  0  0  0  3  0  0  0  0  0  0
  193.2240  174.0310  144.7370 C   0  0  1  0  0  3  0  0  0  0  0  0
  193.4990  176.1140  146.0260 C   0  0  0  0  0  3  0  0  0  0  0  0
  191.7500  174.0440  145.1520 C   0  0  0  0  0  2  0  0  0  0  0  0
  194.0380  174.9790  145.5730 C   0  0  0  0  0  3  0  0  0  0  0  0
  193.7370  172.7510  144.8320 F   0  0  0  0  0  0  0  0  0  0  0  0
  189.1000  176.0410  146.4780 C   0  0  2  0  0  3  0  0  0  0  0  0
  188.9030  174.8390  147.1640 O   0  0  0  0  0  1  0  0  0  0  0  0
  185.3840  178.0300  145.9810 C   0  0  0  0  0  0  0  0  0  0  0  0
  186.7330  176.5690  147.2280 C   0  0  0  0  0  3  0  0  0  0  0  0
  185.5410  177.2100  147.0510 N   0  0  0  0  0  0  0  0  0  0  0  0
  184.4760  179.3840  144.5540 C   0  0  0  0  0  3  0  0  0  0  0  0
  187.6100  177.6070  145.2080 C   0  0  0  0  0  3  0  0  0  0  0  0
  187.7940  176.7570  146.3110 C   0  0  0  0  0  0  0  0  0  0  0  0
  184.2140  178.7460  145.6530 N   0  0  0  0  0  0  0  0  0  0  0  0
  185.8750  179.1520  144.0320 C   0  0  0  0  0  2  0  0  0  0  0  0
  186.3770  178.2330  145.0750 C   0  0  0  0  0  0  0  0  0  0  0  0
  1 14  1  6  0  0  0
  1  3  1  0  0  0  0
  2 13  1  0  0  0  0
  2  4  1  0  0  0  0
  4 32  1  6  0  0  0
  4  3  1  0  0  0  0
  5  2  1  6  0  0  0
  5  1  1  0  0  0  0
  7  8  1  0  0  0  0
  7 11  1  0  0  0  0
  8 10  1  0  0  0  0
  9 10  1  6  0  0  0
  9  5  1  0  0  0  0
 11  6  1  6  0  0  0
 11  9  1  0  0  0  0
 12 13  1  0  0  0  0
 14 16  1  0  0  0  0
 16 15  1  6  0  0  0
 16 17  1  0  0  0  0
 17 18  1  0  0  0  0
 18 21  1  0  0  0  0
 19 27  1  0  0  0  0
 20 21  1  0  0  0  0
 20 28  2  0  0  0  0
 21 22  2  0  0  0  0
 22 19  1  0  0  0  0
 25 27  1  0  0  0  0
 25 23  1  0  0  0  0
 26 25  2  0  0  0  0
 27 24  2  0  0  0  0
 28 26  1  0  0  0  0
 28 19  1  0  0  0  0
 30 29  1  6  0  0  0
 30 26  1  0  0  0  0
 31 30  1  0  0  0  0
 32 33  1  0  0  0  0
 33 34  1  0  0  0  0
 34 35  1  0  0  0  0
 35 36  1  0  0  0  0
 37 36  1  1  0  0  0
 37 38  1  0  0  0  0
 37 45  1  0  0  0  0
 38 39  2  0  0  0  0
 39 41  1  0  0  0  0
 40 44  1  1  0  0  0
 40 42  1  0  0  0  0
 40 43  1  0  0  0  0
 42 38  1  0  0  0  0
 43 41  2  0  0  0  0
 45 46  1  6  0  0  0
 47 49  2  0  0  0  0
 49 48  1  0  0  0  0
 50 53  2  0  0  0  0
 51 52  1  0  0  0  0
 52 45  1  0  0  0  0
 52 48  2  0  0  0  0
 53 47  1  0  0  0  0
 54 50  1  0  0  0  0
 54 55  1  0  0  0  0
 55 51  2  0  0  0  0
 55 47  1  0  0  0  0
M  END
>  <MODEL>
9

>  <REMARK>
 VINA RESULT:      -6.4      2.760      8.153
  Name = 
  17 active torsions:
  status: ('A' for Active; 'I' for Inactive)
    1  A    between atoms: C_3  and  C_39
    2  A    between atoms: C_3  and  C_42
    3  A    between atoms: C_4  and  C_18
    4  A    between atoms: N_7  and  C_51
    5  A    between atoms: C_8  and  C_39
    6  A    between atoms: C_10  and  C_18
    7  A    between atoms: C_10  and  C_53
    8  A    between atoms: C_11  and  O_34
    9  A    between atoms: C_11  and  C_35
   10  A    between atoms: C_20  and  O_34
   11  A    between atoms: C_21  and  C_48
   12  A    between atoms: O_22  and  C_36
   13  A    between atoms: O_22  and  C_39
   14  A    between atoms: C_24  and  C_44
   15  A    between atoms: C_33  and  C_54
   16  A    between atoms: C_35  and  C_36
   17  A    between atoms: C_48  and  C_53
                            x       y       z     vdW  Elec       q    Type
                         _______ _______ _______ _____ _____    ______ ____

>  <TORSDO>
F 17

$$$$
