=
 OpenBabel11062418523D

 37 43  0  0  1  0  0  0  0  0999 V2000
  190.9260  175.0120  144.7270 C   0  0  0  0  0  3  0  0  0  0  0  0
  193.0900  174.7760  146.4790 C   0  0  0  0  0  3  0  0  0  0  0  0
  193.0410  173.9830  145.3250 C   0  0  0  0  0  0  0  0  0  0  0  0
  192.0580  175.6730  146.7670 C   0  0  0  0  0  0  0  0  0  0  0  0
  190.0490  177.4180  147.3900 N   0  0  0  0  0  0  0  0  0  0  0  0
  192.1080  176.4070  147.9060 N   0  0  0  0  0  0  0  0  0  0  0  0
  191.1120  177.2710  148.2200 C   0  0  0  0  0  3  0  0  0  0  0  0
  190.9620  175.8050  145.8840 C   0  0  0  0  0  0  0  0  0  0  0  0
  189.9370  176.7230  146.2230 C   0  0  0  0  0  0  0  0  0  0  0  0
  191.9590  174.1160  144.4450 C   0  0  0  0  0  3  0  0  0  0  0  0
  194.1690  171.8060  145.6190 C   0  0  0  0  0  3  0  0  0  0  0  0
  194.1510  173.0690  145.0100 C   0  0  0  0  0  0  0  0  0  0  0  0
  197.5690  170.1550  144.3830 Cl  0  0  0  0  0  0  0  0  0  0  0  0
  195.2210  173.4220  144.1560 C   0  0  0  0  0  0  0  0  0  0  0  0
  195.2040  170.9510  145.4110 N   0  0  0  0  0  0  0  0  0  0  0  0
  196.2760  172.5210  143.9720 C   0  0  0  0  0  3  0  0  0  0  0  0
  196.2520  171.2850  144.6160 C   0  0  0  0  0  0  0  0  0  0  0  0
  195.2360  174.6470  143.4140 N   0  0  0  0  0  0  0  0  0  0  0  0
  195.4040  176.4990  142.2550 N   0  0  0  0  0  2  0  0  0  0  0  0
  195.3390  176.6850  144.5690 O   0  0  0  0  0  1  0  0  0  0  0  0
  195.8790  175.9610  143.5020 C   0  0  2  0  0  0  0  0  0  0  0  0
  194.7850  175.2060  142.1350 C   0  0  1  0  0  3  0  0  0  0  0  0
  186.3270  176.7600  145.0770 C   0  0  0  0  0  3  0  0  0  0  0  0
  187.6460  177.9220  143.4230 C   0  0  0  0  0  3  0  0  0  0  0  0
  188.7980  177.6820  144.1750 C   0  0  0  0  0  3  0  0  0  0  0  0
  187.4800  176.5210  145.8290 C   0  0  0  0  0  3  0  0  0  0  0  0
  186.4030  177.4610  143.8670 C   0  0  0  0  0  0  0  0  0  0  0  0
  188.7330  176.9690  145.3830 C   0  0  0  0  0  0  0  0  0  0  0  0
  184.0500  179.0870  144.5550 O   0  0  0  0  0  0  0  0  0  0  0  0
  183.0150  178.6710  142.5230 N   0  0  0  0  0  2  0  0  0  0  0  0
  185.2440  177.7240  143.0650 N   0  0  0  0  0  2  0  0  0  0  0  0
  184.1050  178.5170  143.4340 C   0  0  0  0  0  0  0  0  0  0  0  0
  182.9810  178.0270  141.2160 C   0  0  0  0  0  2  0  0  0  0  0  0
  181.6450  178.2690  140.5310 C   0  0  0  0  0  2  0  0  0  0  0  0
  180.0300  180.1120  140.5150 C   0  0  0  0  0  2  0  0  0  0  0  0
  179.4210  178.9550  141.0340 O   0  0  0  0  0  0  0  0  0  0  0  0
  180.7670  179.1690  141.3810 C   0  0  1  0  0  3  0  0  0  0  0  0
  1  8  1  0  0  0  0
  2  4  1  0  0  0  0
  3  2  2  0  0  0  0
  4  6  1  0  0  0  0
  5  7  1  0  0  0  0
  6  7  2  0  0  0  0
  8  9  1  0  0  0  0
  8  4  2  0  0  0  0
  9  5  2  0  0  0  0
 10  1  2  0  0  0  0
 10  3  1  0  0  0  0
 12  3  1  0  0  0  0
 12 11  2  0  0  0  0
 13 17  1  0  0  0  0
 14 12  1  0  0  0  0
 15 11  1  0  0  0  0
 16 14  2  0  0  0  0
 16 17  1  0  0  0  0
 17 15  2  0  0  0  0
 18 21  1  0  0  0  0
 18 14  1  0  0  0  0
 19 21  1  0  0  0  0
 21 20  1  1  0  0  0
 22 19  1  1  0  0  0
 22 18  1  0  0  0  0
 22 21  1  0  0  0  0
 23 26  1  0  0  0  0
 24 27  1  0  0  0  0
 24 25  2  0  0  0  0
 25 28  1  0  0  0  0
 27 23  2  0  0  0  0
 28 26  2  0  0  0  0
 28  9  1  0  0  0  0
 30 32  1  0  0  0  0
 31 32  1  0  0  0  0
 31 27  1  0  0  0  0
 32 29  2  0  0  0  0
 33 30  1  0  0  0  0
 34 33  1  0  0  0  0
 35 36  1  0  0  0  0
 35 37  1  0  0  0  0
 36 37  1  0  0  0  0
 37 34  1  6  0  0  0
M  END
>  <MODEL>
1

>  <REMARK>
 VINA RESULT:      -7.7      0.000      0.000
  Name = 
  7 active torsions:
  status: ('A' for Active; 'I' for Inactive)
    1  A    between atoms: C_1  and  C_5
    2  A    between atoms: C_1  and  C_25
    3  A    between atoms: N_4  and  C_18
    4  A    between atoms: C_5  and  N_24
    5  A    between atoms: C_7  and  C_15
    6  A    between atoms: N_28  and  C_33
    7  A    between atoms: C_34  and  C_36
                            x       y       z     vdW  Elec       q    Type
                         _______ _______ _______ _____ _____    ______ ____

>  <TORSDO>
F 7

$$$$
=
 OpenBabel11062418523D

 37 43  0  0  1  0  0  0  0  0999 V2000
  192.1220  173.3400  144.1830 C   0  0  0  0  0  3  0  0  0  0  0  0
  193.9450  171.5720  143.0160 C   0  0  0  0  0  3  0  0  0  0  0  0
  193.8980  171.7000  144.4100 C   0  0  0  0  0  0  0  0  0  0  0  0
  193.0980  172.3320  142.2050 C   0  0  0  0  0  0  0  0  0  0  0  0
  191.4830  173.8180  140.5750 N   0  0  0  0  0  0  0  0  0  0  0  0
  193.1820  172.2160  140.8570 N   0  0  0  0  0  0  0  0  0  0  0  0
  192.3860  172.9540  140.0450 C   0  0  0  0  0  3  0  0  0  0  0  0
  192.1670  173.2240  142.7850 C   0  0  0  0  0  0  0  0  0  0  0  0
  191.3340  173.9760  141.9210 C   0  0  0  0  0  0  0  0  0  0  0  0
  192.9730  172.5800  144.9880 C   0  0  0  0  0  3  0  0  0  0  0  0
  194.2980  169.6100  145.6620 C   0  0  0  0  0  3  0  0  0  0  0  0
  194.7670  170.8690  145.2580 C   0  0  0  0  0  0  0  0  0  0  0  0
  197.1500  168.2090  148.0530 Cl  0  0  0  0  0  0  0  0  0  0  0  0
  196.0330  171.2980  145.7190 C   0  0  0  0  0  0  0  0  0  0  0  0
  195.0340  168.8320  146.4980 N   0  0  0  0  0  0  0  0  0  0  0  0
  196.7600  170.4750  146.5860 C   0  0  0  0  0  3  0  0  0  0  0  0
  196.2390  169.2400  146.9710 C   0  0  0  0  0  0  0  0  0  0  0  0
  196.6340  172.5200  145.2770 N   0  0  0  0  0  0  0  0  0  0  0  0
  197.6600  174.3700  144.7040 N   0  0  0  0  0  2  0  0  0  0  0  0
  195.7650  174.5620  146.0320 O   0  0  0  0  0  1  0  0  0  0  0  0
  196.9440  173.8400  145.8330 C   0  0  2  0  0  0  0  0  0  0  0  0
  197.3890  173.0710  144.1460 C   0  0  1  0  0  3  0  0  0  0  0  0
  189.7300  177.2170  143.0500 C   0  0  0  0  0  3  0  0  0  0  0  0
  188.0140  175.5190  142.9850 C   0  0  0  0  0  3  0  0  0  0  0  0
  188.9610  174.5810  142.5670 C   0  0  0  0  0  3  0  0  0  0  0  0
  190.6750  176.2780  142.6320 C   0  0  0  0  0  3  0  0  0  0  0  0
  188.3920  176.8420  143.2320 C   0  0  0  0  0  0  0  0  0  0  0  0
  190.3070  174.9440  142.3950 C   0  0  0  0  0  0  0  0  0  0  0  0
  186.5830  178.4620  141.5700 O   0  0  0  0  0  0  0  0  0  0  0  0
  185.5900  179.4620  143.4110 N   0  0  0  0  0  2  0  0  0  0  0  0
  187.3920  177.7750  143.6630 N   0  0  0  0  0  2  0  0  0  0  0  0
  186.5290  178.5590  142.8250 C   0  0  0  0  0  0  0  0  0  0  0  0
  185.4750  179.6570  144.8500 C   0  0  0  0  0  2  0  0  0  0  0  0
  184.3260  178.8370  145.4150 C   0  0  0  0  0  2  0  0  0  0  0  0
  185.1640  176.8480  146.5750 C   0  0  0  0  0  2  0  0  0  0  0  0
  186.0730  177.9090  146.7380 O   0  0  0  0  0  0  0  0  0  0  0  0
  184.7070  178.2410  146.7570 C   0  0  1  0  0  3  0  0  0  0  0  0
  1 10  1  0  0  0  0
  2  3  1  0  0  0  0
  3 10  2  0  0  0  0
  3 12  1  0  0  0  0
  4  8  1  0  0  0  0
  4  2  2  0  0  0  0
  5  9  2  0  0  0  0
  6  4  1  0  0  0  0
  7  5  1  0  0  0  0
  7  6  2  0  0  0  0
  8  1  2  0  0  0  0
  9 28  1  0  0  0  0
  9  8  1  0  0  0  0
 11 15  1  0  0  0  0
 12 11  2  0  0  0  0
 12 14  1  0  0  0  0
 14 16  2  0  0  0  0
 15 17  2  0  0  0  0
 16 17  1  0  0  0  0
 17 13  1  0  0  0  0
 18 14  1  0  0  0  0
 18 21  1  0  0  0  0
 19 21  1  0  0  0  0
 21 20  1  6  0  0  0
 22 19  1  6  0  0  0
 22 18  1  0  0  0  0
 22 21  1  0  0  0  0
 23 27  1  0  0  0  0
 24 27  2  0  0  0  0
 25 24  1  0  0  0  0
 26 23  2  0  0  0  0
 27 31  1  0  0  0  0
 28 25  2  0  0  0  0
 28 26  1  0  0  0  0
 29 32  2  0  0  0  0
 30 33  1  0  0  0  0
 32 30  1  0  0  0  0
 32 31  1  0  0  0  0
 33 34  1  0  0  0  0
 35 36  1  0  0  0  0
 35 37  1  0  0  0  0
 36 37  1  0  0  0  0
 37 34  1  6  0  0  0
M  END
>  <MODEL>
2

>  <REMARK>
 VINA RESULT:      -7.5      3.446      4.693
  Name = 
  7 active torsions:
  status: ('A' for Active; 'I' for Inactive)
    1  A    between atoms: C_1  and  C_5
    2  A    between atoms: C_1  and  C_25
    3  A    between atoms: N_4  and  C_18
    4  A    between atoms: C_5  and  N_24
    5  A    between atoms: C_7  and  C_15
    6  A    between atoms: N_28  and  C_33
    7  A    between atoms: C_34  and  C_36
                            x       y       z     vdW  Elec       q    Type
                         _______ _______ _______ _____ _____    ______ ____

>  <TORSDO>
F 7

$$$$
=
 OpenBabel11062418523D

 37 43  0  0  1  0  0  0  0  0999 V2000
  190.3530  176.3670  143.3310 C   0  0  0  0  0  3  0  0  0  0  0  0
  192.5980  176.0240  144.9600 C   0  0  0  0  0  3  0  0  0  0  0  0
  192.6850  175.7430  143.5910 C   0  0  0  0  0  0  0  0  0  0  0  0
  191.3930  176.4590  145.5200 C   0  0  0  0  0  0  0  0  0  0  0  0
  189.0530  177.2850  146.6650 N   0  0  0  0  0  0  0  0  0  0  0  0
  191.3210  176.6940  146.8530 N   0  0  0  0  0  0  0  0  0  0  0  0
  190.1620  177.1000  147.4250 C   0  0  0  0  0  3  0  0  0  0  0  0
  190.2540  176.6430  144.7030 C   0  0  0  0  0  0  0  0  0  0  0  0
  189.0540  177.0800  145.3180 C   0  0  0  0  0  0  0  0  0  0  0  0
  191.5590  175.9300  142.7780 C   0  0  0  0  0  3  0  0  0  0  0  0
  194.8260  176.3080  142.5000 C   0  0  0  0  0  3  0  0  0  0  0  0
  193.9670  175.3210  143.0030 C   0  0  0  0  0  0  0  0  0  0  0  0
  197.8680  174.2740  140.9430 Cl  0  0  0  0  0  0  0  0  0  0  0  0
  194.3510  173.9660  142.8850 C   0  0  0  0  0  0  0  0  0  0  0  0
  195.9910  175.9670  141.8900 N   0  0  0  0  0  0  0  0  0  0  0  0
  195.5530  173.6500  142.2420 C   0  0  0  0  0  3  0  0  0  0  0  0
  196.3620  174.6690  141.7430 C   0  0  0  0  0  0  0  0  0  0  0  0
  193.5860  172.9010  143.4590 N   0  0  0  0  0  0  0  0  0  0  0  0
  192.4970  171.1750  144.2590 N   0  0  0  0  0  2  0  0  0  0  0  0
  191.4680  172.4090  142.5830 O   0  0  0  0  0  1  0  0  0  0  0  0
  192.6770  171.8470  143.0000 C   0  0  2  0  0  0  0  0  0  0  0  0
  193.4090  172.1850  144.7280 C   0  0  1  0  0  3  0  0  0  0  0  0
  186.0080  176.4650  143.1530 C   0  0  0  0  0  3  0  0  0  0  0  0
  185.9010  178.7370  143.9600 C   0  0  0  0  0  3  0  0  0  0  0  0
  187.1060  178.5500  144.6410 C   0  0  0  0  0  3  0  0  0  0  0  0
  187.2130  176.2790  143.8340 C   0  0  0  0  0  3  0  0  0  0  0  0
  185.3450  177.6970  143.2090 C   0  0  0  0  0  0  0  0  0  0  0  0
  187.7840  177.3220  144.5790 C   0  0  0  0  0  0  0  0  0  0  0  0
  184.9420  178.3680  140.3730 O   0  0  0  0  0  0  0  0  0  0  0  0
  182.6380  178.4830  140.6010 N   0  0  0  0  0  2  0  0  0  0  0  0
  184.1090  177.9290  142.5220 N   0  0  0  0  0  2  0  0  0  0  0  0
  183.9450  178.2650  141.1350 C   0  0  0  0  0  0  0  0  0  0  0  0
  181.4300  178.4100  141.4140 C   0  0  0  0  0  2  0  0  0  0  0  0
  180.1990  178.2540  140.5350 C   0  0  0  0  0  2  0  0  0  0  0  0
  178.0520  177.1780  141.0210 C   0  0  0  0  0  2  0  0  0  0  0  0
  178.8660  177.1470  142.1670 O   0  0  0  0  0  0  0  0  0  0  0  0
  178.9360  178.3070  141.3750 C   0  0  1  0  0  3  0  0  0  0  0  0
  1  8  1  0  0  0  0
  2  4  1  0  0  0  0
  3  2  2  0  0  0  0
  4  6  1  0  0  0  0
  5  7  1  0  0  0  0
  6  7  2  0  0  0  0
  8  9  1  0  0  0  0
  8  4  2  0  0  0  0
  9  5  2  0  0  0  0
 10  1  2  0  0  0  0
 10  3  1  0  0  0  0
 11 12  1  0  0  0  0
 12  3  1  0  0  0  0
 13 17  1  0  0  0  0
 14 12  2  0  0  0  0
 14 18  1  0  0  0  0
 15 11  2  0  0  0  0
 16 14  1  0  0  0  0
 17 15  1  0  0  0  0
 17 16  2  0  0  0  0
 18 22  1  0  0  0  0
 21 20  1  1  0  0  0
 21 18  1  0  0  0  0
 21 19  1  0  0  0  0
 21 22  1  0  0  0  0
 22 19  1  1  0  0  0
 23 27  2  0  0  0  0
 23 26  1  0  0  0  0
 24 25  2  0  0  0  0
 26 28  2  0  0  0  0
 27 24  1  0  0  0  0
 28 25  1  0  0  0  0
 28  9  1  0  0  0  0
 29 32  2  0  0  0  0
 30 32  1  0  0  0  0
 30 33  1  0  0  0  0
 31 27  1  0  0  0  0
 32 31  1  0  0  0  0
 34 33  1  0  0  0  0
 35 37  1  0  0  0  0
 35 36  1  0  0  0  0
 37 34  1  6  0  0  0
 37 36  1  0  0  0  0
M  END
>  <MODEL>
3

>  <REMARK>
 VINA RESULT:      -7.5      2.239      3.164
  Name = 
  7 active torsions:
  status: ('A' for Active; 'I' for Inactive)
    1  A    between atoms: C_1  and  C_5
    2  A    between atoms: C_1  and  C_25
    3  A    between atoms: N_4  and  C_18
    4  A    between atoms: C_5  and  N_24
    5  A    between atoms: C_7  and  C_15
    6  A    between atoms: N_28  and  C_33
    7  A    between atoms: C_34  and  C_36
                            x       y       z     vdW  Elec       q    Type
                         _______ _______ _______ _____ _____    ______ ____

>  <TORSDO>
F 7

$$$$
=
 OpenBabel11062418523D

 37 43  0  0  1  0  0  0  0  0999 V2000
  192.0650  174.3930  143.6140 C   0  0  0  0  0  3  0  0  0  0  0  0
  194.7810  173.7400  143.6960 C   0  0  0  0  0  3  0  0  0  0  0  0
  193.9590  173.1660  142.7190 C   0  0  0  0  0  0  0  0  0  0  0  0
  194.2500  174.6250  144.6400 C   0  0  0  0  0  0  0  0  0  0  0  0
  193.2530  176.3360  146.5230 N   0  0  0  0  0  0  0  0  0  0  0  0
  195.0560  175.1440  145.5980 N   0  0  0  0  0  0  0  0  0  0  0  0
  194.5650  175.9900  146.5360 C   0  0  0  0  0  3  0  0  0  0  0  0
  192.8790  174.9670  144.6020 C   0  0  0  0  0  0  0  0  0  0  0  0
  192.3870  175.8630  145.5830 C   0  0  0  0  0  0  0  0  0  0  0  0
  192.6000  173.5080  142.6760 C   0  0  0  0  0  3  0  0  0  0  0  0
  194.9110  172.8070  140.4700 C   0  0  0  0  0  3  0  0  0  0  0  0
  194.5330  172.2650  141.7070 C   0  0  0  0  0  0  0  0  0  0  0  0
  196.1170  169.6720  138.3400 Cl  0  0  0  0  0  0  0  0  0  0  0  0
  194.6810  170.8740  141.9080 C   0  0  0  0  0  0  0  0  0  0  0  0
  195.3860  172.0070  139.4790 N   0  0  0  0  0  0  0  0  0  0  0  0
  195.1640  170.0790  140.8630 C   0  0  0  0  0  3  0  0  0  0  0  0
  195.5080  170.6660  139.6470 C   0  0  0  0  0  0  0  0  0  0  0  0
  194.4170  170.2520  143.1710 N   0  0  0  0  0  0  0  0  0  0  0  0
  194.0040  169.1680  145.0310 N   0  0  0  0  0  2  0  0  0  0  0  0
  192.2480  170.3360  144.0580 O   0  0  0  0  0  1  0  0  0  0  0  0
  193.3330  169.4930  143.8000 C   0  0  2  0  0  0  0  0  0  0  0  0
  195.0920  169.8870  144.4210 C   0  0  1  0  0  3  0  0  0  0  0  0
  188.7640  176.1030  146.6660 C   0  0  0  0  0  3  0  0  0  0  0  0
  189.1610  177.8110  145.0060 C   0  0  0  0  0  3  0  0  0  0  0  0
  190.4880  177.3910  144.8940 C   0  0  0  0  0  3  0  0  0  0  0  0
  190.0920  175.6840  146.5520 C   0  0  0  0  0  3  0  0  0  0  0  0
  188.2890  177.1680  145.8910 C   0  0  0  0  0  0  0  0  0  0  0  0
  190.9700  176.3150  145.6570 C   0  0  0  0  0  0  0  0  0  0  0  0
  187.0080  178.6560  148.0820 O   0  0  0  0  0  0  0  0  0  0  0  0
  184.9560  178.7170  147.0050 N   0  0  0  0  0  2  0  0  0  0  0  0
  186.9330  177.6260  145.9750 N   0  0  0  0  0  2  0  0  0  0  0  0
  186.3340  178.3440  147.0650 C   0  0  0  0  0  0  0  0  0  0  0  0
  184.0940  178.3760  145.8800 C   0  0  0  0  0  2  0  0  0  0  0  0
  184.4490  179.2090  144.6580 C   0  0  0  0  0  2  0  0  0  0  0  0
  185.1650  178.6160  142.3910 C   0  0  0  0  0  2  0  0  0  0  0  0
  185.0250  177.4480  143.1630 O   0  0  0  0  0  0  0  0  0  0  0  0
  184.0830  178.4680  143.3860 C   0  0  1  0  0  3  0  0  0  0  0  0
  1  8  1  0  0  0  0
  2  4  1  0  0  0  0
  3  2  2  0  0  0  0
  4  6  1  0  0  0  0
  5  7  1  0  0  0  0
  6  7  2  0  0  0  0
  8  4  2  0  0  0  0
  8  9  1  0  0  0  0
  9 28  1  0  0  0  0
  9  5  2  0  0  0  0
 10  3  1  0  0  0  0
 10  1  2  0  0  0  0
 11 12  1  0  0  0  0
 12 14  2  0  0  0  0
 12  3  1  0  0  0  0
 13 17  1  0  0  0  0
 14 18  1  0  0  0  0
 15 17  1  0  0  0  0
 15 11  2  0  0  0  0
 16 14  1  0  0  0  0
 17 16  2  0  0  0  0
 18 21  1  0  0  0  0
 18 22  1  0  0  0  0
 21 20  1  1  0  0  0
 21 22  1  0  0  0  0
 21 19  1  0  0  0  0
 22 19  1  1  0  0  0
 24 27  1  0  0  0  0
 25 24  2  0  0  0  0
 25 28  1  0  0  0  0
 26 23  1  0  0  0  0
 27 31  1  0  0  0  0
 27 23  2  0  0  0  0
 28 26  2  0  0  0  0
 30 32  1  0  0  0  0
 31 32  1  0  0  0  0
 32 29  2  0  0  0  0
 33 30  1  0  0  0  0
 34 33  1  0  0  0  0
 35 36  1  0  0  0  0
 35 37  1  0  0  0  0
 36 37  1  0  0  0  0
 37 34  1  1  0  0  0
M  END
>  <MODEL>
4

>  <REMARK>
 VINA RESULT:      -6.7      2.983      4.434
  Name = 
  7 active torsions:
  status: ('A' for Active; 'I' for Inactive)
    1  A    between atoms: C_1  and  C_5
    2  A    between atoms: C_1  and  C_25
    3  A    between atoms: N_4  and  C_18
    4  A    between atoms: C_5  and  N_24
    5  A    between atoms: C_7  and  C_15
    6  A    between atoms: N_28  and  C_33
    7  A    between atoms: C_34  and  C_36
                            x       y       z     vdW  Elec       q    Type
                         _______ _______ _______ _____ _____    ______ ____

>  <TORSDO>
F 7

$$$$
=
 OpenBabel11062418523D

 37 43  0  0  1  0  0  0  0  0999 V2000
  192.3710  175.5630  142.9400 C   0  0  0  0  0  3  0  0  0  0  0  0
  195.0920  174.9320  143.0280 C   0  0  0  0  0  3  0  0  0  0  0  0
  194.3840  174.7850  141.8290 C   0  0  0  0  0  0  0  0  0  0  0  0
  194.4440  175.3770  144.1840 C   0  0  0  0  0  0  0  0  0  0  0  0
  193.2160  176.2150  146.4780 N   0  0  0  0  0  0  0  0  0  0  0  0
  195.1410  175.4810  145.3420 N   0  0  0  0  0  0  0  0  0  0  0  0
  194.5340  175.8930  146.4830 C   0  0  0  0  0  3  0  0  0  0  0  0
  193.0700  175.7060  144.1490 C   0  0  0  0  0  0  0  0  0  0  0  0
  192.4570  176.1470  145.3480 C   0  0  0  0  0  0  0  0  0  0  0  0
  193.0230  175.1150  141.7890 C   0  0  0  0  0  3  0  0  0  0  0  0
  195.8400  175.2980  139.9020 C   0  0  0  0  0  3  0  0  0  0  0  0
  195.0820  174.3520  140.6070 C   0  0  0  0  0  0  0  0  0  0  0  0
  197.1430  173.3350  136.6980 Cl  0  0  0  0  0  0  0  0  0  0  0  0
  194.9870  173.0400  140.0900 C   0  0  0  0  0  0  0  0  0  0  0  0
  196.4500  174.9650  138.7340 N   0  0  0  0  0  0  0  0  0  0  0  0
  195.6200  172.7350  138.8800 C   0  0  0  0  0  3  0  0  0  0  0  0
  196.3470  173.7170  138.2090 C   0  0  0  0  0  0  0  0  0  0  0  0
  194.3210  171.9870  140.7940 N   0  0  0  0  0  0  0  0  0  0  0  0
  193.3650  170.2770  141.7770 N   0  0  0  0  0  2  0  0  0  0  0  0
  192.0660  171.5450  140.3300 O   0  0  0  0  0  1  0  0  0  0  0  0
  193.3200  170.9550  140.5100 C   0  0  2  0  0  0  0  0  0  0  0  0
  194.3700  171.2640  142.0700 C   0  0  1  0  0  3  0  0  0  0  0  0
  188.8650  176.2570  146.5440 C   0  0  0  0  0  3  0  0  0  0  0  0
  189.1220  177.9120  144.8060 C   0  0  0  0  0  3  0  0  0  0  0  0
  190.4640  177.5520  144.6640 C   0  0  0  0  0  3  0  0  0  0  0  0
  190.2070  175.8980  146.4020 C   0  0  0  0  0  3  0  0  0  0  0  0
  188.3120  177.2660  145.7450 C   0  0  0  0  0  0  0  0  0  0  0  0
  191.0230  176.5330  145.4520 C   0  0  0  0  0  0  0  0  0  0  0  0
  186.9850  178.5890  148.0120 O   0  0  0  0  0  0  0  0  0  0  0  0
  184.9250  178.6150  146.9490 N   0  0  0  0  0  2  0  0  0  0  0  0
  186.9390  177.6610  145.8580 N   0  0  0  0  0  2  0  0  0  0  0  0
  186.3170  178.2990  146.9840 C   0  0  0  0  0  0  0  0  0  0  0  0
  184.0700  178.2940  145.8130 C   0  0  0  0  0  2  0  0  0  0  0  0
  184.3300  179.2470  144.6570 C   0  0  0  0  0  2  0  0  0  0  0  0
  185.3620  178.6650  142.5120 C   0  0  0  0  0  2  0  0  0  0  0  0
  185.0730  177.4920  143.2310 O   0  0  0  0  0  0  0  0  0  0  0  0
  184.1380  178.5380  143.3290 C   0  0  1  0  0  3  0  0  0  0  0  0
  1  8  1  0  0  0  0
  2  4  1  0  0  0  0
  3  2  2  0  0  0  0
  4  6  1  0  0  0  0
  5  7  1  0  0  0  0
  6  7  2  0  0  0  0
  8  4  2  0  0  0  0
  8  9  1  0  0  0  0
  9 28  1  0  0  0  0
  9  5  2  0  0  0  0
 10  3  1  0  0  0  0
 10  1  2  0  0  0  0
 11 12  1  0  0  0  0
 12  3  1  0  0  0  0
 13 17  1  0  0  0  0
 14 12  2  0  0  0  0
 14 18  1  0  0  0  0
 15 11  2  0  0  0  0
 16 14  1  0  0  0  0
 17 15  1  0  0  0  0
 17 16  2  0  0  0  0
 18 22  1  0  0  0  0
 21 20  1  1  0  0  0
 21 18  1  0  0  0  0
 21 19  1  0  0  0  0
 21 22  1  0  0  0  0
 22 19  1  1  0  0  0
 24 27  1  0  0  0  0
 25 24  2  0  0  0  0
 25 28  1  0  0  0  0
 26 23  1  0  0  0  0
 27 31  1  0  0  0  0
 27 23  2  0  0  0  0
 28 26  2  0  0  0  0
 30 32  1  0  0  0  0
 31 32  1  0  0  0  0
 32 29  2  0  0  0  0
 33 30  1  0  0  0  0
 34 33  1  0  0  0  0
 35 36  1  0  0  0  0
 35 37  1  0  0  0  0
 36 37  1  0  0  0  0
 37 34  1  1  0  0  0
M  END
>  <MODEL>
5

>  <REMARK>
 VINA RESULT:      -6.7      3.271      4.720
  Name = 
  7 active torsions:
  status: ('A' for Active; 'I' for Inactive)
    1  A    between atoms: C_1  and  C_5
    2  A    between atoms: C_1  and  C_25
    3  A    between atoms: N_4  and  C_18
    4  A    between atoms: C_5  and  N_24
    5  A    between atoms: C_7  and  C_15
    6  A    between atoms: N_28  and  C_33
    7  A    between atoms: C_34  and  C_36
                            x       y       z     vdW  Elec       q    Type
                         _______ _______ _______ _____ _____    ______ ____

>  <TORSDO>
F 7

$$$$
=
 OpenBabel11062418523D

 37 43  0  0  1  0  0  0  0  0999 V2000
  191.9990  174.0970  143.9050 C   0  0  0  0  0  3  0  0  0  0  0  0
  194.7230  173.4800  143.9780 C   0  0  0  0  0  3  0  0  0  0  0  0
  193.8770  172.7810  143.1100 C   0  0  0  0  0  0  0  0  0  0  0  0
  194.2130  174.4740  144.8190 C   0  0  0  0  0  0  0  0  0  0  0  0
  193.2570  176.4040  146.5020 N   0  0  0  0  0  0  0  0  0  0  0  0
  195.0430  175.1170  145.6760 N   0  0  0  0  0  0  0  0  0  0  0  0
  194.5730  176.0720  146.5150 C   0  0  0  0  0  3  0  0  0  0  0  0
  192.8370  174.7990  144.7840 C   0  0  0  0  0  0  0  0  0  0  0  0
  192.3670  175.8090  145.6590 C   0  0  0  0  0  0  0  0  0  0  0  0
  192.5140  173.1040  143.0690 C   0  0  0  0  0  3  0  0  0  0  0  0
  194.5500  170.4460  142.6700 C   0  0  0  0  0  3  0  0  0  0  0  0
  194.4290  171.7620  142.2010 C   0  0  0  0  0  0  0  0  0  0  0  0
  196.3050  168.4880  139.6860 Cl  0  0  0  0  0  0  0  0  0  0  0  0
  194.8830  172.0590  140.8960 C   0  0  0  0  0  0  0  0  0  0  0  0
  195.1140  169.4840  141.8940 N   0  0  0  0  0  0  0  0  0  0  0  0
  195.4660  171.0460  140.1280 C   0  0  0  0  0  3  0  0  0  0  0  0
  195.5790  169.7580  140.6480 C   0  0  0  0  0  0  0  0  0  0  0  0
  194.7060  173.3490  140.3000 N   0  0  0  0  0  0  0  0  0  0  0  0
  194.5360  175.2840  139.2830 N   0  0  0  0  0  2  0  0  0  0  0  0
  195.8090  175.2000  141.2240 O   0  0  0  0  0  1  0  0  0  0  0  0
  195.5170  174.5390  140.0280 C   0  0  2  0  0  0  0  0  0  0  0  0
  193.7300  174.1150  139.5160 C   0  0  1  0  0  3  0  0  0  0  0  0
  188.7400  176.0470  146.7260 C   0  0  0  0  0  3  0  0  0  0  0  0
  189.1350  177.7360  145.0460 C   0  0  0  0  0  3  0  0  0  0  0  0
  190.4650  177.3200  144.9440 C   0  0  0  0  0  3  0  0  0  0  0  0
  190.0690  175.6320  146.6220 C   0  0  0  0  0  3  0  0  0  0  0  0
  188.2620  177.1010  145.9360 C   0  0  0  0  0  0  0  0  0  0  0  0
  190.9480  176.2560  145.7220 C   0  0  0  0  0  0  0  0  0  0  0  0
  186.9860  178.6690  148.0720 O   0  0  0  0  0  0  0  0  0  0  0  0
  184.9270  178.6750  147.0060 N   0  0  0  0  0  2  0  0  0  0  0  0
  186.9050  177.5540  146.0100 N   0  0  0  0  0  2  0  0  0  0  0  0
  186.3070  178.3120  147.0730 C   0  0  0  0  0  0  0  0  0  0  0  0
  184.0610  178.2830  145.9010 C   0  0  0  0  0  2  0  0  0  0  0  0
  184.3470  179.1260  144.6680 C   0  0  0  0  0  2  0  0  0  0  0  0
  185.1220  178.6300  142.3970 C   0  0  0  0  0  2  0  0  0  0  0  0
  185.1720  177.4610  143.1790 O   0  0  0  0  0  0  0  0  0  0  0  0
  184.0860  178.3260  143.4050 C   0  0  1  0  0  3  0  0  0  0  0  0
  1  8  1  0  0  0  0
  2  4  1  0  0  0  0
  3  2  2  0  0  0  0
  4  6  1  0  0  0  0
  5  7  1  0  0  0  0
  6  7  2  0  0  0  0
  8  4  2  0  0  0  0
  8  9  1  0  0  0  0
  9 28  1  0  0  0  0
  9  5  2  0  0  0  0
 10  3  1  0  0  0  0
 10  1  2  0  0  0  0
 12 11  1  0  0  0  0
 12  3  1  0  0  0  0
 13 17  1  0  0  0  0
 14 12  2  0  0  0  0
 15 11  2  0  0  0  0
 16 17  2  0  0  0  0
 16 14  1  0  0  0  0
 17 15  1  0  0  0  0
 18 14  1  0  0  0  0
 19 21  1  0  0  0  0
 21 18  1  0  0  0  0
 21 20  1  1  0  0  0
 22 19  1  1  0  0  0
 22 21  1  0  0  0  0
 22 18  1  0  0  0  0
 24 27  1  0  0  0  0
 25 24  2  0  0  0  0
 25 28  1  0  0  0  0
 26 23  1  0  0  0  0
 27 31  1  0  0  0  0
 27 23  2  0  0  0  0
 28 26  2  0  0  0  0
 30 32  1  0  0  0  0
 31 32  1  0  0  0  0
 32 29  2  0  0  0  0
 33 30  1  0  0  0  0
 34 33  1  0  0  0  0
 35 36  1  0  0  0  0
 35 37  1  0  0  0  0
 36 37  1  0  0  0  0
 37 34  1  1  0  0  0
M  END
>  <MODEL>
6

>  <REMARK>
 VINA RESULT:      -6.7      2.819      3.709
  Name = 
  7 active torsions:
  status: ('A' for Active; 'I' for Inactive)
    1  A    between atoms: C_1  and  C_5
    2  A    between atoms: C_1  and  C_25
    3  A    between atoms: N_4  and  C_18
    4  A    between atoms: C_5  and  N_24
    5  A    between atoms: C_7  and  C_15
    6  A    between atoms: N_28  and  C_33
    7  A    between atoms: C_34  and  C_36
                            x       y       z     vdW  Elec       q    Type
                         _______ _______ _______ _____ _____    ______ ____

>  <TORSDO>
F 7

$$$$
=
 OpenBabel11062418523D

 37 43  0  0  1  0  0  0  0  0999 V2000
  192.9280  174.4480  143.0720 C   0  0  0  0  0  3  0  0  0  0  0  0
  195.6150  173.9960  143.6920 C   0  0  0  0  0  3  0  0  0  0  0  0
  194.9550  173.1410  142.8010 C   0  0  0  0  0  0  0  0  0  0  0  0
  194.9360  175.0650  144.2840 C   0  0  0  0  0  0  0  0  0  0  0  0
  193.6430  177.1500  145.4900 N   0  0  0  0  0  0  0  0  0  0  0  0
  195.5840  175.8620  145.1680 N   0  0  0  0  0  0  0  0  0  0  0  0
  194.9450  176.8940  145.7710 C   0  0  0  0  0  3  0  0  0  0  0  0
  193.5780  175.3070  143.9710 C   0  0  0  0  0  0  0  0  0  0  0  0
  192.9320  176.3990  144.6020 C   0  0  0  0  0  0  0  0  0  0  0  0
  193.6110  173.3810  142.4860 C   0  0  0  0  0  3  0  0  0  0  0  0
  196.2040  172.2500  140.8670 C   0  0  0  0  0  3  0  0  0  0  0  0
  195.6870  172.0410  142.1530 C   0  0  0  0  0  0  0  0  0  0  0  0
  197.7860  168.7470  139.8490 Cl  0  0  0  0  0  0  0  0  0  0  0  0
  195.8560  170.7700  142.7510 C   0  0  0  0  0  0  0  0  0  0  0  0
  196.8310  171.2460  140.2000 N   0  0  0  0  0  0  0  0  0  0  0  0
  196.4990  169.7570  142.0320 C   0  0  0  0  0  3  0  0  0  0  0  0
  196.9780  170.0130  140.7480 C   0  0  0  0  0  0  0  0  0  0  0  0
  195.4520  170.4980  144.0970 N   0  0  0  0  0  0  0  0  0  0  0  0
  194.8420  169.9360  146.1260 N   0  0  0  0  0  2  0  0  0  0  0  0
  193.1800  170.6270  144.6590 O   0  0  0  0  0  1  0  0  0  0  0  0
  194.3330  169.8470  144.7830 C   0  0  2  0  0  0  0  0  0  0  0  0
  195.9640  170.5550  145.4710 C   0  0  1  0  0  3  0  0  0  0  0  0
  189.8630  177.9200  142.9840 C   0  0  0  0  0  3  0  0  0  0  0  0
  189.1400  176.6490  144.9050 C   0  0  0  0  0  3  0  0  0  0  0  0
  190.4660  176.3050  145.1740 C   0  0  0  0  0  3  0  0  0  0  0  0
  191.1890  177.5760  143.2550 C   0  0  0  0  0  3  0  0  0  0  0  0
  188.8290  177.4610  143.8100 C   0  0  0  0  0  0  0  0  0  0  0  0
  191.5110  176.7720  144.3600 C   0  0  0  0  0  0  0  0  0  0  0  0
  186.7960  175.8730  142.3960 O   0  0  0  0  0  0  0  0  0  0  0  0
  185.1550  177.4840  142.6910 N   0  0  0  0  0  2  0  0  0  0  0  0
  187.4560  177.7950  143.5680 N   0  0  0  0  0  2  0  0  0  0  0  0
  186.4880  177.0000  142.8650 C   0  0  0  0  0  0  0  0  0  0  0  0
  184.7180  178.7870  143.1770 C   0  0  0  0  0  2  0  0  0  0  0  0
  184.0340  178.6550  144.5290 C   0  0  0  0  0  2  0  0  0  0  0  0
  184.4690  178.4100  146.9280 C   0  0  0  0  0  2  0  0  0  0  0  0
  185.4200  177.6740  146.1980 O   0  0  0  0  0  0  0  0  0  0  0  0
  185.0220  178.9080  145.6520 C   0  0  1  0  0  3  0  0  0  0  0  0
  1  8  1  0  0  0  0
  2  4  1  0  0  0  0
  3  2  2  0  0  0  0
  4  6  1  0  0  0  0
  5  7  1  0  0  0  0
  6  7  2  0  0  0  0
  8  4  2  0  0  0  0
  8  9  1  0  0  0  0
  9  5  2  0  0  0  0
 10  3  1  0  0  0  0
 10  1  2  0  0  0  0
 11 12  1  0  0  0  0
 12 14  2  0  0  0  0
 12  3  1  0  0  0  0
 13 17  1  0  0  0  0
 14 18  1  0  0  0  0
 15 17  1  0  0  0  0
 15 11  2  0  0  0  0
 16 14  1  0  0  0  0
 17 16  2  0  0  0  0
 18 21  1  0  0  0  0
 18 22  1  0  0  0  0
 21 20  1  1  0  0  0
 21 22  1  0  0  0  0
 21 19  1  0  0  0  0
 22 19  1  1  0  0  0
 23 26  2  0  0  0  0
 23 27  1  0  0  0  0
 24 25  1  0  0  0  0
 26 28  1  0  0  0  0
 27 24  2  0  0  0  0
 28  9  1  0  0  0  0
 28 25  2  0  0  0  0
 29 32  2  0  0  0  0
 30 32  1  0  0  0  0
 30 33  1  0  0  0  0
 31 27  1  0  0  0  0
 32 31  1  0  0  0  0
 33 34  1  0  0  0  0
 36 35  1  0  0  0  0
 37 34  1  6  0  0  0
 37 36  1  0  0  0  0
 37 35  1  0  0  0  0
M  END
>  <MODEL>
7

>  <REMARK>
 VINA RESULT:      -6.5      2.955      4.527
  Name = 
  7 active torsions:
  status: ('A' for Active; 'I' for Inactive)
    1  A    between atoms: C_1  and  C_5
    2  A    between atoms: C_1  and  C_25
    3  A    between atoms: N_4  and  C_18
    4  A    between atoms: C_5  and  N_24
    5  A    between atoms: C_7  and  C_15
    6  A    between atoms: N_28  and  C_33
    7  A    between atoms: C_34  and  C_36
                            x       y       z     vdW  Elec       q    Type
                         _______ _______ _______ _____ _____    ______ ____

>  <TORSDO>
F 7

$$$$
=
 OpenBabel11062418523D

 37 43  0  0  1  0  0  0  0  0999 V2000
  189.9550  176.1770  144.0350 C   0  0  0  0  0  3  0  0  0  0  0  0
  187.9380  177.7490  145.1620 C   0  0  0  0  0  3  0  0  0  0  0  0
  187.8040  177.2860  143.8470 C   0  0  0  0  0  0  0  0  0  0  0  0
  189.0800  177.4430  145.9080 C   0  0  0  0  0  0  0  0  0  0  0  0
  191.3060  176.8960  147.3980 N   0  0  0  0  0  0  0  0  0  0  0  0
  189.2050  177.9280  147.1680 N   0  0  0  0  0  0  0  0  0  0  0  0
  190.3090  177.6630  147.9080 C   0  0  0  0  0  3  0  0  0  0  0  0
  190.1020  176.6420  145.3500 C   0  0  0  0  0  0  0  0  0  0  0  0
  191.2420  176.3650  146.1440 C   0  0  0  0  0  0  0  0  0  0  0  0
  188.8130  176.4880  143.2930 C   0  0  0  0  0  3  0  0  0  0  0  0
  186.6630  177.6110  141.6820 C   0  0  0  0  0  3  0  0  0  0  0  0
  186.5820  177.5810  143.0810 C   0  0  0  0  0  0  0  0  0  0  0  0
  183.0220  178.6860  140.4990 Cl  0  0  0  0  0  0  0  0  0  0  0  0
  185.3430  177.8790  143.6930 C   0  0  0  0  0  0  0  0  0  0  0  0
  185.5800  177.9420  140.9320 N   0  0  0  0  0  0  0  0  0  0  0  0
  184.2500  178.2260  142.8900 C   0  0  0  0  0  3  0  0  0  0  0  0
  184.3890  178.2570  141.5030 C   0  0  0  0  0  0  0  0  0  0  0  0
  185.1430  177.7740  145.1070 N   0  0  0  0  0  0  0  0  0  0  0  0
  184.6900  177.6340  147.2460 N   0  0  0  0  0  2  0  0  0  0  0  0
  185.5720  179.6360  146.4660 O   0  0  0  0  0  1  0  0  0  0  0  0
  184.6510  178.6190  146.1980 C   0  0  2  0  0  0  0  0  0  0  0  0
  185.1500  176.7790  146.1850 C   0  0  1  0  0  3  0  0  0  0  0  0
  194.6340  175.4050  144.7570 C   0  0  0  0  0  3  0  0  0  0  0  0
  193.4880  173.3770  145.3920 C   0  0  0  0  0  3  0  0  0  0  0  0
  192.3860  174.1310  145.8030 C   0  0  0  0  0  3  0  0  0  0  0  0
  193.5320  176.1570  145.1690 C   0  0  0  0  0  3  0  0  0  0  0  0
  194.6180  174.0080  144.8640 C   0  0  0  0  0  0  0  0  0  0  0  0
  192.3880  175.5300  145.6870 C   0  0  0  0  0  0  0  0  0  0  0  0
  197.0520  173.3520  146.3810 O   0  0  0  0  0  0  0  0  0  0  0  0
  197.9390  172.0920  144.6490 N   0  0  0  0  0  2  0  0  0  0  0  0
  195.7280  173.2000  144.4510 N   0  0  0  0  0  2  0  0  0  0  0  0
  196.9090  172.9050  145.2120 C   0  0  0  0  0  0  0  0  0  0  0  0
  197.8690  171.5530  143.2970 C   0  0  0  0  0  2  0  0  0  0  0  0
  196.9200  170.3660  143.2390 C   0  0  0  0  0  2  0  0  0  0  0  0
  195.4820  169.0870  141.7220 C   0  0  0  0  0  2  0  0  0  0  0  0
  194.7480  170.1440  142.2900 O   0  0  0  0  0  0  0  0  0  0  0  0
  196.0910  170.4100  141.9680 C   0  0  1  0  0  3  0  0  0  0  0  0
  1  8  1  0  0  0  0
  2  4  1  0  0  0  0
  3  2  2  0  0  0  0
  4  6  1  0  0  0  0
  5  7  1  0  0  0  0
  6  7  2  0  0  0  0
  8  4  2  0  0  0  0
  8  9  1  0  0  0  0
  9  5  2  0  0  0  0
 10  3  1  0  0  0  0
 10  1  2  0  0  0  0
 11 12  1  0  0  0  0
 12 14  2  0  0  0  0
 12  3  1  0  0  0  0
 13 17  1  0  0  0  0
 14 18  1  0  0  0  0
 15 17  1  0  0  0  0
 15 11  2  0  0  0  0
 16 14  1  0  0  0  0
 17 16  2  0  0  0  0
 18 22  1  0  0  0  0
 18 21  1  0  0  0  0
 21 20  1  1  0  0  0
 21 19  1  0  0  0  0
 22 21  1  0  0  0  0
 22 19  1  1  0  0  0
 23 27  2  0  0  0  0
 23 26  1  0  0  0  0
 24 25  2  0  0  0  0
 26 28  2  0  0  0  0
 27 24  1  0  0  0  0
 28 25  1  0  0  0  0
 28  9  1  0  0  0  0
 30 32  1  0  0  0  0
 31 27  1  0  0  0  0
 31 32  1  0  0  0  0
 32 29  2  0  0  0  0
 33 30  1  0  0  0  0
 34 33  1  0  0  0  0
 35 37  1  0  0  0  0
 35 36  1  0  0  0  0
 37 36  1  0  0  0  0
 37 34  1  1  0  0  0
M  END
>  <MODEL>
8

>  <REMARK>
 VINA RESULT:      -6.4      3.747     11.080
  Name = 
  7 active torsions:
  status: ('A' for Active; 'I' for Inactive)
    1  A    between atoms: C_1  and  C_5
    2  A    between atoms: C_1  and  C_25
    3  A    between atoms: N_4  and  C_18
    4  A    between atoms: C_5  and  N_24
    5  A    between atoms: C_7  and  C_15
    6  A    between atoms: N_28  and  C_33
    7  A    between atoms: C_34  and  C_36
                            x       y       z     vdW  Elec       q    Type
                         _______ _______ _______ _____ _____    ______ ____

>  <TORSDO>
F 7

$$$$
=
 OpenBabel11062418523D

 37 43  0  0  1  0  0  0  0  0999 V2000
  189.4290  175.1240  143.8840 C   0  0  0  0  0  3  0  0  0  0  0  0
  191.7300  174.7300  145.4200 C   0  0  0  0  0  3  0  0  0  0  0  0
  191.4890  173.9120  144.3090 C   0  0  0  0  0  0  0  0  0  0  0  0
  190.8220  175.7320  145.7740 C   0  0  0  0  0  0  0  0  0  0  0  0
  189.0600  177.6830  146.5230 N   0  0  0  0  0  0  0  0  0  0  0  0
  191.0580  176.4910  146.8710 N   0  0  0  0  0  0  0  0  0  0  0  0
  190.1850  177.4570  147.2480 C   0  0  0  0  0  3  0  0  0  0  0  0
  189.6580  175.9440  144.9990 C   0  0  0  0  0  0  0  0  0  0  0  0
  188.7640  176.9670  145.4020 C   0  0  0  0  0  0  0  0  0  0  0  0
  190.3390  174.1230  143.5370 C   0  0  0  0  0  3  0  0  0  0  0  0
  192.2400  171.5600  144.3190 C   0  0  0  0  0  3  0  0  0  0  0  0
  192.4700  172.8850  143.9220 C   0  0  0  0  0  0  0  0  0  0  0  0
  195.4440  169.5740  143.0520 Cl  0  0  0  0  0  0  0  0  0  0  0  0
  193.6520  173.1800  143.2060 C   0  0  0  0  0  0  0  0  0  0  0  0
  193.1470  170.5870  144.0420 N   0  0  0  0  0  0  0  0  0  0  0  0
  194.5690  172.1550  142.9470 C   0  0  0  0  0  3  0  0  0  0  0  0
  194.3000  170.8580  143.3800 C   0  0  0  0  0  0  0  0  0  0  0  0
  193.9190  174.4830  142.6740 N   0  0  0  0  0  0  0  0  0  0  0  0
  194.1830  176.5100  141.8850 N   0  0  0  0  0  2  0  0  0  0  0  0
  193.9880  174.7790  140.3490 O   0  0  0  0  0  1  0  0  0  0  0  0
  193.4810  175.3030  141.5410 C   0  0  2  0  0  0  0  0  0  0  0  0
  194.6060  175.7320  143.0190 C   0  0  1  0  0  3  0  0  0  0  0  0
  185.3060  176.6210  143.8960 C   0  0  0  0  0  3  0  0  0  0  0  0
  186.0660  178.8790  143.5060 C   0  0  0  0  0  3  0  0  0  0  0  0
  187.2670  178.5860  144.1560 C   0  0  0  0  0  3  0  0  0  0  0  0
  186.5070  176.3290  144.5460 C   0  0  0  0  0  3  0  0  0  0  0  0
  185.0780  177.8990  143.3680 C   0  0  0  0  0  0  0  0  0  0  0  0
  187.5090  177.3040  144.6760 C   0  0  0  0  0  0  0  0  0  0  0  0
  184.5790  178.0000  140.4710 O   0  0  0  0  0  0  0  0  0  0  0  0
  182.3750  178.6630  140.7500 N   0  0  0  0  0  2  0  0  0  0  0  0
  183.8610  178.2380  142.6920 N   0  0  0  0  0  2  0  0  0  0  0  0
  183.6510  178.2870  141.2720 C   0  0  0  0  0  0  0  0  0  0  0  0
  181.2530  179.0350  141.6010 C   0  0  0  0  0  2  0  0  0  0  0  0
  180.3180  179.9890  140.8720 C   0  0  0  0  0  2  0  0  0  0  0  0
  178.0700  180.2730  139.9390 C   0  0  0  0  0  2  0  0  0  0  0  0
  178.6880  179.1540  139.3520 O   0  0  0  0  0  0  0  0  0  0  0  0
  178.9410  179.3690  140.7180 C   0  0  1  0  0  3  0  0  0  0  0  0
  1  8  1  0  0  0  0
  2  4  1  0  0  0  0
  3  2  2  0  0  0  0
  4  6  1  0  0  0  0
  5  7  1  0  0  0  0
  6  7  2  0  0  0  0
  8  9  1  0  0  0  0
  8  4  2  0  0  0  0
  9  5  2  0  0  0  0
 10  1  2  0  0  0  0
 10  3  1  0  0  0  0
 12  3  1  0  0  0  0
 12 11  2  0  0  0  0
 13 17  1  0  0  0  0
 14 12  1  0  0  0  0
 15 11  1  0  0  0  0
 16 14  2  0  0  0  0
 16 17  1  0  0  0  0
 17 15  2  0  0  0  0
 18 22  1  0  0  0  0
 18 14  1  0  0  0  0
 21 20  1  6  0  0  0
 21 19  1  0  0  0  0
 21 18  1  0  0  0  0
 21 22  1  0  0  0  0
 22 19  1  6  0  0  0
 23 26  1  0  0  0  0
 24 25  2  0  0  0  0
 25 28  1  0  0  0  0
 26 28  2  0  0  0  0
 27 24  1  0  0  0  0
 27 23  2  0  0  0  0
 28  9  1  0  0  0  0
 29 32  2  0  0  0  0
 30 32  1  0  0  0  0
 30 33  1  0  0  0  0
 31 27  1  0  0  0  0
 32 31  1  0  0  0  0
 34 33  1  0  0  0  0
 35 37  1  0  0  0  0
 36 35  1  0  0  0  0
 36 37  1  0  0  0  0
 37 34  1  6  0  0  0
M  END
>  <MODEL>
9

>  <REMARK>
 VINA RESULT:      -6.3      1.800      2.111
  Name = 
  7 active torsions:
  status: ('A' for Active; 'I' for Inactive)
    1  A    between atoms: C_1  and  C_5
    2  A    between atoms: C_1  and  C_25
    3  A    between atoms: N_4  and  C_18
    4  A    between atoms: C_5  and  N_24
    5  A    between atoms: C_7  and  C_15
    6  A    between atoms: N_28  and  C_33
    7  A    between atoms: C_34  and  C_36
                            x       y       z     vdW  Elec       q    Type
                         _______ _______ _______ _____ _____    ______ ____

>  <TORSDO>
F 7

$$$$
