=
 OpenBabel11062420533D

 50 56  0  0  1  0  0  0  0  0999 V2000
  190.7270  172.4310  142.8190 C   0  0  1  0  0  0  0  0  0  0  0  0
  190.8180  171.3290  140.4480 C   0  0  0  0  0  3  0  0  0  0  0  0
  189.0590  173.2210  139.4090 C   0  0  0  0  0  3  0  0  0  0  0  0
  188.8110  174.2500  141.6300 N   0  0  0  0  0  2  0  0  0  0  0  0
  188.9420  173.8560  143.0240 C   0  0  2  0  0  3  0  0  0  0  0  0
  189.5200  174.7120  144.0490 N   0  0  1  0  0  0  0  0  0  0  0  0
  189.9550  171.5500  143.5960 O   0  0  0  0  0  1  0  0  0  0  0  0
  190.3270  172.3200  141.3080 C   0  0  0  0  0  0  0  0  0  0  0  0
  189.4030  173.2670  140.7590 C   0  0  0  0  0  0  0  0  0  0  0  0
  189.6020  172.2170  138.6070 C   0  0  0  0  0  3  0  0  0  0  0  0
  190.4330  173.9300  143.1720 C   0  0  1  0  0  3  0  0  0  0  0  0
  190.4520  171.2980  139.1380 N   0  0  0  0  0  0  0  0  0  0  0  0
  187.5040  177.1370  144.4150 N   0  0  2  0  0  0  0  0  0  0  0  0
  188.5950  177.5670  145.2850 C   0  0  0  0  0  2  0  0  0  0  0  0
  189.5230  176.1100  143.5890 C   0  0  1  0  0  3  0  0  0  0  0  0
  188.1100  176.5400  143.2270 C   0  0  0  0  0  2  0  0  0  0  0  0
  189.9120  177.0980  144.6880 C   0  0  2  0  0  0  0  0  0  0  0  0
  190.7710  176.4860  145.7820 C   0  0  0  0  0  1  0  0  0  0  0  0
  185.2460  178.1490  144.5320 C   0  0  0  0  0  0  0  0  0  0  0  0
  184.8800  179.0960  145.6520 C   0  0  0  0  0  2  0  0  0  0  0  0
  186.6910  178.3150  144.0800 C   0  0  2  0  0  3  0  0  0  0  0  0
  185.2170  178.4560  142.2570 C   0  0  0  0  0  0  0  0  0  0  0  0
  184.2730  178.2150  143.3770 C   0  0  0  0  0  2  0  0  0  0  0  0
  184.8590  177.5920  145.8840 C   0  0  0  0  0  2  0  0  0  0  0  0
  186.5850  178.5190  142.6380 N   0  0  0  0  0  2  0  0  0  0  0  0
  184.8460  178.5950  141.0630 O   0  0  0  0  0  0  0  0  0  0  0  0
  190.6550  178.2690  144.0370 C   0  0  0  0  0  2  0  0  0  0  0  0
  191.6980  177.8240  143.0180 C   0  0  0  0  0  1  0  0  0  0  0  0
  192.2480  172.1030  143.0510 C   0  0  1  0  0  3  0  0  0  0  0  0
  193.1990  173.3350  143.0790 C   0  0  1  0  0  3  0  0  0  0  0  0
  194.3030  173.2520  144.1360 C   0  0  1  0  0  3  0  0  0  0  0  0
  195.5320  173.6820  143.5870 O   0  0  0  0  0  0  0  0  0  0  0  0
  194.3390  172.3100  141.2380 O   0  0  0  0  0  1  0  0  0  0  0  0
  193.9900  173.5380  141.8110 C   0  0  2  0  0  3  0  0  0  0  0  0
  195.2550  174.1970  142.3070 C   0  0  1  0  0  3  0  0  0  0  0  0
  193.9860  174.0830  145.3360 C   0  0  0  0  0  0  0  0  0  0  0  0
  194.9050  175.0090  145.8170 O   0  0  0  0  0  0  0  0  0  0  0  0
  192.8990  173.9110  145.9450 O   0  0  0  0  0  1  0  0  0  0  0  0
  194.7510  176.2380  141.1210 O   0  0  0  0  0  1  0  0  0  0  0  0
  195.1280  175.7290  142.3670 C   0  0  2  0  0  3  0  0  0  0  0  0
  196.4260  177.1880  143.7580 O   0  0  0  0  0  1  0  0  0  0  0  0
  197.6090  176.0520  142.1620 O   0  0  0  0  0  0  0  0  0  0  0  0
  196.4180  176.3600  142.8080 C   0  0  0  0  0  0  0  0  0  0  0  0
  192.5270  171.1550  144.2440 C   0  0  0  0  0  2  0  0  0  0  0  0
  193.0900  169.8090  143.8800 C   0  0  0  0  0  0  0  0  0  0  0  0
  192.4370  169.0190  143.2180 O   0  0  0  0  0  0  0  0  0  0  0  0
  194.4700  169.4460  144.3180 C   0  0  0  0  0  2  0  0  0  0  0  0
  194.8040  170.0890  145.9680 S   0  0  1  0  0  0  0  0  0  0  0  0
  194.7160  168.8570  146.8570 O   0  0  0  0  0  0  0  0  0  0  0  0
  196.5680  170.4330  145.9200 C   0  0  0  0  0  1  0  0  0  0  0  0
  1 29  1  0  0  0  0
  1 11  1  0  0  0  0
  1  7  1  1  0  0  0
  2  8  1  0  0  0  0
  3  9  1  0  0  0  0
  5  4  1  6  0  0  0
  5 11  1  0  0  0  0
  5  6  1  0  0  0  0
  6 15  1  6  0  0  0
  8  1  1  0  0  0  0
  9  8  2  0  0  0  0
  9  4  1  0  0  0  0
 10 12  1  0  0  0  0
 10  3  2  0  0  0  0
 11  6  1  0  0  0  0
 12  2  2  0  0  0  0
 13 14  1  0  0  0  0
 15 17  1  0  0  0  0
 16 15  1  0  0  0  0
 16 13  1  0  0  0  0
 17 14  1  0  0  0  0
 17 18  1  0  0  0  0
 19 20  1  0  0  0  0
 19 24  1  0  0  0  0
 20 24  1  0  0  0  0
 21 13  1  0  0  0  0
 21 19  1  0  0  0  0
 22 25  1  0  0  0  0
 22 23  1  0  0  0  0
 23 19  1  0  0  0  0
 25 21  1  0  0  0  0
 26 22  2  0  0  0  0
 27 17  1  0  0  0  0
 28 27  1  0  0  0  0
 29 30  1  0  0  0  0
 29 44  1  0  0  0  0
 30 31  1  0  0  0  0
 31 36  1  0  0  0  0
 32 31  1  0  0  0  0
 33 34  1  0  0  0  0
 34 35  1  0  0  0  0
 34 30  1  0  0  0  0
 35 40  1  0  0  0  0
 35 32  1  0  0  0  0
 36 37  2  0  0  0  0
 36 38  1  0  0  0  0
 39 40  1  0  0  0  0
 40 43  1  0  0  0  0
 42 43  2  0  0  0  0
 43 41  1  0  0  0  0
 45 44  1  0  0  0  0
 45 47  1  0  0  0  0
 46 45  2  0  0  0  0
 47 48  1  0  0  0  0
 48 49  2  0  0  0  0
 50 48  1  0  0  0  0
M  END
>  <MODEL>
1

>  <REMARK>
 VINA RESULT:      -7.6      0.000      0.000
  Name = 
  12 active torsions:
  status: ('A' for Active; 'I' for Inactive)
    1  A    between atoms: C_1  and  S_16
    2  A    between atoms: C_1  and  C_31
    3  A    between atoms: C_2  and  C_19
    4  A    between atoms: C_2  and  C_31
    5  A    between atoms: C_3  and  C_19
    6  A    between atoms: C_4  and  C_12
    7  A    between atoms: C_5  and  C_19
    8  A    between atoms: N_6  and  C_21
    9  A    between atoms: C_10  and  N_33
   10  A    between atoms: C_23  and  C_36
   11  A    between atoms: C_25  and  C_27
   12  A    between atoms: C_36  and  C_46
                            x       y       z     vdW  Elec       q    Type
                         _______ _______ _______ _____ _____    ______ ____

>  <TORSDO>
F 12

$$$$
=
 OpenBabel11062420533D

 50 56  0  0  1  0  0  0  0  0999 V2000
  190.3270  172.6380  142.1680 C   0  0  1  0  0  0  0  0  0  0  0  0
  190.3050  172.0570  139.6170 C   0  0  0  0  0  3  0  0  0  0  0  0
  188.5590  174.1550  139.0690 C   0  0  0  0  0  3  0  0  0  0  0  0
  188.4160  174.6990  141.4650 N   0  0  0  0  0  2  0  0  0  0  0  0
  188.5870  174.0180  142.7380 C   0  0  2  0  0  3  0  0  0  0  0  0
  189.2240  174.6300  143.8960 N   0  0  1  0  0  0  0  0  0  0  0  0
  189.5610  171.6270  142.7740 O   0  0  0  0  0  1  0  0  0  0  0  0
  189.8710  172.8540  140.6840 C   0  0  0  0  0  0  0  0  0  0  0  0
  188.9510  173.9110  140.3830 C   0  0  0  0  0  0  0  0  0  0  0  0
  189.0460  173.3330  138.0530 C   0  0  0  0  0  3  0  0  0  0  0  0
  190.0840  174.0340  142.8380 C   0  0  1  0  0  3  0  0  0  0  0  0
  189.8910  172.3080  138.3460 N   0  0  0  0  0  0  0  0  0  0  0  0
  187.5650  176.9950  145.2140 N   0  0  2  0  0  0  0  0  0  0  0  0
  188.8580  177.1840  145.8640 C   0  0  0  0  0  2  0  0  0  0  0  0
  189.2450  176.0930  143.7390 C   0  0  1  0  0  3  0  0  0  0  0  0
  187.8310  176.6450  143.8210 C   0  0  0  0  0  2  0  0  0  0  0  0
  189.9580  176.8050  144.8870 C   0  0  2  0  0  0  0  0  0  0  0  0
  190.9860  175.9390  145.5980 C   0  0  0  0  0  1  0  0  0  0  0  0
  185.7170  178.1520  146.3900 C   0  0  0  0  0  0  0  0  0  0  0  0
  185.9950  179.0420  147.5810 C   0  0  0  0  0  2  0  0  0  0  0  0
  186.8040  178.2480  145.3270 C   0  0  2  0  0  3  0  0  0  0  0  0
  184.6800  178.6200  144.3950 C   0  0  0  0  0  0  0  0  0  0  0  0
  184.3350  178.3670  145.8160 C   0  0  0  0  0  2  0  0  0  0  0  0
  185.9400  177.5310  147.7500 C   0  0  0  0  0  2  0  0  0  0  0  0
  186.0710  178.5590  144.1040 N   0  0  0  0  0  2  0  0  0  0  0  0
  183.8200  178.8670  143.5120 O   0  0  0  0  0  0  0  0  0  0  0  0
  190.6350  178.0600  144.3250 C   0  0  0  0  0  2  0  0  0  0  0  0
  191.5450  177.7680  143.1380 C   0  0  0  0  0  1  0  0  0  0  0  0
  191.8470  172.2420  142.2650 C   0  0  1  0  0  3  0  0  0  0  0  0
  192.8270  173.4220  142.5320 C   0  0  1  0  0  3  0  0  0  0  0  0
  194.0280  173.0530  143.4060 C   0  0  1  0  0  3  0  0  0  0  0  0
  195.2070  173.6220  142.8730 O   0  0  0  0  0  0  0  0  0  0  0  0
  193.7510  172.9470  140.3730 O   0  0  0  0  0  1  0  0  0  0  0  0
  193.4920  173.9680  141.2940 C   0  0  2  0  0  3  0  0  0  0  0  0
  194.8170  174.4700  141.8190 C   0  0  1  0  0  3  0  0  0  0  0  0
  193.8540  173.5200  144.8140 C   0  0  0  0  0  0  0  0  0  0  0  0
  194.8910  174.1640  145.4790 O   0  0  0  0  0  1  0  0  0  0  0  0
  192.7770  173.2860  145.4200 O   0  0  0  0  0  0  0  0  0  0  0  0
  194.3870  176.7780  141.2600 O   0  0  0  0  0  1  0  0  0  0  0  0
  194.7360  175.9240  142.3110 C   0  0  2  0  0  3  0  0  0  0  0  0
  196.0630  176.8990  144.0540 O   0  0  0  0  0  1  0  0  0  0  0  0
  197.2290  176.2010  142.2120 O   0  0  0  0  0  0  0  0  0  0  0  0
  196.0400  176.3630  142.9130 C   0  0  0  0  0  0  0  0  0  0  0  0
  192.1410  171.0460  143.2050 C   0  0  0  0  0  2  0  0  0  0  0  0
  192.4360  169.7430  142.5160 C   0  0  0  0  0  0  0  0  0  0  0  0
  192.3930  168.6900  143.1300 O   0  0  0  0  0  0  0  0  0  0  0  0
  192.7670  169.7390  141.0610 C   0  0  0  0  0  2  0  0  0  0  0  0
  191.9020  168.4020  140.2160 S   0  0  1  0  0  0  0  0  0  0  0  0
  190.4410  168.6410  140.5710 O   0  0  0  0  0  0  0  0  0  0  0  0
  191.9870  168.8920  138.4880 C   0  0  0  0  0  1  0  0  0  0  0  0
  1 29  1  0  0  0  0
  1  7  1  1  0  0  0
  1 11  1  0  0  0  0
  2  8  1  0  0  0  0
  3  9  1  0  0  0  0
  5  4  1  6  0  0  0
  5 11  1  0  0  0  0
  5  6  1  0  0  0  0
  6 15  1  6  0  0  0
  8  1  1  0  0  0  0
  9  8  2  0  0  0  0
  9  4  1  0  0  0  0
 10 12  1  0  0  0  0
 10  3  2  0  0  0  0
 11  6  1  0  0  0  0
 12  2  2  0  0  0  0
 13 21  1  0  0  0  0
 13 14  1  0  0  0  0
 15 16  1  0  0  0  0
 15 17  1  0  0  0  0
 16 13  1  0  0  0  0
 17 18  1  0  0  0  0
 17 14  1  0  0  0  0
 19 20  1  0  0  0  0
 19 24  1  0  0  0  0
 20 24  1  0  0  0  0
 21 19  1  0  0  0  0
 22 23  1  0  0  0  0
 23 19  1  0  0  0  0
 25 22  1  0  0  0  0
 25 21  1  0  0  0  0
 26 22  2  0  0  0  0
 27 17  1  0  0  0  0
 28 27  1  0  0  0  0
 29 30  1  0  0  0  0
 29 44  1  0  0  0  0
 30 31  1  0  0  0  0
 31 36  1  0  0  0  0
 32 31  1  0  0  0  0
 33 34  1  0  0  0  0
 34 35  1  0  0  0  0
 34 30  1  0  0  0  0
 35 40  1  0  0  0  0
 35 32  1  0  0  0  0
 36 38  2  0  0  0  0
 36 37  1  0  0  0  0
 39 40  1  0  0  0  0
 40 43  1  0  0  0  0
 42 43  2  0  0  0  0
 43 41  1  0  0  0  0
 45 46  2  0  0  0  0
 45 44  1  0  0  0  0
 47 45  1  0  0  0  0
 48 49  2  0  0  0  0
 48 47  1  0  0  0  0
 50 48  1  0  0  0  0
M  END
>  <MODEL>
2

>  <REMARK>
 VINA RESULT:      -7.5      1.634      2.258
  Name = 
  12 active torsions:
  status: ('A' for Active; 'I' for Inactive)
    1  A    between atoms: C_1  and  S_16
    2  A    between atoms: C_1  and  C_31
    3  A    between atoms: C_2  and  C_19
    4  A    between atoms: C_2  and  C_31
    5  A    between atoms: C_3  and  C_19
    6  A    between atoms: C_4  and  C_12
    7  A    between atoms: C_5  and  C_19
    8  A    between atoms: N_6  and  C_21
    9  A    between atoms: C_10  and  N_33
   10  A    between atoms: C_23  and  C_36
   11  A    between atoms: C_25  and  C_27
   12  A    between atoms: C_36  and  C_46
                            x       y       z     vdW  Elec       q    Type
                         _______ _______ _______ _____ _____    ______ ____

>  <TORSDO>
F 12

$$$$
=
 OpenBabel11062420533D

 50 56  0  0  1  0  0  0  0  0999 V2000
  192.7620  176.2720  142.7830 C   0  0  1  0  0  0  0  0  0  0  0  0
  194.4840  176.1220  144.7470 C   0  0  0  0  0  3  0  0  0  0  0  0
  192.4690  176.4120  146.6460 C   0  0  0  0  0  3  0  0  0  0  0  0
  190.7930  176.6900  144.8670 N   0  0  0  0  0  2  0  0  0  0  0  0
  190.7530  177.1280  143.4810 C   0  0  2  0  0  3  0  0  0  0  0  0
  189.9300  176.4920  142.4620 N   0  0  1  0  0  0  0  0  0  0  0  0
  192.9680  177.5440  142.2200 O   0  0  0  0  0  1  0  0  0  0  0  0
  193.1660  176.2730  144.2970 C   0  0  0  0  0  0  0  0  0  0  0  0
  192.1490  176.4470  145.2910 C   0  0  0  0  0  0  0  0  0  0  0  0
  193.8010  176.2380  147.0230 C   0  0  0  0  0  3  0  0  0  0  0  0
  191.2440  175.8830  142.8040 C   0  0  1  0  0  3  0  0  0  0  0  0
  194.7700  176.1080  146.0770 N   0  0  0  0  0  0  0  0  0  0  0  0
  187.0240  177.1820  143.5390 N   0  0  2  0  0  0  0  0  0  0  0  0
  186.6880  176.4150  142.3430 C   0  0  0  0  0  2  0  0  0  0  0  0
  188.8710  175.6950  143.1010 C   0  0  1  0  0  3  0  0  0  0  0  0
  188.1680  176.5240  144.1650 C   0  0  0  0  0  2  0  0  0  0  0  0
  187.7370  175.3340  142.1430 C   0  0  2  0  0  0  0  0  0  0  0  0
  188.1580  175.3050  140.6820 C   0  0  0  0  0  1  0  0  0  0  0  0
  185.4690  178.6120  144.8320 C   0  0  0  0  0  0  0  0  0  0  0  0
  184.1460  179.0470  144.2430 C   0  0  0  0  0  2  0  0  0  0  0  0
  185.8500  177.1960  144.4230 C   0  0  2  0  0  3  0  0  0  0  0  0
  185.9270  177.4460  146.7570 C   0  0  0  0  0  0  0  0  0  0  0  0
  185.5300  178.8110  146.3300 C   0  0  0  0  0  2  0  0  0  0  0  0
  185.4290  179.7720  143.8640 C   0  0  0  0  0  2  0  0  0  0  0  0
  186.1090  176.5220  145.6920 N   0  0  0  0  0  2  0  0  0  0  0  0
  186.0940  177.1240  147.9610 O   0  0  0  0  0  0  0  0  0  0  0  0
  187.1830  173.9640  142.5510 C   0  0  0  0  0  2  0  0  0  0  0  0
  187.9220  172.8020  141.8990 C   0  0  0  0  0  1  0  0  0  0  0  0
  193.5850  175.2170  141.9550 C   0  0  1  0  0  3  0  0  0  0  0  0
  192.8720  173.8550  141.7140 C   0  0  1  0  0  3  0  0  0  0  0  0
  193.2350  173.1840  140.3860 C   0  0  1  0  0  3  0  0  0  0  0  0
  193.4470  171.8010  140.5860 O   0  0  0  0  0  0  0  0  0  0  0  0
  194.5590  172.8920  143.1160 O   0  0  0  0  0  1  0  0  0  0  0  0
  193.2230  172.7840  142.7160 C   0  0  2  0  0  3  0  0  0  0  0  0
  193.0770  171.5130  141.9130 C   0  0  1  0  0  3  0  0  0  0  0  0
  192.1660  173.3710  139.3600 C   0  0  0  0  0  0  0  0  0  0  0  0
  190.8260  173.4000  139.7320 O   0  0  0  0  0  1  0  0  0  0  0  0
  192.4750  173.4550  138.1450 O   0  0  0  0  0  0  0  0  0  0  0  0
  190.9940  171.3690  143.1230 O   0  0  0  0  0  1  0  0  0  0  0  0
  191.6430  170.9590  141.9550 C   0  0  2  0  0  3  0  0  0  0  0  0
  190.6320  168.8510  141.4230 O   0  0  0  0  0  0  0  0  0  0  0  0
  192.7430  168.7290  142.3000 O   0  0  0  0  0  1  0  0  0  0  0  0
  191.6410  169.4600  141.8700 C   0  0  0  0  0  0  0  0  0  0  0  0
  194.1990  175.7670  140.6430 C   0  0  0  0  0  2  0  0  0  0  0  0
  195.6910  175.9570  140.6600 C   0  0  0  0  0  0  0  0  0  0  0  0
  196.1950  176.8760  141.2840 O   0  0  0  0  0  0  0  0  0  0  0  0
  196.5630  174.9980  139.9200 C   0  0  0  0  0  2  0  0  0  0  0  0
  196.1480  174.9850  138.1660 S   0  0  1  0  0  0  0  0  0  0  0  0
  197.4470  175.3970  137.4880 O   0  0  0  0  0  0  0  0  0  0  0  0
  196.0310  173.2300  137.7900 C   0  0  0  0  0  1  0  0  0  0  0  0
  1  7  1  6  0  0  0
  1 11  1  0  0  0  0
  1  8  1  0  0  0  0
  2 12  1  0  0  0  0
  3 10  1  0  0  0  0
  4  9  1  0  0  0  0
  5  4  1  1  0  0  0
  6 11  1  0  0  0  0
  6 15  1  1  0  0  0
  6  5  1  0  0  0  0
  8  2  2  0  0  0  0
  8  9  1  0  0  0  0
  9  3  2  0  0  0  0
 11  5  1  0  0  0  0
 12 10  2  0  0  0  0
 13 16  1  0  0  0  0
 13 21  1  0  0  0  0
 14 13  1  0  0  0  0
 15 16  1  0  0  0  0
 17 14  1  0  0  0  0
 17 27  1  0  0  0  0
 17 15  1  0  0  0  0
 18 17  1  0  0  0  0
 19 23  1  0  0  0  0
 20 19  1  0  0  0  0
 21 19  1  0  0  0  0
 21 25  1  0  0  0  0
 22 26  2  0  0  0  0
 23 22  1  0  0  0  0
 24 20  1  0  0  0  0
 24 19  1  0  0  0  0
 25 22  1  0  0  0  0
 28 27  1  0  0  0  0
 29  1  1  0  0  0  0
 30 29  1  0  0  0  0
 30 34  1  0  0  0  0
 31 32  1  0  0  0  0
 31 30  1  0  0  0  0
 32 35  1  0  0  0  0
 34 33  1  0  0  0  0
 35 40  1  0  0  0  0
 35 34  1  0  0  0  0
 36 37  1  0  0  0  0
 36 31  1  0  0  0  0
 38 36  2  0  0  0  0
 40 39  1  0  0  0  0
 41 43  2  0  0  0  0
 43 40  1  0  0  0  0
 43 42  1  0  0  0  0
 44 45  1  0  0  0  0
 44 29  1  0  0  0  0
 45 46  2  0  0  0  0
 47 45  1  0  0  0  0
 48 47  1  0  0  0  0
 49 48  2  0  0  0  0
 50 48  1  0  0  0  0
M  END
>  <MODEL>
3

>  <REMARK>
 VINA RESULT:      -6.5      2.807      6.060
  Name = 
  12 active torsions:
  status: ('A' for Active; 'I' for Inactive)
    1  A    between atoms: C_1  and  S_16
    2  A    between atoms: C_1  and  C_31
    3  A    between atoms: C_2  and  C_19
    4  A    between atoms: C_2  and  C_31
    5  A    between atoms: C_3  and  C_19
    6  A    between atoms: C_4  and  C_12
    7  A    between atoms: C_5  and  C_19
    8  A    between atoms: N_6  and  C_21
    9  A    between atoms: C_10  and  N_33
   10  A    between atoms: C_23  and  C_36
   11  A    between atoms: C_25  and  C_27
   12  A    between atoms: C_36  and  C_46
                            x       y       z     vdW  Elec       q    Type
                         _______ _______ _______ _____ _____    ______ ____

>  <TORSDO>
F 12

$$$$
=
 OpenBabel11062420533D

 50 56  0  0  1  0  0  0  0  0999 V2000
  193.8770  175.4650  142.0240 C   0  0  1  0  0  0  0  0  0  0  0  0
  195.9880  174.7370  143.3880 C   0  0  0  0  0  3  0  0  0  0  0  0
  194.6010  174.9240  145.7940 C   0  0  0  0  0  3  0  0  0  0  0  0
  192.6020  175.7380  144.6120 N   0  0  0  0  0  2  0  0  0  0  0  0
  192.2880  176.4260  143.3700 C   0  0  2  0  0  3  0  0  0  0  0  0
  191.1370  176.0990  142.5400 N   0  0  1  0  0  0  0  0  0  0  0  0
  194.1490  176.7820  141.6150 O   0  0  0  0  0  1  0  0  0  0  0  0
  194.6450  175.1350  143.3490 C   0  0  0  0  0  0  0  0  0  0  0  0
  193.9580  175.2500  144.6020 C   0  0  0  0  0  0  0  0  0  0  0  0
  195.9340  174.5160  145.7550 C   0  0  0  0  0  3  0  0  0  0  0  0
  192.3700  175.2750  142.4110 C   0  0  1  0  0  3  0  0  0  0  0  0
  196.5940  174.4410  144.5690 N   0  0  0  0  0  0  0  0  0  0  0  0
  188.1080  176.6160  143.3380 N   0  0  2  0  0  0  0  0  0  0  0  0
  187.9450  175.5460  142.3600 C   0  0  0  0  0  2  0  0  0  0  0  0
  190.1540  175.3400  143.3270 C   0  0  1  0  0  3  0  0  0  0  0  0
  189.2890  176.2930  144.1370 C   0  0  0  0  0  2  0  0  0  0  0  0
  189.1340  174.6050  142.4590 C   0  0  2  0  0  0  0  0  0  0  0  0
  189.6410  174.2850  141.0610 C   0  0  0  0  0  1  0  0  0  0  0  0
  186.1690  178.0090  144.0000 C   0  0  0  0  0  0  0  0  0  0  0  0
  184.8360  177.8610  143.3030 C   0  0  0  0  0  2  0  0  0  0  0  0
  186.8920  176.6780  144.1620 C   0  0  2  0  0  3  0  0  0  0  0  0
  186.7170  177.7950  146.2200 C   0  0  0  0  0  0  0  0  0  0  0  0
  186.0590  178.7620  145.3070 C   0  0  0  0  0  2  0  0  0  0  0  0
  185.9500  178.6760  142.6620 C   0  0  0  0  0  2  0  0  0  0  0  0
  187.1890  176.6120  145.5890 N   0  0  0  0  0  2  0  0  0  0  0  0
  186.8510  177.9970  147.4540 O   0  0  0  0  0  0  0  0  0  0  0  0
  188.7380  173.3100  143.1770 C   0  0  0  0  0  2  0  0  0  0  0  0
  189.8260  172.7850  144.1050 C   0  0  0  0  0  1  0  0  0  0  0  0
  194.2690  174.4860  140.8570 C   0  0  1  0  0  3  0  0  0  0  0  0
  193.2030  173.4070  140.5060 C   0  0  1  0  0  3  0  0  0  0  0  0
  193.4390  172.7060  139.1650 C   0  0  1  0  0  3  0  0  0  0  0  0
  193.2210  171.3160  139.3010 O   0  0  0  0  0  0  0  0  0  0  0  0
  194.4380  171.9360  141.9400 O   0  0  0  0  0  1  0  0  0  0  0  0
  193.1580  172.2450  141.4660 C   0  0  2  0  0  3  0  0  0  0  0  0
  192.6970  171.1030  140.5900 C   0  0  1  0  0  3  0  0  0  0  0  0
  192.5420  173.2380  138.0970 C   0  0  0  0  0  0  0  0  0  0  0  0
  192.9030  173.1410  136.7570 O   0  0  0  0  0  0  0  0  0  0  0  0
  191.4740  173.8230  138.4120 O   0  0  0  0  0  1  0  0  0  0  0  0
  190.6600  170.4800  141.7250 O   0  0  0  0  0  1  0  0  0  0  0  0
  191.1640  170.9990  140.5280 C   0  0  2  0  0  3  0  0  0  0  0  0
  190.9750  168.9040  139.3780 O   0  0  0  0  0  1  0  0  0  0  0  0
  190.0670  170.7010  138.2900 O   0  0  0  0  0  0  0  0  0  0  0  0
  190.7290  170.1400  139.3760 C   0  0  0  0  0  0  0  0  0  0  0  0
  194.7970  175.1860  139.5790 C   0  0  0  0  0  2  0  0  0  0  0  0
  196.2890  175.1590  139.4000 C   0  0  0  0  0  0  0  0  0  0  0  0
  197.0270  175.6350  140.2470 O   0  0  0  0  0  0  0  0  0  0  0  0
  196.8720  174.5270  138.1800 C   0  0  0  0  0  2  0  0  0  0  0  0
  196.0660  175.1490  136.6940 S   0  0  1  0  0  0  0  0  0  0  0  0
  197.0520  176.1750  136.1540 O   0  0  0  0  0  0  0  0  0  0  0  0
  196.2300  173.7790  135.5400 C   0  0  0  0  0  1  0  0  0  0  0  0
  1  7  1  6  0  0  0
  1 11  1  0  0  0  0
  1  8  1  0  0  0  0
  2 12  1  0  0  0  0
  5  4  1  1  0  0  0
  6 15  1  1  0  0  0
  6  5  1  0  0  0  0
  8  2  2  0  0  0  0
  8  9  1  0  0  0  0
  9  4  1  0  0  0  0
  9  3  2  0  0  0  0
 10  3  1  0  0  0  0
 11  6  1  0  0  0  0
 11  5  1  0  0  0  0
 12 10  2  0  0  0  0
 13 16  1  0  0  0  0
 13 21  1  0  0  0  0
 14 17  1  0  0  0  0
 14 13  1  0  0  0  0
 15 16  1  0  0  0  0
 17 27  1  0  0  0  0
 17 15  1  0  0  0  0
 18 17  1  0  0  0  0
 19 21  1  0  0  0  0
 19 23  1  0  0  0  0
 20 19  1  0  0  0  0
 21 25  1  0  0  0  0
 22 26  2  0  0  0  0
 23 22  1  0  0  0  0
 24 20  1  0  0  0  0
 24 19  1  0  0  0  0
 25 22  1  0  0  0  0
 27 28  1  0  0  0  0
 29  1  1  0  0  0  0
 30 29  1  0  0  0  0
 30 34  1  0  0  0  0
 31 32  1  0  0  0  0
 31 30  1  0  0  0  0
 32 35  1  0  0  0  0
 34 33  1  0  0  0  0
 35 34  1  0  0  0  0
 36 38  1  0  0  0  0
 36 31  1  0  0  0  0
 37 36  2  0  0  0  0
 40 35  1  0  0  0  0
 40 39  1  0  0  0  0
 42 43  2  0  0  0  0
 43 41  1  0  0  0  0
 43 40  1  0  0  0  0
 44 29  1  0  0  0  0
 45 44  1  0  0  0  0
 45 46  2  0  0  0  0
 47 45  1  0  0  0  0
 48 47  1  0  0  0  0
 49 48  2  0  0  0  0
 50 48  1  0  0  0  0
M  END
>  <MODEL>
4

>  <REMARK>
 VINA RESULT:      -6.5      3.210      6.419
  Name = 
  12 active torsions:
  status: ('A' for Active; 'I' for Inactive)
    1  A    between atoms: C_1  and  S_16
    2  A    between atoms: C_1  and  C_31
    3  A    between atoms: C_2  and  C_19
    4  A    between atoms: C_2  and  C_31
    5  A    between atoms: C_3  and  C_19
    6  A    between atoms: C_4  and  C_12
    7  A    between atoms: C_5  and  C_19
    8  A    between atoms: N_6  and  C_21
    9  A    between atoms: C_10  and  N_33
   10  A    between atoms: C_23  and  C_36
   11  A    between atoms: C_25  and  C_27
   12  A    between atoms: C_36  and  C_46
                            x       y       z     vdW  Elec       q    Type
                         _______ _______ _______ _____ _____    ______ ____

>  <TORSDO>
F 12

$$$$
=
 OpenBabel11062420533D

 50 56  0  0  1  0  0  0  0  0999 V2000
  193.9300  173.5750  142.5520 C   0  0  1  0  0  0  0  0  0  0  0  0
  196.1700  174.7910  141.9630 C   0  0  0  0  0  3  0  0  0  0  0  0
  195.3540  175.2000  139.3320 C   0  0  0  0  0  3  0  0  0  0  0  0
  193.2710  173.9600  139.7560 N   0  0  0  0  0  2  0  0  0  0  0  0
  192.7940  172.9320  140.6660 C   0  0  2  0  0  3  0  0  0  0  0  0
  191.4620  172.9370  141.2560 N   0  0  1  0  0  0  0  0  0  0  0  0
  194.2740  172.2160  142.6570 O   0  0  0  0  0  1  0  0  0  0  0  0
  194.9100  174.3140  141.5780 C   0  0  0  0  0  0  0  0  0  0  0  0
  194.5220  174.5110  140.2130 C   0  0  0  0  0  0  0  0  0  0  0  0
  196.5860  175.6660  139.7900 C   0  0  0  0  0  3  0  0  0  0  0  0
  192.5250  173.7690  141.8820 C   0  0  1  0  0  3  0  0  0  0  0  0
  196.9680  175.4460  141.0770 N   0  0  0  0  0  0  0  0  0  0  0  0
  189.6060  172.4990  138.7170 N   0  0  2  0  0  0  0  0  0  0  0  0
  188.5970  172.6320  139.7630 C   0  0  0  0  0  2  0  0  0  0  0  0
  190.5780  173.8230  140.4830 C   0  0  1  0  0  3  0  0  0  0  0  0
  190.6560  173.4740  139.0050 C   0  0  0  0  0  2  0  0  0  0  0  0
  189.0990  173.6170  140.8060 C   0  0  2  0  0  0  0  0  0  0  0  0
  188.8500  173.0500  142.1940 C   0  0  0  0  0  1  0  0  0  0  0  0
  189.8610  172.3510  136.2570 C   0  0  0  0  0  0  0  0  0  0  0  0
  189.3170  171.1660  135.4930 C   0  0  0  0  0  2  0  0  0  0  0  0
  188.9640  172.7550  137.4200 C   0  0  2  0  0  3  0  0  0  0  0  0
  189.4200  174.5940  136.0320 C   0  0  0  0  0  0  0  0  0  0  0  0
  190.1900  173.5200  135.3560 C   0  0  0  0  0  2  0  0  0  0  0  0
  190.6460  171.0600  136.2250 C   0  0  0  0  0  2  0  0  0  0  0  0
  188.7190  174.1770  137.1970 N   0  0  0  0  0  2  0  0  0  0  0  0
  189.3850  175.7800  135.6170 O   0  0  0  0  0  0  0  0  0  0  0  0
  188.3850  174.9660  140.6600 C   0  0  0  0  0  2  0  0  0  0  0  0
  188.4620  175.8220  141.9180 C   0  0  0  0  0  1  0  0  0  0  0  0
  193.9410  174.2090  143.9910 C   0  0  1  0  0  3  0  0  0  0  0  0
  192.6160  174.9020  144.4250 C   0  0  1  0  0  3  0  0  0  0  0  0
  191.9920  174.3210  145.6970 C   0  0  1  0  0  3  0  0  0  0  0  0
  191.5410  175.3660  146.5340 O   0  0  0  0  0  0  0  0  0  0  0  0
  193.9970  176.5980  145.4030 O   0  0  0  0  0  1  0  0  0  0  0  0
  192.7660  176.3590  144.7830 C   0  0  2  0  0  3  0  0  0  0  0  0
  191.6770  176.5660  145.8110 C   0  0  1  0  0  3  0  0  0  0  0  0
  190.8460  173.4140  145.3870 C   0  0  0  0  0  0  0  0  0  0  0  0
  191.0420  172.2590  144.6380 O   0  0  0  0  0  0  0  0  0  0  0  0
  189.6870  173.7210  145.7660 O   0  0  0  0  0  1  0  0  0  0  0  0
  190.4780  178.1070  144.3930 O   0  0  0  0  0  1  0  0  0  0  0  0
  190.3350  176.9520  145.1680 C   0  0  2  0  0  3  0  0  0  0  0  0
  189.5440  177.8170  147.2600 O   0  0  0  0  0  1  0  0  0  0  0  0
  188.0050  176.6340  146.0470 O   0  0  0  0  0  0  0  0  0  0  0  0
  189.2790  177.1660  146.2140 C   0  0  0  0  0  0  0  0  0  0  0  0
  194.4710  173.2700  145.1040 C   0  0  0  0  0  2  0  0  0  0  0  0
  195.9200  173.4480  145.4600 C   0  0  0  0  0  0  0  0  0  0  0  0
  196.4490  174.5450  145.3920 O   0  0  0  0  0  0  0  0  0  0  0  0
  196.7150  172.2710  145.9190 C   0  0  0  0  0  2  0  0  0  0  0  0
  195.8100  170.7400  145.6270 S   0  0  1  0  0  0  0  0  0  0  0  0
  196.4260  170.2000  144.3440 O   0  0  0  0  0  0  0  0  0  0  0  0
  196.4620  169.6360  146.8880 C   0  0  0  0  0  1  0  0  0  0  0  0
  1  7  1  1  0  0  0
  1 29  1  0  0  0  0
  3 10  2  0  0  0  0
  3  9  1  0  0  0  0
  4  9  1  0  0  0  0
  5  4  1  6  0  0  0
  5  6  1  0  0  0  0
  5 11  1  0  0  0  0
  6 15  1  6  0  0  0
  6 11  1  0  0  0  0
  8  2  1  0  0  0  0
  8  1  1  0  0  0  0
  9  8  2  0  0  0  0
 10 12  1  0  0  0  0
 11  1  1  0  0  0  0
 12  2  2  0  0  0  0
 13 16  1  0  0  0  0
 13 14  1  0  0  0  0
 14 17  1  0  0  0  0
 15 17  1  0  0  0  0
 16 15  1  0  0  0  0
 17 18  1  0  0  0  0
 19 21  1  0  0  0  0
 20 24  1  0  0  0  0
 20 19  1  0  0  0  0
 21 13  1  0  0  0  0
 22 25  1  0  0  0  0
 23 22  1  0  0  0  0
 23 19  1  0  0  0  0
 24 19  1  0  0  0  0
 25 21  1  0  0  0  0
 26 22  2  0  0  0  0
 27 17  1  0  0  0  0
 27 28  1  0  0  0  0
 29 30  1  0  0  0  0
 29 44  1  0  0  0  0
 30 34  1  0  0  0  0
 30 31  1  0  0  0  0
 31 32  1  0  0  0  0
 34 33  1  0  0  0  0
 34 35  1  0  0  0  0
 35 32  1  0  0  0  0
 36 31  1  0  0  0  0
 36 38  1  0  0  0  0
 37 36  2  0  0  0  0
 39 40  1  0  0  0  0
 40 35  1  0  0  0  0
 40 43  1  0  0  0  0
 42 43  2  0  0  0  0
 43 41  1  0  0  0  0
 44 45  1  0  0  0  0
 45 47  1  0  0  0  0
 46 45  2  0  0  0  0
 48 47  1  0  0  0  0
 48 50  1  0  0  0  0
 49 48  2  0  0  0  0
M  END
>  <MODEL>
5

>  <REMARK>
 VINA RESULT:      -6.2      3.017      6.443
  Name = 
  12 active torsions:
  status: ('A' for Active; 'I' for Inactive)
    1  A    between atoms: C_1  and  S_16
    2  A    between atoms: C_1  and  C_31
    3  A    between atoms: C_2  and  C_19
    4  A    between atoms: C_2  and  C_31
    5  A    between atoms: C_3  and  C_19
    6  A    between atoms: C_4  and  C_12
    7  A    between atoms: C_5  and  C_19
    8  A    between atoms: N_6  and  C_21
    9  A    between atoms: C_10  and  N_33
   10  A    between atoms: C_23  and  C_36
   11  A    between atoms: C_25  and  C_27
   12  A    between atoms: C_36  and  C_46
                            x       y       z     vdW  Elec       q    Type
                         _______ _______ _______ _____ _____    ______ ____

>  <TORSDO>
F 12

$$$$
=
 OpenBabel11062420533D

 50 56  0  0  1  0  0  0  0  0999 V2000
  193.4320  175.5050  142.6590 C   0  0  1  0  0  0  0  0  0  0  0  0
  194.9360  175.8450  144.7730 C   0  0  0  0  0  3  0  0  0  0  0  0
  192.7240  176.4410  146.3550 C   0  0  0  0  0  3  0  0  0  0  0  0
  191.2420  176.2670  144.3980 N   0  0  0  0  0  2  0  0  0  0  0  0
  191.3420  176.4020  142.9540 C   0  0  2  0  0  3  0  0  0  0  0  0
  190.6460  175.5320  142.0170 N   0  0  1  0  0  0  0  0  0  0  0  0
  193.6700  176.6380  141.8610 O   0  0  0  0  0  1  0  0  0  0  0  0
  193.6710  175.8420  144.1710 C   0  0  0  0  0  0  0  0  0  0  0  0
  192.5500  176.1770  144.9980 C   0  0  0  0  0  0  0  0  0  0  0  0
  194.0110  176.4070  146.8910 C   0  0  0  0  0  3  0  0  0  0  0  0
  191.9280  175.0650  142.6110 C   0  0  1  0  0  3  0  0  0  0  0  0
  195.0780  176.1230  146.0970 N   0  0  0  0  0  0  0  0  0  0  0  0
  187.7170  176.4100  142.8720 N   0  0  2  0  0  0  0  0  0  0  0  0
  187.4100  175.5090  141.7660 C   0  0  0  0  0  2  0  0  0  0  0  0
  189.5410  174.8420  142.7020 C   0  0  1  0  0  3  0  0  0  0  0  0
  188.8170  175.8110  143.6240 C   0  0  0  0  0  2  0  0  0  0  0  0
  188.4380  174.3890  141.7470 C   0  0  2  0  0  0  0  0  0  0  0  0
  188.9170  174.1710  140.3210 C   0  0  0  0  0  1  0  0  0  0  0  0
  185.8960  177.9450  143.5550 C   0  0  0  0  0  0  0  0  0  0  0  0
  184.5570  177.9160  142.8550 C   0  0  0  0  0  2  0  0  0  0  0  0
  186.5090  176.5580  143.6960 C   0  0  2  0  0  3  0  0  0  0  0  0
  186.4220  177.6540  145.7720 C   0  0  0  0  0  0  0  0  0  0  0  0
  185.8460  178.6850  144.8730 C   0  0  0  0  0  2  0  0  0  0  0  0
  185.7330  178.6490  142.2270 C   0  0  0  0  0  2  0  0  0  0  0  0
  186.7980  176.4460  145.1230 N   0  0  0  0  0  2  0  0  0  0  0  0
  186.5700  177.8250  147.0080 O   0  0  0  0  0  0  0  0  0  0  0  0
  187.8320  173.0930  142.2960 C   0  0  0  0  0  2  0  0  0  0  0  0
  188.8730  172.1520  142.8910 C   0  0  0  0  0  1  0  0  0  0  0  0
  194.3600  174.3360  142.1620 C   0  0  1  0  0  3  0  0  0  0  0  0
  194.0890  172.9480  142.8120 C   0  0  1  0  0  3  0  0  0  0  0  0
  193.9180  171.8070  141.8050 C   0  0  1  0  0  3  0  0  0  0  0  0
  194.6210  170.6640  142.2460 O   0  0  0  0  0  0  0  0  0  0  0  0
  196.4560  172.8150  143.1580 O   0  0  0  0  0  1  0  0  0  0  0  0
  195.2130  172.4390  143.6790 C   0  0  2  0  0  3  0  0  0  0  0  0
  195.0860  170.9390  143.5460 C   0  0  1  0  0  3  0  0  0  0  0  0
  192.4810  171.4520  141.6100 C   0  0  0  0  0  0  0  0  0  0  0  0
  191.9780  170.2500  142.0960 O   0  0  0  0  0  1  0  0  0  0  0  0
  191.7300  172.2220  140.9580 O   0  0  0  0  0  0  0  0  0  0  0  0
  194.1630  171.0870  145.7710 O   0  0  0  0  0  1  0  0  0  0  0  0
  194.1290  170.3410  144.5890 C   0  0  2  0  0  3  0  0  0  0  0  0
  195.4320  168.3530  144.2780 O   0  0  0  0  0  0  0  0  0  0  0  0
  193.7290  168.1780  145.7980 O   0  0  0  0  0  1  0  0  0  0  0  0
  194.4740  168.9090  144.8800 C   0  0  0  0  0  0  0  0  0  0  0  0
  194.4770  174.2190  140.6220 C   0  0  0  0  0  2  0  0  0  0  0  0
  195.8310  174.5430  140.0530 C   0  0  0  0  0  0  0  0  0  0  0  0
  196.5830  175.3090  140.6310 O   0  0  0  0  0  0  0  0  0  0  0  0
  196.2640  173.9040  138.7750 C   0  0  0  0  0  2  0  0  0  0  0  0
  195.7370  174.8880  137.3610 S   0  0  1  0  0  0  0  0  0  0  0  0
  197.0380  175.4640  136.8220 O   0  0  0  0  0  0  0  0  0  0  0  0
  195.3050  173.6420  136.1380 C   0  0  0  0  0  1  0  0  0  0  0  0
  1  7  1  6  0  0  0
  1  8  1  0  0  0  0
  2 12  1  0  0  0  0
  3 10  1  0  0  0  0
  4  9  1  0  0  0  0
  5  4  1  1  0  0  0
  6 11  1  0  0  0  0
  6 15  1  1  0  0  0
  6  5  1  0  0  0  0
  8  2  2  0  0  0  0
  8  9  1  0  0  0  0
  9  3  2  0  0  0  0
 11  1  1  0  0  0  0
 11  5  1  0  0  0  0
 12 10  2  0  0  0  0
 13 16  1  0  0  0  0
 13 21  1  0  0  0  0
 14 13  1  0  0  0  0
 15 16  1  0  0  0  0
 17 14  1  0  0  0  0
 17 27  1  0  0  0  0
 17 15  1  0  0  0  0
 18 17  1  0  0  0  0
 19 21  1  0  0  0  0
 19 23  1  0  0  0  0
 20 19  1  0  0  0  0
 21 25  1  0  0  0  0
 22 26  2  0  0  0  0
 23 22  1  0  0  0  0
 24 20  1  0  0  0  0
 24 19  1  0  0  0  0
 25 22  1  0  0  0  0
 27 28  1  0  0  0  0
 29  1  1  0  0  0  0
 29 30  1  0  0  0  0
 30 34  1  0  0  0  0
 31 32  1  0  0  0  0
 31 30  1  0  0  0  0
 32 35  1  0  0  0  0
 33 34  1  0  0  0  0
 35 34  1  0  0  0  0
 35 40  1  0  0  0  0
 36 31  1  0  0  0  0
 36 37  1  0  0  0  0
 38 36  2  0  0  0  0
 40 43  1  0  0  0  0
 40 39  1  0  0  0  0
 41 43  2  0  0  0  0
 43 42  1  0  0  0  0
 44 29  1  0  0  0  0
 45 44  1  0  0  0  0
 45 46  2  0  0  0  0
 47 45  1  0  0  0  0
 48 47  1  0  0  0  0
 49 48  2  0  0  0  0
 50 48  1  0  0  0  0
M  END
>  <MODEL>
6

>  <REMARK>
 VINA RESULT:      -6.0      2.742      5.944
  Name = 
  12 active torsions:
  status: ('A' for Active; 'I' for Inactive)
    1  A    between atoms: C_1  and  S_16
    2  A    between atoms: C_1  and  C_31
    3  A    between atoms: C_2  and  C_19
    4  A    between atoms: C_2  and  C_31
    5  A    between atoms: C_3  and  C_19
    6  A    between atoms: C_4  and  C_12
    7  A    between atoms: C_5  and  C_19
    8  A    between atoms: N_6  and  C_21
    9  A    between atoms: C_10  and  N_33
   10  A    between atoms: C_23  and  C_36
   11  A    between atoms: C_25  and  C_27
   12  A    between atoms: C_36  and  C_46
                            x       y       z     vdW  Elec       q    Type
                         _______ _______ _______ _____ _____    ______ ____

>  <TORSDO>
F 12

$$$$
=
 OpenBabel11062420533D

 50 56  0  0  1  0  0  0  0  0999 V2000
  190.6680  172.5500  140.3680 C   0  0  1  0  0  0  0  0  0  0  0  0
  191.2130  172.3380  137.8170 C   0  0  0  0  0  3  0  0  0  0  0  0
  189.1990  174.1410  137.1510 C   0  0  0  0  0  3  0  0  0  0  0  0
  188.5300  174.3100  139.5130 N   0  0  0  0  0  2  0  0  0  0  0  0
  188.6110  173.5000  140.7180 C   0  0  2  0  0  3  0  0  0  0  0  0
  188.8950  174.0490  142.0360 N   0  0  1  0  0  0  0  0  0  0  0  0
  190.0300  171.3430  140.7010 O   0  0  0  0  0  1  0  0  0  0  0  0
  190.4450  172.8860  138.8530 C   0  0  0  0  0  0  0  0  0  0  0  0
  189.3970  173.7910  138.4850 C   0  0  0  0  0  0  0  0  0  0  0  0
  190.0150  173.5720  136.1740 C   0  0  0  0  0  3  0  0  0  0  0  0
  190.0310  173.7720  141.1160 C   0  0  1  0  0  3  0  0  0  0  0  0
  190.9870  172.6860  136.5220 N   0  0  0  0  0  0  0  0  0  0  0  0
  186.5760  175.8650  143.2220 N   0  0  2  0  0  0  0  0  0  0  0  0
  187.6630  176.1910  144.1390 C   0  0  0  0  0  2  0  0  0  0  0  0
  188.6450  175.4980  142.0380 C   0  0  1  0  0  3  0  0  0  0  0  0
  187.1560  175.7680  141.8840 C   0  0  0  0  0  2  0  0  0  0  0  0
  188.9760  176.1590  143.3750 C   0  0  2  0  0  0  0  0  0  0  0  0
  190.0140  175.4020  144.1890 C   0  0  0  0  0  1  0  0  0  0  0  0
  185.9000  178.0950  142.3820 C   0  0  0  0  0  0  0  0  0  0  0  0
  184.9180  178.2270  141.2400 C   0  0  0  0  0  2  0  0  0  0  0  0
  185.5670  176.9300  143.3040 C   0  0  2  0  0  3  0  0  0  0  0  0
  185.8120  178.9230  144.5220 C   0  0  0  0  0  0  0  0  0  0  0  0
  186.0850  179.3900  143.1400 C   0  0  0  0  0  2  0  0  0  0  0  0
  186.3810  177.9150  140.9600 C   0  0  0  0  0  2  0  0  0  0  0  0
  185.5140  177.5370  144.6310 N   0  0  0  0  0  2  0  0  0  0  0  0
  185.8400  179.6840  145.5230 O   0  0  0  0  0  0  0  0  0  0  0  0
  189.4720  177.5820  143.0970 C   0  0  0  0  0  2  0  0  0  0  0  0
  190.2570  178.1800  144.2580 C   0  0  0  0  0  1  0  0  0  0  0  0
  192.1950  172.4270  140.7240 C   0  0  1  0  0  3  0  0  0  0  0  0
  192.6950  173.3750  141.8530 C   0  0  1  0  0  3  0  0  0  0  0  0
  193.5650  172.6880  142.9100 C   0  0  1  0  0  3  0  0  0  0  0  0
  194.6750  173.5030  143.2260 O   0  0  0  0  0  0  0  0  0  0  0  0
  194.4050  174.0570  140.3190 O   0  0  0  0  0  1  0  0  0  0  0  0
  193.5960  174.4870  141.3760 C   0  0  2  0  0  3  0  0  0  0  0  0
  194.4840  174.7350  142.5730 C   0  0  1  0  0  3  0  0  0  0  0  0
  192.7970  172.4030  144.1580 C   0  0  0  0  0  0  0  0  0  0  0  0
  193.4460  172.3330  145.3870 O   0  0  0  0  0  1  0  0  0  0  0  0
  191.5620  172.1750  144.0940 O   0  0  0  0  0  0  0  0  0  0  0  0
  193.0760  176.6750  142.8550 O   0  0  0  0  0  1  0  0  0  0  0  0
  193.8790  175.7610  143.5450 C   0  0  2  0  0  3  0  0  0  0  0  0
  196.1460  176.4620  143.8880 O   0  0  0  0  0  0  0  0  0  0  0  0
  194.6490  177.1900  145.4590 O   0  0  0  0  0  1  0  0  0  0  0  0
  194.9540  176.4920  144.2970 C   0  0  0  0  0  0  0  0  0  0  0  0
  192.6870  170.9760  140.9550 C   0  0  0  0  0  2  0  0  0  0  0  0
  193.5520  170.4080  139.8640 C   0  0  0  0  0  0  0  0  0  0  0  0
  193.0840  169.6580  139.0240 O   0  0  0  0  0  0  0  0  0  0  0  0
  194.9950  170.7840  139.8000 C   0  0  0  0  0  2  0  0  0  0  0  0
  195.5230  170.9900  138.0890 S   0  0  1  0  0  0  0  0  0  0  0  0
  194.7330  172.2020  137.6150 O   0  0  0  0  0  0  0  0  0  0  0  0
  197.1940  171.6330  138.2550 C   0  0  0  0  0  1  0  0  0  0  0  0
  1  7  1  1  0  0  0
  1 29  1  0  0  0  0
  1 11  1  0  0  0  0
  2  8  1  0  0  0  0
  3  9  1  0  0  0  0
  5  4  1  6  0  0  0
  5 11  1  0  0  0  0
  5  6  1  0  0  0  0
  6 15  1  6  0  0  0
  8  1  1  0  0  0  0
  9  8  2  0  0  0  0
  9  4  1  0  0  0  0
 10 12  1  0  0  0  0
 10  3  2  0  0  0  0
 11  6  1  0  0  0  0
 12  2  2  0  0  0  0
 13 21  1  0  0  0  0
 13 14  1  0  0  0  0
 15 17  1  0  0  0  0
 16 15  1  0  0  0  0
 16 13  1  0  0  0  0
 17 14  1  0  0  0  0
 17 18  1  0  0  0  0
 19 23  1  0  0  0  0
 19 21  1  0  0  0  0
 20 19  1  0  0  0  0
 21 25  1  0  0  0  0
 22 25  1  0  0  0  0
 22 26  2  0  0  0  0
 23 22  1  0  0  0  0
 24 20  1  0  0  0  0
 24 19  1  0  0  0  0
 27 17  1  0  0  0  0
 27 28  1  0  0  0  0
 29 44  1  0  0  0  0
 29 30  1  0  0  0  0
 30 31  1  0  0  0  0
 31 32  1  0  0  0  0
 31 36  1  0  0  0  0
 33 34  1  0  0  0  0
 34 30  1  0  0  0  0
 34 35  1  0  0  0  0
 35 32  1  0  0  0  0
 35 40  1  0  0  0  0
 36 37  1  0  0  0  0
 38 36  2  0  0  0  0
 39 40  1  0  0  0  0
 40 43  1  0  0  0  0
 41 43  2  0  0  0  0
 43 42  1  0  0  0  0
 45 44  1  0  0  0  0
 46 45  2  0  0  0  0
 47 45  1  0  0  0  0
 48 50  1  0  0  0  0
 48 47  1  0  0  0  0
 49 48  2  0  0  0  0
M  END
>  <MODEL>
7

>  <REMARK>
 VINA RESULT:      -6.0      2.361      3.359
  Name = 
  12 active torsions:
  status: ('A' for Active; 'I' for Inactive)
    1  A    between atoms: C_1  and  S_16
    2  A    between atoms: C_1  and  C_31
    3  A    between atoms: C_2  and  C_19
    4  A    between atoms: C_2  and  C_31
    5  A    between atoms: C_3  and  C_19
    6  A    between atoms: C_4  and  C_12
    7  A    between atoms: C_5  and  C_19
    8  A    between atoms: N_6  and  C_21
    9  A    between atoms: C_10  and  N_33
   10  A    between atoms: C_23  and  C_36
   11  A    between atoms: C_25  and  C_27
   12  A    between atoms: C_36  and  C_46
                            x       y       z     vdW  Elec       q    Type
                         _______ _______ _______ _____ _____    ______ ____

>  <TORSDO>
F 12

$$$$
=
 OpenBabel11062420533D

 50 56  0  0  1  0  0  0  0  0999 V2000
  190.7730  172.1140  141.9910 C   0  0  1  0  0  0  0  0  0  0  0  0
  191.7140  171.5850  139.6080 C   0  0  0  0  0  3  0  0  0  0  0  0
  189.9950  173.4290  138.4280 C   0  0  0  0  0  3  0  0  0  0  0  0
  188.9600  173.9030  140.6100 N   0  0  0  0  0  2  0  0  0  0  0  0
  188.7720  173.2280  141.8840 C   0  0  2  0  0  3  0  0  0  0  0  0
  188.8780  173.9000  143.1710 N   0  0  1  0  0  0  0  0  0  0  0  0
  189.9910  170.9950  142.3260 O   0  0  0  0  0  1  0  0  0  0  0  0
  190.8330  172.2930  140.4350 C   0  0  0  0  0  0  0  0  0  0  0  0
  189.9390  173.2170  139.8040 C   0  0  0  0  0  0  0  0  0  0  0  0
  190.9120  172.7030  137.6680 C   0  0  0  0  0  3  0  0  0  0  0  0
  190.1240  173.4490  142.4940 C   0  0  1  0  0  3  0  0  0  0  0  0
  191.7360  171.8010  138.2650 N   0  0  0  0  0  0  0  0  0  0  0  0
  186.4550  175.9350  143.4360 N   0  0  2  0  0  0  0  0  0  0  0  0
  187.2310  176.2910  144.6200 C   0  0  0  0  0  2  0  0  0  0  0  0
  188.7520  175.3540  142.9870 C   0  0  1  0  0  3  0  0  0  0  0  0
  187.4070  175.6830  142.3570 C   0  0  0  0  0  2  0  0  0  0  0  0
  188.7080  176.1200  144.3080 C   0  0  2  0  0  0  0  0  0  0  0  0
  189.3850  175.3920  145.4580 C   0  0  0  0  0  1  0  0  0  0  0  0
  186.1790  178.0140  142.1180 C   0  0  0  0  0  0  0  0  0  0  0  0
  185.4720  177.9950  140.7820 C   0  0  0  0  0  2  0  0  0  0  0  0
  185.5540  177.0530  143.1210 C   0  0  2  0  0  3  0  0  0  0  0  0
  185.7270  179.2140  144.0230 C   0  0  0  0  0  0  0  0  0  0  0  0
  186.3230  179.4110  142.6780 C   0  0  0  0  0  2  0  0  0  0  0  0
  186.9250  177.5570  140.8850 C   0  0  0  0  0  2  0  0  0  0  0  0
  185.2850  177.8890  144.2870 N   0  0  0  0  0  2  0  0  0  0  0  0
  185.6180  180.1390  144.8690 O   0  0  0  0  0  0  0  0  0  0  0  0
  189.3740  177.4840  144.0920 C   0  0  0  0  0  2  0  0  0  0  0  0
  190.1890  177.5550  142.8060 C   0  0  0  0  0  1  0  0  0  0  0  0
  192.2040  171.9320  142.6180 C   0  0  1  0  0  3  0  0  0  0  0  0
  193.0690  173.2240  142.6910 C   0  0  1  0  0  3  0  0  0  0  0  0
  193.7440  173.4520  144.0460 C   0  0  1  0  0  3  0  0  0  0  0  0
  195.0790  173.8710  143.8580 O   0  0  0  0  0  0  0  0  0  0  0  0
  194.7880  171.9550  141.6060 O   0  0  0  0  0  1  0  0  0  0  0  0
  194.2450  173.2370  141.7470 C   0  0  2  0  0  3  0  0  0  0  0  0
  195.2540  174.0920  142.4780 C   0  0  1  0  0  3  0  0  0  0  0  0
  193.0210  174.4750  144.8590 C   0  0  0  0  0  0  0  0  0  0  0  0
  192.4950  175.6140  144.2580 O   0  0  0  0  0  0  0  0  0  0  0  0
  192.9280  174.3310  146.1050 O   0  0  0  0  0  1  0  0  0  0  0  0
  194.2860  175.7600  141.0280 O   0  0  0  0  0  1  0  0  0  0  0  0
  195.0910  175.5870  142.1570 C   0  0  2  0  0  3  0  0  0  0  0  0
  197.2390  175.7540  141.1060 O   0  0  0  0  0  0  0  0  0  0  0  0
  196.7840  177.3700  142.6610 O   0  0  0  0  0  1  0  0  0  0  0  0
  196.4260  176.2390  141.9370 C   0  0  0  0  0  0  0  0  0  0  0  0
  192.2230  171.1700  143.9680 C   0  0  0  0  0  2  0  0  0  0  0  0
  192.8600  169.8080  143.9300 C   0  0  0  0  0  0  0  0  0  0  0  0
  192.6290  169.0380  143.0120 O   0  0  0  0  0  0  0  0  0  0  0  0
  193.7980  169.4050  145.0180 C   0  0  0  0  0  2  0  0  0  0  0  0
  195.4210  170.1490  144.7660 S   0  0  1  0  0  0  0  0  0  0  0  0
  195.6240  170.9930  146.0160 O   0  0  0  0  0  0  0  0  0  0  0  0
  196.5440  168.7680  145.0200 C   0  0  0  0  0  1  0  0  0  0  0  0
  1  7  1  1  0  0  0
  1 11  1  0  0  0  0
  1 29  1  0  0  0  0
  2  8  1  0  0  0  0
  3  9  1  0  0  0  0
  5  4  1  6  0  0  0
  5 11  1  0  0  0  0
  5  6  1  0  0  0  0
  6 15  1  6  0  0  0
  8  1  1  0  0  0  0
  9  8  2  0  0  0  0
  9  4  1  0  0  0  0
 10 12  1  0  0  0  0
 10  3  2  0  0  0  0
 11  6  1  0  0  0  0
 12  2  2  0  0  0  0
 13 14  1  0  0  0  0
 15 17  1  0  0  0  0
 16 15  1  0  0  0  0
 16 13  1  0  0  0  0
 17 14  1  0  0  0  0
 17 18  1  0  0  0  0
 19 23  1  0  0  0  0
 19 21  1  0  0  0  0
 20 24  1  0  0  0  0
 20 19  1  0  0  0  0
 21 13  1  0  0  0  0
 21 25  1  0  0  0  0
 22 25  1  0  0  0  0
 22 26  2  0  0  0  0
 23 22  1  0  0  0  0
 24 19  1  0  0  0  0
 27 17  1  0  0  0  0
 28 27  1  0  0  0  0
 29 30  1  0  0  0  0
 29 44  1  0  0  0  0
 30 31  1  0  0  0  0
 31 36  1  0  0  0  0
 32 31  1  0  0  0  0
 33 34  1  0  0  0  0
 34 35  1  0  0  0  0
 34 30  1  0  0  0  0
 35 32  1  0  0  0  0
 36 38  1  0  0  0  0
 37 36  2  0  0  0  0
 39 40  1  0  0  0  0
 40 35  1  0  0  0  0
 41 43  2  0  0  0  0
 43 40  1  0  0  0  0
 43 42  1  0  0  0  0
 45 44  1  0  0  0  0
 45 47  1  0  0  0  0
 46 45  2  0  0  0  0
 48 47  1  0  0  0  0
 48 50  1  0  0  0  0
 48 49  2  0  0  0  0
M  END
>  <MODEL>
8

>  <REMARK>
 VINA RESULT:      -5.8      1.415      1.879
  Name = 
  12 active torsions:
  status: ('A' for Active; 'I' for Inactive)
    1  A    between atoms: C_1  and  S_16
    2  A    between atoms: C_1  and  C_31
    3  A    between atoms: C_2  and  C_19
    4  A    between atoms: C_2  and  C_31
    5  A    between atoms: C_3  and  C_19
    6  A    between atoms: C_4  and  C_12
    7  A    between atoms: C_5  and  C_19
    8  A    between atoms: N_6  and  C_21
    9  A    between atoms: C_10  and  N_33
   10  A    between atoms: C_23  and  C_36
   11  A    between atoms: C_25  and  C_27
   12  A    between atoms: C_36  and  C_46
                            x       y       z     vdW  Elec       q    Type
                         _______ _______ _______ _____ _____    ______ ____

>  <TORSDO>
F 12

$$$$
=
 OpenBabel11062420533D

 50 56  0  0  1  0  0  0  0  0999 V2000
  189.7690  173.6720  143.8610 C   0  0  1  0  0  0  0  0  0  0  0  0
  189.2280  175.1120  145.9760 C   0  0  0  0  0  3  0  0  0  0  0  0
  191.8410  174.8760  146.9080 C   0  0  0  0  0  3  0  0  0  0  0  0
  192.4130  173.4080  145.0180 N   0  0  0  0  0  2  0  0  0  0  0  0
  191.7270  172.5040  144.1080 C   0  0  2  0  0  3  0  0  0  0  0  0
  192.0470  172.3980  142.6920 N   0  0  1  0  0  0  0  0  0  0  0  0
  189.1460  172.4340  144.0980 O   0  0  0  0  0  1  0  0  0  0  0  0
  190.1380  174.3670  145.2160 C   0  0  0  0  0  0  0  0  0  0  0  0
  191.4700  174.2360  145.7280 C   0  0  0  0  0  0  0  0  0  0  0  0
  190.8870  175.6190  147.6040 C   0  0  0  0  0  3  0  0  0  0  0  0
  191.1530  173.4980  143.1440 C   0  0  1  0  0  3  0  0  0  0  0  0
  189.6140  175.7130  147.1350 N   0  0  0  0  0  0  0  0  0  0  0  0
  194.9920  171.4510  143.4060 N   0  0  2  0  0  0  0  0  0  0  0  0
  194.9750  171.2010  141.9680 C   0  0  0  0  0  2  0  0  0  0  0  0
  193.3810  172.9620  142.4370 C   0  0  1  0  0  3  0  0  0  0  0  0
  194.2870  172.7110  143.6320 C   0  0  0  0  0  2  0  0  0  0  0  0
  194.1170  172.2600  141.2960 C   0  0  2  0  0  0  0  0  0  0  0  0
  193.1900  171.5940  140.2910 C   0  0  0  0  0  1  0  0  0  0  0  0
  196.5200  171.3420  145.3520 C   0  0  0  0  0  0  0  0  0  0  0  0
  197.2090  170.0490  145.7240 C   0  0  0  0  0  2  0  0  0  0  0  0
  196.3930  171.5220  143.8460 C   0  0  2  0  0  3  0  0  0  0  0  0
  197.4000  173.4000  144.8340 C   0  0  0  0  0  0  0  0  0  0  0  0
  197.1470  172.5450  146.0210 C   0  0  0  0  0  2  0  0  0  0  0  0
  195.7630  170.2900  146.1290 C   0  0  0  0  0  2  0  0  0  0  0  0
  196.9820  172.8340  143.5980 N   0  0  0  0  0  2  0  0  0  0  0  0
  197.9370  174.5340  144.9050 O   0  0  0  0  0  0  0  0  0  0  0  0
  194.9960  173.2950  140.5860 C   0  0  0  0  0  2  0  0  0  0  0  0
  194.1940  174.4090  139.9240 C   0  0  0  0  0  1  0  0  0  0  0  0
  188.8080  174.5590  142.9870 C   0  0  1  0  0  3  0  0  0  0  0  0
  188.3780  175.9090  143.6300 C   0  0  1  0  0  3  0  0  0  0  0  0
  188.9230  177.1470  142.9130 C   0  0  1  0  0  3  0  0  0  0  0  0
  187.9100  178.1250  142.8000 O   0  0  0  0  0  0  0  0  0  0  0  0
  186.3130  175.6460  142.4440 O   0  0  0  0  0  1  0  0  0  0  0  0
  186.8910  176.1610  143.6100 C   0  0  2  0  0  3  0  0  0  0  0  0
  186.8070  177.6680  143.5450 C   0  0  1  0  0  3  0  0  0  0  0  0
  190.0920  177.7350  143.6340 C   0  0  0  0  0  0  0  0  0  0  0  0
  191.3650  177.6810  143.0780 O   0  0  0  0  0  0  0  0  0  0  0  0
  189.9320  178.2400  144.7740 O   0  0  0  0  0  1  0  0  0  0  0  0
  186.7440  177.3290  145.9340 O   0  0  0  0  0  1  0  0  0  0  0  0
  186.8080  178.3110  144.9420 C   0  0  2  0  0  3  0  0  0  0  0  0
  185.5370  180.2430  144.3070 O   0  0  0  0  0  0  0  0  0  0  0  0
  184.7350  179.0970  146.1190 O   0  0  0  0  0  1  0  0  0  0  0  0
  185.6600  179.2670  145.0960 C   0  0  0  0  0  0  0  0  0  0  0  0
  189.2730  174.7600  141.5220 C   0  0  0  0  0  2  0  0  0  0  0  0
  188.6410  173.8420  140.5140 C   0  0  0  0  0  0  0  0  0  0  0  0
  188.3220  172.7050  140.8200 O   0  0  0  0  0  0  0  0  0  0  0  0
  188.3840  174.3350  139.1290 C   0  0  0  0  0  2  0  0  0  0  0  0
  189.0720  173.1990  137.9110 S   0  0  1  0  0  0  0  0  0  0  0  0
  188.9270  173.9530  136.5960 O   0  0  0  0  0  0  0  0  0  0  0  0
  190.8390  173.2790  138.2340 C   0  0  0  0  0  1  0  0  0  0  0  0
  1  7  1  1  0  0  0
  1  8  1  0  0  0  0
  2 12  1  0  0  0  0
  3 10  1  0  0  0  0
  4  9  1  0  0  0  0
  5  4  1  1  0  0  0
  6 15  1  1  0  0  0
  6 11  1  0  0  0  0
  6  5  1  0  0  0  0
  8  9  1  0  0  0  0
  8  2  2  0  0  0  0
  9  3  2  0  0  0  0
 11  1  1  0  0  0  0
 11  5  1  0  0  0  0
 12 10  2  0  0  0  0
 13 16  1  0  0  0  0
 13 21  1  0  0  0  0
 14 13  1  0  0  0  0
 15 16  1  0  0  0  0
 17 14  1  0  0  0  0
 17 15  1  0  0  0  0
 18 17  1  0  0  0  0
 19 20  1  0  0  0  0
 19 23  1  0  0  0  0
 19 24  1  0  0  0  0
 20 24  1  0  0  0  0
 21 19  1  0  0  0  0
 22 26  2  0  0  0  0
 22 23  1  0  0  0  0
 25 21  1  0  0  0  0
 25 22  1  0  0  0  0
 27 17  1  0  0  0  0
 28 27  1  0  0  0  0
 29 30  1  0  0  0  0
 29  1  1  0  0  0  0
 31 30  1  0  0  0  0
 31 36  1  0  0  0  0
 32 31  1  0  0  0  0
 32 35  1  0  0  0  0
 33 34  1  0  0  0  0
 34 30  1  0  0  0  0
 35 34  1  0  0  0  0
 35 40  1  0  0  0  0
 36 38  1  0  0  0  0
 37 36  2  0  0  0  0
 40 43  1  0  0  0  0
 40 39  1  0  0  0  0
 41 43  2  0  0  0  0
 43 42  1  0  0  0  0
 44 29  1  0  0  0  0
 45 46  2  0  0  0  0
 45 44  1  0  0  0  0
 47 45  1  0  0  0  0
 48 50  1  0  0  0  0
 48 47  1  0  0  0  0
 49 48  2  0  0  0  0
M  END
>  <MODEL>
9

>  <REMARK>
 VINA RESULT:      -5.7      3.297      8.921
  Name = 
  12 active torsions:
  status: ('A' for Active; 'I' for Inactive)
    1  A    between atoms: C_1  and  S_16
    2  A    between atoms: C_1  and  C_31
    3  A    between atoms: C_2  and  C_19
    4  A    between atoms: C_2  and  C_31
    5  A    between atoms: C_3  and  C_19
    6  A    between atoms: C_4  and  C_12
    7  A    between atoms: C_5  and  C_19
    8  A    between atoms: N_6  and  C_21
    9  A    between atoms: C_10  and  N_33
   10  A    between atoms: C_23  and  C_36
   11  A    between atoms: C_25  and  C_27
   12  A    between atoms: C_36  and  C_46
                            x       y       z     vdW  Elec       q    Type
                         _______ _______ _______ _____ _____    ______ ____

>  <TORSDO>
F 12

$$$$
