=
 OpenBabel11062420173D

 25 26  0  0  1  0  0  0  0  0999 V2000
  184.9770  177.1660  146.8840 F   0  0  0  0  0  0  0  0  0  0  0  0
  187.2450  176.8550  146.2860 C   0  0  0  0  0  3  0  0  0  0  0  0
  185.9710  177.3320  145.9760 C   0  0  0  0  0  0  0  0  0  0  0  0
  188.0950  177.6550  144.1540 C   0  0  0  0  0  0  0  0  0  0  0  0
  186.8040  178.1110  143.8470 C   0  0  0  0  0  3  0  0  0  0  0  0
  185.7350  177.9540  144.7370 C   0  0  0  0  0  0  0  0  0  0  0  0
  188.3150  176.9950  145.3890 C   0  0  0  0  0  0  0  0  0  0  0  0
  192.2970  174.8060  146.3460 C   0  0  0  0  0  0  0  0  0  0  0  0
  191.7730  175.1860  147.7330 C   0  0  0  0  0  2  0  0  0  0  0  0
  192.0630  174.4050  144.0540 F   0  0  0  0  0  0  0  0  0  0  0  0
  191.1120  176.5360  147.7750 C   0  0  0  0  0  2  0  0  0  0  0  0
  189.6170  176.3800  145.7400 C   0  0  1  0  0  3  0  0  0  0  0  0
  191.5000  174.7390  145.2430 C   0  0  0  0  0  0  0  0  0  0  0  0
  190.2460  176.6720  146.8320 C   0  0  0  0  0  2  0  0  0  0  0  0
  189.9980  175.0130  145.2230 C   0  0  0  0  0  2  0  0  0  0  0  0
  195.9000  175.0460  145.6260 O   0  0  0  0  0  0  0  0  0  0  0  0
  194.5580  176.9550  146.0090 C   0  0  0  0  0  1  0  0  0  0  0  0
  193.6990  174.5440  146.1640 N   0  0  0  0  0  2  0  0  0  0  0  0
  194.7550  175.4810  145.9100 C   0  0  0  0  0  0  0  0  0  0  0  0
  190.4360  178.3400  143.6160 O   0  0  0  0  0  1  0  0  0  0  0  0
  189.1740  177.9490  143.1840 C   0  0  0  0  0  0  0  0  0  0  0  0
  188.9410  177.9000  141.9470 O   0  0  0  0  0  0  0  0  0  0  0  0
  184.3980  178.4580  144.3520 C   0  0  0  0  0  0  0  0  0  0  0  0
  183.9210  178.2830  143.0210 N   0  0  0  0  0  1  0  0  0  0  0  0
  183.6640  179.0470  145.1890 O   0  0  0  0  0  0  0  0  0  0  0  0
  3  2  1  0  0  0  0
  3  1  1  0  0  0  0
  4  7  1  0  0  0  0
  5  4  2  0  0  0  0
  5  6  1  0  0  0  0
  6  3  2  0  0  0  0
  7  2  2  0  0  0  0
  8  9  1  0  0  0  0
  9 11  1  0  0  0  0
 10 13  1  0  0  0  0
 12  7  1  1  0  0  0
 12 14  1  0  0  0  0
 13  8  2  0  0  0  0
 14 11  1  0  0  0  0
 15 13  1  0  0  0  0
 15 12  1  0  0  0  0
 16 19  2  0  0  0  0
 18  8  1  0  0  0  0
 19 17  1  0  0  0  0
 19 18  1  0  0  0  0
 21 20  1  0  0  0  0
 21  4  1  0  0  0  0
 22 21  2  0  0  0  0
 23  6  1  0  0  0  0
 23 25  2  0  0  0  0
 24 23  1  0  0  0  0
M  END
>  <MODEL>
1

>  <REMARK>
 VINA RESULT:      -7.6      0.000      0.000
  Name = 
  4 active torsions:
  status: ('A' for Active; 'I' for Inactive)
    1  A    between atoms: C_4  and  N_15
    2  A    between atoms: C_5  and  C_18
    3  A    between atoms: C_10  and  C_22
    4  A    between atoms: C_17  and  C_24
                            x       y       z     vdW  Elec       q    Type
                         _______ _______ _______ _____ _____    ______ ____

>  <TORSDO>
F 4

$$$$
=
 OpenBabel11062420173D

 25 26  0  0  1  0  0  0  0  0999 V2000
  186.7500  178.6150  141.3580 F   0  0  0  0  0  0  0  0  0  0  0  0
  188.5120  177.6290  142.5910 C   0  0  0  0  0  3  0  0  0  0  0  0
  187.2450  178.2120  142.5540 C   0  0  0  0  0  0  0  0  0  0  0  0
  188.3370  177.3290  144.9970 C   0  0  0  0  0  0  0  0  0  0  0  0
  187.0730  177.9350  144.9480 C   0  0  0  0  0  3  0  0  0  0  0  0
  186.5170  178.3850  143.7450 C   0  0  0  0  0  0  0  0  0  0  0  0
  189.0810  177.1920  143.7980 C   0  0  0  0  0  0  0  0  0  0  0  0
  193.5270  175.8550  143.7910 C   0  0  0  0  0  0  0  0  0  0  0  0
  193.0420  175.4360  142.4010 C   0  0  0  0  0  2  0  0  0  0  0  0
  193.3950  177.0840  145.7760 F   0  0  0  0  0  0  0  0  0  0  0  0
  191.6350  174.9050  142.3930 C   0  0  0  0  0  2  0  0  0  0  0  0
  190.4680  176.6720  143.7790 C   0  0  1  0  0  3  0  0  0  0  0  0
  192.8920  176.7910  144.5500 C   0  0  0  0  0  0  0  0  0  0  0  0
  190.8260  175.6900  143.0170 C   0  0  0  0  0  2  0  0  0  0  0  0
  191.6380  177.5580  144.1360 C   0  0  0  0  0  2  0  0  0  0  0  0
  196.9420  174.7710  144.6440 O   0  0  0  0  0  0  0  0  0  0  0  0
  196.5070  176.7900  143.4910 C   0  0  0  0  0  1  0  0  0  0  0  0
  194.6810  175.2150  144.3640 N   0  0  0  0  0  2  0  0  0  0  0  0
  196.0650  175.5440  144.1790 C   0  0  0  0  0  0  0  0  0  0  0  0
  189.6670  177.5410  147.1000 O   0  0  0  0  0  1  0  0  0  0  0  0
  188.7970  176.8070  146.3030 C   0  0  0  0  0  0  0  0  0  0  0  0
  188.4440  175.6580  146.6830 O   0  0  0  0  0  0  0  0  0  0  0  0
  185.1780  179.0160  143.7620 C   0  0  0  0  0  0  0  0  0  0  0  0
  184.0560  178.3330  143.2110 N   0  0  0  0  0  1  0  0  0  0  0  0
  185.0100  180.1590  144.2630 O   0  0  0  0  0  0  0  0  0  0  0  0
  1  3  1  0  0  0  0
  2  7  1  0  0  0  0
  3  2  2  0  0  0  0
  3  6  1  0  0  0  0
  4 21  1  0  0  0  0
  5  4  1  0  0  0  0
  6 23  1  0  0  0  0
  6  5  2  0  0  0  0
  7  4  2  0  0  0  0
  8 18  1  0  0  0  0
  8 13  2  0  0  0  0
  9  8  1  0  0  0  0
 11  9  1  0  0  0  0
 11 14  1  0  0  0  0
 12  7  1  6  0  0  0
 12 15  1  0  0  0  0
 13 10  1  0  0  0  0
 14 12  1  0  0  0  0
 15 13  1  0  0  0  0
 17 19  1  0  0  0  0
 19 18  1  0  0  0  0
 19 16  2  0  0  0  0
 21 22  2  0  0  0  0
 21 20  1  0  0  0  0
 23 25  2  0  0  0  0
 24 23  1  0  0  0  0
M  END
>  <MODEL>
2

>  <REMARK>
 VINA RESULT:      -7.1      2.546      3.302
  Name = 
  4 active torsions:
  status: ('A' for Active; 'I' for Inactive)
    1  A    between atoms: C_4  and  N_15
    2  A    between atoms: C_5  and  C_18
    3  A    between atoms: C_10  and  C_22
    4  A    between atoms: C_17  and  C_24
                            x       y       z     vdW  Elec       q    Type
                         _______ _______ _______ _____ _____    ______ ____

>  <TORSDO>
F 4

$$$$
=
 OpenBabel11062420173D

 25 26  0  0  1  0  0  0  0  0999 V2000
  186.2420  177.9600  147.7670 F   0  0  0  0  0  0  0  0  0  0  0  0
  188.0820  177.1090  146.5480 C   0  0  0  0  0  3  0  0  0  0  0  0
  186.8450  177.7540  146.5700 C   0  0  0  0  0  0  0  0  0  0  0  0
  188.1750  177.3080  144.1270 C   0  0  0  0  0  0  0  0  0  0  0  0
  186.9220  177.9370  144.1630 C   0  0  0  0  0  3  0  0  0  0  0  0
  186.2430  178.1630  145.3670 C   0  0  0  0  0  0  0  0  0  0  0  0
  188.7570  176.8660  145.3410 C   0  0  0  0  0  0  0  0  0  0  0  0
  192.5380  174.1730  145.4520 C   0  0  0  0  0  0  0  0  0  0  0  0
  192.6490  174.9730  146.7530 C   0  0  0  0  0  2  0  0  0  0  0  0
  191.3750  173.2990  143.6220 F   0  0  0  0  0  0  0  0  0  0  0  0
  192.2050  176.4030  146.6160 C   0  0  0  0  0  2  0  0  0  0  0  0
  190.0190  176.0900  145.3810 C   0  0  1  0  0  3  0  0  0  0  0  0
  191.3670  174.0170  144.7730 C   0  0  0  0  0  0  0  0  0  0  0  0
  191.0560  176.4920  146.0420 C   0  0  0  0  0  2  0  0  0  0  0  0
  190.0170  174.5900  145.1990 C   0  0  0  0  0  2  0  0  0  0  0  0
  195.5440  173.4480  143.4530 O   0  0  0  0  0  0  0  0  0  0  0  0
  194.6420  175.6270  143.6350 C   0  0  0  0  0  1  0  0  0  0  0  0
  193.7170  173.5830  144.8780 N   0  0  0  0  0  2  0  0  0  0  0  0
  194.6540  174.1740  143.9670 C   0  0  0  0  0  0  0  0  0  0  0  0
  188.6350  176.0990  141.9900 O   0  0  0  0  0  0  0  0  0  0  0  0
  188.8490  177.1980  142.8140 C   0  0  0  0  0  0  0  0  0  0  0  0
  189.6730  178.0800  142.4520 O   0  0  0  0  0  1  0  0  0  0  0  0
  184.9240  178.8330  145.3350 C   0  0  0  0  0  0  0  0  0  0  0  0
  184.6470  179.8250  144.3500 N   0  0  0  0  0  1  0  0  0  0  0  0
  184.0300  178.5380  146.1710 O   0  0  0  0  0  0  0  0  0  0  0  0
  2  3  1  0  0  0  0
  3  1  1  0  0  0  0
  4  5  2  0  0  0  0
  4  7  1  0  0  0  0
  5  6  1  0  0  0  0
  6  3  2  0  0  0  0
  7  2  2  0  0  0  0
  8  9  1  0  0  0  0
 10 13  1  0  0  0  0
 11  9  1  0  0  0  0
 12  7  1  1  0  0  0
 12 14  1  0  0  0  0
 13 15  1  0  0  0  0
 13  8  2  0  0  0  0
 14 11  1  0  0  0  0
 15 12  1  0  0  0  0
 16 19  2  0  0  0  0
 17 19  1  0  0  0  0
 18  8  1  0  0  0  0
 19 18  1  0  0  0  0
 20 21  2  0  0  0  0
 21  4  1  0  0  0  0
 22 21  1  0  0  0  0
 23  6  1  0  0  0  0
 23 25  2  0  0  0  0
 24 23  1  0  0  0  0
M  END
>  <MODEL>
3

>  <REMARK>
 VINA RESULT:      -7.1      1.382      1.540
  Name = 
  4 active torsions:
  status: ('A' for Active; 'I' for Inactive)
    1  A    between atoms: C_4  and  N_15
    2  A    between atoms: C_5  and  C_18
    3  A    between atoms: C_10  and  C_22
    4  A    between atoms: C_17  and  C_24
                            x       y       z     vdW  Elec       q    Type
                         _______ _______ _______ _____ _____    ______ ____

>  <TORSDO>
F 4

$$$$
=
 OpenBabel11062420173D

 25 26  0  0  1  0  0  0  0  0999 V2000
  194.5430  177.0500  146.8910 F   0  0  0  0  0  0  0  0  0  0  0  0
  192.3700  176.5640  146.0920 C   0  0  0  0  0  3  0  0  0  0  0  0
  193.7330  176.2680  146.1360 C   0  0  0  0  0  0  0  0  0  0  0  0
  191.9780  174.6790  144.6080 C   0  0  0  0  0  0  0  0  0  0  0  0
  193.3530  174.4050  144.6450 C   0  0  0  0  0  3  0  0  0  0  0  0
  194.2410  175.1870  145.3940 C   0  0  0  0  0  0  0  0  0  0  0  0
  191.4790  175.7940  145.3290 C   0  0  0  0  0  0  0  0  0  0  0  0
  187.1400  177.4040  144.9510 C   0  0  0  0  0  0  0  0  0  0  0  0
  187.2840  177.1570  146.4550 C   0  0  0  0  0  2  0  0  0  0  0  0
  187.9740  177.7500  142.7940 F   0  0  0  0  0  0  0  0  0  0  0  0
  188.0750  175.9220  146.7870 C   0  0  0  0  0  2  0  0  0  0  0  0
  190.0630  176.2210  145.2500 C   0  0  1  0  0  3  0  0  0  0  0  0
  188.2070  177.5470  144.1160 C   0  0  0  0  0  0  0  0  0  0  0  0
  189.1880  175.8810  146.1400 C   0  0  0  0  0  2  0  0  0  0  0  0
  189.6730  177.4980  144.5410 C   0  0  0  0  0  2  0  0  0  0  0  0
  183.8280  178.4270  143.7090 O   0  0  0  0  0  0  0  0  0  0  0  0
  185.5300  179.9920  144.2070 C   0  0  0  0  0  1  0  0  0  0  0  0
  185.8300  177.4490  144.3610 N   0  0  0  0  0  2  0  0  0  0  0  0
  185.0140  178.5980  144.0910 C   0  0  0  0  0  0  0  0  0  0  0  0
  190.5240  172.6520  144.4920 O   0  0  0  0  0  1  0  0  0  0  0  0
  191.1120  173.7410  143.8600 C   0  0  0  0  0  0  0  0  0  0  0  0
  190.9430  173.8900  142.6200 O   0  0  0  0  0  0  0  0  0  0  0  0
  195.6800  174.8430  145.3900 C   0  0  0  0  0  0  0  0  0  0  0  0
  196.5170  175.2670  144.3180 N   0  0  0  0  0  1  0  0  0  0  0  0
  196.1870  174.1740  146.3300 O   0  0  0  0  0  0  0  0  0  0  0  0
  2  3  1  0  0  0  0
  3  1  1  0  0  0  0
  4  5  2  0  0  0  0
  4  7  1  0  0  0  0
  5  6  1  0  0  0  0
  6  3  2  0  0  0  0
  7  2  2  0  0  0  0
  8  9  1  0  0  0  0
  9 11  1  0  0  0  0
 10 13  1  0  0  0  0
 12  7  1  1  0  0  0
 12 14  1  0  0  0  0
 13 15  1  0  0  0  0
 13  8  2  0  0  0  0
 14 11  1  0  0  0  0
 15 12  1  0  0  0  0
 16 19  2  0  0  0  0
 18  8  1  0  0  0  0
 19 17  1  0  0  0  0
 19 18  1  0  0  0  0
 21 20  1  0  0  0  0
 21  4  1  0  0  0  0
 22 21  2  0  0  0  0
 23  6  1  0  0  0  0
 23 25  2  0  0  0  0
 24 23  1  0  0  0  0
M  END
>  <MODEL>
4

>  <REMARK>
 VINA RESULT:      -7.1      2.442      7.714
  Name = 
  4 active torsions:
  status: ('A' for Active; 'I' for Inactive)
    1  A    between atoms: C_4  and  N_15
    2  A    between atoms: C_5  and  C_18
    3  A    between atoms: C_10  and  C_22
    4  A    between atoms: C_17  and  C_24
                            x       y       z     vdW  Elec       q    Type
                         _______ _______ _______ _____ _____    ______ ____

>  <TORSDO>
F 4

$$$$
=
 OpenBabel11062420173D

 25 26  0  0  1  0  0  0  0  0999 V2000
  186.3260  178.9520  143.9520 F   0  0  0  0  0  0  0  0  0  0  0  0
  188.2560  177.6180  144.2570 C   0  0  0  0  0  3  0  0  0  0  0  0
  187.0790  178.1700  144.7640 C   0  0  0  0  0  0  0  0  0  0  0  0
  188.6880  176.5160  146.3800 C   0  0  0  0  0  0  0  0  0  0  0  0
  187.5130  177.0940  146.8830 C   0  0  0  0  0  3  0  0  0  0  0  0
  186.7040  177.9230  146.0970 C   0  0  0  0  0  0  0  0  0  0  0  0
  189.0790  176.8010  145.0470 C   0  0  0  0  0  0  0  0  0  0  0  0
  193.1950  175.6190  143.2520 C   0  0  0  0  0  0  0  0  0  0  0  0
  192.2020  175.0750  142.2210 C   0  0  0  0  0  2  0  0  0  0  0  0
  193.8220  176.9960  145.0350 F   0  0  0  0  0  0  0  0  0  0  0  0
  190.9570  174.4980  142.8350 C   0  0  0  0  0  2  0  0  0  0  0  0
  190.3620  176.3280  144.4780 C   0  0  1  0  0  3  0  0  0  0  0  0
  192.8750  176.5910  144.1520 C   0  0  0  0  0  0  0  0  0  0  0  0
  190.4330  175.3010  143.6940 C   0  0  0  0  0  2  0  0  0  0  0  0
  191.5150  177.2790  144.2600 C   0  0  0  0  0  2  0  0  0  0  0  0
  196.2420  173.7870  144.2110 O   0  0  0  0  0  0  0  0  0  0  0  0
  194.1040  173.2060  145.0390 C   0  0  0  0  0  1  0  0  0  0  0  0
  194.5200  175.0660  143.3230 N   0  0  0  0  0  2  0  0  0  0  0  0
  195.0090  174.0320  144.1900 C   0  0  0  0  0  0  0  0  0  0  0  0
  190.6810  175.9130  147.7600 O   0  0  0  0  0  1  0  0  0  0  0  0
  189.4250  175.5840  147.2630 C   0  0  0  0  0  0  0  0  0  0  0  0
  188.9420  174.4510  147.5280 O   0  0  0  0  0  0  0  0  0  0  0  0
  185.4760  178.5000  146.6880 C   0  0  0  0  0  0  0  0  0  0  0  0
  184.1950  178.1290  146.1870 N   0  0  0  0  0  1  0  0  0  0  0  0
  185.5430  179.3240  147.6380 O   0  0  0  0  0  0  0  0  0  0  0  0
  1  3  1  0  0  0  0
  2  3  2  0  0  0  0
  2  7  1  0  0  0  0
  3  6  1  0  0  0  0
  4  5  1  0  0  0  0
  4 21  1  0  0  0  0
  6 23  1  0  0  0  0
  6  5  2  0  0  0  0
  7  4  2  0  0  0  0
  8 18  1  0  0  0  0
  8 13  2  0  0  0  0
  9 11  1  0  0  0  0
  9  8  1  0  0  0  0
 11 14  1  0  0  0  0
 12  7  1  6  0  0  0
 13 15  1  0  0  0  0
 13 10  1  0  0  0  0
 14 12  1  0  0  0  0
 15 12  1  0  0  0  0
 18 19  1  0  0  0  0
 19 16  2  0  0  0  0
 19 17  1  0  0  0  0
 21 22  2  0  0  0  0
 21 20  1  0  0  0  0
 23 25  2  0  0  0  0
 24 23  1  0  0  0  0
M  END
>  <MODEL>
5

>  <REMARK>
 VINA RESULT:      -7.1      2.637      3.471
  Name = 
  4 active torsions:
  status: ('A' for Active; 'I' for Inactive)
    1  A    between atoms: C_4  and  N_15
    2  A    between atoms: C_5  and  C_18
    3  A    between atoms: C_10  and  C_22
    4  A    between atoms: C_17  and  C_24
                            x       y       z     vdW  Elec       q    Type
                         _______ _______ _______ _____ _____    ______ ____

>  <TORSDO>
F 4

$$$$
=
 OpenBabel11062420173D

 25 26  0  0  1  0  0  0  0  0999 V2000
  193.8190  176.4560  142.4280 F   0  0  0  0  0  0  0  0  0  0  0  0
  191.8250  176.6330  143.6900 C   0  0  0  0  0  3  0  0  0  0  0  0
  193.2020  176.4120  143.6350 C   0  0  0  0  0  0  0  0  0  0  0  0
  191.8480  176.3580  146.1050 C   0  0  0  0  0  0  0  0  0  0  0  0
  193.2270  176.1180  146.0320 C   0  0  0  0  0  3  0  0  0  0  0  0
  193.9170  176.1340  144.8140 C   0  0  0  0  0  0  0  0  0  0  0  0
  191.1280  176.6000  144.9070 C   0  0  0  0  0  0  0  0  0  0  0  0
  186.4890  176.7860  144.9850 C   0  0  0  0  0  0  0  0  0  0  0  0
  186.8080  176.8120  143.4880 C   0  0  0  0  0  2  0  0  0  0  0  0
  186.9940  176.3640  147.2290 F   0  0  0  0  0  0  0  0  0  0  0  0
  188.0300  177.6200  143.1500 C   0  0  0  0  0  2  0  0  0  0  0  0
  189.6540  176.7460  144.8830 C   0  0  1  0  0  3  0  0  0  0  0  0
  187.3670  176.3350  145.9240 C   0  0  0  0  0  0  0  0  0  0  0  0
  189.0320  177.3030  143.8940 C   0  0  0  0  0  2  0  0  0  0  0  0
  188.7630  175.7870  145.6360 C   0  0  0  0  0  2  0  0  0  0  0  0
  183.6830  178.9240  146.0400 O   0  0  0  0  0  0  0  0  0  0  0  0
  185.4740  179.7440  144.7300 C   0  0  0  0  0  1  0  0  0  0  0  0
  185.2280  177.2950  145.4520 N   0  0  0  0  0  2  0  0  0  0  0  0
  184.7580  178.6500  145.4470 C   0  0  0  0  0  0  0  0  0  0  0  0
  191.0650  175.2510  148.2020 O   0  0  0  0  0  1  0  0  0  0  0  0
  191.2300  176.4070  147.4490 C   0  0  0  0  0  0  0  0  0  0  0  0
  190.7940  177.4990  147.9040 O   0  0  0  0  0  0  0  0  0  0  0  0
  195.3730  175.8730  144.8070 C   0  0  0  0  0  0  0  0  0  0  0  0
  196.2390  176.6550  143.9890 N   0  0  0  0  0  1  0  0  0  0  0  0
  195.8690  174.9610  145.5210 O   0  0  0  0  0  0  0  0  0  0  0  0
  1  3  1  0  0  0  0
  2  7  1  0  0  0  0
  3  2  2  0  0  0  0
  3  6  1  0  0  0  0
  4 21  1  0  0  0  0
  5  4  1  0  0  0  0
  6  5  2  0  0  0  0
  7  4  2  0  0  0  0
  8 18  1  0  0  0  0
  8 13  2  0  0  0  0
  9  8  1  0  0  0  0
 11  9  1  0  0  0  0
 11 14  1  0  0  0  0
 12  7  1  6  0  0  0
 12 15  1  0  0  0  0
 13 10  1  0  0  0  0
 14 12  1  0  0  0  0
 15 13  1  0  0  0  0
 17 19  1  0  0  0  0
 19 18  1  0  0  0  0
 19 16  2  0  0  0  0
 21 22  2  0  0  0  0
 21 20  1  0  0  0  0
 23  6  1  0  0  0  0
 23 25  2  0  0  0  0
 24 23  1  0  0  0  0
M  END
>  <MODEL>
6

>  <REMARK>
 VINA RESULT:      -6.9      2.257      7.779
  Name = 
  4 active torsions:
  status: ('A' for Active; 'I' for Inactive)
    1  A    between atoms: C_4  and  N_15
    2  A    between atoms: C_5  and  C_18
    3  A    between atoms: C_10  and  C_22
    4  A    between atoms: C_17  and  C_24
                            x       y       z     vdW  Elec       q    Type
                         _______ _______ _______ _____ _____    ______ ____

>  <TORSDO>
F 4

$$$$
=
 OpenBabel11062420173D

 25 26  0  0  1  0  0  0  0  0999 V2000
  186.5440  178.1240  147.8850 F   0  0  0  0  0  0  0  0  0  0  0  0
  188.3320  177.3170  146.5610 C   0  0  0  0  0  3  0  0  0  0  0  0
  187.0590  177.8810  146.6540 C   0  0  0  0  0  0  0  0  0  0  0  0
  188.2090  177.3660  144.1340 C   0  0  0  0  0  0  0  0  0  0  0  0
  186.9230  177.9140  144.2420 C   0  0  0  0  0  3  0  0  0  0  0  0
  186.3330  178.1710  145.4860 C   0  0  0  0  0  0  0  0  0  0  0  0
  188.9200  177.0410  145.3170 C   0  0  0  0  0  0  0  0  0  0  0  0
  193.1560  175.1490  145.1200 C   0  0  0  0  0  0  0  0  0  0  0  0
  192.3230  174.2170  144.2360 C   0  0  0  0  0  2  0  0  0  0  0  0
  193.5770  177.1630  146.2300 F   0  0  0  0  0  0  0  0  0  0  0  0
  190.9320  173.9810  144.7570 C   0  0  0  0  0  2  0  0  0  0  0  0
  190.2320  176.3530  145.2920 C   0  0  1  0  0  3  0  0  0  0  0  0
  192.7740  176.4200  145.4270 C   0  0  0  0  0  0  0  0  0  0  0  0
  190.3420  175.0860  145.0570 C   0  0  0  0  0  2  0  0  0  0  0  0
  191.4970  177.1000  144.9380 C   0  0  0  0  0  2  0  0  0  0  0  0
  196.6460  174.1660  145.7630 O   0  0  0  0  0  0  0  0  0  0  0  0
  196.0490  175.6390  144.0110 C   0  0  0  0  0  1  0  0  0  0  0  0
  194.3810  174.6700  145.7010 N   0  0  0  0  0  2  0  0  0  0  0  0
  195.7150  174.7830  145.1850 C   0  0  0  0  0  0  0  0  0  0  0  0
  189.3770  178.2900  142.1290 O   0  0  0  0  0  0  0  0  0  0  0  0
  188.7780  177.2160  142.7760 C   0  0  0  0  0  0  0  0  0  0  0  0
  188.6750  176.1170  142.1670 O   0  0  0  0  0  1  0  0  0  0  0  0
  184.9720  178.7510  145.5300 C   0  0  0  0  0  0  0  0  0  0  0  0
  184.0270  178.2910  146.4920 N   0  0  0  0  0  1  0  0  0  0  0  0
  184.6280  179.6550  144.7230 O   0  0  0  0  0  0  0  0  0  0  0  0
  2  3  1  0  0  0  0
  3  1  1  0  0  0  0
  4  5  2  0  0  0  0
  4  7  1  0  0  0  0
  5  6  1  0  0  0  0
  6 23  1  0  0  0  0
  6  3  2  0  0  0  0
  7  2  2  0  0  0  0
  8 13  2  0  0  0  0
  8 18  1  0  0  0  0
  9 11  1  0  0  0  0
  9  8  1  0  0  0  0
 11 14  1  0  0  0  0
 12  7  1  6  0  0  0
 13 10  1  0  0  0  0
 14 12  1  0  0  0  0
 15 12  1  0  0  0  0
 15 13  1  0  0  0  0
 17 19  1  0  0  0  0
 19 18  1  0  0  0  0
 19 16  2  0  0  0  0
 20 21  2  0  0  0  0
 21  4  1  0  0  0  0
 22 21  1  0  0  0  0
 23 24  1  0  0  0  0
 25 23  2  0  0  0  0
M  END
>  <MODEL>
7

>  <REMARK>
 VINA RESULT:      -6.9      1.699      2.076
  Name = 
  4 active torsions:
  status: ('A' for Active; 'I' for Inactive)
    1  A    between atoms: C_4  and  N_15
    2  A    between atoms: C_5  and  C_18
    3  A    between atoms: C_10  and  C_22
    4  A    between atoms: C_17  and  C_24
                            x       y       z     vdW  Elec       q    Type
                         _______ _______ _______ _____ _____    ______ ____

>  <TORSDO>
F 4

$$$$
=
 OpenBabel11062420173D

 25 26  0  0  1  0  0  0  0  0999 V2000
  193.8590  176.4560  142.3740 F   0  0  0  0  0  0  0  0  0  0  0  0
  191.6250  176.7650  143.0900 C   0  0  0  0  0  3  0  0  0  0  0  0
  192.9570  176.4740  143.3870 C   0  0  0  0  0  0  0  0  0  0  0  0
  191.0250  176.5530  145.4360 C   0  0  0  0  0  0  0  0  0  0  0  0
  192.3630  176.2420  145.7170 C   0  0  0  0  0  3  0  0  0  0  0  0
  193.3360  176.1930  144.7110 C   0  0  0  0  0  0  0  0  0  0  0  0
  190.6430  176.7990  144.0920 C   0  0  0  0  0  0  0  0  0  0  0  0
  186.1630  177.1920  142.9390 C   0  0  0  0  0  0  0  0  0  0  0  0
  186.8820  177.4570  141.6140 C   0  0  0  0  0  2  0  0  0  0  0  0
  186.0300  176.3700  145.1240 F   0  0  0  0  0  0  0  0  0  0  0  0
  188.1500  178.2520  141.7690 C   0  0  0  0  0  2  0  0  0  0  0  0
  189.2330  177.0180  143.6950 C   0  0  1  0  0  3  0  0  0  0  0  0
  186.7480  176.5450  143.9860 C   0  0  0  0  0  0  0  0  0  0  0  0
  188.9080  177.7640  142.6890 C   0  0  0  0  0  2  0  0  0  0  0  0
  188.1700  175.9880  143.9950 C   0  0  0  0  0  2  0  0  0  0  0  0
  183.1600  179.0410  143.9980 O   0  0  0  0  0  0  0  0  0  0  0  0
  185.3410  179.9250  144.2410 C   0  0  0  0  0  1  0  0  0  0  0  0
  184.8210  177.6730  143.1280 N   0  0  0  0  0  2  0  0  0  0  0  0
  184.3900  178.8650  143.8010 C   0  0  0  0  0  0  0  0  0  0  0  0
  189.7270  177.9110  147.0820 O   0  0  0  0  0  0  0  0  0  0  0  0
  190.0930  176.6680  146.5800 C   0  0  0  0  0  0  0  0  0  0  0  0
  189.6630  175.6290  147.1500 O   0  0  0  0  0  1  0  0  0  0  0  0
  194.7310  175.8590  145.0760 C   0  0  0  0  0  0  0  0  0  0  0  0
  195.0140  175.2110  146.3130 N   0  0  0  0  0  1  0  0  0  0  0  0
  195.6850  176.1390  144.3030 O   0  0  0  0  0  0  0  0  0  0  0  0
  1  3  1  0  0  0  0
  2  3  2  0  0  0  0
  2  7  1  0  0  0  0
  3  6  1  0  0  0  0
  4  5  1  0  0  0  0
  4 21  1  0  0  0  0
  6 23  1  0  0  0  0
  6  5  2  0  0  0  0
  7  4  2  0  0  0  0
  8 18  1  0  0  0  0
  8 13  2  0  0  0  0
  9 11  1  0  0  0  0
  9  8  1  0  0  0  0
 11 14  1  0  0  0  0
 12 15  1  0  0  0  0
 12  7  1  6  0  0  0
 13 15  1  0  0  0  0
 13 10  1  0  0  0  0
 14 12  1  0  0  0  0
 18 19  1  0  0  0  0
 19 16  2  0  0  0  0
 19 17  1  0  0  0  0
 21 20  2  0  0  0  0
 21 22  1  0  0  0  0
 23 24  1  0  0  0  0
 25 23  2  0  0  0  0
M  END
>  <MODEL>
8

>  <REMARK>
 VINA RESULT:      -6.8      2.063      7.851
  Name = 
  4 active torsions:
  status: ('A' for Active; 'I' for Inactive)
    1  A    between atoms: C_4  and  N_15
    2  A    between atoms: C_5  and  C_18
    3  A    between atoms: C_10  and  C_22
    4  A    between atoms: C_17  and  C_24
                            x       y       z     vdW  Elec       q    Type
                         _______ _______ _______ _____ _____    ______ ____

>  <TORSDO>
F 4

$$$$
=
 OpenBabel11062420173D

 25 26  0  0  1  0  0  0  0  0999 V2000
  186.6830  176.9210  140.7340 F   0  0  0  0  0  0  0  0  0  0  0  0
  187.6790  176.6840  142.8670 C   0  0  0  0  0  3  0  0  0  0  0  0
  186.6090  177.1040  142.0760 C   0  0  0  0  0  0  0  0  0  0  0  0
  186.5250  177.4270  144.8730 C   0  0  0  0  0  0  0  0  0  0  0  0
  185.4660  177.8630  144.0630 C   0  0  0  0  0  3  0  0  0  0  0  0
  185.4920  177.7160  142.6710 C   0  0  0  0  0  0  0  0  0  0  0  0
  187.6630  176.8450  144.2620 C   0  0  0  0  0  0  0  0  0  0  0  0
  191.3560  175.3590  146.6520 C   0  0  0  0  0  0  0  0  0  0  0  0
  190.6810  176.3240  147.6300 C   0  0  0  0  0  2  0  0  0  0  0  0
  191.3960  173.9580  144.7800 F   0  0  0  0  0  0  0  0  0  0  0  0
  190.0990  177.5410  146.9650 C   0  0  0  0  0  2  0  0  0  0  0  0
  188.8710  176.4660  145.0310 C   0  0  1  0  0  3  0  0  0  0  0  0
  190.7050  174.7920  145.5980 C   0  0  0  0  0  0  0  0  0  0  0  0
  189.3700  177.2270  145.9510 C   0  0  0  0  0  2  0  0  0  0  0  0
  189.2360  175.0160  145.2450 C   0  0  0  0  0  2  0  0  0  0  0  0
  195.0210  175.1930  146.3380 O   0  0  0  0  0  0  0  0  0  0  0  0
  193.7560  176.9830  145.4490 C   0  0  0  0  0  1  0  0  0  0  0  0
  192.7520  175.0520  146.8070 N   0  0  0  0  0  2  0  0  0  0  0  0
  193.8790  175.7020  146.2020 C   0  0  0  0  0  0  0  0  0  0  0  0
  186.1960  176.4180  147.1340 O   0  0  0  0  0  1  0  0  0  0  0  0
  186.3600  177.5460  146.3390 C   0  0  0  0  0  0  0  0  0  0  0  0
  186.3120  178.6850  146.8780 O   0  0  0  0  0  0  0  0  0  0  0  0
  184.3410  178.1970  141.8750 C   0  0  0  0  0  0  0  0  0  0  0  0
  184.5170  178.5640  140.5090 N   0  0  0  0  0  1  0  0  0  0  0  0
  183.1950  178.2900  142.3880 O   0  0  0  0  0  0  0  0  0  0  0  0
  1  3  1  0  0  0  0
  2  7  1  0  0  0  0
  3  6  1  0  0  0  0
  3  2  2  0  0  0  0
  4 21  1  0  0  0  0
  5  4  1  0  0  0  0
  6  5  2  0  0  0  0
  7  4  2  0  0  0  0
  8 18  1  0  0  0  0
  8  9  1  0  0  0  0
 10 13  1  0  0  0  0
 11  9  1  0  0  0  0
 12  7  1  1  0  0  0
 12 15  1  0  0  0  0
 12 14  1  0  0  0  0
 13  8  2  0  0  0  0
 14 11  1  0  0  0  0
 15 13  1  0  0  0  0
 17 19  1  0  0  0  0
 19 16  2  0  0  0  0
 19 18  1  0  0  0  0
 21 22  2  0  0  0  0
 21 20  1  0  0  0  0
 23 25  2  0  0  0  0
 23  6  1  0  0  0  0
 24 23  1  0  0  0  0
M  END
>  <MODEL>
9

>  <REMARK>
 VINA RESULT:      -6.8      2.353      2.839
  Name = 
  4 active torsions:
  status: ('A' for Active; 'I' for Inactive)
    1  A    between atoms: C_4  and  N_15
    2  A    between atoms: C_5  and  C_18
    3  A    between atoms: C_10  and  C_22
    4  A    between atoms: C_17  and  C_24
                            x       y       z     vdW  Elec       q    Type
                         _______ _______ _______ _____ _____    ______ ____

>  <TORSDO>
F 4

$$$$
