=
 OpenBabel11062422133D

 44 48  0  0  1  0  0  0  0  0999 V2000
  189.8780  174.5280  141.8900 C   0  0  0  0  0  0  0  0  0  0  0  0
  188.8520  174.6220  140.8030 C   0  0  0  0  0  1  0  0  0  0  0  0
  195.5330  172.4190  142.7950 C   0  0  0  0  0  0  0  0  0  0  0  0
  190.2860  176.1570  147.6130 O   0  0  0  0  0  1  0  0  0  0  0  0
  187.9630  176.1240  144.7520 C   0  0  0  0  0  0  0  0  0  0  0  0
  189.6530  175.0030  143.2300 C   0  0  0  0  0  0  0  0  0  0  0  0
  191.3220  173.4820  140.2710 N   0  0  0  0  0  2  0  0  0  0  0  0
  190.7410  174.8650  144.1510 C   0  0  0  0  0  0  0  0  0  0  0  0
  188.5980  176.2710  145.9680 C   0  0  0  0  0  2  0  0  0  0  0  0
  191.1030  173.9390  141.5340 C   0  0  0  0  0  0  0  0  0  0  0  0
  191.8930  174.2750  143.7430 N   0  0  0  0  0  0  0  0  0  0  0  0
  194.3240  173.0310  143.1160 C   0  0  0  0  0  3  0  0  0  0  0  0
  192.1080  173.8110  142.4920 C   0  0  0  0  0  0  0  0  0  0  0  0
  187.2830  175.6340  142.7080 N   0  0  0  0  0  2  0  0  0  0  0  0
  193.3280  173.2080  142.1470 C   0  0  0  0  0  0  0  0  0  0  0  0
  186.1740  176.2130  143.2390 O   0  0  0  0  0  0  0  0  0  0  0  0
  188.3950  175.5750  143.5820 C   0  0  0  0  0  0  0  0  0  0  0  0
  186.5480  176.5440  144.5650 C   0  0  2  0  0  3  0  0  0  0  0  0
  189.8720  175.8880  146.3150 C   0  0  0  0  0  0  0  0  0  0  0  0
  192.6010  172.4960  138.7020 O   0  0  0  0  0  0  0  0  0  0  0  0
  190.7800  175.2630  145.4820 C   0  0  0  0  0  3  0  0  0  0  0  0
  192.4900  172.9040  139.8880 C   0  0  0  0  0  0  0  0  0  0  0  0
  195.7610  171.9870  141.4830 C   0  0  0  0  0  3  0  0  0  0  0  0
  193.5420  172.7520  140.8190 C   0  0  0  0  0  0  0  0  0  0  0  0
  194.7820  172.1470  140.4860 C   0  0  0  0  0  0  0  0  0  0  0  0
  186.3880  178.0530  144.8270 C   0  0  1  0  0  3  0  0  0  0  0  0
  186.1940  178.7680  143.6390 O   0  0  0  0  0  1  0  0  0  0  0  0
  185.8460  179.2920  146.9560 C   0  0  0  0  0  1  0  0  0  0  0  0
  184.7940  177.1090  146.5020 C   0  0  0  0  0  1  0  0  0  0  0  0
  184.1450  179.0690  145.1800 C   0  0  0  0  0  1  0  0  0  0  0  0
  185.3100  178.3870  145.8640 C   0  0  0  0  0  0  0  0  0  0  0  0
  195.0310  171.7080  139.1790 O   0  0  0  0  0  0  0  0  0  0  0  0
  196.3360  171.4130  138.6940 C   0  0  0  0  0  1  0  0  0  0  0  0
  196.5450  172.2090  143.8790 C   0  0  2  0  0  3  0  0  0  0  0  0
  197.1260  170.3100  145.4000 C   0  0  0  0  0  1  0  0  0  0  0  0
  197.0140  170.7610  143.9570 C   0  0  0  0  0  2  0  0  0  0  0  0
  195.9940  172.6700  145.2230 C   0  0  0  0  0  2  0  0  0  0  0  0
  196.6590  173.8910  145.6450 N   0  0  0  0  0  2  0  0  0  0  0  0
  195.8970  176.1370  144.1240 N   0  0  0  0  0  2  0  0  0  0  0  0
  195.2780  175.8980  145.2300 C   0  0  0  0  0  0  0  0  0  0  0  0
  195.6550  174.7850  146.0410 N   0  0  0  0  0  2  0  0  0  0  0  0
  194.2190  176.8040  145.6860 C   0  0  0  0  0  0  0  0  0  0  0  0
  194.1380  177.1320  146.9010 O   0  0  0  0  0  1  0  0  0  0  0  0
  193.2980  177.3040  144.7790 O   0  0  0  0  0  0  0  0  0  0  0  0
  1  6  1  0  0  0  0
  2  1  1  0  0  0  0
  3 12  1  0  0  0  0
  3 34  1  0  0  0  0
  5  9  1  0  0  0  0
  6 17  1  0  0  0  0
  6  8  2  0  0  0  0
  7 10  1  0  0  0  0
  8 21  1  0  0  0  0
  9 19  1  0  0  0  0
 10  1  2  0  0  0  0
 10 13  1  0  0  0  0
 11  8  1  0  0  0  0
 13 11  2  0  0  0  0
 14 16  1  0  0  0  0
 14 17  1  0  0  0  0
 15 13  1  0  0  0  0
 15 12  2  0  0  0  0
 16 18  1  0  0  0  0
 17  5  2  0  0  0  0
 18  5  1  0  0  0  0
 18 26  1  6  0  0  0
 19  4  1  0  0  0  0
 20 22  2  0  0  0  0
 21 19  2  0  0  0  0
 22  7  1  0  0  0  0
 22 24  1  0  0  0  0
 23  3  2  0  0  0  0
 24 15  1  0  0  0  0
 25 24  2  0  0  0  0
 25 23  1  0  0  0  0
 26 27  1  6  0  0  0
 26 31  1  0  0  0  0
 30 31  1  0  0  0  0
 31 29  1  0  0  0  0
 31 28  1  0  0  0  0
 32 25  1  0  0  0  0
 33 32  1  0  0  0  0
 34 36  1  1  0  0  0
 34 37  1  0  0  0  0
 36 35  1  0  0  0  0
 37 38  1  0  0  0  0
 38 41  1  0  0  0  0
 39 40  2  0  0  0  0
 40 42  1  0  0  0  0
 40 41  1  0  0  0  0
 42 43  1  0  0  0  0
 44 42  2  0  0  0  0
M  END
>  <MODEL>
1

>  <REMARK>
 VINA RESULT:      -7.4      0.000      0.000
  Name = 
  9 active torsions:
  status: ('A' for Active; 'I' for Inactive)
    1  A    between atoms: C_2  and  N_7
    2  A    between atoms: C_2  and  C_12
    3  A    between atoms: C_4  and  C_9
    4  A    between atoms: N_7  and  N_23
    5  A    between atoms: C_10  and  C_12
    6  A    between atoms: C_12  and  C_27
    7  A    between atoms: C_19  and  C_34
    8  A    between atoms: C_19  and  C_42
    9  A    between atoms: O_29  and  C_44
                            x       y       z     vdW  Elec       q    Type
                         _______ _______ _______ _____ _____    ______ ____

>  <TORSDO>
F 9

$$$$
=
 OpenBabel11062422133D

 44 48  0  0  1  0  0  0  0  0999 V2000
  191.7150  173.5330  142.5270 C   0  0  0  0  0  0  0  0  0  0  0  0
  192.9830  172.7420  142.6140 C   0  0  0  0  0  1  0  0  0  0  0  0
  188.2560  177.1960  145.9720 C   0  0  0  0  0  0  0  0  0  0  0  0
  187.5400  174.5820  138.3980 O   0  0  0  0  0  1  0  0  0  0  0  0
  190.6360  172.6710  138.9910 C   0  0  0  0  0  0  0  0  0  0  0  0
  190.8780  173.5560  141.3550 C   0  0  0  0  0  0  0  0  0  0  0  0
  192.1490  174.2520  144.7840 N   0  0  0  0  0  0  0  0  0  0  0  0
  189.7100  174.3810  141.4160 C   0  0  0  0  0  0  0  0  0  0  0  0
  189.4890  173.2540  138.4930 C   0  0  0  0  0  3  0  0  0  0  0  0
  191.3670  174.2720  143.6710 C   0  0  0  0  0  0  0  0  0  0  0  0
  189.4280  175.0590  142.5580 N   0  0  0  0  0  0  0  0  0  0  0  0
  188.6380  176.4840  144.8380 C   0  0  0  0  0  3  0  0  0  0  0  0
  190.1980  175.0320  143.6690 C   0  0  0  0  0  0  0  0  0  0  0  0
  192.3330  171.8910  140.1710 N   0  0  0  0  0  2  0  0  0  0  0  0
  189.8360  175.7580  144.8150 C   0  0  0  0  0  0  0  0  0  0  0  0
  192.4940  171.2400  138.9890 O   0  0  0  0  0  0  0  0  0  0  0  0
  191.2320  172.7800  140.2120 C   0  0  0  0  0  0  0  0  0  0  0  0
  191.4180  171.6960  138.1860 C   0  0  2  0  0  3  0  0  0  0  0  0
  188.6320  174.1240  139.1240 C   0  0  0  0  0  0  0  0  0  0  0  0
  192.6190  174.8610  146.9010 O   0  0  0  0  0  0  0  0  0  0  0  0
  188.7650  174.5870  140.4190 C   0  0  0  0  0  3  0  0  0  0  0  0
  191.8460  174.9490  145.9100 C   0  0  0  0  0  0  0  0  0  0  0  0
  189.0870  177.1980  147.0990 C   0  0  0  0  0  3  0  0  0  0  0  0
  190.6740  175.7360  145.9610 C   0  0  0  0  0  0  0  0  0  0  0  0
  190.2960  176.4790  147.1100 C   0  0  0  0  0  0  0  0  0  0  0  0
  191.9320  172.3500  136.8890 C   0  0  1  0  0  3  0  0  0  0  0  0
  193.3300  172.4340  136.8700 O   0  0  0  0  0  1  0  0  0  0  0  0
  190.4740  172.6260  134.8510 C   0  0  0  0  0  1  0  0  0  0  0  0
  190.6240  170.4330  135.9670 C   0  0  0  0  0  1  0  0  0  0  0  0
  192.5500  171.2980  134.7210 C   0  0  0  0  0  1  0  0  0  0  0  0
  191.3940  171.6940  135.6130 C   0  0  0  0  0  0  0  0  0  0  0  0
  191.1130  176.4950  148.2480 O   0  0  0  0  0  0  0  0  0  0  0  0
  191.4670  177.6900  148.9330 C   0  0  0  0  0  1  0  0  0  0  0  0
  186.9420  177.9140  145.9640 C   0  0  2  0  0  3  0  0  0  0  0  0
  184.7860  178.3380  147.1600 C   0  0  0  0  0  1  0  0  0  0  0  0
  186.0580  177.5130  147.1380 C   0  0  0  0  0  2  0  0  0  0  0  0
  186.2170  177.6890  144.6420 C   0  0  0  0  0  2  0  0  0  0  0  0
  186.1950  178.9190  143.8680 N   0  0  0  0  0  2  0  0  0  0  0  0
  187.7400  178.0730  141.6690 N   0  0  0  0  0  2  0  0  0  0  0  0
  186.4600  178.1500  141.5330 C   0  0  0  0  0  0  0  0  0  0  0  0
  185.6470  178.6010  142.6170 N   0  0  0  0  0  2  0  0  0  0  0  0
  185.8400  177.8270  140.2440 C   0  0  0  0  0  0  0  0  0  0  0  0
  186.5470  177.4410  139.2740 O   0  0  0  0  0  0  0  0  0  0  0  0
  184.4680  177.9450  140.0880 O   0  0  0  0  0  1  0  0  0  0  0  0
  1  2  1  0  0  0  0
  1 10  1  0  0  0  0
  3 23  1  0  0  0  0
  4 19  1  0  0  0  0
  5 17  2  0  0  0  0
  6  8  1  0  0  0  0
  6  1  2  0  0  0  0
  7 22  1  0  0  0  0
  8 11  1  0  0  0  0
  9  5  1  0  0  0  0
  9 19  2  0  0  0  0
 10  7  2  0  0  0  0
 11 13  2  0  0  0  0
 12  3  2  0  0  0  0
 13 10  1  0  0  0  0
 13 15  1  0  0  0  0
 14 17  1  0  0  0  0
 15 12  1  0  0  0  0
 15 24  2  0  0  0  0
 16 14  1  0  0  0  0
 17  6  1  0  0  0  0
 18 26  1  6  0  0  0
 18 16  1  0  0  0  0
 18  5  1  0  0  0  0
 19 21  1  0  0  0  0
 21  8  2  0  0  0  0
 22 24  1  0  0  0  0
 22 20  2  0  0  0  0
 23 25  2  0  0  0  0
 24 25  1  0  0  0  0
 25 32  1  0  0  0  0
 26 27  1  6  0  0  0
 28 31  1  0  0  0  0
 30 31  1  0  0  0  0
 31 29  1  0  0  0  0
 31 26  1  0  0  0  0
 32 33  1  0  0  0  0
 34 37  1  6  0  0  0
 34  3  1  0  0  0  0
 34 36  1  0  0  0  0
 36 35  1  0  0  0  0
 38 37  1  0  0  0  0
 40 39  2  0  0  0  0
 40 41  1  0  0  0  0
 41 38  1  0  0  0  0
 42 40  1  0  0  0  0
 43 42  2  0  0  0  0
 44 42  1  0  0  0  0
M  END
>  <MODEL>
2

>  <REMARK>
 VINA RESULT:      -7.4      2.672      9.429
  Name = 
  9 active torsions:
  status: ('A' for Active; 'I' for Inactive)
    1  A    between atoms: C_2  and  N_7
    2  A    between atoms: C_2  and  C_12
    3  A    between atoms: C_4  and  C_9
    4  A    between atoms: N_7  and  N_23
    5  A    between atoms: C_10  and  C_12
    6  A    between atoms: C_12  and  C_27
    7  A    between atoms: C_19  and  C_34
    8  A    between atoms: C_19  and  C_42
    9  A    between atoms: O_29  and  C_44
                            x       y       z     vdW  Elec       q    Type
                         _______ _______ _______ _____ _____    ______ ____

>  <TORSDO>
F 9

$$$$
=
 OpenBabel11062422133D

 44 48  0  0  1  0  0  0  0  0999 V2000
  190.8940  175.4200  145.5990 C   0  0  0  0  0  0  0  0  0  0  0  0
  191.6120  175.3870  146.9120 C   0  0  0  0  0  1  0  0  0  0  0  0
  185.7970  177.6880  143.1250 C   0  0  0  0  0  0  0  0  0  0  0  0
  191.8070  173.2730  140.1090 O   0  0  0  0  0  1  0  0  0  0  0  0
  193.2460  173.3020  143.5030 C   0  0  0  0  0  0  0  0  0  0  0  0
  191.3750  174.7470  144.4200 C   0  0  0  0  0  0  0  0  0  0  0  0
  189.2340  176.7920  146.6770 N   0  0  0  0  0  0  0  0  0  0  0  0
  190.5900  174.8940  143.2310 C   0  0  0  0  0  0  0  0  0  0  0  0
  192.9510  173.1180  142.1680 C   0  0  0  0  0  3  0  0  0  0  0  0
  189.6980  176.1580  145.5660 C   0  0  0  0  0  0  0  0  0  0  0  0
  189.4380  175.6110  143.2740 N   0  0  0  0  0  0  0  0  0  0  0  0
  187.0030  176.9940  143.1710 C   0  0  0  0  0  3  0  0  0  0  0  0
  188.9700  176.2330  144.3800 C   0  0  0  0  0  0  0  0  0  0  0  0
  193.3130  173.7540  145.6640 N   0  0  0  0  0  2  0  0  0  0  0  0
  187.7650  176.9540  144.3460 C   0  0  0  0  0  0  0  0  0  0  0  0
  194.4270  172.9920  145.5050 O   0  0  0  0  0  0  0  0  0  0  0  0
  192.5770  173.9820  144.4760 C   0  0  0  0  0  0  0  0  0  0  0  0
  194.4330  172.6600  144.1270 C   0  0  2  0  0  3  0  0  0  0  0  0
  191.8730  173.5930  141.4590 C   0  0  0  0  0  0  0  0  0  0  0  0
  187.7190  178.0530  147.7650 O   0  0  0  0  0  0  0  0  0  0  0  0
  190.8510  174.3670  141.9730 C   0  0  0  0  0  3  0  0  0  0  0  0
  188.0820  177.5110  146.6870 C   0  0  0  0  0  0  0  0  0  0  0  0
  185.3480  178.3690  144.2640 C   0  0  0  0  0  3  0  0  0  0  0  0
  187.3060  177.6210  145.5120 C   0  0  0  0  0  0  0  0  0  0  0  0
  186.0880  178.3480  145.4600 C   0  0  0  0  0  0  0  0  0  0  0  0
  195.7300  173.1360  143.4470 C   0  0  1  0  0  3  0  0  0  0  0  0
  196.2500  174.2800  144.0650 O   0  0  0  0  0  1  0  0  0  0  0  0
  196.1700  170.6900  143.0230 C   0  0  0  0  0  1  0  0  0  0  0  0
  197.5960  171.9400  144.5980 C   0  0  0  0  0  1  0  0  0  0  0  0
  197.7490  172.3970  142.1950 C   0  0  0  0  0  1  0  0  0  0  0  0
  196.7940  172.0410  143.3130 C   0  0  0  0  0  0  0  0  0  0  0  0
  185.6210  179.0360  146.5870 O   0  0  0  0  0  0  0  0  0  0  0  0
  184.4690  178.6360  147.3190 C   0  0  0  0  0  1  0  0  0  0  0  0
  184.9950  177.6580  141.8610 C   0  0  2  0  0  3  0  0  0  0  0  0
  186.2950  177.3760  139.7410 C   0  0  0  0  0  1  0  0  0  0  0  0
  185.6980  178.3750  140.7140 C   0  0  0  0  0  2  0  0  0  0  0  0
  183.6090  178.2460  142.0930 C   0  0  0  0  0  2  0  0  0  0  0  0
  182.8160  178.1540  140.8780 N   0  0  0  0  0  2  0  0  0  0  0  0
  180.6320  179.9060  140.5610 N   0  0  0  0  0  2  0  0  0  0  0  0
  180.4210  178.7390  141.0680 C   0  0  0  0  0  0  0  0  0  0  0  0
  181.5080  177.8350  141.2700 N   0  0  0  0  0  2  0  0  0  0  0  0
  179.0700  178.3590  141.4920 C   0  0  0  0  0  0  0  0  0  0  0  0
  178.0790  179.0730  141.1820 O   0  0  0  0  0  0  0  0  0  0  0  0
  178.8780  177.2070  142.2380 O   0  0  0  0  0  1  0  0  0  0  0  0
  1  2  1  0  0  0  0
  3 12  2  0  0  0  0
  3 23  1  0  0  0  0
  4 19  1  0  0  0  0
  5 18  1  0  0  0  0
  5 17  2  0  0  0  0
  6 17  1  0  0  0  0
  6  1  2  0  0  0  0
  7 22  1  0  0  0  0
  8 11  1  0  0  0  0
  8  6  1  0  0  0  0
  9  5  1  0  0  0  0
 10  1  1  0  0  0  0
 10  7  2  0  0  0  0
 11 13  2  0  0  0  0
 12 15  1  0  0  0  0
 13 10  1  0  0  0  0
 15 13  1  0  0  0  0
 15 24  2  0  0  0  0
 16 14  1  0  0  0  0
 17 14  1  0  0  0  0
 18 26  1  6  0  0  0
 18 16  1  0  0  0  0
 19 21  1  0  0  0  0
 19  9  2  0  0  0  0
 21  8  2  0  0  0  0
 22 20  2  0  0  0  0
 23 25  2  0  0  0  0
 24 22  1  0  0  0  0
 25 24  1  0  0  0  0
 25 32  1  0  0  0  0
 26 27  1  1  0  0  0
 28 31  1  0  0  0  0
 30 31  1  0  0  0  0
 31 26  1  0  0  0  0
 31 29  1  0  0  0  0
 32 33  1  0  0  0  0
 34 36  1  6  0  0  0
 34 37  1  0  0  0  0
 34  3  1  0  0  0  0
 35 36  1  0  0  0  0
 38 41  1  0  0  0  0
 38 37  1  0  0  0  0
 39 40  2  0  0  0  0
 40 41  1  0  0  0  0
 40 42  1  0  0  0  0
 42 44  1  0  0  0  0
 43 42  2  0  0  0  0
M  END
>  <MODEL>
3

>  <REMARK>
 VINA RESULT:      -7.3      3.434     11.115
  Name = 
  9 active torsions:
  status: ('A' for Active; 'I' for Inactive)
    1  A    between atoms: C_2  and  N_7
    2  A    between atoms: C_2  and  C_12
    3  A    between atoms: C_4  and  C_9
    4  A    between atoms: N_7  and  N_23
    5  A    between atoms: C_10  and  C_12
    6  A    between atoms: C_12  and  C_27
    7  A    between atoms: C_19  and  C_34
    8  A    between atoms: C_19  and  C_42
    9  A    between atoms: O_29  and  C_44
                            x       y       z     vdW  Elec       q    Type
                         _______ _______ _______ _____ _____    ______ ____

>  <TORSDO>
F 9

$$$$
=
 OpenBabel11062422133D

 44 48  0  0  1  0  0  0  0  0999 V2000
  191.9840  175.9760  145.7110 C   0  0  0  0  0  0  0  0  0  0  0  0
  191.9360  175.9500  147.2070 C   0  0  0  0  0  1  0  0  0  0  0  0
  195.7480  174.5050  141.1380 C   0  0  0  0  0  0  0  0  0  0  0  0
  188.3490  177.6570  141.2910 O   0  0  0  0  0  1  0  0  0  0  0  0
  188.6100  177.5480  144.9660 C   0  0  0  0  0  0  0  0  0  0  0  0
  190.9160  176.4960  144.8960 C   0  0  0  0  0  0  0  0  0  0  0  0
  194.1640  174.9680  145.8820 N   0  0  0  0  0  0  0  0  0  0  0  0
  191.0990  176.4280  143.4780 C   0  0  0  0  0  0  0  0  0  0  0  0
  188.2390  177.7140  143.6470 C   0  0  0  0  0  3  0  0  0  0  0  0
  193.1480  175.4560  145.1200 C   0  0  0  0  0  0  0  0  0  0  0  0
  192.2560  175.9250  142.9750 N   0  0  0  0  0  0  0  0  0  0  0  0
  194.5890  174.9820  141.7430 C   0  0  0  0  0  3  0  0  0  0  0  0
  193.2700  175.4490  143.7310 C   0  0  0  0  0  0  0  0  0  0  0  0
  189.5970  177.1990  146.9100 N   0  0  0  0  0  2  0  0  0  0  0  0
  194.4390  174.9480  143.1360 C   0  0  0  0  0  0  0  0  0  0  0  0
  188.4150  177.7470  147.2940 O   0  0  0  0  0  0  0  0  0  0  0  0
  189.7520  177.0430  145.5120 C   0  0  0  0  0  0  0  0  0  0  0  0
  187.7340  178.0040  146.0770 C   0  0  2  0  0  3  0  0  0  0  0  0
  188.9510  177.3980  142.5150 C   0  0  0  0  0  0  0  0  0  0  0  0
  196.2030  174.0440  146.1310 O   0  0  0  0  0  0  0  0  0  0  0  0
  190.2140  176.8390  142.4890 C   0  0  0  0  0  3  0  0  0  0  0  0
  195.3070  174.4610  145.3500 C   0  0  0  0  0  0  0  0  0  0  0  0
  196.7710  173.9710  141.9300 C   0  0  0  0  0  3  0  0  0  0  0  0
  195.4810  174.4280  143.9490 C   0  0  0  0  0  0  0  0  0  0  0  0
  196.6540  173.9220  143.3310 C   0  0  0  0  0  0  0  0  0  0  0  0
  186.3770  177.2770  146.0360 C   0  0  1  0  0  3  0  0  0  0  0  0
  186.0940  176.6390  147.2500 O   0  0  0  0  0  1  0  0  0  0  0  0
  185.6250  179.6260  145.5100 C   0  0  0  0  0  1  0  0  0  0  0  0
  184.0590  178.0410  146.5660 C   0  0  0  0  0  1  0  0  0  0  0  0
  184.7250  177.7170  144.2290 C   0  0  0  0  0  1  0  0  0  0  0  0
  185.2140  178.1690  145.5880 C   0  0  0  0  0  0  0  0  0  0  0  0
  197.6890  173.3820  144.1050 O   0  0  0  0  0  0  0  0  0  0  0  0
  197.9410  171.9860  144.2000 C   0  0  0  0  0  1  0  0  0  0  0  0
  195.8810  174.6110  139.6500 C   0  0  2  0  0  3  0  0  0  0  0  0
  197.6510  174.8500  137.8980 C   0  0  0  0  0  1  0  0  0  0  0  0
  197.1440  175.3550  139.2350 C   0  0  0  0  0  2  0  0  0  0  0  0
  194.6460  175.2700  139.0480 C   0  0  0  0  0  2  0  0  0  0  0  0
  193.9330  174.3230  138.2060 N   0  0  0  0  0  2  0  0  0  0  0  0
  193.1450  172.0310  139.6420 N   0  0  0  0  0  2  0  0  0  0  0  0
  192.3030  172.9980  139.5090 C   0  0  0  0  0  0  0  0  0  0  0  0
  192.6570  174.1640  138.7640 N   0  0  0  0  0  2  0  0  0  0  0  0
  190.9560  172.8790  140.0760 C   0  0  0  0  0  0  0  0  0  0  0  0
  190.6500  173.4990  141.1310 O   0  0  0  0  0  1  0  0  0  0  0  0
  190.0100  172.0820  139.4520 O   0  0  0  0  0  0  0  0  0  0  0  0
  1  2  1  0  0  0  0
  3 12  2  0  0  0  0
  3 23  1  0  0  0  0
  4 19  1  0  0  0  0
  5 17  2  0  0  0  0
  5 18  1  0  0  0  0
  6 17  1  0  0  0  0
  6  1  2  0  0  0  0
  8  6  1  0  0  0  0
  9  5  1  0  0  0  0
 10  1  1  0  0  0  0
 10  7  2  0  0  0  0
 11  8  1  0  0  0  0
 11 13  2  0  0  0  0
 12 15  1  0  0  0  0
 13 10  1  0  0  0  0
 14 16  1  0  0  0  0
 15 13  1  0  0  0  0
 15 24  2  0  0  0  0
 17 14  1  0  0  0  0
 18 26  1  1  0  0  0
 18 16  1  0  0  0  0
 19  9  2  0  0  0  0
 21 19  1  0  0  0  0
 21  8  2  0  0  0  0
 22  7  1  0  0  0  0
 22 20  2  0  0  0  0
 23 25  2  0  0  0  0
 24 22  1  0  0  0  0
 25 24  1  0  0  0  0
 25 32  1  0  0  0  0
 26 27  1  1  0  0  0
 28 31  1  0  0  0  0
 30 31  1  0  0  0  0
 31 26  1  0  0  0  0
 31 29  1  0  0  0  0
 32 33  1  0  0  0  0
 34 37  1  1  0  0  0
 34  3  1  0  0  0  0
 35 36  1  0  0  0  0
 36 34  1  0  0  0  0
 38 41  1  0  0  0  0
 38 37  1  0  0  0  0
 40 39  2  0  0  0  0
 40 42  1  0  0  0  0
 41 40  1  0  0  0  0
 42 43  1  0  0  0  0
 44 42  2  0  0  0  0
M  END
>  <MODEL>
4

>  <REMARK>
 VINA RESULT:      -7.1      2.541      5.122
  Name = 
  9 active torsions:
  status: ('A' for Active; 'I' for Inactive)
    1  A    between atoms: C_2  and  N_7
    2  A    between atoms: C_2  and  C_12
    3  A    between atoms: C_4  and  C_9
    4  A    between atoms: N_7  and  N_23
    5  A    between atoms: C_10  and  C_12
    6  A    between atoms: C_12  and  C_27
    7  A    between atoms: C_19  and  C_34
    8  A    between atoms: C_19  and  C_42
    9  A    between atoms: O_29  and  C_44
                            x       y       z     vdW  Elec       q    Type
                         _______ _______ _______ _____ _____    ______ ____

>  <TORSDO>
F 9

$$$$
=
 OpenBabel11062422133D

 44 48  0  0  1  0  0  0  0  0999 V2000
  189.8630  173.9220  143.3660 C   0  0  0  0  0  0  0  0  0  0  0  0
  190.3210  173.7080  144.7760 C   0  0  0  0  0  1  0  0  0  0  0  0
  190.7620  171.6500  137.7740 C   0  0  0  0  0  0  0  0  0  0  0  0
  186.1030  177.5930  140.5450 O   0  0  0  0  0  1  0  0  0  0  0  0
  187.5210  176.8670  143.8690 C   0  0  0  0  0  0  0  0  0  0  0  0
  188.9350  174.9560  142.9870 C   0  0  0  0  0  0  0  0  0  0  0  0
  191.2740  172.0700  142.7530 N   0  0  0  0  0  2  0  0  0  0  0  0
  188.5730  175.0170  141.6030 C   0  0  0  0  0  0  0  0  0  0  0  0
  186.8390  177.3590  142.7750 C   0  0  0  0  0  3  0  0  0  0  0  0
  190.3930  173.0450  142.4040 C   0  0  0  0  0  0  0  0  0  0  0  0
  189.1330  174.1460  140.7250 N   0  0  0  0  0  0  0  0  0  0  0  0
  190.2220  172.4840  138.7490 C   0  0  0  0  0  3  0  0  0  0  0  0
  190.0170  173.1830  141.0680 C   0  0  0  0  0  0  0  0  0  0  0  0
  188.8440  175.8610  145.3240 N   0  0  0  0  0  0  0  0  0  0  0  0
  190.5570  172.3220  140.1000 C   0  0  0  0  0  0  0  0  0  0  0  0
  188.2420  176.8000  146.0990 O   0  0  0  0  0  0  0  0  0  0  0  0
  188.4260  175.8530  143.9710 C   0  0  0  0  0  0  0  0  0  0  0  0
  187.3800  177.4910  145.2110 C   0  0  2  0  0  3  0  0  0  0  0  0
  186.9020  176.9340  141.4690 C   0  0  0  0  0  0  0  0  0  0  0  0
  192.6320  170.3410  142.2620 O   0  0  0  0  0  0  0  0  0  0  0  0
  187.6880  175.9010  140.9970 C   0  0  0  0  0  3  0  0  0  0  0  0
  191.8110  171.2050  141.8530 C   0  0  0  0  0  0  0  0  0  0  0  0
  191.6390  170.6260  138.1500 C   0  0  0  0  0  3  0  0  0  0  0  0
  191.4640  171.2990  140.4870 C   0  0  0  0  0  0  0  0  0  0  0  0
  191.9970  170.4350  139.4960 C   0  0  0  0  0  0  0  0  0  0  0  0
  185.9180  177.4240  145.6920 C   0  0  1  0  0  3  0  0  0  0  0  0
  185.7560  176.5020  146.7320 O   0  0  0  0  0  1  0  0  0  0  0  0
  185.9410  179.3420  147.3290 C   0  0  0  0  0  1  0  0  0  0  0  0
  183.8270  178.6660  146.2580 C   0  0  0  0  0  1  0  0  0  0  0  0
  185.5660  179.7650  144.9260 C   0  0  0  0  0  1  0  0  0  0  0  0
  185.3270  178.7900  146.0580 C   0  0  0  0  0  0  0  0  0  0  0  0
  192.8760  169.4030  139.8510 O   0  0  0  0  0  0  0  0  0  0  0  0
  194.1280  169.1950  139.2090 C   0  0  0  0  0  1  0  0  0  0  0  0
  190.4120  171.8980  136.3390 C   0  0  2  0  0  3  0  0  0  0  0  0
  191.6510  170.7160  134.5140 C   0  0  0  0  0  1  0  0  0  0  0  0
  190.4990  170.6310  135.4970 C   0  0  0  0  0  2  0  0  0  0  0  0
  191.2950  172.9940  135.7540 C   0  0  0  0  0  2  0  0  0  0  0  0
  190.4940  173.9130  134.9630 N   0  0  0  0  0  2  0  0  0  0  0  0
  189.1000  176.3570  134.8010 N   0  0  0  0  0  2  0  0  0  0  0  0
  188.6460  175.4350  135.5800 C   0  0  0  0  0  0  0  0  0  0  0  0
  189.3410  174.1940  135.7090 N   0  0  0  0  0  2  0  0  0  0  0  0
  187.4420  175.6810  136.3800 C   0  0  0  0  0  0  0  0  0  0  0  0
  187.3730  175.2730  137.5720 O   0  0  0  0  0  1  0  0  0  0  0  0
  186.3710  176.3640  135.8270 O   0  0  0  0  0  0  0  0  0  0  0  0
  1  2  1  0  0  0  0
  3 23  2  0  0  0  0
  3 12  1  0  0  0  0
  4 19  1  0  0  0  0
  5 17  1  0  0  0  0
  5 18  1  0  0  0  0
  6  1  1  0  0  0  0
  6 17  1  0  0  0  0
  8  6  2  0  0  0  0
  9  5  2  0  0  0  0
 10  7  1  0  0  0  0
 10  1  2  0  0  0  0
 11 13  2  0  0  0  0
 11  8  1  0  0  0  0
 12 15  2  0  0  0  0
 13 10  1  0  0  0  0
 14 16  1  0  0  0  0
 15 24  1  0  0  0  0
 15 13  1  0  0  0  0
 17 14  2  0  0  0  0
 18 26  1  1  0  0  0
 18 16  1  0  0  0  0
 19  9  1  0  0  0  0
 21 19  2  0  0  0  0
 21  8  1  0  0  0  0
 22 20  2  0  0  0  0
 22  7  1  0  0  0  0
 23 25  1  0  0  0  0
 24 22  1  0  0  0  0
 25 32  1  0  0  0  0
 25 24  2  0  0  0  0
 26 31  1  0  0  0  0
 26 27  1  1  0  0  0
 30 31  1  0  0  0  0
 31 29  1  0  0  0  0
 31 28  1  0  0  0  0
 33 32  1  0  0  0  0
 34 36  1  6  0  0  0
 34  3  1  0  0  0  0
 35 36  1  0  0  0  0
 37 34  1  0  0  0  0
 38 41  1  0  0  0  0
 38 37  1  0  0  0  0
 39 40  2  0  0  0  0
 40 41  1  0  0  0  0
 40 42  1  0  0  0  0
 42 43  1  0  0  0  0
 44 42  2  0  0  0  0
M  END
>  <MODEL>
5

>  <REMARK>
 VINA RESULT:      -6.9      3.538      6.556
  Name = 
  9 active torsions:
  status: ('A' for Active; 'I' for Inactive)
    1  A    between atoms: C_2  and  N_7
    2  A    between atoms: C_2  and  C_12
    3  A    between atoms: C_4  and  C_9
    4  A    between atoms: N_7  and  N_23
    5  A    between atoms: C_10  and  C_12
    6  A    between atoms: C_12  and  C_27
    7  A    between atoms: C_19  and  C_34
    8  A    between atoms: C_19  and  C_42
    9  A    between atoms: O_29  and  C_44
                            x       y       z     vdW  Elec       q    Type
                         _______ _______ _______ _____ _____    ______ ____

>  <TORSDO>
F 9

$$$$
=
 OpenBabel11062422133D

 44 48  0  0  1  0  0  0  0  0999 V2000
  189.8230  174.6890  141.8820 C   0  0  0  0  0  0  0  0  0  0  0  0
  188.7610  174.4170  140.8620 C   0  0  0  0  0  1  0  0  0  0  0  0
  195.7750  173.6980  142.7980 C   0  0  0  0  0  0  0  0  0  0  0  0
  190.1420  177.4060  147.1820 O   0  0  0  0  0  1  0  0  0  0  0  0
  187.7650  176.4750  144.5240 C   0  0  0  0  0  0  0  0  0  0  0  0
  189.5670  175.3660  143.1270 C   0  0  0  0  0  0  0  0  0  0  0  0
  191.3670  173.5970  140.3910 N   0  0  0  0  0  2  0  0  0  0  0  0
  190.6910  175.5760  143.9880 C   0  0  0  0  0  0  0  0  0  0  0  0
  188.4060  176.9450  145.6520 C   0  0  0  0  0  2  0  0  0  0  0  0
  191.1170  174.2430  141.5620 C   0  0  0  0  0  0  0  0  0  0  0  0
  191.9120  175.1060  143.6220 N   0  0  0  0  0  0  0  0  0  0  0  0
  194.4930  174.1630  143.0780 C   0  0  0  0  0  3  0  0  0  0  0  0
  192.1600  174.4560  142.4630 C   0  0  0  0  0  0  0  0  0  0  0  0
  187.1090  175.5100  142.6480 N   0  0  0  0  0  2  0  0  0  0  0  0
  193.4510  173.9960  142.1570 C   0  0  0  0  0  0  0  0  0  0  0  0
  185.9380  175.9980  143.1340 O   0  0  0  0  0  0  0  0  0  0  0  0
  188.2440  175.7900  143.4480 C   0  0  0  0  0  0  0  0  0  0  0  0
  186.2950  176.6260  144.3540 C   0  0  2  0  0  3  0  0  0  0  0  0
  189.7360  176.8380  145.9820 C   0  0  0  0  0  0  0  0  0  0  0  0
  192.7410  172.5460  138.9490 O   0  0  0  0  0  0  0  0  0  0  0  0
  190.7070  176.2170  145.2200 C   0  0  0  0  0  3  0  0  0  0  0  0
  192.6020  173.1470  140.0470 C   0  0  0  0  0  0  0  0  0  0  0  0
  196.0290  173.0680  141.5730 C   0  0  0  0  0  3  0  0  0  0  0  0
  193.6940  173.3380  140.9220 C   0  0  0  0  0  0  0  0  0  0  0  0
  195.0050  172.8830  140.6270 C   0  0  0  0  0  0  0  0  0  0  0  0
  185.8970  178.1140  144.3490 C   0  0  1  0  0  3  0  0  0  0  0  0
  185.3180  178.4920  143.1320 O   0  0  0  0  0  1  0  0  0  0  0  0
  184.7330  177.3420  146.4490 C   0  0  0  0  0  1  0  0  0  0  0  0
  183.6950  179.0740  145.0340 C   0  0  0  0  0  1  0  0  0  0  0  0
  185.7070  179.6070  146.3290 C   0  0  0  0  0  1  0  0  0  0  0  0
  185.0160  178.5190  145.5370 C   0  0  0  0  0  0  0  0  0  0  0  0
  195.2810  172.2510  139.4070 O   0  0  0  0  0  0  0  0  0  0  0  0
  196.1600  172.7970  138.4310 C   0  0  0  0  0  1  0  0  0  0  0  0
  196.8430  173.8550  143.8360 C   0  0  2  0  0  3  0  0  0  0  0  0
  197.3720  176.1980  143.1360 C   0  0  0  0  0  1  0  0  0  0  0  0
  197.9400  174.8160  143.3950 C   0  0  0  0  0  2  0  0  0  0  0  0
  197.4320  172.5000  144.2080 C   0  0  0  0  0  2  0  0  0  0  0  0
  197.1550  172.1990  145.6030 N   0  0  0  0  0  2  0  0  0  0  0  0
  194.3650  171.8390  145.7570 N   0  0  0  0  0  2  0  0  0  0  0  0
  195.1200  170.7970  145.6840 C   0  0  0  0  0  0  0  0  0  0  0  0
  196.5410  170.9390  145.6330 N   0  0  0  0  0  2  0  0  0  0  0  0
  194.5250  169.4570  145.7100 C   0  0  0  0  0  0  0  0  0  0  0  0
  193.6560  169.1280  144.8570 O   0  0  0  0  0  0  0  0  0  0  0  0
  194.9150  168.5450  146.6770 O   0  0  0  0  0  1  0  0  0  0  0  0
  1  6  1  0  0  0  0
  2  1  1  0  0  0  0
  3 12  1  0  0  0  0
  3 34  1  0  0  0  0
  5  9  1  0  0  0  0
  6 17  1  0  0  0  0
  6  8  2  0  0  0  0
  7 10  1  0  0  0  0
  8 21  1  0  0  0  0
  9 19  1  0  0  0  0
 10  1  2  0  0  0  0
 10 13  1  0  0  0  0
 11  8  1  0  0  0  0
 13 11  2  0  0  0  0
 14 16  1  0  0  0  0
 14 17  1  0  0  0  0
 15 13  1  0  0  0  0
 15 12  2  0  0  0  0
 16 18  1  0  0  0  0
 17  5  2  0  0  0  0
 18 26  1  6  0  0  0
 18  5  1  0  0  0  0
 19  4  1  0  0  0  0
 20 22  2  0  0  0  0
 21 19  2  0  0  0  0
 22  7  1  0  0  0  0
 22 24  1  0  0  0  0
 23  3  2  0  0  0  0
 24 15  1  0  0  0  0
 25 24  2  0  0  0  0
 25 23  1  0  0  0  0
 26 27  1  6  0  0  0
 26 31  1  0  0  0  0
 29 31  1  0  0  0  0
 31 30  1  0  0  0  0
 31 28  1  0  0  0  0
 32 25  1  0  0  0  0
 33 32  1  0  0  0  0
 34 36  1  6  0  0  0
 34 37  1  0  0  0  0
 35 36  1  0  0  0  0
 37 38  1  0  0  0  0
 38 41  1  0  0  0  0
 40 42  1  0  0  0  0
 40 39  2  0  0  0  0
 41 40  1  0  0  0  0
 42 44  1  0  0  0  0
 43 42  2  0  0  0  0
M  END
>  <MODEL>
6

>  <REMARK>
 VINA RESULT:      -6.9      2.022      2.905
  Name = 
  9 active torsions:
  status: ('A' for Active; 'I' for Inactive)
    1  A    between atoms: C_2  and  N_7
    2  A    between atoms: C_2  and  C_12
    3  A    between atoms: C_4  and  C_9
    4  A    between atoms: N_7  and  N_23
    5  A    between atoms: C_10  and  C_12
    6  A    between atoms: C_12  and  C_27
    7  A    between atoms: C_19  and  C_34
    8  A    between atoms: C_19  and  C_42
    9  A    between atoms: O_29  and  C_44
                            x       y       z     vdW  Elec       q    Type
                         _______ _______ _______ _____ _____    ______ ____

>  <TORSDO>
F 9

$$$$
=
 OpenBabel11062422133D

 44 48  0  0  1  0  0  0  0  0999 V2000
  191.8700  175.2680  145.5450 C   0  0  0  0  0  0  0  0  0  0  0  0
  191.9880  175.3940  147.0330 C   0  0  0  0  0  1  0  0  0  0  0  0
  194.8650  172.8320  140.8190 C   0  0  0  0  0  0  0  0  0  0  0  0
  188.0160  177.0180  141.3430 O   0  0  0  0  0  1  0  0  0  0  0  0
  188.6730  177.2300  144.9630 C   0  0  0  0  0  0  0  0  0  0  0  0
  190.7960  175.8550  144.7860 C   0  0  0  0  0  0  0  0  0  0  0  0
  193.9020  173.9770  145.6140 N   0  0  0  0  0  0  0  0  0  0  0  0
  190.8070  175.6240  143.3730 C   0  0  0  0  0  0  0  0  0  0  0  0
  188.1810  177.3190  143.6780 C   0  0  0  0  0  3  0  0  0  0  0  0
  192.8810  174.5300  144.9050 C   0  0  0  0  0  0  0  0  0  0  0  0
  191.8220  174.9130  142.8190 N   0  0  0  0  0  0  0  0  0  0  0  0
  193.8550  173.5280  141.4780 C   0  0  0  0  0  3  0  0  0  0  0  0
  192.8430  174.3710  143.5200 C   0  0  0  0  0  0  0  0  0  0  0  0
  189.8180  176.9330  146.8290 N   0  0  0  0  0  2  0  0  0  0  0  0
  193.8600  173.6510  142.8730 C   0  0  0  0  0  0  0  0  0  0  0  0
  188.7700  177.6810  147.2630 O   0  0  0  0  0  0  0  0  0  0  0  0
  189.7920  176.6210  145.4480 C   0  0  0  0  0  0  0  0  0  0  0  0
  187.9970  177.9140  146.0970 C   0  0  2  0  0  3  0  0  0  0  0  0
  188.7130  176.7950  142.5230 C   0  0  0  0  0  0  0  0  0  0  0  0
  195.8140  172.7970  145.7630 O   0  0  0  0  0  0  0  0  0  0  0  0
  189.8790  176.0600  142.4360 C   0  0  0  0  0  3  0  0  0  0  0  0
  194.9000  173.2610  145.0320 C   0  0  0  0  0  0  0  0  0  0  0  0
  195.8910  172.2350  141.5620 C   0  0  0  0  0  3  0  0  0  0  0  0
  194.9090  173.0680  143.6330 C   0  0  0  0  0  0  0  0  0  0  0  0
  195.9270  172.3400  142.9640 C   0  0  0  0  0  0  0  0  0  0  0  0
  186.5590  177.3900  146.2710 C   0  0  1  0  0  3  0  0  0  0  0  0
  186.4650  176.4750  147.3270 O   0  0  0  0  0  1  0  0  0  0  0  0
  184.1090  177.9340  146.5130 C   0  0  0  0  0  1  0  0  0  0  0  0
  185.5700  179.4070  145.1810 C   0  0  0  0  0  1  0  0  0  0  0  0
  185.8080  179.3410  147.6190 C   0  0  0  0  0  1  0  0  0  0  0  0
  185.5100  178.5000  146.3970 C   0  0  0  0  0  0  0  0  0  0  0  0
  196.9620  171.7340  143.6880 O   0  0  0  0  0  0  0  0  0  0  0  0
  197.2770  170.3510  143.5830 C   0  0  0  0  0  1  0  0  0  0  0  0
  194.8420  172.7720  139.3220 C   0  0  2  0  0  3  0  0  0  0  0  0
  196.5720  174.3170  138.3840 C   0  0  0  0  0  1  0  0  0  0  0  0
  196.2380  172.8770  138.7190 C   0  0  0  0  0  2  0  0  0  0  0  0
  193.9290  173.8540  138.7580 C   0  0  0  0  0  2  0  0  0  0  0  0
  192.8480  173.2500  137.9980 N   0  0  0  0  0  2  0  0  0  0  0  0
  191.2220  171.5540  139.5530 N   0  0  0  0  0  2  0  0  0  0  0  0
  190.8650  172.7840  139.3990 C   0  0  0  0  0  0  0  0  0  0  0  0
  191.6490  173.6660  138.5950 N   0  0  0  0  0  2  0  0  0  0  0  0
  189.6210  173.2660  140.0060 C   0  0  0  0  0  0  0  0  0  0  0  0
  188.9410  174.1660  139.4400 O   0  0  0  0  0  0  0  0  0  0  0  0
  189.1850  172.7340  141.2090 O   0  0  0  0  0  1  0  0  0  0  0  0
  1  2  1  0  0  0  0
  3 12  2  0  0  0  0
  3 23  1  0  0  0  0
  4 19  1  0  0  0  0
  5 17  2  0  0  0  0
  5 18  1  0  0  0  0
  6 17  1  0  0  0  0
  6  1  2  0  0  0  0
  8  6  1  0  0  0  0
  9  5  1  0  0  0  0
 10  1  1  0  0  0  0
 10  7  2  0  0  0  0
 11  8  1  0  0  0  0
 11 13  2  0  0  0  0
 12 15  1  0  0  0  0
 13 10  1  0  0  0  0
 14 16  1  0  0  0  0
 15 13  1  0  0  0  0
 15 24  2  0  0  0  0
 17 14  1  0  0  0  0
 18 26  1  1  0  0  0
 18 16  1  0  0  0  0
 19  9  2  0  0  0  0
 21 19  1  0  0  0  0
 21  8  2  0  0  0  0
 22  7  1  0  0  0  0
 22 20  2  0  0  0  0
 23 25  2  0  0  0  0
 24 22  1  0  0  0  0
 25 24  1  0  0  0  0
 25 32  1  0  0  0  0
 26 31  1  0  0  0  0
 26 27  1  1  0  0  0
 29 31  1  0  0  0  0
 31 28  1  0  0  0  0
 31 30  1  0  0  0  0
 33 32  1  0  0  0  0
 34 36  1  6  0  0  0
 34  3  1  0  0  0  0
 35 36  1  0  0  0  0
 37 34  1  0  0  0  0
 38 41  1  0  0  0  0
 38 37  1  0  0  0  0
 40 39  2  0  0  0  0
 40 42  1  0  0  0  0
 41 40  1  0  0  0  0
 42 44  1  0  0  0  0
 43 42  2  0  0  0  0
M  END
>  <MODEL>
7

>  <REMARK>
 VINA RESULT:      -6.9      2.267      5.074
  Name = 
  9 active torsions:
  status: ('A' for Active; 'I' for Inactive)
    1  A    between atoms: C_2  and  N_7
    2  A    between atoms: C_2  and  C_12
    3  A    between atoms: C_4  and  C_9
    4  A    between atoms: N_7  and  N_23
    5  A    between atoms: C_10  and  C_12
    6  A    between atoms: C_12  and  C_27
    7  A    between atoms: C_19  and  C_34
    8  A    between atoms: C_19  and  C_42
    9  A    between atoms: O_29  and  C_44
                            x       y       z     vdW  Elec       q    Type
                         _______ _______ _______ _____ _____    ______ ____

>  <TORSDO>
F 9

$$$$
=
 OpenBabel11062422133D

 44 48  0  0  1  0  0  0  0  0999 V2000
  188.2470  174.8230  139.8620 C   0  0  0  0  0  0  0  0  0  0  0  0
  187.8920  175.0260  138.4220 C   0  0  0  0  0  1  0  0  0  0  0  0
  186.9510  177.1400  145.3570 C   0  0  0  0  0  0  0  0  0  0  0  0
  191.7700  171.1550  142.9780 O   0  0  0  0  0  1  0  0  0  0  0  0
  190.7580  171.9950  139.5350 C   0  0  0  0  0  0  0  0  0  0  0  0
  189.1960  173.8360  140.3100 C   0  0  0  0  0  0  0  0  0  0  0  0
  186.7030  176.6000  140.3690 N   0  0  0  0  0  0  0  0  0  0  0  0
  189.4100  173.7460  141.7220 C   0  0  0  0  0  0  0  0  0  0  0  0
  191.3110  171.4710  140.6850 C   0  0  0  0  0  3  0  0  0  0  0  0
  187.5960  175.6610  140.7840 C   0  0  0  0  0  0  0  0  0  0  0  0
  188.7570  174.5960  142.5550 N   0  0  0  0  0  0  0  0  0  0  0  0
  187.5570  176.2970  144.4300 C   0  0  0  0  0  3  0  0  0  0  0  0
  187.8770  175.5360  142.1440 C   0  0  0  0  0  0  0  0  0  0  0  0
  189.7310  173.1510  137.9570 N   0  0  0  0  0  2  0  0  0  0  0  0
  187.2440  176.3830  143.0670 C   0  0  0  0  0  0  0  0  0  0  0  0
  190.4610  172.2690  137.2250 O   0  0  0  0  0  0  0  0  0  0  0  0
  189.8660  173.0110  139.3600 C   0  0  0  0  0  0  0  0  0  0  0  0
  191.1560  171.4980  138.1910 C   0  0  2  0  0  3  0  0  0  0  0  0
  191.0920  171.8520  141.9870 C   0  0  0  0  0  0  0  0  0  0  0  0
  185.2570  178.2820  140.7560 O   0  0  0  0  0  0  0  0  0  0  0  0
  190.2500  172.8680  142.3970 C   0  0  0  0  0  3  0  0  0  0  0  0
  186.0570  177.4320  141.2280 C   0  0  0  0  0  0  0  0  0  0  0  0
  186.0060  178.0770  144.9240 C   0  0  0  0  0  3  0  0  0  0  0  0
  186.3030  177.3460  142.6160 C   0  0  0  0  0  0  0  0  0  0  0  0
  185.6690  178.1920  143.5630 C   0  0  0  0  0  0  0  0  0  0  0  0
  190.8300  170.0000  138.0450 C   0  0  1  0  0  3  0  0  0  0  0  0
  189.6760  169.7930  137.2810 O   0  0  0  0  0  1  0  0  0  0  0  0
  193.1920  170.0300  137.1630 C   0  0  0  0  0  1  0  0  0  0  0  0
  191.5760  168.3830  136.2950 C   0  0  0  0  0  1  0  0  0  0  0  0
  192.4210  168.1660  138.5850 C   0  0  0  0  0  1  0  0  0  0  0  0
  192.0040  169.1620  137.5260 C   0  0  0  0  0  0  0  0  0  0  0  0
  184.7190  179.1360  143.1500 O   0  0  0  0  0  0  0  0  0  0  0  0
  183.3460  179.0650  143.5130 C   0  0  0  0  0  1  0  0  0  0  0  0
  187.3580  177.0420  146.7950 C   0  0  2  0  0  3  0  0  0  0  0  0
  186.9690  178.9600  148.3550 C   0  0  0  0  0  1  0  0  0  0  0  0
  186.3600  177.7230  147.7250 C   0  0  0  0  0  2  0  0  0  0  0  0
  188.7560  177.6140  146.9960 C   0  0  0  0  0  2  0  0  0  0  0  0
  189.7190  176.5370  147.1580 N   0  0  0  0  0  2  0  0  0  0  0  0
  190.8650  174.5540  145.5170 N   0  0  0  0  0  2  0  0  0  0  0  0
  191.3030  175.7630  145.4250 C   0  0  0  0  0  0  0  0  0  0  0  0
  190.7660  176.7890  146.2600 N   0  0  0  0  0  2  0  0  0  0  0  0
  192.3960  176.0770  144.4990 C   0  0  0  0  0  0  0  0  0  0  0  0
  193.1270  177.0860  144.6930 O   0  0  0  0  0  1  0  0  0  0  0  0
  192.6300  175.2630  143.4030 O   0  0  0  0  0  0  0  0  0  0  0  0
  1  6  2  0  0  0  0
  1 10  1  0  0  0  0
  2  1  1  0  0  0  0
  3 34  1  0  0  0  0
  5  9  1  0  0  0  0
  6  8  1  0  0  0  0
  7 10  2  0  0  0  0
  7 22  1  0  0  0  0
  8 21  2  0  0  0  0
  8 11  1  0  0  0  0
  9 19  2  0  0  0  0
 10 13  1  0  0  0  0
 12  3  2  0  0  0  0
 13 11  2  0  0  0  0
 13 15  1  0  0  0  0
 14 17  1  0  0  0  0
 15 12  1  0  0  0  0
 16 14  1  0  0  0  0
 16 18  1  0  0  0  0
 17  5  2  0  0  0  0
 17  6  1  0  0  0  0
 18 26  1  1  0  0  0
 18  5  1  0  0  0  0
 19 21  1  0  0  0  0
 19  4  1  0  0  0  0
 20 22  2  0  0  0  0
 22 24  1  0  0  0  0
 23  3  1  0  0  0  0
 24 15  2  0  0  0  0
 24 25  1  0  0  0  0
 25 23  2  0  0  0  0
 26 27  1  6  0  0  0
 28 31  1  0  0  0  0
 29 31  1  0  0  0  0
 31 26  1  0  0  0  0
 31 30  1  0  0  0  0
 32 33  1  0  0  0  0
 32 25  1  0  0  0  0
 34 37  1  6  0  0  0
 34 36  1  0  0  0  0
 36 35  1  0  0  0  0
 37 38  1  0  0  0  0
 40 39  2  0  0  0  0
 40 41  1  0  0  0  0
 41 38  1  0  0  0  0
 42 43  1  0  0  0  0
 42 40  1  0  0  0  0
 44 42  2  0  0  0  0
M  END
>  <MODEL>
8

>  <REMARK>
 VINA RESULT:      -6.8      3.268      8.979
  Name = 
  9 active torsions:
  status: ('A' for Active; 'I' for Inactive)
    1  A    between atoms: C_2  and  N_7
    2  A    between atoms: C_2  and  C_12
    3  A    between atoms: C_4  and  C_9
    4  A    between atoms: N_7  and  N_23
    5  A    between atoms: C_10  and  C_12
    6  A    between atoms: C_12  and  C_27
    7  A    between atoms: C_19  and  C_34
    8  A    between atoms: C_19  and  C_42
    9  A    between atoms: O_29  and  C_44
                            x       y       z     vdW  Elec       q    Type
                         _______ _______ _______ _____ _____    ______ ____

>  <TORSDO>
F 9

$$$$
=
 OpenBabel11062422133D

 44 48  0  0  1  0  0  0  0  0999 V2000
  190.9950  175.3920  145.6300 C   0  0  0  0  0  0  0  0  0  0  0  0
  191.4840  175.1420  147.0230 C   0  0  0  0  0  1  0  0  0  0  0  0
  186.4360  178.2180  142.7200 C   0  0  0  0  0  0  0  0  0  0  0  0
  192.7590  173.9870  140.1080 O   0  0  0  0  0  1  0  0  0  0  0  0
  193.6130  173.4770  143.6570 C   0  0  0  0  0  0  0  0  0  0  0  0
  191.6500  174.8670  144.4590 C   0  0  0  0  0  0  0  0  0  0  0  0
  189.2120  176.6770  146.6120 N   0  0  0  0  0  0  0  0  0  0  0  0
  191.0770  175.2150  143.1940 C   0  0  0  0  0  0  0  0  0  0  0  0
  193.5400  173.4940  142.2790 C   0  0  0  0  0  3  0  0  0  0  0  0
  189.8390  176.1820  145.5120 C   0  0  0  0  0  0  0  0  0  0  0  0
  189.9510  175.9720  143.1530 N   0  0  0  0  0  0  0  0  0  0  0  0
  187.6000  177.4680  142.8590 C   0  0  0  0  0  3  0  0  0  0  0  0
  189.3200  176.4560  144.2460 C   0  0  0  0  0  0  0  0  0  0  0  0
  193.3300  173.6210  145.8430 N   0  0  0  0  0  2  0  0  0  0  0  0
  188.1550  177.2290  144.1230 C   0  0  0  0  0  0  0  0  0  0  0  0
  194.4360  172.8370  145.7570 O   0  0  0  0  0  0  0  0  0  0  0  0
  192.8070  174.0460  144.5980 C   0  0  0  0  0  0  0  0  0  0  0  0
  194.6640  172.6990  144.3650 C   0  0  2  0  0  3  0  0  0  0  0  0
  192.6070  174.1130  141.4820 C   0  0  0  0  0  0  0  0  0  0  0  0
  187.5660  177.8450  147.6120 O   0  0  0  0  0  0  0  0  0  0  0  0
  191.5310  174.8550  141.9310 C   0  0  0  0  0  3  0  0  0  0  0  0
  188.0900  177.4410  146.5410 C   0  0  0  0  0  0  0  0  0  0  0  0
  185.8200  178.7540  143.8570 C   0  0  0  0  0  3  0  0  0  0  0  0
  187.5240  177.7500  145.2840 C   0  0  0  0  0  0  0  0  0  0  0  0
  186.3500  178.5330  145.1420 C   0  0  0  0  0  0  0  0  0  0  0  0
  196.0670  173.2040  143.9790 C   0  0  1  0  0  3  0  0  0  0  0  0
  196.6740  173.9020  145.0300 O   0  0  0  0  0  1  0  0  0  0  0  0
  197.7950  172.5960  142.2460 C   0  0  0  0  0  1  0  0  0  0  0  0
  196.1600  170.9100  142.9960 C   0  0  0  0  0  1  0  0  0  0  0  0
  197.9310  171.6490  144.5210 C   0  0  0  0  0  1  0  0  0  0  0  0
  196.9870  172.1070  143.4320 C   0  0  0  0  0  0  0  0  0  0  0  0
  185.7180  179.0790  146.2660 O   0  0  0  0  0  0  0  0  0  0  0  0
  184.3760  178.7740  146.6280 C   0  0  0  0  0  1  0  0  0  0  0  0
  185.8550  178.4020  141.3520 C   0  0  2  0  0  3  0  0  0  0  0  0
  183.5010  178.5180  140.5110 C   0  0  0  0  0  1  0  0  0  0  0  0
  184.5460  177.6420  141.1740 C   0  0  0  0  0  2  0  0  0  0  0  0
  186.8630  177.9950  140.2840 C   0  0  0  0  0  2  0  0  0  0  0  0
  186.5440  176.6730  139.7720 N   0  0  0  0  0  2  0  0  0  0  0  0
  187.7700  174.6500  138.2410 N   0  0  0  0  0  2  0  0  0  0  0  0
  187.2800  175.6760  137.6320 C   0  0  0  0  0  0  0  0  0  0  0  0
  186.6760  176.7340  138.3770 N   0  0  0  0  0  2  0  0  0  0  0  0
  187.3920  175.7850  136.1740 C   0  0  0  0  0  0  0  0  0  0  0  0
  188.3140  175.1850  135.5580 O   0  0  0  0  0  1  0  0  0  0  0  0
  186.4810  176.5520  135.4660 O   0  0  0  0  0  0  0  0  0  0  0  0
  1  2  1  0  0  0  0
  3 12  2  0  0  0  0
  3 23  1  0  0  0  0
  4 19  1  0  0  0  0
  5 18  1  0  0  0  0
  5 17  2  0  0  0  0
  6 17  1  0  0  0  0
  6  1  2  0  0  0  0
  8  6  1  0  0  0  0
  9  5  1  0  0  0  0
 10  1  1  0  0  0  0
 10  7  2  0  0  0  0
 11  8  1  0  0  0  0
 11 13  2  0  0  0  0
 12 15  1  0  0  0  0
 13 10  1  0  0  0  0
 15 13  1  0  0  0  0
 15 24  2  0  0  0  0
 16 14  1  0  0  0  0
 17 14  1  0  0  0  0
 18 26  1  1  0  0  0
 18 16  1  0  0  0  0
 19 21  1  0  0  0  0
 19  9  2  0  0  0  0
 21  8  2  0  0  0  0
 22  7  1  0  0  0  0
 22 20  2  0  0  0  0
 23 25  2  0  0  0  0
 24 22  1  0  0  0  0
 25 24  1  0  0  0  0
 25 32  1  0  0  0  0
 26 27  1  1  0  0  0
 28 31  1  0  0  0  0
 29 31  1  0  0  0  0
 31 26  1  0  0  0  0
 31 30  1  0  0  0  0
 32 33  1  0  0  0  0
 34 37  1  6  0  0  0
 34  3  1  0  0  0  0
 35 36  1  0  0  0  0
 36 34  1  0  0  0  0
 38 37  1  0  0  0  0
 40 39  2  0  0  0  0
 40 41  1  0  0  0  0
 41 38  1  0  0  0  0
 42 40  1  0  0  0  0
 43 42  1  0  0  0  0
 44 42  2  0  0  0  0
M  END
>  <MODEL>
9

>  <REMARK>
 VINA RESULT:      -6.7      2.987     10.310
  Name = 
  9 active torsions:
  status: ('A' for Active; 'I' for Inactive)
    1  A    between atoms: C_2  and  N_7
    2  A    between atoms: C_2  and  C_12
    3  A    between atoms: C_4  and  C_9
    4  A    between atoms: N_7  and  N_23
    5  A    between atoms: C_10  and  C_12
    6  A    between atoms: C_12  and  C_27
    7  A    between atoms: C_19  and  C_34
    8  A    between atoms: C_19  and  C_42
    9  A    between atoms: O_29  and  C_44
                            x       y       z     vdW  Elec       q    Type
                         _______ _______ _______ _____ _____    ______ ____

>  <TORSDO>
F 9

$$$$
