=
 OpenBabel11062421583D

 35 39  0  0  1  0  0  0  0  0999 V2000
  193.1440  176.3690  146.2720 C   0  0  2  0  0  0  0  0  0  0  0  0
  189.8420  177.5210  145.3870 C   0  0  0  0  0  3  0  0  0  0  0  0
  189.3930  177.3570  143.9970 C   0  0  0  0  0  0  0  0  0  0  0  0
  189.9210  173.7910  142.8300 C   0  0  2  0  0  3  0  0  0  0  0  0
  188.4740  178.1550  143.5470 N   0  0  0  0  0  0  0  0  0  0  0  0
  193.1910  174.2720  143.4380 C   0  0  0  0  0  2  0  0  0  0  0  0
  193.5050  174.1720  144.9430 C   0  0  1  0  0  3  0  0  0  0  0  0
  194.0640  171.7310  144.9970 C   0  0  0  0  0  3  0  0  0  0  0  0
  195.0630  176.2190  144.6800 C   0  0  0  0  0  2  0  0  0  0  0  0
  192.7330  171.3230  144.4460 C   0  0  0  0  0  2  0  0  0  0  0  0
  192.0930  173.3040  142.9960 C   0  0  2  0  0  3  0  0  0  0  0  0
  191.7010  175.9930  146.3950 C   0  0  0  0  0  3  0  0  0  0  0  0
  190.9270  173.4830  143.7540 O   0  0  0  0  0  0  0  0  0  0  0  0
  189.9590  176.2580  143.1440 C   0  0  0  0  0  2  0  0  0  0  0  0
  194.4080  173.0050  145.2210 C   0  0  0  0  0  3  0  0  0  0  0  0
  194.1280  175.4360  145.5830 C   0  0  2  0  0  0  0  0  0  0  0  0
  192.5450  171.8430  143.0240 C   0  0  0  0  0  2  0  0  0  0  0  0
  190.7660  176.7600  145.9070 C   0  0  0  0  0  0  0  0  0  0  0  0
  193.6940  177.1680  147.2760 O   0  0  0  0  0  1  0  0  0  0  0  0
  189.1350  174.9960  143.3160 C   0  0  0  0  0  2  0  0  0  0  0  0
  193.6400  176.7100  144.8840 C   0  0  1  0  0  3  0  0  0  0  0  0
  188.9610  171.7100  143.5280 O   0  0  0  0  0  1  0  0  0  0  0  0
  188.9980  172.6260  142.6660 C   0  0  0  0  0  0  0  0  0  0  0  0
  188.1470  172.5740  141.5700 O   0  0  0  0  0  0  0  0  0  0  0  0
  187.9310  178.0820  142.1970 C   0  0  0  0  0  2  0  0  0  0  0  0
  186.4680  178.3670  142.2280 C   0  0  0  0  0  0  0  0  0  0  0  0
  185.8280  178.3860  141.1890 O   0  0  0  0  0  0  0  0  0  0  0  0
  185.7910  178.6920  143.5200 C   0  0  0  0  0  2  0  0  0  0  0  0
  185.3210  177.5210  144.1190 O   0  0  0  0  0  0  0  0  0  0  0  0
  186.4220  176.8360  147.0350 C   0  0  0  0  0  2  0  0  0  0  0  0
  185.7940  179.1930  147.1920 O   0  0  0  0  0  0  0  0  0  0  0  0
  184.8390  177.9210  145.3680 C   0  0  2  0  0  3  0  0  0  0  0  0
  185.5560  179.2070  145.8070 C   0  0  0  0  0  2  0  0  0  0  0  0
  185.0350  176.7920  146.3880 C   0  0  0  0  0  2  0  0  0  0  0  0
  186.8390  178.2710  147.3990 C   0  0  0  0  0  2  0  0  0  0  0  0
  1 12  1  0  0  0  0
  1 19  1  1  0  0  0
  2 18  2  0  0  0  0
  3  2  1  0  0  0  0
  4 23  1  1  0  0  0
  4 20  1  0  0  0  0
  4 13  1  0  0  0  0
  5  3  2  0  0  0  0
  7  6  1  6  0  0  0
  7 15  1  0  0  0  0
  7 16  1  0  0  0  0
  8 15  2  0  0  0  0
 10  8  1  0  0  0  0
 11 17  1  1  0  0  0
 11  6  1  0  0  0  0
 11 13  1  0  0  0  0
 14 20  1  0  0  0  0
 14  3  1  0  0  0  0
 16  9  1  1  0  0  0
 16  1  1  0  0  0  0
 17 10  1  0  0  0  0
 18 12  2  0  0  0  0
 21  9  1  1  0  0  0
 21 16  1  0  0  0  0
 21  1  1  0  0  0  0
 23 22  1  0  0  0  0
 24 23  2  0  0  0  0
 25 26  1  0  0  0  0
 25  5  1  0  0  0  0
 26 28  1  0  0  0  0
 27 26  2  0  0  0  0
 28 29  1  0  0  0  0
 30 35  1  0  0  0  0
 31 35  1  0  0  0  0
 32 29  1  6  0  0  0
 32 33  1  0  0  0  0
 32 34  1  0  0  0  0
 33 31  1  0  0  0  0
 34 30  1  0  0  0  0
M  END
>  <MODEL>
1

>  <REMARK>
 VINA RESULT:      -8.1      0.000      0.000
  Name = 
  6 active torsions:
  status: ('A' for Active; 'I' for Inactive)
    1  A    between atoms: C_5  and  C_28
    2  A    between atoms: C_6  and  C_19
    3  A    between atoms: C_6  and  C_20
    4  A    between atoms: N_7  and  C_20
    5  A    between atoms: O_9  and  C_16
    6  A    between atoms: O_9  and  C_19
                            x       y       z     vdW  Elec       q    Type
                         _______ _______ _______ _____ _____    ______ ____

>  <TORSDO>
F 6

$$$$
=
 OpenBabel11062421583D

 35 39  0  0  1  0  0  0  0  0999 V2000
  189.2180  177.2720  146.1810 C   0  0  2  0  0  0  0  0  0  0  0  0
  190.7740  175.9540  143.2060 C   0  0  0  0  0  3  0  0  0  0  0  0
  189.9720  175.1020  142.3150 C   0  0  0  0  0  0  0  0  0  0  0  0
  186.6760  176.7700  141.4730 C   0  0  2  0  0  3  0  0  0  0  0  0
  190.5900  174.2540  141.5510 N   0  0  0  0  0  0  0  0  0  0  0  0
  186.0300  176.7410  144.7710 C   0  0  0  0  0  2  0  0  0  0  0  0
  186.7870  177.8660  145.5030 C   0  0  1  0  0  3  0  0  0  0  0  0
  184.9880  179.6040  145.3740 C   0  0  0  0  0  3  0  0  0  0  0  0
  187.3220  176.1790  147.3880 C   0  0  0  0  0  2  0  0  0  0  0  0
  184.9190  179.5500  143.8790 C   0  0  0  0  0  2  0  0  0  0  0  0
  185.5670  177.1500  143.3720 C   0  0  2  0  0  3  0  0  0  0  0  0
  189.6420  177.6770  144.8050 C   0  0  0  0  0  3  0  0  0  0  0  0
  186.6430  177.6040  142.5970 O   0  0  0  0  0  0  0  0  0  0  0  0
  188.4780  175.2510  142.2680 C   0  0  0  0  0  2  0  0  0  0  0  0
  185.8240  178.8520  146.1000 C   0  0  0  0  0  3  0  0  0  0  0  0
  187.7640  177.4060  146.6110 C   0  0  2  0  0  0  0  0  0  0  0  0
  184.4390  178.1830  143.4010 C   0  0  0  0  0  2  0  0  0  0  0  0
  190.2220  176.8250  144.0060 C   0  0  0  0  0  0  0  0  0  0  0  0
  190.1500  177.3990  147.2120 O   0  0  0  0  0  1  0  0  0  0  0  0
  188.0980  176.2930  141.2330 C   0  0  0  0  0  2  0  0  0  0  0  0
  188.3600  176.0300  146.2890 C   0  0  1  0  0  3  0  0  0  0  0  0
  186.5550  177.1660  139.1130 O   0  0  0  0  0  0  0  0  0  0  0  0
  186.1870  177.5080  140.2680 C   0  0  0  0  0  0  0  0  0  0  0  0
  185.2910  178.5570  140.4220 O   0  0  0  0  0  1  0  0  0  0  0  0
  189.9120  173.3690  140.6130 C   0  0  0  0  0  2  0  0  0  0  0  0
  190.2320  171.9500  140.9410 C   0  0  0  0  0  0  0  0  0  0  0  0
  190.2810  171.1160  140.0520 O   0  0  0  0  0  0  0  0  0  0  0  0
  190.4310  171.5310  142.3610 C   0  0  0  0  0  2  0  0  0  0  0  0
  191.5000  170.6360  142.4480 O   0  0  0  0  0  0  0  0  0  0  0  0
  194.0880  172.3530  143.1800 C   0  0  0  0  0  2  0  0  0  0  0  0
  192.5070  172.9010  144.9610 O   0  0  0  0  0  0  0  0  0  0  0  0
  192.0790  170.8830  143.6940 C   0  0  2  0  0  3  0  0  0  0  0  0
  191.5100  172.1860  144.2770 C   0  0  0  0  0  2  0  0  0  0  0  0
  193.6060  170.9500  143.5560 C   0  0  0  0  0  2  0  0  0  0  0  0
  193.3470  173.4450  143.9710 C   0  0  0  0  0  2  0  0  0  0  0  0
  1 21  1  0  0  0  0
  1 16  1  0  0  0  0
  1 19  1  1  0  0  0
  2 18  2  0  0  0  0
  3  2  1  0  0  0  0
  4 23  1  6  0  0  0
  4 13  1  0  0  0  0
  5  3  2  0  0  0  0
  7  6  1  1  0  0  0
  7 15  1  0  0  0  0
  7 16  1  0  0  0  0
  8 15  2  0  0  0  0
 10  8  1  0  0  0  0
 11 17  1  1  0  0  0
 11  6  1  0  0  0  0
 12  1  1  0  0  0  0
 13 11  1  0  0  0  0
 14  3  1  0  0  0  0
 16  9  1  1  0  0  0
 17 10  1  0  0  0  0
 18 12  2  0  0  0  0
 20  4  1  0  0  0  0
 20 14  1  0  0  0  0
 21 16  1  0  0  0  0
 21  9  1  1  0  0  0
 22 23  2  0  0  0  0
 23 24  1  0  0  0  0
 25 26  1  0  0  0  0
 25  5  1  0  0  0  0
 26 28  1  0  0  0  0
 27 26  2  0  0  0  0
 28 29  1  0  0  0  0
 30 34  1  0  0  0  0
 30 35  1  0  0  0  0
 32 29  1  6  0  0  0
 32 33  1  0  0  0  0
 33 31  1  0  0  0  0
 34 32  1  0  0  0  0
 35 31  1  0  0  0  0
M  END
>  <MODEL>
2

>  <REMARK>
 VINA RESULT:      -7.9      2.273      7.534
  Name = 
  6 active torsions:
  status: ('A' for Active; 'I' for Inactive)
    1  A    between atoms: C_5  and  C_28
    2  A    between atoms: C_6  and  C_19
    3  A    between atoms: C_6  and  C_20
    4  A    between atoms: N_7  and  C_20
    5  A    between atoms: O_9  and  C_16
    6  A    between atoms: O_9  and  C_19
                            x       y       z     vdW  Elec       q    Type
                         _______ _______ _______ _____ _____    ______ ____

>  <TORSDO>
F 6

$$$$
=
 OpenBabel11062421583D

 35 39  0  0  1  0  0  0  0  0999 V2000
  189.2670  177.1750  146.2780 C   0  0  2  0  0  0  0  0  0  0  0  0
  190.7550  175.8720  143.2620 C   0  0  0  0  0  3  0  0  0  0  0  0
  189.9220  175.0540  142.3670 C   0  0  0  0  0  0  0  0  0  0  0  0
  186.6570  176.8150  141.5940 C   0  0  2  0  0  3  0  0  0  0  0  0
  190.5100  174.2040  141.5810 N   0  0  0  0  0  0  0  0  0  0  0  0
  186.0500  176.7450  144.8990 C   0  0  0  0  0  2  0  0  0  0  0  0
  186.8430  177.8380  145.6400 C   0  0  1  0  0  3  0  0  0  0  0  0
  185.0850  179.6210  145.5640 C   0  0  0  0  0  3  0  0  0  0  0  0
  187.3610  176.1070  147.4900 C   0  0  0  0  0  2  0  0  0  0  0  0
  184.9970  179.5940  144.0690 C   0  0  0  0  0  2  0  0  0  0  0  0
  185.5810  177.1890  143.5130 C   0  0  2  0  0  3  0  0  0  0  0  0
  189.6840  177.5930  144.9040 C   0  0  0  0  0  3  0  0  0  0  0  0
  186.6580  177.6300  142.7330 O   0  0  0  0  0  0  0  0  0  0  0  0
  188.4320  175.2400  142.3410 C   0  0  0  0  0  2  0  0  0  0  0  0
  185.9120  178.8370  146.2660 C   0  0  0  0  0  3  0  0  0  0  0  0
  187.8220  177.3360  146.7280 C   0  0  2  0  0  0  0  0  0  0  0  0
  184.4790  178.2480  143.5730 C   0  0  0  0  0  2  0  0  0  0  0  0
  190.2340  176.7420  144.0830 C   0  0  0  0  0  0  0  0  0  0  0  0
  190.2150  177.2620  147.2990 O   0  0  0  0  0  1  0  0  0  0  0  0
  188.0640  176.3080  141.3280 C   0  0  0  0  0  2  0  0  0  0  0  0
  188.3810  175.9520  146.3760 C   0  0  1  0  0  3  0  0  0  0  0  0
  186.7490  177.4780  139.2940 O   0  0  0  0  0  0  0  0  0  0  0  0
  186.1720  177.5850  140.4080 C   0  0  0  0  0  0  0  0  0  0  0  0
  185.0520  178.3970  140.5280 O   0  0  0  0  0  1  0  0  0  0  0  0
  189.8000  173.3530  140.6370 C   0  0  0  0  0  2  0  0  0  0  0  0
  190.1080  171.9220  140.9210 C   0  0  0  0  0  0  0  0  0  0  0  0
  189.8770  171.4570  142.0250 O   0  0  0  0  0  0  0  0  0  0  0  0
  190.7580  171.0700  139.8800 C   0  0  0  0  0  2  0  0  0  0  0  0
  189.9650  171.0340  138.7310 O   0  0  0  0  0  0  0  0  0  0  0  0
  189.4430  171.4650  135.6120 C   0  0  0  0  0  2  0  0  0  0  0  0
  191.5430  172.6470  136.0170 O   0  0  0  0  0  0  0  0  0  0  0  0
  190.8680  171.0090  137.6670 C   0  0  2  0  0  3  0  0  0  0  0  0
  191.3820  172.4320  137.3960 C   0  0  0  0  0  2  0  0  0  0  0  0
  190.1960  170.4090  136.4250 C   0  0  0  0  0  2  0  0  0  0  0  0
  190.2440  172.7720  135.4870 C   0  0  0  0  0  2  0  0  0  0  0  0
  1 21  1  0  0  0  0
  1 16  1  0  0  0  0
  1 19  1  1  0  0  0
  2 18  2  0  0  0  0
  3  2  1  0  0  0  0
  4 23  1  6  0  0  0
  4 13  1  0  0  0  0
  5  3  2  0  0  0  0
  7  6  1  1  0  0  0
  7 15  1  0  0  0  0
  7 16  1  0  0  0  0
  8 15  2  0  0  0  0
 10  8  1  0  0  0  0
 11 17  1  1  0  0  0
 11  6  1  0  0  0  0
 12  1  1  0  0  0  0
 13 11  1  0  0  0  0
 14  3  1  0  0  0  0
 16  9  1  1  0  0  0
 17 10  1  0  0  0  0
 18 12  2  0  0  0  0
 20  4  1  0  0  0  0
 20 14  1  0  0  0  0
 21 16  1  0  0  0  0
 21  9  1  1  0  0  0
 22 23  2  0  0  0  0
 23 24  1  0  0  0  0
 25 26  1  0  0  0  0
 25  5  1  0  0  0  0
 26 27  2  0  0  0  0
 28 26  1  0  0  0  0
 29 28  1  0  0  0  0
 30 34  1  0  0  0  0
 31 33  1  0  0  0  0
 32 29  1  1  0  0  0
 33 32  1  0  0  0  0
 34 32  1  0  0  0  0
 35 30  1  0  0  0  0
 35 31  1  0  0  0  0
M  END
>  <MODEL>
3

>  <REMARK>
 VINA RESULT:      -7.8      3.298      8.353
  Name = 
  6 active torsions:
  status: ('A' for Active; 'I' for Inactive)
    1  A    between atoms: C_5  and  C_28
    2  A    between atoms: C_6  and  C_19
    3  A    between atoms: C_6  and  C_20
    4  A    between atoms: N_7  and  C_20
    5  A    between atoms: O_9  and  C_16
    6  A    between atoms: O_9  and  C_19
                            x       y       z     vdW  Elec       q    Type
                         _______ _______ _______ _____ _____    ______ ____

>  <TORSDO>
F 6

$$$$
=
 OpenBabel11062421583D

 35 39  0  0  1  0  0  0  0  0999 V2000
  188.3110  175.2890  142.1210 C   0  0  2  0  0  0  0  0  0  0  0  0
  191.7870  174.5080  142.6880 C   0  0  0  0  0  3  0  0  0  0  0  0
  192.6330  175.5170  143.3440 C   0  0  0  0  0  0  0  0  0  0  0  0
  191.0060  176.7640  146.5310 C   0  0  2  0  0  3  0  0  0  0  0  0
  193.9120  175.4830  143.1290 N   0  0  0  0  0  0  0  0  0  0  0  0
  188.4480  177.7870  144.6060 C   0  0  0  0  0  2  0  0  0  0  0  0
  187.5340  176.6110  144.2120 C   0  0  1  0  0  3  0  0  0  0  0  0
  185.9140  176.8090  146.1130 C   0  0  0  0  0  3  0  0  0  0  0  0
  187.4110  177.6010  141.8260 C   0  0  0  0  0  2  0  0  0  0  0  0
  186.9810  176.6580  147.1530 C   0  0  0  0  0  2  0  0  0  0  0  0
  189.0220  177.6460  146.0160 C   0  0  2  0  0  3  0  0  0  0  0  0
  189.2000  174.4920  143.0240 C   0  0  0  0  0  3  0  0  0  0  0  0
  189.6970  176.4270  146.1670 O   0  0  0  0  0  0  0  0  0  0  0  0
  192.0230  176.5270  144.2730 C   0  0  0  0  0  2  0  0  0  0  0  0
  186.1620  176.7860  144.7980 C   0  0  0  0  0  3  0  0  0  0  0  0
  187.3880  176.3550  142.6930 C   0  0  2  0  0  0  0  0  0  0  0  0
  187.9630  177.8240  147.1060 C   0  0  0  0  0  2  0  0  0  0  0  0
  190.4920  174.4830  142.8520 C   0  0  0  0  0  0  0  0  0  0  0  0
  187.8490  174.6740  140.9560 O   0  0  0  0  0  1  0  0  0  0  0  0
  191.9890  175.9730  145.6850 C   0  0  0  0  0  2  0  0  0  0  0  0
  188.6630  176.7490  141.9390 C   0  0  1  0  0  3  0  0  0  0  0  0
  191.1960  175.2740  148.3970 O   0  0  0  0  0  0  0  0  0  0  0  0
  191.2350  176.4600  147.9760 C   0  0  0  0  0  0  0  0  0  0  0  0
  191.5290  177.4920  148.8570 O   0  0  0  0  0  1  0  0  0  0  0  0
  194.8570  176.4120  143.7340 C   0  0  0  0  0  2  0  0  0  0  0  0
  196.0960  175.6820  144.1280 C   0  0  0  0  0  0  0  0  0  0  0  0
  197.1190  175.8240  143.4790 O   0  0  0  0  0  0  0  0  0  0  0  0
  196.0760  174.7280  145.2780 C   0  0  0  0  0  2  0  0  0  0  0  0
  196.1080  173.4130  144.8080 O   0  0  0  0  0  0  0  0  0  0  0  0
  193.3850  171.7700  144.5410 C   0  0  0  0  0  2  0  0  0  0  0  0
  194.7940  170.3350  145.9300 O   0  0  0  0  0  0  0  0  0  0  0  0
  195.4220  172.6670  145.7680 C   0  0  2  0  0  3  0  0  0  0  0  0
  195.8770  171.2010  145.7010 C   0  0  0  0  0  2  0  0  0  0  0  0
  193.9100  172.7970  145.5480 C   0  0  0  0  0  2  0  0  0  0  0  0
  194.0060  170.3800  144.7640 C   0  0  0  0  0  2  0  0  0  0  0  0
  1 19  1  6  0  0  0
  1 16  1  0  0  0  0
  1 12  1  0  0  0  0
  2 18  2  0  0  0  0
  2  3  1  0  0  0  0
  3 14  1  0  0  0  0
  4 23  1  1  0  0  0
  5  3  2  0  0  0  0
  5 25  1  0  0  0  0
  7  6  1  6  0  0  0
  7 15  1  0  0  0  0
  8 10  1  0  0  0  0
 11  6  1  6  0  0  0
 11 13  1  0  0  0  0
 11 17  1  0  0  0  0
 13  4  1  0  0  0  0
 14 20  1  0  0  0  0
 15  8  2  0  0  0  0
 16  9  1  6  0  0  0
 16  7  1  0  0  0  0
 17 10  1  0  0  0  0
 18 12  2  0  0  0  0
 20  4  1  0  0  0  0
 21  9  1  6  0  0  0
 21  1  1  0  0  0  0
 21 16  1  0  0  0  0
 23 22  2  0  0  0  0
 23 24  1  0  0  0  0
 25 26  1  0  0  0  0
 26 28  1  0  0  0  0
 27 26  2  0  0  0  0
 29 28  1  0  0  0  0
 30 35  1  0  0  0  0
 30 34  1  0  0  0  0
 32 29  1  6  0  0  0
 33 32  1  0  0  0  0
 33 31  1  0  0  0  0
 34 32  1  0  0  0  0
 35 31  1  0  0  0  0
M  END
>  <MODEL>
4

>  <REMARK>
 VINA RESULT:      -7.8      2.435      8.244
  Name = 
  6 active torsions:
  status: ('A' for Active; 'I' for Inactive)
    1  A    between atoms: C_5  and  C_28
    2  A    between atoms: C_6  and  C_19
    3  A    between atoms: C_6  and  C_20
    4  A    between atoms: N_7  and  C_20
    5  A    between atoms: O_9  and  C_16
    6  A    between atoms: O_9  and  C_19
                            x       y       z     vdW  Elec       q    Type
                         _______ _______ _______ _____ _____    ______ ____

>  <TORSDO>
F 6

$$$$
=
 OpenBabel11062421583D

 35 39  0  0  1  0  0  0  0  0999 V2000
  190.0190  176.5030  145.9260 C   0  0  2  0  0  0  0  0  0  0  0  0
  190.2260  175.6820  142.4190 C   0  0  0  0  0  3  0  0  0  0  0  0
  189.0620  175.0540  141.7780 C   0  0  0  0  0  0  0  0  0  0  0  0
  185.9070  177.0220  142.5050 C   0  0  2  0  0  3  0  0  0  0  0  0
  189.2570  174.3310  140.7170 N   0  0  0  0  0  0  0  0  0  0  0  0
  186.4980  176.4140  145.7570 C   0  0  0  0  0  2  0  0  0  0  0  0
  187.5960  177.3410  146.3130 C   0  0  1  0  0  3  0  0  0  0  0  0
  186.0920  179.1650  147.1390 C   0  0  0  0  0  3  0  0  0  0  0  0
  188.5730  175.3060  147.5750 C   0  0  0  0  0  2  0  0  0  0  0  0
  185.4820  179.3940  145.7910 C   0  0  0  0  0  2  0  0  0  0  0  0
  185.6130  177.1000  144.7160 C   0  0  2  0  0  3  0  0  0  0  0  0
  189.9620  177.1340  144.5710 C   0  0  0  0  0  3  0  0  0  0  0  0
  186.3820  177.6330  143.6720 O   0  0  0  0  0  0  0  0  0  0  0  0
  187.6810  175.2890  142.3200 C   0  0  0  0  0  2  0  0  0  0  0  0
  187.0380  178.2480  147.3720 C   0  0  0  0  0  3  0  0  0  0  0  0
  188.8460  176.6310  146.8860 C   0  0  2  0  0  0  0  0  0  0  0  0
  184.7030  178.1680  145.3250 C   0  0  0  0  0  2  0  0  0  0  0  0
  190.1090  176.4170  143.4920 C   0  0  0  0  0  0  0  0  0  0  0  0
  191.2690  176.3870  146.5360 O   0  0  0  0  0  1  0  0  0  0  0  0
  187.0780  176.5240  141.6770 C   0  0  0  0  0  2  0  0  0  0  0  0
  189.1170  175.3100  146.1570 C   0  0  1  0  0  3  0  0  0  0  0  0
  185.5880  178.5170  140.6600 O   0  0  0  0  0  0  0  0  0  0  0  0
  185.1070  177.9960  141.7020 C   0  0  0  0  0  0  0  0  0  0  0  0
  183.8090  178.3020  142.0860 O   0  0  0  0  0  1  0  0  0  0  0  0
  188.1860  173.6740  139.9800 C   0  0  0  0  0  2  0  0  0  0  0  0
  188.1610  174.1780  138.5760 C   0  0  0  0  0  0  0  0  0  0  0  0
  187.5060  175.1680  138.2960 O   0  0  0  0  0  0  0  0  0  0  0  0
  188.8840  173.4390  137.4980 C   0  0  0  0  0  2  0  0  0  0  0  0
  190.2570  173.6850  137.5900 O   0  0  0  0  0  0  0  0  0  0  0  0
  190.6660  170.9210  139.1320 C   0  0  0  0  0  2  0  0  0  0  0  0
  190.0810  170.2360  136.8600 O   0  0  0  0  0  0  0  0  0  0  0  0
  190.8670  172.5060  137.1550 C   0  0  2  0  0  3  0  0  0  0  0  0
  189.8080  171.5770  136.5410 C   0  0  0  0  0  2  0  0  0  0  0  0
  191.5940  171.8330  138.3260 C   0  0  0  0  0  2  0  0  0  0  0  0
  189.7520  170.0840  138.2210 C   0  0  0  0  0  2  0  0  0  0  0  0
  1 21  1  0  0  0  0
  1 19  1  1  0  0  0
  1 16  1  0  0  0  0
  2 18  2  0  0  0  0
  3 14  1  0  0  0  0
  3  2  1  0  0  0  0
  4 23  1  6  0  0  0
  4 13  1  0  0  0  0
  5  3  2  0  0  0  0
  7  6  1  1  0  0  0
  7 16  1  0  0  0  0
  7 15  1  0  0  0  0
  8 15  2  0  0  0  0
 10  8  1  0  0  0  0
 11 17  1  1  0  0  0
 11  6  1  0  0  0  0
 12  1  1  0  0  0  0
 13 11  1  0  0  0  0
 16  9  1  1  0  0  0
 17 10  1  0  0  0  0
 18 12  2  0  0  0  0
 20 14  1  0  0  0  0
 20  4  1  0  0  0  0
 21 16  1  0  0  0  0
 21  9  1  1  0  0  0
 22 23  2  0  0  0  0
 23 24  1  0  0  0  0
 25  5  1  0  0  0  0
 26 25  1  0  0  0  0
 27 26  2  0  0  0  0
 28 29  1  0  0  0  0
 28 26  1  0  0  0  0
 31 35  1  0  0  0  0
 32 29  1  1  0  0  0
 32 34  1  0  0  0  0
 33 31  1  0  0  0  0
 33 32  1  0  0  0  0
 34 30  1  0  0  0  0
 35 30  1  0  0  0  0
M  END
>  <MODEL>
5

>  <REMARK>
 VINA RESULT:      -7.8      3.275      7.869
  Name = 
  6 active torsions:
  status: ('A' for Active; 'I' for Inactive)
    1  A    between atoms: C_5  and  C_28
    2  A    between atoms: C_6  and  C_19
    3  A    between atoms: C_6  and  C_20
    4  A    between atoms: N_7  and  C_20
    5  A    between atoms: O_9  and  C_16
    6  A    between atoms: O_9  and  C_19
                            x       y       z     vdW  Elec       q    Type
                         _______ _______ _______ _____ _____    ______ ____

>  <TORSDO>
F 6

$$$$
=
 OpenBabel11062421583D

 35 39  0  0  1  0  0  0  0  0999 V2000
  189.9490  176.5810  145.9340 C   0  0  2  0  0  0  0  0  0  0  0  0
  190.1450  175.8560  142.4060 C   0  0  0  0  0  3  0  0  0  0  0  0
  188.9930  175.2120  141.7590 C   0  0  0  0  0  0  0  0  0  0  0  0
  185.7900  177.0690  142.5650 C   0  0  2  0  0  3  0  0  0  0  0  0
  189.1980  174.5220  140.6780 N   0  0  0  0  0  0  0  0  0  0  0  0
  186.4300  176.3950  145.7950 C   0  0  0  0  0  2  0  0  0  0  0  0
  187.5060  177.3390  146.3640 C   0  0  1  0  0  3  0  0  0  0  0  0
  185.9590  179.0980  147.2510 C   0  0  0  0  0  3  0  0  0  0  0  0
  188.5530  175.3020  147.5650 C   0  0  0  0  0  2  0  0  0  0  0  0
  185.3290  179.3430  145.9140 C   0  0  0  0  0  2  0  0  0  0  0  0
  185.5160  177.0820  144.7800 C   0  0  2  0  0  3  0  0  0  0  0  0
  189.8600  177.2450  144.5960 C   0  0  0  0  0  3  0  0  0  0  0  0
  186.2590  177.6630  143.7430 O   0  0  0  0  0  0  0  0  0  0  0  0
  187.6120  175.3930  142.3190 C   0  0  0  0  0  2  0  0  0  0  0  0
  186.9330  178.2030  147.4510 C   0  0  0  0  0  3  0  0  0  0  0  0
  188.7810  176.6510  146.9080 C   0  0  2  0  0  0  0  0  0  0  0  0
  184.5810  178.1070  145.4240 C   0  0  0  0  0  2  0  0  0  0  0  0
  190.0170  176.5600  143.4980 C   0  0  0  0  0  0  0  0  0  0  0  0
  191.2070  176.4850  146.5300 O   0  0  0  0  0  1  0  0  0  0  0  0
  186.9680  176.6260  141.7140 C   0  0  0  0  0  2  0  0  0  0  0  0
  189.0830  175.3570  146.1430 C   0  0  1  0  0  3  0  0  0  0  0  0
  185.4360  178.6590  140.8080 O   0  0  0  0  0  0  0  0  0  0  0  0
  184.9550  178.0400  141.7940 C   0  0  0  0  0  0  0  0  0  0  0  0
  183.6270  178.2340  142.1450 O   0  0  0  0  0  1  0  0  0  0  0  0
  188.1390  173.8540  139.9340 C   0  0  0  0  0  2  0  0  0  0  0  0
  188.2120  174.2460  138.4970 C   0  0  0  0  0  0  0  0  0  0  0  0
  187.4620  175.1040  138.0610 O   0  0  0  0  0  0  0  0  0  0  0  0
  189.1570  173.5500  137.5730 C   0  0  0  0  0  2  0  0  0  0  0  0
  188.9530  173.9890  136.2620 O   0  0  0  0  0  0  0  0  0  0  0  0
  191.5540  175.7310  135.6460 C   0  0  0  0  0  2  0  0  0  0  0  0
  192.4520  173.5270  136.2020 O   0  0  0  0  0  0  0  0  0  0  0  0
  190.1160  173.6370  135.5750 C   0  0  2  0  0  3  0  0  0  0  0  0
  191.1610  173.1110  136.5720 C   0  0  0  0  0  2  0  0  0  0  0  0
  190.6450  174.8440  134.7910 C   0  0  0  0  0  2  0  0  0  0  0  0
  192.5200  174.9000  136.5070 C   0  0  0  0  0  2  0  0  0  0  0  0
  1 21  1  0  0  0  0
  1 19  1  1  0  0  0
  1 16  1  0  0  0  0
  2 18  2  0  0  0  0
  3 14  1  0  0  0  0
  3  2  1  0  0  0  0
  4 23  1  6  0  0  0
  4 13  1  0  0  0  0
  5  3  2  0  0  0  0
  7  6  1  1  0  0  0
  7 16  1  0  0  0  0
  7 15  1  0  0  0  0
  8 15  2  0  0  0  0
 10  8  1  0  0  0  0
 11 17  1  1  0  0  0
 11  6  1  0  0  0  0
 12  1  1  0  0  0  0
 13 11  1  0  0  0  0
 16  9  1  1  0  0  0
 17 10  1  0  0  0  0
 18 12  2  0  0  0  0
 20 14  1  0  0  0  0
 20  4  1  0  0  0  0
 21 16  1  0  0  0  0
 21  9  1  1  0  0  0
 22 23  2  0  0  0  0
 23 24  1  0  0  0  0
 25  5  1  0  0  0  0
 26 25  1  0  0  0  0
 27 26  2  0  0  0  0
 28 26  1  0  0  0  0
 29 28  1  0  0  0  0
 30 35  1  0  0  0  0
 31 35  1  0  0  0  0
 31 33  1  0  0  0  0
 32 29  1  1  0  0  0
 32 33  1  0  0  0  0
 34 32  1  0  0  0  0
 34 30  1  0  0  0  0
M  END
>  <MODEL>
6

>  <REMARK>
 VINA RESULT:      -7.6      3.757      8.044
  Name = 
  6 active torsions:
  status: ('A' for Active; 'I' for Inactive)
    1  A    between atoms: C_5  and  C_28
    2  A    between atoms: C_6  and  C_19
    3  A    between atoms: C_6  and  C_20
    4  A    between atoms: N_7  and  C_20
    5  A    between atoms: O_9  and  C_16
    6  A    between atoms: O_9  and  C_19
                            x       y       z     vdW  Elec       q    Type
                         _______ _______ _______ _____ _____    ______ ____

>  <TORSDO>
F 6

$$$$
=
 OpenBabel11062421583D

 35 39  0  0  1  0  0  0  0  0999 V2000
  192.2550  175.1240  146.8150 C   0  0  2  0  0  0  0  0  0  0  0  0
  189.3160  174.7380  144.7590 C   0  0  0  0  0  3  0  0  0  0  0  0
  189.2830  175.4120  143.4520 C   0  0  0  0  0  0  0  0  0  0  0  0
  192.4150  174.6390  141.4650 C   0  0  2  0  0  3  0  0  0  0  0  0
  188.1270  175.6960  142.9340 N   0  0  0  0  0  0  0  0  0  0  0  0
  194.1380  176.0520  143.9810 C   0  0  0  0  0  2  0  0  0  0  0  0
  194.2690  175.0940  145.1800 C   0  0  1  0  0  3  0  0  0  0  0  0
  196.4580  174.0630  144.5350 C   0  0  0  0  0  3  0  0  0  0  0  0
  193.7830  177.1000  146.7400 C   0  0  0  0  0  2  0  0  0  0  0  0
  195.9450  173.5910  143.2090 C   0  0  0  0  0  2  0  0  0  0  0  0
  194.1860  175.3270  142.6360 C   0  0  2  0  0  3  0  0  0  0  0  0
  191.5790  174.1410  145.9110 C   0  0  0  0  0  3  0  0  0  0  0  0
  193.2130  174.3200  142.5690 O   0  0  0  0  0  0  0  0  0  0  0  0
  190.5610  175.7170  142.7250 C   0  0  0  0  0  2  0  0  0  0  0  0
  195.7070  174.7330  145.4170 C   0  0  0  0  0  3  0  0  0  0  0  0
  193.6680  175.6030  146.5130 C   0  0  2  0  0  0  0  0  0  0  0  0
  195.5740  174.7690  142.3140 C   0  0  0  0  0  2  0  0  0  0  0  0
  190.4400  174.4270  145.3450 C   0  0  0  0  0  0  0  0  0  0  0  0
  191.9180  175.1000  148.1690 O   0  0  0  0  0  1  0  0  0  0  0  0
  190.9490  174.5410  141.8490 C   0  0  0  0  0  2  0  0  0  0  0  0
  192.4630  176.5180  146.2650 C   0  0  1  0  0  3  0  0  0  0  0  0
  193.0420  172.5120  140.5590 O   0  0  0  0  0  1  0  0  0  0  0  0
  192.6980  173.7020  140.3350 C   0  0  0  0  0  0  0  0  0  0  0  0
  192.5450  174.1380  139.0260 O   0  0  0  0  0  0  0  0  0  0  0  0
  187.9600  176.3430  141.6390 C   0  0  0  0  0  2  0  0  0  0  0  0
  187.7560  177.8070  141.8330 C   0  0  0  0  0  0  0  0  0  0  0  0
  188.6670  178.5850  141.6010 O   0  0  0  0  0  0  0  0  0  0  0  0
  186.4610  178.3230  142.3690 C   0  0  0  0  0  2  0  0  0  0  0  0
  186.5850  178.5980  143.7330 O   0  0  0  0  0  0  0  0  0  0  0  0
  186.1750  177.6630  146.7570 C   0  0  0  0  0  2  0  0  0  0  0  0
  184.0010  178.5940  146.1380 O   0  0  0  0  0  0  0  0  0  0  0  0
  185.4860  177.9750  144.3300 C   0  0  2  0  0  3  0  0  0  0  0  0
  184.5530  179.0410  144.9260 C   0  0  0  0  0  2  0  0  0  0  0  0
  185.9650  176.9860  145.4000 C   0  0  0  0  0  2  0  0  0  0  0  0
  185.0420  178.6500  147.0850 C   0  0  0  0  0  2  0  0  0  0  0  0
  1 19  1  1  0  0  0
  2 18  2  0  0  0  0
  3  2  1  0  0  0  0
  4 23  1  6  0  0  0
  4 20  1  0  0  0  0
  4 13  1  0  0  0  0
  5  3  2  0  0  0  0
  7  6  1  6  0  0  0
  7 15  1  0  0  0  0
  7 16  1  0  0  0  0
  8 15  2  0  0  0  0
 10  8  1  0  0  0  0
 11 17  1  1  0  0  0
 11  6  1  0  0  0  0
 12  1  1  0  0  0  0
 13 11  1  0  0  0  0
 14  3  1  0  0  0  0
 16  9  1  1  0  0  0
 16  1  1  0  0  0  0
 17 10  1  0  0  0  0
 18 12  2  0  0  0  0
 20 14  1  0  0  0  0
 21 16  1  0  0  0  0
 21  9  1  1  0  0  0
 21  1  1  0  0  0  0
 23 22  1  0  0  0  0
 24 23  2  0  0  0  0
 25 26  1  0  0  0  0
 25  5  1  0  0  0  0
 26 28  1  0  0  0  0
 27 26  2  0  0  0  0
 28 29  1  0  0  0  0
 30 35  1  0  0  0  0
 31 35  1  0  0  0  0
 32 29  1  1  0  0  0
 32 33  1  0  0  0  0
 32 34  1  0  0  0  0
 33 31  1  0  0  0  0
 34 30  1  0  0  0  0
M  END
>  <MODEL>
7

>  <REMARK>
 VINA RESULT:      -7.4      2.222      2.653
  Name = 
  6 active torsions:
  status: ('A' for Active; 'I' for Inactive)
    1  A    between atoms: C_5  and  C_28
    2  A    between atoms: C_6  and  C_19
    3  A    between atoms: C_6  and  C_20
    4  A    between atoms: N_7  and  C_20
    5  A    between atoms: O_9  and  C_16
    6  A    between atoms: O_9  and  C_19
                            x       y       z     vdW  Elec       q    Type
                         _______ _______ _______ _____ _____    ______ ____

>  <TORSDO>
F 6

$$$$
=
 OpenBabel11062421583D

 35 39  0  0  1  0  0  0  0  0999 V2000
  189.8940  176.8050  146.0300 C   0  0  2  0  0  0  0  0  0  0  0  0
  190.1260  176.1740  142.4860 C   0  0  0  0  0  3  0  0  0  0  0  0
  189.0140  175.4750  141.8250 C   0  0  0  0  0  0  0  0  0  0  0  0
  185.7050  177.1140  142.6770 C   0  0  2  0  0  3  0  0  0  0  0  0
  189.2580  174.8250  140.7290 N   0  0  0  0  0  0  0  0  0  0  0  0
  186.3930  176.4070  145.8900 C   0  0  0  0  0  2  0  0  0  0  0  0
  187.4110  177.4020  146.4800 C   0  0  1  0  0  3  0  0  0  0  0  0
  185.7610  179.0420  147.4080 C   0  0  0  0  0  3  0  0  0  0  0  0
  188.5840  175.4060  147.6320 C   0  0  0  0  0  2  0  0  0  0  0  0
  185.1150  179.2790  146.0780 C   0  0  0  0  0  2  0  0  0  0  0  0
  185.4370  177.0600  144.8920 C   0  0  2  0  0  3  0  0  0  0  0  0
  189.7620  177.4920  144.7070 C   0  0  0  0  0  3  0  0  0  0  0  0
  186.1400  177.7090  143.8680 O   0  0  0  0  0  0  0  0  0  0  0  0
  187.6250  175.5580  142.3910 C   0  0  0  0  0  2  0  0  0  0  0  0
  186.7890  178.2040  147.5870 C   0  0  0  0  0  3  0  0  0  0  0  0
  188.7270  176.7810  147.0060 C   0  0  2  0  0  0  0  0  0  0  0  0
  184.4430  178.0110  145.5610 C   0  0  0  0  0  2  0  0  0  0  0  0
  189.9580  176.8430  143.5940 C   0  0  0  0  0  0  0  0  0  0  0  0
  191.1580  176.7730  146.6220 O   0  0  0  0  0  1  0  0  0  0  0  0
  186.9050  176.7630  141.8150 C   0  0  0  0  0  2  0  0  0  0  0  0
  189.1060  175.5260  146.2110 C   0  0  1  0  0  3  0  0  0  0  0  0
  183.6530  178.3070  142.3540 O   0  0  0  0  0  1  0  0  0  0  0  0
  184.8100  178.0500  141.9300 C   0  0  0  0  0  0  0  0  0  0  0  0
  185.2740  178.6690  140.7770 O   0  0  0  0  0  0  0  0  0  0  0  0
  188.2400  174.1100  139.9710 C   0  0  0  0  0  2  0  0  0  0  0  0
  188.8910  173.2760  138.9190 C   0  0  0  0  0  0  0  0  0  0  0  0
  188.2060  172.6800  138.1040 O   0  0  0  0  0  0  0  0  0  0  0  0
  190.3760  173.1170  138.8960 C   0  0  0  0  0  2  0  0  0  0  0  0
  190.7210  171.8100  139.2470 O   0  0  0  0  0  0  0  0  0  0  0  0
  190.8140  169.6660  141.6100 C   0  0  0  0  0  2  0  0  0  0  0  0
  193.0320  170.6910  141.6700 O   0  0  0  0  0  0  0  0  0  0  0  0
  191.2870  171.9130  140.5190 C   0  0  2  0  0  3  0  0  0  0  0  0
  192.7290  171.3820  140.4840 C   0  0  0  0  0  2  0  0  0  0  0  0
  190.4310  171.1470  141.5350 C   0  0  0  0  0  2  0  0  0  0  0  0
  192.3390  169.4670  141.5960 C   0  0  0  0  0  2  0  0  0  0  0  0
  1 21  1  0  0  0  0
  1 19  1  1  0  0  0
  1 16  1  0  0  0  0
  2 18  2  0  0  0  0
  3 14  1  0  0  0  0
  3  2  1  0  0  0  0
  4 23  1  6  0  0  0
  4 13  1  0  0  0  0
  5  3  2  0  0  0  0
  7  6  1  1  0  0  0
  7 16  1  0  0  0  0
  7 15  1  0  0  0  0
  8 15  2  0  0  0  0
 10  8  1  0  0  0  0
 11 17  1  1  0  0  0
 11  6  1  0  0  0  0
 12  1  1  0  0  0  0
 13 11  1  0  0  0  0
 16  9  1  1  0  0  0
 17 10  1  0  0  0  0
 18 12  2  0  0  0  0
 20 14  1  0  0  0  0
 20  4  1  0  0  0  0
 21 16  1  0  0  0  0
 21  9  1  1  0  0  0
 23 22  1  0  0  0  0
 24 23  2  0  0  0  0
 25  5  1  0  0  0  0
 26 25  1  0  0  0  0
 27 26  2  0  0  0  0
 28 26  1  0  0  0  0
 28 29  1  0  0  0  0
 32 29  1  6  0  0  0
 32 34  1  0  0  0  0
 33 32  1  0  0  0  0
 33 31  1  0  0  0  0
 34 30  1  0  0  0  0
 35 30  1  0  0  0  0
 35 31  1  0  0  0  0
M  END
>  <MODEL>
8

>  <REMARK>
 VINA RESULT:      -7.3      2.958      7.649
  Name = 
  6 active torsions:
  status: ('A' for Active; 'I' for Inactive)
    1  A    between atoms: C_5  and  C_28
    2  A    between atoms: C_6  and  C_19
    3  A    between atoms: C_6  and  C_20
    4  A    between atoms: N_7  and  C_20
    5  A    between atoms: O_9  and  C_16
    6  A    between atoms: O_9  and  C_19
                            x       y       z     vdW  Elec       q    Type
                         _______ _______ _______ _____ _____    ______ ____

>  <TORSDO>
F 6

$$$$
=
 OpenBabel11062421583D

 35 39  0  0  1  0  0  0  0  0999 V2000
  188.4700  175.2400  142.0310 C   0  0  2  0  0  0  0  0  0  0  0  0
  191.9280  174.4750  142.7160 C   0  0  0  0  0  3  0  0  0  0  0  0
  192.7500  175.4920  143.3890 C   0  0  0  0  0  0  0  0  0  0  0  0
  191.0190  176.7650  146.5100 C   0  0  2  0  0  3  0  0  0  0  0  0
  194.0360  175.4600  143.2150 N   0  0  0  0  0  0  0  0  0  0  0  0
  188.5210  177.7620  144.4950 C   0  0  0  0  0  2  0  0  0  0  0  0
  187.6240  176.5800  144.0830 C   0  0  1  0  0  3  0  0  0  0  0  0
  185.9430  176.7910  145.9290 C   0  0  0  0  0  3  0  0  0  0  0  0
  187.5740  177.5460  141.6850 C   0  0  0  0  0  2  0  0  0  0  0  0
  186.9760  176.6530  147.0050 C   0  0  0  0  0  2  0  0  0  0  0  0
  189.0500  177.6360  145.9240 C   0  0  2  0  0  3  0  0  0  0  0  0
  189.3320  174.4550  142.9690 C   0  0  0  0  0  3  0  0  0  0  0  0
  189.7230  176.4210  146.1080 O   0  0  0  0  0  0  0  0  0  0  0  0
  192.1090  176.5090  144.2880 C   0  0  0  0  0  2  0  0  0  0  0  0
  186.2330  176.7560  144.6230 C   0  0  0  0  0  3  0  0  0  0  0  0
  187.5270  176.3090  142.5630 C   0  0  2  0  0  0  0  0  0  0  0  0
  187.9560  177.8220  146.9770 C   0  0  0  0  0  2  0  0  0  0  0  0
  190.6290  174.4480  142.8390 C   0  0  0  0  0  0  0  0  0  0  0  0
  188.0480  174.6130  140.8580 O   0  0  0  0  0  1  0  0  0  0  0  0
  192.0310  175.9690  145.7040 C   0  0  0  0  0  2  0  0  0  0  0  0
  188.8240  176.6990  141.8460 C   0  0  1  0  0  3  0  0  0  0  0  0
  191.1910  175.2900  148.3900 O   0  0  0  0  0  0  0  0  0  0  0  0
  191.2020  176.4760  147.9650 C   0  0  0  0  0  0  0  0  0  0  0  0
  191.4230  177.5220  148.8510 O   0  0  0  0  0  1  0  0  0  0  0  0
  194.9590  176.3970  143.8410 C   0  0  0  0  0  2  0  0  0  0  0  0
  196.2850  176.3250  143.1630 C   0  0  0  0  0  0  0  0  0  0  0  0
  197.1350  177.1680  143.3960 O   0  0  0  0  0  0  0  0  0  0  0  0
  196.5560  175.2600  142.1520 C   0  0  0  0  0  2  0  0  0  0  0  0
  196.6990  175.8300  140.8840 O   0  0  0  0  0  0  0  0  0  0  0  0
  194.0590  174.7770  139.4330 C   0  0  0  0  0  2  0  0  0  0  0  0
  195.7730  174.6280  137.6970 O   0  0  0  0  0  0  0  0  0  0  0  0
  196.5390  174.7710  139.9890 C   0  0  2  0  0  3  0  0  0  0  0  0
  196.6730  175.2900  138.5490 C   0  0  0  0  0  2  0  0  0  0  0  0
  195.1820  174.0940  140.2180 C   0  0  0  0  0  2  0  0  0  0  0  0
  194.4970  175.1400  138.0040 C   0  0  0  0  0  2  0  0  0  0  0  0
  1 19  1  6  0  0  0
  1 16  1  0  0  0  0
  1 12  1  0  0  0  0
  2 18  2  0  0  0  0
  2  3  1  0  0  0  0
  3 14  1  0  0  0  0
  4 23  1  1  0  0  0
  5  3  2  0  0  0  0
  5 25  1  0  0  0  0
  7  6  1  6  0  0  0
  7 15  1  0  0  0  0
  8 10  1  0  0  0  0
 11  6  1  6  0  0  0
 11 13  1  0  0  0  0
 11 17  1  0  0  0  0
 13  4  1  0  0  0  0
 14 20  1  0  0  0  0
 15  8  2  0  0  0  0
 16  9  1  6  0  0  0
 16  7  1  0  0  0  0
 17 10  1  0  0  0  0
 18 12  2  0  0  0  0
 20  4  1  0  0  0  0
 21  9  1  6  0  0  0
 21  1  1  0  0  0  0
 21 16  1  0  0  0  0
 23 22  2  0  0  0  0
 23 24  1  0  0  0  0
 26 27  2  0  0  0  0
 26 25  1  0  0  0  0
 28 26  1  0  0  0  0
 29 28  1  0  0  0  0
 30 34  1  0  0  0  0
 31 35  1  0  0  0  0
 31 33  1  0  0  0  0
 32 34  1  0  0  0  0
 32 29  1  1  0  0  0
 33 32  1  0  0  0  0
 35 30  1  0  0  0  0
M  END
>  <MODEL>
9

>  <REMARK>
 VINA RESULT:      -7.3      3.311      8.640
  Name = 
  6 active torsions:
  status: ('A' for Active; 'I' for Inactive)
    1  A    between atoms: C_5  and  C_28
    2  A    between atoms: C_6  and  C_19
    3  A    between atoms: C_6  and  C_20
    4  A    between atoms: N_7  and  C_20
    5  A    between atoms: O_9  and  C_16
    6  A    between atoms: O_9  and  C_19
                            x       y       z     vdW  Elec       q    Type
                         _______ _______ _______ _____ _____    ______ ____

>  <TORSDO>
F 6

$$$$
