=
 OpenBabel11062418173D

 49 55  0  0  1  0  0  0  0  0999 V2000
  190.4920  176.3570  142.9360 C   0  0  0  0  0  0  0  0  0  0  0  0
  191.4600  175.4020  142.6910 C   0  0  0  0  0  3  0  0  0  0  0  0
  192.5920  175.9990  143.2270 C   0  0  0  0  0  0  0  0  0  0  0  0
  192.2800  177.1670  143.7370 O   0  0  0  0  0  0  0  0  0  0  0  0
  191.0120  177.4130  143.5900 N   0  0  0  0  0  0  0  0  0  0  0  0
  189.0340  176.1640  142.6630 C   0  0  0  0  0  2  0  0  0  0  0  0
  188.2080  177.4080  143.0090 C   0  0  2  0  0  3  0  0  0  0  0  0
  185.6710  179.1660  143.9890 O   0  0  0  0  0  0  0  0  0  0  0  0
  185.4260  176.5910  145.6900 C   0  0  0  0  0  2  0  0  0  0  0  0
  186.4610  178.8220  145.1010 C   0  0  2  0  0  3  0  0  0  0  0  0
  184.9690  177.1790  147.0210 C   0  0  0  0  0  2  0  0  0  0  0  0
  184.6290  178.6440  146.8330 C   0  0  0  0  0  2  0  0  0  0  0  0
  186.7950  177.0740  143.5880 C   0  0  2  0  0  0  0  0  0  0  0  0
  186.3500  175.6760  143.1510 C   0  0  0  0  0  1  0  0  0  0  0  0
  185.7890  178.0990  143.0720 C   0  0  0  0  0  2  0  0  0  0  0  0
  186.6750  177.3080  145.1070 C   0  0  2  0  0  0  0  0  0  0  0  0
  185.8790  179.3950  146.3990 C   0  0  0  0  0  2  0  0  0  0  0  0
  187.9380  176.9730  145.9270 C   0  0  0  0  0  2  0  0  0  0  0  0
  187.6910  175.9650  147.0480 C   0  0  0  0  0  2  0  0  0  0  0  0
  188.7930  174.9160  147.1050 C   0  0  0  0  0  2  0  0  0  0  0  0
  190.0740  175.4210  146.4500 C   0  0  0  0  0  2  0  0  0  0  0  0
  192.4830  175.1240  146.7290 N   0  0  0  0  0  2  0  0  0  0  0  0
  192.9370  176.4640  147.0760 C   0  0  0  0  0  2  0  0  0  0  0  0
  191.6600  176.7960  147.8060 C   0  0  0  0  0  2  0  0  0  0  0  0
  191.2390  175.3930  147.4360 C   0  0  1  0  0  3  0  0  0  0  0  0
  188.1860  178.3720  141.8170 C   0  0  0  0  0  2  0  0  0  0  0  0
  187.8050  177.7140  140.6430 O   0  0  0  0  0  1  0  0  0  0  0  0
  193.9730  175.4140  143.2770 C   0  0  1  0  0  3  0  0  0  0  0  0
  196.1080  175.5890  144.4590 C   0  0  0  0  0  2  0  0  0  0  0  0
  196.2280  176.3590  143.2120 N   0  0  0  0  0  2  0  0  0  0  0  0
  194.9640  176.3510  143.9660 C   0  0  1  0  0  3  0  0  0  0  0  0
  194.0000  174.0050  143.8700 C   0  0  0  0  0  2  0  0  0  0  0  0
  194.0440  172.9240  142.7930 C   0  0  0  0  0  2  0  0  0  0  0  0
  195.4210  170.0650  144.9290 C   0  0  1  0  0  3  0  0  0  0  0  0
  195.4840  171.0260  143.7410 C   0  0  0  0  0  2  0  0  0  0  0  0
  194.1180  171.5650  143.4180 C   0  0  0  0  0  0  0  0  0  0  0  0
  193.0170  170.8520  143.7410 C   0  0  0  0  0  0  0  0  0  0  0  0
  193.1820  169.6300  144.4810 N   0  0  0  0  0  2  0  0  0  0  0  0
  194.4410  169.0220  144.6450 N   0  0  0  0  0  2  0  0  0  0  0  0
  191.0550  171.1310  142.1900 C   0  0  0  0  0  0  0  0  0  0  0  0
  189.6570  172.5290  144.1830 C   0  0  0  0  0  3  0  0  0  0  0  0
  189.7700  171.6420  141.9380 C   0  0  0  0  0  3  0  0  0  0  0  0
  189.0760  172.3350  142.9290 C   0  0  0  0  0  3  0  0  0  0  0  0
  191.6420  171.3230  143.4590 C   0  0  0  0  0  0  0  0  0  0  0  0
  190.9330  172.0290  144.4430 C   0  0  0  0  0  3  0  0  0  0  0  0
  192.0990  170.9900  139.9480 C   0  0  0  0  0  1  0  0  0  0  0  0
  191.7500  170.4230  141.2030 O   0  0  0  0  0  0  0  0  0  0  0  0
  197.7420  170.0250  144.3470 O   0  0  0  0  0  1  0  0  0  0  0  0
  196.7800  169.4300  145.1660 C   0  0  0  0  0  2  0  0  0  0  0  0
  1  5  2  0  0  0  0
  2  1  1  0  0  0  0
  2  3  2  0  0  0  0
  3 28  1  0  0  0  0
  3  4  1  0  0  0  0
  5  4  1  0  0  0  0
  6  1  1  0  0  0  0
  6  7  1  0  0  0  0
  7 26  1  6  0  0  0
  7 13  1  0  0  0  0
  8 10  1  0  0  0  0
  9 11  1  0  0  0  0
 10 16  1  0  0  0  0
 10 17  1  1  0  0  0
 12 11  1  0  0  0  0
 13 14  1  6  0  0  0
 13 16  1  0  0  0  0
 15 13  1  0  0  0  0
 15  8  1  0  0  0  0
 16  9  1  0  0  0  0
 16 18  1  1  0  0  0
 17 12  1  0  0  0  0
 18 19  1  0  0  0  0
 19 20  1  0  0  0  0
 21 20  1  0  0  0  0
 22 23  1  0  0  0  0
 22 25  1  0  0  0  0
 23 24  1  0  0  0  0
 25 21  1  6  0  0  0
 25 24  1  0  0  0  0
 27 26  1  0  0  0  0
 28 32  1  1  0  0  0
 30 31  1  0  0  0  0
 30 29  1  0  0  0  0
 31 28  1  6  0  0  0
 31 29  1  0  0  0  0
 33 36  1  0  0  0  0
 33 32  1  0  0  0  0
 34 49  1  6  0  0  0
 35 34  1  0  0  0  0
 36 37  2  0  0  0  0
 36 35  1  0  0  0  0
 37 38  1  0  0  0  0
 38 39  1  0  0  0  0
 39 34  1  0  0  0  0
 40 44  1  0  0  0  0
 41 45  1  0  0  0  0
 42 40  2  0  0  0  0
 42 43  1  0  0  0  0
 43 41  2  0  0  0  0
 44 37  1  0  0  0  0
 44 45  2  0  0  0  0
 46 47  1  0  0  0  0
 47 40  1  0  0  0  0
 48 49  1  0  0  0  0
M  END
>  <MODEL>
1

>  <REMARK>
 VINA RESULT:      -6.8      0.000      0.000
  Name = 
  17 active torsions:
  status: ('A' for Active; 'I' for Inactive)
    1  A    between atoms: C_3  and  C_20
    2  A    between atoms: C_3  and  C_43
    3  A    between atoms: C_4  and  C_31
    4  A    between atoms: C_5  and  C_23
    5  A    between atoms: C_9  and  C_19
    6  A    between atoms: C_9  and  C_37
    7  A    between atoms: C_11  and  C_20
    8  A    between atoms: C_11  and  C_35
    9  A    between atoms: C_14  and  O_44
   10  A    between atoms: C_21  and  C_25
   11  A    between atoms: C_21  and  C_37
   12  A    between atoms: C_21  and  C_40
   13  A    between atoms: C_22  and  C_34
   14  A    between atoms: C_23  and  C_45
   15  A    between atoms: C_30  and  C_45
   16  A    between atoms: C_35  and  C_47
   17  A    between atoms: C_36  and  C_45
                            x       y       z     vdW  Elec       q    Type
                         _______ _______ _______ _____ _____    ______ ____

>  <TORSDO>
F 17

$$$$
=
 OpenBabel11062418173D

 49 55  0  0  1  0  0  0  0  0999 V2000
  190.9420  173.9230  144.3180 C   0  0  0  0  0  0  0  0  0  0  0  0
  192.1940  173.4760  144.6960 C   0  0  0  0  0  3  0  0  0  0  0  0
  192.1680  172.1570  144.2650 C   0  0  0  0  0  0  0  0  0  0  0  0
  191.0190  171.9000  143.6880 O   0  0  0  0  0  0  0  0  0  0  0  0
  190.2540  172.9510  143.6910 N   0  0  0  0  0  0  0  0  0  0  0  0
  190.4860  175.3410  144.4400 C   0  0  0  0  0  2  0  0  0  0  0  0
  189.2610  175.4810  145.3520 C   0  0  2  0  0  3  0  0  0  0  0  0
  187.1620  177.0450  147.2600 O   0  0  0  0  0  0  0  0  0  0  0  0
  186.8600  178.5130  144.5500 C   0  0  0  0  0  2  0  0  0  0  0  0
  186.4920  176.5640  146.1200 C   0  0  2  0  0  3  0  0  0  0  0  0
  185.3540  178.7520  144.5300 C   0  0  0  0  0  2  0  0  0  0  0  0
  184.7700  178.3990  145.8840 C   0  0  0  0  0  2  0  0  0  0  0  0
  188.6820  176.9330  145.3940 C   0  0  2  0  0  0  0  0  0  0  0  0
  189.6450  177.9180  144.7260 C   0  0  0  0  0  1  0  0  0  0  0  0
  188.4790  177.3470  146.8490 C   0  0  0  0  0  2  0  0  0  0  0  0
  187.2350  177.0390  144.8710 C   0  0  2  0  0  0  0  0  0  0  0  0
  185.0010  176.9200  146.1560 C   0  0  0  0  0  2  0  0  0  0  0  0
  186.8930  176.1110  143.6870 C   0  0  0  0  0  2  0  0  0  0  0  0
  186.9330  176.8100  142.3290 C   0  0  0  0  0  2  0  0  0  0  0  0
  188.0540  176.2640  141.4560 C   0  0  0  0  0  2  0  0  0  0  0  0
  188.1690  174.7490  141.5830 C   0  0  0  0  0  2  0  0  0  0  0  0
  188.9430  172.7150  140.4730 N   0  0  0  0  0  2  0  0  0  0  0  0
  188.2550  172.7640  139.1900 C   0  0  0  0  0  2  0  0  0  0  0  0
  188.2950  174.2710  139.1340 C   0  0  0  0  0  2  0  0  0  0  0  0
  189.0190  174.1680  140.4560 C   0  0  1  0  0  3  0  0  0  0  0  0
  189.5630  174.8860  146.7330 C   0  0  0  0  0  2  0  0  0  0  0  0
  190.7860  175.3520  147.2260 O   0  0  0  0  0  1  0  0  0  0  0  0
  193.2800  171.1570  144.3800 C   0  0  1  0  0  3  0  0  0  0  0  0
  193.9780  168.8980  143.7490 C   0  0  0  0  0  2  0  0  0  0  0  0
  193.2830  168.8020  145.0410 N   0  0  0  0  0  2  0  0  0  0  0  0
  192.8200  169.7470  144.0130 C   0  0  1  0  0  3  0  0  0  0  0  0
  194.5370  171.5730  143.6140 C   0  0  0  0  0  2  0  0  0  0  0  0
  194.2490  172.6490  142.5700 C   0  0  0  0  0  2  0  0  0  0  0  0
  197.0480  173.4760  140.0970 C   0  0  1  0  0  3  0  0  0  0  0  0
  196.2430  172.5070  140.9650 C   0  0  0  0  0  2  0  0  0  0  0  0
  195.5260  173.2420  142.0630 C   0  0  1  0  0  3  0  0  0  0  0  0
  196.0110  174.4190  142.5150 C   0  0  0  0  0  0  0  0  0  0  0  0
  197.1570  174.9890  141.8590 N   0  0  0  0  0  0  0  0  0  0  0  0
  197.9410  174.2490  140.9530 N   0  0  0  0  0  2  0  0  0  0  0  0
  195.7700  175.0790  144.9320 C   0  0  0  0  0  0  0  0  0  0  0  0
  193.5960  176.7300  144.2820 C   0  0  0  0  0  3  0  0  0  0  0  0
  195.0880  175.7900  145.9340 C   0  0  0  0  0  3  0  0  0  0  0  0
  194.0090  176.6110  145.6090 C   0  0  0  0  0  3  0  0  0  0  0  0
  195.3560  175.2010  143.5880 C   0  0  0  0  0  0  0  0  0  0  0  0
  194.2630  176.0250  143.2790 C   0  0  0  0  0  3  0  0  0  0  0  0
  196.7830  173.2000  146.1900 C   0  0  0  0  0  1  0  0  0  0  0  0
  196.8630  174.2630  145.2510 O   0  0  0  0  0  0  0  0  0  0  0  0
  197.2960  171.4590  138.8330 O   0  0  0  0  0  1  0  0  0  0  0  0
  197.8670  172.7110  139.0730 C   0  0  0  0  0  2  0  0  0  0  0  0
  1  6  1  0  0  0  0
  1  2  1  0  0  0  0
  3 28  1  0  0  0  0
  3  2  2  0  0  0  0
  4  5  1  0  0  0  0
  4  3  1  0  0  0  0
  5  1  2  0  0  0  0
  7  6  1  6  0  0  0
  7 13  1  0  0  0  0
  7 26  1  0  0  0  0
  9 16  1  0  0  0  0
 10 17  1  6  0  0  0
 10  8  1  0  0  0  0
 11  9  1  0  0  0  0
 11 12  1  0  0  0  0
 12 17  1  0  0  0  0
 13 14  1  6  0  0  0
 13 15  1  0  0  0  0
 15  8  1  0  0  0  0
 16 18  1  6  0  0  0
 16 13  1  0  0  0  0
 16 10  1  0  0  0  0
 19 18  1  0  0  0  0
 20 21  1  0  0  0  0
 20 19  1  0  0  0  0
 23 22  1  0  0  0  0
 24 23  1  0  0  0  0
 24 25  1  0  0  0  0
 25 22  1  0  0  0  0
 25 21  1  1  0  0  0
 26 27  1  0  0  0  0
 28 32  1  6  0  0  0
 29 31  1  0  0  0  0
 29 30  1  0  0  0  0
 31 28  1  1  0  0  0
 31 30  1  0  0  0  0
 33 32  1  0  0  0  0
 34 49  1  6  0  0  0
 34 39  1  0  0  0  0
 34 35  1  0  0  0  0
 35 36  1  0  0  0  0
 36 37  1  0  0  0  0
 36 33  1  6  0  0  0
 37 44  1  0  0  0  0
 38 37  2  0  0  0  0
 39 38  1  0  0  0  0
 40 47  1  0  0  0  0
 40 42  1  0  0  0  0
 41 43  1  0  0  0  0
 43 42  2  0  0  0  0
 44 40  2  0  0  0  0
 45 44  1  0  0  0  0
 45 41  2  0  0  0  0
 47 46  1  0  0  0  0
 48 49  1  0  0  0  0
M  END
>  <MODEL>
2

>  <REMARK>
 VINA RESULT:      -6.3      2.599      5.557
  Name = 
  17 active torsions:
  status: ('A' for Active; 'I' for Inactive)
    1  A    between atoms: C_3  and  C_20
    2  A    between atoms: C_3  and  C_43
    3  A    between atoms: C_4  and  C_31
    4  A    between atoms: C_5  and  C_23
    5  A    between atoms: C_9  and  C_19
    6  A    between atoms: C_9  and  C_37
    7  A    between atoms: C_11  and  C_20
    8  A    between atoms: C_11  and  C_35
    9  A    between atoms: C_14  and  O_44
   10  A    between atoms: C_21  and  C_25
   11  A    between atoms: C_21  and  C_37
   12  A    between atoms: C_21  and  C_40
   13  A    between atoms: C_22  and  C_34
   14  A    between atoms: C_23  and  C_45
   15  A    between atoms: C_30  and  C_45
   16  A    between atoms: C_35  and  C_47
   17  A    between atoms: C_36  and  C_45
                            x       y       z     vdW  Elec       q    Type
                         _______ _______ _______ _____ _____    ______ ____

>  <TORSDO>
F 17

$$$$
=
 OpenBabel11062418173D

 49 55  0  0  1  0  0  0  0  0999 V2000
  194.1250  175.7380  143.7450 C   0  0  0  0  0  0  0  0  0  0  0  0
  193.2940  175.6110  144.8410 C   0  0  0  0  0  3  0  0  0  0  0  0
  192.0440  175.8160  144.2760 C   0  0  0  0  0  0  0  0  0  0  0  0
  192.1660  176.0200  142.9870 O   0  0  0  0  0  0  0  0  0  0  0  0
  193.4130  175.9680  142.6250 N   0  0  0  0  0  0  0  0  0  0  0  0
  195.5990  175.4840  143.7750 C   0  0  0  0  0  2  0  0  0  0  0  0
  195.9580  174.0850  143.2590 C   0  0  2  0  0  3  0  0  0  0  0  0
  197.5480  171.2650  143.1660 O   0  0  0  0  0  0  0  0  0  0  0  0
  196.4950  171.3690  146.0760 C   0  0  0  0  0  2  0  0  0  0  0  0
  196.2220  171.0430  143.5830 C   0  0  2  0  0  3  0  0  0  0  0  0
  196.1140  169.9080  146.2870 C   0  0  0  0  0  2  0  0  0  0  0  0
  196.6280  169.0820  145.1240 C   0  0  0  0  0  2  0  0  0  0  0  0
  196.7060  173.2080  144.3150 C   0  0  2  0  0  0  0  0  0  0  0  0
  197.1980  174.0700  145.4810 C   0  0  0  0  0  1  0  0  0  0  0  0
  197.9070  172.5430  143.6480 C   0  0  0  0  0  2  0  0  0  0  0  0
  195.9130  171.9650  144.7630 C   0  0  2  0  0  0  0  0  0  0  0  0
  195.9600  169.5550  143.8420 C   0  0  0  0  0  2  0  0  0  0  0  0
  194.3870  172.1610  144.8740 C   0  0  0  0  0  2  0  0  0  0  0  0
  193.6000  171.4910  143.7480 C   0  0  0  0  0  2  0  0  0  0  0  0
  192.4260  172.3510  143.3030 C   0  0  0  0  0  2  0  0  0  0  0  0
  192.3740  172.4780  141.7840 C   0  0  0  0  0  2  0  0  0  0  0  0
  191.5210  170.5690  140.5210 N   0  0  0  0  0  2  0  0  0  0  0  0
  190.8160  169.7980  141.5360 C   0  0  0  0  0  2  0  0  0  0  0  0
  190.4060  171.0290  142.3040 C   0  0  0  0  0  2  0  0  0  0  0  0
  191.1360  171.7860  141.2190 C   0  0  1  0  0  3  0  0  0  0  0  0
  196.6760  174.1910  141.9080 C   0  0  0  0  0  2  0  0  0  0  0  0
  196.2120  175.2890  141.1760 O   0  0  0  0  0  1  0  0  0  0  0  0
  190.7230  175.7730  144.9880 C   0  0  1  0  0  3  0  0  0  0  0  0
  189.4420  174.7960  146.8300 C   0  0  0  0  0  2  0  0  0  0  0  0
  189.6990  173.7270  145.8530 N   0  0  0  0  0  2  0  0  0  0  0  0
  190.7200  174.7520  146.1240 C   0  0  1  0  0  3  0  0  0  0  0  0
  190.2510  177.1520  145.4490 C   0  0  0  0  0  2  0  0  0  0  0  0
  189.2700  177.7880  144.4660 C   0  0  0  0  0  2  0  0  0  0  0  0
  185.8130  178.2340  146.0410 C   0  0  1  0  0  3  0  0  0  0  0  0
  187.3280  178.0440  146.1200 C   0  0  0  0  0  2  0  0  0  0  0  0
  187.8610  177.4550  144.8430 C   0  0  1  0  0  3  0  0  0  0  0  0
  187.0560  176.7040  144.0600 C   0  0  0  0  0  0  0  0  0  0  0  0
  185.6710  176.5700  144.4240 N   0  0  0  0  0  0  0  0  0  0  0  0
  185.1930  176.9620  145.6890 N   0  0  0  0  0  2  0  0  0  0  0  0
  187.2350  176.7190  141.5490 C   0  0  0  0  0  0  0  0  0  0  0  0
  188.5530  174.2420  141.6120 C   0  0  0  0  0  3  0  0  0  0  0  0
  187.6280  176.0880  140.3570 C   0  0  0  0  0  3  0  0  0  0  0  0
  188.2840  174.8570  140.3890 C   0  0  0  0  0  3  0  0  0  0  0  0
  187.5100  176.0980  142.7870 C   0  0  0  0  0  0  0  0  0  0  0  0
  188.1650  174.8580  142.8020 C   0  0  0  0  0  3  0  0  0  0  0  0
  185.4110  178.2000  140.7630 C   0  0  0  0  0  1  0  0  0  0  0  0
  186.5870  177.9590  141.5230 O   0  0  0  0  0  0  0  0  0  0  0  0
  186.1060  179.6860  147.9200 O   0  0  0  0  0  1  0  0  0  0  0  0
  185.2700  178.7090  147.3770 C   0  0  0  0  0  2  0  0  0  0  0  0
  1  6  1  0  0  0  0
  1  2  1  0  0  0  0
  3  2  2  0  0  0  0
  3 28  1  0  0  0  0
  4  3  1  0  0  0  0
  5  4  1  0  0  0  0
  5  1  2  0  0  0  0
  7 26  1  6  0  0  0
  7  6  1  0  0  0  0
  7 13  1  0  0  0  0
  8 10  1  0  0  0  0
  8 15  1  0  0  0  0
  9 11  1  0  0  0  0
 10 17  1  1  0  0  0
 10 16  1  0  0  0  0
 12 11  1  0  0  0  0
 13 16  1  0  0  0  0
 13 14  1  1  0  0  0
 15 13  1  0  0  0  0
 16 18  1  1  0  0  0
 16  9  1  0  0  0  0
 17 12  1  0  0  0  0
 19 18  1  0  0  0  0
 20 19  1  0  0  0  0
 21 20  1  0  0  0  0
 22 25  1  0  0  0  0
 22 23  1  0  0  0  0
 23 24  1  0  0  0  0
 25 21  1  1  0  0  0
 25 24  1  0  0  0  0
 27 26  1  0  0  0  0
 28 32  1  1  0  0  0
 30 31  1  0  0  0  0
 30 29  1  0  0  0  0
 31 28  1  6  0  0  0
 31 29  1  0  0  0  0
 33 32  1  0  0  0  0
 34 35  1  0  0  0  0
 34 49  1  1  0  0  0
 36 33  1  6  0  0  0
 36 35  1  0  0  0  0
 37 38  2  0  0  0  0
 37 36  1  0  0  0  0
 38 39  1  0  0  0  0
 39 34  1  0  0  0  0
 40 44  1  0  0  0  0
 41 45  1  0  0  0  0
 42 43  1  0  0  0  0
 42 40  2  0  0  0  0
 43 41  2  0  0  0  0
 44 45  2  0  0  0  0
 44 37  1  0  0  0  0
 46 47  1  0  0  0  0
 47 40  1  0  0  0  0
 49 48  1  0  0  0  0
M  END
>  <MODEL>
3

>  <REMARK>
 VINA RESULT:      -6.2      2.327      9.197
  Name = 
  17 active torsions:
  status: ('A' for Active; 'I' for Inactive)
    1  A    between atoms: C_3  and  C_20
    2  A    between atoms: C_3  and  C_43
    3  A    between atoms: C_4  and  C_31
    4  A    between atoms: C_5  and  C_23
    5  A    between atoms: C_9  and  C_19
    6  A    between atoms: C_9  and  C_37
    7  A    between atoms: C_11  and  C_20
    8  A    between atoms: C_11  and  C_35
    9  A    between atoms: C_14  and  O_44
   10  A    between atoms: C_21  and  C_25
   11  A    between atoms: C_21  and  C_37
   12  A    between atoms: C_21  and  C_40
   13  A    between atoms: C_22  and  C_34
   14  A    between atoms: C_23  and  C_45
   15  A    between atoms: C_30  and  C_45
   16  A    between atoms: C_35  and  C_47
   17  A    between atoms: C_36  and  C_45
                            x       y       z     vdW  Elec       q    Type
                         _______ _______ _______ _____ _____    ______ ____

>  <TORSDO>
F 17

$$$$
=
 OpenBabel11062418173D

 49 55  0  0  1  0  0  0  0  0999 V2000
  191.6640  174.1450  144.7010 C   0  0  0  0  0  0  0  0  0  0  0  0
  191.4000  174.3570  143.3610 C   0  0  0  0  0  3  0  0  0  0  0  0
  190.0530  174.0370  143.2810 C   0  0  0  0  0  0  0  0  0  0  0  0
  189.6050  173.6960  144.4660 O   0  0  0  0  0  0  0  0  0  0  0  0
  190.5510  173.7610  145.3550 N   0  0  0  0  0  0  0  0  0  0  0  0
  192.9670  174.4640  145.3610 C   0  0  0  0  0  2  0  0  0  0  0  0
  193.8020  175.4600  144.5470 C   0  0  2  0  0  3  0  0  0  0  0  0
  196.3630  176.6270  142.9450 O   0  0  0  0  0  0  0  0  0  0  0  0
  197.0690  173.6320  143.2900 C   0  0  0  0  0  2  0  0  0  0  0  0
  195.8100  175.5510  142.2270 C   0  0  2  0  0  3  0  0  0  0  0  0
  197.7230  173.3430  141.9420 C   0  0  0  0  0  2  0  0  0  0  0  0
  197.9330  174.6460  141.1960 C   0  0  0  0  0  2  0  0  0  0  0  0
  195.3140  175.0740  144.4590 C   0  0  2  0  0  0  0  0  0  0  0  0
  195.7580  174.3340  145.7240 C   0  0  0  0  0  1  0  0  0  0  0  0
  196.1450  176.3460  144.3110 C   0  0  0  0  0  2  0  0  0  0  0  0
  195.6930  174.3420  143.1560 C   0  0  2  0  0  0  0  0  0  0  0  0
  196.5820  175.2910  140.9270 C   0  0  0  0  0  2  0  0  0  0  0  0
  194.6230  173.3760  142.6080 C   0  0  0  0  0  2  0  0  0  0  0  0
  194.7480  171.9520  143.1490 C   0  0  0  0  0  2  0  0  0  0  0  0
  193.4050  171.2350  143.1420 C   0  0  0  0  0  2  0  0  0  0  0  0
  192.6900  171.4090  141.8050 C   0  0  0  0  0  2  0  0  0  0  0  0
  192.2700  169.3080  140.6330 N   0  0  0  0  0  2  0  0  0  0  0  0
  192.0070  169.7450  139.2680 C   0  0  0  0  0  2  0  0  0  0  0  0
  192.9570  170.9120  139.3720 C   0  0  0  0  0  2  0  0  0  0  0  0
  193.2090  170.4100  140.7740 C   0  0  1  0  0  3  0  0  0  0  0  0
  193.5460  176.8890  145.0420 C   0  0  0  0  0  2  0  0  0  0  0  0
  193.4570  176.9300  146.4380 O   0  0  0  0  0  1  0  0  0  0  0  0
  189.1900  174.1020  142.0560 C   0  0  1  0  0  3  0  0  0  0  0  0
  188.1890  172.8170  140.2290 C   0  0  0  0  0  2  0  0  0  0  0  0
  189.6060  172.4330  140.3170 N   0  0  0  0  0  2  0  0  0  0  0  0
  188.8310  172.7110  141.5360 C   0  0  1  0  0  3  0  0  0  0  0  0
  187.9560  174.9850  142.2430 C   0  0  0  0  0  2  0  0  0  0  0  0
  188.1120  176.3490  141.5760 C   0  0  0  0  0  2  0  0  0  0  0  0
  184.6210  177.9080  141.6940 C   0  0  1  0  0  3  0  0  0  0  0  0
  185.9470  177.5950  140.9990 C   0  0  0  0  0  2  0  0  0  0  0  0
  187.0150  177.2720  142.0070 C   0  0  0  0  0  0  0  0  0  0  0  0
  186.9310  177.7660  143.2610 C   0  0  0  0  0  0  0  0  0  0  0  0
  185.7590  178.5150  143.6290 N   0  0  0  0  0  2  0  0  0  0  0  0
  184.8360  178.9720  142.6690 N   0  0  0  0  0  2  0  0  0  0  0  0
  187.5790  176.8570  145.5160 C   0  0  0  0  0  0  0  0  0  0  0  0
  190.2250  177.7040  145.1160 C   0  0  0  0  0  3  0  0  0  0  0  0
  188.5520  176.6580  146.5110 C   0  0  0  0  0  3  0  0  0  0  0  0
  189.8660  177.0790  146.3110 C   0  0  0  0  0  3  0  0  0  0  0  0
  187.9420  177.4860  144.3060 C   0  0  0  0  0  0  0  0  0  0  0  0
  189.2670  177.9100  144.1230 C   0  0  0  0  0  3  0  0  0  0  0  0
  185.4450  176.8880  146.7730 C   0  0  0  0  0  1  0  0  0  0  0  0
  186.2610  176.4250  145.7070 O   0  0  0  0  0  0  0  0  0  0  0  0
  182.3030  178.2690  141.2240 O   0  0  0  0  0  1  0  0  0  0  0  0
  183.5850  178.3560  140.6780 C   0  0  0  0  0  2  0  0  0  0  0  0
  1  5  2  0  0  0  0
  1  6  1  0  0  0  0
  2  1  1  0  0  0  0
  3  2  2  0  0  0  0
  3  4  1  0  0  0  0
  4  5  1  0  0  0  0
  7 26  1  1  0  0  0
  7  6  1  0  0  0  0
  8 15  1  0  0  0  0
 10 17  1  6  0  0  0
 10  8  1  0  0  0  0
 10 16  1  0  0  0  0
 11  9  1  0  0  0  0
 12 11  1  0  0  0  0
 13  7  1  0  0  0  0
 13 14  1  1  0  0  0
 15 13  1  0  0  0  0
 16 18  1  6  0  0  0
 16  9  1  0  0  0  0
 16 13  1  0  0  0  0
 17 12  1  0  0  0  0
 18 19  1  0  0  0  0
 20 19  1  0  0  0  0
 21 20  1  0  0  0  0
 22 25  1  0  0  0  0
 23 24  1  0  0  0  0
 23 22  1  0  0  0  0
 24 25  1  0  0  0  0
 25 21  1  1  0  0  0
 26 27  1  0  0  0  0
 28 32  1  1  0  0  0
 28  3  1  0  0  0  0
 29 30  1  0  0  0  0
 29 31  1  0  0  0  0
 30 31  1  0  0  0  0
 31 28  1  6  0  0  0
 33 36  1  0  0  0  0
 33 32  1  0  0  0  0
 34 49  1  6  0  0  0
 34 39  1  0  0  0  0
 35 34  1  0  0  0  0
 35 36  1  0  0  0  0
 36 37  2  0  0  0  0
 37 38  1  0  0  0  0
 37 44  1  0  0  0  0
 39 38  1  0  0  0  0
 40 47  1  0  0  0  0
 40 42  1  0  0  0  0
 41 43  1  0  0  0  0
 43 42  2  0  0  0  0
 44 40  2  0  0  0  0
 45 44  1  0  0  0  0
 45 41  2  0  0  0  0
 47 46  1  0  0  0  0
 49 48  1  0  0  0  0
M  END
>  <MODEL>
4

>  <REMARK>
 VINA RESULT:      -6.2      2.673      9.470
  Name = 
  17 active torsions:
  status: ('A' for Active; 'I' for Inactive)
    1  A    between atoms: C_3  and  C_20
    2  A    between atoms: C_3  and  C_43
    3  A    between atoms: C_4  and  C_31
    4  A    between atoms: C_5  and  C_23
    5  A    between atoms: C_9  and  C_19
    6  A    between atoms: C_9  and  C_37
    7  A    between atoms: C_11  and  C_20
    8  A    between atoms: C_11  and  C_35
    9  A    between atoms: C_14  and  O_44
   10  A    between atoms: C_21  and  C_25
   11  A    between atoms: C_21  and  C_37
   12  A    between atoms: C_21  and  C_40
   13  A    between atoms: C_22  and  C_34
   14  A    between atoms: C_23  and  C_45
   15  A    between atoms: C_30  and  C_45
   16  A    between atoms: C_35  and  C_47
   17  A    between atoms: C_36  and  C_45
                            x       y       z     vdW  Elec       q    Type
                         _______ _______ _______ _____ _____    ______ ____

>  <TORSDO>
F 17

$$$$
=
 OpenBabel11062418173D

 49 55  0  0  1  0  0  0  0  0999 V2000
  190.7760  173.8220  144.0110 C   0  0  0  0  0  0  0  0  0  0  0  0
  191.6880  173.3270  143.0980 C   0  0  0  0  0  3  0  0  0  0  0  0
  191.3210  171.9910  143.0240 C   0  0  0  0  0  0  0  0  0  0  0  0
  190.2940  171.7670  143.8080 O   0  0  0  0  0  0  0  0  0  0  0  0
  189.9270  172.8570  144.4130 N   0  0  0  0  0  0  0  0  0  0  0  0
  190.6470  175.2680  144.3680 C   0  0  0  0  0  2  0  0  0  0  0  0
  189.5650  175.5110  145.4270 C   0  0  2  0  0  3  0  0  0  0  0  0
  187.3460  177.1160  147.1550 O   0  0  0  0  0  0  0  0  0  0  0  0
  187.0760  178.3780  144.3400 C   0  0  0  0  0  2  0  0  0  0  0  0
  186.7330  176.5300  146.0320 C   0  0  2  0  0  3  0  0  0  0  0  0
  185.5630  178.5530  144.2580 C   0  0  0  0  0  2  0  0  0  0  0  0
  184.9500  178.2720  145.6150 C   0  0  0  0  0  2  0  0  0  0  0  0
  188.9290  176.9370  145.3480 C   0  0  2  0  0  0  0  0  0  0  0  0
  189.8740  177.9110  144.6400 C   0  0  0  0  0  1  0  0  0  0  0  0
  188.6630  177.4430  146.7630 C   0  0  0  0  0  2  0  0  0  0  0  0
  187.4970  176.9470  144.7760 C   0  0  2  0  0  0  0  0  0  0  0  0
  185.2280  176.8260  145.9990 C   0  0  0  0  0  2  0  0  0  0  0  0
  187.2300  175.9250  143.6510 C   0  0  0  0  0  2  0  0  0  0  0  0
  187.5940  176.4380  142.2580 C   0  0  0  0  0  2  0  0  0  0  0  0
  188.4570  175.4350  141.5050 C   0  0  0  0  0  2  0  0  0  0  0  0
  187.8990  174.0210  141.6260 C   0  0  0  0  0  2  0  0  0  0  0  0
  187.9670  172.6600  139.5990 N   0  0  0  0  0  2  0  0  0  0  0  0
  188.9720  173.3350  138.7890 C   0  0  0  0  0  2  0  0  0  0  0  0
  189.7720  173.7650  139.9930 C   0  0  0  0  0  2  0  0  0  0  0  0
  188.7130  173.0380  140.7890 C   0  0  1  0  0  3  0  0  0  0  0  0
  190.0950  175.1360  146.8160 C   0  0  0  0  0  2  0  0  0  0  0  0
  191.4080  175.5860  146.9930 O   0  0  0  0  0  1  0  0  0  0  0  0
  191.9490  170.9380  142.1590 C   0  0  1  0  0  3  0  0  0  0  0  0
  191.5600  169.1450  140.5390 C   0  0  0  0  0  2  0  0  0  0  0  0
  190.8950  168.7610  141.7930 N   0  0  0  0  0  2  0  0  0  0  0  0
  190.9050  170.1650  141.3530 C   0  0  1  0  0  3  0  0  0  0  0  0
  193.0720  171.4840  141.2770 C   0  0  0  0  0  2  0  0  0  0  0  0
  194.4550  171.1980  141.8560 C   0  0  0  0  0  2  0  0  0  0  0  0
  195.1090  174.9660  141.9710 C   0  0  1  0  0  3  0  0  0  0  0  0
  194.9560  173.6340  141.2330 C   0  0  0  0  0  2  0  0  0  0  0  0
  195.1670  172.4770  142.1700 C   0  0  0  0  0  0  0  0  0  0  0  0
  195.9290  172.6330  143.2740 C   0  0  0  0  0  0  0  0  0  0  0  0
  196.4430  173.9420  143.5760 N   0  0  0  0  0  2  0  0  0  0  0  0
  196.4050  174.9920  142.6380 N   0  0  0  0  0  2  0  0  0  0  0  0
  195.2310  171.2340  145.2460 C   0  0  0  0  0  0  0  0  0  0  0  0
  197.6680  169.8460  145.1460 C   0  0  0  0  0  3  0  0  0  0  0  0
  195.5210  170.2310  146.1860 C   0  0  0  0  0  3  0  0  0  0  0  0
  196.7320  169.5410  146.1350 C   0  0  0  0  0  3  0  0  0  0  0  0
  196.1750  171.5410  144.2430 C   0  0  0  0  0  0  0  0  0  0  0  0
  197.3920  170.8420  144.2090 C   0  0  0  0  0  3  0  0  0  0  0  0
  193.8570  173.1840  145.9180 C   0  0  0  0  0  1  0  0  0  0  0  0
  194.0110  171.9210  145.2850 O   0  0  0  0  0  0  0  0  0  0  0  0
  196.0570  177.0310  141.2210 O   0  0  0  0  0  1  0  0  0  0  0  0
  195.0200  176.1240  140.9930 C   0  0  0  0  0  2  0  0  0  0  0  0
  1  6  1  0  0  0  0
  1  5  2  0  0  0  0
  2  1  1  0  0  0  0
  3  2  2  0  0  0  0
  3  4  1  0  0  0  0
  4  5  1  0  0  0  0
  7  6  1  6  0  0  0
  7 26  1  0  0  0  0
  9 16  1  0  0  0  0
 10 17  1  6  0  0  0
 10  8  1  0  0  0  0
 11  9  1  0  0  0  0
 11 12  1  0  0  0  0
 12 17  1  0  0  0  0
 13 14  1  6  0  0  0
 13  7  1  0  0  0  0
 13 15  1  0  0  0  0
 15  8  1  0  0  0  0
 16 18  1  6  0  0  0
 16 13  1  0  0  0  0
 16 10  1  0  0  0  0
 19 18  1  0  0  0  0
 20 21  1  0  0  0  0
 20 19  1  0  0  0  0
 22 25  1  0  0  0  0
 23 22  1  0  0  0  0
 23 24  1  0  0  0  0
 24 25  1  0  0  0  0
 25 21  1  1  0  0  0
 26 27  1  0  0  0  0
 28 32  1  6  0  0  0
 28  3  1  0  0  0  0
 29 31  1  0  0  0  0
 29 30  1  0  0  0  0
 31 30  1  0  0  0  0
 31 28  1  1  0  0  0
 32 33  1  0  0  0  0
 33 36  1  0  0  0  0
 34 49  1  6  0  0  0
 34 39  1  0  0  0  0
 35 34  1  0  0  0  0
 35 36  1  0  0  0  0
 36 37  2  0  0  0  0
 37 38  1  0  0  0  0
 37 44  1  0  0  0  0
 39 38  1  0  0  0  0
 40 47  1  0  0  0  0
 40 42  1  0  0  0  0
 41 43  1  0  0  0  0
 43 42  2  0  0  0  0
 44 40  2  0  0  0  0
 45 44  1  0  0  0  0
 45 41  2  0  0  0  0
 47 46  1  0  0  0  0
 49 48  1  0  0  0  0
M  END
>  <MODEL>
5

>  <REMARK>
 VINA RESULT:      -6.2      2.420      5.691
  Name = 
  17 active torsions:
  status: ('A' for Active; 'I' for Inactive)
    1  A    between atoms: C_3  and  C_20
    2  A    between atoms: C_3  and  C_43
    3  A    between atoms: C_4  and  C_31
    4  A    between atoms: C_5  and  C_23
    5  A    between atoms: C_9  and  C_19
    6  A    between atoms: C_9  and  C_37
    7  A    between atoms: C_11  and  C_20
    8  A    between atoms: C_11  and  C_35
    9  A    between atoms: C_14  and  O_44
   10  A    between atoms: C_21  and  C_25
   11  A    between atoms: C_21  and  C_37
   12  A    between atoms: C_21  and  C_40
   13  A    between atoms: C_22  and  C_34
   14  A    between atoms: C_23  and  C_45
   15  A    between atoms: C_30  and  C_45
   16  A    between atoms: C_35  and  C_47
   17  A    between atoms: C_36  and  C_45
                            x       y       z     vdW  Elec       q    Type
                         _______ _______ _______ _____ _____    ______ ____

>  <TORSDO>
F 17

$$$$
=
 OpenBabel11062418173D

 49 55  0  0  1  0  0  0  0  0999 V2000
  189.9220  174.8380  145.9410 C   0  0  0  0  0  0  0  0  0  0  0  0
  191.2220  174.8590  145.4730 C   0  0  0  0  0  3  0  0  0  0  0  0
  191.3210  173.6240  144.8500 C   0  0  0  0  0  0  0  0  0  0  0  0
  190.1810  172.9840  144.9470 O   0  0  0  0  0  0  0  0  0  0  0  0
  189.3040  173.6940  145.5910 N   0  0  0  0  0  0  0  0  0  0  0  0
  189.2470  176.0010  146.5960 C   0  0  0  0  0  2  0  0  0  0  0  0
  187.9360  176.3800  145.8980 C   0  0  2  0  0  3  0  0  0  0  0  0
  185.9840  178.4730  144.3820 O   0  0  0  0  0  0  0  0  0  0  0  0
  188.1200  177.8390  142.2320 C   0  0  0  0  0  2  0  0  0  0  0  0
  186.0820  177.2910  143.6260 C   0  0  2  0  0  3  0  0  0  0  0  0
  187.2500  177.7920  140.9810 C   0  0  0  0  0  2  0  0  0  0  0  0
  185.8590  178.2930  141.3160 C   0  0  0  0  0  2  0  0  0  0  0  0
  188.1230  177.4290  144.7530 C   0  0  2  0  0  0  0  0  0  0  0  0
  189.5790  177.8970  144.6830 C   0  0  0  0  0  1  0  0  0  0  0  0
  187.2270  178.6340  145.0310 C   0  0  0  0  0  2  0  0  0  0  0  0
  187.5590  176.9720  143.3930 C   0  0  2  0  0  0  0  0  0  0  0  0
  185.2330  177.3710  142.3510 C   0  0  0  0  0  2  0  0  0  0  0  0
  187.7170  175.4680  143.0870 C   0  0  0  0  0  2  0  0  0  0  0  0
  188.9850  175.1330  142.3030 C   0  0  0  0  0  2  0  0  0  0  0  0
  188.9700  173.6910  141.8150 C   0  0  0  0  0  2  0  0  0  0  0  0
  189.4190  173.5920  140.3610 C   0  0  0  0  0  2  0  0  0  0  0  0
  187.9900  174.7770  138.7740 N   0  0  0  0  0  2  0  0  0  0  0  0
  188.3400  174.1620  137.5010 C   0  0  0  0  0  2  0  0  0  0  0  0
  188.6060  172.8170  138.1300 C   0  0  0  0  0  2  0  0  0  0  0  0
  188.2190  173.4950  139.4230 C   0  0  1  0  0  3  0  0  0  0  0  0
  186.8790  176.7670  146.9390 C   0  0  0  0  0  2  0  0  0  0  0  0
  185.6490  176.1630  146.6570 O   0  0  0  0  0  1  0  0  0  0  0  0
  192.5170  173.0810  144.1240 C   0  0  1  0  0  3  0  0  0  0  0  0
  194.1360  171.2490  144.0030 C   0  0  0  0  0  2  0  0  0  0  0  0
  194.0330  171.6580  145.4120 N   0  0  0  0  0  2  0  0  0  0  0  0
  192.8410  171.6500  144.5480 C   0  0  1  0  0  3  0  0  0  0  0  0
  192.4070  173.2230  142.6060 C   0  0  0  0  0  2  0  0  0  0  0  0
  192.6430  174.6580  142.1390 C   0  0  0  0  0  2  0  0  0  0  0  0
  195.4100  175.2770  139.5710 C   0  0  1  0  0  3  0  0  0  0  0  0
  194.2560  174.4620  140.1560 C   0  0  0  0  0  2  0  0  0  0  0  0
  194.0310  174.8120  141.6000 C   0  0  0  0  0  0  0  0  0  0  0  0
  195.0490  175.2990  142.3430 C   0  0  0  0  0  0  0  0  0  0  0  0
  196.3070  175.5620  141.6970 N   0  0  0  0  0  2  0  0  0  0  0  0
  196.5930  175.0870  140.4030 N   0  0  0  0  0  2  0  0  0  0  0  0
  195.5360  174.9250  144.7840 C   0  0  0  0  0  0  0  0  0  0  0  0
  193.8620  177.0740  145.4630 C   0  0  0  0  0  3  0  0  0  0  0  0
  195.3250  175.2700  146.1300 C   0  0  0  0  0  3  0  0  0  0  0  0
  194.4950  176.3380  146.4660 C   0  0  0  0  0  3  0  0  0  0  0  0
  194.8990  175.6710  143.7680 C   0  0  0  0  0  0  0  0  0  0  0  0
  194.0610  176.7390  144.1240 C   0  0  0  0  0  3  0  0  0  0  0  0
  197.2050  173.1960  145.3850 C   0  0  0  0  0  1  0  0  0  0  0  0
  196.3780  173.8620  144.4400 O   0  0  0  0  0  0  0  0  0  0  0  0
  196.8390  175.4870  137.6630 O   0  0  0  0  0  1  0  0  0  0  0  0
  195.7110  174.8250  138.1530 C   0  0  0  0  0  2  0  0  0  0  0  0
  1  6  1  0  0  0  0
  2  1  1  0  0  0  0
  3  4  1  0  0  0  0
  3  2  2  0  0  0  0
  4  5  1  0  0  0  0
  5  1  2  0  0  0  0
  7  6  1  1  0  0  0
  7 26  1  0  0  0  0
  8 15  1  0  0  0  0
  9 16  1  0  0  0  0
 10 17  1  6  0  0  0
 10  8  1  0  0  0  0
 11 12  1  0  0  0  0
 11  9  1  0  0  0  0
 12 17  1  0  0  0  0
 13 14  1  6  0  0  0
 13 15  1  0  0  0  0
 13  7  1  0  0  0  0
 16 18  1  6  0  0  0
 16 10  1  0  0  0  0
 16 13  1  0  0  0  0
 19 18  1  0  0  0  0
 20 19  1  0  0  0  0
 21 20  1  0  0  0  0
 22 25  1  0  0  0  0
 23 24  1  0  0  0  0
 23 22  1  0  0  0  0
 24 25  1  0  0  0  0
 25 21  1  1  0  0  0
 27 26  1  0  0  0  0
 28 32  1  6  0  0  0
 28  3  1  0  0  0  0
 29 31  1  0  0  0  0
 29 30  1  0  0  0  0
 31 28  1  6  0  0  0
 31 30  1  0  0  0  0
 33 32  1  0  0  0  0
 34 49  1  6  0  0  0
 34 35  1  0  0  0  0
 34 39  1  0  0  0  0
 35 36  1  0  0  0  0
 36 33  1  0  0  0  0
 36 37  2  0  0  0  0
 37 44  1  0  0  0  0
 38 37  1  0  0  0  0
 39 38  1  0  0  0  0
 40 42  1  0  0  0  0
 41 43  1  0  0  0  0
 42 43  2  0  0  0  0
 44 45  1  0  0  0  0
 44 40  2  0  0  0  0
 45 41  2  0  0  0  0
 47 40  1  0  0  0  0
 47 46  1  0  0  0  0
 48 49  1  0  0  0  0
M  END
>  <MODEL>
6

>  <REMARK>
 VINA RESULT:      -6.1      2.750      5.861
  Name = 
  17 active torsions:
  status: ('A' for Active; 'I' for Inactive)
    1  A    between atoms: C_3  and  C_20
    2  A    between atoms: C_3  and  C_43
    3  A    between atoms: C_4  and  C_31
    4  A    between atoms: C_5  and  C_23
    5  A    between atoms: C_9  and  C_19
    6  A    between atoms: C_9  and  C_37
    7  A    between atoms: C_11  and  C_20
    8  A    between atoms: C_11  and  C_35
    9  A    between atoms: C_14  and  O_44
   10  A    between atoms: C_21  and  C_25
   11  A    between atoms: C_21  and  C_37
   12  A    between atoms: C_21  and  C_40
   13  A    between atoms: C_22  and  C_34
   14  A    between atoms: C_23  and  C_45
   15  A    between atoms: C_30  and  C_45
   16  A    between atoms: C_35  and  C_47
   17  A    between atoms: C_36  and  C_45
                            x       y       z     vdW  Elec       q    Type
                         _______ _______ _______ _____ _____    ______ ____

>  <TORSDO>
F 17

$$$$
=
 OpenBabel11062418173D

 49 55  0  0  1  0  0  0  0  0999 V2000
  190.3620  173.6200  138.6710 C   0  0  0  0  0  0  0  0  0  0  0  0
  190.5010  173.4810  140.0390 C   0  0  0  0  0  3  0  0  0  0  0  0
  189.1790  173.4230  140.4550 C   0  0  0  0  0  0  0  0  0  0  0  0
  188.3810  173.5050  139.4170 O   0  0  0  0  0  0  0  0  0  0  0  0
  189.0630  173.6130  138.3160 N   0  0  0  0  0  0  0  0  0  0  0  0
  191.5050  173.6080  137.7060 C   0  0  0  0  0  2  0  0  0  0  0  0
  192.7630  172.9680  138.3040 C   0  0  2  0  0  3  0  0  0  0  0  0
  195.9700  172.5230  138.2160 O   0  0  0  0  0  0  0  0  0  0  0  0
  195.6880  175.2240  139.7040 C   0  0  0  0  0  2  0  0  0  0  0  0
  195.5580  172.7030  139.5490 C   0  0  2  0  0  3  0  0  0  0  0  0
  196.7870  175.0820  140.7510 C   0  0  0  0  0  2  0  0  0  0  0  0
  197.6240  173.8570  140.4370 C   0  0  0  0  0  2  0  0  0  0  0  0
  194.0060  173.9170  138.2930 C   0  0  2  0  0  0  0  0  0  0  0  0
  193.6330  175.2890  137.7250 C   0  0  0  0  0  1  0  0  0  0  0  0
  195.0970  173.2980  137.4220 C   0  0  0  0  0  2  0  0  0  0  0  0
  194.7420  173.9930  139.6460 C   0  0  2  0  0  0  0  0  0  0  0  0
  196.7440  172.6180  140.5170 C   0  0  0  0  0  2  0  0  0  0  0  0
  193.8350  173.9320  140.8920 C   0  0  0  0  0  2  0  0  0  0  0  0
  193.4190  175.3070  141.4140 C   0  0  0  0  0  2  0  0  0  0  0  0
  192.8470  175.2170  142.8220 C   0  0  0  0  0  2  0  0  0  0  0  0
  193.7230  174.3520  143.7220 C   0  0  0  0  0  2  0  0  0  0  0  0
  194.7910  175.0610  145.8010 N   0  0  0  0  0  2  0  0  0  0  0  0
  196.0700  174.3650  145.7630 C   0  0  0  0  0  2  0  0  0  0  0  0
  196.1610  174.4450  144.2590 C   0  0  0  0  0  2  0  0  0  0  0  0
  194.8420  175.1770  144.3510 C   0  0  1  0  0  3  0  0  0  0  0  0
  193.0130  171.5980  137.6620 C   0  0  0  0  0  2  0  0  0  0  0  0
  192.1490  170.6310  138.1860 O   0  0  0  0  0  1  0  0  0  0  0  0
  188.6920  173.2470  141.8630 C   0  0  1  0  0  3  0  0  0  0  0  0
  189.3420  172.3050  144.0260 C   0  0  0  0  0  2  0  0  0  0  0  0
  190.0400  171.5400  142.9810 N   0  0  0  0  0  2  0  0  0  0  0  0
  189.8400  172.9910  142.8370 C   0  0  1  0  0  3  0  0  0  0  0  0
  187.7850  174.3890  142.3260 C   0  0  0  0  0  2  0  0  0  0  0  0
  188.5660  175.6680  142.6150 C   0  0  0  0  0  2  0  0  0  0  0  0
  185.4130  177.5880  143.6190 C   0  0  1  0  0  3  0  0  0  0  0  0
  186.5230  177.2160  142.6340 C   0  0  0  0  0  2  0  0  0  0  0  0
  187.7120  176.6480  143.3570 C   0  0  0  0  0  0  0  0  0  0  0  0
  187.9410  176.9830  144.6450 C   0  0  0  0  0  0  0  0  0  0  0  0
  186.9780  177.8070  145.3250 N   0  0  0  0  0  2  0  0  0  0  0  0
  185.9580  178.4860  144.6300 N   0  0  0  0  0  2  0  0  0  0  0  0
  190.3490  177.0880  145.3710 C   0  0  0  0  0  0  0  0  0  0  0  0
  190.0190  174.7340  146.8650 C   0  0  0  0  0  3  0  0  0  0  0  0
  191.4300  176.5290  146.0740 C   0  0  0  0  0  3  0  0  0  0  0  0
  191.2650  175.3600  146.8160 C   0  0  0  0  0  3  0  0  0  0  0  0
  189.0880  176.4570  145.4220 C   0  0  0  0  0  0  0  0  0  0  0  0
  188.9390  175.2780  146.1680 C   0  0  0  0  0  3  0  0  0  0  0  0
  191.1910  178.3150  143.3900 C   0  0  0  0  0  1  0  0  0  0  0  0
  190.5070  178.2680  144.6350 O   0  0  0  0  0  0  0  0  0  0  0  0
  183.5190  179.0400  143.7870 O   0  0  0  0  0  1  0  0  0  0  0  0
  184.2720  178.2770  142.8920 C   0  0  0  0  0  2  0  0  0  0  0  0
  1  2  1  0  0  0  0
  2  3  2  0  0  0  0
  3 28  1  0  0  0  0
  4  3  1  0  0  0  0
  5  1  2  0  0  0  0
  5  4  1  0  0  0  0
  6  7  1  0  0  0  0
  6  1  1  0  0  0  0
  7 26  1  6  0  0  0
  8 10  1  0  0  0  0
  9 11  1  0  0  0  0
 10 16  1  0  0  0  0
 10 17  1  1  0  0  0
 12 17  1  0  0  0  0
 12 11  1  0  0  0  0
 13 14  1  6  0  0  0
 13  7  1  0  0  0  0
 13 16  1  0  0  0  0
 15  8  1  0  0  0  0
 15 13  1  0  0  0  0
 16  9  1  0  0  0  0
 16 18  1  1  0  0  0
 18 19  1  0  0  0  0
 19 20  1  0  0  0  0
 20 21  1  0  0  0  0
 23 22  1  0  0  0  0
 24 25  1  0  0  0  0
 24 23  1  0  0  0  0
 25 21  1  6  0  0  0
 25 22  1  0  0  0  0
 26 27  1  0  0  0  0
 28 32  1  1  0  0  0
 30 29  1  0  0  0  0
 31 28  1  6  0  0  0
 31 30  1  0  0  0  0
 31 29  1  0  0  0  0
 32 33  1  0  0  0  0
 33 36  1  0  0  0  0
 34 49  1  6  0  0  0
 34 39  1  0  0  0  0
 35 36  1  0  0  0  0
 35 34  1  0  0  0  0
 36 37  2  0  0  0  0
 37 38  1  0  0  0  0
 37 44  1  0  0  0  0
 39 38  1  0  0  0  0
 40 44  2  0  0  0  0
 40 42  1  0  0  0  0
 42 43  2  0  0  0  0
 43 41  1  0  0  0  0
 44 45  1  0  0  0  0
 45 41  2  0  0  0  0
 46 47  1  0  0  0  0
 47 40  1  0  0  0  0
 49 48  1  0  0  0  0
M  END
>  <MODEL>
7

>  <REMARK>
 VINA RESULT:      -6.0      2.960      9.037
  Name = 
  17 active torsions:
  status: ('A' for Active; 'I' for Inactive)
    1  A    between atoms: C_3  and  C_20
    2  A    between atoms: C_3  and  C_43
    3  A    between atoms: C_4  and  C_31
    4  A    between atoms: C_5  and  C_23
    5  A    between atoms: C_9  and  C_19
    6  A    between atoms: C_9  and  C_37
    7  A    between atoms: C_11  and  C_20
    8  A    between atoms: C_11  and  C_35
    9  A    between atoms: C_14  and  O_44
   10  A    between atoms: C_21  and  C_25
   11  A    between atoms: C_21  and  C_37
   12  A    between atoms: C_21  and  C_40
   13  A    between atoms: C_22  and  C_34
   14  A    between atoms: C_23  and  C_45
   15  A    between atoms: C_30  and  C_45
   16  A    between atoms: C_35  and  C_47
   17  A    between atoms: C_36  and  C_45
                            x       y       z     vdW  Elec       q    Type
                         _______ _______ _______ _____ _____    ______ ____

>  <TORSDO>
F 17

$$$$
=
 OpenBabel11062418173D

 49 55  0  0  1  0  0  0  0  0999 V2000
  190.6660  173.5530  141.6290 C   0  0  0  0  0  0  0  0  0  0  0  0
  190.3900  174.8450  142.0350 C   0  0  0  0  0  3  0  0  0  0  0  0
  189.0210  174.9230  141.8230 C   0  0  0  0  0  0  0  0  0  0  0  0
  188.5750  173.7800  141.3610 O   0  0  0  0  0  0  0  0  0  0  0  0
  189.5430  172.9200  141.2420 N   0  0  0  0  0  0  0  0  0  0  0  0
  192.0030  172.8980  141.7670 C   0  0  0  0  0  2  0  0  0  0  0  0
  192.7930  173.4360  142.9660 C   0  0  2  0  0  3  0  0  0  0  0  0
  195.3610  174.4690  144.6480 O   0  0  0  0  0  0  0  0  0  0  0  0
  196.4350  174.3550  141.7450 C   0  0  0  0  0  2  0  0  0  0  0  0
  195.0770  175.3820  143.6160 C   0  0  2  0  0  3  0  0  0  0  0  0
  197.3080  175.6050  141.7230 C   0  0  0  0  0  2  0  0  0  0  0  0
  197.4330  176.1570  143.1300 C   0  0  0  0  0  2  0  0  0  0  0  0
  194.3430  173.3250  142.7880 C   0  0  2  0  0  0  0  0  0  0  0  0
  194.7030  172.0970  141.9470 C   0  0  0  0  0  1  0  0  0  0  0  0
  194.9940  173.1950  144.1620 C   0  0  0  0  0  2  0  0  0  0  0  0
  195.0040  174.6250  142.2890 C   0  0  2  0  0  0  0  0  0  0  0  0
  196.0550  176.5630  143.6300 C   0  0  0  0  0  2  0  0  0  0  0  0
  194.1730  175.4420  141.2780 C   0  0  0  0  0  2  0  0  0  0  0  0
  194.6130  175.2500  139.8280 C   0  0  0  0  0  2  0  0  0  0  0  0
  193.5240  174.5780  139.0020 C   0  0  0  0  0  2  0  0  0  0  0  0
  194.1170  173.6140  137.9790 C   0  0  0  0  0  2  0  0  0  0  0  0
  192.3530  171.9300  138.1170 N   0  0  0  0  0  2  0  0  0  0  0  0
  191.1370  172.7240  138.0020 C   0  0  0  0  0  2  0  0  0  0  0  0
  191.7860  173.7350  137.0900 C   0  0  0  0  0  2  0  0  0  0  0  0
  193.0170  172.8710  137.2260 C   0  0  1  0  0  3  0  0  0  0  0  0
  192.2640  172.8150  144.2650 C   0  0  0  0  0  2  0  0  0  0  0  0
  191.9080  171.4760  144.0740 O   0  0  0  0  0  1  0  0  0  0  0  0
  188.1380  176.1020  142.1090 C   0  0  1  0  0  3  0  0  0  0  0  0
  186.2750  177.4120  141.2130 C   0  0  0  0  0  2  0  0  0  0  0  0
  187.5220  178.0820  140.8120 N   0  0  0  0  0  2  0  0  0  0  0  0
  187.4420  176.6130  140.8490 C   0  0  1  0  0  3  0  0  0  0  0  0
  187.1530  175.8450  143.2500 C   0  0  0  0  0  2  0  0  0  0  0  0
  187.8590  175.5750  144.5770 C   0  0  0  0  0  2  0  0  0  0  0  0
  185.7490  177.6550  146.9960 C   0  0  1  0  0  3  0  0  0  0  0  0
  186.1200  177.1580  145.5980 C   0  0  0  0  0  2  0  0  0  0  0  0
  187.5330  176.6450  145.5710 C   0  0  0  0  0  0  0  0  0  0  0  0
  188.4370  177.1120  146.4590 C   0  0  0  0  0  0  0  0  0  0  0  0
  187.9930  178.0240  147.4790 N   0  0  0  0  0  2  0  0  0  0  0  0
  186.7310  178.6450  147.4230 N   0  0  0  0  0  2  0  0  0  0  0  0
  190.7690  177.0630  145.5130 C   0  0  0  0  0  0  0  0  0  0  0  0
  191.5550  175.2440  147.5010 C   0  0  0  0  0  3  0  0  0  0  0  0
  192.0800  176.5590  145.5420 C   0  0  0  0  0  3  0  0  0  0  0  0
  192.4700  175.6560  146.5310 C   0  0  0  0  0  3  0  0  0  0  0  0
  189.8440  176.6500  146.4950 C   0  0  0  0  0  0  0  0  0  0  0  0
  190.2490  175.7350  147.4790 C   0  0  0  0  0  3  0  0  0  0  0  0
  191.1400  178.2290  143.3580 C   0  0  0  0  0  1  0  0  0  0  0  0
  190.3760  177.9790  144.5300 O   0  0  0  0  0  0  0  0  0  0  0  0
  184.1120  178.8650  145.7380 O   0  0  0  0  0  1  0  0  0  0  0  0
  184.3670  178.2850  146.9820 C   0  0  0  0  0  2  0  0  0  0  0  0
  1  6  1  0  0  0  0
  1  2  1  0  0  0  0
  3  2  2  0  0  0  0
  3 28  1  0  0  0  0
  4  3  1  0  0  0  0
  5  4  1  0  0  0  0
  5  1  2  0  0  0  0
  7  6  1  6  0  0  0
  7 26  1  0  0  0  0
  9 16  1  0  0  0  0
 10 17  1  6  0  0  0
 10  8  1  0  0  0  0
 11  9  1  0  0  0  0
 11 12  1  0  0  0  0
 12 17  1  0  0  0  0
 13 14  1  6  0  0  0
 13  7  1  0  0  0  0
 13 15  1  0  0  0  0
 15  8  1  0  0  0  0
 16 18  1  6  0  0  0
 16 13  1  0  0  0  0
 16 10  1  0  0  0  0
 19 18  1  0  0  0  0
 20 19  1  0  0  0  0
 21 20  1  0  0  0  0
 23 22  1  0  0  0  0
 24 25  1  0  0  0  0
 24 23  1  0  0  0  0
 25 21  1  1  0  0  0
 25 22  1  0  0  0  0
 27 26  1  0  0  0  0
 28 32  1  1  0  0  0
 30 31  1  0  0  0  0
 30 29  1  0  0  0  0
 31 29  1  0  0  0  0
 31 28  1  1  0  0  0
 32 33  1  0  0  0  0
 33 36  1  0  0  0  0
 34 49  1  6  0  0  0
 34 39  1  0  0  0  0
 35 34  1  0  0  0  0
 36 35  1  0  0  0  0
 36 37  2  0  0  0  0
 37 44  1  0  0  0  0
 37 38  1  0  0  0  0
 39 38  1  0  0  0  0
 40 42  2  0  0  0  0
 40 44  1  0  0  0  0
 42 43  1  0  0  0  0
 43 41  2  0  0  0  0
 44 45  2  0  0  0  0
 45 41  1  0  0  0  0
 46 47  1  0  0  0  0
 47 40  1  0  0  0  0
 48 49  1  0  0  0  0
M  END
>  <MODEL>
8

>  <REMARK>
 VINA RESULT:      -6.0      2.799      9.199
  Name = 
  17 active torsions:
  status: ('A' for Active; 'I' for Inactive)
    1  A    between atoms: C_3  and  C_20
    2  A    between atoms: C_3  and  C_43
    3  A    between atoms: C_4  and  C_31
    4  A    between atoms: C_5  and  C_23
    5  A    between atoms: C_9  and  C_19
    6  A    between atoms: C_9  and  C_37
    7  A    between atoms: C_11  and  C_20
    8  A    between atoms: C_11  and  C_35
    9  A    between atoms: C_14  and  O_44
   10  A    between atoms: C_21  and  C_25
   11  A    between atoms: C_21  and  C_37
   12  A    between atoms: C_21  and  C_40
   13  A    between atoms: C_22  and  C_34
   14  A    between atoms: C_23  and  C_45
   15  A    between atoms: C_30  and  C_45
   16  A    between atoms: C_35  and  C_47
   17  A    between atoms: C_36  and  C_45
                            x       y       z     vdW  Elec       q    Type
                         _______ _______ _______ _____ _____    ______ ____

>  <TORSDO>
F 17

$$$$
=
 OpenBabel11062418173D

 49 55  0  0  1  0  0  0  0  0999 V2000
  192.6550  173.5250  144.9660 C   0  0  0  0  0  0  0  0  0  0  0  0
  192.4310  174.5980  145.8090 C   0  0  0  0  0  3  0  0  0  0  0  0
  191.0470  174.5890  145.9190 C   0  0  0  0  0  0  0  0  0  0  0  0
  190.5510  173.5960  145.2190 O   0  0  0  0  0  0  0  0  0  0  0  0
  191.4970  172.9210  144.6370 N   0  0  0  0  0  0  0  0  0  0  0  0
  194.0120  173.0070  144.6110 C   0  0  0  0  0  2  0  0  0  0  0  0
  194.7560  173.9390  143.6470 C   0  0  2  0  0  3  0  0  0  0  0  0
  196.5210  174.8430  141.0860 O   0  0  0  0  0  0  0  0  0  0  0  0
  195.2210  172.1990  140.1320 C   0  0  0  0  0  2  0  0  0  0  0  0
  195.1820  174.6650  140.6940 C   0  0  2  0  0  3  0  0  0  0  0  0
  194.9160  172.5480  138.6790 C   0  0  0  0  0  2  0  0  0  0  0  0
  195.5770  173.8670  138.3290 C   0  0  0  0  0  2  0  0  0  0  0  0
  195.4650  173.1830  142.4770 C   0  0  2  0  0  0  0  0  0  0  0  0
  195.8020  171.7470  142.8880 C   0  0  0  0  0  1  0  0  0  0  0  0
  196.7580  173.9140  142.1230 C   0  0  0  0  0  2  0  0  0  0  0  0
  194.7160  173.2760  141.1330 C   0  0  2  0  0  0  0  0  0  0  0  0
  194.9910  174.9660  139.2020 C   0  0  0  0  0  2  0  0  0  0  0  0
  193.1770  173.2600  141.2340 C   0  0  0  0  0  2  0  0  0  0  0  0
  192.5850  171.8540  141.3360 C   0  0  0  0  0  2  0  0  0  0  0  0
  191.6110  171.5790  140.1990 C   0  0  0  0  0  2  0  0  0  0  0  0
  191.2380  172.8620  139.4630 C   0  0  0  0  0  2  0  0  0  0  0  0
  189.0960  171.7740  139.0220 N   0  0  0  0  0  2  0  0  0  0  0  0
  188.1780  172.9000  138.9100 C   0  0  0  0  0  2  0  0  0  0  0  0
  189.2290  173.8030  138.3150 C   0  0  0  0  0  2  0  0  0  0  0  0
  190.1390  172.6030  138.4360 C   0  0  1  0  0  3  0  0  0  0  0  0
  195.6730  174.8840  144.4320 C   0  0  0  0  0  2  0  0  0  0  0  0
  195.2970  176.2190  144.2490 O   0  0  0  0  0  1  0  0  0  0  0  0
  190.2100  175.5250  146.7390 C   0  0  1  0  0  3  0  0  0  0  0  0
  190.3510  177.4490  148.2450 C   0  0  0  0  0  2  0  0  0  0  0  0
  191.5880  176.6700  148.4040 N   0  0  0  0  0  2  0  0  0  0  0  0
  190.9600  176.8110  147.0810 C   0  0  1  0  0  3  0  0  0  0  0  0
  188.8420  175.8020  146.1140 C   0  0  0  0  0  2  0  0  0  0  0  0
  188.5200  177.2940  146.0620 C   0  0  0  0  0  2  0  0  0  0  0  0
  185.7080  178.9230  144.0440 C   0  0  1  0  0  3  0  0  0  0  0  0
  186.2320  178.0040  145.1490 C   0  0  0  0  0  2  0  0  0  0  0  0
  187.6560  177.6020  144.8790 C   0  0  1  0  0  3  0  0  0  0  0  0
  188.1240  177.5850  143.6130 C   0  0  0  0  0  0  0  0  0  0  0  0
  187.2660  178.0490  142.5550 N   0  0  0  0  0  0  0  0  0  0  0  0
  185.8890  178.2650  142.7540 N   0  0  0  0  0  2  0  0  0  0  0  0
  189.7930  176.0050  142.5870 C   0  0  0  0  0  0  0  0  0  0  0  0
  191.9000  177.6530  143.4360 C   0  0  0  0  0  3  0  0  0  0  0  0
  191.1280  175.6470  142.3330 C   0  0  0  0  0  3  0  0  0  0  0  0
  192.1740  176.4670  142.7540 C   0  0  0  0  0  3  0  0  0  0  0  0
  189.5150  177.2060  143.2740 C   0  0  0  0  0  0  0  0  0  0  0  0
  190.5790  178.0170  143.6970 C   0  0  0  0  0  3  0  0  0  0  0  0
  188.6930  173.7920  142.4030 C   0  0  0  0  0  1  0  0  0  0  0  0
  188.7390  175.1910  142.1550 O   0  0  0  0  0  0  0  0  0  0  0  0
  183.8220  178.7450  145.5050 O   0  0  0  0  0  1  0  0  0  0  0  0
  184.2350  179.2190  144.2580 C   0  0  0  0  0  2  0  0  0  0  0  0
  1  2  1  0  0  0  0
  2  3  2  0  0  0  0
  3 28  1  0  0  0  0
  4  3  1  0  0  0  0
  5  1  2  0  0  0  0
  5  4  1  0  0  0  0
  6  1  1  0  0  0  0
  7 26  1  1  0  0  0
  7  6  1  0  0  0  0
  8 15  1  0  0  0  0
  9 16  1  0  0  0  0
 10 17  1  6  0  0  0
 10  8  1  0  0  0  0
 10 16  1  0  0  0  0
 11  9  1  0  0  0  0
 12 11  1  0  0  0  0
 12 17  1  0  0  0  0
 13 14  1  1  0  0  0
 13  7  1  0  0  0  0
 15 13  1  0  0  0  0
 16 18  1  1  0  0  0
 16 13  1  0  0  0  0
 18 19  1  0  0  0  0
 20 19  1  0  0  0  0
 21 20  1  0  0  0  0
 23 22  1  0  0  0  0
 24 25  1  0  0  0  0
 24 23  1  0  0  0  0
 25 22  1  0  0  0  0
 25 21  1  1  0  0  0
 27 26  1  0  0  0  0
 28 32  1  6  0  0  0
 29 30  1  0  0  0  0
 31 28  1  1  0  0  0
 31 29  1  0  0  0  0
 31 30  1  0  0  0  0
 33 32  1  0  0  0  0
 34 49  1  1  0  0  0
 34 35  1  0  0  0  0
 36 35  1  0  0  0  0
 36 33  1  1  0  0  0
 37 36  1  0  0  0  0
 38 39  1  0  0  0  0
 38 37  2  0  0  0  0
 39 34  1  0  0  0  0
 40 44  1  0  0  0  0
 41 45  1  0  0  0  0
 42 40  2  0  0  0  0
 42 43  1  0  0  0  0
 43 41  2  0  0  0  0
 44 37  1  0  0  0  0
 44 45  2  0  0  0  0
 47 46  1  0  0  0  0
 47 40  1  0  0  0  0
 49 48  1  0  0  0  0
M  END
>  <MODEL>
9

>  <REMARK>
 VINA RESULT:      -5.9      2.717      9.139
  Name = 
  17 active torsions:
  status: ('A' for Active; 'I' for Inactive)
    1  A    between atoms: C_3  and  C_20
    2  A    between atoms: C_3  and  C_43
    3  A    between atoms: C_4  and  C_31
    4  A    between atoms: C_5  and  C_23
    5  A    between atoms: C_9  and  C_19
    6  A    between atoms: C_9  and  C_37
    7  A    between atoms: C_11  and  C_20
    8  A    between atoms: C_11  and  C_35
    9  A    between atoms: C_14  and  O_44
   10  A    between atoms: C_21  and  C_25
   11  A    between atoms: C_21  and  C_37
   12  A    between atoms: C_21  and  C_40
   13  A    between atoms: C_22  and  C_34
   14  A    between atoms: C_23  and  C_45
   15  A    between atoms: C_30  and  C_45
   16  A    between atoms: C_35  and  C_47
   17  A    between atoms: C_36  and  C_45
                            x       y       z     vdW  Elec       q    Type
                         _______ _______ _______ _____ _____    ______ ____

>  <TORSDO>
F 17

$$$$
