=
 OpenBabel11062421053D

 68 74  0  0  1  0  0  0  0  0999 V2000
  190.0630  174.8250  145.5720 N   0  0  0  0  0  0  0  0  0  0  0  0
  191.3180  175.0730  146.2820 C   0  0  0  0  0  2  0  0  0  0  0  0
  192.6460  176.5350  144.8280 C   0  0  0  0  0  2  0  0  0  0  0  0
  192.9550  176.7320  147.1970 C   0  0  0  0  0  2  0  0  0  0  0  0
  193.9630  175.8870  145.1630 C   0  0  2  0  0  3  0  0  0  0  0  0
  191.8750  176.4820  146.1310 C   0  0  2  0  0  3  0  0  0  0  0  0
  194.2860  176.3130  146.5840 C   0  0  0  0  0  2  0  0  0  0  0  0
  195.0790  176.2540  144.1940 C   0  0  0  0  0  2  0  0  0  0  0  0
  196.2020  175.3620  144.4210 N   0  0  0  0  0  2  0  0  0  0  0  0
  195.3990  171.6820  145.1700 C   0  0  0  0  0  1  0  0  0  0  0  0
  196.9670  173.4040  146.3430 C   0  0  0  0  0  1  0  0  0  0  0  0
  196.9680  173.1110  143.8990 C   0  0  0  0  0  2  0  0  0  0  0  0
  196.1430  172.9990  145.1410 C   0  0  0  0  0  0  0  0  0  0  0  0
  195.7580  174.0210  144.0710 C   0  0  1  0  0  3  0  0  0  0  0  0
  190.1040  173.6600  144.6830 C   0  0  0  0  0  2  0  0  0  0  0  0
  191.5330  173.1670  144.4400 C   0  0  0  0  0  2  0  0  0  0  0  0
  191.4610  171.6880  144.1370 C   0  0  0  0  0  2  0  0  0  0  0  0
  191.8850  171.2340  142.7460 C   0  0  1  0  0  3  0  0  0  0  0  0
  192.9830  171.9240  142.0640 N   0  0  0  0  0  2  0  0  0  0  0  0
  191.5620  173.4680  141.0070 O   0  0  0  0  0  0  0  0  0  0  0  0
  192.7330  173.0090  141.1600 C   0  0  0  0  0  0  0  0  0  0  0  0
  193.9740  175.0850  140.8560 C   0  0  0  0  0  1  0  0  0  0  0  0
  193.8750  173.6380  140.4320 C   0  0  1  0  0  3  0  0  0  0  0  0
  195.1920  172.9260  140.7600 C   0  0  0  0  0  2  0  0  0  0  0  0
  196.9110  172.1260  139.3810 N   0  0  0  0  0  2  0  0  0  0  0  0
  195.5760  171.9120  139.7680 N   0  0  0  0  0  0  0  0  0  0  0  0
  196.9580  171.8730  137.9400 C   0  0  0  0  0  2  0  0  0  0  0  0
  195.6110  171.8020  137.4240 N   0  0  0  0  0  2  0  0  0  0  0  0
  194.7530  171.9580  138.5760 C   0  0  0  0  0  2  0  0  0  0  0  0
  191.6170  169.7880  142.3460 C   0  0  0  0  0  2  0  0  0  0  0  0
  192.7810  169.0860  141.6260 C   0  0  1  0  0  3  0  0  0  0  0  0
  191.3790  169.4380  139.9080 C   0  0  0  0  0  1  0  0  0  0  0  0
  192.7220  169.2400  140.2230 O   0  0  0  0  0  0  0  0  0  0  0  0
  193.9870  169.5490  142.2080 O   0  0  0  0  0  0  0  0  0  0  0  0
  195.8120  168.6760  143.2760 O   0  0  0  0  0  0  0  0  0  0  0  0
  194.9400  168.5000  142.1870 C   0  0  2  0  0  3  0  0  0  0  0  0
  196.3130  169.0490  142.0090 C   0  0  0  0  0  2  0  0  0  0  0  0
  188.8850  174.8660  146.4360 C   0  0  0  0  0  2  0  0  0  0  0  0
  188.1090  176.2140  146.4540 C   0  0  0  0  0  2  0  0  0  0  0  0
  187.1950  176.3810  147.6780 C   0  0  0  0  0  2  0  0  0  0  0  0
  186.3850  177.6910  147.5810 C   0  0  0  0  0  2  0  0  0  0  0  0
  186.6480  178.3440  146.3710 O   0  0  0  0  0  0  0  0  0  0  0  0
  185.4220  178.8910  145.9970 C   0  0  2  0  0  3  0  0  0  0  0  0
  184.2940  177.8710  146.0500 C   0  0  0  0  0  1  0  0  0  0  0  0
  185.5210  179.6130  144.6470 C   0  0  0  0  0  2  0  0  0  0  0  0
  185.7170  178.7200  140.6040 O   0  0  0  0  0  0  0  0  0  0  0  0
  186.7340  177.9860  141.2500 C   0  0  1  0  0  3  0  0  0  0  0  0
  184.2720  178.7530  142.5440 C   0  0  0  0  0  2  0  0  0  0  0  0
  185.5460  178.7420  143.3960 C   0  0  1  0  0  0  0  0  0  0  0  0
  186.8030  178.2790  142.7450 C   0  0  1  0  0  0  0  0  0  0  0  0
  184.4840  178.2760  141.1050 C   0  0  1  0  0  3  0  0  0  0  0  0
  186.0720  177.4440  143.6080 O   0  0  0  0  0  0  0  0  0  0  0  0
  187.9940  178.7670  143.2900 O   0  0  0  0  0  1  0  0  0  0  0  0
  188.5720  173.3330  141.6820 O   0  0  0  0  0  0  0  0  0  0  0  0
  187.4690  176.5690  139.2930 C   0  0  1  0  0  3  0  0  0  0  0  0
  186.6580  177.3870  138.4930 O   0  0  0  0  0  1  0  0  0  0  0  0
  186.9450  176.5390  140.7250 C   0  0  1  0  0  3  0  0  0  0  0  0
  187.8040  175.6170  141.6390 C   0  0  2  0  0  3  0  0  0  0  0  0
  188.1250  174.2900  140.9920 C   0  0  0  0  0  0  0  0  0  0  0  0
  187.3430  174.9500  137.5190 O   0  0  0  0  0  0  0  0  0  0  0  0
  187.0930  175.3440  142.9650 C   0  0  0  0  0  1  0  0  0  0  0  0
  187.5560  175.1790  138.7390 C   0  0  0  0  0  0  0  0  0  0  0  0
  187.9000  174.0900  139.5860 N   0  0  0  0  0  2  0  0  0  0  0  0
  183.4380  178.7650  140.3000 O   0  0  0  0  0  0  0  0  0  0  0  0
  182.5800  176.8530  139.3870 F   0  0  0  0  0  0  0  0  0  0  0  0
  182.2460  177.2430  141.5770 F   0  0  0  0  0  0  0  0  0  0  0  0
  182.3550  177.8500  140.3240 C   0  0  0  0  0  0  0  0  0  0  0  0
  181.1480  178.4850  140.0130 F   0  0  0  0  0  0  0  0  0  0  0  0
  1  2  1  0  0  0  0
  1 38  1  0  0  0  0
  3  5  1  0  0  0  0
  3  6  1  0  0  0  0
  5  8  1  6  0  0  0
  5  7  1  0  0  0  0
  6  2  1  1  0  0  0
  6  4  1  0  0  0  0
  7  4  1  0  0  0  0
  8  9  1  0  0  0  0
 12 14  1  0  0  0  0
 12 13  1  0  0  0  0
 13 10  1  0  0  0  0
 13 11  1  0  0  0  0
 14  9  1  1  0  0  0
 14 13  1  0  0  0  0
 15  1  1  0  0  0  0
 16 15  1  0  0  0  0
 17 16  1  0  0  0  0
 18 30  1  1  0  0  0
 18 17  1  0  0  0  0
 19 18  1  0  0  0  0
 20 21  2  0  0  0  0
 21 19  1  0  0  0  0
 23 24  1  0  0  0  0
 23 22  1  1  0  0  0
 23 21  1  0  0  0  0
 25 26  1  0  0  0  0
 26 24  1  0  0  0  0
 27 25  1  0  0  0  0
 28 27  1  0  0  0  0
 28 29  1  0  0  0  0
 29 26  1  0  0  0  0
 31 34  1  0  0  0  0
 31 30  1  1  0  0  0
 32 33  1  0  0  0  0
 33 31  1  0  0  0  0
 36 34  1  1  0  0  0
 36 35  1  0  0  0  0
 37 36  1  0  0  0  0
 37 35  1  0  0  0  0
 38 39  1  0  0  0  0
 39 40  1  0  0  0  0
 41 40  1  0  0  0  0
 42 41  1  0  0  0  0
 43 44  1  6  0  0  0
 43 42  1  0  0  0  0
 45 43  1  0  0  0  0
 46 51  1  0  0  0  0
 47 46  1  1  0  0  0
 47 50  1  0  0  0  0
 48 49  1  0  0  0  0
 49 52  1  0  0  0  0
 49 45  1  1  0  0  0
 50 53  1  1  0  0  0
 50 49  1  0  0  0  0
 50 52  1  0  0  0  0
 51 64  1  6  0  0  0
 51 48  1  0  0  0  0
 55 56  1  6  0  0  0
 55 57  1  0  0  0  0
 57 47  1  1  0  0  0
 57 58  1  0  0  0  0
 58 61  1  1  0  0  0
 59 58  1  0  0  0  0
 59 54  2  0  0  0  0
 60 62  2  0  0  0  0
 62 55  1  0  0  0  0
 62 63  1  0  0  0  0
 63 59  1  0  0  0  0
 64 67  1  0  0  0  0
 65 67  1  0  0  0  0
 67 66  1  0  0  0  0
 68 67  1  0  0  0  0
M  END
>  <MODEL>
1

>  <REMARK>
 VINA RESULT:      -5.0      0.000      0.000
  Name = 
  29 active torsions:
  status: ('A' for Active; 'I' for Inactive)
    1  A    between atoms: C_2  and  N_10
    2  A    between atoms: C_2  and  C_34
    3  A    between atoms: C_2  and  C_42
    4  A    between atoms: C_7  and  C_22
    5  A    between atoms: O_8  and  C_45
    6  A    between atoms: O_8  and  C_62
    7  A    between atoms: C_13  and  C_30
    8  A    between atoms: C_13  and  O_49
    9  A    between atoms: C_16  and  C_42
   10  A    between atoms: C_16  and  C_64
   11  A    between atoms: C_17  and  N_36
   12  A    between atoms: C_17  and  C_65
   13  A    between atoms: C_20  and  O_49
   14  A    between atoms: C_20  and  C_66
   15  A    between atoms: C_21  and  N_43
   16  A    between atoms: C_21  and  C_50
   17  A    between atoms: O_23  and  C_33
   18  A    between atoms: O_23  and  C_53
   19  A    between atoms: C_24  and  C_65
   20  A    between atoms: C_27  and  C_28
   21  A    between atoms: C_27  and  N_43
   22  A    between atoms: C_28  and  C_66
   23  A    between atoms: C_30  and  C_32
   24  A    between atoms: C_33  and  C_34
   25  A    between atoms: C_33  and  O_60
   26  A    between atoms: N_43  and  C_64
   27  A    between atoms: C_44  and  C_54
   28  A    between atoms: C_54  and  N_59
   29  A    between atoms: C_57  and  N_59
                            x       y       z     vdW  Elec       q    Type
                         _______ _______ _______ _____ _____    ______ ____

>  <TORSDO>
F 29

$$$$
=
 OpenBabel11062421053D

 68 74  0  0  1  0  0  0  0  0999 V2000
  185.6150  178.3940  143.1920 N   0  0  0  0  0  0  0  0  0  0  0  0
  185.8020  179.2520  144.3620 C   0  0  0  0  0  2  0  0  0  0  0  0
  186.6770  178.7650  146.6010 C   0  0  0  0  0  2  0  0  0  0  0  0
  185.3600  177.0780  145.5210 C   0  0  0  0  0  2  0  0  0  0  0  0
  187.6220  177.6880  146.1370 C   0  0  2  0  0  3  0  0  0  0  0  0
  185.4710  178.6010  145.6980 C   0  0  2  0  0  3  0  0  0  0  0  0
  186.7500  176.5010  145.7670 C   0  0  0  0  0  2  0  0  0  0  0  0
  188.6690  177.3180  147.1780 C   0  0  0  0  0  2  0  0  0  0  0  0
  189.9810  177.3720  146.5560 N   0  0  0  0  0  2  0  0  0  0  0  0
  192.6410  174.6040  146.4380 C   0  0  0  0  0  1  0  0  0  0  0  0
  191.2360  175.7620  144.5700 C   0  0  0  0  0  1  0  0  0  0  0  0
  190.2010  174.9490  146.6500 C   0  0  0  0  0  2  0  0  0  0  0  0
  191.4620  175.4640  146.0350 C   0  0  0  0  0  0  0  0  0  0  0  0
  190.7650  176.2830  147.1220 C   0  0  1  0  0  3  0  0  0  0  0  0
  184.6060  178.8870  142.2500 C   0  0  0  0  0  2  0  0  0  0  0  0
  183.4060  177.9430  142.1390 C   0  0  0  0  0  2  0  0  0  0  0  0
  183.2090  177.6220  140.6760 C   0  0  0  0  0  2  0  0  0  0  0  0
  181.8170  177.8260  140.0920 C   0  0  1  0  0  3  0  0  0  0  0  0
  181.3730  176.9890  138.9750 N   0  0  0  0  0  2  0  0  0  0  0  0
  183.5590  176.4520  138.3040 O   0  0  0  0  0  0  0  0  0  0  0  0
  182.3140  176.3730  138.0850 C   0  0  0  0  0  0  0  0  0  0  0  0
  182.9820  175.3060  135.9980 C   0  0  0  0  0  1  0  0  0  0  0  0
  181.8160  175.5870  136.9170 C   0  0  1  0  0  3  0  0  0  0  0  0
  181.2040  174.2570  137.3730 C   0  0  0  0  0  2  0  0  0  0  0  0
  179.6990  174.7390  135.6400 N   0  0  0  0  0  2  0  0  0  0  0  0
  179.8570  174.0160  136.8370 N   0  0  0  0  0  0  0  0  0  0  0  0
  178.3320  175.2600  135.6630 C   0  0  0  0  0  2  0  0  0  0  0  0
  177.7820  175.1020  136.9890 N   0  0  0  0  0  2  0  0  0  0  0  0
  178.8100  174.4300  137.7490 C   0  0  0  0  0  2  0  0  0  0  0  0
  180.7370  178.4190  140.9900 C   0  0  0  0  0  2  0  0  0  0  0  0
  179.5990  179.1400  140.2480 C   0  0  1  0  0  3  0  0  0  0  0  0
  178.5160  177.8190  141.7050 C   0  0  0  0  0  1  0  0  0  0  0  0
  178.3310  178.8710  140.8080 O   0  0  0  0  0  0  0  0  0  0  0  0
  179.9260  180.5180  140.1950 O   0  0  0  0  0  0  0  0  0  0  0  0
  179.4780  182.4440  139.0430 O   0  0  0  0  0  0  0  0  0  0  0  0
  178.9550  181.1920  139.4120 C   0  0  2  0  0  3  0  0  0  0  0  0
  178.5250  182.4480  140.0860 C   0  0  0  0  0  2  0  0  0  0  0  0
  186.8680  177.9890  142.5570 C   0  0  0  0  0  2  0  0  0  0  0  0
  186.9130  176.5280  142.0250 C   0  0  0  0  0  2  0  0  0  0  0  0
  188.3170  176.0690  141.6060 C   0  0  0  0  0  2  0  0  0  0  0  0
  188.5860  174.6260  142.0830 C   0  0  0  0  0  2  0  0  0  0  0  0
  189.4510  173.9700  141.2000 O   0  0  0  0  0  0  0  0  0  0  0  0
  189.4410  172.6420  141.6250 C   0  0  2  0  0  3  0  0  0  0  0  0
  189.5570  172.5200  143.1380 C   0  0  0  0  0  1  0  0  0  0  0  0
  190.4810  171.8050  140.8700 C   0  0  0  0  0  2  0  0  0  0  0  0
  194.5980  171.4240  140.5620 O   0  0  0  0  0  0  0  0  0  0  0  0
  194.2770  172.7740  140.3070 C   0  0  1  0  0  3  0  0  0  0  0  0
  192.6910  171.0650  142.0070 C   0  0  0  0  0  2  0  0  0  0  0  0
  191.9500  172.1020  141.1560 C   0  0  1  0  0  0  0  0  0  0  0  0
  192.7730  173.0300  140.3320 C   0  0  1  0  0  0  0  0  0  0  0  0
  194.2140  171.1330  141.8800 C   0  0  1  0  0  3  0  0  0  0  0  0
  192.2010  173.4390  141.5490 O   0  0  0  0  0  0  0  0  0  0  0  0
  192.1540  173.5610  139.1990 O   0  0  0  0  0  1  0  0  0  0  0  0
  195.4280  176.4140  143.5700 O   0  0  0  0  0  0  0  0  0  0  0  0
  195.8660  174.6710  139.8060 C   0  0  1  0  0  3  0  0  0  0  0  0
  196.4000  173.8580  138.7960 O   0  0  0  0  0  1  0  0  0  0  0  0
  195.2580  173.8160  140.9120 C   0  0  1  0  0  3  0  0  0  0  0  0
  194.6790  174.6850  142.0680 C   0  0  2  0  0  3  0  0  0  0  0  0
  195.6150  175.7950  142.4870 C   0  0  0  0  0  0  0  0  0  0  0  0
  197.9270  175.9080  139.7030 O   0  0  0  0  0  0  0  0  0  0  0  0
  194.3720  173.8280  143.2970 C   0  0  0  0  0  1  0  0  0  0  0  0
  196.9060  175.5930  140.3700 C   0  0  0  0  0  0  0  0  0  0  0  0
  196.7450  176.1440  141.6710 N   0  0  0  0  0  2  0  0  0  0  0  0
  194.7640  169.9000  142.2760 O   0  0  0  0  0  0  0  0  0  0  0  0
  196.4240  171.2900  143.0100 F   0  0  0  0  0  0  0  0  0  0  0  0
  196.6480  169.0770  143.3450 F   0  0  0  0  0  0  0  0  0  0  0  0
  196.1630  170.0430  142.4620 C   0  0  0  0  0  0  0  0  0  0  0  0
  196.8490  169.9430  141.2460 F   0  0  0  0  0  0  0  0  0  0  0  0
  1  2  1  0  0  0  0
  4  6  1  0  0  0  0
  4  7  1  0  0  0  0
  5  3  1  0  0  0  0
  5  8  1  1  0  0  0
  6  2  1  6  0  0  0
  6  3  1  0  0  0  0
  7  5  1  0  0  0  0
  9  8  1  0  0  0  0
 11 13  1  0  0  0  0
 12 14  1  0  0  0  0
 13 10  1  0  0  0  0
 13 12  1  0  0  0  0
 13 14  1  0  0  0  0
 14  9  1  6  0  0  0
 15  1  1  0  0  0  0
 16 15  1  0  0  0  0
 17 16  1  0  0  0  0
 18 17  1  1  0  0  0
 18 30  1  0  0  0  0
 19 18  1  0  0  0  0
 21 20  2  0  0  0  0
 21 19  1  0  0  0  0
 23 22  1  6  0  0  0
 23 24  1  0  0  0  0
 23 21  1  0  0  0  0
 25 27  1  0  0  0  0
 25 26  1  0  0  0  0
 26 24  1  0  0  0  0
 26 29  1  0  0  0  0
 27 28  1  0  0  0  0
 28 29  1  0  0  0  0
 31 33  1  0  0  0  0
 31 30  1  1  0  0  0
 33 32  1  0  0  0  0
 34 31  1  0  0  0  0
 35 36  1  0  0  0  0
 35 37  1  0  0  0  0
 36 37  1  0  0  0  0
 36 34  1  1  0  0  0
 38  1  1  0  0  0  0
 39 38  1  0  0  0  0
 40 39  1  0  0  0  0
 40 41  1  0  0  0  0
 42 43  1  0  0  0  0
 42 41  1  0  0  0  0
 43 44  1  1  0  0  0
 45 43  1  0  0  0  0
 46 51  1  0  0  0  0
 47 50  1  0  0  0  0
 47 46  1  1  0  0  0
 49 45  1  6  0  0  0
 49 52  1  0  0  0  0
 49 48  1  0  0  0  0
 50 53  1  6  0  0  0
 50 49  1  0  0  0  0
 50 52  1  0  0  0  0
 51 48  1  0  0  0  0
 51 64  1  6  0  0  0
 55 56  1  6  0  0  0
 55 62  1  0  0  0  0
 55 57  1  0  0  0  0
 57 47  1  6  0  0  0
 57 58  1  0  0  0  0
 58 59  1  0  0  0  0
 58 61  1  1  0  0  0
 59 54  2  0  0  0  0
 60 62  2  0  0  0  0
 62 63  1  0  0  0  0
 63 59  1  0  0  0  0
 64 67  1  0  0  0  0
 67 65  1  0  0  0  0
 67 66  1  0  0  0  0
 68 67  1  0  0  0  0
M  END
>  <MODEL>
2

>  <REMARK>
 VINA RESULT:      -5.0      4.923     11.808
  Name = 
  29 active torsions:
  status: ('A' for Active; 'I' for Inactive)
    1  A    between atoms: C_2  and  N_10
    2  A    between atoms: C_2  and  C_34
    3  A    between atoms: C_2  and  C_42
    4  A    between atoms: C_7  and  C_22
    5  A    between atoms: O_8  and  C_45
    6  A    between atoms: O_8  and  C_62
    7  A    between atoms: C_13  and  C_30
    8  A    between atoms: C_13  and  O_49
    9  A    between atoms: C_16  and  C_42
   10  A    between atoms: C_16  and  C_64
   11  A    between atoms: C_17  and  N_36
   12  A    between atoms: C_17  and  C_65
   13  A    between atoms: C_20  and  O_49
   14  A    between atoms: C_20  and  C_66
   15  A    between atoms: C_21  and  N_43
   16  A    between atoms: C_21  and  C_50
   17  A    between atoms: O_23  and  C_33
   18  A    between atoms: O_23  and  C_53
   19  A    between atoms: C_24  and  C_65
   20  A    between atoms: C_27  and  C_28
   21  A    between atoms: C_27  and  N_43
   22  A    between atoms: C_28  and  C_66
   23  A    between atoms: C_30  and  C_32
   24  A    between atoms: C_33  and  C_34
   25  A    between atoms: C_33  and  O_60
   26  A    between atoms: N_43  and  C_64
   27  A    between atoms: C_44  and  C_54
   28  A    between atoms: C_54  and  N_59
   29  A    between atoms: C_57  and  N_59
                            x       y       z     vdW  Elec       q    Type
                         _______ _______ _______ _____ _____    ______ ____

>  <TORSDO>
F 29

$$$$
=
 OpenBabel11062421053D

 68 74  0  0  1  0  0  0  0  0999 V2000
  190.9720  174.4730  144.5020 N   0  0  0  0  0  0  0  0  0  0  0  0
  192.0030  174.8040  145.4860 C   0  0  0  0  0  2  0  0  0  0  0  0
  193.4870  176.2210  144.1410 C   0  0  0  0  0  2  0  0  0  0  0  0
  193.5540  176.4730  146.5250 C   0  0  0  0  0  2  0  0  0  0  0  0
  194.7560  175.5710  144.6250 C   0  0  2  0  0  3  0  0  0  0  0  0
  192.5860  176.2050  145.3600 C   0  0  2  0  0  3  0  0  0  0  0  0
  194.9370  176.0300  146.0610 C   0  0  0  0  0  2  0  0  0  0  0  0
  195.9690  175.9070  143.7670 C   0  0  0  0  0  2  0  0  0  0  0  0
  197.0750  175.0600  144.1770 N   0  0  0  0  0  2  0  0  0  0  0  0
  195.9600  171.4860  145.0370 C   0  0  0  0  0  1  0  0  0  0  0  0
  197.1820  173.3220  146.4310 C   0  0  0  0  0  1  0  0  0  0  0  0
  197.8790  172.7620  144.1370 C   0  0  0  0  0  2  0  0  0  0  0  0
  196.7270  172.7900  145.0890 C   0  0  0  0  0  0  0  0  0  0  0  0
  196.7040  173.6900  143.8530 C   0  0  1  0  0  3  0  0  0  0  0  0
  191.3480  173.3880  143.5910 C   0  0  0  0  0  2  0  0  0  0  0  0
  192.6190  172.6640  144.0450 C   0  0  0  0  0  2  0  0  0  0  0  0
  192.4520  171.1980  143.7170 C   0  0  0  0  0  2  0  0  0  0  0  0
  192.7250  170.7640  142.2820 C   0  0  1  0  0  3  0  0  0  0  0  0
  194.0560  170.2760  141.9160 N   0  0  0  0  0  2  0  0  0  0  0  0
  194.8450  172.4070  141.3190 O   0  0  0  0  0  0  0  0  0  0  0  0
  195.0540  171.1590  141.3870 C   0  0  0  0  0  0  0  0  0  0  0  0
  196.7850  169.5340  141.9410 C   0  0  0  0  0  1  0  0  0  0  0  0
  196.3750  170.6070  140.9600 C   0  0  1  0  0  3  0  0  0  0  0  0
  196.2840  169.9960  139.5560 C   0  0  0  0  0  2  0  0  0  0  0  0
  197.4250  171.9340  138.8920 N   0  0  0  0  0  2  0  0  0  0  0  0
  197.2450  170.5690  138.6030 N   0  0  0  0  0  0  0  0  0  0  0  0
  197.5090  172.6110  137.5970 C   0  0  0  0  0  2  0  0  0  0  0  0
  197.0870  171.7040  136.5550 N   0  0  0  0  0  2  0  0  0  0  0  0
  196.8010  170.4580  137.2280 C   0  0  0  0  0  2  0  0  0  0  0  0
  191.5500  170.2840  141.4370 C   0  0  0  0  0  2  0  0  0  0  0  0
  190.9800  171.3290  140.4640 C   0  0  1  0  0  3  0  0  0  0  0  0
  191.2650  173.2290  139.3030 C   0  0  0  0  0  1  0  0  0  0  0  0
  191.8330  172.4430  140.3040 O   0  0  0  0  0  0  0  0  0  0  0  0
  190.6680  170.6620  139.2520 O   0  0  0  0  0  0  0  0  0  0  0  0
  192.4620  169.7340  138.1780 O   0  0  0  0  0  0  0  0  0  0  0  0
  191.4710  169.4990  139.1480 C   0  0  2  0  0  3  0  0  0  0  0  0
  191.3770  168.9250  137.7770 C   0  0  0  0  0  2  0  0  0  0  0  0
  189.6380  174.3210  145.0810 C   0  0  0  0  0  2  0  0  0  0  0  0
  189.0500  175.5910  145.7600 C   0  0  0  0  0  2  0  0  0  0  0  0
  188.5370  175.3430  147.1860 C   0  0  0  0  0  2  0  0  0  0  0  0
  187.9800  176.6450  147.8010 C   0  0  0  0  0  2  0  0  0  0  0  0
  187.7290  177.5920  146.8020 O   0  0  0  0  0  0  0  0  0  0  0  0
  186.4380  178.0450  147.0680 C   0  0  2  0  0  3  0  0  0  0  0  0
  185.4700  176.9010  147.3390 C   0  0  0  0  0  1  0  0  0  0  0  0
  185.9460  179.0070  145.9790 C   0  0  0  0  0  2  0  0  0  0  0  0
  185.0040  178.9700  141.9420 O   0  0  0  0  0  0  0  0  0  0  0  0
  186.2510  178.3260  142.0920 C   0  0  1  0  0  3  0  0  0  0  0  0
  184.2280  178.3560  144.1500 C   0  0  0  0  0  2  0  0  0  0  0  0
  185.6930  178.4160  144.5960 C   0  0  1  0  0  0  0  0  0  0  0  0
  186.7380  178.3300  143.5380 C   0  0  1  0  0  0  0  0  0  0  0  0
  184.0460  178.2160  142.6370 C   0  0  1  0  0  3  0  0  0  0  0  0
  186.4110  177.2220  144.3400 O   0  0  0  0  0  0  0  0  0  0  0  0
  187.9700  178.9150  143.8400 O   0  0  0  0  0  1  0  0  0  0  0  0
  188.4410  173.9260  141.0680 O   0  0  0  0  0  0  0  0  0  0  0  0
  186.7290  177.4960  139.7560 C   0  0  1  0  0  3  0  0  0  0  0  0
  185.7400  178.3870  139.3170 O   0  0  0  0  0  1  0  0  0  0  0  0
  186.4640  177.0740  141.1980 C   0  0  1  0  0  3  0  0  0  0  0  0
  187.5270  176.0600  141.7120 C   0  0  2  0  0  3  0  0  0  0  0  0
  187.8190  174.9640  140.7140 C   0  0  0  0  0  0  0  0  0  0  0  0
  186.4070  176.3340  137.6750 O   0  0  0  0  0  0  0  0  0  0  0  0
  187.0760  175.4090  143.0200 C   0  0  0  0  0  1  0  0  0  0  0  0
  186.8120  176.2910  138.8670 C   0  0  0  0  0  0  0  0  0  0  0  0
  187.3690  175.0780  139.3540 N   0  0  0  0  0  2  0  0  0  0  0  0
  182.7540  178.6490  142.2870 O   0  0  0  0  0  0  0  0  0  0  0  0
  182.4920  179.2080  140.0860 F   0  0  0  0  0  0  0  0  0  0  0  0
  183.3310  177.1820  140.5890 F   0  0  0  0  0  0  0  0  0  0  0  0
  182.4250  178.1640  140.9960 C   0  0  0  0  0  0  0  0  0  0  0  0
  181.1290  177.6360  140.9680 F   0  0  0  0  0  0  0  0  0  0  0  0
  1 38  1  0  0  0  0
  1  2  1  0  0  0  0
  3  5  1  0  0  0  0
  3  6  1  0  0  0  0
  5  8  1  6  0  0  0
  5  7  1  0  0  0  0
  6  2  1  1  0  0  0
  6  4  1  0  0  0  0
  7  4  1  0  0  0  0
  8  9  1  0  0  0  0
 10 13  1  0  0  0  0
 12 13  1  0  0  0  0
 13 11  1  0  0  0  0
 14 12  1  0  0  0  0
 14  9  1  1  0  0  0
 14 13  1  0  0  0  0
 15 16  1  0  0  0  0
 15  1  1  0  0  0  0
 17 16  1  0  0  0  0
 18 30  1  1  0  0  0
 18 17  1  0  0  0  0
 19 18  1  0  0  0  0
 20 21  2  0  0  0  0
 21 19  1  0  0  0  0
 23 21  1  0  0  0  0
 23 22  1  1  0  0  0
 24 23  1  0  0  0  0
 26 25  1  0  0  0  0
 26 24  1  0  0  0  0
 27 25  1  0  0  0  0
 28 29  1  0  0  0  0
 28 27  1  0  0  0  0
 29 26  1  0  0  0  0
 31 30  1  1  0  0  0
 32 33  1  0  0  0  0
 33 31  1  0  0  0  0
 34 31  1  0  0  0  0
 35 36  1  0  0  0  0
 36 34  1  6  0  0  0
 37 35  1  0  0  0  0
 37 36  1  0  0  0  0
 38 39  1  0  0  0  0
 39 40  1  0  0  0  0
 40 41  1  0  0  0  0
 42 43  1  0  0  0  0
 42 41  1  0  0  0  0
 43 44  1  6  0  0  0
 45 43  1  0  0  0  0
 46 51  1  0  0  0  0
 47 46  1  1  0  0  0
 47 50  1  0  0  0  0
 48 49  1  0  0  0  0
 49 45  1  1  0  0  0
 50 53  1  1  0  0  0
 50 52  1  0  0  0  0
 50 49  1  0  0  0  0
 51 64  1  1  0  0  0
 51 48  1  0  0  0  0
 52 49  1  0  0  0  0
 55 56  1  6  0  0  0
 55 57  1  0  0  0  0
 57 58  1  0  0  0  0
 57 47  1  1  0  0  0
 58 61  1  1  0  0  0
 59 54  2  0  0  0  0
 59 58  1  0  0  0  0
 60 62  2  0  0  0  0
 62 63  1  0  0  0  0
 62 55  1  0  0  0  0
 63 59  1  0  0  0  0
 65 67  1  0  0  0  0
 66 67  1  0  0  0  0
 67 64  1  0  0  0  0
 68 67  1  0  0  0  0
M  END
>  <MODEL>
3

>  <REMARK>
 VINA RESULT:      -4.8      1.486      2.277
  Name = 
  29 active torsions:
  status: ('A' for Active; 'I' for Inactive)
    1  A    between atoms: C_2  and  N_10
    2  A    between atoms: C_2  and  C_34
    3  A    between atoms: C_2  and  C_42
    4  A    between atoms: C_7  and  C_22
    5  A    between atoms: O_8  and  C_45
    6  A    between atoms: O_8  and  C_62
    7  A    between atoms: C_13  and  C_30
    8  A    between atoms: C_13  and  O_49
    9  A    between atoms: C_16  and  C_42
   10  A    between atoms: C_16  and  C_64
   11  A    between atoms: C_17  and  N_36
   12  A    between atoms: C_17  and  C_65
   13  A    between atoms: C_20  and  O_49
   14  A    between atoms: C_20  and  C_66
   15  A    between atoms: C_21  and  N_43
   16  A    between atoms: C_21  and  C_50
   17  A    between atoms: O_23  and  C_33
   18  A    between atoms: O_23  and  C_53
   19  A    between atoms: C_24  and  C_65
   20  A    between atoms: C_27  and  C_28
   21  A    between atoms: C_27  and  N_43
   22  A    between atoms: C_28  and  C_66
   23  A    between atoms: C_30  and  C_32
   24  A    between atoms: C_33  and  C_34
   25  A    between atoms: C_33  and  O_60
   26  A    between atoms: N_43  and  C_64
   27  A    between atoms: C_44  and  C_54
   28  A    between atoms: C_54  and  N_59
   29  A    between atoms: C_57  and  N_59
                            x       y       z     vdW  Elec       q    Type
                         _______ _______ _______ _____ _____    ______ ____

>  <TORSDO>
F 29

$$$$
=
 OpenBabel11062421053D

 68 74  0  0  1  0  0  0  0  0999 V2000
  194.2090  173.9770  140.7120 N   0  0  0  0  0  0  0  0  0  0  0  0
  194.5280  172.8130  139.8840 C   0  0  0  0  0  2  0  0  0  0  0  0
  194.7950  173.2370  137.4830 C   0  0  0  0  0  2  0  0  0  0  0  0
  196.3890  171.7980  138.5510 C   0  0  0  0  0  2  0  0  0  0  0  0
  194.4730  171.8260  137.0680 C   0  0  2  0  0  3  0  0  0  0  0  0
  195.5510  173.0670  138.7860 C   0  0  2  0  0  3  0  0  0  0  0  0
  195.6730  170.9890  137.4760 C   0  0  0  0  0  2  0  0  0  0  0  0
  194.1680  171.6900  135.5830 C   0  0  0  0  0  2  0  0  0  0  0  0
  192.7890  171.2600  135.4300 N   0  0  0  0  0  2  0  0  0  0  0  0
  189.7210  173.3060  136.5070 C   0  0  0  0  0  1  0  0  0  0  0  0
  190.1250  170.7370  136.2910 C   0  0  0  0  0  1  0  0  0  0  0  0
  190.7900  172.3040  134.5130 C   0  0  0  0  0  2  0  0  0  0  0  0
  190.5530  172.1550  135.9810 C   0  0  0  0  0  0  0  0  0  0  0  0
  191.9620  172.4580  135.4740 C   0  0  1  0  0  3  0  0  0  0  0  0
  194.9390  175.1910  140.3360 C   0  0  0  0  0  2  0  0  0  0  0  0
  195.6500  175.8330  141.5300 C   0  0  0  0  0  2  0  0  0  0  0  0
  196.1570  174.7170  142.4140 C   0  0  0  0  0  2  0  0  0  0  0  0
  195.2560  174.2580  143.5530 C   0  0  1  0  0  3  0  0  0  0  0  0
  195.6940  173.1640  144.4240 N   0  0  0  0  0  2  0  0  0  0  0  0
  196.7470  171.9900  142.6830 O   0  0  0  0  0  0  0  0  0  0  0  0
  196.3950  172.0290  143.8990 C   0  0  0  0  0  0  0  0  0  0  0  0
  196.8930  171.4470  146.2130 C   0  0  0  0  0  1  0  0  0  0  0  0
  196.7610  170.9030  144.8110 C   0  0  1  0  0  3  0  0  0  0  0  0
  195.6820  169.8130  144.7940 C   0  0  0  0  0  2  0  0  0  0  0  0
  193.7010  170.2890  143.6340 N   0  0  0  0  0  2  0  0  0  0  0  0
  194.9750  169.7060  143.5100 N   0  0  0  0  0  0  0  0  0  0  0  0
  192.7900  169.4260  142.8810 C   0  0  0  0  0  2  0  0  0  0  0  0
  193.4590  168.1860  142.5630 N   0  0  0  0  0  2  0  0  0  0  0  0
  194.7990  168.3330  143.0820 C   0  0  0  0  0  2  0  0  0  0  0  0
  194.2610  175.2560  144.1350 C   0  0  0  0  0  2  0  0  0  0  0  0
  193.8900  175.0190  145.6080 C   0  0  1  0  0  3  0  0  0  0  0  0
  192.6190  175.7430  147.3120 C   0  0  0  0  0  1  0  0  0  0  0  0
  193.3870  176.1810  146.2340 O   0  0  0  0  0  0  0  0  0  0  0  0
  193.0090  173.9090  145.6570 O   0  0  0  0  0  0  0  0  0  0  0  0
  190.7830  173.8720  145.1280 O   0  0  0  0  0  0  0  0  0  0  0  0
  192.0760  174.0170  144.5940 C   0  0  2  0  0  3  0  0  0  0  0  0
  191.3070  172.7500  144.4500 C   0  0  0  0  0  2  0  0  0  0  0  0
  192.7740  174.1850  140.8990 C   0  0  0  0  0  2  0  0  0  0  0  0
  191.8460  173.3780  139.9460 C   0  0  0  0  0  2  0  0  0  0  0  0
  191.2440  172.1220  140.5940 C   0  0  0  0  0  2  0  0  0  0  0  0
  189.8260  171.8510  140.0480 C   0  0  0  0  0  2  0  0  0  0  0  0
  189.1920  173.0520  139.7090 O   0  0  0  0  0  0  0  0  0  0  0  0
  188.6510  173.5110  140.9090 C   0  0  2  0  0  3  0  0  0  0  0  0
  187.5800  172.5770  141.4530 C   0  0  0  0  0  1  0  0  0  0  0  0
  188.1820  174.9660  140.7900 C   0  0  0  0  0  2  0  0  0  0  0  0
  188.7360  178.1290  143.4120 O   0  0  0  0  0  0  0  0  0  0  0  0
  187.3470  177.9040  143.3060 C   0  0  1  0  0  3  0  0  0  0  0  0
  189.3170  175.8250  142.9570 C   0  0  0  0  0  2  0  0  0  0  0  0
  188.0580  175.7610  142.0860 C   0  0  1  0  0  0  0  0  0  0  0  0
  187.0110  176.7950  142.3150 C   0  0  1  0  0  0  0  0  0  0  0  0
  189.3160  176.9780  143.9650 C   0  0  1  0  0  3  0  0  0  0  0  0
  186.8770  175.4890  142.8180 O   0  0  0  0  0  0  0  0  0  0  0  0
  186.1790  177.0800  141.2300 O   0  0  0  0  0  1  0  0  0  0  0  0
  186.1300  176.3550  147.9250 O   0  0  0  0  0  0  0  0  0  0  0  0
  185.0620  178.2010  144.3410 C   0  0  1  0  0  3  0  0  0  0  0  0
  184.8570  179.2300  143.4110 O   0  0  0  0  0  1  0  0  0  0  0  0
  186.5500  178.0370  144.6340 C   0  0  1  0  0  3  0  0  0  0  0  0
  186.8160  176.9200  145.6860 C   0  0  2  0  0  3  0  0  0  0  0  0
  185.8830  177.0020  146.8710 C   0  0  0  0  0  0  0  0  0  0  0  0
  183.2890  179.1980  145.6240 O   0  0  0  0  0  0  0  0  0  0  0  0
  188.2540  176.9860  146.2030 C   0  0  0  0  0  1  0  0  0  0  0  0
  184.3050  178.4530  145.6100 C   0  0  0  0  0  0  0  0  0  0  0  0
  184.7140  177.8370  146.8240 N   0  0  0  0  0  2  0  0  0  0  0  0
  190.6410  177.2500  144.3520 O   0  0  0  0  0  0  0  0  0  0  0  0
  191.7220  179.1760  143.7630 F   0  0  0  0  0  0  0  0  0  0  0  0
  192.4430  177.2310  142.8950 F   0  0  0  0  0  0  0  0  0  0  0  0
  191.3090  177.9350  143.3050 C   0  0  0  0  0  0  0  0  0  0  0  0
  190.4640  178.1270  142.2060 F   0  0  0  0  0  0  0  0  0  0  0  0
  1 38  1  0  0  0  0
  2  1  1  0  0  0  0
  3  6  1  0  0  0  0
  4  6  1  0  0  0  0
  5  8  1  6  0  0  0
  5  7  1  0  0  0  0
  5  3  1  0  0  0  0
  6  2  1  1  0  0  0
  7  4  1  0  0  0  0
  9  8  1  0  0  0  0
 12 14  1  0  0  0  0
 12 13  1  0  0  0  0
 13 11  1  0  0  0  0
 13 10  1  0  0  0  0
 14  9  1  6  0  0  0
 14 13  1  0  0  0  0
 15  1  1  0  0  0  0
 15 16  1  0  0  0  0
 16 17  1  0  0  0  0
 18 17  1  1  0  0  0
 18 30  1  0  0  0  0
 18 19  1  0  0  0  0
 20 21  2  0  0  0  0
 21 19  1  0  0  0  0
 21 23  1  0  0  0  0
 23 22  1  1  0  0  0
 24 23  1  0  0  0  0
 26 25  1  0  0  0  0
 26 24  1  0  0  0  0
 27 25  1  0  0  0  0
 28 27  1  0  0  0  0
 28 29  1  0  0  0  0
 29 26  1  0  0  0  0
 31 30  1  6  0  0  0
 31 34  1  0  0  0  0
 31 33  1  0  0  0  0
 33 32  1  0  0  0  0
 36 35  1  0  0  0  0
 36 34  1  1  0  0  0
 37 36  1  0  0  0  0
 37 35  1  0  0  0  0
 39 40  1  0  0  0  0
 39 38  1  0  0  0  0
 41 40  1  0  0  0  0
 42 41  1  0  0  0  0
 42 43  1  0  0  0  0
 43 44  1  6  0  0  0
 45 43  1  0  0  0  0
 46 51  1  0  0  0  0
 47 46  1  1  0  0  0
 48 51  1  0  0  0  0
 49 45  1  6  0  0  0
 49 50  1  0  0  0  0
 49 52  1  0  0  0  0
 49 48  1  0  0  0  0
 50 53  1  6  0  0  0
 50 52  1  0  0  0  0
 50 47  1  0  0  0  0
 51 64  1  6  0  0  0
 55 56  1  6  0  0  0
 55 57  1  0  0  0  0
 55 62  1  0  0  0  0
 57 47  1  6  0  0  0
 57 58  1  0  0  0  0
 58 61  1  1  0  0  0
 58 59  1  0  0  0  0
 59 54  2  0  0  0  0
 62 60  2  0  0  0  0
 62 63  1  0  0  0  0
 63 59  1  0  0  0  0
 66 67  1  0  0  0  0
 67 65  1  0  0  0  0
 67 64  1  0  0  0  0
 68 67  1  0  0  0  0
M  END
>  <MODEL>
4

>  <REMARK>
 VINA RESULT:      -4.7      3.232      7.566
  Name = 
  29 active torsions:
  status: ('A' for Active; 'I' for Inactive)
    1  A    between atoms: C_2  and  N_10
    2  A    between atoms: C_2  and  C_34
    3  A    between atoms: C_2  and  C_42
    4  A    between atoms: C_7  and  C_22
    5  A    between atoms: O_8  and  C_45
    6  A    between atoms: O_8  and  C_62
    7  A    between atoms: C_13  and  C_30
    8  A    between atoms: C_13  and  O_49
    9  A    between atoms: C_16  and  C_42
   10  A    between atoms: C_16  and  C_64
   11  A    between atoms: C_17  and  N_36
   12  A    between atoms: C_17  and  C_65
   13  A    between atoms: C_20  and  O_49
   14  A    between atoms: C_20  and  C_66
   15  A    between atoms: C_21  and  N_43
   16  A    between atoms: C_21  and  C_50
   17  A    between atoms: O_23  and  C_33
   18  A    between atoms: O_23  and  C_53
   19  A    between atoms: C_24  and  C_65
   20  A    between atoms: C_27  and  C_28
   21  A    between atoms: C_27  and  N_43
   22  A    between atoms: C_28  and  C_66
   23  A    between atoms: C_30  and  C_32
   24  A    between atoms: C_33  and  C_34
   25  A    between atoms: C_33  and  O_60
   26  A    between atoms: N_43  and  C_64
   27  A    between atoms: C_44  and  C_54
   28  A    between atoms: C_54  and  N_59
   29  A    between atoms: C_57  and  N_59
                            x       y       z     vdW  Elec       q    Type
                         _______ _______ _______ _____ _____    ______ ____

>  <TORSDO>
F 29

$$$$
=
 OpenBabel11062421053D

 68 74  0  0  1  0  0  0  0  0999 V2000
  193.8200  171.1640  142.5220 N   0  0  0  0  0  0  0  0  0  0  0  0
  194.9450  170.6200  143.2830 C   0  0  0  0  0  2  0  0  0  0  0  0
  194.5200  172.2950  145.0230 C   0  0  0  0  0  2  0  0  0  0  0  0
  196.2740  170.7050  145.4030 C   0  0  0  0  0  2  0  0  0  0  0  0
  195.8280  173.0160  144.8280 C   0  0  2  0  0  3  0  0  0  0  0  0
  194.8710  170.8400  144.7870 C   0  0  2  0  0  3  0  0  0  0  0  0
  196.8970  172.0960  145.3920 C   0  0  0  0  0  2  0  0  0  0  0  0
  195.8610  174.3900  145.4830 C   0  0  0  0  0  2  0  0  0  0  0  0
  194.5380  174.6870  146.0040 N   0  0  0  0  0  2  0  0  0  0  0  0
  192.2980  177.3070  144.3080 C   0  0  0  0  0  1  0  0  0  0  0  0
  192.4870  174.7200  144.0280 C   0  0  0  0  0  1  0  0  0  0  0  0
  194.4800  176.1640  144.0690 C   0  0  0  0  0  2  0  0  0  0  0  0
  193.0660  176.0220  144.5350 C   0  0  0  0  0  0  0  0  0  0  0  0
  194.1990  176.0330  145.5610 C   0  0  1  0  0  3  0  0  0  0  0  0
  194.1790  171.6190  141.1760 C   0  0  0  0  0  2  0  0  0  0  0  0
  195.5510  171.1030  140.7360 C   0  0  0  0  0  2  0  0  0  0  0  0
  195.3320  170.1340  139.5980 C   0  0  0  0  0  2  0  0  0  0  0  0
  194.7680  170.6930  138.2980 C   0  0  1  0  0  3  0  0  0  0  0  0
  195.4440  171.8140  137.6400 N   0  0  0  0  0  2  0  0  0  0  0  0
  197.5820  170.8730  137.8870 O   0  0  0  0  0  0  0  0  0  0  0  0
  196.8720  171.8560  137.5200 C   0  0  0  0  0  0  0  0  0  0  0  0
  197.2100  173.0620  135.4290 C   0  0  0  0  0  1  0  0  0  0  0  0
  197.5250  173.0510  136.9060 C   0  0  1  0  0  3  0  0  0  0  0  0
  197.0030  174.3460  137.5400 C   0  0  0  0  0  2  0  0  0  0  0  0
  195.6630  174.7790  139.4160 N   0  0  0  0  0  2  0  0  0  0  0  0
  196.9170  174.2890  139.0070 N   0  0  0  0  0  0  0  0  0  0  0  0
  195.9150  175.5670  140.6230 C   0  0  0  0  0  2  0  0  0  0  0  0
  197.3350  175.7900  140.7610 N   0  0  0  0  0  2  0  0  0  0  0  0
  197.9400  175.0820  139.6570 C   0  0  0  0  0  2  0  0  0  0  0  0
  193.9320  169.7710  137.4170 C   0  0  0  0  0  2  0  0  0  0  0  0
  192.4260  170.0800  137.3970 C   0  0  1  0  0  3  0  0  0  0  0  0
  192.1480  168.8720  139.2690 C   0  0  0  0  0  1  0  0  0  0  0  0
  191.8620  170.1080  138.6920 O   0  0  0  0  0  0  0  0  0  0  0  0
  192.2430  171.2780  136.6620 O   0  0  0  0  0  0  0  0  0  0  0  0
  190.2480  171.0200  135.5700 O   0  0  0  0  0  0  0  0  0  0  0  0
  190.8670  171.6220  136.6800 C   0  0  2  0  0  3  0  0  0  0  0  0
  190.5120  172.4020  135.4620 C   0  0  0  0  0  2  0  0  0  0  0  0
  192.6250  170.3230  142.5610 C   0  0  0  0  0  2  0  0  0  0  0  0
  191.3560  170.9810  143.1750 C   0  0  0  0  0  2  0  0  0  0  0  0
  190.1440  170.9760  142.2320 C   0  0  0  0  0  2  0  0  0  0  0  0
  190.4160  171.8480  140.9870 C   0  0  0  0  0  2  0  0  0  0  0  0
  190.1920  173.1990  141.2760 O   0  0  0  0  0  0  0  0  0  0  0  0
  188.8760  173.4270  140.8780 C   0  0  2  0  0  3  0  0  0  0  0  0
  188.5350  172.7140  139.5770 C   0  0  0  0  0  1  0  0  0  0  0  0
  188.5520  174.9260  140.8490 C   0  0  0  0  0  2  0  0  0  0  0  0
  189.1390  176.9190  144.4360 O   0  0  0  0  0  0  0  0  0  0  0  0
  188.1780  177.6450  143.7000 C   0  0  1  0  0  3  0  0  0  0  0  0
  188.5490  174.7960  143.4380 C   0  0  0  0  0  2  0  0  0  0  0  0
  188.1790  175.5800  142.1750 C   0  0  1  0  0  0  0  0  0  0  0  0
  187.9200  177.0400  142.3240 C   0  0  1  0  0  0  0  0  0  0  0  0
  188.6040  175.6510  144.7060 C   0  0  1  0  0  3  0  0  0  0  0  0
  186.8680  176.1140  142.2060 O   0  0  0  0  0  0  0  0  0  0  0  0
  188.1280  177.8220  141.1860 O   0  0  0  0  0  1  0  0  0  0  0  0
  185.6630  178.2470  148.0040 O   0  0  0  0  0  0  0  0  0  0  0  0
  185.6740  177.9330  143.8450 C   0  0  1  0  0  3  0  0  0  0  0  0
  185.7170  178.3390  142.5030 O   0  0  0  0  0  1  0  0  0  0  0  0
  187.0030  178.2260  144.5330 C   0  0  1  0  0  3  0  0  0  0  0  0
  186.9830  177.8150  146.0350 C   0  0  2  0  0  3  0  0  0  0  0  0
  185.7240  178.2570  146.7440 C   0  0  0  0  0  0  0  0  0  0  0  0
  183.5420  179.0410  143.9630 O   0  0  0  0  0  0  0  0  0  0  0  0
  188.1830  178.4010  146.7790 C   0  0  0  0  0  1  0  0  0  0  0  0
  184.5470  178.5970  144.5790 C   0  0  0  0  0  0  0  0  0  0  0  0
  184.5890  178.7200  145.9940 N   0  0  0  0  0  2  0  0  0  0  0  0
  189.3930  174.9950  145.6690 O   0  0  0  0  0  0  0  0  0  0  0  0
  189.4590  176.2120  147.6030 F   0  0  0  0  0  0  0  0  0  0  0  0
  187.4630  175.5020  146.8480 F   0  0  0  0  0  0  0  0  0  0  0  0
  188.8160  175.1710  146.9530 C   0  0  0  0  0  0  0  0  0  0  0  0
  188.9480  174.0150  147.7300 F   0  0  0  0  0  0  0  0  0  0  0  0
  1 38  1  0  0  0  0
  1  2  1  0  0  0  0
  5  3  1  0  0  0  0
  5  7  1  0  0  0  0
  5  8  1  1  0  0  0
  6  2  1  6  0  0  0
  6  3  1  0  0  0  0
  6  4  1  0  0  0  0
  7  4  1  0  0  0  0
  8  9  1  0  0  0  0
 10 13  1  0  0  0  0
 11 13  1  0  0  0  0
 12 13  1  0  0  0  0
 12 14  1  0  0  0  0
 13 14  1  0  0  0  0
 14  9  1  6  0  0  0
 15  1  1  0  0  0  0
 16 15  1  0  0  0  0
 17 16  1  0  0  0  0
 18 30  1  6  0  0  0
 18 17  1  0  0  0  0
 19 18  1  0  0  0  0
 21 19  1  0  0  0  0
 21 20  2  0  0  0  0
 23 22  1  6  0  0  0
 23 21  1  0  0  0  0
 23 24  1  0  0  0  0
 24 26  1  0  0  0  0
 25 27  1  0  0  0  0
 26 25  1  0  0  0  0
 26 29  1  0  0  0  0
 27 28  1  0  0  0  0
 29 28  1  0  0  0  0
 31 30  1  1  0  0  0
 31 33  1  0  0  0  0
 33 32  1  0  0  0  0
 34 31  1  0  0  0  0
 35 36  1  0  0  0  0
 36 34  1  6  0  0  0
 37 35  1  0  0  0  0
 37 36  1  0  0  0  0
 38 39  1  0  0  0  0
 40 39  1  0  0  0  0
 41 42  1  0  0  0  0
 41 40  1  0  0  0  0
 43 44  1  6  0  0  0
 43 42  1  0  0  0  0
 45 43  1  0  0  0  0
 46 51  1  0  0  0  0
 47 46  1  1  0  0  0
 48 51  1  0  0  0  0
 49 45  1  6  0  0  0
 49 52  1  0  0  0  0
 49 50  1  0  0  0  0
 49 48  1  0  0  0  0
 50 53  1  6  0  0  0
 50 47  1  0  0  0  0
 51 64  1  1  0  0  0
 52 50  1  0  0  0  0
 55 56  1  6  0  0  0
 55 57  1  0  0  0  0
 55 62  1  0  0  0  0
 57 47  1  6  0  0  0
 57 58  1  0  0  0  0
 58 59  1  0  0  0  0
 58 61  1  1  0  0  0
 59 54  2  0  0  0  0
 60 62  2  0  0  0  0
 62 63  1  0  0  0  0
 63 59  1  0  0  0  0
 64 67  1  0  0  0  0
 66 67  1  0  0  0  0
 67 65  1  0  0  0  0
 67 68  1  0  0  0  0
M  END
>  <MODEL>
5

>  <REMARK>
 VINA RESULT:      -4.7      3.025      6.295
  Name = 
  29 active torsions:
  status: ('A' for Active; 'I' for Inactive)
    1  A    between atoms: C_2  and  N_10
    2  A    between atoms: C_2  and  C_34
    3  A    between atoms: C_2  and  C_42
    4  A    between atoms: C_7  and  C_22
    5  A    between atoms: O_8  and  C_45
    6  A    between atoms: O_8  and  C_62
    7  A    between atoms: C_13  and  C_30
    8  A    between atoms: C_13  and  O_49
    9  A    between atoms: C_16  and  C_42
   10  A    between atoms: C_16  and  C_64
   11  A    between atoms: C_17  and  N_36
   12  A    between atoms: C_17  and  C_65
   13  A    between atoms: C_20  and  O_49
   14  A    between atoms: C_20  and  C_66
   15  A    between atoms: C_21  and  N_43
   16  A    between atoms: C_21  and  C_50
   17  A    between atoms: O_23  and  C_33
   18  A    between atoms: O_23  and  C_53
   19  A    between atoms: C_24  and  C_65
   20  A    between atoms: C_27  and  C_28
   21  A    between atoms: C_27  and  N_43
   22  A    between atoms: C_28  and  C_66
   23  A    between atoms: C_30  and  C_32
   24  A    between atoms: C_33  and  C_34
   25  A    between atoms: C_33  and  O_60
   26  A    between atoms: N_43  and  C_64
   27  A    between atoms: C_44  and  C_54
   28  A    between atoms: C_54  and  N_59
   29  A    between atoms: C_57  and  N_59
                            x       y       z     vdW  Elec       q    Type
                         _______ _______ _______ _____ _____    ______ ____

>  <TORSDO>
F 29

$$$$
=
 OpenBabel11062421053D

 68 74  0  0  1  0  0  0  0  0999 V2000
  191.2010  173.3940  140.9340 N   0  0  0  0  0  0  0  0  0  0  0  0
  190.8310  172.0970  140.3670 C   0  0  0  0  0  2  0  0  0  0  0  0
  191.5600  171.0700  142.4720 C   0  0  0  0  0  2  0  0  0  0  0  0
  190.6950  169.6280  140.7620 C   0  0  0  0  0  2  0  0  0  0  0  0
  192.7310  170.3460  141.8610 C   0  0  2  0  0  3  0  0  0  0  0  0
  190.5000  171.0190  141.3900 C   0  0  2  0  0  3  0  0  0  0  0  0
  192.1380  169.2180  141.0350 C   0  0  0  0  0  2  0  0  0  0  0  0
  193.7230  169.8290  142.8940 C   0  0  0  0  0  2  0  0  0  0  0  0
  194.9420  170.6140  142.7990 N   0  0  0  0  0  2  0  0  0  0  0  0
  196.8480  171.5500  146.0000 C   0  0  0  0  0  1  0  0  0  0  0  0
  197.0190  169.4980  144.3980 C   0  0  0  0  0  1  0  0  0  0  0  0
  194.8480  170.3240  145.2150 C   0  0  0  0  0  2  0  0  0  0  0  0
  196.2560  170.7080  144.8900 C   0  0  0  0  0  0  0  0  0  0  0  0
  195.1070  171.3000  144.0730 C   0  0  1  0  0  3  0  0  0  0  0  0
  192.4740  173.9200  140.4310 C   0  0  0  0  0  2  0  0  0  0  0  0
  192.6660  173.6420  138.9380 C   0  0  0  0  0  2  0  0  0  0  0  0
  194.1520  173.5580  138.6760 C   0  0  0  0  0  2  0  0  0  0  0  0
  194.6460  172.4240  137.7880 C   0  0  1  0  0  3  0  0  0  0  0  0
  193.7110  171.3780  137.3650 N   0  0  0  0  0  2  0  0  0  0  0  0
  193.1870  172.4480  135.3400 O   0  0  0  0  0  0  0  0  0  0  0  0
  192.9730  171.4900  136.1400 C   0  0  0  0  0  0  0  0  0  0  0  0
  192.6230  169.0830  135.9760 C   0  0  0  0  0  1  0  0  0  0  0  0
  191.9780  170.4350  135.7820 C   0  0  1  0  0  3  0  0  0  0  0  0
  190.7340  170.5320  136.6720 C   0  0  0  0  0  2  0  0  0  0  0  0
  189.9590  171.6200  134.7450 N   0  0  0  0  0  2  0  0  0  0  0  0
  189.6590  171.3500  136.0920 N   0  0  0  0  0  0  0  0  0  0  0  0
  189.5550  173.0080  134.5140 C   0  0  0  0  0  2  0  0  0  0  0  0
  189.2950  173.6470  135.7820 N   0  0  0  0  0  2  0  0  0  0  0  0
  189.4910  172.6170  136.7750 C   0  0  0  0  0  2  0  0  0  0  0  0
  195.8560  172.6790  136.8960 C   0  0  0  0  0  2  0  0  0  0  0  0
  196.6380  171.4200  136.4860 C   0  0  1  0  0  3  0  0  0  0  0  0
  196.9340  172.8290  134.7630 C   0  0  0  0  0  1  0  0  0  0  0  0
  197.2810  171.5650  135.2370 O   0  0  0  0  0  0  0  0  0  0  0  0
  197.5140  171.0920  137.5510 O   0  0  0  0  0  0  0  0  0  0  0  0
  196.5550  169.8130  139.1880 O   0  0  0  0  0  0  0  0  0  0  0  0
  197.2520  169.7630  137.9680 C   0  0  2  0  0  3  0  0  0  0  0  0
  197.9260  169.4850  139.2670 C   0  0  0  0  0  2  0  0  0  0  0  0
  190.1130  174.3700  140.9210 C   0  0  0  0  0  2  0  0  0  0  0  0
  188.9220  174.0390  139.9760 C   0  0  0  0  0  2  0  0  0  0  0  0
  187.5830  174.6260  140.4470 C   0  0  0  0  0  2  0  0  0  0  0  0
  187.7980  175.9840  141.1480 C   0  0  0  0  0  2  0  0  0  0  0  0
  186.6520  176.3560  141.8610 O   0  0  0  0  0  0  0  0  0  0  0  0
  187.1240  177.2050  142.8610 C   0  0  2  0  0  3  0  0  0  0  0  0
  188.2740  178.0770  142.3820 C   0  0  0  0  0  1  0  0  0  0  0  0
  187.4460  176.4300  144.1450 C   0  0  0  0  0  2  0  0  0  0  0  0
  190.6480  175.7450  146.6870 O   0  0  0  0  0  0  0  0  0  0  0  0
  191.0260  175.3050  145.4010 C   0  0  1  0  0  3  0  0  0  0  0  0
  189.1240  177.4270  145.8510 C   0  0  0  0  0  2  0  0  0  0  0  0
  188.8820  176.5020  144.6550 C   0  0  1  0  0  0  0  0  0  0  0  0
  189.9010  175.4500  144.3820 C   0  0  1  0  0  0  0  0  0  0  0  0
  190.4150  177.1260  146.6170 C   0  0  1  0  0  3  0  0  0  0  0  0
  189.8500  176.6370  143.6300 O   0  0  0  0  0  0  0  0  0  0  0  0
  189.4500  174.3180  143.6990 O   0  0  0  0  0  1  0  0  0  0  0  0
  194.5690  176.3250  141.9920 O   0  0  0  0  0  0  0  0  0  0  0  0
  193.4390  174.5930  145.6140 C   0  0  1  0  0  3  0  0  0  0  0  0
  193.2070  174.4790  146.9920 O   0  0  0  0  0  1  0  0  0  0  0  0
  192.4930  175.6180  144.9970 C   0  0  1  0  0  3  0  0  0  0  0  0
  192.7420  175.7940  143.4700 C   0  0  2  0  0  3  0  0  0  0  0  0
  194.2090  175.9130  143.1280 C   0  0  0  0  0  0  0  0  0  0  0  0
  195.7780  174.7150  146.1640 O   0  0  0  0  0  0  0  0  0  0  0  0
  192.0240  177.0340  142.9380 C   0  0  0  0  0  1  0  0  0  0  0  0
  194.8650  174.9610  145.3310 C   0  0  0  0  0  0  0  0  0  0  0  0
  195.2140  175.5830  144.1010 N   0  0  0  0  0  2  0  0  0  0  0  0
  190.3140  177.6600  147.9160 O   0  0  0  0  0  0  0  0  0  0  0  0
  191.5280  178.0910  149.8040 F   0  0  0  0  0  0  0  0  0  0  0  0
  191.4050  175.9700  149.0670 F   0  0  0  0  0  0  0  0  0  0  0  0
  191.4660  177.3050  148.6630 C   0  0  0  0  0  0  0  0  0  0  0  0
  192.6340  177.5100  147.9210 F   0  0  0  0  0  0  0  0  0  0  0  0
  2  1  1  0  0  0  0
  4  7  1  0  0  0  0
  4  6  1  0  0  0  0
  5  3  1  0  0  0  0
  5  8  1  1  0  0  0
  6  2  1  6  0  0  0
  6  3  1  0  0  0  0
  7  5  1  0  0  0  0
  9  8  1  0  0  0  0
 11 13  1  0  0  0  0
 13 12  1  0  0  0  0
 13 10  1  0  0  0  0
 14  9  1  6  0  0  0
 14 13  1  0  0  0  0
 14 12  1  0  0  0  0
 15  1  1  0  0  0  0
 16 15  1  0  0  0  0
 17 16  1  0  0  0  0
 18 30  1  6  0  0  0
 18 17  1  0  0  0  0
 19 18  1  0  0  0  0
 20 21  2  0  0  0  0
 21 19  1  0  0  0  0
 23 22  1  1  0  0  0
 23 21  1  0  0  0  0
 23 24  1  0  0  0  0
 25 26  1  0  0  0  0
 26 24  1  0  0  0  0
 26 29  1  0  0  0  0
 27 25  1  0  0  0  0
 27 28  1  0  0  0  0
 28 29  1  0  0  0  0
 31 30  1  1  0  0  0
 31 34  1  0  0  0  0
 32 33  1  0  0  0  0
 33 31  1  0  0  0  0
 35 37  1  0  0  0  0
 36 34  1  1  0  0  0
 36 35  1  0  0  0  0
 36 37  1  0  0  0  0
 38  1  1  0  0  0  0
 39 40  1  0  0  0  0
 39 38  1  0  0  0  0
 40 41  1  0  0  0  0
 41 42  1  0  0  0  0
 42 43  1  0  0  0  0
 43 44  1  6  0  0  0
 43 45  1  0  0  0  0
 47 46  1  1  0  0  0
 48 51  1  0  0  0  0
 49 45  1  6  0  0  0
 49 48  1  0  0  0  0
 50 53  1  6  0  0  0
 50 49  1  0  0  0  0
 50 47  1  0  0  0  0
 51 46  1  0  0  0  0
 51 64  1  1  0  0  0
 52 50  1  0  0  0  0
 52 49  1  0  0  0  0
 54 59  2  0  0  0  0
 55 56  1  1  0  0  0
 57 47  1  6  0  0  0
 57 55  1  0  0  0  0
 58 61  1  1  0  0  0
 58 57  1  0  0  0  0
 59 58  1  0  0  0  0
 59 63  1  0  0  0  0
 62 55  1  0  0  0  0
 62 60  2  0  0  0  0
 63 62  1  0  0  0  0
 64 67  1  0  0  0  0
 67 66  1  0  0  0  0
 67 65  1  0  0  0  0
 68 67  1  0  0  0  0
M  END
>  <MODEL>
6

>  <REMARK>
 VINA RESULT:      -4.4      3.912      7.171
  Name = 
  29 active torsions:
  status: ('A' for Active; 'I' for Inactive)
    1  A    between atoms: C_2  and  N_10
    2  A    between atoms: C_2  and  C_34
    3  A    between atoms: C_2  and  C_42
    4  A    between atoms: C_7  and  C_22
    5  A    between atoms: O_8  and  C_45
    6  A    between atoms: O_8  and  C_62
    7  A    between atoms: C_13  and  C_30
    8  A    between atoms: C_13  and  O_49
    9  A    between atoms: C_16  and  C_42
   10  A    between atoms: C_16  and  C_64
   11  A    between atoms: C_17  and  N_36
   12  A    between atoms: C_17  and  C_65
   13  A    between atoms: C_20  and  O_49
   14  A    between atoms: C_20  and  C_66
   15  A    between atoms: C_21  and  N_43
   16  A    between atoms: C_21  and  C_50
   17  A    between atoms: O_23  and  C_33
   18  A    between atoms: O_23  and  C_53
   19  A    between atoms: C_24  and  C_65
   20  A    between atoms: C_27  and  C_28
   21  A    between atoms: C_27  and  N_43
   22  A    between atoms: C_28  and  C_66
   23  A    between atoms: C_30  and  C_32
   24  A    between atoms: C_33  and  C_34
   25  A    between atoms: C_33  and  O_60
   26  A    between atoms: N_43  and  C_64
   27  A    between atoms: C_44  and  C_54
   28  A    between atoms: C_54  and  N_59
   29  A    between atoms: C_57  and  N_59
                            x       y       z     vdW  Elec       q    Type
                         _______ _______ _______ _____ _____    ______ ____

>  <TORSDO>
F 29

$$$$
=
 OpenBabel11062421053D

 68 74  0  0  1  0  0  0  0  0999 V2000
  185.8050  178.9740  144.3260 N   0  0  0  0  0  0  0  0  0  0  0  0
  185.9850  179.5490  145.6590 C   0  0  0  0  0  2  0  0  0  0  0  0
  186.4030  178.1890  147.6560 C   0  0  0  0  0  2  0  0  0  0  0  0
  184.5940  177.5440  146.2210 C   0  0  0  0  0  2  0  0  0  0  0  0
  186.8510  176.9720  146.8910 C   0  0  2  0  0  3  0  0  0  0  0  0
  185.3120  178.7810  146.7880 C   0  0  2  0  0  3  0  0  0  0  0  0
  185.5970  176.3970  146.2540 C   0  0  0  0  0  2  0  0  0  0  0  0
  187.5670  175.9450  147.7580 C   0  0  0  0  0  2  0  0  0  0  0  0
  188.6210  175.3290  146.9710 N   0  0  0  0  0  2  0  0  0  0  0  0
  192.0910  176.5600  145.8780 C   0  0  0  0  0  1  0  0  0  0  0  0
  190.9610  174.2100  145.7940 C   0  0  0  0  0  1  0  0  0  0  0  0
  190.8870  175.6100  147.8180 C   0  0  0  0  0  2  0  0  0  0  0  0
  190.9880  175.6260  146.3270 C   0  0  0  0  0  0  0  0  0  0  0  0
  189.7610  176.2350  147.0040 C   0  0  1  0  0  3  0  0  0  0  0  0
  184.9720  179.7890  143.4360 C   0  0  0  0  0  2  0  0  0  0  0  0
  183.4780  179.6250  143.7280 C   0  0  0  0  0  2  0  0  0  0  0  0
  183.0390  178.3060  143.1360 C   0  0  0  0  0  2  0  0  0  0  0  0
  183.2530  178.1000  141.6410 C   0  0  1  0  0  3  0  0  0  0  0  0
  184.5180  177.5380  141.1630 N   0  0  0  0  0  2  0  0  0  0  0  0
  184.9210  179.3070  139.6710 O   0  0  0  0  0  0  0  0  0  0  0  0
  185.2750  178.1800  140.1280 C   0  0  0  0  0  0  0  0  0  0  0  0
  187.0130  176.5570  140.6620 C   0  0  0  0  0  1  0  0  0  0  0  0
  186.5230  177.5350  139.6210 C   0  0  1  0  0  3  0  0  0  0  0  0
  186.2570  176.7840  138.3110 C   0  0  0  0  0  2  0  0  0  0  0  0
  187.2680  177.1660  136.2300 N   0  0  0  0  0  2  0  0  0  0  0  0
  187.4630  176.5810  137.4940 N   0  0  0  0  0  0  0  0  0  0  0  0
  187.8740  176.2470  135.2650 C   0  0  0  0  0  2  0  0  0  0  0  0
  188.1600  174.9910  135.9160 N   0  0  0  0  0  2  0  0  0  0  0  0
  187.7740  175.1800  137.2950 C   0  0  0  0  0  2  0  0  0  0  0  0
  182.0270  177.9080  140.7560 C   0  0  0  0  0  2  0  0  0  0  0  0
  180.7380  178.5650  141.2790 C   0  0  1  0  0  3  0  0  0  0  0  0
  179.9280  180.6160  140.8580 C   0  0  0  0  0  1  0  0  0  0  0  0
  180.0930  179.3500  140.2980 O   0  0  0  0  0  0  0  0  0  0  0  0
  179.9250  177.5400  141.8250 O   0  0  0  0  0  0  0  0  0  0  0  0
  178.9890  178.6280  143.6070 O   0  0  0  0  0  0  0  0  0  0  0  0
  178.7300  178.1180  142.3230 C   0  0  2  0  0  3  0  0  0  0  0  0
  178.2830  177.4070  143.5520 C   0  0  0  0  0  2  0  0  0  0  0  0
  187.0500  178.5160  143.7120 C   0  0  0  0  0  2  0  0  0  0  0  0
  187.2440  176.9730  143.6520 C   0  0  0  0  0  2  0  0  0  0  0  0
  188.7160  176.5420  143.5740 C   0  0  0  0  0  2  0  0  0  0  0  0
  188.8290  175.0550  143.1740 C   0  0  0  0  0  2  0  0  0  0  0  0
  189.8130  174.8840  142.1930 O   0  0  0  0  0  0  0  0  0  0  0  0
  189.4200  173.7390  141.5010 C   0  0  2  0  0  3  0  0  0  0  0  0
  188.1630  173.1140  142.0890 C   0  0  0  0  0  1  0  0  0  0  0  0
  190.5790  172.7460  141.3570 C   0  0  0  0  0  2  0  0  0  0  0  0
  191.5560  173.9340  137.5080 O   0  0  0  0  0  0  0  0  0  0  0  0
  192.7190  174.0560  138.2970 C   0  0  1  0  0  3  0  0  0  0  0  0
  190.6350  172.1350  138.8380 C   0  0  0  0  0  2  0  0  0  0  0  0
  191.3480  172.7640  140.0400 C   0  0  1  0  0  0  0  0  0  0  0  0
  192.4700  173.7030  139.7600 C   0  0  1  0  0  0  0  0  0  0  0  0
  191.1940  172.5790  137.4840 C   0  0  1  0  0  3  0  0  0  0  0  0
  192.7040  172.3750  140.1590 O   0  0  0  0  0  0  0  0  0  0  0  0
  192.7370  174.6550  140.7460 O   0  0  0  0  0  1  0  0  0  0  0  0
  196.8320  171.1950  137.9640 O   0  0  0  0  0  0  0  0  0  0  0  0
  194.9180  174.8480  137.3410 C   0  0  1  0  0  3  0  0  0  0  0  0
  194.1860  175.8440  136.6790 O   0  0  0  0  0  1  0  0  0  0  0  0
  194.0410  173.6280  137.6020 C   0  0  1  0  0  3  0  0  0  0  0  0
  194.8280  172.4870  138.3110 C   0  0  2  0  0  3  0  0  0  0  0  0
  196.1850  172.2430  137.6940 C   0  0  0  0  0  0  0  0  0  0  0  0
  196.6510  175.2430  135.7200 O   0  0  0  0  0  0  0  0  0  0  0  0
  194.0430  171.1750  138.2750 C   0  0  0  0  0  1  0  0  0  0  0  0
  196.1370  174.4570  136.5600 C   0  0  0  0  0  0  0  0  0  0  0  0
  196.7470  173.1900  136.7700 N   0  0  0  0  0  2  0  0  0  0  0  0
  190.2200  172.3620  136.4920 O   0  0  0  0  0  0  0  0  0  0  0  0
  189.6550  170.1470  136.5250 F   0  0  0  0  0  0  0  0  0  0  0  0
  190.0600  171.1240  134.5400 F   0  0  0  0  0  0  0  0  0  0  0  0
  190.4350  171.0990  135.8850 C   0  0  0  0  0  0  0  0  0  0  0  0
  191.7760  170.7110  135.9830 F   0  0  0  0  0  0  0  0  0  0  0  0
  1  2  1  0  0  0  0
  4  7  1  0  0  0  0
  4  6  1  0  0  0  0
  5  3  1  0  0  0  0
  5  8  1  1  0  0  0
  6  2  1  6  0  0  0
  6  3  1  0  0  0  0
  7  5  1  0  0  0  0
  9  8  1  0  0  0  0
 10 13  1  0  0  0  0
 11 13  1  0  0  0  0
 13 14  1  0  0  0  0
 13 12  1  0  0  0  0
 14  9  1  6  0  0  0
 14 12  1  0  0  0  0
 15 16  1  0  0  0  0
 15  1  1  0  0  0  0
 17 16  1  0  0  0  0
 18 30  1  1  0  0  0
 18 17  1  0  0  0  0
 19 18  1  0  0  0  0
 20 21  2  0  0  0  0
 21 19  1  0  0  0  0
 23 21  1  0  0  0  0
 23 22  1  1  0  0  0
 24 23  1  0  0  0  0
 25 26  1  0  0  0  0
 26 24  1  0  0  0  0
 27 28  1  0  0  0  0
 27 25  1  0  0  0  0
 28 29  1  0  0  0  0
 29 26  1  0  0  0  0
 31 30  1  6  0  0  0
 31 34  1  0  0  0  0
 33 32  1  0  0  0  0
 33 31  1  0  0  0  0
 36 34  1  1  0  0  0
 36 37  1  0  0  0  0
 36 35  1  0  0  0  0
 37 35  1  0  0  0  0
 38  1  1  0  0  0  0
 39 38  1  0  0  0  0
 40 39  1  0  0  0  0
 41 40  1  0  0  0  0
 42 41  1  0  0  0  0
 43 44  1  1  0  0  0
 43 42  1  0  0  0  0
 45 43  1  0  0  0  0
 47 46  1  6  0  0  0
 47 50  1  0  0  0  0
 48 49  1  0  0  0  0
 49 52  1  0  0  0  0
 49 45  1  1  0  0  0
 50 49  1  0  0  0  0
 50 52  1  0  0  0  0
 50 53  1  1  0  0  0
 51 64  1  6  0  0  0
 51 46  1  0  0  0  0
 51 48  1  0  0  0  0
 55 56  1  6  0  0  0
 55 57  1  0  0  0  0
 57 47  1  1  0  0  0
 57 58  1  0  0  0  0
 58 61  1  6  0  0  0
 59 54  2  0  0  0  0
 59 58  1  0  0  0  0
 60 62  2  0  0  0  0
 62 63  1  0  0  0  0
 62 55  1  0  0  0  0
 63 59  1  0  0  0  0
 66 67  1  0  0  0  0
 67 68  1  0  0  0  0
 67 64  1  0  0  0  0
 67 65  1  0  0  0  0
M  END
>  <MODEL>
7

>  <REMARK>
 VINA RESULT:      -4.3      3.895      9.970
  Name = 
  29 active torsions:
  status: ('A' for Active; 'I' for Inactive)
    1  A    between atoms: C_2  and  N_10
    2  A    between atoms: C_2  and  C_34
    3  A    between atoms: C_2  and  C_42
    4  A    between atoms: C_7  and  C_22
    5  A    between atoms: O_8  and  C_45
    6  A    between atoms: O_8  and  C_62
    7  A    between atoms: C_13  and  C_30
    8  A    between atoms: C_13  and  O_49
    9  A    between atoms: C_16  and  C_42
   10  A    between atoms: C_16  and  C_64
   11  A    between atoms: C_17  and  N_36
   12  A    between atoms: C_17  and  C_65
   13  A    between atoms: C_20  and  O_49
   14  A    between atoms: C_20  and  C_66
   15  A    between atoms: C_21  and  N_43
   16  A    between atoms: C_21  and  C_50
   17  A    between atoms: O_23  and  C_33
   18  A    between atoms: O_23  and  C_53
   19  A    between atoms: C_24  and  C_65
   20  A    between atoms: C_27  and  C_28
   21  A    between atoms: C_27  and  N_43
   22  A    between atoms: C_28  and  C_66
   23  A    between atoms: C_30  and  C_32
   24  A    between atoms: C_33  and  C_34
   25  A    between atoms: C_33  and  O_60
   26  A    between atoms: N_43  and  C_64
   27  A    between atoms: C_44  and  C_54
   28  A    between atoms: C_54  and  N_59
   29  A    between atoms: C_57  and  N_59
                            x       y       z     vdW  Elec       q    Type
                         _______ _______ _______ _____ _____    ______ ____

>  <TORSDO>
F 29

$$$$
=
 OpenBabel11062421053D

 68 74  0  0  1  0  0  0  0  0999 V2000
  190.6130  174.7930  144.4690 N   0  0  0  0  0  0  0  0  0  0  0  0
  191.5340  174.9770  145.5910 C   0  0  0  0  0  2  0  0  0  0  0  0
  192.9620  176.7110  144.6060 C   0  0  0  0  0  2  0  0  0  0  0  0
  192.9890  176.4580  146.9900 C   0  0  0  0  0  2  0  0  0  0  0  0
  194.2560  176.0310  144.9690 C   0  0  2  0  0  3  0  0  0  0  0  0
  192.0490  176.3970  145.7740 C   0  0  2  0  0  3  0  0  0  0  0  0
  194.3980  176.1850  146.4740 C   0  0  0  0  0  2  0  0  0  0  0  0
  195.4600  176.5950  144.2270 C   0  0  0  0  0  2  0  0  0  0  0  0
  196.0510  175.5350  143.4290 N   0  0  0  0  0  2  0  0  0  0  0  0
  195.2110  175.6770  139.6830 C   0  0  0  0  0  1  0  0  0  0  0  0
  194.9590  173.7860  141.4630 C   0  0  0  0  0  1  0  0  0  0  0  0
  197.0360  175.0900  141.2470 C   0  0  0  0  0  2  0  0  0  0  0  0
  195.5550  175.1130  141.0450 C   0  0  0  0  0  0  0  0  0  0  0  0
  196.1880  176.0500  142.0740 C   0  0  1  0  0  3  0  0  0  0  0  0
  190.8900  173.6000  143.6630 C   0  0  0  0  0  2  0  0  0  0  0  0
  192.1770  172.8940  144.0970 C   0  0  0  0  0  2  0  0  0  0  0  0
  191.8820  171.4140  144.1780 C   0  0  0  0  0  2  0  0  0  0  0  0
  192.4550  170.5220  143.0840 C   0  0  1  0  0  3  0  0  0  0  0  0
  193.6860  169.7690  143.3370 N   0  0  0  0  0  2  0  0  0  0  0  0
  194.9730  171.0760  141.8690 O   0  0  0  0  0  0  0  0  0  0  0  0
  194.9030  170.0760  142.6440 C   0  0  0  0  0  0  0  0  0  0  0  0
  196.8400  169.0620  141.5650 C   0  0  0  0  0  1  0  0  0  0  0  0
  196.1170  169.2380  142.8790 C   0  0  1  0  0  3  0  0  0  0  0  0
  197.0590  169.9100  143.8850 C   0  0  0  0  0  2  0  0  0  0  0  0
  196.1210  168.3240  145.3360 N   0  0  0  0  0  2  0  0  0  0  0  0
  197.2500  169.1350  145.1200 N   0  0  0  0  0  0  0  0  0  0  0  0
  195.8710  168.3590  146.7770 C   0  0  0  0  0  2  0  0  0  0  0  0
  196.6570  169.4140  147.3730 N   0  0  0  0  0  2  0  0  0  0  0  0
  197.4250  169.9760  146.2860 C   0  0  0  0  0  2  0  0  0  0  0  0
  191.5020  169.9650  142.0330 C   0  0  0  0  0  2  0  0  0  0  0  0
  191.8130  170.3850  140.5860 C   0  0  1  0  0  3  0  0  0  0  0  0
  193.4110  170.3930  139.0090 C   0  0  0  0  0  1  0  0  0  0  0  0
  192.8340  169.6030  140.0020 O   0  0  0  0  0  0  0  0  0  0  0  0
  190.5930  170.3750  139.8640 O   0  0  0  0  0  0  0  0  0  0  0  0
  190.7070  171.9840  138.2420 O   0  0  0  0  0  0  0  0  0  0  0  0
  190.8680  170.6100  138.4930 C   0  0  2  0  0  3  0  0  0  0  0  0
  189.6600  171.1430  137.8060 C   0  0  0  0  0  2  0  0  0  0  0  0
  189.2060  174.9430  144.8360 C   0  0  0  0  0  2  0  0  0  0  0  0
  188.8370  176.2690  145.5620 C   0  0  0  0  0  2  0  0  0  0  0  0
  188.0070  176.0590  146.8370 C   0  0  0  0  0  2  0  0  0  0  0  0
  187.1990  177.3300  147.1790 C   0  0  0  0  0  2  0  0  0  0  0  0
  187.1300  178.1810  146.0700 O   0  0  0  0  0  0  0  0  0  0  0  0
  185.7670  178.4200  145.9000 C   0  0  2  0  0  3  0  0  0  0  0  0
  184.9430  177.1430  145.9820 C   0  0  0  0  0  1  0  0  0  0  0  0
  185.4970  179.2330  144.6270 C   0  0  0  0  0  2  0  0  0  0  0  0
  185.7380  178.7050  140.5230 O   0  0  0  0  0  0  0  0  0  0  0  0
  186.7370  177.9020  141.1130 C   0  0  1  0  0  3  0  0  0  0  0  0
  184.2670  178.5830  142.4400 C   0  0  0  0  0  2  0  0  0  0  0  0
  185.5280  178.4780  143.3030 C   0  0  1  0  0  0  0  0  0  0  0  0
  186.7880  178.0580  142.6290 C   0  0  1  0  0  0  0  0  0  0  0  0
  184.4920  178.2350  140.9660 C   0  0  1  0  0  3  0  0  0  0  0  0
  186.0340  177.1590  143.4040 O   0  0  0  0  0  0  0  0  0  0  0  0
  187.9770  178.4780  143.2310 O   0  0  0  0  0  1  0  0  0  0  0  0
  188.6690  173.2670  141.0590 O   0  0  0  0  0  0  0  0  0  0  0  0
  187.3680  176.6580  139.0080 C   0  0  1  0  0  3  0  0  0  0  0  0
  186.4970  177.5200  138.3270 O   0  0  0  0  0  1  0  0  0  0  0  0
  186.9370  176.5050  140.4630 C   0  0  1  0  0  3  0  0  0  0  0  0
  187.8650  175.5310  141.2460 C   0  0  2  0  0  3  0  0  0  0  0  0
  188.1640  174.2660  140.4760 C   0  0  0  0  0  0  0  0  0  0  0  0
  187.1560  175.1820  137.1210 O   0  0  0  0  0  0  0  0  0  0  0  0
  187.2420  175.1400  142.5870 C   0  0  0  0  0  1  0  0  0  0  0  0
  187.4420  175.3180  138.3410 C   0  0  0  0  0  0  0  0  0  0  0  0
  187.8550  174.1730  139.0750 N   0  0  0  0  0  2  0  0  0  0  0  0
  183.4640  178.8090  140.1960 O   0  0  0  0  0  0  0  0  0  0  0  0
  181.3260  179.2240  140.8920 F   0  0  0  0  0  0  0  0  0  0  0  0
  181.6830  177.5130  139.4760 F   0  0  0  0  0  0  0  0  0  0  0  0
  182.2230  178.2220  140.5510 C   0  0  0  0  0  0  0  0  0  0  0  0
  182.3630  177.3630  141.6460 F   0  0  0  0  0  0  0  0  0  0  0  0
  1 38  1  0  0  0  0
  1  2  1  0  0  0  0
  3  5  1  0  0  0  0
  3  6  1  0  0  0  0
  5  8  1  6  0  0  0
  5  7  1  0  0  0  0
  6  2  1  6  0  0  0
  6  4  1  0  0  0  0
  7  4  1  0  0  0  0
  9  8  1  0  0  0  0
 10 13  1  0  0  0  0
 12 14  1  0  0  0  0
 13 12  1  0  0  0  0
 13 11  1  0  0  0  0
 13 14  1  0  0  0  0
 14  9  1  1  0  0  0
 15 16  1  0  0  0  0
 15  1  1  0  0  0  0
 16 17  1  0  0  0  0
 18 30  1  1  0  0  0
 18 19  1  0  0  0  0
 18 17  1  0  0  0  0
 20 21  2  0  0  0  0
 21 23  1  0  0  0  0
 21 19  1  0  0  0  0
 23 22  1  6  0  0  0
 23 24  1  0  0  0  0
 24 26  1  0  0  0  0
 25 27  1  0  0  0  0
 26 25  1  0  0  0  0
 26 29  1  0  0  0  0
 27 28  1  0  0  0  0
 29 28  1  0  0  0  0
 31 30  1  1  0  0  0
 32 33  1  0  0  0  0
 33 31  1  0  0  0  0
 34 31  1  0  0  0  0
 35 36  1  0  0  0  0
 36 34  1  1  0  0  0
 37 35  1  0  0  0  0
 37 36  1  0  0  0  0
 38 39  1  0  0  0  0
 39 40  1  0  0  0  0
 40 41  1  0  0  0  0
 42 41  1  0  0  0  0
 43 44  1  6  0  0  0
 43 42  1  0  0  0  0
 45 43  1  0  0  0  0
 46 51  1  0  0  0  0
 47 46  1  1  0  0  0
 47 50  1  0  0  0  0
 48 49  1  0  0  0  0
 49 52  1  0  0  0  0
 49 45  1  1  0  0  0
 50 53  1  1  0  0  0
 50 49  1  0  0  0  0
 50 52  1  0  0  0  0
 51 64  1  6  0  0  0
 51 48  1  0  0  0  0
 55 56  1  6  0  0  0
 55 57  1  0  0  0  0
 57 47  1  1  0  0  0
 57 58  1  0  0  0  0
 58 61  1  1  0  0  0
 59 54  2  0  0  0  0
 59 58  1  0  0  0  0
 60 62  2  0  0  0  0
 62 55  1  0  0  0  0
 62 63  1  0  0  0  0
 63 59  1  0  0  0  0
 64 67  1  0  0  0  0
 66 67  1  0  0  0  0
 67 65  1  0  0  0  0
 67 68  1  0  0  0  0
M  END
>  <MODEL>
8

>  <REMARK>
 VINA RESULT:      -4.1      1.844      3.514
  Name = 
  29 active torsions:
  status: ('A' for Active; 'I' for Inactive)
    1  A    between atoms: C_2  and  N_10
    2  A    between atoms: C_2  and  C_34
    3  A    between atoms: C_2  and  C_42
    4  A    between atoms: C_7  and  C_22
    5  A    between atoms: O_8  and  C_45
    6  A    between atoms: O_8  and  C_62
    7  A    between atoms: C_13  and  C_30
    8  A    between atoms: C_13  and  O_49
    9  A    between atoms: C_16  and  C_42
   10  A    between atoms: C_16  and  C_64
   11  A    between atoms: C_17  and  N_36
   12  A    between atoms: C_17  and  C_65
   13  A    between atoms: C_20  and  O_49
   14  A    between atoms: C_20  and  C_66
   15  A    between atoms: C_21  and  N_43
   16  A    between atoms: C_21  and  C_50
   17  A    between atoms: O_23  and  C_33
   18  A    between atoms: O_23  and  C_53
   19  A    between atoms: C_24  and  C_65
   20  A    between atoms: C_27  and  C_28
   21  A    between atoms: C_27  and  N_43
   22  A    between atoms: C_28  and  C_66
   23  A    between atoms: C_30  and  C_32
   24  A    between atoms: C_33  and  C_34
   25  A    between atoms: C_33  and  O_60
   26  A    between atoms: N_43  and  C_64
   27  A    between atoms: C_44  and  C_54
   28  A    between atoms: C_54  and  N_59
   29  A    between atoms: C_57  and  N_59
                            x       y       z     vdW  Elec       q    Type
                         _______ _______ _______ _____ _____    ______ ____

>  <TORSDO>
F 29

$$$$
=
 OpenBabel11062421053D

 68 74  0  0  1  0  0  0  0  0999 V2000
  193.6180  171.3550  142.5630 N   0  0  0  0  0  0  0  0  0  0  0  0
  194.7850  170.7200  143.1770 C   0  0  0  0  0  2  0  0  0  0  0  0
  194.5510  172.0450  145.2280 C   0  0  0  0  0  2  0  0  0  0  0  0
  196.1360  170.2450  145.2310 C   0  0  0  0  0  2  0  0  0  0  0  0
  195.9240  172.6570  145.1420 C   0  0  2  0  0  3  0  0  0  0  0  0
  194.7480  170.6390  144.6970 C   0  0  2  0  0  3  0  0  0  0  0  0
  196.8980  171.5420  145.4790 C   0  0  0  0  0  2  0  0  0  0  0  0
  196.1050  173.8610  146.0560 C   0  0  0  0  0  2  0  0  0  0  0  0
  195.9400  175.0700  145.2680 N   0  0  0  0  0  2  0  0  0  0  0  0
  192.5470  176.6970  144.4980 C   0  0  0  0  0  1  0  0  0  0  0  0
  194.4330  177.3020  146.1960 C   0  0  0  0  0  1  0  0  0  0  0  0
  193.6040  174.9960  145.9510 C   0  0  0  0  0  2  0  0  0  0  0  0
  193.7990  176.3030  145.2520 C   0  0  0  0  0  0  0  0  0  0  0  0
  194.5700  175.0730  144.7740 C   0  0  1  0  0  3  0  0  0  0  0  0
  193.9000  171.9930  141.2740 C   0  0  0  0  0  2  0  0  0  0  0  0
  195.0440  173.0060  141.3670 C   0  0  0  0  0  2  0  0  0  0  0  0
  196.2160  172.4430  140.5960 C   0  0  0  0  0  2  0  0  0  0  0  0
  195.9660  172.0010  139.1600 C   0  0  1  0  0  3  0  0  0  0  0  0
  195.5280  172.9850  138.1670 N   0  0  0  0  0  2  0  0  0  0  0  0
  197.5350  174.2020  138.2590 O   0  0  0  0  0  0  0  0  0  0  0  0
  196.3570  174.0980  137.8050 C   0  0  0  0  0  0  0  0  0  0  0  0
  196.9820  175.5510  135.9510 C   0  0  0  0  0  1  0  0  0  0  0  0
  195.8430  175.1160  136.8410 C   0  0  1  0  0  3  0  0  0  0  0  0
  194.7220  174.5310  135.9740 C   0  0  0  0  0  2  0  0  0  0  0  0
  192.4210  174.3520  135.5560 N   0  0  0  0  0  2  0  0  0  0  0  0
  193.3840  175.0260  136.3300 N   0  0  0  0  0  0  0  0  0  0  0  0
  191.4230  175.3580  135.1930 C   0  0  0  0  0  2  0  0  0  0  0  0
  191.9380  176.6730  135.4930 N   0  0  0  0  0  2  0  0  0  0  0  0
  193.2320  176.4470  136.0930 C   0  0  0  0  0  2  0  0  0  0  0  0
  196.7060  170.7720  138.6440 C   0  0  0  0  0  2  0  0  0  0  0  0
  195.8760  169.4780  138.6170 C   0  0  1  0  0  3  0  0  0  0  0  0
  193.9600  168.5920  139.3820 C   0  0  0  0  0  1  0  0  0  0  0  0
  194.4910  169.7190  138.7560 O   0  0  0  0  0  0  0  0  0  0  0  0
  196.2230  168.7690  137.4400 O   0  0  0  0  0  0  0  0  0  0  0  0
  194.8020  169.1520  135.6880 O   0  0  0  0  0  0  0  0  0  0  0  0
  195.9780  169.5980  136.3150 C   0  0  2  0  0  3  0  0  0  0  0  0
  196.0160  168.7960  135.0620 C   0  0  0  0  0  2  0  0  0  0  0  0
  192.4280  170.5060  142.5540 C   0  0  0  0  0  2  0  0  0  0  0  0
  191.1930  171.0680  143.3150 C   0  0  0  0  0  2  0  0  0  0  0  0
  190.0190  171.4350  142.3960 C   0  0  0  0  0  2  0  0  0  0  0  0
  190.4170  172.5690  141.4270 C   0  0  0  0  0  2  0  0  0  0  0  0
  190.3740  173.8080  142.0760 O   0  0  0  0  0  0  0  0  0  0  0  0
  189.1910  174.3940  141.6300 C   0  0  2  0  0  3  0  0  0  0  0  0
  188.8510  173.9920  140.2020 C   0  0  0  0  0  1  0  0  0  0  0  0
  189.2030  175.9130  141.8440 C   0  0  0  0  0  2  0  0  0  0  0  0
  186.2750  176.0600  144.7750 O   0  0  0  0  0  0  0  0  0  0  0  0
  187.5270  176.0840  145.4250 C   0  0  1  0  0  3  0  0  0  0  0  0
  187.1040  177.1230  142.7670 C   0  0  0  0  0  2  0  0  0  0  0  0
  188.4480  176.4470  143.0570 C   0  0  1  0  0  0  0  0  0  0  0  0
  188.6920  175.9730  144.4480 C   0  0  1  0  0  0  0  0  0  0  0  0
  186.1790  177.2140  143.9830 C   0  0  1  0  0  3  0  0  0  0  0  0
  189.2580  177.1680  143.9680 O   0  0  0  0  0  0  0  0  0  0  0  0
  189.6020  174.9230  144.5890 O   0  0  0  0  0  1  0  0  0  0  0  0
  185.8950  179.9600  148.1680 O   0  0  0  0  0  0  0  0  0  0  0  0
  189.0340  177.5920  146.7780 C   0  0  1  0  0  3  0  0  0  0  0  0
  189.9740  176.5520  146.7510 O   0  0  0  0  0  1  0  0  0  0  0  0
  187.6200  177.0350  146.6500 C   0  0  1  0  0  3  0  0  0  0  0  0
  186.5450  178.1590  146.7060 C   0  0  2  0  0  3  0  0  0  0  0  0
  186.7980  179.1550  147.8140 C   0  0  0  0  0  0  0  0  0  0  0  0
  190.2430  178.4440  148.6750 O   0  0  0  0  0  0  0  0  0  0  0  0
  185.1470  177.5710  146.9010 C   0  0  0  0  0  1  0  0  0  0  0  0
  189.1620  178.4100  148.0280 C   0  0  0  0  0  0  0  0  0  0  0  0
  188.0630  179.1800  148.4970 N   0  0  0  0  0  2  0  0  0  0  0  0
  184.8540  177.3810  143.5420 O   0  0  0  0  0  0  0  0  0  0  0  0
  183.5990  179.2870  143.6890 F   0  0  0  0  0  0  0  0  0  0  0  0
  185.8090  179.4810  143.3170 F   0  0  0  0  0  0  0  0  0  0  0  0
  184.6820  178.7010  143.0510 C   0  0  0  0  0  0  0  0  0  0  0  0
  184.4360  178.7010  141.6730 F   0  0  0  0  0  0  0  0  0  0  0  0
  1  2  1  0  0  0  0
  4  7  1  0  0  0  0
  5  3  1  0  0  0  0
  5  7  1  0  0  0  0
  5  8  1  1  0  0  0
  6  2  1  6  0  0  0
  6  3  1  0  0  0  0
  6  4  1  0  0  0  0
  9  8  1  0  0  0  0
 10 13  1  0  0  0  0
 13 12  1  0  0  0  0
 13 11  1  0  0  0  0
 14 13  1  0  0  0  0
 14  9  1  1  0  0  0
 14 12  1  0  0  0  0
 15 16  1  0  0  0  0
 15  1  1  0  0  0  0
 17 16  1  0  0  0  0
 18 30  1  6  0  0  0
 18 17  1  0  0  0  0
 19 18  1  0  0  0  0
 21 19  1  0  0  0  0
 21 20  2  0  0  0  0
 23 22  1  6  0  0  0
 23 21  1  0  0  0  0
 24 26  1  0  0  0  0
 24 23  1  0  0  0  0
 25 26  1  0  0  0  0
 27 28  1  0  0  0  0
 27 25  1  0  0  0  0
 28 29  1  0  0  0  0
 29 26  1  0  0  0  0
 31 30  1  6  0  0  0
 31 33  1  0  0  0  0
 33 32  1  0  0  0  0
 34 31  1  0  0  0  0
 35 36  1  0  0  0  0
 36 34  1  1  0  0  0
 37 35  1  0  0  0  0
 37 36  1  0  0  0  0
 38  1  1  0  0  0  0
 38 39  1  0  0  0  0
 40 39  1  0  0  0  0
 41 42  1  0  0  0  0
 41 40  1  0  0  0  0
 43 44  1  6  0  0  0
 43 45  1  0  0  0  0
 43 42  1  0  0  0  0
 47 46  1  6  0  0  0
 48 49  1  0  0  0  0
 48 51  1  0  0  0  0
 49 45  1  6  0  0  0
 49 52  1  0  0  0  0
 49 50  1  0  0  0  0
 50 53  1  1  0  0  0
 50 47  1  0  0  0  0
 51 64  1  6  0  0  0
 51 46  1  0  0  0  0
 52 50  1  0  0  0  0
 55 56  1  1  0  0  0
 55 62  1  0  0  0  0
 57 47  1  6  0  0  0
 57 58  1  0  0  0  0
 57 55  1  0  0  0  0
 58 61  1  1  0  0  0
 58 59  1  0  0  0  0
 59 54  2  0  0  0  0
 59 63  1  0  0  0  0
 62 63  1  0  0  0  0
 62 60  2  0  0  0  0
 67 66  1  0  0  0  0
 67 64  1  0  0  0  0
 67 65  1  0  0  0  0
 68 67  1  0  0  0  0
M  END
>  <MODEL>
9

>  <REMARK>
 VINA RESULT:      -3.9      2.774      6.029
  Name = 
  29 active torsions:
  status: ('A' for Active; 'I' for Inactive)
    1  A    between atoms: C_2  and  N_10
    2  A    between atoms: C_2  and  C_34
    3  A    between atoms: C_2  and  C_42
    4  A    between atoms: C_7  and  C_22
    5  A    between atoms: O_8  and  C_45
    6  A    between atoms: O_8  and  C_62
    7  A    between atoms: C_13  and  C_30
    8  A    between atoms: C_13  and  O_49
    9  A    between atoms: C_16  and  C_42
   10  A    between atoms: C_16  and  C_64
   11  A    between atoms: C_17  and  N_36
   12  A    between atoms: C_17  and  C_65
   13  A    between atoms: C_20  and  O_49
   14  A    between atoms: C_20  and  C_66
   15  A    between atoms: C_21  and  N_43
   16  A    between atoms: C_21  and  C_50
   17  A    between atoms: O_23  and  C_33
   18  A    between atoms: O_23  and  C_53
   19  A    between atoms: C_24  and  C_65
   20  A    between atoms: C_27  and  C_28
   21  A    between atoms: C_27  and  N_43
   22  A    between atoms: C_28  and  C_66
   23  A    between atoms: C_30  and  C_32
   24  A    between atoms: C_33  and  C_34
   25  A    between atoms: C_33  and  O_60
   26  A    between atoms: N_43  and  C_64
   27  A    between atoms: C_44  and  C_54
   28  A    between atoms: C_54  and  N_59
   29  A    between atoms: C_57  and  N_59
                            x       y       z     vdW  Elec       q    Type
                         _______ _______ _______ _____ _____    ______ ____

>  <TORSDO>
F 29

$$$$
