=
 OpenBabel11062421083D

 27 28  0  0  1  0  0  0  0  0999 V2000
  187.0210  175.0650  142.3100 O   0  0  0  0  0  1  0  0  0  0  0  0
  186.3020  176.8810  145.0160 C   0  0  0  0  0  0  0  0  0  0  0  0
  186.4990  177.0350  147.6590 S   0  0  0  0  0  0  0  0  0  0  0  0
  188.2750  176.1060  144.0610 C   0  0  0  0  0  2  0  0  0  0  0  0
  187.5240  176.5200  145.2670 C   0  0  0  0  0  0  0  0  0  0  0  0
  187.2540  176.2900  142.9330 C   0  0  2  0  0  3  0  0  0  0  0  0
  187.9550  176.4830  146.6860 C   0  0  1  0  0  3  0  0  0  0  0  0
  185.4360  177.1950  146.1760 C   0  0  0  0  0  2  0  0  0  0  0  0
  185.9470  176.8030  143.5710 C   0  0  2  0  0  3  0  0  0  0  0  0
  185.5690  178.1820  143.0070 C   0  0  1  0  0  3  0  0  0  0  0  0
  179.8150  178.1570  140.5730 O   0  0  0  0  0  1  0  0  0  0  0  0
  183.1930  178.1980  142.1070 N   0  0  0  0  0  2  0  0  0  0  0  0
  180.8080  178.2520  141.4890 N   0  0  0  0  0  2  0  0  0  0  0  0
  184.6000  178.0590  141.8690 C   0  0  0  0  0  0  0  0  0  0  0  0
  182.1720  178.0910  141.1090 C   0  0  0  0  0  0  0  0  0  0  0  0
  182.4660  177.8560  139.9070 O   0  0  0  0  0  0  0  0  0  0  0  0
  185.0410  177.8390  140.7100 O   0  0  0  0  0  0  0  0  0  0  0  0
  184.9700  179.0700  144.0900 C   0  0  0  0  0  2  0  0  0  0  0  0
  185.5940  180.3180  144.0850 O   0  0  0  0  0  1  0  0  0  0  0  0
  189.1220  177.4370  146.8970 C   0  0  0  0  0  2  0  0  0  0  0  0
  190.3770  176.6930  147.2180 C   0  0  0  0  0  3  0  0  0  0  0  0
  191.2220  176.3180  146.2540 C   0  0  0  0  0  3  0  0  0  0  0  0
  192.5410  174.2410  145.8100 C   0  0  0  0  0  1  0  0  0  0  0  0
  192.4920  175.5730  146.5440 C   0  0  1  0  0  3  0  0  0  0  0  0
  194.0470  177.3320  147.0360 O   0  0  0  0  0  1  0  0  0  0  0  0
  193.7080  176.3980  146.2610 C   0  0  0  0  0  0  0  0  0  0  0  0
  194.4820  176.1170  145.1430 O   0  0  0  0  0  0  0  0  0  0  0  0
  2  5  2  0  0  0  0
  2  8  1  0  0  0  0
  4  5  1  0  0  0  0
  5  7  1  0  0  0  0
  6  1  1  1  0  0  0
  6  9  1  0  0  0  0
  6  4  1  0  0  0  0
  7 20  1  6  0  0  0
  7  3  1  0  0  0  0
  8  3  1  0  0  0  0
  9 10  1  6  0  0  0
  9  2  1  0  0  0  0
 10 18  1  1  0  0  0
 11 13  1  0  0  0  0
 14 12  1  0  0  0  0
 14 10  1  0  0  0  0
 15 13  1  0  0  0  0
 15 12  1  0  0  0  0
 16 15  2  0  0  0  0
 17 14  2  0  0  0  0
 19 18  1  0  0  0  0
 20 21  1  0  0  0  0
 22 24  1  0  0  0  0
 22 21  2  0  0  0  0
 24 23  1  6  0  0  0
 26 24  1  0  0  0  0
 26 25  1  0  0  0  0
 27 26  2  0  0  0  0
M  END
>  <MODEL>
1

>  <REMARK>
 VINA RESULT:      -7.3      0.000      0.000
  Name = 
  7 active torsions:
  status: ('A' for Active; 'I' for Inactive)
    1  A    between atoms: C_3  and  C_17
    2  A    between atoms: C_3  and  C_19
    3  A    between atoms: C_3  and  C_26
    4  A    between atoms: C_4  and  C_18
    5  A    between atoms: C_11  and  C_15
    6  A    between atoms: C_14  and  C_15
    7  A    between atoms: C_18  and  C_21
                            x       y       z     vdW  Elec       q    Type
                         _______ _______ _______ _____ _____    ______ ____

>  <TORSDO>
F 7

$$$$
=
 OpenBabel11062421083D

 27 28  0  0  1  0  0  0  0  0999 V2000
  190.8080  172.5570  142.0790 O   0  0  0  0  0  1  0  0  0  0  0  0
  189.9780  175.6740  142.9310 C   0  0  0  0  0  0  0  0  0  0  0  0
  188.6670  177.8630  142.2010 S   0  0  0  0  0  0  0  0  0  0  0  0
  188.7670  173.7530  142.4360 C   0  0  0  0  0  2  0  0  0  0  0  0
  188.8530  175.2300  142.4600 C   0  0  0  0  0  0  0  0  0  0  0  0
  190.1150  173.3150  143.0210 C   0  0  2  0  0  3  0  0  0  0  0  0
  187.8820  176.2240  141.9420 C   0  0  1  0  0  3  0  0  0  0  0  0
  190.2040  177.1380  142.8810 C   0  0  0  0  0  2  0  0  0  0  0  0
  190.9140  174.5920  143.3470 C   0  0  2  0  0  3  0  0  0  0  0  0
  191.2340  174.6670  144.8490 C   0  0  1  0  0  3  0  0  0  0  0  0
  196.8400  177.0360  143.4390 O   0  0  0  0  0  1  0  0  0  0  0  0
  193.5110  175.5810  144.1880 N   0  0  0  0  0  2  0  0  0  0  0  0
  195.7070  176.3020  143.3350 N   0  0  0  0  0  2  0  0  0  0  0  0
  192.4150  175.5540  145.1120 C   0  0  0  0  0  0  0  0  0  0  0  0
  194.6940  176.3730  144.3340 C   0  0  0  0  0  0  0  0  0  0  0  0
  194.8470  177.1270  145.3320 O   0  0  0  0  0  0  0  0  0  0  0  0
  192.4240  176.2700  146.1480 O   0  0  0  0  0  0  0  0  0  0  0  0
  190.0340  175.1730  145.6390 C   0  0  0  0  0  2  0  0  0  0  0  0
  189.4810  174.1330  146.3880 O   0  0  0  0  0  1  0  0  0  0  0  0
  186.5810  176.1330  142.7260 C   0  0  0  0  0  2  0  0  0  0  0  0
  186.7790  176.5380  144.1500 C   0  0  0  0  0  3  0  0  0  0  0  0
  185.7410  176.8660  144.9250 C   0  0  0  0  0  3  0  0  0  0  0  0
  187.3730  177.3650  146.7520 C   0  0  0  0  0  1  0  0  0  0  0  0
  185.9060  177.2740  146.3610 C   0  0  1  0  0  3  0  0  0  0  0  0
  185.6590  179.3810  147.4810 O   0  0  0  0  0  1  0  0  0  0  0  0
  185.1760  178.5420  146.6750 C   0  0  0  0  0  0  0  0  0  0  0  0
  183.9630  178.8060  146.0530 O   0  0  0  0  0  0  0  0  0  0  0  0
  2  9  1  0  0  0  0
  3  8  1  0  0  0  0
  4  5  1  0  0  0  0
  4  6  1  0  0  0  0
  5  2  2  0  0  0  0
  6  1  1  6  0  0  0
  6  9  1  0  0  0  0
  7  3  1  0  0  0  0
  7  5  1  0  0  0  0
  7 20  1  1  0  0  0
  8  2  1  0  0  0  0
  9 10  1  1  0  0  0
 10 14  1  0  0  0  0
 10 18  1  1  0  0  0
 12 15  1  0  0  0  0
 12 14  1  0  0  0  0
 13 11  1  0  0  0  0
 13 15  1  0  0  0  0
 14 17  2  0  0  0  0
 15 16  2  0  0  0  0
 18 19  1  0  0  0  0
 20 21  1  0  0  0  0
 21 22  2  0  0  0  0
 22 24  1  0  0  0  0
 24 26  1  0  0  0  0
 24 23  1  6  0  0  0
 26 25  1  0  0  0  0
 27 26  2  0  0  0  0
M  END
>  <MODEL>
2

>  <REMARK>
 VINA RESULT:      -7.1      4.532      8.490
  Name = 
  7 active torsions:
  status: ('A' for Active; 'I' for Inactive)
    1  A    between atoms: C_3  and  C_17
    2  A    between atoms: C_3  and  C_19
    3  A    between atoms: C_3  and  C_26
    4  A    between atoms: C_4  and  C_18
    5  A    between atoms: C_11  and  C_15
    6  A    between atoms: C_14  and  C_15
    7  A    between atoms: C_18  and  C_21
                            x       y       z     vdW  Elec       q    Type
                         _______ _______ _______ _____ _____    ______ ____

>  <TORSDO>
F 7

$$$$
=
 OpenBabel11062421083D

 27 28  0  0  1  0  0  0  0  0999 V2000
  192.0240  174.7030  141.8590 O   0  0  0  0  0  1  0  0  0  0  0  0
  190.0910  174.5610  144.5750 C   0  0  0  0  0  0  0  0  0  0  0  0
  189.8870  175.1850  147.1470 S   0  0  0  0  0  0  0  0  0  0  0  0
  191.0430  176.2940  143.3530 C   0  0  0  0  0  2  0  0  0  0  0  0
  190.5410  175.7760  144.6460 C   0  0  0  0  0  0  0  0  0  0  0  0
  190.8060  175.1230  142.3920 C   0  0  2  0  0  3  0  0  0  0  0  0
  190.5770  176.4220  145.9800 C   0  0  1  0  0  3  0  0  0  0  0  0
  189.6800  173.9150  145.8440 C   0  0  0  0  0  2  0  0  0  0  0  0
  190.1760  173.9760  143.2070 C   0  0  2  0  0  3  0  0  0  0  0  0
  188.7860  173.6170  142.6580 C   0  0  1  0  0  3  0  0  0  0  0  0
  185.3960  178.6500  141.1760 O   0  0  0  0  0  1  0  0  0  0  0  0
  187.3820  175.6730  142.1520 N   0  0  0  0  0  2  0  0  0  0  0  0
  185.9370  177.6550  141.9170 N   0  0  0  0  0  2  0  0  0  0  0  0
  188.2890  174.6590  141.7010 C   0  0  0  0  0  0  0  0  0  0  0  0
  186.8310  176.7110  141.3350 C   0  0  0  0  0  0  0  0  0  0  0  0
  187.1260  176.7960  140.1130 O   0  0  0  0  0  0  0  0  0  0  0  0
  188.6850  174.6300  140.5050 O   0  0  0  0  0  0  0  0  0  0  0  0
  188.8050  172.2600  141.9660 C   0  0  0  0  0  2  0  0  0  0  0  0
  189.9010  171.5150  142.4020 O   0  0  0  0  0  1  0  0  0  0  0  0
  189.7140  177.6760  145.9710 C   0  0  0  0  0  2  0  0  0  0  0  0
  188.2670  177.3370  146.1250 C   0  0  0  0  0  3  0  0  0  0  0  0
  187.3460  177.8540  145.3060 C   0  0  0  0  0  3  0  0  0  0  0  0
  185.5830  176.8040  146.7330 C   0  0  0  0  0  1  0  0  0  0  0  0
  185.8860  177.5310  145.4320 C   0  0  1  0  0  3  0  0  0  0  0  0
  185.4310  179.7410  144.6150 O   0  0  0  0  0  0  0  0  0  0  0  0
  185.0230  178.7440  145.2690 C   0  0  0  0  0  0  0  0  0  0  0  0
  183.7520  178.7600  145.8270 O   0  0  0  0  0  1  0  0  0  0  0  0
  2  5  2  0  0  0  0
  2  8  1  0  0  0  0
  4  5  1  0  0  0  0
  5  7  1  0  0  0  0
  6  1  1  1  0  0  0
  6  9  1  0  0  0  0
  6  4  1  0  0  0  0
  7 20  1  6  0  0  0
  7  3  1  0  0  0  0
  8  3  1  0  0  0  0
  9 10  1  6  0  0  0
  9  2  1  0  0  0  0
 10 18  1  6  0  0  0
 11 13  1  0  0  0  0
 14 12  1  0  0  0  0
 14 10  1  0  0  0  0
 15 13  1  0  0  0  0
 15 12  1  0  0  0  0
 16 15  2  0  0  0  0
 17 14  2  0  0  0  0
 18 19  1  0  0  0  0
 20 21  1  0  0  0  0
 22 24  1  0  0  0  0
 22 21  2  0  0  0  0
 24 23  1  1  0  0  0
 25 26  2  0  0  0  0
 26 24  1  0  0  0  0
 26 27  1  0  0  0  0
M  END
>  <MODEL>
3

>  <REMARK>
 VINA RESULT:      -7.1      2.964      5.930
  Name = 
  7 active torsions:
  status: ('A' for Active; 'I' for Inactive)
    1  A    between atoms: C_3  and  C_17
    2  A    between atoms: C_3  and  C_19
    3  A    between atoms: C_3  and  C_26
    4  A    between atoms: C_4  and  C_18
    5  A    between atoms: C_11  and  C_15
    6  A    between atoms: C_14  and  C_15
    7  A    between atoms: C_18  and  C_21
                            x       y       z     vdW  Elec       q    Type
                         _______ _______ _______ _____ _____    ______ ____

>  <TORSDO>
F 7

$$$$
=
 OpenBabel11062421083D

 27 28  0  0  1  0  0  0  0  0999 V2000
  192.1990  174.1300  145.5350 O   0  0  0  0  0  1  0  0  0  0  0  0
  190.3630  176.6960  144.4510 C   0  0  0  0  0  0  0  0  0  0  0  0
  189.2120  177.8210  142.3390 S   0  0  0  0  0  0  0  0  0  0  0  0
  190.0890  174.3880  144.4380 C   0  0  0  0  0  2  0  0  0  0  0  0
  189.8130  175.7040  143.8190 C   0  0  0  0  0  0  0  0  0  0  0  0
  190.9540  174.7470  145.6520 C   0  0  2  0  0  3  0  0  0  0  0  0
  189.0900  176.0030  142.5600 C   0  0  1  0  0  3  0  0  0  0  0  0
  190.2430  178.0400  143.8370 C   0  0  0  0  0  2  0  0  0  0  0  0
  191.1340  176.2780  145.6560 C   0  0  2  0  0  3  0  0  0  0  0  0
  190.5540  176.8930  146.9390 C   0  0  1  0  0  3  0  0  0  0  0  0
  184.5740  178.6970  147.0610 O   0  0  0  0  0  1  0  0  0  0  0  0
  188.1520  177.7200  146.9660 N   0  0  0  0  0  2  0  0  0  0  0  0
  185.9230  178.7700  146.9660 N   0  0  0  0  0  2  0  0  0  0  0  0
  189.0810  176.6320  147.0530 C   0  0  0  0  0  0  0  0  0  0  0  0
  186.7290  177.6000  147.0720 C   0  0  0  0  0  0  0  0  0  0  0  0
  186.1870  176.4780  147.2570 O   0  0  0  0  0  0  0  0  0  0  0  0
  188.6800  175.4500  147.2210 O   0  0  0  0  0  0  0  0  0  0  0  0
  191.2620  176.3500  148.1740 C   0  0  0  0  0  2  0  0  0  0  0  0
  191.6020  177.3980  149.0310 O   0  0  0  0  0  1  0  0  0  0  0  0
  187.6310  175.5850  142.6890 C   0  0  0  0  0  2  0  0  0  0  0  0
  186.7190  176.7590  142.5460 C   0  0  0  0  0  3  0  0  0  0  0  0
  185.6920  176.9400  143.3820 C   0  0  0  0  0  3  0  0  0  0  0  0
  185.4570  179.4190  143.6040 C   0  0  0  0  0  1  0  0  0  0  0  0
  184.7590  178.1110  143.2670 C   0  0  1  0  0  3  0  0  0  0  0  0
  182.8620  177.9380  141.8080 O   0  0  0  0  0  1  0  0  0  0  0  0
  184.0940  178.1740  141.9270 C   0  0  0  0  0  0  0  0  0  0  0  0
  184.8410  178.5160  140.8080 O   0  0  0  0  0  0  0  0  0  0  0  0
  2  9  1  0  0  0  0
  3  7  1  0  0  0  0
  3  8  1  0  0  0  0
  4  6  1  0  0  0  0
  5  4  1  0  0  0  0
  5  2  2  0  0  0  0
  6  1  1  6  0  0  0
  6  9  1  0  0  0  0
  7 20  1  1  0  0  0
  7  5  1  0  0  0  0
  8  2  1  0  0  0  0
  9 10  1  1  0  0  0
 10 14  1  0  0  0  0
 10 18  1  1  0  0  0
 12 14  1  0  0  0  0
 12 15  1  0  0  0  0
 13 11  1  0  0  0  0
 13 15  1  0  0  0  0
 14 17  2  0  0  0  0
 15 16  2  0  0  0  0
 18 19  1  0  0  0  0
 21 20  1  0  0  0  0
 21 22  2  0  0  0  0
 24 22  1  0  0  0  0
 24 23  1  6  0  0  0
 25 26  1  0  0  0  0
 26 24  1  0  0  0  0
 27 26  2  0  0  0  0
M  END
>  <MODEL>
4

>  <REMARK>
 VINA RESULT:      -7.0      2.979      7.280
  Name = 
  7 active torsions:
  status: ('A' for Active; 'I' for Inactive)
    1  A    between atoms: C_3  and  C_17
    2  A    between atoms: C_3  and  C_19
    3  A    between atoms: C_3  and  C_26
    4  A    between atoms: C_4  and  C_18
    5  A    between atoms: C_11  and  C_15
    6  A    between atoms: C_14  and  C_15
    7  A    between atoms: C_18  and  C_21
                            x       y       z     vdW  Elec       q    Type
                         _______ _______ _______ _____ _____    ______ ____

>  <TORSDO>
F 7

$$$$
=
 OpenBabel11062421083D

 27 28  0  0  1  0  0  0  0  0999 V2000
  185.5910  178.7070  146.0690 O   0  0  0  0  0  1  0  0  0  0  0  0
  188.4140  177.4470  144.8150 C   0  0  0  0  0  0  0  0  0  0  0  0
  191.0260  177.1490  145.1820 S   0  0  0  0  0  0  0  0  0  0  0  0
  187.2360  177.1290  146.7930 C   0  0  0  0  0  2  0  0  0  0  0  0
  188.5260  177.1270  146.0680 C   0  0  0  0  0  0  0  0  0  0  0  0
  186.2250  177.5200  145.7090 C   0  0  2  0  0  3  0  0  0  0  0  0
  189.8900  176.9040  146.6040 C   0  0  1  0  0  3  0  0  0  0  0  0
  189.6670  177.5900  144.0370 C   0  0  0  0  0  2  0  0  0  0  0  0
  187.0110  177.7300  144.3990 C   0  0  2  0  0  3  0  0  0  0  0  0
  186.5340  176.7530  143.3130 C   0  0  1  0  0  3  0  0  0  0  0  0
  181.3130  178.9810  140.7070 O   0  0  0  0  0  1  0  0  0  0  0  0
  184.3600  177.6320  142.3360 N   0  0  0  0  0  2  0  0  0  0  0  0
  182.1290  178.3760  141.6020 N   0  0  0  0  0  2  0  0  0  0  0  0
  185.7800  177.4640  142.2300 C   0  0  0  0  0  0  0  0  0  0  0  0
  183.5310  178.2800  141.3660 C   0  0  0  0  0  0  0  0  0  0  0  0
  184.0260  178.7620  140.3120 O   0  0  0  0  0  0  0  0  0  0  0  0
  186.4120  177.9110  141.2360 O   0  0  0  0  0  0  0  0  0  0  0  0
  187.7090  175.9990  142.7030 C   0  0  0  0  0  2  0  0  0  0  0  0
  187.3030  174.7270  142.2960 O   0  0  0  0  0  1  0  0  0  0  0  0
  190.0110  175.4820  147.1360 C   0  0  0  0  0  2  0  0  0  0  0  0
  190.6000  174.5700  146.1100 C   0  0  0  0  0  3  0  0  0  0  0  0
  189.8330  173.7170  145.4240 C   0  0  0  0  0  3  0  0  0  0  0  0
  189.2910  172.0760  143.6190 C   0  0  0  0  0  1  0  0  0  0  0  0
  190.3930  172.7900  144.3850 C   0  0  1  0  0  3  0  0  0  0  0  0
  192.5710  173.2080  143.4670 O   0  0  0  0  0  1  0  0  0  0  0  0
  191.3420  173.4860  143.4590 C   0  0  0  0  0  0  0  0  0  0  0  0
  190.8560  174.4330  142.5670 O   0  0  0  0  0  0  0  0  0  0  0  0
  2  5  2  0  0  0  0
  3  7  1  0  0  0  0
  5  7  1  0  0  0  0
  5  4  1  0  0  0  0
  6  1  1  1  0  0  0
  6  4  1  0  0  0  0
  7 20  1  6  0  0  0
  8  2  1  0  0  0  0
  8  3  1  0  0  0  0
  9 10  1  6  0  0  0
  9  2  1  0  0  0  0
  9  6  1  0  0  0  0
 10 18  1  6  0  0  0
 11 13  1  0  0  0  0
 14 12  1  0  0  0  0
 14 10  1  0  0  0  0
 15 13  1  0  0  0  0
 15 12  1  0  0  0  0
 16 15  2  0  0  0  0
 17 14  2  0  0  0  0
 19 18  1  0  0  0  0
 21 20  1  0  0  0  0
 22 21  2  0  0  0  0
 24 23  1  6  0  0  0
 24 22  1  0  0  0  0
 26 25  1  0  0  0  0
 26 24  1  0  0  0  0
 27 26  2  0  0  0  0
M  END
>  <MODEL>
5

>  <REMARK>
 VINA RESULT:      -6.9      2.240      3.445
  Name = 
  7 active torsions:
  status: ('A' for Active; 'I' for Inactive)
    1  A    between atoms: C_3  and  C_17
    2  A    between atoms: C_3  and  C_19
    3  A    between atoms: C_3  and  C_26
    4  A    between atoms: C_4  and  C_18
    5  A    between atoms: C_11  and  C_15
    6  A    between atoms: C_14  and  C_15
    7  A    between atoms: C_18  and  C_21
                            x       y       z     vdW  Elec       q    Type
                         _______ _______ _______ _____ _____    ______ ____

>  <TORSDO>
F 7

$$$$
=
 OpenBabel11062421083D

 27 28  0  0  1  0  0  0  0  0999 V2000
  191.5360  179.2220  143.5170 O   0  0  0  0  0  1  0  0  0  0  0  0
  191.7060  176.6460  145.6300 C   0  0  0  0  0  0  0  0  0  0  0  0
  190.9740  175.7180  148.0070 S   0  0  0  0  0  0  0  0  0  0  0  0
  189.9620  177.7700  144.5840 C   0  0  0  0  0  2  0  0  0  0  0  0
  190.4540  176.9770  145.7310 C   0  0  0  0  0  0  0  0  0  0  0  0
  191.1950  177.8800  143.6790 C   0  0  2  0  0  3  0  0  0  0  0  0
  189.7420  176.6100  146.9790 C   0  0  1  0  0  3  0  0  0  0  0  0
  192.3200  175.9540  146.7880 C   0  0  0  0  0  2  0  0  0  0  0  0
  192.3480  177.1340  144.3770 C   0  0  2  0  0  3  0  0  0  0  0  0
  192.8510  175.9700  143.5090 C   0  0  1  0  0  3  0  0  0  0  0  0
  197.1150  171.9980  145.7600 O   0  0  0  0  0  1  0  0  0  0  0  0
  194.5130  174.2840  144.4320 N   0  0  0  0  0  2  0  0  0  0  0  0
  195.9140  172.4890  145.3720 N   0  0  0  0  0  2  0  0  0  0  0  0
  194.2520  175.5790  143.8750 C   0  0  0  0  0  0  0  0  0  0  0  0
  195.8000  173.8020  144.8310 C   0  0  0  0  0  0  0  0  0  0  0  0
  196.8260  174.5230  144.7090 O   0  0  0  0  0  0  0  0  0  0  0  0
  195.1870  176.4010  143.6810 O   0  0  0  0  0  0  0  0  0  0  0  0
  191.9360  174.7570  143.6370 C   0  0  0  0  0  2  0  0  0  0  0  0
  191.2270  174.5650  142.4510 O   0  0  0  0  0  1  0  0  0  0  0  0
  188.5670  175.6970  146.6540 C   0  0  0  0  0  2  0  0  0  0  0  0
  187.2680  176.4240  146.7780 C   0  0  0  0  0  3  0  0  0  0  0  0
  186.5260  176.6980  145.7010 C   0  0  0  0  0  3  0  0  0  0  0  0
  185.1340  178.2810  147.0440 C   0  0  0  0  0  1  0  0  0  0  0  0
  185.2150  177.4230  145.7910 C   0  0  1  0  0  3  0  0  0  0  0  0
  184.8090  179.4770  144.6190 O   0  0  0  0  0  1  0  0  0  0  0  0
  184.9270  178.2240  144.5590 C   0  0  0  0  0  0  0  0  0  0  0  0
  184.8100  177.5790  143.3360 O   0  0  0  0  0  0  0  0  0  0  0  0
  2  5  2  0  0  0  0
  2  8  1  0  0  0  0
  4  5  1  0  0  0  0
  5  7  1  0  0  0  0
  6  1  1  1  0  0  0
  6  9  1  0  0  0  0
  6  4  1  0  0  0  0
  7 20  1  6  0  0  0
  7  3  1  0  0  0  0
  8  3  1  0  0  0  0
  9 10  1  6  0  0  0
  9  2  1  0  0  0  0
 10 18  1  1  0  0  0
 10 14  1  0  0  0  0
 12 15  1  0  0  0  0
 13 11  1  0  0  0  0
 14 12  1  0  0  0  0
 15 13  1  0  0  0  0
 16 15  2  0  0  0  0
 17 14  2  0  0  0  0
 19 18  1  0  0  0  0
 20 21  1  0  0  0  0
 22 24  1  0  0  0  0
 22 21  2  0  0  0  0
 24 23  1  1  0  0  0
 26 25  1  0  0  0  0
 26 24  1  0  0  0  0
 27 26  2  0  0  0  0
M  END
>  <MODEL>
6

>  <REMARK>
 VINA RESULT:      -6.8      4.433      9.270
  Name = 
  7 active torsions:
  status: ('A' for Active; 'I' for Inactive)
    1  A    between atoms: C_3  and  C_17
    2  A    between atoms: C_3  and  C_19
    3  A    between atoms: C_3  and  C_26
    4  A    between atoms: C_4  and  C_18
    5  A    between atoms: C_11  and  C_15
    6  A    between atoms: C_14  and  C_15
    7  A    between atoms: C_18  and  C_21
                            x       y       z     vdW  Elec       q    Type
                         _______ _______ _______ _____ _____    ______ ____

>  <TORSDO>
F 7

$$$$
=
 OpenBabel11062421083D

 27 28  0  0  1  0  0  0  0  0999 V2000
  186.6570  175.0320  142.7640 O   0  0  0  0  0  1  0  0  0  0  0  0
  187.9890  176.6880  145.3360 C   0  0  0  0  0  0  0  0  0  0  0  0
  189.8440  176.6490  147.2340 S   0  0  0  0  0  0  0  0  0  0  0  0
  188.8210  175.8880  143.3190 C   0  0  0  0  0  2  0  0  0  0  0  0
  189.0530  176.2530  144.7340 C   0  0  0  0  0  0  0  0  0  0  0  0
  187.3330  176.1990  143.1170 C   0  0  2  0  0  3  0  0  0  0  0  0
  190.2870  176.0970  145.5400 C   0  0  1  0  0  3  0  0  0  0  0  0
  188.0960  176.9620  146.7890 C   0  0  0  0  0  2  0  0  0  0  0  0
  186.7850  176.7280  144.4580 C   0  0  2  0  0  3  0  0  0  0  0  0
  186.2470  178.1590  144.3010 C   0  0  1  0  0  3  0  0  0  0  0  0
  181.5620  178.1300  140.1700 O   0  0  0  0  0  1  0  0  0  0  0  0
  184.2780  178.1230  142.6950 N   0  0  0  0  0  2  0  0  0  0  0  0
  182.2230  177.9910  141.3430 N   0  0  0  0  0  2  0  0  0  0  0  0
  185.6690  178.3790  142.9350 C   0  0  0  0  0  0  0  0  0  0  0  0
  183.6150  178.2830  141.4370 C   0  0  0  0  0  0  0  0  0  0  0  0
  184.2450  178.6760  140.4200 O   0  0  0  0  0  0  0  0  0  0  0  0
  186.4190  178.7930  142.0120 O   0  0  0  0  0  0  0  0  0  0  0  0
  185.1900  178.4640  145.3550 C   0  0  0  0  0  2  0  0  0  0  0  0
  185.6720  179.4140  146.2560 O   0  0  0  0  0  1  0  0  0  0  0  0
  191.3920  176.9770  144.9720 C   0  0  0  0  0  2  0  0  0  0  0  0
  192.7240  176.3100  145.0780 C   0  0  0  0  0  3  0  0  0  0  0  0
  193.8560  177.0170  145.0260 C   0  0  0  0  0  3  0  0  0  0  0  0
  195.1370  175.0250  145.8260 C   0  0  0  0  0  1  0  0  0  0  0  0
  195.2100  176.3770  145.1330 C   0  0  1  0  0  3  0  0  0  0  0  0
  196.8200  177.0700  143.4940 O   0  0  0  0  0  1  0  0  0  0  0  0
  195.8920  176.2750  143.8040 C   0  0  0  0  0  0  0  0  0  0  0  0
  195.5130  175.2800  142.9140 O   0  0  0  0  0  0  0  0  0  0  0  0
  2  8  1  0  0  0  0
  4  5  1  0  0  0  0
  5  2  2  0  0  0  0
  5  7  1  0  0  0  0
  6  1  1  1  0  0  0
  6  4  1  0  0  0  0
  6  9  1  0  0  0  0
  7 20  1  6  0  0  0
  7  3  1  0  0  0  0
  8  3  1  0  0  0  0
  9 10  1  6  0  0  0
  9  2  1  0  0  0  0
 10 18  1  1  0  0  0
 11 13  1  0  0  0  0
 12 14  1  0  0  0  0
 13 15  1  0  0  0  0
 14 10  1  0  0  0  0
 15 12  1  0  0  0  0
 16 15  2  0  0  0  0
 17 14  2  0  0  0  0
 18 19  1  0  0  0  0
 20 21  1  0  0  0  0
 22 21  2  0  0  0  0
 22 24  1  0  0  0  0
 24 23  1  6  0  0  0
 25 26  1  0  0  0  0
 26 24  1  0  0  0  0
 27 26  2  0  0  0  0
M  END
>  <MODEL>
7

>  <REMARK>
 VINA RESULT:      -6.8      1.726      2.338
  Name = 
  7 active torsions:
  status: ('A' for Active; 'I' for Inactive)
    1  A    between atoms: C_3  and  C_17
    2  A    between atoms: C_3  and  C_19
    3  A    between atoms: C_3  and  C_26
    4  A    between atoms: C_4  and  C_18
    5  A    between atoms: C_11  and  C_15
    6  A    between atoms: C_14  and  C_15
    7  A    between atoms: C_18  and  C_21
                            x       y       z     vdW  Elec       q    Type
                         _______ _______ _______ _____ _____    ______ ____

>  <TORSDO>
F 7

$$$$
=
 OpenBabel11062421083D

 27 28  0  0  1  0  0  0  0  0999 V2000
  189.5560  178.4840  141.9380 O   0  0  0  0  0  1  0  0  0  0  0  0
  188.3560  175.3730  142.0570 C   0  0  0  0  0  0  0  0  0  0  0  0
  188.9750  172.7990  142.2470 S   0  0  0  0  0  0  0  0  0  0  0  0
  189.6510  176.6660  143.4900 C   0  0  0  0  0  2  0  0  0  0  0  0
  189.2680  175.3310  142.9810 C   0  0  0  0  0  0  0  0  0  0  0  0
  188.7590  177.6180  142.6840 C   0  0  2  0  0  3  0  0  0  0  0  0
  189.8460  174.0080  143.3190 C   0  0  1  0  0  3  0  0  0  0  0  0
  187.9970  174.0940  141.4010 C   0  0  0  0  0  2  0  0  0  0  0  0
  187.9030  176.7560  141.7350 C   0  0  2  0  0  3  0  0  0  0  0  0
  186.4060  176.9430  142.0280 C   0  0  1  0  0  3  0  0  0  0  0  0
  185.9100  177.7300  148.2050 O   0  0  0  0  0  1  0  0  0  0  0  0
  186.2300  177.1670  144.5530 N   0  0  0  0  0  2  0  0  0  0  0  0
  186.0970  177.1170  147.0130 N   0  0  0  0  0  2  0  0  0  0  0  0
  186.1900  177.7770  143.2560 C   0  0  0  0  0  0  0  0  0  0  0  0
  186.0280  177.8510  145.7940 C   0  0  0  0  0  0  0  0  0  0  0  0
  185.7900  179.0890  145.8170 O   0  0  0  0  0  0  0  0  0  0  0  0
  185.9780  179.0120  143.1280 O   0  0  0  0  0  0  0  0  0  0  0  0
  185.6930  177.5870  140.8460 C   0  0  0  0  0  2  0  0  0  0  0  0
  186.5390  177.6160  139.7350 O   0  0  0  0  0  1  0  0  0  0  0  0
  189.5900  173.6920  144.7860 C   0  0  0  0  0  2  0  0  0  0  0  0
  190.6630  174.2600  145.6570 C   0  0  0  0  0  3  0  0  0  0  0  0
  190.3820  175.1760  146.5890 C   0  0  0  0  0  3  0  0  0  0  0  0
  192.7700  175.8930  146.7640 C   0  0  0  0  0  1  0  0  0  0  0  0
  191.4360  175.7640  147.4820 C   0  0  1  0  0  3  0  0  0  0  0  0
  190.0320  177.7070  147.5980 O   0  0  0  0  0  0  0  0  0  0  0  0
  191.0070  177.0680  148.0790 C   0  0  0  0  0  0  0  0  0  0  0  0
  191.6760  177.5660  149.1870 O   0  0  0  0  0  1  0  0  0  0  0  0
  2  5  2  0  0  0  0
  3  7  1  0  0  0  0
  5  7  1  0  0  0  0
  5  4  1  0  0  0  0
  6  1  1  6  0  0  0
  6  4  1  0  0  0  0
  7 20  1  1  0  0  0
  8  2  1  0  0  0  0
  8  3  1  0  0  0  0
  9 10  1  1  0  0  0
  9  2  1  0  0  0  0
  9  6  1  0  0  0  0
 10 18  1  6  0  0  0
 10 14  1  0  0  0  0
 12 15  1  0  0  0  0
 13 11  1  0  0  0  0
 14 12  1  0  0  0  0
 15 16  2  0  0  0  0
 15 13  1  0  0  0  0
 17 14  2  0  0  0  0
 19 18  1  0  0  0  0
 20 21  1  0  0  0  0
 21 22  2  0  0  0  0
 22 24  1  0  0  0  0
 24 23  1  6  0  0  0
 24 26  1  0  0  0  0
 25 26  2  0  0  0  0
 26 27  1  0  0  0  0
M  END
>  <MODEL>
8

>  <REMARK>
 VINA RESULT:      -6.7      3.217      4.601
  Name = 
  7 active torsions:
  status: ('A' for Active; 'I' for Inactive)
    1  A    between atoms: C_3  and  C_17
    2  A    between atoms: C_3  and  C_19
    3  A    between atoms: C_3  and  C_26
    4  A    between atoms: C_4  and  C_18
    5  A    between atoms: C_11  and  C_15
    6  A    between atoms: C_14  and  C_15
    7  A    between atoms: C_18  and  C_21
                            x       y       z     vdW  Elec       q    Type
                         _______ _______ _______ _____ _____    ______ ____

>  <TORSDO>
F 7

$$$$
=
 OpenBabel11062421083D

 27 28  0  0  1  0  0  0  0  0999 V2000
  191.5350  177.8830  142.7610 O   0  0  0  0  0  1  0  0  0  0  0  0
  191.4650  175.8750  145.4250 C   0  0  0  0  0  0  0  0  0  0  0  0
  190.8680  175.6880  148.0050 S   0  0  0  0  0  0  0  0  0  0  0  0
  189.8550  177.0850  144.2660 C   0  0  0  0  0  2  0  0  0  0  0  0
  190.3230  176.4840  145.5340 C   0  0  0  0  0  0  0  0  0  0  0  0
  190.9650  176.7190  143.2730 C   0  0  2  0  0  3  0  0  0  0  0  0
  189.7130  176.5700  146.8820 C   0  0  1  0  0  3  0  0  0  0  0  0
  192.0730  175.3470  146.6690 C   0  0  0  0  0  2  0  0  0  0  0  0
  192.0300  175.9170  144.0470 C   0  0  2  0  0  3  0  0  0  0  0  0
  192.1870  174.5070  143.4570 C   0  0  1  0  0  3  0  0  0  0  0  0
  188.1990  173.4190  138.7740 O   0  0  0  0  0  1  0  0  0  0  0  0
  190.6360  174.0960  141.4880 N   0  0  0  0  0  2  0  0  0  0  0  0
  189.3170  173.8170  139.4250 N   0  0  0  0  0  2  0  0  0  0  0  0
  190.8920  174.0020  142.8950 C   0  0  0  0  0  0  0  0  0  0  0  0
  189.4380  173.6620  140.8360 C   0  0  0  0  0  0  0  0  0  0  0  0
  188.4940  173.1480  141.4940 O   0  0  0  0  0  0  0  0  0  0  0  0
  190.0430  173.4940  143.6750 O   0  0  0  0  0  0  0  0  0  0  0  0
  193.2550  174.4840  142.3700 C   0  0  0  0  0  2  0  0  0  0  0  0
  194.1640  175.5250  142.5700 O   0  0  0  0  0  1  0  0  0  0  0  0
  188.3540  175.8850  146.8800 C   0  0  0  0  0  2  0  0  0  0  0  0
  187.2440  176.8850  146.8940 C   0  0  0  0  0  3  0  0  0  0  0  0
  186.2030  176.7710  146.0650 C   0  0  0  0  0  3  0  0  0  0  0  0
  185.1010  178.6550  147.2820 C   0  0  0  0  0  1  0  0  0  0  0  0
  185.0710  177.7570  146.0560 C   0  0  1  0  0  3  0  0  0  0  0  0
  184.4270  178.1210  143.7740 O   0  0  0  0  0  0  0  0  0  0  0  0
  185.0280  178.5570  144.7920 C   0  0  0  0  0  0  0  0  0  0  0  0
  185.6400  179.8020  144.7480 O   0  0  0  0  0  1  0  0  0  0  0  0
  2  5  2  0  0  0  0
  2  8  1  0  0  0  0
  4  5  1  0  0  0  0
  5  7  1  0  0  0  0
  6  1  1  1  0  0  0
  6  9  1  0  0  0  0
  6  4  1  0  0  0  0
  7 20  1  6  0  0  0
  7  3  1  0  0  0  0
  8  3  1  0  0  0  0
  9 10  1  6  0  0  0
  9  2  1  0  0  0  0
 10 18  1  6  0  0  0
 11 13  1  0  0  0  0
 12 14  1  0  0  0  0
 13 15  1  0  0  0  0
 14 10  1  0  0  0  0
 14 17  2  0  0  0  0
 15 12  1  0  0  0  0
 15 16  2  0  0  0  0
 18 19  1  0  0  0  0
 20 21  1  0  0  0  0
 22 21  2  0  0  0  0
 24 22  1  0  0  0  0
 24 23  1  1  0  0  0
 25 26  2  0  0  0  0
 26 24  1  0  0  0  0
 27 26  1  0  0  0  0
M  END
>  <MODEL>
9

>  <REMARK>
 VINA RESULT:      -6.6      3.579      7.206
  Name = 
  7 active torsions:
  status: ('A' for Active; 'I' for Inactive)
    1  A    between atoms: C_3  and  C_17
    2  A    between atoms: C_3  and  C_19
    3  A    between atoms: C_3  and  C_26
    4  A    between atoms: C_4  and  C_18
    5  A    between atoms: C_11  and  C_15
    6  A    between atoms: C_14  and  C_15
    7  A    between atoms: C_18  and  C_21
                            x       y       z     vdW  Elec       q    Type
                         _______ _______ _______ _____ _____    ______ ____

>  <TORSDO>
F 7

$$$$
