=
 OpenBabel11062420263D

 49 55  0  0  1  0  0  0  0  0999 V2000
  195.1770  176.0470  144.3710 C   0  0  0  0  0  2  0  0  0  0  0  0
  190.4350  175.2540  145.8420 C   0  0  0  0  0  3  0  0  0  0  0  0
  194.3900  174.1550  142.7320 C   0  0  1  0  0  3  0  0  0  0  0  0
  194.8670  172.9110  141.9650 C   0  0  0  0  0  2  0  0  0  0  0  0
  190.1840  173.6700  142.9490 C   0  0  2  0  0  3  0  0  0  0  0  0
  195.5040  174.9130  143.4310 C   0  0  0  0  0  0  0  0  0  0  0  0
  192.5860  174.3650  145.1970 C   0  0  0  0  0  3  0  0  0  0  0  0
  194.7140  175.5980  145.7660 C   0  0  2  0  0  3  0  0  0  0  0  0
  188.1580  174.5410  140.1840 S   0  0  0  0  0  0  0  0  0  0  0  0
  191.1940  174.2850  145.1790 C   0  0  0  0  0  0  0  0  0  0  0  0
  195.3830  174.4450  146.2020 O   0  0  0  0  0  1  0  0  0  0  0  0
  191.0690  176.3090  146.5120 C   0  0  0  0  0  0  0  0  0  0  0  0
  191.0230  173.8060  140.6300 O   0  0  0  0  0  0  0  0  0  0  0  0
  191.4050  173.8380  141.9910 C   0  0  1  0  0  3  0  0  0  0  0  0
  196.7980  174.6610  143.1740 C   0  0  0  0  0  3  0  0  0  0  0  0
  189.0180  175.4520  141.5320 C   0  0  2  0  0  3  0  0  0  0  0  0
  189.0850  174.7370  142.8820 C   0  0  0  0  0  2  0  0  0  0  0  0
  192.4640  176.4010  146.4980 C   0  0  0  0  0  3  0  0  0  0  0  0
  197.2440  173.5290  142.2870 C   0  0  0  0  0  2  0  0  0  0  0  0
  193.5970  175.0700  141.8050 C   0  0  0  0  0  2  0  0  0  0  0  0
  189.6430  172.5730  139.0790 C   0  0  0  0  0  2  0  0  0  0  0  0
  192.1490  175.1450  142.2620 C   0  0  0  0  0  2  0  0  0  0  0  0
  190.3390  172.5970  140.4150 C   0  0  2  0  0  3  0  0  0  0  0  0
  188.8230  172.8280  140.3380 C   0  0  1  0  0  3  0  0  0  0  0  0
  193.2310  175.4290  145.8470 C   0  0  0  0  0  0  0  0  0  0  0  0
  196.1810  173.1930  141.2440 C   0  0  0  0  0  2  0  0  0  0  0  0
  190.5250  173.2190  144.3750 C   0  0  0  0  0  2  0  0  0  0  0  0
  186.3730  175.8920  142.3510 O   0  0  0  0  0  0  0  0  0  0  0  0
  187.0400  176.9200  142.0320 C   0  0  0  0  0  0  0  0  0  0  0  0
  188.4400  176.7890  141.7000 N   0  0  0  0  0  0  0  0  0  0  0  0
  186.3730  178.2740  142.1000 C   0  0  1  0  0  3  0  0  0  0  0  0
  184.9070  178.1290  142.4710 C   0  0  0  0  0  2  0  0  0  0  0  0
  185.8630  178.7180  143.4870 C   0  0  1  0  0  3  0  0  0  0  0  0
  184.8540  178.7080  146.4570 C   0  0  2  0  0  3  0  0  0  0  0  0
  184.1420  178.4010  147.6220 O   0  0  0  0  0  1  0  0  0  0  0  0
  186.0950  177.7270  144.6370 C   0  0  2  0  0  3  0  0  0  0  0  0
  184.8710  176.3330  146.1160 O   0  0  0  0  0  1  0  0  0  0  0  0
  184.8230  177.5620  145.4550 C   0  0  1  0  0  3  0  0  0  0  0  0
  187.1180  178.3190  145.5970 C   0  0  0  0  0  2  0  0  0  0  0  0
  186.3340  179.0210  146.7080 C   0  0  2  0  0  3  0  0  0  0  0  0
  186.9420  177.2610  148.3990 O   0  0  0  0  0  0  0  0  0  0  0  0
  187.1190  179.4920  148.9090 O   0  0  0  0  0  1  0  0  0  0  0  0
  186.8300  178.6060  148.0610 C   0  0  0  0  0  0  0  0  0  0  0  0
  189.3210  177.9610  141.6940 C   0  0  0  0  0  2  0  0  0  0  0  0
  190.5890  178.1630  143.9840 N   0  0  0  0  0  0  0  0  0  0  0  0
  190.0300  178.0730  142.9750 C   0  0  0  0  0  0  0  0  0  0  0  0
  190.2550  177.3560  147.1940 C   0  0  0  0  0  2  0  0  0  0  0  0
  190.5240  178.6370  148.9960 C   0  0  0  0  0  1  0  0  0  0  0  0
  190.4770  177.3000  148.5770 O   0  0  0  0  0  0  0  0  0  0  0  0
  1  8  1  0  0  0  0
  2 12  1  0  0  0  0
  3 20  1  6  0  0  0
  3  6  1  0  0  0  0
  4  3  1  0  0  0  0
  5 17  1  1  0  0  0
  5 27  1  0  0  0  0
  6  1  1  0  0  0  0
  7 25  2  0  0  0  0
  8 25  1  0  0  0  0
  8 11  1  6  0  0  0
  9 24  1  0  0  0  0
  9 16  1  0  0  0  0
 10  7  1  0  0  0  0
 10  2  2  0  0  0  0
 12 47  1  0  0  0  0
 13 14  1  0  0  0  0
 14 22  1  1  0  0  0
 14  5  1  0  0  0  0
 15  6  2  0  0  0  0
 16 30  1  1  0  0  0
 16 17  1  0  0  0  0
 18 12  2  0  0  0  0
 19 15  1  0  0  0  0
 20 22  1  0  0  0  0
 23 21  1  6  0  0  0
 23 13  1  0  0  0  0
 24 21  1  6  0  0  0
 24 23  1  0  0  0  0
 25 18  1  0  0  0  0
 26  4  1  0  0  0  0
 26 19  1  0  0  0  0
 27 10  1  0  0  0  0
 29 28  2  0  0  0  0
 30 29  1  0  0  0  0
 31 29  1  1  0  0  0
 31 32  1  0  0  0  0
 31 33  1  0  0  0  0
 33 32  1  6  0  0  0
 33 36  1  0  0  0  0
 34 40  1  0  0  0  0
 34 35  1  1  0  0  0
 36 38  1  0  0  0  0
 36 39  1  1  0  0  0
 38 37  1  1  0  0  0
 38 34  1  0  0  0  0
 39 40  1  0  0  0  0
 40 43  1  1  0  0  0
 43 41  2  0  0  0  0
 43 42  1  0  0  0  0
 44 30  1  0  0  0  0
 44 46  1  0  0  0  0
 46 45  3  0  0  0  0
 47 49  1  0  0  0  0
 49 48  1  0  0  0  0
M  END
>  <MODEL>
1

>  <REMARK>
 VINA RESULT:      -7.3      0.000      0.000
  Name = 
  8 active torsions:
  status: ('A' for Active; 'I' for Inactive)
    1  A    between atoms: C_6  and  O_23
    2  A    between atoms: C_6  and  C_24
    3  A    between atoms: C_13  and  C_19
    4  A    between atoms: C_16  and  C_47
    5  A    between atoms: C_27  and  C_34
    6  A    between atoms: C_30  and  N_37
    7  A    between atoms: C_34  and  N_37
    8  A    between atoms: C_38  and  C_46
                            x       y       z     vdW  Elec       q    Type
                         _______ _______ _______ _____ _____    ______ ____

>  <TORSDO>
F 8

$$$$
=
 OpenBabel11062420263D

 49 55  0  0  1  0  0  0  0  0999 V2000
  192.2770  171.5430  139.1180 C   0  0  0  0  0  2  0  0  0  0  0  0
  191.4520  171.0980  144.0570 C   0  0  0  0  0  3  0  0  0  0  0  0
  190.0290  172.8600  139.4330 C   0  0  1  0  0  3  0  0  0  0  0  0
  188.6920  173.1970  138.7520 C   0  0  0  0  0  2  0  0  0  0  0  0
  189.2820  173.5420  143.5490 C   0  0  2  0  0  3  0  0  0  0  0  0
  191.0000  172.1030  138.5430 C   0  0  0  0  0  0  0  0  0  0  0  0
  190.6130  171.0010  141.7950 C   0  0  0  0  0  3  0  0  0  0  0  0
  192.0960  170.2330  139.9020 C   0  0  2  0  0  3  0  0  0  0  0  0
  189.3970  176.8300  144.8480 S   0  0  0  0  0  0  0  0  0  0  0  0
  190.4260  171.3290  143.1370 C   0  0  0  0  0  0  0  0  0  0  0  0
  191.1160  169.4070  139.3360 O   0  0  0  0  0  1  0  0  0  0  0  0
  192.6690  170.5480  143.6330 C   0  0  0  0  0  0  0  0  0  0  0  0
  188.9920  175.5670  142.1660 O   0  0  0  0  0  0  0  0  0  0  0  0
  189.3380  174.1970  142.1340 C   0  0  1  0  0  3  0  0  0  0  0  0
  190.7980  171.9840  137.2210 C   0  0  0  0  0  3  0  0  0  0  0  0
  190.6330  175.5540  144.3690 C   0  0  2  0  0  3  0  0  0  0  0  0
  190.2250  174.1020  144.6210 C   0  0  0  0  0  2  0  0  0  0  0  0
  192.8620  170.2520  142.2810 C   0  0  0  0  0  3  0  0  0  0  0  0
  189.5430  172.4670  136.5440 C   0  0  0  0  0  2  0  0  0  0  0  0
  190.6660  174.1270  139.9910 C   0  0  0  0  0  2  0  0  0  0  0  0
  187.3600  177.0870  143.0910 C   0  0  0  0  0  2  0  0  0  0  0  0
  190.7260  174.0550  141.5090 C   0  0  0  0  0  2  0  0  0  0  0  0
  187.7170  175.6640  142.7490 C   0  0  2  0  0  3  0  0  0  0  0  0
  187.8100  176.1470  144.2030 C   0  0  1  0  0  3  0  0  0  0  0  0
  191.8360  170.4700  141.3550 C   0  0  0  0  0  0  0  0  0  0  0  0
  188.9160  173.6310  137.3080 C   0  0  0  0  0  2  0  0  0  0  0  0
  189.1680  172.0120  143.5620 C   0  0  0  0  0  2  0  0  0  0  0  0
  192.4020  177.5250  143.4500 O   0  0  0  0  0  0  0  0  0  0  0  0
  192.8170  176.7970  144.3990 C   0  0  0  0  0  0  0  0  0  0  0  0
  191.9280  175.8280  144.9990 N   0  0  0  0  0  0  0  0  0  0  0  0
  194.2080  177.0280  144.9440 C   0  0  1  0  0  3  0  0  0  0  0  0
  194.8430  175.7130  145.3600 C   0  0  0  0  0  2  0  0  0  0  0  0
  195.3710  176.4230  144.1310 C   0  0  1  0  0  3  0  0  0  0  0  0
  197.0510  174.6280  142.1830 C   0  0  2  0  0  3  0  0  0  0  0  0
  197.5890  173.5170  141.5240 O   0  0  0  0  0  1  0  0  0  0  0  0
  194.9780  175.6550  142.8620 C   0  0  2  0  0  3  0  0  0  0  0  0
  194.9710  173.4450  141.9970 O   0  0  0  0  0  1  0  0  0  0  0  0
  195.6990  174.3170  142.8110 C   0  0  1  0  0  3  0  0  0  0  0  0
  195.4730  176.4270  141.6470 C   0  0  0  0  0  2  0  0  0  0  0  0
  196.8320  175.8360  141.2660 C   0  0  2  0  0  3  0  0  0  0  0  0
  195.8120  174.9130  139.1600 O   0  0  0  0  0  1  0  0  0  0  0  0
  197.9410  175.7730  139.1560 O   0  0  0  0  0  0  0  0  0  0  0  0
  196.8890  175.5170  139.8010 C   0  0  0  0  0  0  0  0  0  0  0  0
  192.2300  175.2460  146.3090 C   0  0  0  0  0  2  0  0  0  0  0  0
  191.3480  176.8060  148.2270 N   0  0  0  0  0  0  0  0  0  0  0  0
  191.7370  176.1190  147.3820 C   0  0  0  0  0  0  0  0  0  0  0  0
  193.7710  170.3270  144.6130 C   0  0  0  0  0  2  0  0  0  0  0  0
  195.4090  171.6010  145.4210 C   0  0  0  0  0  1  0  0  0  0  0  0
  194.0130  171.5100  145.3260 O   0  0  0  0  0  0  0  0  0  0  0  0
  1  8  1  0  0  0  0
  3  4  1  6  0  0  0
  3 20  1  0  0  0  0
  5 27  1  6  0  0  0
  5 17  1  0  0  0  0
  6  1  1  0  0  0  0
  6  3  1  0  0  0  0
  7 10  1  0  0  0  0
  8 11  1  6  0  0  0
  8 25  1  0  0  0  0
 10 27  1  0  0  0  0
 10  2  2  0  0  0  0
 12  2  1  0  0  0  0
 12 47  1  0  0  0  0
 13 23  1  0  0  0  0
 14 22  1  1  0  0  0
 14 13  1  0  0  0  0
 14  5  1  0  0  0  0
 15  6  2  0  0  0  0
 16 17  1  0  0  0  0
 16  9  1  0  0  0  0
 16 30  1  1  0  0  0
 18 12  2  0  0  0  0
 19 15  1  0  0  0  0
 19 26  1  0  0  0  0
 20 22  1  0  0  0  0
 23 21  1  6  0  0  0
 23 24  1  0  0  0  0
 24 21  1  6  0  0  0
 24  9  1  0  0  0  0
 25  7  2  0  0  0  0
 25 18  1  0  0  0  0
 26  4  1  0  0  0  0
 28 29  2  0  0  0  0
 29 30  1  0  0  0  0
 30 44  1  0  0  0  0
 31 29  1  6  0  0  0
 31 32  1  0  0  0  0
 33 31  1  0  0  0  0
 33 32  1  1  0  0  0
 34 35  1  6  0  0  0
 34 38  1  0  0  0  0
 36 39  1  6  0  0  0
 36 33  1  0  0  0  0
 38 37  1  6  0  0  0
 38 36  1  0  0  0  0
 40 43  1  6  0  0  0
 40 39  1  0  0  0  0
 40 34  1  0  0  0  0
 41 43  1  0  0  0  0
 42 43  2  0  0  0  0
 44 46  1  0  0  0  0
 46 45  3  0  0  0  0
 47 49  1  0  0  0  0
 49 48  1  0  0  0  0
M  END
>  <MODEL>
2

>  <REMARK>
 VINA RESULT:      -7.2      3.156      8.125
  Name = 
  8 active torsions:
  status: ('A' for Active; 'I' for Inactive)
    1  A    between atoms: C_6  and  O_23
    2  A    between atoms: C_6  and  C_24
    3  A    between atoms: C_13  and  C_19
    4  A    between atoms: C_16  and  C_47
    5  A    between atoms: C_27  and  C_34
    6  A    between atoms: C_30  and  N_37
    7  A    between atoms: C_34  and  N_37
    8  A    between atoms: C_38  and  C_46
                            x       y       z     vdW  Elec       q    Type
                         _______ _______ _______ _____ _____    ______ ____

>  <TORSDO>
F 8

$$$$
=
 OpenBabel11062420263D

 49 55  0  0  1  0  0  0  0  0999 V2000
  195.7360  170.5300  141.9120 C   0  0  0  0  0  2  0  0  0  0  0  0
  194.4100  175.0990  140.2890 C   0  0  0  0  0  3  0  0  0  0  0  0
  195.8930  171.9710  144.1000 C   0  0  1  0  0  3  0  0  0  0  0  0
  196.6770  172.1380  145.4120 C   0  0  0  0  0  2  0  0  0  0  0  0
  194.0640  175.7490  143.5130 C   0  0  2  0  0  3  0  0  0  0  0  0
  196.2820  170.7380  143.3030 C   0  0  0  0  0  0  0  0  0  0  0  0
  195.9030  173.7060  141.5770 C   0  0  0  0  0  3  0  0  0  0  0  0
  196.4440  171.3570  140.8260 C   0  0  2  0  0  3  0  0  0  0  0  0
  191.0860  176.5610  145.2400 S   0  0  0  0  0  0  0  0  0  0  0  0
  195.1990  174.9000  141.4240 C   0  0  0  0  0  0  0  0  0  0  0  0
  197.8170  171.4890  141.0700 O   0  0  0  0  0  1  0  0  0  0  0  0
  194.3150  174.1000  139.3110 C   0  0  0  0  0  0  0  0  0  0  0  0
  193.3570  174.6480  145.6080 O   0  0  0  0  0  0  0  0  0  0  0  0
  194.1650  174.5100  144.4550 C   0  0  1  0  0  3  0  0  0  0  0  0
  197.0400  169.7650  143.8340 C   0  0  0  0  0  3  0  0  0  0  0  0
  191.5270  175.5490  143.7680 C   0  0  2  0  0  3  0  0  0  0  0  0
  192.6870  176.0730  142.9220 C   0  0  0  0  0  2  0  0  0  0  0  0
  194.9970  172.8920  139.4860 C   0  0  0  0  0  3  0  0  0  0  0  0
  197.6720  169.8810  145.1970 C   0  0  0  0  0  2  0  0  0  0  0  0
  194.3950  172.0000  144.3770 C   0  0  0  0  0  2  0  0  0  0  0  0
  192.7700  176.2370  147.3290 C   0  0  0  0  0  2  0  0  0  0  0  0
  193.7690  173.2250  143.7290 C   0  0  0  0  0  2  0  0  0  0  0  0
  193.7420  175.8380  146.2490 C   0  0  2  0  0  3  0  0  0  0  0  0
  192.7250  176.9590  145.9880 C   0  0  1  0  0  3  0  0  0  0  0  0
  195.7990  172.6890  140.6150 C   0  0  0  0  0  0  0  0  0  0  0  0
  196.8560  170.7930  146.1080 C   0  0  0  0  0  2  0  0  0  0  0  0
  195.2210  175.9160  142.5190 C   0  0  0  0  0  2  0  0  0  0  0  0
  190.0680  177.6330  142.5900 O   0  0  0  0  0  0  0  0  0  0  0  0
  189.6010  176.4660  142.4380 C   0  0  0  0  0  0  0  0  0  0  0  0
  190.3490  175.3280  142.9240 N   0  0  0  0  0  0  0  0  0  0  0  0
  188.3160  176.2870  141.6640 C   0  0  1  0  0  3  0  0  0  0  0  0
  187.3370  175.4290  142.4470 C   0  0  0  0  0  2  0  0  0  0  0  0
  187.0480  176.9070  142.2900 C   0  0  1  0  0  3  0  0  0  0  0  0
  185.5060  176.6980  145.0130 C   0  0  2  0  0  3  0  0  0  0  0  0
  185.1730  176.3860  146.3360 O   0  0  0  0  0  1  0  0  0  0  0  0
  187.2440  177.6330  143.6270 C   0  0  2  0  0  3  0  0  0  0  0  0
  187.6830  177.1600  145.9110 O   0  0  0  0  0  1  0  0  0  0  0  0
  187.0120  176.6750  144.7860 C   0  0  1  0  0  3  0  0  0  0  0  0
  186.1710  178.7030  143.7680 C   0  0  0  0  0  2  0  0  0  0  0  0
  185.0250  178.0840  144.5710 C   0  0  2  0  0  3  0  0  0  0  0  0
  185.5640  179.6570  146.4590 O   0  0  0  0  0  1  0  0  0  0  0  0
  183.3900  179.0980  145.9790 O   0  0  0  0  0  0  0  0  0  0  0  0
  184.6130  178.9820  145.7000 C   0  0  0  0  0  0  0  0  0  0  0  0
  190.0450  173.9750  142.4500 C   0  0  0  0  0  2  0  0  0  0  0  0
  189.8860  172.3110  144.4740 N   0  0  0  0  0  0  0  0  0  0  0  0
  189.9560  173.0450  143.5820 C   0  0  0  0  0  0  0  0  0  0  0  0
  193.4500  174.3060  138.1140 C   0  0  0  0  0  2  0  0  0  0  0  0
  192.8070  175.6840  136.4880 C   0  0  0  0  0  1  0  0  0  0  0  0
  193.7050  175.5670  137.5580 O   0  0  0  0  0  0  0  0  0  0  0  0
  1  6  1  0  0  0  0
  2 10  1  0  0  0  0
  3 20  1  1  0  0  0
  3  4  1  0  0  0  0
  4 26  1  0  0  0  0
  5 27  1  6  0  0  0
  5 14  1  0  0  0  0
  6 15  2  0  0  0  0
  6  3  1  0  0  0  0
  8 11  1  1  0  0  0
  8  1  1  0  0  0  0
  9 24  1  0  0  0  0
 10  7  2  0  0  0  0
 10 27  1  0  0  0  0
 12 18  1  0  0  0  0
 12  2  2  0  0  0  0
 13 23  1  0  0  0  0
 14 22  1  6  0  0  0
 14 13  1  0  0  0  0
 15 19  1  0  0  0  0
 16 30  1  6  0  0  0
 16  9  1  0  0  0  0
 17  5  1  0  0  0  0
 17 16  1  0  0  0  0
 18 25  2  0  0  0  0
 19 26  1  0  0  0  0
 22 20  1  0  0  0  0
 23 21  1  1  0  0  0
 24 23  1  0  0  0  0
 24 21  1  1  0  0  0
 25  8  1  0  0  0  0
 25  7  1  0  0  0  0
 29 28  2  0  0  0  0
 29 30  1  0  0  0  0
 31 33  1  0  0  0  0
 31 29  1  1  0  0  0
 31 32  1  0  0  0  0
 33 32  1  1  0  0  0
 33 36  1  0  0  0  0
 34 35  1  1  0  0  0
 36 39  1  1  0  0  0
 36 38  1  0  0  0  0
 38 34  1  0  0  0  0
 38 37  1  1  0  0  0
 39 40  1  0  0  0  0
 40 34  1  0  0  0  0
 40 43  1  1  0  0  0
 43 42  2  0  0  0  0
 43 41  1  0  0  0  0
 44 30  1  0  0  0  0
 44 46  1  0  0  0  0
 46 45  3  0  0  0  0
 47 12  1  0  0  0  0
 48 49  1  0  0  0  0
 49 47  1  0  0  0  0
M  END
>  <MODEL>
3

>  <REMARK>
 VINA RESULT:      -7.1      2.738      5.622
  Name = 
  8 active torsions:
  status: ('A' for Active; 'I' for Inactive)
    1  A    between atoms: C_6  and  O_23
    2  A    between atoms: C_6  and  C_24
    3  A    between atoms: C_13  and  C_19
    4  A    between atoms: C_16  and  C_47
    5  A    between atoms: C_27  and  C_34
    6  A    between atoms: C_30  and  N_37
    7  A    between atoms: C_34  and  N_37
    8  A    between atoms: C_38  and  C_46
                            x       y       z     vdW  Elec       q    Type
                         _______ _______ _______ _____ _____    ______ ____

>  <TORSDO>
F 8

$$$$
=
 OpenBabel11062420263D

 49 55  0  0  1  0  0  0  0  0999 V2000
  195.8080  175.2900  137.7080 C   0  0  0  0  0  2  0  0  0  0  0  0
  196.6140  173.9830  142.4950 C   0  0  0  0  0  3  0  0  0  0  0  0
  194.2390  173.2060  137.9930 C   0  0  1  0  0  3  0  0  0  0  0  0
  193.6620  171.9870  137.2540 C   0  0  0  0  0  2  0  0  0  0  0  0
  193.8650  172.1900  142.0910 C   0  0  2  0  0  3  0  0  0  0  0  0
  195.0290  174.1490  137.1030 C   0  0  0  0  0  0  0  0  0  0  0  0
  196.3790  173.3420  140.1790 C   0  0  0  0  0  3  0  0  0  0  0  0
  197.1520  174.8790  138.3310 C   0  0  2  0  0  3  0  0  0  0  0  0
  190.7620  172.6010  143.7390 S   0  0  0  0  0  0  0  0  0  0  0  0
  196.1590  173.0800  141.5300 C   0  0  0  0  0  0  0  0  0  0  0  0
  197.7800  173.8560  137.6080 O   0  0  0  0  0  1  0  0  0  0  0  0
  197.2780  175.1540  142.1060 C   0  0  0  0  0  0  0  0  0  0  0  0
  191.6940  172.2790  140.9150 O   0  0  0  0  0  0  0  0  0  0  0  0
  193.0890  172.4520  140.7620 C   0  0  1  0  0  3  0  0  0  0  0  0
  194.9920  174.0520  135.7630 C   0  0  0  0  0  3  0  0  0  0  0  0
  192.1400  173.7050  143.2200 C   0  0  2  0  0  3  0  0  0  0  0  0
  193.5410  173.0970  143.2840 C   0  0  0  0  0  2  0  0  0  0  0  0
  197.4650  175.4280  140.7490 C   0  0  0  0  0  3  0  0  0  0  0  0
  194.2820  172.9310  135.0500 C   0  0  0  0  0  2  0  0  0  0  0  0
  193.1280  173.9450  138.7300 C   0  0  0  0  0  2  0  0  0  0  0  0
  190.0670  170.7750  141.8730 C   0  0  0  0  0  2  0  0  0  0  0  0
  193.3540  173.8610  140.2310 C   0  0  0  0  0  2  0  0  0  0  0  0
  191.4850  170.9800  141.4080 C   0  0  2  0  0  3  0  0  0  0  0  0
  191.1620  171.0040  142.9080 C   0  0  1  0  0  3  0  0  0  0  0  0
  197.0230  174.5230  139.7770 C   0  0  0  0  0  0  0  0  0  0  0  0
  193.1250  172.3900  135.8850 C   0  0  0  0  0  2  0  0  0  0  0  0
  195.3590  171.8840  141.9310 C   0  0  0  0  0  2  0  0  0  0  0  0
  190.6420  175.9330  142.4130 O   0  0  0  0  0  0  0  0  0  0  0  0
  191.3810  176.0920  143.4290 C   0  0  0  0  0  0  0  0  0  0  0  0
  192.1030  174.9630  143.9720 N   0  0  0  0  0  0  0  0  0  0  0  0
  191.4110  177.4420  144.1080 C   0  0  1  0  0  3  0  0  0  0  0  0
  190.5050  178.4220  143.3830 C   0  0  0  0  0  2  0  0  0  0  0  0
  190.0890  177.9150  144.7490 C   0  0  1  0  0  3  0  0  0  0  0  0
  187.0360  178.4470  144.2610 C   0  0  2  0  0  3  0  0  0  0  0  0
  185.7820  178.5470  143.6500 O   0  0  0  0  0  1  0  0  0  0  0  0
  188.8980  176.9570  144.6210 C   0  0  2  0  0  3  0  0  0  0  0  0
  187.1920  176.3630  143.0810 O   0  0  0  0  0  1  0  0  0  0  0  0
  187.9380  177.4480  143.5480 C   0  0  1  0  0  3  0  0  0  0  0  0
  188.1020  176.9860  145.9180 C   0  0  0  0  0  2  0  0  0  0  0  0
  186.9710  177.9990  145.7250 C   0  0  2  0  0  3  0  0  0  0  0  0
  184.6680  178.2080  146.7170 O   0  0  0  0  0  1  0  0  0  0  0  0
  185.4460  176.1820  145.9670 O   0  0  0  0  0  0  0  0  0  0  0  0
  185.6500  177.4140  146.1320 C   0  0  0  0  0  0  0  0  0  0  0  0
  192.6530  175.0090  145.3290 C   0  0  0  0  0  2  0  0  0  0  0  0
  190.7190  174.9160  147.1030 N   0  0  0  0  0  0  0  0  0  0  0  0
  191.5710  174.9570  146.3210 C   0  0  0  0  0  0  0  0  0  0  0  0
  197.7370  176.1290  143.1380 C   0  0  0  0  0  2  0  0  0  0  0  0
  195.8130  176.6690  144.1200 C   0  0  0  0  0  1  0  0  0  0  0  0
  196.8020  177.1660  143.2590 O   0  0  0  0  0  0  0  0  0  0  0  0
  1  8  1  0  0  0  0
  3  4  1  6  0  0  0
  3 20  1  0  0  0  0
  5 27  1  6  0  0  0
  5 17  1  0  0  0  0
  6  1  1  0  0  0  0
  6  3  1  0  0  0  0
  7 10  1  0  0  0  0
  8 11  1  6  0  0  0
  8 25  1  0  0  0  0
 10 27  1  0  0  0  0
 10  2  2  0  0  0  0
 12  2  1  0  0  0  0
 12 47  1  0  0  0  0
 13 23  1  0  0  0  0
 14 22  1  1  0  0  0
 14 13  1  0  0  0  0
 14  5  1  0  0  0  0
 15  6  2  0  0  0  0
 16 17  1  0  0  0  0
 16  9  1  0  0  0  0
 16 30  1  1  0  0  0
 18 12  2  0  0  0  0
 19 15  1  0  0  0  0
 19 26  1  0  0  0  0
 20 22  1  0  0  0  0
 23 21  1  6  0  0  0
 23 24  1  0  0  0  0
 24 21  1  6  0  0  0
 24  9  1  0  0  0  0
 25  7  2  0  0  0  0
 25 18  1  0  0  0  0
 26  4  1  0  0  0  0
 28 29  2  0  0  0  0
 29 30  1  0  0  0  0
 30 44  1  0  0  0  0
 31 29  1  6  0  0  0
 31 33  1  0  0  0  0
 32 31  1  0  0  0  0
 33 32  1  6  0  0  0
 34 35  1  6  0  0  0
 34 40  1  0  0  0  0
 36 33  1  0  0  0  0
 36 39  1  1  0  0  0
 38 37  1  1  0  0  0
 38 34  1  0  0  0  0
 38 36  1  0  0  0  0
 40 39  1  0  0  0  0
 40 43  1  6  0  0  0
 42 43  2  0  0  0  0
 43 41  1  0  0  0  0
 44 46  1  0  0  0  0
 46 45  3  0  0  0  0
 47 49  1  0  0  0  0
 49 48  1  0  0  0  0
M  END
>  <MODEL>
4

>  <REMARK>
 VINA RESULT:      -6.9      2.914      5.402
  Name = 
  8 active torsions:
  status: ('A' for Active; 'I' for Inactive)
    1  A    between atoms: C_6  and  O_23
    2  A    between atoms: C_6  and  C_24
    3  A    between atoms: C_13  and  C_19
    4  A    between atoms: C_16  and  C_47
    5  A    between atoms: C_27  and  C_34
    6  A    between atoms: C_30  and  N_37
    7  A    between atoms: C_34  and  N_37
    8  A    between atoms: C_38  and  C_46
                            x       y       z     vdW  Elec       q    Type
                         _______ _______ _______ _____ _____    ______ ____

>  <TORSDO>
F 8

$$$$
=
 OpenBabel11062420263D

 49 55  0  0  1  0  0  0  0  0999 V2000
  187.8580  176.3780  147.5280 C   0  0  0  0  0  2  0  0  0  0  0  0
  191.3240  176.3330  143.8870 C   0  0  0  0  0  3  0  0  0  0  0  0
  186.6490  177.6640  145.5850 C   0  0  1  0  0  3  0  0  0  0  0  0
  185.6590  178.8020  145.2900 C   0  0  0  0  0  2  0  0  0  0  0  0
  188.7830  177.1950  141.9540 C   0  0  2  0  0  3  0  0  0  0  0  0
  186.7950  177.3420  147.0620 C   0  0  0  0  0  0  0  0  0  0  0  0
  189.6810  177.5460  145.1750 C   0  0  0  0  0  3  0  0  0  0  0  0
  189.2700  176.9820  147.6010 C   0  0  2  0  0  3  0  0  0  0  0  0
  187.3690  175.3370  139.2970 S   0  0  0  0  0  0  0  0  0  0  0  0
  190.3140  177.2970  143.9580 C   0  0  0  0  0  0  0  0  0  0  0  0
  189.2540  178.3210  148.0130 O   0  0  0  0  0  1  0  0  0  0  0  0
  191.6920  175.6120  145.0310 C   0  0  0  0  0  0  0  0  0  0  0  0
  186.3590  176.7910  141.7090 O   0  0  0  0  0  0  0  0  0  0  0  0
  187.3790  177.1240  142.6300 C   0  0  1  0  0  3  0  0  0  0  0  0
  185.9410  177.8300  147.9780 C   0  0  0  0  0  3  0  0  0  0  0  0
  188.2160  174.9430  140.8820 C   0  0  2  0  0  3  0  0  0  0  0  0
  189.3190  175.9120  141.3080 C   0  0  0  0  0  2  0  0  0  0  0  0
  191.0310  175.8440  146.2400 C   0  0  0  0  0  3  0  0  0  0  0  0
  184.8690  178.8300  147.6370 C   0  0  0  0  0  2  0  0  0  0  0  0
  186.2730  176.4220  144.7850 C   0  0  0  0  0  2  0  0  0  0  0  0
  185.5550  177.3300  139.4970 C   0  0  0  0  0  2  0  0  0  0  0  0
  187.3620  176.1070  143.7710 C   0  0  0  0  0  2  0  0  0  0  0  0
  186.4040  177.7380  140.6720 C   0  0  2  0  0  3  0  0  0  0  0  0
  187.0660  177.1530  139.4170 C   0  0  1  0  0  3  0  0  0  0  0  0
  190.0260  176.8150  146.3220 C   0  0  0  0  0  0  0  0  0  0  0  0
  184.4270  178.6920  146.1820 C   0  0  0  0  0  2  0  0  0  0  0  0
  189.8440  177.9920  142.7230 C   0  0  0  0  0  2  0  0  0  0  0  0
  190.2930  174.1070  139.1960 O   0  0  0  0  0  0  0  0  0  0  0  0
  189.7390  173.2060  139.8920 C   0  0  0  0  0  0  0  0  0  0  0  0
  188.7330  173.5710  140.8630 N   0  0  0  0  0  0  0  0  0  0  0  0
  190.2170  171.7790  139.7560 C   0  0  1  0  0  3  0  0  0  0  0  0
  191.3770  171.6970  138.7780 C   0  0  0  0  0  2  0  0  0  0  0  0
  191.6480  171.4860  140.2530 C   0  0  1  0  0  3  0  0  0  0  0  0
  194.7000  172.2100  140.2060 C   0  0  2  0  0  3  0  0  0  0  0  0
  195.9220  172.8120  139.8870 O   0  0  0  0  0  1  0  0  0  0  0  0
  192.4180  172.6810  140.8290 C   0  0  2  0  0  3  0  0  0  0  0  0
  193.8370  174.4480  140.1220 O   0  0  0  0  0  1  0  0  0  0  0  0
  193.5180  173.1110  139.8710 C   0  0  1  0  0  3  0  0  0  0  0  0
  193.1370  172.2390  142.0960 C   0  0  0  0  0  2  0  0  0  0  0  0
  194.5620  171.8520  141.6900 C   0  0  2  0  0  3  0  0  0  0  0  0
  196.6840  171.8130  143.0400 O   0  0  0  0  0  1  0  0  0  0  0  0
  195.3910  173.7080  142.9360 O   0  0  0  0  0  0  0  0  0  0  0  0
  195.5730  172.5130  142.5790 C   0  0  0  0  0  0  0  0  0  0  0  0
  188.3470  172.6400  141.9270 C   0  0  0  0  0  2  0  0  0  0  0  0
  190.0440  172.7830  143.9250 N   0  0  0  0  0  0  0  0  0  0  0  0
  189.2960  172.7200  143.0440 C   0  0  0  0  0  0  0  0  0  0  0  0
  192.7510  174.5660  144.9450 C   0  0  0  0  0  2  0  0  0  0  0  0
  194.5930  175.3670  145.9060 C   0  0  0  0  0  1  0  0  0  0  0  0
  193.4870  174.5380  146.1380 O   0  0  0  0  0  0  0  0  0  0  0  0
  1  8  1  0  0  0  0
  2 10  2  0  0  0  0
  2 12  1  0  0  0  0
  3 20  1  6  0  0  0
  3  6  1  0  0  0  0
  4  3  1  0  0  0  0
  4 26  1  0  0  0  0
  5 17  1  1  0  0  0
  5 14  1  0  0  0  0
  5 27  1  0  0  0  0
  6  1  1  0  0  0  0
  6 15  2  0  0  0  0
  7 25  2  0  0  0  0
  8 11  1  6  0  0  0
  9 24  1  0  0  0  0
  9 16  1  0  0  0  0
 10  7  1  0  0  0  0
 12 18  2  0  0  0  0
 13 14  1  0  0  0  0
 14 22  1  1  0  0  0
 16 30  1  6  0  0  0
 16 17  1  0  0  0  0
 18 25  1  0  0  0  0
 19 15  1  0  0  0  0
 22 20  1  0  0  0  0
 23 21  1  6  0  0  0
 23 13  1  0  0  0  0
 24 21  1  6  0  0  0
 24 23  1  0  0  0  0
 25  8  1  0  0  0  0
 26 19  1  0  0  0  0
 27 10  1  0  0  0  0
 28 29  2  0  0  0  0
 29 30  1  0  0  0  0
 30 44  1  0  0  0  0
 31 29  1  1  0  0  0
 31 33  1  0  0  0  0
 32 31  1  0  0  0  0
 33 32  1  6  0  0  0
 33 36  1  0  0  0  0
 34 35  1  1  0  0  0
 34 40  1  0  0  0  0
 36 39  1  1  0  0  0
 38 37  1  1  0  0  0
 38 34  1  0  0  0  0
 38 36  1  0  0  0  0
 40 39  1  0  0  0  0
 40 43  1  1  0  0  0
 43 42  2  0  0  0  0
 43 41  1  0  0  0  0
 44 46  1  0  0  0  0
 46 45  3  0  0  0  0
 47 12  1  0  0  0  0
 47 49  1  0  0  0  0
 48 49  1  0  0  0  0
M  END
>  <MODEL>
5

>  <REMARK>
 VINA RESULT:      -6.9      2.054      8.151
  Name = 
  8 active torsions:
  status: ('A' for Active; 'I' for Inactive)
    1  A    between atoms: C_6  and  O_23
    2  A    between atoms: C_6  and  C_24
    3  A    between atoms: C_13  and  C_19
    4  A    between atoms: C_16  and  C_47
    5  A    between atoms: C_27  and  C_34
    6  A    between atoms: C_30  and  N_37
    7  A    between atoms: C_34  and  N_37
    8  A    between atoms: C_38  and  C_46
                            x       y       z     vdW  Elec       q    Type
                         _______ _______ _______ _____ _____    ______ ____

>  <TORSDO>
F 8

$$$$
=
 OpenBabel11062420263D

 49 55  0  0  1  0  0  0  0  0999 V2000
  196.5860  174.8670  138.7440 C   0  0  0  0  0  2  0  0  0  0  0  0
  195.2590  172.5680  143.0130 C   0  0  0  0  0  3  0  0  0  0  0  0
  194.4230  173.5640  138.0310 C   0  0  1  0  0  3  0  0  0  0  0  0
  193.7630  172.8180  136.8600 C   0  0  0  0  0  2  0  0  0  0  0  0
  192.3800  172.1120  141.4490 C   0  0  2  0  0  3  0  0  0  0  0  0
  195.7290  174.2480  137.6680 C   0  0  0  0  0  0  0  0  0  0  0  0
  195.6210  172.4700  140.6270 C   0  0  0  0  0  3  0  0  0  0  0  0
  197.4280  173.8560  139.5400 C   0  0  2  0  0  3  0  0  0  0  0  0
  189.2210  173.4430  142.3210 S   0  0  0  0  0  0  0  0  0  0  0  0
  194.8860  172.0950  141.7510 C   0  0  0  0  0  0  0  0  0  0  0  0
  197.8920  172.8040  138.7380 O   0  0  0  0  0  1  0  0  0  0  0  0
  196.3590  173.4240  143.1480 C   0  0  0  0  0  0  0  0  0  0  0  0
  190.8890  173.2530  139.8440 O   0  0  0  0  0  0  0  0  0  0  0  0
  192.2290  172.8790  140.0990 C   0  0  1  0  0  3  0  0  0  0  0  0
  196.1150  174.3990  136.3900 C   0  0  0  0  0  3  0  0  0  0  0  0
  190.9740  173.9770  142.4930 C   0  0  2  0  0  3  0  0  0  0  0  0
  191.9900  172.8600  142.7300 C   0  0  0  0  0  2  0  0  0  0  0  0
  197.0710  173.8230  142.0130 C   0  0  0  0  0  3  0  0  0  0  0  0
  195.3620  173.7900  135.2370 C   0  0  0  0  0  2  0  0  0  0  0  0
  193.4360  174.5500  138.6460 C   0  0  0  0  0  2  0  0  0  0  0  0
  188.6370  172.3840  139.9040 C   0  0  0  0  0  2  0  0  0  0  0  0
  193.1030  174.1330  140.0690 C   0  0  0  0  0  2  0  0  0  0  0  0
  190.1130  172.0820  139.8830 C   0  0  2  0  0  3  0  0  0  0  0  0
  189.3300  171.9820  141.2000 C   0  0  1  0  0  3  0  0  0  0  0  0
  196.7120  173.3450  140.7480 C   0  0  0  0  0  0  0  0  0  0  0  0
  193.8820  173.6230  135.5710 C   0  0  0  0  0  2  0  0  0  0  0  0
  193.6540  171.2680  141.5870 C   0  0  0  0  0  2  0  0  0  0  0  0
  189.9740  176.5810  142.2160 O   0  0  0  0  0  0  0  0  0  0  0  0
  190.6400  176.3450  143.2660 C   0  0  0  0  0  0  0  0  0  0  0  0
  191.1000  175.0010  143.5340 N   0  0  0  0  0  0  0  0  0  0  0  0
  190.8550  177.4610  144.2620 C   0  0  1  0  0  3  0  0  0  0  0  0
  190.0560  178.6900  143.8660 C   0  0  0  0  0  2  0  0  0  0  0  0
  189.6200  177.8960  145.0800 C   0  0  1  0  0  3  0  0  0  0  0  0
  186.6490  178.8790  144.8810 C   0  0  2  0  0  3  0  0  0  0  0  0
  185.4050  179.2700  144.3720 O   0  0  0  0  0  1  0  0  0  0  0  0
  188.3170  177.1410  144.7830 C   0  0  2  0  0  3  0  0  0  0  0  0
  186.5230  177.1430  143.2300 O   0  0  0  0  0  1  0  0  0  0  0  0
  187.4060  177.9870  143.9070 C   0  0  1  0  0  3  0  0  0  0  0  0
  187.5550  176.9460  146.0860 C   0  0  0  0  0  2  0  0  0  0  0  0
  186.5550  178.0990  146.1960 C   0  0  2  0  0  3  0  0  0  0  0  0
  184.2380  178.4120  147.1250 O   0  0  0  0  0  1  0  0  0  0  0  0
  184.8910  176.3920  146.2500 O   0  0  0  0  0  0  0  0  0  0  0  0
  185.1800  177.5900  146.5140 C   0  0  0  0  0  0  0  0  0  0  0  0
  191.5330  174.6120  144.8790 C   0  0  0  0  0  2  0  0  0  0  0  0
  189.4530  174.1040  146.3980 N   0  0  0  0  0  0  0  0  0  0  0  0
  190.3690  174.3280  145.7290 C   0  0  0  0  0  0  0  0  0  0  0  0
  196.7370  173.9480  144.4920 C   0  0  0  0  0  2  0  0  0  0  0  0
  195.4570  175.6920  145.0210 C   0  0  0  0  0  1  0  0  0  0  0  0
  196.7040  175.3500  144.4800 O   0  0  0  0  0  0  0  0  0  0  0  0
  1  8  1  0  0  0  0
  2 12  1  0  0  0  0
  3  4  1  6  0  0  0
  3 20  1  0  0  0  0
  5 27  1  1  0  0  0
  5 17  1  0  0  0  0
  6  3  1  0  0  0  0
  6  1  1  0  0  0  0
  7 25  2  0  0  0  0
  7 10  1  0  0  0  0
  8 11  1  6  0  0  0
  8 25  1  0  0  0  0
  9 16  1  0  0  0  0
 10  2  2  0  0  0  0
 12 47  1  0  0  0  0
 13 23  1  0  0  0  0
 13 14  1  0  0  0  0
 14 22  1  1  0  0  0
 14  5  1  0  0  0  0
 15  6  2  0  0  0  0
 16 17  1  0  0  0  0
 16 30  1  1  0  0  0
 18 12  2  0  0  0  0
 19 26  1  0  0  0  0
 19 15  1  0  0  0  0
 20 22  1  0  0  0  0
 23 21  1  6  0  0  0
 23 24  1  0  0  0  0
 24 21  1  6  0  0  0
 24  9  1  0  0  0  0
 25 18  1  0  0  0  0
 26  4  1  0  0  0  0
 27 10  1  0  0  0  0
 28 29  2  0  0  0  0
 29 30  1  0  0  0  0
 30 44  1  0  0  0  0
 31 29  1  6  0  0  0
 31 33  1  0  0  0  0
 32 31  1  0  0  0  0
 33 32  1  6  0  0  0
 34 35  1  6  0  0  0
 34 40  1  0  0  0  0
 36 33  1  0  0  0  0
 36 39  1  1  0  0  0
 38 37  1  1  0  0  0
 38 36  1  0  0  0  0
 38 34  1  0  0  0  0
 39 40  1  0  0  0  0
 40 43  1  6  0  0  0
 42 43  2  0  0  0  0
 43 41  1  0  0  0  0
 44 46  1  0  0  0  0
 46 45  3  0  0  0  0
 49 47  1  0  0  0  0
 49 48  1  0  0  0  0
M  END
>  <MODEL>
6

>  <REMARK>
 VINA RESULT:      -6.7      2.660      4.812
  Name = 
  8 active torsions:
  status: ('A' for Active; 'I' for Inactive)
    1  A    between atoms: C_6  and  O_23
    2  A    between atoms: C_6  and  C_24
    3  A    between atoms: C_13  and  C_19
    4  A    between atoms: C_16  and  C_47
    5  A    between atoms: C_27  and  C_34
    6  A    between atoms: C_30  and  N_37
    7  A    between atoms: C_34  and  N_37
    8  A    between atoms: C_38  and  C_46
                            x       y       z     vdW  Elec       q    Type
                         _______ _______ _______ _____ _____    ______ ____

>  <TORSDO>
F 8

$$$$
=
 OpenBabel11062420263D

 49 55  0  0  1  0  0  0  0  0999 V2000
  188.5680  174.3980  140.8140 C   0  0  0  0  0  2  0  0  0  0  0  0
  192.1410  171.2790  142.4810 C   0  0  0  0  0  3  0  0  0  0  0  0
  189.2880  175.5250  143.0720 C   0  0  1  0  0  3  0  0  0  0  0  0
  188.7610  176.3330  144.2690 C   0  0  0  0  0  2  0  0  0  0  0  0
  192.8750  173.7850  144.5110 C   0  0  2  0  0  3  0  0  0  0  0  0
  188.2640  175.3200  141.9690 C   0  0  0  0  0  0  0  0  0  0  0  0
  190.1630  172.5950  142.9180 C   0  0  0  0  0  3  0  0  0  0  0  0
  188.4010  172.9040  141.1370 C   0  0  2  0  0  3  0  0  0  0  0  0
  195.8550  175.6880  144.5950 S   0  0  0  0  0  0  0  0  0  0  0  0
  191.4030  172.1080  143.3310 C   0  0  0  0  0  0  0  0  0  0  0  0
  187.3330  172.6670  142.0130 O   0  0  0  0  0  1  0  0  0  0  0  0
  191.6440  170.9480  141.2140 C   0  0  0  0  0  0  0  0  0  0  0  0
  192.9180  176.2540  144.5430 O   0  0  0  0  0  0  0  0  0  0  0  0
  192.1350  175.1250  144.2070 C   0  0  1  0  0  3  0  0  0  0  0  0
  187.1110  176.0080  141.9400 C   0  0  0  0  0  3  0  0  0  0  0  0
  194.8910  174.7970  143.3050 C   0  0  2  0  0  3  0  0  0  0  0  0
  194.1870  173.5200  143.7630 C   0  0  0  0  0  2  0  0  0  0  0  0
  190.4160  171.4660  140.7930 C   0  0  0  0  0  3  0  0  0  0  0  0
  186.6840  176.9240  143.0570 C   0  0  0  0  0  2  0  0  0  0  0  0
  190.5630  176.1610  142.5300 C   0  0  0  0  0  2  0  0  0  0  0  0
  194.3280  177.1270  146.2970 C   0  0  0  0  0  2  0  0  0  0  0  0
  191.7400  175.2210  142.7340 C   0  0  0  0  0  2  0  0  0  0  0  0
  193.2680  176.1340  145.8980 C   0  0  2  0  0  3  0  0  0  0  0  0
  194.7260  175.6770  146.0530 C   0  0  1  0  0  3  0  0  0  0  0  0
  189.6660  172.2870  141.6420 C   0  0  0  0  0  0  0  0  0  0  0  0
  187.8920  177.4930  143.7960 C   0  0  0  0  0  2  0  0  0  0  0  0
  191.9730  172.5510  144.6390 C   0  0  0  0  0  2  0  0  0  0  0  0
  194.5250  176.0390  140.8190 O   0  0  0  0  0  0  0  0  0  0  0  0
  195.4070  175.1320  140.8680 C   0  0  0  0  0  0  0  0  0  0  0  0
  195.7300  174.5170  142.1360 N   0  0  0  0  0  0  0  0  0  0  0  0
  196.1700  174.7840  139.6110 C   0  0  1  0  0  3  0  0  0  0  0  0
  195.7700  173.4080  139.1090 C   0  0  0  0  0  2  0  0  0  0  0  0
  195.3330  174.6280  138.3240 C   0  0  1  0  0  3  0  0  0  0  0  0
  192.8850  172.8920  137.4110 C   0  0  2  0  0  3  0  0  0  0  0  0
  191.7850  172.0270  137.4250 O   0  0  0  0  0  1  0  0  0  0  0  0
  193.8220  174.8440  138.4740 C   0  0  2  0  0  3  0  0  0  0  0  0
  191.9130  173.7910  139.4130 O   0  0  0  0  0  1  0  0  0  0  0  0
  193.1270  173.5240  138.7750 C   0  0  1  0  0  3  0  0  0  0  0  0
  193.2550  175.3010  137.1370 C   0  0  0  0  0  2  0  0  0  0  0  0
  192.7400  174.0510  136.4190 C   0  0  2  0  0  3  0  0  0  0  0  0
  190.9530  173.7670  134.6720 O   0  0  0  0  0  0  0  0  0  0  0  0
  190.5270  174.9150  136.6140 O   0  0  0  0  0  1  0  0  0  0  0  0
  191.3430  174.2590  135.9130 C   0  0  0  0  0  0  0  0  0  0  0  0
  196.9720  173.7580  142.3050 C   0  0  0  0  0  2  0  0  0  0  0  0
  196.4800  171.1800  142.2640 N   0  0  0  0  0  0  0  0  0  0  0  0
  196.6960  172.3160  142.2820 C   0  0  0  0  0  0  0  0  0  0  0  0
  192.4460  170.0860  140.2990 C   0  0  0  0  0  2  0  0  0  0  0  0
  194.3750  169.8870  139.2050 C   0  0  0  0  0  1  0  0  0  0  0  0
  193.7890  170.4860  140.3290 O   0  0  0  0  0  0  0  0  0  0  0  0
  1  8  1  0  0  0  0
  1  6  1  0  0  0  0
  2 10  1  0  0  0  0
  3 20  1  6  0  0  0
  3  4  1  0  0  0  0
  5 17  1  6  0  0  0
  5 27  1  0  0  0  0
  6  3  1  0  0  0  0
  7 10  2  0  0  0  0
  8 25  1  0  0  0  0
  8 11  1  1  0  0  0
  9 24  1  0  0  0  0
 10 27  1  0  0  0  0
 12  2  2  0  0  0  0
 13 23  1  0  0  0  0
 14 22  1  6  0  0  0
 14  5  1  0  0  0  0
 14 13  1  0  0  0  0
 15  6  2  0  0  0  0
 15 19  1  0  0  0  0
 16 30  1  6  0  0  0
 16 17  1  0  0  0  0
 16  9  1  0  0  0  0
 18 12  1  0  0  0  0
 18 25  2  0  0  0  0
 19 26  1  0  0  0  0
 20 22  1  0  0  0  0
 23 24  1  0  0  0  0
 23 21  1  1  0  0  0
 24 21  1  1  0  0  0
 25  7  1  0  0  0  0
 26  4  1  0  0  0  0
 28 29  2  0  0  0  0
 29 30  1  0  0  0  0
 30 44  1  0  0  0  0
 31 29  1  1  0  0  0
 32 31  1  0  0  0  0
 33 36  1  0  0  0  0
 33 32  1  1  0  0  0
 33 31  1  0  0  0  0
 34 35  1  1  0  0  0
 34 38  1  0  0  0  0
 36 39  1  6  0  0  0
 36 38  1  0  0  0  0
 38 37  1  6  0  0  0
 40 43  1  1  0  0  0
 40 39  1  0  0  0  0
 40 34  1  0  0  0  0
 41 43  2  0  0  0  0
 43 42  1  0  0  0  0
 45 46  3  0  0  0  0
 46 44  1  0  0  0  0
 47 49  1  0  0  0  0
 47 12  1  0  0  0  0
 48 49  1  0  0  0  0
M  END
>  <MODEL>
7

>  <REMARK>
 VINA RESULT:      -6.6      3.586      9.210
  Name = 
  8 active torsions:
  status: ('A' for Active; 'I' for Inactive)
    1  A    between atoms: C_6  and  O_23
    2  A    between atoms: C_6  and  C_24
    3  A    between atoms: C_13  and  C_19
    4  A    between atoms: C_16  and  C_47
    5  A    between atoms: C_27  and  C_34
    6  A    between atoms: C_30  and  N_37
    7  A    between atoms: C_34  and  N_37
    8  A    between atoms: C_38  and  C_46
                            x       y       z     vdW  Elec       q    Type
                         _______ _______ _______ _____ _____    ______ ____

>  <TORSDO>
F 8

$$$$
=
 OpenBabel11062420263D

 49 55  0  0  1  0  0  0  0  0999 V2000
  189.3910  177.3920  144.1790 C   0  0  0  0  0  2  0  0  0  0  0  0
  189.7940  173.1640  141.4900 C   0  0  0  0  0  3  0  0  0  0  0  0
  190.8950  175.8900  145.7180 C   0  0  1  0  0  3  0  0  0  0  0  0
  191.2110  175.5570  147.1850 C   0  0  0  0  0  2  0  0  0  0  0  0
  192.2710  172.5000  143.5790 C   0  0  2  0  0  3  0  0  0  0  0  0
  189.9400  177.0580  145.5440 C   0  0  0  0  0  0  0  0  0  0  0  0
  189.3980  174.2450  143.6130 C   0  0  0  0  0  3  0  0  0  0  0  0
  188.2380  176.4850  143.7220 C   0  0  2  0  0  3  0  0  0  0  0  0
  195.7080  172.1690  142.8100 S   0  0  0  0  0  0  0  0  0  0  0  0
  189.9480  173.1950  142.8790 C   0  0  0  0  0  0  0  0  0  0  0  0
  187.4030  176.1120  144.7840 O   0  0  0  0  0  1  0  0  0  0  0  0
  189.1010  174.1900  140.8350 C   0  0  0  0  0  0  0  0  0  0  0  0
  194.0670  173.6510  144.8240 O   0  0  0  0  0  0  0  0  0  0  0  0
  192.6880  173.6790  144.5130 C   0  0  1  0  0  3  0  0  0  0  0  0
  189.6270  177.8720  146.5660 C   0  0  0  0  0  3  0  0  0  0  0  0
  194.2890  173.1270  142.1360 C   0  0  2  0  0  3  0  0  0  0  0  0
  192.9280  172.4330  142.1950 C   0  0  0  0  0  2  0  0  0  0  0  0
  188.5810  175.2570  141.5720 C   0  0  0  0  0  3  0  0  0  0  0  0
  190.0820  177.6130  147.9780 C   0  0  0  0  0  2  0  0  0  0  0  0
  192.1870  176.1130  144.9410 C   0  0  0  0  0  2  0  0  0  0  0  0
  195.8240  172.1440  145.5090 C   0  0  0  0  0  2  0  0  0  0  0  0
  192.3520  175.0310  143.8850 C   0  0  0  0  0  2  0  0  0  0  0  0
  194.3430  172.3970  145.3930 C   0  0  2  0  0  3  0  0  0  0  0  0
  195.0430  171.4750  144.3840 C   0  0  1  0  0  3  0  0  0  0  0  0
  188.7200  175.2890  142.9640 C   0  0  0  0  0  0  0  0  0  0  0  0
  191.3930  176.8320  148.0010 C   0  0  0  0  0  2  0  0  0  0  0  0
  190.7750  172.1620  143.5720 C   0  0  0  0  0  2  0  0  0  0  0  0
  195.0050  171.3720  140.0720 O   0  0  0  0  0  0  0  0  0  0  0  0
  195.0260  172.6070  139.7910 C   0  0  0  0  0  0  0  0  0  0  0  0
  194.5690  173.5700  140.7670 N   0  0  0  0  0  0  0  0  0  0  0  0
  195.4400  173.0340  138.4020 C   0  0  1  0  0  3  0  0  0  0  0  0
  195.4620  171.8410  137.4620 C   0  0  0  0  0  2  0  0  0  0  0  0
  194.3760  172.8830  137.2940 C   0  0  1  0  0  3  0  0  0  0  0  0
  192.2460  171.1610  135.7660 C   0  0  2  0  0  3  0  0  0  0  0  0
  191.4660  170.0830  135.3310 O   0  0  0  0  0  1  0  0  0  0  0  0
  193.0210  172.3150  137.7360 C   0  0  2  0  0  3  0  0  0  0  0  0
  191.8990  170.2350  137.9520 O   0  0  0  0  0  1  0  0  0  0  0  0
  192.8180  170.9230  137.1570 C   0  0  1  0  0  3  0  0  0  0  0  0
  191.9110  173.1670  137.1360 C   0  0  0  0  0  2  0  0  0  0  0  0
  191.4770  172.4850  135.8360 C   0  0  2  0  0  3  0  0  0  0  0  0
  189.2790  171.8130  136.8580 O   0  0  0  0  0  1  0  0  0  0  0  0
  189.3750  172.6580  134.7260 O   0  0  0  0  0  0  0  0  0  0  0  0
  189.9860  172.3350  135.7790 C   0  0  0  0  0  0  0  0  0  0  0  0
  194.2260  174.9370  140.3670 C   0  0  0  0  0  2  0  0  0  0  0  0
  195.8510  176.6570  141.5030 N   0  0  0  0  0  0  0  0  0  0  0  0
  195.1340  175.8990  141.0020 C   0  0  0  0  0  0  0  0  0  0  0  0
  188.9630  174.1670  139.3500 C   0  0  0  0  0  2  0  0  0  0  0  0
  187.8220  174.9150  137.5900 C   0  0  0  0  0  1  0  0  0  0  0  0
  187.7420  174.7470  138.9800 O   0  0  0  0  0  0  0  0  0  0  0  0
  1  6  1  0  0  0  0
  2 10  1  0  0  0  0
  3 20  1  6  0  0  0
  3  4  1  0  0  0  0
  4 26  1  0  0  0  0
  5 17  1  6  0  0  0
  5 14  1  0  0  0  0
  6  3  1  0  0  0  0
  6 15  2  0  0  0  0
  8  1  1  0  0  0  0
  8 11  1  1  0  0  0
  9 24  1  0  0  0  0
 10 27  1  0  0  0  0
 10  7  2  0  0  0  0
 12  2  2  0  0  0  0
 12 18  1  0  0  0  0
 13 23  1  0  0  0  0
 14 22  1  6  0  0  0
 14 13  1  0  0  0  0
 15 19  1  0  0  0  0
 16 30  1  6  0  0  0
 16 17  1  0  0  0  0
 16  9  1  0  0  0  0
 18 25  2  0  0  0  0
 19 26  1  0  0  0  0
 22 20  1  0  0  0  0
 23 21  1  1  0  0  0
 24 23  1  0  0  0  0
 24 21  1  1  0  0  0
 25  7  1  0  0  0  0
 25  8  1  0  0  0  0
 27  5  1  0  0  0  0
 29 28  2  0  0  0  0
 29 30  1  0  0  0  0
 31 29  1  1  0  0  0
 32 31  1  0  0  0  0
 33 32  1  6  0  0  0
 33 36  1  0  0  0  0
 33 31  1  0  0  0  0
 34 35  1  1  0  0  0
 34 40  1  0  0  0  0
 34 38  1  0  0  0  0
 36 39  1  6  0  0  0
 38 36  1  0  0  0  0
 38 37  1  1  0  0  0
 40 43  1  1  0  0  0
 40 39  1  0  0  0  0
 42 43  2  0  0  0  0
 43 41  1  0  0  0  0
 44 30  1  0  0  0  0
 44 46  1  0  0  0  0
 46 45  3  0  0  0  0
 47 12  1  0  0  0  0
 48 49  1  0  0  0  0
 49 47  1  0  0  0  0
M  END
>  <MODEL>
8

>  <REMARK>
 VINA RESULT:      -6.6      3.318      9.073
  Name = 
  8 active torsions:
  status: ('A' for Active; 'I' for Inactive)
    1  A    between atoms: C_6  and  O_23
    2  A    between atoms: C_6  and  C_24
    3  A    between atoms: C_13  and  C_19
    4  A    between atoms: C_16  and  C_47
    5  A    between atoms: C_27  and  C_34
    6  A    between atoms: C_30  and  N_37
    7  A    between atoms: C_34  and  N_37
    8  A    between atoms: C_38  and  C_46
                            x       y       z     vdW  Elec       q    Type
                         _______ _______ _______ _____ _____    ______ ____

>  <TORSDO>
F 8

$$$$
=
 OpenBabel11062420263D

 49 55  0  0  1  0  0  0  0  0999 V2000
  196.7800  174.3510  142.9350 C   0  0  0  0  0  2  0  0  0  0  0  0
  192.6360  174.3130  145.7800 C   0  0  0  0  0  3  0  0  0  0  0  0
  195.2830  172.5670  141.7240 C   0  0  1  0  0  3  0  0  0  0  0  0
  195.3320  171.2510  140.9320 C   0  0  0  0  0  2  0  0  0  0  0  0
  191.3120  172.7290  143.1970 C   0  0  2  0  0  3  0  0  0  0  0  0
  196.6500  173.1620  142.0160 C   0  0  0  0  0  0  0  0  0  0  0  0
  194.3490  173.0960  144.5920 C   0  0  0  0  0  3  0  0  0  0  0  0
  196.6990  174.0040  144.4310 C   0  0  2  0  0  3  0  0  0  0  0  0
  188.6910  173.8420  141.0990 S   0  0  0  0  0  0  0  0  0  0  0  0
  193.0190  173.2280  144.9880 C   0  0  0  0  0  0  0  0  0  0  0  0
  197.3020  172.7730  144.7240 O   0  0  0  0  0  1  0  0  0  0  0  0
  193.5810  175.2730  146.1660 C   0  0  0  0  0  0  0  0  0  0  0  0
  191.4280  172.6900  140.7300 O   0  0  0  0  0  0  0  0  0  0  0  0
  192.2000  172.6910  141.9140 C   0  0  1  0  0  3  0  0  0  0  0  0
  197.7600  172.7120  141.4070 C   0  0  0  0  0  3  0  0  0  0  0  0
  190.0330  174.6380  142.0740 C   0  0  2  0  0  3  0  0  0  0  0  0
  190.4020  173.9480  143.3870 C   0  0  0  0  0  2  0  0  0  0  0  0
  194.9060  175.1530  145.7380 C   0  0  0  0  0  3  0  0  0  0  0  0
  197.7570  171.5080  140.5020 C   0  0  0  0  0  2  0  0  0  0  0  0
  194.3850  173.5730  141.0140 C   0  0  0  0  0  2  0  0  0  0  0  0
  189.4890  171.6500  139.7350 C   0  0  0  0  0  2  0  0  0  0  0  0
  193.1650  173.8760  141.8700 C   0  0  0  0  0  2  0  0  0  0  0  0
  190.5500  171.5950  140.8030 C   0  0  2  0  0  3  0  0  0  0  0  0
  189.1270  172.0500  141.1600 C   0  0  1  0  0  3  0  0  0  0  0  0
  195.3000  174.0630  144.9540 C   0  0  0  0  0  0  0  0  0  0  0  0
  196.3950  171.3170  139.8410 C   0  0  0  0  0  2  0  0  0  0  0  0
  191.9990  172.2600  144.4860 C   0  0  0  0  0  2  0  0  0  0  0  0
  187.7860  175.9260  141.0000 O   0  0  0  0  0  0  0  0  0  0  0  0
  188.5970  176.6560  141.6440 C   0  0  0  0  0  0  0  0  0  0  0  0
  189.7240  176.0500  142.3170 N   0  0  0  0  0  0  0  0  0  0  0  0
  188.3080  178.1330  141.7710 C   0  0  1  0  0  3  0  0  0  0  0  0
  186.8150  178.3950  141.6740 C   0  0  0  0  0  2  0  0  0  0  0  0
  187.5020  178.5690  143.0130 C   0  0  1  0  0  3  0  0  0  0  0  0
  185.3270  178.4630  145.2710 C   0  0  2  0  0  3  0  0  0  0  0  0
  184.1520  178.1850  145.9780 O   0  0  0  0  0  1  0  0  0  0  0  0
  187.0870  177.4460  143.9730 C   0  0  2  0  0  3  0  0  0  0  0  0
  185.1770  176.1720  144.5730 O   0  0  0  0  0  1  0  0  0  0  0  0
  185.5780  177.4470  144.1650 C   0  0  1  0  0  3  0  0  0  0  0  0
  187.6690  177.7380  145.3500 C   0  0  0  0  0  2  0  0  0  0  0  0
  186.5840  178.4640  146.1490 C   0  0  2  0  0  3  0  0  0  0  0  0
  186.3430  176.4500  147.6360 O   0  0  0  0  0  0  0  0  0  0  0  0
  186.2510  178.5720  148.5070 O   0  0  0  0  0  1  0  0  0  0  0  0
  186.3950  177.8330  147.4960 C   0  0  0  0  0  0  0  0  0  0  0  0
  190.4520  176.7790  143.3590 C   0  0  0  0  0  2  0  0  0  0  0  0
  193.0050  176.9160  142.7640 N   0  0  0  0  0  0  0  0  0  0  0  0
  191.8800  176.8550  143.0250 C   0  0  0  0  0  0  0  0  0  0  0  0
  193.1620  176.4450  146.9890 C   0  0  0  0  0  2  0  0  0  0  0  0
  191.2440  176.9130  148.0180 C   0  0  0  0  0  1  0  0  0  0  0  0
  191.8110  176.7330  146.7490 O   0  0  0  0  0  0  0  0  0  0  0  0
  1  8  1  0  0  0  0
  2 12  1  0  0  0  0
  3  4  1  6  0  0  0
  3  6  1  0  0  0  0
  5 17  1  1  0  0  0
  5 27  1  0  0  0  0
  6  1  1  0  0  0  0
  7 25  2  0  0  0  0
  7 10  1  0  0  0  0
  8 11  1  6  0  0  0
  8 25  1  0  0  0  0
  9 24  1  0  0  0  0
  9 16  1  0  0  0  0
 10  2  2  0  0  0  0
 12 47  1  0  0  0  0
 13 23  1  0  0  0  0
 13 14  1  0  0  0  0
 14 22  1  6  0  0  0
 14  5  1  0  0  0  0
 15  6  2  0  0  0  0
 16 30  1  1  0  0  0
 16 17  1  0  0  0  0
 18 12  2  0  0  0  0
 19 15  1  0  0  0  0
 20  3  1  0  0  0  0
 20 22  1  0  0  0  0
 23 21  1  6  0  0  0
 23 24  1  0  0  0  0
 24 21  1  6  0  0  0
 25 18  1  0  0  0  0
 26 19  1  0  0  0  0
 26  4  1  0  0  0  0
 27 10  1  0  0  0  0
 28 29  2  0  0  0  0
 29 30  1  0  0  0  0
 30 44  1  0  0  0  0
 31 29  1  1  0  0  0
 31 33  1  0  0  0  0
 32 31  1  0  0  0  0
 33 32  1  6  0  0  0
 33 36  1  0  0  0  0
 34 35  1  1  0  0  0
 34 40  1  0  0  0  0
 36 38  1  0  0  0  0
 36 39  1  1  0  0  0
 38 37  1  1  0  0  0
 38 34  1  0  0  0  0
 39 40  1  0  0  0  0
 40 43  1  1  0  0  0
 43 41  2  0  0  0  0
 43 42  1  0  0  0  0
 45 46  3  0  0  0  0
 46 44  1  0  0  0  0
 49 47  1  0  0  0  0
 49 48  1  0  0  0  0
M  END
>  <MODEL>
9

>  <REMARK>
 VINA RESULT:      -6.5      1.475      2.011
  Name = 
  8 active torsions:
  status: ('A' for Active; 'I' for Inactive)
    1  A    between atoms: C_6  and  O_23
    2  A    between atoms: C_6  and  C_24
    3  A    between atoms: C_13  and  C_19
    4  A    between atoms: C_16  and  C_47
    5  A    between atoms: C_27  and  C_34
    6  A    between atoms: C_30  and  N_37
    7  A    between atoms: C_34  and  N_37
    8  A    between atoms: C_38  and  C_46
                            x       y       z     vdW  Elec       q    Type
                         _______ _______ _______ _____ _____    ______ ____

>  <TORSDO>
F 8

$$$$
