=
 OpenBabel11072409083D

 57 64  0  0  1  0  0  0  0  0999 V2000
  190.5760  172.5380  141.4830 C   0  0  0  0  0  2  0  0  0  0  0  0
  189.7250  172.9500  143.8700 C   0  0  0  0  0  2  0  0  0  0  0  0
  191.2710  169.2980  139.8440 N   0  0  0  0  0  0  0  0  0  0  0  0
  193.6530  171.9270  141.1540 C   0  0  0  0  0  2  0  0  0  0  0  0
  193.1600  173.8620  143.2010 N   0  0  0  0  0  2  0  0  0  0  0  0
  196.8760  174.0120  142.5590 C   0  0  1  0  0  3  0  0  0  0  0  0
  193.0820  170.5230  140.9990 C   0  0  2  0  0  3  0  0  0  0  0  0
  194.5280  173.3750  143.0410 C   0  0  2  0  0  3  0  0  0  0  0  0
  189.4240  172.9910  142.3640 C   0  0  1  0  0  3  0  0  0  0  0  0
  192.5420  172.1380  144.6480 O   0  0  0  0  0  0  0  0  0  0  0  0
  190.8860  173.8260  144.3700 C   0  0  1  0  0  3  0  0  0  0  0  0
  195.4060  174.3940  142.3400 C   0  0  0  0  0  2  0  0  0  0  0  0
  196.2640  170.2890  142.0460 O   0  0  0  0  0  1  0  0  0  0  0  0
  192.0870  168.6140  139.1180 C   0  0  0  0  0  3  0  0  0  0  0  0
  190.6280  171.0210  141.4260 C   0  0  0  0  0  2  0  0  0  0  0  0
  194.0550  169.6370  140.1880 C   0  0  0  0  0  2  0  0  0  0  0  0
  191.6590  170.5800  140.4000 C   0  0  2  0  0  3  0  0  0  0  0  0
  193.4690  169.1320  138.8690 C   0  0  0  0  0  2  0  0  0  0  0  0
  192.2320  173.2190  144.0820 C   0  0  0  0  0  0  0  0  0  0  0  0
  197.1650  172.5000  142.4690 C   0  0  2  0  0  3  0  0  0  0  0  0
  196.0210  171.6520  141.8790 C   0  0  2  0  0  3  0  0  0  0  0  0
  194.6000  172.0030  142.3460 C   0  0  2  0  0  3  0  0  0  0  0  0
  189.3220  174.9310  140.9490 O   0  0  0  0  0  0  0  0  0  0  0  0
  187.6500  174.7680  142.5660 N   0  0  0  0  0  2  0  0  0  0  0  0
  188.8230  174.2870  141.9150 C   0  0  0  0  0  0  0  0  0  0  0  0
  187.0130  176.0180  142.1790 C   0  0  0  0  0  2  0  0  0  0  0  0
  186.2960  176.6200  143.3710 C   0  0  0  0  0  2  0  0  0  0  0  0
  186.8700  176.1490  144.5620 O   0  0  0  0  0  0  0  0  0  0  0  0
  187.4830  177.8040  146.2970 C   0  0  0  0  0  2  0  0  0  0  0  0
  186.5000  178.4610  145.3320 C   0  0  2  0  0  3  0  0  0  0  0  0
  185.1270  176.7030  146.3400 C   0  0  0  0  0  2  0  0  0  0  0  0
  185.4090  179.0830  146.0740 N   0  0  0  0  0  2  0  0  0  0  0  0
  184.4120  178.0420  146.3190 C   0  0  0  0  0  2  0  0  0  0  0  0
  186.4180  176.9790  145.6080 C   0  0  1  0  0  0  0  0  0  0  0  0
  197.9050  171.8110  144.0010 S   0  0  0  0  0  0  0  0  0  0  0  0
  197.3110  173.1080  145.1270 C   0  0  0  0  0  1  0  0  0  0  0  0
  190.7650  175.1560  143.9300 O   0  0  0  0  0  0  0  0  0  0  0  0
  190.7220  175.9550  145.0860 C   0  0  0  0  0  2  0  0  0  0  0  0
  193.0580  176.9800  144.8240 C   0  0  0  0  0  3  0  0  0  0  0  0
  192.1000  176.3110  145.5530 C   0  0  0  0  0  0  0  0  0  0  0  0
  193.7080  176.7660  146.8710 N   0  0  0  0  0  0  0  0  0  0  0  0
  194.0610  177.2380  145.6850 N   0  0  0  0  0  2  0  0  0  0  0  0
  192.5130  176.2000  146.8260 N   0  0  0  0  0  0  0  0  0  0  0  0
  197.8220  174.8220  141.6820 C   0  0  0  0  0  2  0  0  0  0  0  0
  197.0930  175.5060  140.5290 C   0  0  0  0  0  2  0  0  0  0  0  0
  197.5870  174.9260  139.2170 C   0  0  0  0  0  2  0  0  0  0  0  0
  196.5770  175.2180  138.1210 C   0  0  0  0  0  2  0  0  0  0  0  0
  195.6360  172.8990  138.2790 C   0  0  0  0  0  2  0  0  0  0  0  0
  194.7380  173.4880  137.2020 C   0  0  2  0  0  3  0  0  0  0  0  0
  196.1950  173.9550  137.3440 C   0  0  1  0  0  0  0  0  0  0  0  0
  191.9060  173.6160  137.9090 C   0  0  0  0  0  1  0  0  0  0  0  0
  193.4490  174.4990  137.9500 S   0  0  0  0  0  0  0  0  0  0  0  0
  193.7640  174.9060  139.3630 O   0  0  0  0  0  0  0  0  0  0  0  0
  193.2970  175.7480  137.1250 O   0  0  0  0  0  0  0  0  0  0  0  0
  196.8720  173.6300  134.9180 C   0  0  0  0  0  2  0  0  0  0  0  0
  197.9400  174.4400  135.6120 C   0  0  0  0  0  2  0  0  0  0  0  0
  197.2170  173.3440  136.3770 C   0  0  0  0  0  3  0  0  0  0  0  0
  1  9  1  0  0  0  0
  2 11  1  0  0  0  0
  3 17  1  0  0  0  0
  5 19  1  0  0  0  0
  6 44  1  6  0  0  0
  7 16  1  6  0  0  0
  7  4  1  0  0  0  0
  8 12  1  6  0  0  0
  8  5  1  0  0  0  0
  9 25  1  6  0  0  0
  9  2  1  0  0  0  0
 11 37  1  6  0  0  0
 12  6  1  0  0  0  0
 14  3  2  0  0  0  0
 15  1  1  0  0  0  0
 17  7  1  0  0  0  0
 17 15  1  1  0  0  0
 18 14  1  0  0  0  0
 18 16  1  0  0  0  0
 19 11  1  0  0  0  0
 19 10  2  0  0  0  0
 20  6  1  0  0  0  0
 20 35  1  1  0  0  0
 21 13  1  1  0  0  0
 21 22  1  0  0  0  0
 21 20  1  0  0  0  0
 22  4  1  6  0  0  0
 22  8  1  0  0  0  0
 23 25  2  0  0  0  0
 25 24  1  0  0  0  0
 26 24  1  0  0  0  0
 26 27  1  0  0  0  0
 27 28  1  0  0  0  0
 30 34  1  0  0  0  0
 30 32  1  0  0  0  0
 30 29  1  1  0  0  0
 32 33  1  0  0  0  0
 33 31  1  0  0  0  0
 34 28  1  6  0  0  0
 34 29  1  0  0  0  0
 34 31  1  0  0  0  0
 35 36  1  0  0  0  0
 37 38  1  0  0  0  0
 38 40  1  0  0  0  0
 39 40  2  0  0  0  0
 39 42  1  0  0  0  0
 40 43  1  0  0  0  0
 42 41  1  0  0  0  0
 43 41  2  0  0  0  0
 45 44  1  0  0  0  0
 46 45  1  0  0  0  0
 47 46  1  0  0  0  0
 49 50  1  0  0  0  0
 49 52  1  1  0  0  0
 49 48  1  0  0  0  0
 50 47  1  1  0  0  0
 50 48  1  0  0  0  0
 51 52  1  0  0  0  0
 52 53  2  0  0  0  0
 54 52  2  0  0  0  0
 55 56  1  0  0  0  0
 55 57  1  0  0  0  0
 56 57  1  0  0  0  0
 57 50  1  0  0  0  0
M  END
>  <MODEL>
1

>  <REMARK>
 VINA RESULT:      -6.2      0.000      0.000
  Name = 
  16 active torsions:
  status: ('A' for Active; 'I' for Inactive)
    1  A    between atoms: C_4  and  C_7
    2  A    between atoms: C_4  and  C_54
    3  A    between atoms: S_6  and  C_47
    4  A    between atoms: C_7  and  C_18
    5  A    between atoms: S_8  and  C_31
    6  A    between atoms: C_16  and  C_51
    7  A    between atoms: C_17  and  C_52
    8  A    between atoms: C_17  and  C_54
    9  A    between atoms: N_22  and  C_37
   10  A    between atoms: C_23  and  C_32
   11  A    between atoms: O_25  and  C_27
   12  A    between atoms: O_25  and  C_51
   13  A    between atoms: C_37  and  C_49
   14  A    between atoms: O_45  and  C_49
   15  A    between atoms: O_45  and  C_50
   16  A    between atoms: C_52  and  C_55
                            x       y       z     vdW  Elec       q    Type
                         _______ _______ _______ _____ _____    ______ ____

>  <TORSDO>
F 16

$$$$
=
 OpenBabel11072409083D

 57 64  0  0  1  0  0  0  0  0999 V2000
  194.4140  170.8920  141.4870 C   0  0  0  0  0  2  0  0  0  0  0  0
  192.3970  169.3890  140.9720 C   0  0  0  0  0  2  0  0  0  0  0  0
  196.6800  170.7370  144.4040 N   0  0  0  0  0  0  0  0  0  0  0  0
  193.9600  173.2250  143.5590 C   0  0  0  0  0  2  0  0  0  0  0  0
  191.6690  172.8090  141.9000 N   0  0  0  0  0  2  0  0  0  0  0  0
  191.0660  176.1110  143.6230 C   0  0  1  0  0  3  0  0  0  0  0  0
  194.7070  172.2280  144.4360 C   0  0  2  0  0  3  0  0  0  0  0  0
  191.5460  173.7590  143.0030 C   0  0  2  0  0  3  0  0  0  0  0  0
  193.8320  169.7980  140.6070 C   0  0  1  0  0  3  0  0  0  0  0  0
  191.0870  170.9660  143.2090 O   0  0  0  0  0  0  0  0  0  0  0  0
  191.3210  170.4860  140.8880 C   0  0  1  0  0  3  0  0  0  0  0  0
  191.5940  175.1940  142.5130 C   0  0  0  0  0  2  0  0  0  0  0  0
  192.8650  174.2330  146.4030 O   0  0  0  0  0  1  0  0  0  0  0  0
  197.2960  171.3980  145.3220 C   0  0  0  0  0  3  0  0  0  0  0  0
  194.9180  170.3040  142.7930 C   0  0  0  0  0  2  0  0  0  0  0  0
  195.4150  172.9640  145.5980 C   0  0  0  0  0  2  0  0  0  0  0  0
  195.6640  171.3670  143.5820 C   0  0  2  0  0  3  0  0  0  0  0  0
  196.9380  172.8300  145.5700 C   0  0  0  0  0  2  0  0  0  0  0  0
  191.3570  171.4210  142.0660 C   0  0  0  0  0  0  0  0  0  0  0  0
  191.5260  175.7280  145.0440 C   0  0  2  0  0  3  0  0  0  0  0  0
  192.6690  174.6960  145.1030 C   0  0  2  0  0  3  0  0  0  0  0  0
  192.5730  173.5160  144.1230 C   0  0  2  0  0  3  0  0  0  0  0  0
  193.5620  169.2650  138.2800 O   0  0  0  0  0  0  0  0  0  0  0  0
  194.6860  171.2560  138.7390 N   0  0  0  0  0  2  0  0  0  0  0  0
  194.0200  170.0640  139.1460 C   0  0  0  0  0  0  0  0  0  0  0  0
  194.9000  171.5780  137.3360 C   0  0  0  0  0  2  0  0  0  0  0  0
  195.4790  172.9730  137.2120 C   0  0  0  0  0  2  0  0  0  0  0  0
  194.7060  173.8800  137.9540 O   0  0  0  0  0  0  0  0  0  0  0  0
  195.0130  175.3580  139.9140 C   0  0  0  0  0  2  0  0  0  0  0  0
  195.9670  174.1750  140.0510 C   0  0  2  0  0  3  0  0  0  0  0  0
  196.8260  175.2950  138.0510 C   0  0  0  0  0  2  0  0  0  0  0  0
  197.3200  174.6490  140.3210 N   0  0  0  0  0  2  0  0  0  0  0  0
  197.9340  174.9460  139.0280 C   0  0  0  0  0  2  0  0  0  0  0  0
  195.5940  174.6960  138.6840 C   0  0  1  0  0  0  0  0  0  0  0  0
  190.1330  175.3810  146.1880 S   0  0  0  0  0  0  0  0  0  0  0  0
  190.3670  176.8330  147.2550 C   0  0  0  0  0  1  0  0  0  0  0  0
  191.3430  171.1470  139.6470 O   0  0  0  0  0  0  0  0  0  0  0  0
  190.1370  170.8220  139.0020 C   0  0  0  0  0  2  0  0  0  0  0  0
  188.8040  172.9120  139.6560 C   0  0  0  0  0  3  0  0  0  0  0  0
  189.3240  172.0480  138.7190 C   0  0  0  0  0  0  0  0  0  0  0  0
  188.5430  173.7300  137.6760 N   0  0  0  0  0  0  0  0  0  0  0  0
  188.3090  173.9540  138.9610 N   0  0  0  0  0  2  0  0  0  0  0  0
  189.1680  172.5780  137.4950 N   0  0  0  0  0  0  0  0  0  0  0  0
  191.3160  177.5840  143.3240 C   0  0  0  0  0  2  0  0  0  0  0  0
  190.0850  178.2700  142.7380 C   0  0  0  0  0  2  0  0  0  0  0  0
  188.8380  177.5930  143.2780 C   0  0  0  0  0  2  0  0  0  0  0  0
  187.6150  178.4100  142.9000 C   0  0  0  0  0  2  0  0  0  0  0  0
  186.3450  176.4180  143.7400 C   0  0  0  0  0  2  0  0  0  0  0  0
  185.2450  177.4700  143.7470 C   0  0  2  0  0  3  0  0  0  0  0  0
  186.3760  177.5300  142.7090 C   0  0  1  0  0  0  0  0  0  0  0  0
  186.6150  177.8260  146.3030 C   0  0  0  0  0  1  0  0  0  0  0  0
  185.3860  178.5070  145.2120 S   0  0  0  0  0  0  0  0  0  0  0  0
  185.7280  179.9360  144.8930 O   0  0  0  0  0  0  0  0  0  0  0  0
  184.0620  178.4890  145.9270 O   0  0  0  0  0  0  0  0  0  0  0  0
  185.5340  178.0720  140.3750 C   0  0  0  0  0  2  0  0  0  0  0  0
  186.9740  177.6320  140.2770 C   0  0  0  0  0  2  0  0  0  0  0  0
  186.0630  176.9870  141.3090 C   0  0  0  0  0  3  0  0  0  0  0  0
  1 15  1  0  0  0  0
  3 14  2  0  0  0  0
  5 19  1  0  0  0  0
  5  8  1  0  0  0  0
  6 44  1  6  0  0  0
  6 20  1  0  0  0  0
  7  4  1  6  0  0  0
  7 16  1  0  0  0  0
  8 12  1  6  0  0  0
  8 22  1  0  0  0  0
  9 25  1  6  0  0  0
  9  2  1  0  0  0  0
  9  1  1  0  0  0  0
 11 37  1  6  0  0  0
 11  2  1  0  0  0  0
 11 19  1  0  0  0  0
 12  6  1  0  0  0  0
 14 18  1  0  0  0  0
 17 15  1  1  0  0  0
 17  3  1  0  0  0  0
 17  7  1  0  0  0  0
 18 16  1  0  0  0  0
 19 10  2  0  0  0  0
 20 21  1  0  0  0  0
 20 35  1  1  0  0  0
 21 13  1  1  0  0  0
 22  4  1  6  0  0  0
 22 21  1  0  0  0  0
 23 25  2  0  0  0  0
 24 25  1  0  0  0  0
 26 24  1  0  0  0  0
 27 26  1  0  0  0  0
 27 28  1  0  0  0  0
 30 29  1  1  0  0  0
 30 32  1  0  0  0  0
 31 34  1  0  0  0  0
 31 33  1  0  0  0  0
 33 32  1  0  0  0  0
 34 28  1  6  0  0  0
 34 29  1  0  0  0  0
 34 30  1  0  0  0  0
 35 36  1  0  0  0  0
 38 37  1  0  0  0  0
 40 38  1  0  0  0  0
 40 39  2  0  0  0  0
 41 42  1  0  0  0  0
 42 39  1  0  0  0  0
 43 41  2  0  0  0  0
 43 40  1  0  0  0  0
 45 46  1  0  0  0  0
 45 44  1  0  0  0  0
 47 46  1  0  0  0  0
 48 49  1  0  0  0  0
 49 52  1  1  0  0  0
 50 47  1  1  0  0  0
 50 48  1  0  0  0  0
 50 49  1  0  0  0  0
 52 54  2  0  0  0  0
 52 51  1  0  0  0  0
 53 52  2  0  0  0  0
 55 57  1  0  0  0  0
 56 55  1  0  0  0  0
 56 57  1  0  0  0  0
 57 50  1  0  0  0  0
M  END
>  <MODEL>
2

>  <REMARK>
 VINA RESULT:      -6.2      3.250      9.047
  Name = 
  16 active torsions:
  status: ('A' for Active; 'I' for Inactive)
    1  A    between atoms: C_4  and  C_7
    2  A    between atoms: C_4  and  C_54
    3  A    between atoms: S_6  and  C_47
    4  A    between atoms: C_7  and  C_18
    5  A    between atoms: S_8  and  C_31
    6  A    between atoms: C_16  and  C_51
    7  A    between atoms: C_17  and  C_52
    8  A    between atoms: C_17  and  C_54
    9  A    between atoms: N_22  and  C_37
   10  A    between atoms: C_23  and  C_32
   11  A    between atoms: O_25  and  C_27
   12  A    between atoms: O_25  and  C_51
   13  A    between atoms: C_37  and  C_49
   14  A    between atoms: O_45  and  C_49
   15  A    between atoms: O_45  and  C_50
   16  A    between atoms: C_52  and  C_55
                            x       y       z     vdW  Elec       q    Type
                         _______ _______ _______ _____ _____    ______ ____

>  <TORSDO>
F 16

$$$$
=
 OpenBabel11072409083D

 57 64  0  0  1  0  0  0  0  0999 V2000
  189.2490  173.5570  140.1100 C   0  0  0  0  0  2  0  0  0  0  0  0
  188.4370  172.3540  142.2280 C   0  0  0  0  0  2  0  0  0  0  0  0
  189.1150  172.3520  136.6170 N   0  0  0  0  0  0  0  0  0  0  0  0
  192.0580  172.6890  138.9680 C   0  0  0  0  0  2  0  0  0  0  0  0
  192.0170  172.6780  141.8270 N   0  0  0  0  0  2  0  0  0  0  0  0
  195.6590  172.4030  140.8810 C   0  0  1  0  0  3  0  0  0  0  0  0
  191.1360  171.9720  137.9900 C   0  0  2  0  0  3  0  0  0  0  0  0
  193.2080  172.1550  141.1620 C   0  0  2  0  0  3  0  0  0  0  0  0
  188.2250  173.5030  141.2310 C   0  0  1  0  0  3  0  0  0  0  0  0
  190.8940  170.6320  141.7780 O   0  0  0  0  0  0  0  0  0  0  0  0
  189.7690  172.3400  142.9980 C   0  0  1  0  0  3  0  0  0  0  0  0
  194.3590  173.1430  141.2200 C   0  0  0  0  0  2  0  0  0  0  0  0
  194.0890  170.3730  138.0690 O   0  0  0  0  0  1  0  0  0  0  0  0
  189.7470  172.2150  135.5030 C   0  0  0  0  0  3  0  0  0  0  0  0
  188.8920  172.5560  139.0250 C   0  0  0  0  0  2  0  0  0  0  0  0
  191.8690  171.7220  136.6510 C   0  0  0  0  0  2  0  0  0  0  0  0
  189.8100  172.7460  137.8280 C   0  0  2  0  0  3  0  0  0  0  0  0
  191.2270  172.4340  135.4590 C   0  0  0  0  0  2  0  0  0  0  0  0
  190.9120  171.8310  142.1640 C   0  0  0  0  0  0  0  0  0  0  0  0
  195.5330  171.3760  139.7370 C   0  0  2  0  0  3  0  0  0  0  0  0
  194.2300  171.4680  138.9200 C   0  0  2  0  0  3  0  0  0  0  0  0
  192.9380  171.6950  139.7190 C   0  0  2  0  0  3  0  0  0  0  0  0
  187.0790  174.9970  142.7240 O   0  0  0  0  0  0  0  0  0  0  0  0
  188.9160  175.8970  141.6040 N   0  0  0  0  0  2  0  0  0  0  0  0
  188.0160  174.8310  141.8930 C   0  0  0  0  0  0  0  0  0  0  0  0
  188.7730  177.2110  142.2140 C   0  0  0  0  0  2  0  0  0  0  0  0
  187.6530  177.9720  141.5340 C   0  0  0  0  0  2  0  0  0  0  0  0
  187.1880  178.9940  142.3750 O   0  0  0  0  0  0  0  0  0  0  0  0
  186.2620  178.3150  144.5670 C   0  0  0  0  0  2  0  0  0  0  0  0
  185.4220  179.4690  144.0280 C   0  0  2  0  0  3  0  0  0  0  0  0
  184.9860  177.7090  142.3840 C   0  0  0  0  0  2  0  0  0  0  0  0
  184.0060  179.1230  144.0730 N   0  0  0  0  0  2  0  0  0  0  0  0
  183.7080  178.3840  142.8480 C   0  0  0  0  0  2  0  0  0  0  0  0
  186.0720  178.4930  143.0770 C   0  0  1  0  0  0  0  0  0  0  0  0
  195.9920  169.6710  140.2410 S   0  0  0  0  0  0  0  0  0  0  0  0
  196.4710  170.0750  141.9460 C   0  0  0  0  0  1  0  0  0  0  0  0
  190.0300  173.5780  143.6130 O   0  0  0  0  0  0  0  0  0  0  0  0
  189.9770  173.3520  144.9990 C   0  0  0  0  0  2  0  0  0  0  0  0
  188.9810  175.6190  145.6640 C   0  0  0  0  0  3  0  0  0  0  0  0
  189.9460  174.6420  145.7590 C   0  0  0  0  0  0  0  0  0  0  0  0
  190.3150  176.0620  147.3010 N   0  0  0  0  0  0  0  0  0  0  0  0
  189.2540  176.5030  146.6430 N   0  0  0  0  0  2  0  0  0  0  0  0
  190.7580  174.9240  146.7920 N   0  0  0  0  0  0  0  0  0  0  0  0
  196.8270  173.3570  140.6590 C   0  0  0  0  0  2  0  0  0  0  0  0
  196.9530  174.3820  141.7830 C   0  0  0  0  0  2  0  0  0  0  0  0
  197.1850  173.6530  143.0940 C   0  0  0  0  0  2  0  0  0  0  0  0
  196.4330  174.3610  144.2070 C   0  0  0  0  0  2  0  0  0  0  0  0
  194.5660  174.1740  145.8710 C   0  0  0  0  0  2  0  0  0  0  0  0
  193.7720  174.3370  144.5830 C   0  0  2  0  0  3  0  0  0  0  0  0
  195.1380  173.6320  144.5750 C   0  0  1  0  0  0  0  0  0  0  0  0
  194.5150  177.0570  145.3480 C   0  0  0  0  0  1  0  0  0  0  0  0
  193.7150  176.0710  144.1020 S   0  0  0  0  0  0  0  0  0  0  0  0
  194.3470  176.3350  142.7640 O   0  0  0  0  0  0  0  0  0  0  0  0
  192.2710  176.4880  144.0300 O   0  0  0  0  0  0  0  0  0  0  0  0
  196.0210  171.5120  145.6600 C   0  0  0  0  0  2  0  0  0  0  0  0
  194.5270  171.5720  145.8670 C   0  0  0  0  0  2  0  0  0  0  0  0
  195.1260  172.0970  144.5720 C   0  0  0  0  0  3  0  0  0  0  0  0
  1  9  1  0  0  0  0
  2 11  1  0  0  0  0
  3 17  1  0  0  0  0
  5 19  1  0  0  0  0
  6 44  1  6  0  0  0
  6 12  1  0  0  0  0
  7 16  1  6  0  0  0
  7  4  1  0  0  0  0
  8 12  1  6  0  0  0
  8  5  1  0  0  0  0
  9 25  1  1  0  0  0
  9  2  1  0  0  0  0
 10 19  2  0  0  0  0
 11 37  1  6  0  0  0
 14  3  2  0  0  0  0
 15  1  1  0  0  0  0
 17  7  1  0  0  0  0
 17 15  1  1  0  0  0
 18 14  1  0  0  0  0
 18 16  1  0  0  0  0
 19 11  1  0  0  0  0
 20 35  1  1  0  0  0
 20  6  1  0  0  0  0
 21 13  1  1  0  0  0
 21 22  1  0  0  0  0
 21 20  1  0  0  0  0
 22  4  1  6  0  0  0
 22  8  1  0  0  0  0
 24 25  1  0  0  0  0
 24 26  1  0  0  0  0
 25 23  2  0  0  0  0
 27 26  1  0  0  0  0
 27 28  1  0  0  0  0
 30 32  1  0  0  0  0
 30 29  1  1  0  0  0
 31 33  1  0  0  0  0
 31 34  1  0  0  0  0
 33 32  1  0  0  0  0
 34 28  1  6  0  0  0
 34 30  1  0  0  0  0
 34 29  1  0  0  0  0
 35 36  1  0  0  0  0
 37 38  1  0  0  0  0
 38 40  1  0  0  0  0
 39 40  2  0  0  0  0
 39 42  1  0  0  0  0
 40 43  1  0  0  0  0
 42 41  1  0  0  0  0
 43 41  2  0  0  0  0
 44 45  1  0  0  0  0
 45 46  1  0  0  0  0
 46 47  1  0  0  0  0
 49 52  1  6  0  0  0
 49 48  1  0  0  0  0
 50 47  1  6  0  0  0
 50 49  1  0  0  0  0
 50 48  1  0  0  0  0
 52 51  1  0  0  0  0
 53 52  2  0  0  0  0
 54 52  2  0  0  0  0
 55 56  1  0  0  0  0
 57 50  1  0  0  0  0
 57 55  1  0  0  0  0
 57 56  1  0  0  0  0
M  END
>  <MODEL>
3

>  <REMARK>
 VINA RESULT:      -6.1      2.727      4.602
  Name = 
  16 active torsions:
  status: ('A' for Active; 'I' for Inactive)
    1  A    between atoms: C_4  and  C_7
    2  A    between atoms: C_4  and  C_54
    3  A    between atoms: S_6  and  C_47
    4  A    between atoms: C_7  and  C_18
    5  A    between atoms: S_8  and  C_31
    6  A    between atoms: C_16  and  C_51
    7  A    between atoms: C_17  and  C_52
    8  A    between atoms: C_17  and  C_54
    9  A    between atoms: N_22  and  C_37
   10  A    between atoms: C_23  and  C_32
   11  A    between atoms: O_25  and  C_27
   12  A    between atoms: O_25  and  C_51
   13  A    between atoms: C_37  and  C_49
   14  A    between atoms: O_45  and  C_49
   15  A    between atoms: O_45  and  C_50
   16  A    between atoms: C_52  and  C_55
                            x       y       z     vdW  Elec       q    Type
                         _______ _______ _______ _____ _____    ______ ____

>  <TORSDO>
F 16

$$$$
=
 OpenBabel11072409083D

 57 64  0  0  1  0  0  0  0  0999 V2000
  195.3810  175.1190  139.0300 C   0  0  0  0  0  2  0  0  0  0  0  0
  196.1710  173.3020  137.3970 C   0  0  0  0  0  2  0  0  0  0  0  0
  197.1940  176.5090  141.9370 N   0  0  0  0  0  0  0  0  0  0  0  0
  194.2460  174.1430  141.8050 C   0  0  0  0  0  2  0  0  0  0  0  0
  193.5160  172.3830  139.6740 N   0  0  0  0  0  2  0  0  0  0  0  0
  191.3500  171.3670  142.5920 C   0  0  1  0  0  3  0  0  0  0  0  0
  195.6300  174.6160  142.2320 C   0  0  2  0  0  3  0  0  0  0  0  0
  193.1830  171.9750  141.0360 C   0  0  2  0  0  3  0  0  0  0  0  0
  195.8450  174.7870  137.6220 C   0  0  1  0  0  3  0  0  0  0  0  0
  195.6550  171.4510  139.7440 O   0  0  0  0  0  0  0  0  0  0  0  0
  195.0240  172.3000  137.6110 C   0  0  1  0  0  3  0  0  0  0  0  0
  191.7070  172.1680  141.3330 C   0  0  0  0  0  2  0  0  0  0  0  0
  194.5390  172.3290  144.4360 O   0  0  0  0  0  1  0  0  0  0  0  0
  197.1300  176.8600  143.1750 C   0  0  0  0  0  3  0  0  0  0  0  0
  196.5750  175.2450  139.9600 C   0  0  0  0  0  2  0  0  0  0  0  0
  195.6280  174.9890  143.7330 C   0  0  0  0  0  2  0  0  0  0  0  0
  196.1180  175.7600  141.3160 C   0  0  2  0  0  3  0  0  0  0  0  0
  195.9450  176.4610  143.9980 C   0  0  0  0  0  2  0  0  0  0  0  0
  194.7620  172.0240  139.0660 C   0  0  0  0  0  0  0  0  0  0  0  0
  192.4120  171.4220  143.7100 C   0  0  2  0  0  3  0  0  0  0  0  0
  193.5010  172.4960  143.5220 C   0  0  2  0  0  3  0  0  0  0  0  0
  194.0610  172.6580  142.1000 C   0  0  2  0  0  3  0  0  0  0  0  0
  195.3350  175.4130  135.3590 O   0  0  0  0  0  0  0  0  0  0  0  0
  193.6580  175.8250  136.9260 N   0  0  0  0  0  2  0  0  0  0  0  0
  194.9570  175.3650  136.5640 C   0  0  0  0  0  0  0  0  0  0  0  0
  192.7430  176.3950  135.9480 C   0  0  0  0  0  2  0  0  0  0  0  0
  191.7040  175.3650  135.5560 C   0  0  0  0  0  2  0  0  0  0  0  0
  190.5020  176.0030  135.2120 O   0  0  0  0  0  0  0  0  0  0  0  0
  189.5650  173.7150  135.1250 C   0  0  0  0  0  2  0  0  0  0  0  0
  189.8100  174.0770  136.5860 C   0  0  2  0  0  3  0  0  0  0  0  0
  188.0800  175.6860  135.9450 C   0  0  0  0  0  2  0  0  0  0  0  0
  188.6100  173.8190  137.3750 N   0  0  0  0  0  2  0  0  0  0  0  0
  187.7630  175.0040  137.2630 C   0  0  0  0  0  2  0  0  0  0  0  0
  189.4450  175.1490  135.5880 C   0  0  1  0  0  0  0  0  0  0  0  0
  193.0530  169.7680  144.1810 S   0  0  0  0  0  0  0  0  0  0  0  0
  192.3130  168.8510  142.7980 C   0  0  0  0  0  1  0  0  0  0  0  0
  193.8710  172.6640  136.8920 O   0  0  0  0  0  0  0  0  0  0  0  0
  193.8470  171.8540  135.7430 C   0  0  0  0  0  2  0  0  0  0  0  0
  191.8320  170.5860  136.6960 C   0  0  0  0  0  3  0  0  0  0  0  0
  192.5620  171.0900  135.6430 C   0  0  0  0  0  0  0  0  0  0  0  0
  190.7120  170.3860  134.8620 N   0  0  0  0  0  0  0  0  0  0  0  0
  190.6780  170.1400  136.1630 N   0  0  0  0  0  2  0  0  0  0  0  0
  191.8450  170.9720  134.5130 N   0  0  0  0  0  0  0  0  0  0  0  0
  189.9590  171.7030  143.1160 C   0  0  0  0  0  2  0  0  0  0  0  0
  189.9750  172.0630  144.5990 C   0  0  0  0  0  2  0  0  0  0  0  0
  189.6570  173.5390  144.7540 C   0  0  0  0  0  2  0  0  0  0  0  0
  189.9720  174.2640  143.4580 C   0  0  0  0  0  2  0  0  0  0  0  0
  188.6110  176.1050  144.4810 C   0  0  0  0  0  2  0  0  0  0  0  0
  189.3630  176.8810  143.4100 C   0  0  2  0  0  3  0  0  0  0  0  0
  188.9890  175.4070  143.1880 C   0  0  1  0  0  0  0  0  0  0  0  0
  191.2110  176.7630  145.6700 C   0  0  0  0  0  1  0  0  0  0  0  0
  191.0340  177.2540  143.9690 S   0  0  0  0  0  0  0  0  0  0  0  0
  192.0970  176.5920  143.1380 O   0  0  0  0  0  0  0  0  0  0  0  0
  191.2330  178.7430  143.8880 O   0  0  0  0  0  0  0  0  0  0  0  0
  187.9300  175.5740  140.8860 C   0  0  0  0  0  2  0  0  0  0  0  0
  188.0690  174.1150  141.2470 C   0  0  0  0  0  2  0  0  0  0  0  0
  187.7460  175.1280  142.3330 C   0  0  0  0  0  3  0  0  0  0  0  0
  1 15  1  0  0  0  0
  2 11  1  0  0  0  0
  2  9  1  0  0  0  0
  3 14  2  0  0  0  0
  5  8  1  0  0  0  0
  6 44  1  1  0  0  0
  6 20  1  0  0  0  0
  7  4  1  6  0  0  0
  7 16  1  0  0  0  0
  8 12  1  1  0  0  0
  8 22  1  0  0  0  0
  9 25  1  6  0  0  0
  9  1  1  0  0  0  0
 11 37  1  1  0  0  0
 11 19  1  0  0  0  0
 12  6  1  0  0  0  0
 14 18  1  0  0  0  0
 16 18  1  0  0  0  0
 17 15  1  6  0  0  0
 17  3  1  0  0  0  0
 17  7  1  0  0  0  0
 19  5  1  0  0  0  0
 19 10  2  0  0  0  0
 20 35  1  6  0  0  0
 21 20  1  0  0  0  0
 21 13  1  1  0  0  0
 22  4  1  6  0  0  0
 22 21  1  0  0  0  0
 23 25  2  0  0  0  0
 25 24  1  0  0  0  0
 26 24  1  0  0  0  0
 27 26  1  0  0  0  0
 28 27  1  0  0  0  0
 29 34  1  0  0  0  0
 30 29  1  6  0  0  0
 30 32  1  0  0  0  0
 31 33  1  0  0  0  0
 33 32  1  0  0  0  0
 34 28  1  6  0  0  0
 34 31  1  0  0  0  0
 34 30  1  0  0  0  0
 36 35  1  0  0  0  0
 38 37  1  0  0  0  0
 40 38  1  0  0  0  0
 40 39  2  0  0  0  0
 41 42  1  0  0  0  0
 42 39  1  0  0  0  0
 43 41  2  0  0  0  0
 43 40  1  0  0  0  0
 44 45  1  0  0  0  0
 45 46  1  0  0  0  0
 47 46  1  0  0  0  0
 49 52  1  1  0  0  0
 49 48  1  0  0  0  0
 50 49  1  0  0  0  0
 50 47  1  1  0  0  0
 50 48  1  0  0  0  0
 52 51  1  0  0  0  0
 53 52  2  0  0  0  0
 54 52  2  0  0  0  0
 55 56  1  0  0  0  0
 55 57  1  0  0  0  0
 56 57  1  0  0  0  0
 57 50  1  0  0  0  0
M  END
>  <MODEL>
4

>  <REMARK>
 VINA RESULT:      -5.7      3.279      8.642
  Name = 
  16 active torsions:
  status: ('A' for Active; 'I' for Inactive)
    1  A    between atoms: C_4  and  C_7
    2  A    between atoms: C_4  and  C_54
    3  A    between atoms: S_6  and  C_47
    4  A    between atoms: C_7  and  C_18
    5  A    between atoms: S_8  and  C_31
    6  A    between atoms: C_16  and  C_51
    7  A    between atoms: C_17  and  C_52
    8  A    between atoms: C_17  and  C_54
    9  A    between atoms: N_22  and  C_37
   10  A    between atoms: C_23  and  C_32
   11  A    between atoms: O_25  and  C_27
   12  A    between atoms: O_25  and  C_51
   13  A    between atoms: C_37  and  C_49
   14  A    between atoms: O_45  and  C_49
   15  A    between atoms: O_45  and  C_50
   16  A    between atoms: C_52  and  C_55
                            x       y       z     vdW  Elec       q    Type
                         _______ _______ _______ _____ _____    ______ ____

>  <TORSDO>
F 16

$$$$
=
 OpenBabel11072409083D

 57 64  0  0  1  0  0  0  0  0999 V2000
  195.2870  175.1850  138.8860 C   0  0  0  0  0  2  0  0  0  0  0  0
  195.9660  173.3340  137.2410 C   0  0  0  0  0  2  0  0  0  0  0  0
  197.1910  176.4600  141.7870 N   0  0  0  0  0  0  0  0  0  0  0  0
  194.1150  174.2620  141.6640 C   0  0  0  0  0  2  0  0  0  0  0  0
  193.2770  172.5540  139.5300 N   0  0  0  0  0  2  0  0  0  0  0  0
  191.0740  171.6480  142.4570 C   0  0  1  0  0  3  0  0  0  0  0  0
  195.5260  174.6550  142.0840 C   0  0  2  0  0  3  0  0  0  0  0  0
  192.9290  172.1600  140.8930 C   0  0  2  0  0  3  0  0  0  0  0  0
  195.7250  174.8330  137.4730 C   0  0  1  0  0  3  0  0  0  0  0  0
  195.3610  171.5050  139.5840 O   0  0  0  0  0  0  0  0  0  0  0  0
  194.7660  172.3960  137.4570 C   0  0  1  0  0  3  0  0  0  0  0  0
  191.4680  172.4330  141.1990 C   0  0  0  0  0  2  0  0  0  0  0  0
  194.3220  172.4230  144.2860 O   0  0  0  0  0  1  0  0  0  0  0  0
  197.1540  176.8080  143.0270 C   0  0  0  0  0  3  0  0  0  0  0  0
  196.4910  175.2410  139.8090 C   0  0  0  0  0  2  0  0  0  0  0  0
  195.5530  175.0220  143.5860 C   0  0  0  0  0  2  0  0  0  0  0  0
  196.0720  175.7740  141.1700 C   0  0  2  0  0  3  0  0  0  0  0  0
  195.9530  176.4730  143.8550 C   0  0  0  0  0  2  0  0  0  0  0  0
  194.4970  172.1300  138.9130 C   0  0  0  0  0  0  0  0  0  0  0  0
  192.1440  171.6390  143.5680 C   0  0  2  0  0  3  0  0  0  0  0  0
  193.2900  172.6520  143.3780 C   0  0  2  0  0  3  0  0  0  0  0  0
  193.8500  172.7880  141.9540 C   0  0  2  0  0  3  0  0  0  0  0  0
  195.2600  175.5450  135.2250 O   0  0  0  0  0  0  0  0  0  0  0  0
  193.5690  175.9390  136.7820 N   0  0  0  0  0  2  0  0  0  0  0  0
  194.8640  175.4650  136.4230 C   0  0  0  0  0  0  0  0  0  0  0  0
  192.6810  176.5600  135.8110 C   0  0  0  0  0  2  0  0  0  0  0  0
  191.6690  175.5450  135.3190 C   0  0  0  0  0  2  0  0  0  0  0  0
  190.4000  176.1390  135.2270 O   0  0  0  0  0  0  0  0  0  0  0  0
  189.7430  173.7540  135.2330 C   0  0  0  0  0  2  0  0  0  0  0  0
  189.9380  174.2020  136.6780 C   0  0  2  0  0  3  0  0  0  0  0  0
  188.0310  175.5650  135.9750 C   0  0  0  0  0  2  0  0  0  0  0  0
  188.7760  173.8340  137.4790 N   0  0  0  0  0  2  0  0  0  0  0  0
  187.7930  174.9040  137.3200 C   0  0  0  0  0  2  0  0  0  0  0  0
  189.4510  175.1810  135.6380 C   0  0  1  0  0  0  0  0  0  0  0  0
  192.6950  169.9500  144.0290 S   0  0  0  0  0  0  0  0  0  0  0  0
  191.9900  169.0950  142.5880 C   0  0  0  0  0  1  0  0  0  0  0  0
  193.6310  172.8270  136.7470 O   0  0  0  0  0  0  0  0  0  0  0  0
  193.5120  171.9750  135.6340 C   0  0  0  0  0  2  0  0  0  0  0  0
  191.4240  170.8480  136.6060 C   0  0  0  0  0  3  0  0  0  0  0  0
  192.6270  170.8060  135.9370 C   0  0  0  0  0  0  0  0  0  0  0  0
  191.7320  168.8820  135.7720 N   0  0  0  0  0  0  0  0  0  0  0  0
  190.8960  169.6140  136.4920 N   0  0  0  0  0  2  0  0  0  0  0  0
  192.7960  169.5810  135.4110 N   0  0  0  0  0  0  0  0  0  0  0  0
  189.7070  172.0590  142.9900 C   0  0  0  0  0  2  0  0  0  0  0  0
  189.8090  173.1510  144.0510 C   0  0  0  0  0  2  0  0  0  0  0  0
  189.5180  174.4950  143.4080 C   0  0  0  0  0  2  0  0  0  0  0  0
  188.5860  175.2930  144.3020 C   0  0  0  0  0  2  0  0  0  0  0  0
  189.5490  177.2170  143.0130 C   0  0  0  0  0  2  0  0  0  0  0  0
  188.2400  177.8310  143.4890 C   0  0  2  0  0  3  0  0  0  0  0  0
  188.9640  176.7770  144.3420 C   0  0  1  0  0  0  0  0  0  0  0  0
  187.5320  176.5070  140.9820 C   0  0  0  0  0  1  0  0  0  0  0  0
  186.8800  177.2830  142.4440 S   0  0  0  0  0  0  0  0  0  0  0  0
  185.9410  176.3380  143.1420 O   0  0  0  0  0  0  0  0  0  0  0  0
  186.0970  178.4960  142.0210 O   0  0  0  0  0  0  0  0  0  0  0  0
  188.9770  177.5390  146.7640 C   0  0  0  0  0  2  0  0  0  0  0  0
  189.8110  176.2860  146.6490 C   0  0  0  0  0  2  0  0  0  0  0  0
  189.8120  177.2940  145.5110 C   0  0  0  0  0  3  0  0  0  0  0  0
  1 15  1  0  0  0  0
  2 11  1  0  0  0  0
  2  9  1  0  0  0  0
  3 14  2  0  0  0  0
  5  8  1  0  0  0  0
  6 44  1  1  0  0  0
  6 20  1  0  0  0  0
  7  4  1  6  0  0  0
  7 16  1  0  0  0  0
  8 12  1  1  0  0  0
  8 22  1  0  0  0  0
  9 25  1  6  0  0  0
  9  1  1  0  0  0  0
 11 37  1  1  0  0  0
 11 19  1  0  0  0  0
 12  6  1  0  0  0  0
 14 18  1  0  0  0  0
 16 18  1  0  0  0  0
 17 15  1  6  0  0  0
 17  3  1  0  0  0  0
 17  7  1  0  0  0  0
 19  5  1  0  0  0  0
 19 10  2  0  0  0  0
 20 35  1  6  0  0  0
 21 20  1  0  0  0  0
 21 13  1  1  0  0  0
 22  4  1  6  0  0  0
 22 21  1  0  0  0  0
 23 25  2  0  0  0  0
 25 24  1  0  0  0  0
 26 24  1  0  0  0  0
 27 26  1  0  0  0  0
 28 27  1  0  0  0  0
 29 34  1  0  0  0  0
 30 29  1  6  0  0  0
 30 32  1  0  0  0  0
 31 33  1  0  0  0  0
 33 32  1  0  0  0  0
 34 28  1  6  0  0  0
 34 31  1  0  0  0  0
 34 30  1  0  0  0  0
 36 35  1  0  0  0  0
 38 40  1  0  0  0  0
 38 37  1  0  0  0  0
 40 39  2  0  0  0  0
 41 42  1  0  0  0  0
 42 39  1  0  0  0  0
 43 41  2  0  0  0  0
 43 40  1  0  0  0  0
 44 45  1  0  0  0  0
 46 45  1  0  0  0  0
 46 47  1  0  0  0  0
 48 49  1  0  0  0  0
 48 50  1  0  0  0  0
 49 52  1  6  0  0  0
 49 50  1  0  0  0  0
 50 47  1  1  0  0  0
 50 57  1  0  0  0  0
 51 52  1  0  0  0  0
 52 53  2  0  0  0  0
 54 52  2  0  0  0  0
 56 55  1  0  0  0  0
 57 56  1  0  0  0  0
 57 55  1  0  0  0  0
M  END
>  <MODEL>
5

>  <REMARK>
 VINA RESULT:      -5.6      3.322      8.921
  Name = 
  16 active torsions:
  status: ('A' for Active; 'I' for Inactive)
    1  A    between atoms: C_4  and  C_7
    2  A    between atoms: C_4  and  C_54
    3  A    between atoms: S_6  and  C_47
    4  A    between atoms: C_7  and  C_18
    5  A    between atoms: S_8  and  C_31
    6  A    between atoms: C_16  and  C_51
    7  A    between atoms: C_17  and  C_52
    8  A    between atoms: C_17  and  C_54
    9  A    between atoms: N_22  and  C_37
   10  A    between atoms: C_23  and  C_32
   11  A    between atoms: O_25  and  C_27
   12  A    between atoms: O_25  and  C_51
   13  A    between atoms: C_37  and  C_49
   14  A    between atoms: O_45  and  C_49
   15  A    between atoms: O_45  and  C_50
   16  A    between atoms: C_52  and  C_55
                            x       y       z     vdW  Elec       q    Type
                         _______ _______ _______ _____ _____    ______ ____

>  <TORSDO>
F 16

$$$$
=
 OpenBabel11072409083D

 57 64  0  0  1  0  0  0  0  0999 V2000
  192.7500  171.8730  139.0780 C   0  0  0  0  0  2  0  0  0  0  0  0
  190.4180  171.0050  138.4420 C   0  0  0  0  0  2  0  0  0  0  0  0
  195.3590  170.1470  141.0480 N   0  0  0  0  0  0  0  0  0  0  0  0
  193.0950  173.0260  141.9920 C   0  0  0  0  0  2  0  0  0  0  0  0
  190.5400  173.6720  140.8830 N   0  0  0  0  0  2  0  0  0  0  0  0
  190.8810  175.8570  143.9400 C   0  0  1  0  0  3  0  0  0  0  0  0
  193.7530  171.6630  142.1630 C   0  0  2  0  0  3  0  0  0  0  0  0
  190.7800  174.0160  142.2820 C   0  0  2  0  0  3  0  0  0  0  0  0
  191.8330  171.3750  137.9720 C   0  0  1  0  0  3  0  0  0  0  0  0
  189.8090  171.5090  141.3710 O   0  0  0  0  0  0  0  0  0  0  0  0
  189.5840  172.1280  139.0820 C   0  0  1  0  0  3  0  0  0  0  0  0
  191.0380  175.5010  142.4560 C   0  0  0  0  0  2  0  0  0  0  0  0
  192.6730  172.7270  145.1600 O   0  0  0  0  0  1  0  0  0  0  0  0
  196.2280  170.2410  141.9950 C   0  0  0  0  0  3  0  0  0  0  0  0
  193.3200  170.6980  139.8540 C   0  0  0  0  0  2  0  0  0  0  0  0
  194.7630  171.7000  143.3330 C   0  0  0  0  0  2  0  0  0  0  0  0
  194.3760  171.1920  140.8300 C   0  0  2  0  0  3  0  0  0  0  0  0
  196.2060  171.4280  142.9060 C   0  0  0  0  0  2  0  0  0  0  0  0
  189.9860  172.4060  140.5050 C   0  0  0  0  0  0  0  0  0  0  0  0
  191.4680  174.8160  144.9150 C   0  0  2  0  0  3  0  0  0  0  0  0
  192.3760  173.7540  144.2650 C   0  0  2  0  0  3  0  0  0  0  0  0
  191.8970  173.1750  142.9250 C   0  0  2  0  0  3  0  0  0  0  0  0
  191.2610  171.9090  135.7000 O   0  0  0  0  0  0  0  0  0  0  0  0
  192.4840  173.5320  136.8440 N   0  0  0  0  0  2  0  0  0  0  0  0
  191.8430  172.2610  136.7650 C   0  0  0  0  0  0  0  0  0  0  0  0
  192.5290  174.4430  135.7100 C   0  0  0  0  0  2  0  0  0  0  0  0
  193.9020  175.0780  135.6170 C   0  0  0  0  0  2  0  0  0  0  0  0
  194.4620  175.2010  136.8980 O   0  0  0  0  0  0  0  0  0  0  0  0
  196.3330  173.7810  137.6740 C   0  0  0  0  0  2  0  0  0  0  0  0
  196.1570  173.5650  136.1740 C   0  0  2  0  0  3  0  0  0  0  0  0
  196.8280  175.9170  136.2750 C   0  0  0  0  0  2  0  0  0  0  0  0
  197.4360  173.7190  135.4910 N   0  0  0  0  0  2  0  0  0  0  0  0
  197.6090  175.1460  135.2260 C   0  0  0  0  0  2  0  0  0  0  0  0
  195.8360  174.9050  136.7920 C   0  0  1  0  0  0  0  0  0  0  0  0
  190.2250  174.1360  146.0840 S   0  0  0  0  0  0  0  0  0  0  0  0
  190.5210  175.3270  147.4240 C   0  0  0  0  0  1  0  0  0  0  0  0
  189.5470  173.2780  138.2740 O   0  0  0  0  0  0  0  0  0  0  0  0
  188.1930  173.6380  138.1560 C   0  0  0  0  0  2  0  0  0  0  0  0
  188.6810  174.9680  136.0190 C   0  0  0  0  0  3  0  0  0  0  0  0
  188.0160  174.7860  137.2110 C   0  0  1  0  0  3  0  0  0  0  0  0
  187.1040  176.4290  136.2110 N   0  0  0  0  0  0  0  0  0  0  0  0
  188.0870  176.0200  135.4240 N   0  0  0  0  0  0  0  0  0  0  0  0
  187.0290  175.6920  137.3080 N   0  0  0  0  0  0  0  0  0  0  0  0
  191.3720  177.2650  144.2520 C   0  0  0  0  0  2  0  0  0  0  0  0
  190.2260  178.2690  144.3340 C   0  0  0  0  0  2  0  0  0  0  0  0
  189.0150  177.5890  144.9480 C   0  0  0  0  0  2  0  0  0  0  0  0
  187.7510  178.2960  144.4910 C   0  0  0  0  0  2  0  0  0  0  0  0
  185.3890  178.0050  143.7030 C   0  0  0  0  0  2  0  0  0  0  0  0
  186.0500  176.8050  143.0410 C   0  0  2  0  0  3  0  0  0  0  0  0
  186.5640  177.3340  144.3890 C   0  0  1  0  0  0  0  0  0  0  0  0
  185.7400  177.5340  140.2290 C   0  0  0  0  0  1  0  0  0  0  0  0
  186.9150  177.3170  141.5470 S   0  0  0  0  0  0  0  0  0  0  0  0
  187.7110  178.5800  141.7280 O   0  0  0  0  0  0  0  0  0  0  0  0
  187.8620  176.2160  141.1540 O   0  0  0  0  0  0  0  0  0  0  0  0
  186.1340  177.4730  146.8880 C   0  0  0  0  0  2  0  0  0  0  0  0
  184.8250  177.1950  146.1900 C   0  0  0  0  0  2  0  0  0  0  0  0
  186.1080  176.5850  145.6480 C   0  0  0  0  0  3  0  0  0  0  0  0
  1 15  1  0  0  0  0
  2 11  1  0  0  0  0
  3 14  2  0  0  0  0
  5  8  1  0  0  0  0
  6 44  1  6  0  0  0
  6 20  1  0  0  0  0
  7  4  1  6  0  0  0
  7 16  1  0  0  0  0
  8 12  1  6  0  0  0
  8 22  1  0  0  0  0
  9 25  1  6  0  0  0
  9  2  1  0  0  0  0
  9  1  1  0  0  0  0
 11 37  1  6  0  0  0
 11 19  1  0  0  0  0
 12  6  1  0  0  0  0
 14 18  1  0  0  0  0
 17 15  1  6  0  0  0
 17  3  1  0  0  0  0
 17  7  1  0  0  0  0
 18 16  1  0  0  0  0
 19  5  1  0  0  0  0
 19 10  2  0  0  0  0
 20 35  1  6  0  0  0
 21 20  1  0  0  0  0
 21 13  1  1  0  0  0
 22  4  1  6  0  0  0
 22 21  1  0  0  0  0
 23 25  2  0  0  0  0
 25 24  1  0  0  0  0
 26 24  1  0  0  0  0
 27 26  1  0  0  0  0
 27 28  1  0  0  0  0
 30 34  1  0  0  0  0
 30 29  1  1  0  0  0
 31 34  1  0  0  0  0
 32 30  1  0  0  0  0
 33 32  1  0  0  0  0
 33 31  1  0  0  0  0
 34 28  1  1  0  0  0
 34 29  1  0  0  0  0
 35 36  1  0  0  0  0
 38 37  1  0  0  0  0
 39 40  1  0  0  0  0
 40 43  1  0  0  0  0
 40 38  1  6  0  0  0
 41 43  2  0  0  0  0
 42 39  2  0  0  0  0
 42 41  1  0  0  0  0
 44 45  1  0  0  0  0
 45 46  1  0  0  0  0
 47 46  1  0  0  0  0
 48 50  1  0  0  0  0
 49 52  1  6  0  0  0
 49 48  1  0  0  0  0
 49 50  1  0  0  0  0
 50 47  1  1  0  0  0
 50 57  1  0  0  0  0
 51 52  1  0  0  0  0
 52 53  2  0  0  0  0
 54 52  2  0  0  0  0
 56 55  1  0  0  0  0
 57 56  1  0  0  0  0
 57 55  1  0  0  0  0
M  END
>  <MODEL>
6

>  <REMARK>
 VINA RESULT:      -5.6      3.271      9.282
  Name = 
  16 active torsions:
  status: ('A' for Active; 'I' for Inactive)
    1  A    between atoms: C_4  and  C_7
    2  A    between atoms: C_4  and  C_54
    3  A    between atoms: S_6  and  C_47
    4  A    between atoms: C_7  and  C_18
    5  A    between atoms: S_8  and  C_31
    6  A    between atoms: C_16  and  C_51
    7  A    between atoms: C_17  and  C_52
    8  A    between atoms: C_17  and  C_54
    9  A    between atoms: N_22  and  C_37
   10  A    between atoms: C_23  and  C_32
   11  A    between atoms: O_25  and  C_27
   12  A    between atoms: O_25  and  C_51
   13  A    between atoms: C_37  and  C_49
   14  A    between atoms: O_45  and  C_49
   15  A    between atoms: O_45  and  C_50
   16  A    between atoms: C_52  and  C_55
                            x       y       z     vdW  Elec       q    Type
                         _______ _______ _______ _____ _____    ______ ____

>  <TORSDO>
F 16

$$$$
=
 OpenBabel11072409083D

 57 64  0  0  1  0  0  0  0  0999 V2000
  195.0320  171.7740  138.2830 C   0  0  0  0  0  2  0  0  0  0  0  0
  196.0670  174.1120  138.0440 C   0  0  0  0  0  2  0  0  0  0  0  0
  194.0390  169.4410  135.5930 N   0  0  0  0  0  0  0  0  0  0  0  0
  191.9100  171.5530  137.8970 C   0  0  0  0  0  2  0  0  0  0  0  0
  192.6530  173.9710  139.2300 N   0  0  0  0  0  2  0  0  0  0  0  0
  188.9180  173.6900  139.6830 C   0  0  1  0  0  3  0  0  0  0  0  0
  192.3860  171.0080  136.5560 C   0  0  2  0  0  3  0  0  0  0  0  0
  191.2520  173.8060  138.8530 C   0  0  2  0  0  3  0  0  0  0  0  0
  196.2660  172.6440  138.4530 C   0  0  1  0  0  3  0  0  0  0  0  0
  193.2670  174.8870  137.1730 O   0  0  0  0  0  0  0  0  0  0  0  0
  194.9960  174.9060  138.8100 C   0  0  1  0  0  3  0  0  0  0  0  0
  190.3880  173.4540  140.0510 C   0  0  0  0  0  2  0  0  0  0  0  0
  189.2740  172.2170  136.1910 O   0  0  0  0  0  1  0  0  0  0  0  0
  193.1370  168.6360  135.1480 C   0  0  0  0  0  3  0  0  0  0  0  0
  194.8880  171.3460  136.8340 C   0  0  0  0  0  2  0  0  0  0  0  0
  191.3090  170.0830  135.9430 C   0  0  0  0  0  2  0  0  0  0  0  0
  193.7650  170.3280  136.7070 C   0  0  2  0  0  3  0  0  0  0  0  0
  191.7730  168.6370  135.7660 C   0  0  0  0  0  2  0  0  0  0  0  0
  193.6000  174.5860  138.3500 C   0  0  0  0  0  0  0  0  0  0  0  0
  188.5350  173.2490  138.2560 C   0  0  2  0  0  3  0  0  0  0  0  0
  189.5840  172.3760  137.5400 C   0  0  2  0  0  3  0  0  0  0  0  0
  191.0520  172.8000  137.7060 C   0  0  2  0  0  3  0  0  0  0  0  0
  197.9240  173.1710  140.1110 O   0  0  0  0  0  0  0  0  0  0  0  0
  196.3380  171.5790  140.7350 N   0  0  0  0  0  2  0  0  0  0  0  0
  196.9100  172.4860  139.7960 C   0  0  0  0  0  0  0  0  0  0  0  0
  196.9110  171.3790  142.0580 C   0  0  0  0  0  2  0  0  0  0  0  0
  195.8030  171.1500  143.0670 C   0  0  0  0  0  2  0  0  0  0  0  0
  194.6170  170.7960  142.4060 O   0  0  0  0  0  0  0  0  0  0  0  0
  193.4250  170.5480  144.5590 C   0  0  0  0  0  2  0  0  0  0  0  0
  193.9270  171.9840  144.4510 C   0  0  2  0  0  3  0  0  0  0  0  0
  192.3130  171.8690  142.6150 C   0  0  0  0  0  2  0  0  0  0  0  0
  192.8390  172.9180  144.7220 N   0  0  0  0  0  2  0  0  0  0  0  0
  192.1230  173.1140  143.4620 C   0  0  0  0  0  2  0  0  0  0  0  0
  193.5390  171.2200  143.2090 C   0  0  1  0  0  0  0  0  0  0  0  0
  187.8620  174.6160  137.2310 S   0  0  0  0  0  0  0  0  0  0  0  0
  187.3210  175.6690  138.6100 C   0  0  0  0  0  1  0  0  0  0  0  0
  195.1640  174.8040  140.2030 O   0  0  0  0  0  0  0  0  0  0  0  0
  195.3710  176.1110  140.6760 C   0  0  0  0  0  2  0  0  0  0  0  0
  196.5280  176.7060  142.8850 C   0  0  0  0  0  3  0  0  0  0  0  0
  195.5010  176.1350  142.1680 C   0  0  0  0  0  0  0  0  0  0  0  0
  194.9480  176.0960  144.2230 N   0  0  0  0  0  0  0  0  0  0  0  0
  196.1490  176.6520  144.1770 N   0  0  0  0  0  2  0  0  0  0  0  0
  194.5200  175.7760  143.0130 N   0  0  0  0  0  0  0  0  0  0  0  0
  187.9630  173.1220  140.7260 C   0  0  0  0  0  2  0  0  0  0  0  0
  188.3450  173.5380  142.1430 C   0  0  0  0  0  2  0  0  0  0  0  0
  187.8860  174.9650  142.3820 C   0  0  0  0  0  2  0  0  0  0  0  0
  188.4860  175.4810  143.6770 C   0  0  0  0  0  2  0  0  0  0  0  0
  187.3390  177.6710  143.2560 C   0  0  0  0  0  2  0  0  0  0  0  0
  187.8810  177.9080  144.6570 C   0  0  2  0  0  3  0  0  0  0  0  0
  188.6370  177.0050  143.6710 C   0  0  1  0  0  0  0  0  0  0  0  0
  186.2220  178.3480  147.0220 C   0  0  0  0  0  1  0  0  0  0  0  0
  186.8170  177.1220  145.8780 S   0  0  0  0  0  0  0  0  0  0  0  0
  185.6530  176.3930  145.2660 O   0  0  0  0  0  0  0  0  0  0  0  0
  187.6430  176.1270  146.6470 O   0  0  0  0  0  0  0  0  0  0  0  0
  190.9820  177.9570  143.8790 C   0  0  0  0  0  2  0  0  0  0  0  0
  191.0420  176.7130  143.0260 C   0  0  0  0  0  2  0  0  0  0  0  0
  189.8300  177.6270  142.9340 C   0  0  0  0  0  3  0  0  0  0  0  0
  1  9  1  0  0  0  0
  2  9  1  0  0  0  0
  2 11  1  0  0  0  0
  3 17  1  0  0  0  0
  6 12  1  0  0  0  0
  6 44  1  1  0  0  0
  7 16  1  1  0  0  0
  7 17  1  0  0  0  0
  7  4  1  0  0  0  0
  8  5  1  0  0  0  0
  8 12  1  1  0  0  0
  9 25  1  1  0  0  0
 10 19  2  0  0  0  0
 11 37  1  1  0  0  0
 14  3  2  0  0  0  0
 14 18  1  0  0  0  0
 15  1  1  0  0  0  0
 17 15  1  6  0  0  0
 18 16  1  0  0  0  0
 19 11  1  0  0  0  0
 19  5  1  0  0  0  0
 20 35  1  6  0  0  0
 20  6  1  0  0  0  0
 21 13  1  6  0  0  0
 21 22  1  0  0  0  0
 21 20  1  0  0  0  0
 22  4  1  1  0  0  0
 22  8  1  0  0  0  0
 24 26  1  0  0  0  0
 25 23  2  0  0  0  0
 25 24  1  0  0  0  0
 26 27  1  0  0  0  0
 28 27  1  0  0  0  0
 30 29  1  1  0  0  0
 30 32  1  0  0  0  0
 31 34  1  0  0  0  0
 31 33  1  0  0  0  0
 33 32  1  0  0  0  0
 34 28  1  6  0  0  0
 34 30  1  0  0  0  0
 34 29  1  0  0  0  0
 35 36  1  0  0  0  0
 37 38  1  0  0  0  0
 38 40  1  0  0  0  0
 39 42  1  0  0  0  0
 40 39  2  0  0  0  0
 40 43  1  0  0  0  0
 42 41  1  0  0  0  0
 43 41  2  0  0  0  0
 44 45  1  0  0  0  0
 45 46  1  0  0  0  0
 46 47  1  0  0  0  0
 48 50  1  0  0  0  0
 48 49  1  0  0  0  0
 49 52  1  1  0  0  0
 50 47  1  1  0  0  0
 50 49  1  0  0  0  0
 52 54  2  0  0  0  0
 52 51  1  0  0  0  0
 53 52  2  0  0  0  0
 56 55  1  0  0  0  0
 57 56  1  0  0  0  0
 57 50  1  0  0  0  0
 57 55  1  0  0  0  0
M  END
>  <MODEL>
7

>  <REMARK>
 VINA RESULT:      -5.5      3.276      8.436
  Name = 
  16 active torsions:
  status: ('A' for Active; 'I' for Inactive)
    1  A    between atoms: C_4  and  C_7
    2  A    between atoms: C_4  and  C_54
    3  A    between atoms: S_6  and  C_47
    4  A    between atoms: C_7  and  C_18
    5  A    between atoms: S_8  and  C_31
    6  A    between atoms: C_16  and  C_51
    7  A    between atoms: C_17  and  C_52
    8  A    between atoms: C_17  and  C_54
    9  A    between atoms: N_22  and  C_37
   10  A    between atoms: C_23  and  C_32
   11  A    between atoms: O_25  and  C_27
   12  A    between atoms: O_25  and  C_51
   13  A    between atoms: C_37  and  C_49
   14  A    between atoms: O_45  and  C_49
   15  A    between atoms: O_45  and  C_50
   16  A    between atoms: C_52  and  C_55
                            x       y       z     vdW  Elec       q    Type
                         _______ _______ _______ _____ _____    ______ ____

>  <TORSDO>
F 16

$$$$
=
 OpenBabel11072409083D

 57 64  0  0  1  0  0  0  0  0999 V2000
  194.5190  171.5490  137.0350 C   0  0  0  0  0  2  0  0  0  0  0  0
  195.2930  169.2930  137.9860 C   0  0  0  0  0  2  0  0  0  0  0  0
  196.4310  173.9010  134.9190 N   0  0  0  0  0  0  0  0  0  0  0  0
  195.4610  174.1390  138.5670 C   0  0  0  0  0  2  0  0  0  0  0  0
  194.8770  171.9900  140.3600 N   0  0  0  0  0  2  0  0  0  0  0  0
  195.1570  175.0590  142.5380 C   0  0  1  0  0  3  0  0  0  0  0  0
  196.4130  174.1690  137.3780 C   0  0  2  0  0  3  0  0  0  0  0  0
  195.4650  173.2040  140.9220 C   0  0  2  0  0  3  0  0  0  0  0  0
  194.3890  170.0350  136.9900 C   0  0  1  0  0  3  0  0  0  0  0  0
  196.9430  171.0330  139.8460 O   0  0  0  0  0  0  0  0  0  0  0  0
  195.0770  169.5980  139.4790 C   0  0  1  0  0  3  0  0  0  0  0  0
  194.4300  174.0420  141.6490 C   0  0  0  0  0  2  0  0  0  0  0  0
  197.8070  175.8580  139.9250 O   0  0  0  0  0  1  0  0  0  0  0  0
  196.7650  175.1280  134.7070 C   0  0  0  0  0  3  0  0  0  0  0  0
  195.7410  171.9940  136.2510 C   0  0  0  0  0  2  0  0  0  0  0  0
  196.8990  175.6140  137.1180 C   0  0  0  0  0  2  0  0  0  0  0  0
  195.7580  173.5110  136.1430 C   0  0  2  0  0  3  0  0  0  0  0  0
  196.4860  176.1620  135.7520 C   0  0  0  0  0  2  0  0  0  0  0  0
  195.6900  170.9070  139.8950 C   0  0  0  0  0  0  0  0  0  0  0  0
  196.4050  175.6970  141.8950 C   0  0  2  0  0  3  0  0  0  0  0  0
  196.5520  175.4560  140.3800 C   0  0  2  0  0  3  0  0  0  0  0  0
  196.2300  174.0390  139.8800 C   0  0  2  0  0  3  0  0  0  0  0  0
  192.6770  168.3590  136.8120 O   0  0  0  0  0  0  0  0  0  0  0  0
  191.9400  170.5090  137.3360 N   0  0  0  0  0  2  0  0  0  0  0  0
  192.9660  169.5720  137.0220 C   0  0  0  0  0  0  0  0  0  0  0  0
  190.5370  170.1250  137.3870 C   0  0  0  0  0  2  0  0  0  0  0  0
  189.7280  171.2240  138.0480 C   0  0  0  0  0  2  0  0  0  0  0  0
  190.5610  172.3080  138.3640 O   0  0  0  0  0  0  0  0  0  0  0  0
  188.9060  174.0100  139.0600 C   0  0  0  0  0  2  0  0  0  0  0  0
  188.5150  172.6750  139.6880 C   0  0  2  0  0  3  0  0  0  0  0  0
  190.6600  173.1400  140.7720 C   0  0  0  0  0  2  0  0  0  0  0  0
  188.2930  172.8400  141.1200 N   0  0  0  0  0  2  0  0  0  0  0  0
  189.5970  172.7200  141.7710 C   0  0  0  0  0  2  0  0  0  0  0  0
  189.9680  173.0010  139.4380 C   0  0  1  0  0  0  0  0  0  0  0  0
  197.9410  175.4150  142.8600 S   0  0  0  0  0  0  0  0  0  0  0  0
  197.1960  174.3700  144.1470 C   0  0  0  0  0  1  0  0  0  0  0  0
  193.7270  169.4680  139.8500 O   0  0  0  0  0  0  0  0  0  0  0  0
  193.6970  168.5710  140.9320 C   0  0  0  0  0  2  0  0  0  0  0  0
  193.8330  169.1380  143.4280 C   0  0  0  0  0  3  0  0  0  0  0  0
  193.2450  169.2490  142.1880 C   0  0  0  0  0  0  0  0  0  0  0  0
  192.3230  170.6800  143.4660 N   0  0  0  0  0  0  0  0  0  0  0  0
  193.2170  170.0460  144.2090 N   0  0  0  0  0  2  0  0  0  0  0  0
  192.3200  170.2230  142.2240 N   0  0  0  0  0  0  0  0  0  0  0  0
  194.2120  176.1110  143.1050 C   0  0  0  0  0  2  0  0  0  0  0  0
  192.8560  176.1040  142.4050 C   0  0  0  0  0  2  0  0  0  0  0  0
  191.8510  176.8480  143.2630 C   0  0  0  0  0  2  0  0  0  0  0  0
  190.5610  176.0510  143.3400 C   0  0  0  0  0  2  0  0  0  0  0  0
  189.7260  177.9150  144.7950 C   0  0  0  0  0  2  0  0  0  0  0  0
  188.4190  177.1990  144.4870 C   0  0  2  0  0  3  0  0  0  0  0  0
  189.7370  176.4140  144.5790 C   0  0  1  0  0  0  0  0  0  0  0  0
  187.4020  176.1980  141.9380 C   0  0  0  0  0  1  0  0  0  0  0  0
  187.8240  177.6640  142.8520 S   0  0  0  0  0  0  0  0  0  0  0  0
  186.6420  178.5930  142.8950 O   0  0  0  0  0  0  0  0  0  0  0  0
  188.9440  178.3620  142.1290 O   0  0  0  0  0  0  0  0  0  0  0  0
  189.6620  174.1920  145.8060 C   0  0  0  0  0  2  0  0  0  0  0  0
  191.1020  174.6310  145.6940 C   0  0  0  0  0  2  0  0  0  0  0  0
  190.0140  175.6740  145.8940 C   0  0  0  0  0  3  0  0  0  0  0  0
  2 11  1  0  0  0  0
  3 17  1  0  0  0  0
  5  8  1  0  0  0  0
  6 44  1  6  0  0  0
  7 16  1  6  0  0  0
  7  4  1  0  0  0  0
  8 12  1  6  0  0  0
  9 25  1  1  0  0  0
  9  1  1  0  0  0  0
  9  2  1  0  0  0  0
 10 19  2  0  0  0  0
 11 37  1  6  0  0  0
 11 19  1  0  0  0  0
 12  6  1  0  0  0  0
 14  3  2  0  0  0  0
 14 18  1  0  0  0  0
 15  1  1  0  0  0  0
 17 15  1  1  0  0  0
 17  7  1  0  0  0  0
 18 16  1  0  0  0  0
 19  5  1  0  0  0  0
 20  6  1  0  0  0  0
 20 35  1  1  0  0  0
 21 13  1  1  0  0  0
 21 20  1  0  0  0  0
 22  4  1  6  0  0  0
 22 21  1  0  0  0  0
 22  8  1  0  0  0  0
 23 25  2  0  0  0  0
 24 26  1  0  0  0  0
 25 24  1  0  0  0  0
 26 27  1  0  0  0  0
 27 28  1  0  0  0  0
 29 34  1  0  0  0  0
 30 29  1  6  0  0  0
 30 32  1  0  0  0  0
 31 33  1  0  0  0  0
 32 33  1  0  0  0  0
 34 28  1  6  0  0  0
 34 30  1  0  0  0  0
 34 31  1  0  0  0  0
 35 36  1  0  0  0  0
 37 38  1  0  0  0  0
 38 40  1  0  0  0  0
 39 42  1  0  0  0  0
 40 43  1  0  0  0  0
 40 39  2  0  0  0  0
 41 42  1  0  0  0  0
 43 41  2  0  0  0  0
 45 44  1  0  0  0  0
 45 46  1  0  0  0  0
 46 47  1  0  0  0  0
 49 52  1  6  0  0  0
 49 50  1  0  0  0  0
 49 48  1  0  0  0  0
 50 47  1  6  0  0  0
 50 48  1  0  0  0  0
 50 57  1  0  0  0  0
 51 52  1  0  0  0  0
 52 53  2  0  0  0  0
 54 52  2  0  0  0  0
 55 57  1  0  0  0  0
 56 55  1  0  0  0  0
 56 57  1  0  0  0  0
M  END
>  <MODEL>
8

>  <REMARK>
 VINA RESULT:      -5.4      3.165      7.599
  Name = 
  16 active torsions:
  status: ('A' for Active; 'I' for Inactive)
    1  A    between atoms: C_4  and  C_7
    2  A    between atoms: C_4  and  C_54
    3  A    between atoms: S_6  and  C_47
    4  A    between atoms: C_7  and  C_18
    5  A    between atoms: S_8  and  C_31
    6  A    between atoms: C_16  and  C_51
    7  A    between atoms: C_17  and  C_52
    8  A    between atoms: C_17  and  C_54
    9  A    between atoms: N_22  and  C_37
   10  A    between atoms: C_23  and  C_32
   11  A    between atoms: O_25  and  C_27
   12  A    between atoms: O_25  and  C_51
   13  A    between atoms: C_37  and  C_49
   14  A    between atoms: O_45  and  C_49
   15  A    between atoms: O_45  and  C_50
   16  A    between atoms: C_52  and  C_55
                            x       y       z     vdW  Elec       q    Type
                         _______ _______ _______ _____ _____    ______ ____

>  <TORSDO>
F 16

$$$$
=
 OpenBabel11072409083D

 57 64  0  0  1  0  0  0  0  0999 V2000
  194.9690  175.3540  139.5950 C   0  0  0  0  0  2  0  0  0  0  0  0
  195.3520  173.2040  138.2450 C   0  0  0  0  0  2  0  0  0  0  0  0
  196.5340  176.3390  142.7960 N   0  0  0  0  0  0  0  0  0  0  0  0
  193.0170  175.1570  142.0640 C   0  0  0  0  0  2  0  0  0  0  0  0
  192.1410  173.5360  139.8770 N   0  0  0  0  0  2  0  0  0  0  0  0
  189.2100  173.6800  142.2500 C   0  0  1  0  0  3  0  0  0  0  0  0
  194.3600  175.1600  142.7830 C   0  0  2  0  0  3  0  0  0  0  0  0
  191.4130  173.4270  141.1390 C   0  0  2  0  0  3  0  0  0  0  0  0
  195.5550  174.7240  138.3420 C   0  0  1  0  0  3  0  0  0  0  0  0
  193.7270  171.9280  140.4670 O   0  0  0  0  0  0  0  0  0  0  0  0
  193.8990  172.6980  138.2200 C   0  0  1  0  0  3  0  0  0  0  0  0
  190.0840  174.1570  141.0820 C   0  0  0  0  0  2  0  0  0  0  0  0
  192.0830  173.6640  144.7470 O   0  0  0  0  0  1  0  0  0  0  0  0
  196.3540  176.8270  143.9750 C   0  0  0  0  0  3  0  0  0  0  0  0
  195.9100  175.1580  140.7700 C   0  0  0  0  0  2  0  0  0  0  0  0
  194.1910  175.6770  144.2300 C   0  0  0  0  0  2  0  0  0  0  0  0
  195.4090  175.9490  141.9680 C   0  0  2  0  0  3  0  0  0  0  0  0
  194.9650  176.9650  144.5150 C   0  0  0  0  0  2  0  0  0  0  0  0
  193.2640  172.6980  139.5840 C   0  0  0  0  0  0  0  0  0  0  0  0
  189.9670  173.4840  143.5790 C   0  0  2  0  0  3  0  0  0  0  0  0
  191.3880  174.0800  143.6130 C   0  0  2  0  0  3  0  0  0  0  0  0
  192.2450  173.8750  142.3540 C   0  0  2  0  0  3  0  0  0  0  0  0
  195.9660  175.5010  136.1060 O   0  0  0  0  0  0  0  0  0  0  0  0
  193.8890  176.0610  137.0070 N   0  0  0  0  0  2  0  0  0  0  0  0
  195.1750  175.4540  137.0910 C   0  0  0  0  0  0  0  0  0  0  0  0
  193.4550  176.7830  135.8200 C   0  0  0  0  0  2  0  0  0  0  0  0
  192.2570  176.0870  135.2060 C   0  0  0  0  0  2  0  0  0  0  0  0
  191.2540  177.0250  134.9170 O   0  0  0  0  0  0  0  0  0  0  0  0
  190.1480  174.8490  134.5130 C   0  0  0  0  0  2  0  0  0  0  0  0
  189.7800  175.3210  135.9160 C   0  0  2  0  0  3  0  0  0  0  0  0
  188.7360  177.0330  134.5130 C   0  0  0  0  0  2  0  0  0  0  0  0
  188.3350  175.2640  136.1020 N   0  0  0  0  0  2  0  0  0  0  0  0
  187.7880  176.5160  135.5800 C   0  0  0  0  0  2  0  0  0  0  0  0
  190.0340  176.3260  134.8190 C   0  0  1  0  0  0  0  0  0  0  0  0
  189.8480  171.7740  144.2360 S   0  0  0  0  0  0  0  0  0  0  0  0
  190.5150  170.9350  142.7690 C   0  0  0  0  0  1  0  0  0  0  0  0
  193.1310  173.3590  137.2450 O   0  0  0  0  0  0  0  0  0  0  0  0
  193.0310  172.4780  136.1530 C   0  0  0  0  0  2  0  0  0  0  0  0
  190.6400  171.7820  136.7610 C   0  0  0  0  0  3  0  0  0  0  0  0
  191.9220  171.4920  136.3510 C   0  0  0  0  0  0  0  0  0  0  0  0
  190.7650  169.7180  136.1420 N   0  0  0  0  0  0  0  0  0  0  0  0
  189.9430  170.6370  136.6280 N   0  0  0  0  0  2  0  0  0  0  0  0
  191.9790  170.2090  135.9550 N   0  0  0  0  0  0  0  0  0  0  0  0
  187.9640  174.5380  142.4290 C   0  0  0  0  0  2  0  0  0  0  0  0
  188.1840  175.9740  141.9610 C   0  0  0  0  0  2  0  0  0  0  0  0
  188.6710  176.8070  143.1320 C   0  0  0  0  0  2  0  0  0  0  0  0
  188.1220  176.2340  144.4260 C   0  0  0  0  0  2  0  0  0  0  0  0
  187.3540  176.7310  146.7610 C   0  0  0  0  0  2  0  0  0  0  0  0
  188.5820  177.6250  146.6780 C   0  0  2  0  0  3  0  0  0  0  0  0
  187.7440  177.3320  145.4240 C   0  0  1  0  0  0  0  0  0  0  0  0
  189.6390  174.9530  147.2070 C   0  0  0  0  0  1  0  0  0  0  0  0
  190.0770  176.6570  146.9410 S   0  0  0  0  0  0  0  0  0  0  0  0
  191.0540  176.7570  145.8020 O   0  0  0  0  0  0  0  0  0  0  0  0
  190.7520  177.1670  148.1850 O   0  0  0  0  0  0  0  0  0  0  0  0
  185.4770  177.8060  144.3820 C   0  0  0  0  0  2  0  0  0  0  0  0
  185.4610  178.2930  145.8110 C   0  0  0  0  0  2  0  0  0  0  0  0
  186.7380  178.4070  144.9940 C   0  0  0  0  0  3  0  0  0  0  0  0
  1 15  1  0  0  0  0
  2  9  1  0  0  0  0
  3 14  2  0  0  0  0
  5  8  1  0  0  0  0
  6 44  1  1  0  0  0
  6 20  1  0  0  0  0
  7  4  1  6  0  0  0
  7 16  1  0  0  0  0
  8 12  1  6  0  0  0
  8 22  1  0  0  0  0
  9 25  1  6  0  0  0
  9  1  1  0  0  0  0
 11 37  1  6  0  0  0
 11  2  1  0  0  0  0
 11 19  1  0  0  0  0
 12  6  1  0  0  0  0
 14 18  1  0  0  0  0
 16 18  1  0  0  0  0
 17 15  1  6  0  0  0
 17  7  1  0  0  0  0
 17  3  1  0  0  0  0
 19  5  1  0  0  0  0
 19 10  2  0  0  0  0
 20 21  1  0  0  0  0
 20 35  1  6  0  0  0
 21 13  1  1  0  0  0
 22  4  1  6  0  0  0
 22 21  1  0  0  0  0
 23 25  2  0  0  0  0
 24 25  1  0  0  0  0
 26 24  1  0  0  0  0
 27 26  1  0  0  0  0
 28 27  1  0  0  0  0
 29 34  1  0  0  0  0
 30 29  1  6  0  0  0
 30 32  1  0  0  0  0
 31 34  1  0  0  0  0
 31 33  1  0  0  0  0
 33 32  1  0  0  0  0
 34 28  1  1  0  0  0
 34 30  1  0  0  0  0
 36 35  1  0  0  0  0
 38 40  1  0  0  0  0
 38 37  1  0  0  0  0
 40 39  2  0  0  0  0
 41 42  1  0  0  0  0
 42 39  1  0  0  0  0
 43 41  2  0  0  0  0
 43 40  1  0  0  0  0
 45 44  1  0  0  0  0
 45 46  1  0  0  0  0
 46 47  1  0  0  0  0
 49 48  1  0  0  0  0
 49 52  1  6  0  0  0
 50 47  1  6  0  0  0
 50 49  1  0  0  0  0
 50 48  1  0  0  0  0
 52 51  1  0  0  0  0
 52 54  2  0  0  0  0
 53 52  2  0  0  0  0
 55 57  1  0  0  0  0
 55 56  1  0  0  0  0
 57 50  1  0  0  0  0
 57 56  1  0  0  0  0
M  END
>  <MODEL>
9

>  <REMARK>
 VINA RESULT:      -5.3      3.363      9.494
  Name = 
  16 active torsions:
  status: ('A' for Active; 'I' for Inactive)
    1  A    between atoms: C_4  and  C_7
    2  A    between atoms: C_4  and  C_54
    3  A    between atoms: S_6  and  C_47
    4  A    between atoms: C_7  and  C_18
    5  A    between atoms: S_8  and  C_31
    6  A    between atoms: C_16  and  C_51
    7  A    between atoms: C_17  and  C_52
    8  A    between atoms: C_17  and  C_54
    9  A    between atoms: N_22  and  C_37
   10  A    between atoms: C_23  and  C_32
   11  A    between atoms: O_25  and  C_27
   12  A    between atoms: O_25  and  C_51
   13  A    between atoms: C_37  and  C_49
   14  A    between atoms: O_45  and  C_49
   15  A    between atoms: O_45  and  C_50
   16  A    between atoms: C_52  and  C_55
                            x       y       z     vdW  Elec       q    Type
                         _______ _______ _______ _____ _____    ______ ____

>  <TORSDO>
F 16

$$$$
