=
 OpenBabel11062421433D

 41 46  0  0  1  0  0  0  0  0999 V2000
  191.0540  173.6040  142.6550 C   0  0  1  0  0  3  0  0  0  0  0  0
  190.5060  175.9140  142.2640 O   0  0  0  0  0  1  0  0  0  0  0  0
  190.3990  172.5500  140.5200 N   0  0  0  0  0  0  0  0  0  0  0  0
  190.9730  172.4220  141.6820 C   0  0  0  0  0  0  0  0  0  0  0  0
  191.5730  171.1730  142.0350 N   0  0  0  0  0  2  0  0  0  0  0  0
  187.8180  175.1390  139.4540 C   0  0  0  0  0  0  0  0  0  0  0  0
  187.0140  176.0320  138.7470 C   0  0  0  0  0  3  0  0  0  0  0  0
  188.6640  173.7340  138.7310 S   0  0  0  0  0  0  0  0  0  0  0  0
  186.6300  177.2630  140.8140 C   0  0  0  0  0  0  0  0  0  0  0  0
  189.9250  174.6650  142.4960 C   0  0  1  0  0  3  0  0  0  0  0  0
  191.8380  170.8260  143.4270 C   0  0  0  0  0  2  0  0  0  0  0  0
  189.7830  173.8210  140.1700 C   0  0  1  0  0  3  0  0  0  0  0  0
  188.9670  174.2930  141.3590 C   0  0  2  0  0  3  0  0  0  0  0  0
  186.4170  177.0990  139.4330 C   0  0  0  0  0  3  0  0  0  0  0  0
  192.2880  172.0510  144.2120 C   0  0  0  0  0  2  0  0  0  0  0  0
  191.2260  173.1460  144.1110 C   0  0  1  0  0  3  0  0  0  0  0  0
  188.0650  175.3280  140.8040 C   0  0  0  0  0  0  0  0  0  0  0  0
  187.4620  176.3730  141.5090 C   0  0  0  0  0  3  0  0  0  0  0  0
  191.2570  176.4920  147.8820 C   0  0  0  0  0  1  0  0  0  0  0  0
  189.7450  174.0290  146.8030 C   0  0  0  0  0  1  0  0  0  0  0  0
  192.5770  175.9900  145.8050 C   0  0  0  0  0  0  0  0  0  0  0  0
  191.5860  174.2870  145.0160 C   0  0  0  0  0  0  0  0  0  0  0  0
  190.9410  174.6720  146.1820 C   0  0  0  0  0  0  0  0  0  0  0  0
  193.3960  176.9390  145.9350 O   0  0  0  0  0  0  0  0  0  0  0  0
  192.6190  175.1220  144.7720 N   0  0  0  0  0  2  0  0  0  0  0  0
  191.5780  175.7470  146.6740 N   0  0  0  0  0  0  0  0  0  0  0  0
  186.0030  178.4120  141.5290 C   0  0  0  0  0  2  0  0  0  0  0  0
  186.6790  178.6520  142.8700 C   0  0  0  0  0  2  0  0  0  0  0  0
  186.3540  178.8470  145.1910 C   0  0  2  0  0  3  0  0  0  0  0  0
  185.1260  179.3890  144.5980 C   0  0  0  0  0  0  0  0  0  0  0  0
  185.8000  178.2330  143.9580 N   0  0  0  0  0  0  0  0  0  0  0  0
  185.2130  180.5960  143.8950 O   0  0  0  0  0  1  0  0  0  0  0  0
  183.8780  179.0590  145.1310 O   0  0  0  0  0  1  0  0  0  0  0  0
  185.1530  176.8200  146.2500 C   0  0  0  0  0  1  0  0  0  0  0  0
  186.2010  177.9220  146.4340 C   0  0  0  0  0  0  0  0  0  0  0  0
  185.7890  178.7680  147.6360 C   0  0  0  0  0  1  0  0  0  0  0  0
  187.5600  177.2360  146.7110 C   0  0  2  0  0  3  0  0  0  0  0  0
  188.3470  177.9920  147.5900 O   0  0  0  0  0  1  0  0  0  0  0  0
  188.3460  176.9100  145.4730 C   0  0  0  0  0  0  0  0  0  0  0  0
  188.0630  175.8950  144.7820 O   0  0  0  0  0  0  0  0  0  0  0  0
  189.4420  177.7370  145.0960 N   0  0  0  0  0  1  0  0  0  0  0  0
  1  4  1  6  0  0  0
  1 16  1  0  0  0  0
  3  4  2  0  0  0  0
  4  5  1  0  0  0  0
  5 11  1  0  0  0  0
  6 17  1  0  0  0  0
  7 14  1  0  0  0  0
  7  6  2  0  0  0  0
  8  6  1  0  0  0  0
  9 18  1  0  0  0  0
  9 27  1  0  0  0  0
 10  2  1  6  0  0  0
 10  1  1  0  0  0  0
 11 15  1  0  0  0  0
 12  8  1  6  0  0  0
 12  3  1  0  0  0  0
 12 13  1  0  0  0  0
 13 17  1  6  0  0  0
 13 10  1  0  0  0  0
 14  9  2  0  0  0  0
 16 15  1  0  0  0  0
 16 22  1  1  0  0  0
 17 18  2  0  0  0  0
 21 24  2  0  0  0  0
 21 26  1  0  0  0  0
 22 23  2  0  0  0  0
 23 26  1  0  0  0  0
 23 20  1  0  0  0  0
 25 22  1  0  0  0  0
 25 21  1  0  0  0  0
 26 19  1  0  0  0  0
 27 28  1  0  0  0  0
 28 31  1  0  0  0  0
 29 35  1  1  0  0  0
 30 33  1  0  0  0  0
 30 29  1  0  0  0  0
 31 30  1  0  0  0  0
 31 29  1  0  0  0  0
 32 30  1  0  0  0  0
 34 35  1  0  0  0  0
 35 37  1  0  0  0  0
 35 36  1  0  0  0  0
 37 38  1  1  0  0  0
 39 37  1  0  0  0  0
 40 39  2  0  0  0  0
 41 39  1  0  0  0  0
M  END
>  <MODEL>
1

>  <REMARK>
 VINA RESULT:      -7.7      0.000      0.000
  Name = 
  7 active torsions:
  status: ('A' for Active; 'I' for Inactive)
    1  A    between atoms: C_4  and  C_21
    2  A    between atoms: C_8  and  C_39
    3  A    between atoms: C_12  and  C_16
    4  A    between atoms: C_13  and  N_24
    5  A    between atoms: C_13  and  C_36
    6  A    between atoms: C_16  and  C_21
    7  A    between atoms: C_25  and  C_36
                            x       y       z     vdW  Elec       q    Type
                         _______ _______ _______ _____ _____    ______ ____

>  <TORSDO>
F 7

$$$$
=
 OpenBabel11062421433D

 41 46  0  0  1  0  0  0  0  0999 V2000
  189.1540  174.5270  140.3420 C   0  0  1  0  0  3  0  0  0  0  0  0
  189.9380  175.8310  142.2070 O   0  0  0  0  0  1  0  0  0  0  0  0
  187.2990  175.9140  139.4870 N   0  0  0  0  0  0  0  0  0  0  0  0
  188.0660  174.8740  139.3210 C   0  0  0  0  0  0  0  0  0  0  0  0
  187.9160  174.0720  138.1460 N   0  0  0  0  0  2  0  0  0  0  0  0
  186.5050  177.7450  142.7300 C   0  0  0  0  0  0  0  0  0  0  0  0
  186.1730  178.6890  143.7010 C   0  0  0  0  0  3  0  0  0  0  0  0
  186.0590  177.8610  140.9980 S   0  0  0  0  0  0  0  0  0  0  0  0
  187.3410  177.3390  145.3590 C   0  0  0  0  0  0  0  0  0  0  0  0
  188.8770  175.0220  141.7920 C   0  0  1  0  0  3  0  0  0  0  0  0
  188.4130  172.7020  138.0960 C   0  0  0  0  0  2  0  0  0  0  0  0
  187.4500  176.7210  140.6880 C   0  0  1  0  0  3  0  0  0  0  0  0
  187.5490  175.7830  141.8770 C   0  0  2  0  0  3  0  0  0  0  0  0
  186.5940  178.4820  145.0220 C   0  0  0  0  0  3  0  0  0  0  0  0
  189.7300  172.5770  138.8500 C   0  0  0  0  0  2  0  0  0  0  0  0
  189.5420  173.0420  140.2940 C   0  0  1  0  0  3  0  0  0  0  0  0
  187.2810  176.6440  143.0520 C   0  0  0  0  0  0  0  0  0  0  0  0
  187.6920  176.4100  144.3670 C   0  0  0  0  0  3  0  0  0  0  0  0
  192.7480  171.5750  143.8990 C   0  0  0  0  0  1  0  0  0  0  0  0
  189.7530  171.6430  143.1620 C   0  0  0  0  0  1  0  0  0  0  0  0
  192.8320  172.6960  141.6520 C   0  0  0  0  0  0  0  0  0  0  0  0
  190.7880  172.7640  141.0830 C   0  0  0  0  0  0  0  0  0  0  0  0
  190.8780  172.1610  142.3290 C   0  0  0  0  0  0  0  0  0  0  0  0
  194.0830  172.8440  141.6240 O   0  0  0  0  0  0  0  0  0  0  0  0
  192.0210  173.1080  140.6540 N   0  0  0  0  0  2  0  0  0  0  0  0
  192.1750  172.1190  142.6770 N   0  0  0  0  0  0  0  0  0  0  0  0
  187.7980  177.1390  146.7640 C   0  0  0  0  0  2  0  0  0  0  0  0
  189.2680  177.4990  146.9140 C   0  0  0  0  0  2  0  0  0  0  0  0
  191.4450  176.6980  146.5260 C   0  0  2  0  0  3  0  0  0  0  0  0
  191.1810  176.3840  147.9350 C   0  0  0  0  0  0  0  0  0  0  0  0
  190.0810  176.2870  146.9440 N   0  0  0  0  0  0  0  0  0  0  0  0
  191.0790  177.4490  148.8380 O   0  0  0  0  0  1  0  0  0  0  0  0
  191.5430  175.1430  148.4620 O   0  0  0  0  0  1  0  0  0  0  0  0
  191.1890  174.6190  145.0150 C   0  0  0  0  0  1  0  0  0  0  0  0
  192.1560  175.6090  145.6700 C   0  0  0  0  0  0  0  0  0  0  0  0
  193.1070  174.8170  146.5650 C   0  0  0  0  0  1  0  0  0  0  0  0
  192.9520  176.3060  144.5410 C   0  0  2  0  0  3  0  0  0  0  0  0
  192.8730  175.5910  143.3400 O   0  0  0  0  0  1  0  0  0  0  0  0
  194.3900  176.5760  144.8820 C   0  0  0  0  0  0  0  0  0  0  0  0
  195.3040  175.8230  144.4510 O   0  0  0  0  0  0  0  0  0  0  0  0
  194.7200  177.6720  145.7280 N   0  0  0  0  0  1  0  0  0  0  0  0
  1  4  1  6  0  0  0
  1 10  1  0  0  0  0
  4  3  2  0  0  0  0
  5  4  1  0  0  0  0
  6 17  2  0  0  0  0
  6  7  1  0  0  0  0
  7 14  2  0  0  0  0
  8  6  1  0  0  0  0
  9 27  1  0  0  0  0
 10 13  1  0  0  0  0
 10  2  1  6  0  0  0
 11  5  1  0  0  0  0
 11 15  1  0  0  0  0
 12  3  1  6  0  0  0
 12  8  1  0  0  0  0
 12 13  1  0  0  0  0
 13 17  1  1  0  0  0
 14  9  1  0  0  0  0
 15 16  1  0  0  0  0
 16  1  1  0  0  0  0
 16 22  1  1  0  0  0
 17 18  1  0  0  0  0
 18  9  2  0  0  0  0
 21 26  1  0  0  0  0
 22 23  2  0  0  0  0
 23 26  1  0  0  0  0
 23 20  1  0  0  0  0
 24 21  2  0  0  0  0
 25 22  1  0  0  0  0
 25 21  1  0  0  0  0
 26 19  1  0  0  0  0
 27 28  1  0  0  0  0
 28 31  1  0  0  0  0
 29 35  1  6  0  0  0
 29 31  1  0  0  0  0
 29 30  1  0  0  0  0
 30 33  1  0  0  0  0
 30 32  1  0  0  0  0
 31 30  1  0  0  0  0
 34 35  1  0  0  0  0
 35 36  1  0  0  0  0
 37 38  1  6  0  0  0
 37 39  1  0  0  0  0
 37 35  1  0  0  0  0
 39 41  1  0  0  0  0
 40 39  2  0  0  0  0
M  END
>  <MODEL>
2

>  <REMARK>
 VINA RESULT:      -7.6      2.529      5.531
  Name = 
  7 active torsions:
  status: ('A' for Active; 'I' for Inactive)
    1  A    between atoms: C_4  and  C_21
    2  A    between atoms: C_8  and  C_39
    3  A    between atoms: C_12  and  C_16
    4  A    between atoms: C_13  and  N_24
    5  A    between atoms: C_13  and  C_36
    6  A    between atoms: C_16  and  C_21
    7  A    between atoms: C_25  and  C_36
                            x       y       z     vdW  Elec       q    Type
                         _______ _______ _______ _____ _____    ______ ____

>  <TORSDO>
F 7

$$$$
=
 OpenBabel11062421433D

 41 46  0  0  1  0  0  0  0  0999 V2000
  194.6550  174.5000  141.9000 C   0  0  1  0  0  3  0  0  0  0  0  0
  192.5970  175.7460  141.9340 O   0  0  0  0  0  1  0  0  0  0  0  0
  194.5700  173.4230  139.6800 N   0  0  0  0  0  0  0  0  0  0  0  0
  195.2570  173.6740  140.7580 C   0  0  0  0  0  0  0  0  0  0  0  0
  196.6060  173.2080  140.8550 N   0  0  0  0  0  2  0  0  0  0  0  0
  190.7870  173.4540  139.2530 C   0  0  0  0  0  0  0  0  0  0  0  0
  189.4830  173.5460  138.7650 C   0  0  0  0  0  3  0  0  0  0  0  0
  192.2310  173.1180  138.2480 S   0  0  0  0  0  0  0  0  0  0  0  0
  188.7100  174.0100  141.0290 C   0  0  0  0  0  0  0  0  0  0  0  0
  193.1030  174.4450  142.0040 C   0  0  1  0  0  3  0  0  0  0  0  0
  197.2690  173.0720  142.1470 C   0  0  0  0  0  2  0  0  0  0  0  0
  193.1950  173.8910  139.5900 C   0  0  1  0  0  3  0  0  0  0  0  0
  192.5010  173.5690  140.9000 C   0  0  2  0  0  3  0  0  0  0  0  0
  188.4410  173.8260  139.6600 C   0  0  0  0  0  3  0  0  0  0  0  0
  196.8630  174.2030  143.0830 C   0  0  0  0  0  2  0  0  0  0  0  0
  195.3430  174.2170  143.2440 C   0  0  1  0  0  3  0  0  0  0  0  0
  191.0570  173.6820  140.5920 C   0  0  0  0  0  0  0  0  0  0  0  0
  190.0290  173.9400  141.5020 C   0  0  0  0  0  3  0  0  0  0  0  0
  193.1860  176.4620  147.2100 C   0  0  0  0  0  1  0  0  0  0  0  0
  193.2920  173.7960  145.6600 C   0  0  0  0  0  1  0  0  0  0  0  0
  194.8280  177.0270  145.3950 C   0  0  0  0  0  0  0  0  0  0  0  0
  194.9530  175.2170  144.2920 C   0  0  0  0  0  0  0  0  0  0  0  0
  194.0600  175.0350  145.3380 C   0  0  0  0  0  0  0  0  0  0  0  0
  195.0240  178.2170  145.7580 O   0  0  0  0  0  0  0  0  0  0  0  0
  195.4370  176.4770  144.3220 N   0  0  0  0  0  2  0  0  0  0  0  0
  193.9920  176.1830  146.0310 N   0  0  0  0  0  0  0  0  0  0  0  0
  187.5940  174.3240  141.9670 C   0  0  0  0  0  2  0  0  0  0  0  0
  187.8630  175.6200  142.7160 C   0  0  0  0  0  2  0  0  0  0  0  0
  186.9530  177.6260  143.5410 C   0  0  2  0  0  3  0  0  0  0  0  0
  187.1730  177.8780  142.1120 C   0  0  0  0  0  0  0  0  0  0  0  0
  186.7350  176.5330  142.5590 N   0  0  0  0  0  0  0  0  0  0  0  0
  188.4930  177.9560  141.6530 O   0  0  0  0  0  1  0  0  0  0  0  0
  186.2020  178.5370  141.3530 O   0  0  0  0  0  1  0  0  0  0  0  0
  184.4060  177.9410  143.2510 C   0  0  0  0  0  1  0  0  0  0  0  0
  185.6210  178.1380  144.1620 C   0  0  0  0  0  0  0  0  0  0  0  0
  185.7520  179.6320  144.4560 C   0  0  0  0  0  1  0  0  0  0  0  0
  185.3560  177.3640  145.4750 C   0  0  2  0  0  3  0  0  0  0  0  0
  184.2990  177.9280  146.2000 O   0  0  0  0  0  1  0  0  0  0  0  0
  186.5640  177.2220  146.3570 C   0  0  0  0  0  0  0  0  0  0  0  0
  187.3730  176.2710  146.1900 O   0  0  0  0  0  0  0  0  0  0  0  0
  186.7770  178.1520  147.4140 N   0  0  0  0  0  1  0  0  0  0  0  0
  1  4  1  6  0  0  0
  1 10  1  0  0  0  0
  1 16  1  0  0  0  0
  3  4  2  0  0  0  0
  4  5  1  0  0  0  0
  5 11  1  0  0  0  0
  6 17  1  0  0  0  0
  7  6  2  0  0  0  0
  7 14  1  0  0  0  0
  8  6  1  0  0  0  0
  9 18  1  0  0  0  0
  9 27  1  0  0  0  0
 10  2  1  6  0  0  0
 11 15  1  0  0  0  0
 12  8  1  6  0  0  0
 12  3  1  0  0  0  0
 12 13  1  0  0  0  0
 13 17  1  6  0  0  0
 13 10  1  0  0  0  0
 14  9  2  0  0  0  0
 15 16  1  0  0  0  0
 16 22  1  1  0  0  0
 17 18  2  0  0  0  0
 21 24  2  0  0  0  0
 21 26  1  0  0  0  0
 22 25  1  0  0  0  0
 22 23  2  0  0  0  0
 23 20  1  0  0  0  0
 23 26  1  0  0  0  0
 25 21  1  0  0  0  0
 26 19  1  0  0  0  0
 27 28  1  0  0  0  0
 29 35  1  6  0  0  0
 30 31  1  0  0  0  0
 30 29  1  0  0  0  0
 31 28  1  0  0  0  0
 31 29  1  0  0  0  0
 32 30  1  0  0  0  0
 33 30  1  0  0  0  0
 34 35  1  0  0  0  0
 35 36  1  0  0  0  0
 35 37  1  0  0  0  0
 37 38  1  1  0  0  0
 37 39  1  0  0  0  0
 39 41  1  0  0  0  0
 40 39  2  0  0  0  0
M  END
>  <MODEL>
3

>  <REMARK>
 VINA RESULT:      -7.6      2.741      3.607
  Name = 
  7 active torsions:
  status: ('A' for Active; 'I' for Inactive)
    1  A    between atoms: C_4  and  C_21
    2  A    between atoms: C_8  and  C_39
    3  A    between atoms: C_12  and  C_16
    4  A    between atoms: C_13  and  N_24
    5  A    between atoms: C_13  and  C_36
    6  A    between atoms: C_16  and  C_21
    7  A    between atoms: C_25  and  C_36
                            x       y       z     vdW  Elec       q    Type
                         _______ _______ _______ _____ _____    ______ ____

>  <TORSDO>
F 7

$$$$
=
 OpenBabel11062421433D

 41 46  0  0  1  0  0  0  0  0999 V2000
  193.6960  173.8820  141.0410 C   0  0  1  0  0  3  0  0  0  0  0  0
  192.2890  172.9030  142.7300 O   0  0  0  0  0  1  0  0  0  0  0  0
  195.4310  174.9980  142.3980 N   0  0  0  0  0  0  0  0  0  0  0  0
  195.0140  174.6450  141.2150 C   0  0  0  0  0  0  0  0  0  0  0  0
  195.8200  174.9360  140.0700 N   0  0  0  0  0  2  0  0  0  0  0  0
  193.3740  175.4480  145.5700 C   0  0  0  0  0  0  0  0  0  0  0  0
  192.9230  175.5280  146.8870 C   0  0  0  0  0  3  0  0  0  0  0  0
  195.0840  175.6170  145.0640 S   0  0  0  0  0  0  0  0  0  0  0  0
  190.6540  175.1270  146.0950 C   0  0  0  0  0  0  0  0  0  0  0  0
  192.6400  174.1290  142.1580 C   0  0  1  0  0  3  0  0  0  0  0  0
  195.2480  174.9660  138.7290 C   0  0  0  0  0  2  0  0  0  0  0  0
  194.6020  174.7060  143.5580 C   0  0  1  0  0  3  0  0  0  0  0  0
  193.1730  175.0910  143.2250 C   0  0  2  0  0  3  0  0  0  0  0  0
  191.5550  175.3660  147.1490 C   0  0  0  0  0  3  0  0  0  0  0  0
  194.1920  173.8810  138.5680 C   0  0  0  0  0  2  0  0  0  0  0  0
  193.1090  174.0550  139.6320 C   0  0  1  0  0  3  0  0  0  0  0  0
  192.4930  175.1650  144.5390 C   0  0  0  0  0  0  0  0  0  0  0  0
  191.1240  175.0230  144.7770 C   0  0  0  0  0  3  0  0  0  0  0  0
  190.4180  169.8500  138.9230 C   0  0  0  0  0  1  0  0  0  0  0  0
  193.2640  170.8620  139.5490 C   0  0  0  0  0  1  0  0  0  0  0  0
  190.0520  172.3350  138.9360 C   0  0  0  0  0  0  0  0  0  0  0  0
  191.9850  173.0940  139.3740 C   0  0  0  0  0  0  0  0  0  0  0  0
  192.0540  171.7090  139.3350 C   0  0  0  0  0  0  0  0  0  0  0  0
  188.8210  172.2900  138.6700 O   0  0  0  0  0  0  0  0  0  0  0  0
  190.7210  173.4940  139.1170 N   0  0  0  0  0  2  0  0  0  0  0  0
  190.8260  171.2400  139.0610 N   0  0  0  0  0  0  0  0  0  0  0  0
  189.2040  174.9410  146.3890 C   0  0  0  0  0  2  0  0  0  0  0  0
  188.4550  176.2610  146.2850 C   0  0  0  0  0  2  0  0  0  0  0  0
  187.3300  177.7990  144.9070 C   0  0  2  0  0  3  0  0  0  0  0  0
  188.6540  177.6480  144.2910 C   0  0  0  0  0  0  0  0  0  0  0  0
  187.9980  176.4730  144.9150 N   0  0  0  0  0  0  0  0  0  0  0  0
  189.7620  178.1510  144.9820 O   0  0  0  0  0  1  0  0  0  0  0  0
  188.7780  177.5230  142.9050 O   0  0  0  0  0  1  0  0  0  0  0  0
  185.8590  176.5180  143.2150 C   0  0  0  0  0  1  0  0  0  0  0  0
  186.0980  177.8360  143.9570 C   0  0  0  0  0  0  0  0  0  0  0  0
  186.3070  178.9320  142.9140 C   0  0  0  0  0  1  0  0  0  0  0  0
  184.8340  178.1390  144.7960 C   0  0  2  0  0  3  0  0  0  0  0  0
  184.4790  179.4910  144.7200 O   0  0  0  0  0  1  0  0  0  0  0  0
  184.9380  177.7180  146.2340 C   0  0  0  0  0  0  0  0  0  0  0  0
  184.8780  176.5010  146.5530 O   0  0  0  0  0  0  0  0  0  0  0  0
  185.0720  178.7060  147.2500 N   0  0  0  0  0  1  0  0  0  0  0  0
  1  4  1  1  0  0  0
  1 10  1  0  0  0  0
  4  3  2  0  0  0  0
  5  4  1  0  0  0  0
  6  7  1  0  0  0  0
  7 14  2  0  0  0  0
  8  6  1  0  0  0  0
  9 27  1  0  0  0  0
  9 14  1  0  0  0  0
 10  2  1  1  0  0  0
 10 13  1  0  0  0  0
 11  5  1  0  0  0  0
 12  3  1  6  0  0  0
 12  8  1  0  0  0  0
 13 12  1  0  0  0  0
 13 17  1  1  0  0  0
 15 11  1  0  0  0  0
 15 16  1  0  0  0  0
 16 22  1  6  0  0  0
 16  1  1  0  0  0  0
 17 18  1  0  0  0  0
 17  6  2  0  0  0  0
 18  9  2  0  0  0  0
 19 26  1  0  0  0  0
 21 26  1  0  0  0  0
 21 25  1  0  0  0  0
 23 22  2  0  0  0  0
 23 20  1  0  0  0  0
 24 21  2  0  0  0  0
 25 22  1  0  0  0  0
 26 23  1  0  0  0  0
 28 27  1  0  0  0  0
 29 35  1  6  0  0  0
 29 31  1  0  0  0  0
 30 29  1  0  0  0  0
 30 31  1  0  0  0  0
 30 32  1  0  0  0  0
 31 28  1  0  0  0  0
 33 30  1  0  0  0  0
 34 35  1  0  0  0  0
 35 37  1  0  0  0  0
 36 35  1  0  0  0  0
 37 38  1  1  0  0  0
 37 39  1  0  0  0  0
 39 40  2  0  0  0  0
 39 41  1  0  0  0  0
M  END
>  <MODEL>
4

>  <REMARK>
 VINA RESULT:      -7.5      3.131      6.236
  Name = 
  7 active torsions:
  status: ('A' for Active; 'I' for Inactive)
    1  A    between atoms: C_4  and  C_21
    2  A    between atoms: C_8  and  C_39
    3  A    between atoms: C_12  and  C_16
    4  A    between atoms: C_13  and  N_24
    5  A    between atoms: C_13  and  C_36
    6  A    between atoms: C_16  and  C_21
    7  A    between atoms: C_25  and  C_36
                            x       y       z     vdW  Elec       q    Type
                         _______ _______ _______ _____ _____    ______ ____

>  <TORSDO>
F 7

$$$$
=
 OpenBabel11062421433D

 41 46  0  0  1  0  0  0  0  0999 V2000
  188.7280  175.1470  142.4470 C   0  0  1  0  0  3  0  0  0  0  0  0
  189.5040  173.0500  143.3360 O   0  0  0  0  0  1  0  0  0  0  0  0
  188.1930  174.5490  140.1110 N   0  0  0  0  0  0  0  0  0  0  0  0
  188.1530  175.4440  141.0570 C   0  0  0  0  0  0  0  0  0  0  0  0
  187.5250  176.7040  140.8060 N   0  0  0  0  0  2  0  0  0  0  0  0
  190.5340  171.5620  139.8090 C   0  0  0  0  0  0  0  0  0  0  0  0
  191.1220  170.3310  139.5200 C   0  0  0  0  0  3  0  0  0  0  0  0
  189.2030  172.3040  138.8670 S   0  0  0  0  0  0  0  0  0  0  0  0
  192.5820  170.6190  141.4500 C   0  0  0  0  0  0  0  0  0  0  0  0
  189.8680  174.0870  142.4740 C   0  0  1  0  0  3  0  0  0  0  0  0
  187.8120  177.8720  141.6320 C   0  0  0  0  0  2  0  0  0  0  0  0
  188.8410  173.2730  140.3700 C   0  0  1  0  0  3  0  0  0  0  0  0
  190.1590  173.5460  141.0690 C   0  0  2  0  0  3  0  0  0  0  0  0
  192.1520  169.8590  140.3470 C   0  0  0  0  0  3  0  0  0  0  0  0
  187.9900  177.4710  143.0900 C   0  0  0  0  0  2  0  0  0  0  0  0
  189.1020  176.4290  143.2060 C   0  0  1  0  0  3  0  0  0  0  0  0
  190.9260  172.2870  140.9220 C   0  0  0  0  0  0  0  0  0  0  0  0
  191.9650  171.8440  141.7440 C   0  0  0  0  0  3  0  0  0  0  0  0
  191.3410  176.1850  147.7170 C   0  0  0  0  0  1  0  0  0  0  0  0
  191.7360  177.2190  144.8370 C   0  0  0  0  0  1  0  0  0  0  0  0
  189.1870  175.4600  146.6470 C   0  0  0  0  0  0  0  0  0  0  0  0
  189.3940  176.1560  144.6520 C   0  0  0  0  0  0  0  0  0  0  0  0
  190.5380  176.4960  145.3580 C   0  0  0  0  0  0  0  0  0  0  0  0
  188.7040  174.9160  147.6750 O   0  0  0  0  0  0  0  0  0  0  0  0
  188.5390  175.4970  145.4630 N   0  0  0  0  0  2  0  0  0  0  0  0
  190.3950  176.0550  146.6180 N   0  0  0  0  0  0  0  0  0  0  0  0
  193.6670  170.0970  142.3300 C   0  0  0  0  0  2  0  0  0  0  0  0
  193.6360  170.7780  143.6910 C   0  0  0  0  0  2  0  0  0  0  0  0
  194.6280  172.5230  144.9150 C   0  0  2  0  0  3  0  0  0  0  0  0
  195.3070  171.3100  145.3830 C   0  0  0  0  0  0  0  0  0  0  0  0
  194.9160  171.4260  143.9570 N   0  0  0  0  0  0  0  0  0  0  0  0
  194.5660  170.3890  146.1330 O   0  0  0  0  0  1  0  0  0  0  0  0
  196.6920  171.3000  145.5630 O   0  0  0  0  0  1  0  0  0  0  0  0
  196.5630  173.5760  143.5650 C   0  0  0  0  0  1  0  0  0  0  0  0
  195.5070  173.7820  144.6560 C   0  0  0  0  0  0  0  0  0  0  0  0
  196.2310  174.1560  145.9470 C   0  0  0  0  0  1  0  0  0  0  0  0
  194.5890  174.9440  144.2080 C   0  0  2  0  0  3  0  0  0  0  0  0
  193.4500  174.4730  143.5450 O   0  0  0  0  0  1  0  0  0  0  0  0
  195.2790  175.9800  143.3670 C   0  0  0  0  0  0  0  0  0  0  0  0
  196.0870  176.7960  143.8870 O   0  0  0  0  0  0  0  0  0  0  0  0
  194.9930  176.0630  141.9750 N   0  0  0  0  0  1  0  0  0  0  0  0
  1  4  1  6  0  0  0
  1 10  1  0  0  0  0
  1 16  1  0  0  0  0
  3 12  1  0  0  0  0
  3  4  2  0  0  0  0
  5  4  1  0  0  0  0
  5 11  1  0  0  0  0
  6 17  1  0  0  0  0
  7  6  2  0  0  0  0
  7 14  1  0  0  0  0
  8  6  1  0  0  0  0
  9 18  1  0  0  0  0
  9 27  1  0  0  0  0
 10  2  1  1  0  0  0
 11 15  1  0  0  0  0
 12  8  1  6  0  0  0
 12 13  1  0  0  0  0
 13 17  1  1  0  0  0
 13 10  1  0  0  0  0
 14  9  2  0  0  0  0
 15 16  1  0  0  0  0
 16 22  1  1  0  0  0
 17 18  2  0  0  0  0
 20 23  1  0  0  0  0
 21 24  2  0  0  0  0
 22 23  2  0  0  0  0
 22 25  1  0  0  0  0
 23 26  1  0  0  0  0
 25 21  1  0  0  0  0
 26 21  1  0  0  0  0
 26 19  1  0  0  0  0
 27 28  1  0  0  0  0
 28 31  1  0  0  0  0
 29 35  1  6  0  0  0
 29 30  1  0  0  0  0
 30 33  1  0  0  0  0
 30 32  1  0  0  0  0
 31 29  1  0  0  0  0
 31 30  1  0  0  0  0
 34 35  1  0  0  0  0
 35 36  1  0  0  0  0
 37 38  1  6  0  0  0
 37 35  1  0  0  0  0
 39 40  2  0  0  0  0
 39 37  1  0  0  0  0
 41 39  1  0  0  0  0
M  END
>  <MODEL>
5

>  <REMARK>
 VINA RESULT:      -7.3      2.940      7.577
  Name = 
  7 active torsions:
  status: ('A' for Active; 'I' for Inactive)
    1  A    between atoms: C_4  and  C_21
    2  A    between atoms: C_8  and  C_39
    3  A    between atoms: C_12  and  C_16
    4  A    between atoms: C_13  and  N_24
    5  A    between atoms: C_13  and  C_36
    6  A    between atoms: C_16  and  C_21
    7  A    between atoms: C_25  and  C_36
                            x       y       z     vdW  Elec       q    Type
                         _______ _______ _______ _____ _____    ______ ____

>  <TORSDO>
F 7

$$$$
=
 OpenBabel11062421433D

 41 46  0  0  1  0  0  0  0  0999 V2000
  193.3680  173.1190  143.5250 C   0  0  1  0  0  3  0  0  0  0  0  0
  192.3040  175.0570  142.5730 O   0  0  0  0  0  1  0  0  0  0  0  0
  193.0850  171.4440  141.7330 N   0  0  0  0  0  0  0  0  0  0  0  0
  193.6170  171.7500  142.8820 C   0  0  0  0  0  0  0  0  0  0  0  0
  194.4790  170.8110  143.5290 N   0  0  0  0  0  2  0  0  0  0  0  0
  190.0150  172.9840  140.0880 C   0  0  0  0  0  0  0  0  0  0  0  0
  189.0560  173.4520  139.1900 C   0  0  0  0  0  3  0  0  0  0  0  0
  191.2040  171.6920  139.7290 S   0  0  0  0  0  0  0  0  0  0  0  0
  188.2920  175.0250  140.8870 C   0  0  0  0  0  0  0  0  0  0  0  0
  192.0280  173.8010  143.1210 C   0  0  1  0  0  3  0  0  0  0  0  0
  194.7530  170.8940  144.9590 C   0  0  0  0  0  2  0  0  0  0  0  0
  192.2010  172.4000  141.0840 C   0  0  1  0  0  3  0  0  0  0  0  0
  191.2410  172.9390  142.1280 C   0  0  2  0  0  3  0  0  0  0  0  0
  188.1910  174.4780  139.5950 C   0  0  0  0  0  3  0  0  0  0  0  0
  194.8610  172.3460  145.4050 C   0  0  0  0  0  2  0  0  0  0  0  0
  193.5750  173.0910  145.0460 C   0  0  1  0  0  3  0  0  0  0  0  0
  190.1460  173.5550  141.3430 C   0  0  0  0  0  0  0  0  0  0  0  0
  189.2790  174.5630  141.7710 C   0  0  0  0  0  3  0  0  0  0  0  0
  194.8690  177.8400  146.1400 C   0  0  0  0  0  1  0  0  0  0  0  0
  195.6660  175.4220  144.3980 C   0  0  0  0  0  1  0  0  0  0  0  0
  193.1180  176.1680  146.8110 C   0  0  0  0  0  0  0  0  0  0  0  0
  193.6090  174.4730  145.6310 C   0  0  0  0  0  0  0  0  0  0  0  0
  194.5190  175.4820  145.3520 C   0  0  0  0  0  0  0  0  0  0  0  0
  192.5310  176.9140  147.6390 O   0  0  0  0  0  0  0  0  0  0  0  0
  192.7240  174.9010  146.5570 N   0  0  0  0  0  2  0  0  0  0  0  0
  194.1970  176.5500  146.1000 N   0  0  0  0  0  0  0  0  0  0  0  0
  187.3760  176.1270  141.2990 C   0  0  0  0  0  2  0  0  0  0  0  0
  187.8110  176.7270  142.6280 C   0  0  0  0  0  2  0  0  0  0  0  0
  187.0460  177.8970  144.5180 C   0  0  2  0  0  3  0  0  0  0  0  0
  186.0960  178.2470  143.4560 C   0  0  0  0  0  0  0  0  0  0  0  0
  186.6590  176.8760  143.5120 N   0  0  0  0  0  0  0  0  0  0  0  0
  186.5550  179.0400  142.3980 O   0  0  0  0  0  1  0  0  0  0  0  0
  184.7240  178.2770  143.7170 O   0  0  0  0  0  1  0  0  0  0  0  0
  185.4770  176.4160  145.9390 C   0  0  0  0  0  1  0  0  0  0  0  0
  186.4620  177.5890  145.9280 C   0  0  0  0  0  0  0  0  0  0  0  0
  185.7280  178.8260  146.4430 C   0  0  0  0  0  1  0  0  0  0  0  0
  187.6280  177.2330  146.8810 C   0  0  2  0  0  3  0  0  0  0  0  0
  187.9510  178.3050  147.7210 O   0  0  0  0  0  1  0  0  0  0  0  0
  188.8640  176.7430  146.1800 C   0  0  0  0  0  0  0  0  0  0  0  0
  189.7850  177.5440  145.8670 O   0  0  0  0  0  0  0  0  0  0  0  0
  188.9800  175.3670  145.8360 N   0  0  0  0  0  1  0  0  0  0  0  0
  1  4  1  1  0  0  0
  1 16  1  0  0  0  0
  3  4  2  0  0  0  0
  4  5  1  0  0  0  0
  5 11  1  0  0  0  0
  6 17  1  0  0  0  0
  7 14  1  0  0  0  0
  7  6  2  0  0  0  0
  8  6  1  0  0  0  0
  9 27  1  0  0  0  0
  9 18  1  0  0  0  0
 10  2  1  6  0  0  0
 10  1  1  0  0  0  0
 11 15  1  0  0  0  0
 12  8  1  6  0  0  0
 12  3  1  0  0  0  0
 12 13  1  0  0  0  0
 13 17  1  6  0  0  0
 13 10  1  0  0  0  0
 14  9  2  0  0  0  0
 16 15  1  0  0  0  0
 16 22  1  6  0  0  0
 17 18  2  0  0  0  0
 20 23  1  0  0  0  0
 21 24  2  0  0  0  0
 22 25  1  0  0  0  0
 23 22  2  0  0  0  0
 23 26  1  0  0  0  0
 25 21  1  0  0  0  0
 26 19  1  0  0  0  0
 26 21  1  0  0  0  0
 27 28  1  0  0  0  0
 28 31  1  0  0  0  0
 29 35  1  1  0  0  0
 30 31  1  0  0  0  0
 30 33  1  0  0  0  0
 30 29  1  0  0  0  0
 31 29  1  0  0  0  0
 32 30  1  0  0  0  0
 35 34  1  0  0  0  0
 35 36  1  0  0  0  0
 35 37  1  0  0  0  0
 37 38  1  6  0  0  0
 39 37  1  0  0  0  0
 40 39  2  0  0  0  0
 41 39  1  0  0  0  0
M  END
>  <MODEL>
6

>  <REMARK>
 VINA RESULT:      -7.2      1.825      2.678
  Name = 
  7 active torsions:
  status: ('A' for Active; 'I' for Inactive)
    1  A    between atoms: C_4  and  C_21
    2  A    between atoms: C_8  and  C_39
    3  A    between atoms: C_12  and  C_16
    4  A    between atoms: C_13  and  N_24
    5  A    between atoms: C_13  and  C_36
    6  A    between atoms: C_16  and  C_21
    7  A    between atoms: C_25  and  C_36
                            x       y       z     vdW  Elec       q    Type
                         _______ _______ _______ _____ _____    ______ ____

>  <TORSDO>
F 7

$$$$
=
 OpenBabel11062421433D

 41 46  0  0  1  0  0  0  0  0999 V2000
  187.4120  177.5630  145.3670 C   0  0  1  0  0  3  0  0  0  0  0  0
  189.3190  177.9260  143.9450 O   0  0  0  0  0  1  0  0  0  0  0  0
  188.4380  177.5480  147.6130 N   0  0  0  0  0  0  0  0  0  0  0  0
  187.3480  177.5380  146.8980 C   0  0  0  0  0  0  0  0  0  0  0  0
  186.0780  177.5470  147.5540 N   0  0  0  0  0  2  0  0  0  0  0  0
  191.9430  176.5050  146.5550 C   0  0  0  0  0  0  0  0  0  0  0  0
  193.3230  176.3570  146.4120 C   0  0  0  0  0  3  0  0  0  0  0  0
  191.1300  177.1160  148.0300 S   0  0  0  0  0  0  0  0  0  0  0  0
  192.9620  175.5520  144.1410 C   0  0  0  0  0  0  0  0  0  0  0  0
  188.7090  176.9620  144.7520 C   0  0  1  0  0  3  0  0  0  0  0  0
  184.8670  177.1130  146.8670 C   0  0  0  0  0  2  0  0  0  0  0  0
  189.7270  177.5290  146.9390 C   0  0  1  0  0  3  0  0  0  0  0  0
  189.6720  176.4810  145.8440 C   0  0  2  0  0  3  0  0  0  0  0  0
  193.8320  175.8770  145.1970 C   0  0  0  0  0  3  0  0  0  0  0  0
  184.8900  177.5460  145.4080 C   0  0  0  0  0  2  0  0  0  0  0  0
  186.1390  176.9890  144.7250 C   0  0  1  0  0  3  0  0  0  0  0  0
  191.0900  176.2300  145.4990 C   0  0  0  0  0  0  0  0  0  0  0  0
  191.5780  175.7300  144.2890 C   0  0  0  0  0  3  0  0  0  0  0  0
  186.7850  176.7320  139.7310 C   0  0  0  0  0  1  0  0  0  0  0  0
  187.4860  175.2960  142.3700 C   0  0  0  0  0  1  0  0  0  0  0  0
  185.6410  178.2170  141.4040 C   0  0  0  0  0  0  0  0  0  0  0  0
  186.0810  177.2710  143.2520 C   0  0  0  0  0  0  0  0  0  0  0  0
  186.6690  176.5380  142.2320 C   0  0  0  0  0  0  0  0  0  0  0  0
  185.1870  179.0390  140.5640 O   0  0  0  0  0  0  0  0  0  0  0  0
  185.4340  178.3370  142.7330 N   0  0  0  0  0  2  0  0  0  0  0  0
  186.3810  177.1430  141.0680 N   0  0  0  0  0  0  0  0  0  0  0  0
  193.5170  175.0580  142.8480 C   0  0  0  0  0  2  0  0  0  0  0  0
  193.8900  173.5860  142.9430 C   0  0  0  0  0  2  0  0  0  0  0  0
  192.4540  172.0240  141.9300 C   0  0  2  0  0  3  0  0  0  0  0  0
  192.9860  171.3290  143.1080 C   0  0  0  0  0  0  0  0  0  0  0  0
  192.6960  172.7810  143.1840 N   0  0  0  0  0  0  0  0  0  0  0  0
  194.3430  170.9890  143.1140 O   0  0  0  0  0  1  0  0  0  0  0  0
  192.1420  170.5670  143.9200 O   0  0  0  0  0  1  0  0  0  0  0  0
  190.0320  172.1990  142.8100 C   0  0  0  0  0  1  0  0  0  0  0  0
  190.9370  171.8560  141.6230 C   0  0  0  0  0  0  0  0  0  0  0  0
  190.6670  170.4050  141.2300 C   0  0  0  0  0  1  0  0  0  0  0  0
  190.5590  172.7980  140.4560 C   0  0  2  0  0  3  0  0  0  0  0  0
  190.4460  174.1260  140.8830 O   0  0  0  0  0  1  0  0  0  0  0  0
  189.3150  172.3900  139.7180 C   0  0  0  0  0  0  0  0  0  0  0  0
  188.1760  172.6690  140.1780 O   0  0  0  0  0  0  0  0  0  0  0  0
  189.4250  171.6540  138.5050 N   0  0  0  0  0  1  0  0  0  0  0  0
  1  4  1  1  0  0  0
  4  5  1  0  0  0  0
  4  3  2  0  0  0  0
  6  8  1  0  0  0  0
  7  6  1  0  0  0  0
  9 18  2  0  0  0  0
  9 14  1  0  0  0  0
 10  2  1  1  0  0  0
 10  1  1  0  0  0  0
 10 13  1  0  0  0  0
 11  5  1  0  0  0  0
 12  3  1  1  0  0  0
 12  8  1  0  0  0  0
 13 17  1  6  0  0  0
 13 12  1  0  0  0  0
 14  7  2  0  0  0  0
 15 11  1  0  0  0  0
 16 22  1  6  0  0  0
 16  1  1  0  0  0  0
 16 15  1  0  0  0  0
 17  6  2  0  0  0  0
 18 17  1  0  0  0  0
 19 26  1  0  0  0  0
 21 25  1  0  0  0  0
 23 20  1  0  0  0  0
 23 22  2  0  0  0  0
 24 21  2  0  0  0  0
 25 22  1  0  0  0  0
 26 21  1  0  0  0  0
 26 23  1  0  0  0  0
 27 28  1  0  0  0  0
 27  9  1  0  0  0  0
 28 31  1  0  0  0  0
 29 35  1  1  0  0  0
 29 30  1  0  0  0  0
 29 31  1  0  0  0  0
 30 32  1  0  0  0  0
 30 31  1  0  0  0  0
 30 33  1  0  0  0  0
 35 34  1  0  0  0  0
 36 35  1  0  0  0  0
 37 38  1  1  0  0  0
 37 35  1  0  0  0  0
 39 40  2  0  0  0  0
 39 37  1  0  0  0  0
 41 39  1  0  0  0  0
M  END
>  <MODEL>
7

>  <REMARK>
 VINA RESULT:      -7.2      2.830      8.439
  Name = 
  7 active torsions:
  status: ('A' for Active; 'I' for Inactive)
    1  A    between atoms: C_4  and  C_21
    2  A    between atoms: C_8  and  C_39
    3  A    between atoms: C_12  and  C_16
    4  A    between atoms: C_13  and  N_24
    5  A    between atoms: C_13  and  C_36
    6  A    between atoms: C_16  and  C_21
    7  A    between atoms: C_25  and  C_36
                            x       y       z     vdW  Elec       q    Type
                         _______ _______ _______ _____ _____    ______ ____

>  <TORSDO>
F 7

$$$$
=
 OpenBabel11062421433D

 41 46  0  0  1  0  0  0  0  0999 V2000
  188.2360  175.5680  142.0450 C   0  0  1  0  0  3  0  0  0  0  0  0
  189.2350  173.8140  143.3560 O   0  0  0  0  0  1  0  0  0  0  0  0
  188.1480  174.5470  139.7990 N   0  0  0  0  0  0  0  0  0  0  0  0
  187.8190  175.5430  140.5710 C   0  0  0  0  0  0  0  0  0  0  0  0
  187.0220  176.6070  140.0430 N   0  0  0  0  0  2  0  0  0  0  0  0
  190.9970  172.0640  140.2650 C   0  0  0  0  0  0  0  0  0  0  0  0
  191.8260  170.9420  140.2550 C   0  0  0  0  0  3  0  0  0  0  0  0
  189.7020  172.3870  139.0700 S   0  0  0  0  0  0  0  0  0  0  0  0
  192.9260  171.7850  142.2590 C   0  0  0  0  0  0  0  0  0  0  0  0
  189.5290  174.7660  142.3770 C   0  0  1  0  0  3  0  0  0  0  0  0
  186.9800  177.9140  140.6870 C   0  0  0  0  0  2  0  0  0  0  0  0
  188.9680  173.4730  140.3390 C   0  0  1  0  0  3  0  0  0  0  0  0
  190.1060  174.0960  141.1250 C   0  0  2  0  0  3  0  0  0  0  0  0
  192.7960  170.8050  141.2580 C   0  0  0  0  0  3  0  0  0  0  0  0
  187.0180  177.7710  142.2030 C   0  0  0  0  0  2  0  0  0  0  0  0
  188.2680  176.9940  142.6150 C   0  0  1  0  0  3  0  0  0  0  0  0
  191.0940  173.0040  141.2780 C   0  0  0  0  0  0  0  0  0  0  0  0
  192.0680  172.8950  142.2730 C   0  0  0  0  0  3  0  0  0  0  0  0
  190.0350  177.5150  147.3090 C   0  0  0  0  0  1  0  0  0  0  0  0
  190.7860  177.9370  144.3460 C   0  0  0  0  0  1  0  0  0  0  0  0
  187.9440  176.7180  146.1650 C   0  0  0  0  0  0  0  0  0  0  0  0
  188.3970  176.9950  144.1100 C   0  0  0  0  0  0  0  0  0  0  0  0
  189.4900  177.4010  144.8600 C   0  0  0  0  0  0  0  0  0  0  0  0
  187.3230  176.4160  147.2190 O   0  0  0  0  0  0  0  0  0  0  0  0
  187.4180  176.5580  144.9320 N   0  0  0  0  0  2  0  0  0  0  0  0
  189.1920  177.2260  146.1580 N   0  0  0  0  0  0  0  0  0  0  0  0
  193.9500  171.6190  143.3300 C   0  0  0  0  0  2  0  0  0  0  0  0
  195.3130  172.1070  142.8600 C   0  0  0  0  0  2  0  0  0  0  0  0
  196.2190  174.2160  143.3680 C   0  0  2  0  0  3  0  0  0  0  0  0
  196.5280  174.0120  141.9480 C   0  0  0  0  0  0  0  0  0  0  0  0
  195.2410  173.5180  142.4950 N   0  0  0  0  0  0  0  0  0  0  0  0
  197.4560  173.0190  141.6130 O   0  0  0  0  0  1  0  0  0  0  0  0
  196.3610  175.0530  141.0310 O   0  0  0  0  0  1  0  0  0  0  0  0
  194.4040  176.0410  143.1420 C   0  0  0  0  0  1  0  0  0  0  0  0
  195.7260  175.6290  143.7980 C   0  0  0  0  0  0  0  0  0  0  0  0
  196.7840  176.6620  143.4140 C   0  0  0  0  0  1  0  0  0  0  0  0
  195.5130  175.6350  145.3300 C   0  0  2  0  0  3  0  0  0  0  0  0
  195.1040  174.3800  145.7970 O   0  0  0  0  0  1  0  0  0  0  0  0
  194.5620  176.6940  145.8120 C   0  0  0  0  0  0  0  0  0  0  0  0
  194.8840  177.9110  145.7730 O   0  0  0  0  0  0  0  0  0  0  0  0
  193.2990  176.3160  146.3480 N   0  0  0  0  0  1  0  0  0  0  0  0
  1  4  1  6  0  0  0
  1 10  1  0  0  0  0
  1 16  1  0  0  0  0
  3 12  1  0  0  0  0
  3  4  2  0  0  0  0
  5  4  1  0  0  0  0
  5 11  1  0  0  0  0
  6 17  1  0  0  0  0
  7  6  2  0  0  0  0
  7 14  1  0  0  0  0
  8  6  1  0  0  0  0
  9 18  1  0  0  0  0
  9 27  1  0  0  0  0
 10  2  1  1  0  0  0
 11 15  1  0  0  0  0
 12  8  1  6  0  0  0
 12 13  1  0  0  0  0
 13 17  1  1  0  0  0
 13 10  1  0  0  0  0
 14  9  2  0  0  0  0
 15 16  1  0  0  0  0
 16 22  1  1  0  0  0
 17 18  2  0  0  0  0
 20 23  1  0  0  0  0
 21 24  2  0  0  0  0
 22 23  2  0  0  0  0
 22 25  1  0  0  0  0
 23 26  1  0  0  0  0
 25 21  1  0  0  0  0
 26 21  1  0  0  0  0
 26 19  1  0  0  0  0
 28 27  1  0  0  0  0
 29 35  1  6  0  0  0
 30 31  1  0  0  0  0
 30 29  1  0  0  0  0
 31 28  1  0  0  0  0
 31 29  1  0  0  0  0
 32 30  1  0  0  0  0
 33 30  1  0  0  0  0
 34 35  1  0  0  0  0
 35 37  1  0  0  0  0
 36 35  1  0  0  0  0
 37 38  1  6  0  0  0
 37 39  1  0  0  0  0
 39 41  1  0  0  0  0
 40 39  2  0  0  0  0
M  END
>  <MODEL>
8

>  <REMARK>
 VINA RESULT:      -7.1      2.853      7.527
  Name = 
  7 active torsions:
  status: ('A' for Active; 'I' for Inactive)
    1  A    between atoms: C_4  and  C_21
    2  A    between atoms: C_8  and  C_39
    3  A    between atoms: C_12  and  C_16
    4  A    between atoms: C_13  and  N_24
    5  A    between atoms: C_13  and  C_36
    6  A    between atoms: C_16  and  C_21
    7  A    between atoms: C_25  and  C_36
                            x       y       z     vdW  Elec       q    Type
                         _______ _______ _______ _____ _____    ______ ____

>  <TORSDO>
F 7

$$$$
=
 OpenBabel11062421433D

 41 46  0  0  1  0  0  0  0  0999 V2000
  188.1300  177.1120  145.0090 C   0  0  1  0  0  3  0  0  0  0  0  0
  190.1680  177.3340  143.7490 O   0  0  0  0  0  1  0  0  0  0  0  0
  188.9120  177.4770  147.3230 N   0  0  0  0  0  0  0  0  0  0  0  0
  187.9060  177.3150  146.5120 C   0  0  0  0  0  0  0  0  0  0  0  0
  186.5730  177.3710  147.0270 N   0  0  0  0  0  2  0  0  0  0  0  0
  192.5350  176.4290  146.7970 C   0  0  0  0  0  0  0  0  0  0  0  0
  193.9250  176.3170  146.8180 C   0  0  0  0  0  3  0  0  0  0  0  0
  191.5560  177.2210  148.0710 S   0  0  0  0  0  0  0  0  0  0  0  0
  193.8260  175.1650  144.6730 C   0  0  0  0  0  0  0  0  0  0  0  0
  189.5000  176.4780  144.6290 C   0  0  1  0  0  3  0  0  0  0  0  0
  185.4530  176.7900  146.2970 C   0  0  0  0  0  2  0  0  0  0  0  0
  190.2660  177.4090  146.7940 C   0  0  1  0  0  3  0  0  0  0  0  0
  190.3530  176.2070  145.8720 C   0  0  2  0  0  3  0  0  0  0  0  0
  194.5720  175.6810  145.7490 C   0  0  0  0  0  3  0  0  0  0  0  0
  185.6190  176.9990  144.7970 C   0  0  0  0  0  2  0  0  0  0  0  0
  186.9470  176.3970  144.3380 C   0  0  1  0  0  3  0  0  0  0  0  0
  191.8060  175.9630  145.7150 C   0  0  0  0  0  0  0  0  0  0  0  0
  192.4310  175.3070  144.6520 C   0  0  0  0  0  3  0  0  0  0  0  0
  187.8340  175.2450  139.5110 C   0  0  0  0  0  1  0  0  0  0  0  0
  188.0660  174.1320  142.3790 C   0  0  0  0  0  1  0  0  0  0  0  0
  186.9140  177.1640  140.8460 C   0  0  0  0  0  0  0  0  0  0  0  0
  187.0390  176.4510  142.8410 C   0  0  0  0  0  0  0  0  0  0  0  0
  187.5270  175.4700  141.9920 C   0  0  0  0  0  0  0  0  0  0  0  0
  186.6880  177.9160  139.8600 O   0  0  0  0  0  0  0  0  0  0  0  0
  186.6540  177.5260  142.1200 N   0  0  0  0  0  2  0  0  0  0  0  0
  187.4410  175.9290  140.7330 N   0  0  0  0  0  0  0  0  0  0  0  0
  194.5280  174.5060  143.5350 C   0  0  0  0  0  2  0  0  0  0  0  0
  193.6370  174.4580  142.3020 C   0  0  0  0  0  2  0  0  0  0  0  0
  191.8340  172.9540  142.1630 C   0  0  2  0  0  3  0  0  0  0  0  0
  192.3960  172.9860  140.8070 C   0  0  0  0  0  0  0  0  0  0  0  0
  193.3030  173.0740  141.9780 N   0  0  0  0  0  0  0  0  0  0  0  0
  192.2600  174.1650  140.0660 O   0  0  0  0  0  1  0  0  0  0  0  0
  192.5630  171.8020  140.0840 O   0  0  0  0  0  1  0  0  0  0  0  0
  190.4120  170.8200  141.8570 C   0  0  0  0  0  1  0  0  0  0  0  0
  191.4200  171.5670  142.7350 C   0  0  0  0  0  0  0  0  0  0  0  0
  190.7900  171.7650  144.1120 C   0  0  0  0  0  1  0  0  0  0  0  0
  192.6850  170.6830  142.8550 C   0  0  2  0  0  3  0  0  0  0  0  0
  192.5100  169.4470  142.2200 O   0  0  0  0  0  1  0  0  0  0  0  0
  193.1510  170.4700  144.2670 C   0  0  0  0  0  0  0  0  0  0  0  0
  193.6420  171.4220  144.9310 O   0  0  0  0  0  0  0  0  0  0  0  0
  193.0680  169.1740  144.8490 N   0  0  0  0  0  1  0  0  0  0  0  0
  1  4  1  1  0  0  0
  4  5  1  0  0  0  0
  4  3  2  0  0  0  0
  6  7  1  0  0  0  0
  6  8  1  0  0  0  0
  9 14  1  0  0  0  0
 10  2  1  6  0  0  0
 10  1  1  0  0  0  0
 10 13  1  0  0  0  0
 11  5  1  0  0  0  0
 12  3  1  1  0  0  0
 12  8  1  0  0  0  0
 13 17  1  6  0  0  0
 13 12  1  0  0  0  0
 14  7  2  0  0  0  0
 15 11  1  0  0  0  0
 16 22  1  6  0  0  0
 16 15  1  0  0  0  0
 16  1  1  0  0  0  0
 17  6  2  0  0  0  0
 18  9  2  0  0  0  0
 18 17  1  0  0  0  0
 19 26  1  0  0  0  0
 21 25  1  0  0  0  0
 23 20  1  0  0  0  0
 23 22  2  0  0  0  0
 24 21  2  0  0  0  0
 25 22  1  0  0  0  0
 26 21  1  0  0  0  0
 26 23  1  0  0  0  0
 27  9  1  0  0  0  0
 28 27  1  0  0  0  0
 29 35  1  1  0  0  0
 30 31  1  0  0  0  0
 30 29  1  0  0  0  0
 31 29  1  0  0  0  0
 31 28  1  0  0  0  0
 32 30  1  0  0  0  0
 33 30  1  0  0  0  0
 34 35  1  0  0  0  0
 35 37  1  0  0  0  0
 35 36  1  0  0  0  0
 37 38  1  1  0  0  0
 37 39  1  0  0  0  0
 39 41  1  0  0  0  0
 39 40  2  0  0  0  0
M  END
>  <MODEL>
9

>  <REMARK>
 VINA RESULT:      -7.0      3.031      8.302
  Name = 
  7 active torsions:
  status: ('A' for Active; 'I' for Inactive)
    1  A    between atoms: C_4  and  C_21
    2  A    between atoms: C_8  and  C_39
    3  A    between atoms: C_12  and  C_16
    4  A    between atoms: C_13  and  N_24
    5  A    between atoms: C_13  and  C_36
    6  A    between atoms: C_16  and  C_21
    7  A    between atoms: C_25  and  C_36
                            x       y       z     vdW  Elec       q    Type
                         _______ _______ _______ _____ _____    ______ ____

>  <TORSDO>
F 7

$$$$
